=
 OpenBabel11042417483D

 25 27  0  0  1  0  0  0  0  0999 V2000
  186.6270  177.4030  145.7790 C   0  0  0  0  0  0  0  0  0  0  0  0
  187.3800  177.2530  146.7770 O   0  0  0  0  0  0  0  0  0  0  0  0
  188.2590  176.3660  144.1340 N   0  0  0  0  0  0  0  0  0  0  0  0
  186.1220  177.1830  143.3590 C   0  0  0  0  0  0  0  0  0  0  0  0
  187.0410  176.9640  144.4070 C   0  0  0  0  0  0  0  0  0  0  0  0
  183.9890  178.0160  142.7130 O   0  0  0  0  0  0  0  0  0  0  0  0
  184.4920  178.2100  144.9750 N   0  0  0  0  0  0  0  0  0  0  0  0
  189.6770  175.4490  142.5750 O   0  0  0  0  0  0  0  0  0  0  0  0
  184.8190  177.8170  143.6390 C   0  0  0  0  0  0  0  0  0  0  0  0
  188.5710  175.9930  142.8440 C   0  0  0  0  0  0  0  0  0  0  0  0
  186.4480  176.8010  142.0610 C   0  0  0  0  0  3  0  0  0  0  0  0
  184.8740  178.4770  147.3320 C   0  0  0  0  0  1  0  0  0  0  0  0
  185.3010  178.0340  145.9760 C   0  0  0  0  0  0  0  0  0  0  0  0
  187.6730  176.2060  141.8030 C   0  0  0  0  0  3  0  0  0  0  0  0
  190.5230  176.8950  145.0290 C   0  0  0  0  0  2  0  0  0  0  0  0
  191.6440  175.9030  145.2940 C   0  0  2  0  0  3  0  0  0  0  0  0
  189.5770  174.6630  145.3780 C   0  0  0  0  0  2  0  0  0  0  0  0
  189.2230  176.1300  145.2220 C   0  0  2  0  0  3  0  0  0  0  0  0
  190.9990  174.6650  145.8860 C   0  0  0  0  0  2  0  0  0  0  0  0
  192.5940  176.4640  146.2420 N   0  0  0  0  0  2  0  0  0  0  0  0
  194.1460  176.5180  145.4740 S   0  0  0  0  0  0  0  0  0  0  0  0
  193.9850  176.3670  143.9870 O   0  0  0  0  0  0  0  0  0  0  0  0
  194.8160  177.8310  145.7720 O   0  0  0  0  0  0  0  0  0  0  0  0
  194.8230  173.9020  145.3830 C   0  0  0  0  0  1  0  0  0  0  0  0
  195.1600  175.1950  146.0970 C   0  0  0  0  0  2  0  0  0  0  0  0
  1 13  1  0  0  0  0
  1  2  2  0  0  0  0
  3  5  1  0  0  0  0
  4  9  1  0  0  0  0
  4  5  2  0  0  0  0
  5  1  1  0  0  0  0
  6  9  2  0  0  0  0
  7 13  2  0  0  0  0
  8 10  2  0  0  0  0
  9  7  1  0  0  0  0
 10  3  1  0  0  0  0
 11  4  1  0  0  0  0
 13 12  1  0  0  0  0
 14 11  2  0  0  0  0
 14 10  1  0  0  0  0
 15 18  1  0  0  0  0
 15 16  1  0  0  0  0
 16 19  1  0  0  0  0
 16 20  1  1  0  0  0
 17 19  1  0  0  0  0
 18  3  1  6  0  0  0
 18 17  1  0  0  0  0
 21 23  2  0  0  0  0
 21 25  1  0  0  0  0
 21 20  1  0  0  0  0
 22 21  2  0  0  0  0
 24 25  1  0  0  0  0
M  END
>  <MODEL>
1

>  <REMARK>
 VINA RESULT:      -7.1      0.000      0.000
  Name = 
  4 active torsions:
  status: ('A' for Active; 'I' for Inactive)
    1  A    between atoms: S_1  and  N_7
    2  A    between atoms: S_1  and  C_25
    3  A    between atoms: C_5  and  N_7
    4  A    between atoms: C_8  and  N_11
                            x       y       z     vdW  Elec       q    Type
                         _______ _______ _______ _____ _____    ______ ____

>  <TORSDO>
F 4

$$$$
=
 OpenBabel11042417483D

 25 27  0  0  1  0  0  0  0  0999 V2000
  186.6390  177.8490  143.0000 C   0  0  0  0  0  0  0  0  0  0  0  0
  187.5320  177.5570  142.1600 O   0  0  0  0  0  0  0  0  0  0  0  0
  188.1290  177.4720  145.0210 N   0  0  0  0  0  0  0  0  0  0  0  0
  185.8320  178.1570  145.3260 C   0  0  0  0  0  0  0  0  0  0  0  0
  186.9040  177.8160  144.4740 C   0  0  0  0  0  0  0  0  0  0  0  0
  183.5590  178.8360  145.5030 O   0  0  0  0  0  0  0  0  0  0  0  0
  184.3430  178.5370  143.3360 N   0  0  0  0  0  0  0  0  0  0  0  0
  189.4030  177.1490  146.9060 O   0  0  0  0  0  0  0  0  0  0  0  0
  184.5230  178.5270  144.7550 C   0  0  0  0  0  0  0  0  0  0  0  0
  188.2950  177.4610  146.3890 C   0  0  0  0  0  0  0  0  0  0  0  0
  186.0130  178.1420  146.7060 C   0  0  0  0  0  3  0  0  0  0  0  0
  185.0150  178.2670  141.0440 C   0  0  0  0  0  1  0  0  0  0  0  0
  185.2950  178.2300  142.5060 C   0  0  0  0  0  0  0  0  0  0  0  0
  187.2450  177.7930  147.2390 C   0  0  0  0  0  3  0  0  0  0  0  0
  189.8280  175.7440  144.4450 C   0  0  0  0  0  2  0  0  0  0  0  0
  191.3380  175.9130  144.4870 C   0  0  2  0  0  3  0  0  0  0  0  0
  190.3940  178.1160  144.2220 C   0  0  0  0  0  2  0  0  0  0  0  0
  189.2550  177.1190  144.1390 C   0  0  2  0  0  3  0  0  0  0  0  0
  191.6360  177.3010  143.9540 C   0  0  0  0  0  2  0  0  0  0  0  0
  191.9760  174.9150  143.6440 N   0  0  0  0  0  2  0  0  0  0  0  0
  193.1150  174.0430  144.6170 S   0  0  0  0  0  0  0  0  0  0  0  0
  192.6290  172.6370  144.8360 O   0  0  0  0  0  0  0  0  0  0  0  0
  194.4510  174.0070  143.9300 O   0  0  0  0  0  0  0  0  0  0  0  0
  194.5970  175.6300  146.2280 C   0  0  0  0  0  1  0  0  0  0  0  0
  193.2940  174.8580  146.1890 C   0  0  0  0  0  2  0  0  0  0  0  0
  1  5  1  0  0  0  0
  2  1  2  0  0  0  0
  3 10  1  0  0  0  0
  4 11  1  0  0  0  0
  5  3  1  0  0  0  0
  5  4  2  0  0  0  0
  7  9  1  0  0  0  0
  9  4  1  0  0  0  0
  9  6  2  0  0  0  0
 10  8  2  0  0  0  0
 10 14  1  0  0  0  0
 11 14  2  0  0  0  0
 12 13  1  0  0  0  0
 13  1  1  0  0  0  0
 13  7  2  0  0  0  0
 15 16  1  0  0  0  0
 16 20  1  6  0  0  0
 18 17  1  1  0  0  0
 18 15  1  0  0  0  0
 18  3  1  0  0  0  0
 19 17  1  0  0  0  0
 19 16  1  0  0  0  0
 20 21  1  0  0  0  0
 21 22  2  0  0  0  0
 21 25  1  0  0  0  0
 23 21  2  0  0  0  0
 25 24  1  0  0  0  0
M  END
>  <MODEL>
2

>  <REMARK>
 VINA RESULT:      -6.9      1.998      3.370
  Name = 
  4 active torsions:
  status: ('A' for Active; 'I' for Inactive)
    1  A    between atoms: S_1  and  N_7
    2  A    between atoms: S_1  and  C_25
    3  A    between atoms: C_5  and  N_7
    4  A    between atoms: C_8  and  N_11
                            x       y       z     vdW  Elec       q    Type
                         _______ _______ _______ _____ _____    ______ ____

>  <TORSDO>
F 4

$$$$
=
 OpenBabel11042417483D

 25 27  0  0  1  0  0  0  0  0999 V2000
  186.7900  177.8430  142.9560 C   0  0  0  0  0  0  0  0  0  0  0  0
  187.7130  177.5420  142.1540 O   0  0  0  0  0  0  0  0  0  0  0  0
  188.1880  177.4370  145.0360 N   0  0  0  0  0  0  0  0  0  0  0  0
  185.8910  178.1540  145.2490 C   0  0  0  0  0  0  0  0  0  0  0  0
  186.9930  177.8000  144.4400 C   0  0  0  0  0  0  0  0  0  0  0  0
  183.6230  178.8660  145.3340 O   0  0  0  0  0  0  0  0  0  0  0  0
  184.4930  178.5640  143.1990 N   0  0  0  0  0  0  0  0  0  0  0  0
  189.3770  177.0860  146.9720 O   0  0  0  0  0  0  0  0  0  0  0  0
  184.6130  178.5460  144.6250 C   0  0  0  0  0  0  0  0  0  0  0  0
  188.2970  177.4170  146.4100 C   0  0  0  0  0  0  0  0  0  0  0  0
  186.0140  178.1310  146.6350 C   0  0  0  0  0  3  0  0  0  0  0  0
  185.2560  178.2930  140.9360 C   0  0  0  0  0  1  0  0  0  0  0  0
  185.4740  178.2460  142.4090 C   0  0  0  0  0  0  0  0  0  0  0  0
  187.2170  177.7620  147.2170 C   0  0  0  0  0  3  0  0  0  0  0  0
  189.8820  175.6850  144.5220 C   0  0  0  0  0  2  0  0  0  0  0  0
  191.3920  175.8290  144.6290 C   0  0  2  0  0  3  0  0  0  0  0  0
  190.4950  178.0480  144.3380 C   0  0  0  0  0  2  0  0  0  0  0  0
  189.3450  177.0700  144.2010 C   0  0  2  0  0  3  0  0  0  0  0  0
  191.7350  177.2140  144.1180 C   0  0  0  0  0  2  0  0  0  0  0  0
  192.0500  174.8250  143.8070 N   0  0  0  0  0  2  0  0  0  0  0  0
  193.1730  173.9660  144.8090 S   0  0  0  0  0  0  0  0  0  0  0  0
  193.1530  174.5330  146.2010 O   0  0  0  0  0  0  0  0  0  0  0  0
  192.8010  172.5100  144.8590 O   0  0  0  0  0  0  0  0  0  0  0  0
  195.0120  175.5200  143.5800 C   0  0  0  0  0  1  0  0  0  0  0  0
  194.8100  174.1230  144.1290 C   0  0  0  0  0  2  0  0  0  0  0  0
  1  5  1  0  0  0  0
  2  1  2  0  0  0  0
  3 10  1  0  0  0  0
  4 11  1  0  0  0  0
  5  3  1  0  0  0  0
  5  4  2  0  0  0  0
  7  9  1  0  0  0  0
  9  4  1  0  0  0  0
  9  6  2  0  0  0  0
 10  8  2  0  0  0  0
 10 14  1  0  0  0  0
 11 14  2  0  0  0  0
 12 13  1  0  0  0  0
 13  1  1  0  0  0  0
 13  7  2  0  0  0  0
 15 16  1  0  0  0  0
 16 20  1  6  0  0  0
 18 17  1  1  0  0  0
 18 15  1  0  0  0  0
 18  3  1  0  0  0  0
 19 17  1  0  0  0  0
 19 16  1  0  0  0  0
 20 21  1  0  0  0  0
 21 23  2  0  0  0  0
 21 22  2  0  0  0  0
 24 25  1  0  0  0  0
 25 21  1  0  0  0  0
M  END
>  <MODEL>
3

>  <REMARK>
 VINA RESULT:      -6.7      2.015      3.425
  Name = 
  4 active torsions:
  status: ('A' for Active; 'I' for Inactive)
    1  A    between atoms: S_1  and  N_7
    2  A    between atoms: S_1  and  C_25
    3  A    between atoms: C_5  and  N_7
    4  A    between atoms: C_8  and  N_11
                            x       y       z     vdW  Elec       q    Type
                         _______ _______ _______ _____ _____    ______ ____

>  <TORSDO>
F 4

$$$$
=
 OpenBabel11042417483D

 25 27  0  0  1  0  0  0  0  0999 V2000
  186.7580  177.8880  142.9820 C   0  0  0  0  0  0  0  0  0  0  0  0
  187.6540  177.5710  142.1560 O   0  0  0  0  0  0  0  0  0  0  0  0
  188.2250  177.5300  145.0220 N   0  0  0  0  0  0  0  0  0  0  0  0
  185.9340  178.2480  145.2950 C   0  0  0  0  0  0  0  0  0  0  0  0
  187.0090  177.8780  144.4590 C   0  0  0  0  0  0  0  0  0  0  0  0
  183.6680  178.9580  145.4400 O   0  0  0  0  0  0  0  0  0  0  0  0
  184.4680  178.6100  143.2840 N   0  0  0  0  0  0  0  0  0  0  0  0
  189.4780  177.2250  146.9250 O   0  0  0  0  0  0  0  0  0  0  0  0
  184.6350  178.6230  144.7050 C   0  0  0  0  0  0  0  0  0  0  0  0
  188.3790  177.5410  146.3920 C   0  0  0  0  0  0  0  0  0  0  0  0
  186.1030  178.2550  146.6770 C   0  0  0  0  0  3  0  0  0  0  0  0
  185.1560  178.2910  141.0040 C   0  0  0  0  0  1  0  0  0  0  0  0
  185.4230  178.2760  142.4690 C   0  0  0  0  0  0  0  0  0  0  0  0
  187.3250  177.9010  147.2260 C   0  0  0  0  0  3  0  0  0  0  0  0
  189.8810  175.7550  144.4660 C   0  0  0  0  0  2  0  0  0  0  0  0
  191.3950  175.8790  144.5330 C   0  0  2  0  0  3  0  0  0  0  0  0
  190.5210  178.1100  144.2630 C   0  0  0  0  0  2  0  0  0  0  0  0
  189.3540  177.1470  144.1580 C   0  0  2  0  0  3  0  0  0  0  0  0
  191.7430  177.2590  144.0120 C   0  0  0  0  0  2  0  0  0  0  0  0
  192.0170  174.8650  143.6950 N   0  0  0  0  0  2  0  0  0  0  0  0
  193.2350  174.0680  144.6360 S   0  0  0  0  0  0  0  0  0  0  0  0
  194.5970  174.5520  144.2250 O   0  0  0  0  0  0  0  0  0  0  0  0
  193.0220  174.3590  146.0960 O   0  0  0  0  0  0  0  0  0  0  0  0
  191.6750  171.8910  144.2620 C   0  0  0  0  0  1  0  0  0  0  0  0
  193.1270  172.3110  144.3740 C   0  0  0  0  0  2  0  0  0  0  0  0
  1  5  1  0  0  0  0
  2  1  2  0  0  0  0
  3 10  1  0  0  0  0
  4 11  1  0  0  0  0
  5  3  1  0  0  0  0
  5  4  2  0  0  0  0
  7  9  1  0  0  0  0
  9  4  1  0  0  0  0
  9  6  2  0  0  0  0
 10  8  2  0  0  0  0
 10 14  1  0  0  0  0
 11 14  2  0  0  0  0
 12 13  1  0  0  0  0
 13  1  1  0  0  0  0
 13  7  2  0  0  0  0
 15 16  1  0  0  0  0
 16 20  1  6  0  0  0
 18 17  1  1  0  0  0
 18 15  1  0  0  0  0
 18  3  1  0  0  0  0
 19 17  1  0  0  0  0
 19 16  1  0  0  0  0
 20 21  1  0  0  0  0
 21 23  2  0  0  0  0
 22 21  2  0  0  0  0
 24 25  1  0  0  0  0
 25 21  1  0  0  0  0
M  END
>  <MODEL>
4

>  <REMARK>
 VINA RESULT:      -6.6      2.105      3.422
  Name = 
  4 active torsions:
  status: ('A' for Active; 'I' for Inactive)
    1  A    between atoms: S_1  and  N_7
    2  A    between atoms: S_1  and  C_25
    3  A    between atoms: C_5  and  N_7
    4  A    between atoms: C_8  and  N_11
                            x       y       z     vdW  Elec       q    Type
                         _______ _______ _______ _____ _____    ______ ____

>  <TORSDO>
F 4

$$$$
=
 OpenBabel11042417483D

 25 27  0  0  1  0  0  0  0  0999 V2000
  187.4360  177.0910  146.0090 C   0  0  0  0  0  0  0  0  0  0  0  0
  188.0320  176.2970  146.7850 O   0  0  0  0  0  0  0  0  0  0  0  0
  188.7880  176.4300  143.9640 N   0  0  0  0  0  0  0  0  0  0  0  0
  187.0660  178.1150  143.7790 C   0  0  0  0  0  0  0  0  0  0  0  0
  187.7950  177.1910  144.5570 C   0  0  0  0  0  0  0  0  0  0  0  0
  185.3450  179.7560  143.7160 O   0  0  0  0  0  0  0  0  0  0  0  0
  185.7160  178.7800  145.7930 N   0  0  0  0  0  0  0  0  0  0  0  0
  189.9660  175.8990  142.0640 O   0  0  0  0  0  0  0  0  0  0  0  0
  186.0040  178.9290  144.4000 C   0  0  0  0  0  0  0  0  0  0  0  0
  189.0640  176.5810  142.6220 C   0  0  0  0  0  0  0  0  0  0  0  0
  187.3540  178.2580  142.4240 C   0  0  0  0  0  3  0  0  0  0  0  0
  185.9880  177.8590  147.9970 C   0  0  0  0  0  1  0  0  0  0  0  0
  186.3570  177.9450  146.5560 C   0  0  0  0  0  0  0  0  0  0  0  0
  188.3540  177.4910  141.8450 C   0  0  0  0  0  3  0  0  0  0  0  0
  191.0150  175.8410  144.9100 C   0  0  0  0  0  2  0  0  0  0  0  0
  191.8130  174.5780  144.6240 C   0  0  2  0  0  3  0  0  0  0  0  0
  189.4980  174.0580  144.1910 C   0  0  0  0  0  2  0  0  0  0  0  0
  189.5510  175.4590  144.7670 C   0  0  2  0  0  3  0  0  0  0  0  0
  190.8170  173.4350  144.5800 C   0  0  0  0  0  2  0  0  0  0  0  0
  192.7800  174.3470  145.6850 N   0  0  0  0  0  2  0  0  0  0  0  0
  194.3610  174.6500  145.0420 S   0  0  0  0  0  0  0  0  0  0  0  0
  195.3820  173.8410  145.7920 O   0  0  0  0  0  0  0  0  0  0  0  0
  194.3990  174.2740  143.5870 O   0  0  0  0  0  0  0  0  0  0  0  0
  194.3100  176.8820  146.5670 C   0  0  0  0  0  1  0  0  0  0  0  0
  194.7420  176.3810  145.2040 C   0  0  0  0  0  2  0  0  0  0  0  0
  1 13  1  0  0  0  0
  1  2  2  0  0  0  0
  3  5  1  0  0  0  0
  4  9  1  0  0  0  0
  4  5  2  0  0  0  0
  5  1  1  0  0  0  0
  6  9  2  0  0  0  0
  7 13  2  0  0  0  0
  8 10  2  0  0  0  0
  9  7  1  0  0  0  0
 10  3  1  0  0  0  0
 11  4  1  0  0  0  0
 13 12  1  0  0  0  0
 14 11  2  0  0  0  0
 14 10  1  0  0  0  0
 16 15  1  0  0  0  0
 16 20  1  1  0  0  0
 17 19  1  0  0  0  0
 17 18  1  0  0  0  0
 18  3  1  6  0  0  0
 18 15  1  0  0  0  0
 19 16  1  0  0  0  0
 21 25  1  0  0  0  0
 21 20  1  0  0  0  0
 21 22  2  0  0  0  0
 23 21  2  0  0  0  0
 25 24  1  0  0  0  0
M  END
>  <MODEL>
5

>  <REMARK>
 VINA RESULT:      -6.6      1.680      1.861
  Name = 
  4 active torsions:
  status: ('A' for Active; 'I' for Inactive)
    1  A    between atoms: S_1  and  N_7
    2  A    between atoms: S_1  and  C_25
    3  A    between atoms: C_5  and  N_7
    4  A    between atoms: C_8  and  N_11
                            x       y       z     vdW  Elec       q    Type
                         _______ _______ _______ _____ _____    ______ ____

>  <TORSDO>
F 4

$$$$
=
 OpenBabel11042417483D

 25 27  0  0  1  0  0  0  0  0999 V2000
  192.7610  176.1740  143.3220 C   0  0  0  0  0  0  0  0  0  0  0  0
  192.0010  176.5410  142.3870 O   0  0  0  0  0  0  0  0  0  0  0  0
  190.8960  175.9730  145.0330 N   0  0  0  0  0  0  0  0  0  0  0  0
  193.1740  175.4770  145.6680 C   0  0  0  0  0  0  0  0  0  0  0  0
  192.2340  175.8760  144.6930 C   0  0  0  0  0  0  0  0  0  0  0  0
  195.4500  175.0100  146.1750 O   0  0  0  0  0  0  0  0  0  0  0  0
  195.0330  175.6690  143.9850 N   0  0  0  0  0  0  0  0  0  0  0  0
  189.2730  175.7700  146.6480 O   0  0  0  0  0  0  0  0  0  0  0  0
  194.6020  175.3680  145.3160 C   0  0  0  0  0  0  0  0  0  0  0  0
  190.4880  175.6860  146.3180 C   0  0  0  0  0  0  0  0  0  0  0  0
  192.7480  175.1890  146.9620 C   0  0  0  0  0  3  0  0  0  0  0  0
  194.7510  176.3360  141.6940 C   0  0  0  0  0  1  0  0  0  0  0  0
  194.2110  176.0420  143.0500 C   0  0  0  0  0  0  0  0  0  0  0  0
  191.4050  175.2930  147.2880 C   0  0  0  0  0  3  0  0  0  0  0  0
  189.0640  177.5660  144.4740 C   0  0  0  0  0  2  0  0  0  0  0  0
  187.6230  177.2070  144.1510 C   0  0  2  0  0  3  0  0  0  0  0  0
  188.9580  175.2640  143.6460 C   0  0  0  0  0  2  0  0  0  0  0  0
  189.9080  176.3840  144.0210 C   0  0  2  0  0  3  0  0  0  0  0  0
  187.6660  175.9600  143.2900 C   0  0  0  0  0  2  0  0  0  0  0  0
  186.9910  178.2910  143.4150 N   0  0  0  0  0  2  0  0  0  0  0  0
  185.3680  178.4590  144.0000 S   0  0  0  0  0  0  0  0  0  0  0  0
  185.0670  179.9080  144.2640 O   0  0  0  0  0  0  0  0  0  0  0  0
  184.4010  177.9270  142.9790 O   0  0  0  0  0  0  0  0  0  0  0  0
  184.4430  178.3570  146.5390 C   0  0  0  0  0  1  0  0  0  0  0  0
  185.1860  177.5320  145.5080 C   0  0  0  0  0  2  0  0  0  0  0  0
  1  5  1  0  0  0  0
  2  1  2  0  0  0  0
  3 10  1  0  0  0  0
  4 11  1  0  0  0  0
  5  3  1  0  0  0  0
  5  4  2  0  0  0  0
  7  9  1  0  0  0  0
  9  4  1  0  0  0  0
  9  6  2  0  0  0  0
 10  8  2  0  0  0  0
 10 14  1  0  0  0  0
 11 14  2  0  0  0  0
 12 13  1  0  0  0  0
 13  1  1  0  0  0  0
 13  7  2  0  0  0  0
 16 20  1  6  0  0  0
 16 15  1  0  0  0  0
 18 17  1  1  0  0  0
 18 15  1  0  0  0  0
 18  3  1  0  0  0  0
 19 17  1  0  0  0  0
 19 16  1  0  0  0  0
 20 21  1  0  0  0  0
 21 22  2  0  0  0  0
 21 25  1  0  0  0  0
 23 21  2  0  0  0  0
 25 24  1  0  0  0  0
M  END
>  <MODEL>
6

>  <REMARK>
 VINA RESULT:      -6.5      2.755      7.852
  Name = 
  4 active torsions:
  status: ('A' for Active; 'I' for Inactive)
    1  A    between atoms: S_1  and  N_7
    2  A    between atoms: S_1  and  C_25
    3  A    between atoms: C_5  and  N_7
    4  A    between atoms: C_8  and  N_11
                            x       y       z     vdW  Elec       q    Type
                         _______ _______ _______ _____ _____    ______ ____

>  <TORSDO>
F 4

$$$$
=
 OpenBabel11042417483D

 25 27  0  0  1  0  0  0  0  0999 V2000
  186.4710  177.7890  143.0120 C   0  0  0  0  0  0  0  0  0  0  0  0
  187.3310  177.4190  142.1690 O   0  0  0  0  0  0  0  0  0  0  0  0
  187.9510  177.3400  145.0250 N   0  0  0  0  0  0  0  0  0  0  0  0
  185.7140  178.1950  145.3400 C   0  0  0  0  0  0  0  0  0  0  0  0
  186.7490  177.7620  144.4840 C   0  0  0  0  0  0  0  0  0  0  0  0
  183.4980  179.0410  145.5270 O   0  0  0  0  0  0  0  0  0  0  0  0
  184.2350  178.6480  143.3570 N   0  0  0  0  0  0  0  0  0  0  0  0
  189.2190  176.9570  146.9040 O   0  0  0  0  0  0  0  0  0  0  0  0
  184.4290  178.6490  144.7750 C   0  0  0  0  0  0  0  0  0  0  0  0
  188.1310  177.3400  146.3920 C   0  0  0  0  0  0  0  0  0  0  0  0
  185.9080  178.1900  146.7190 C   0  0  0  0  0  3  0  0  0  0  0  0
  184.8600  178.2900  141.0650 C   0  0  0  0  0  1  0  0  0  0  0  0
  185.1530  178.2580  142.5250 C   0  0  0  0  0  0  0  0  0  0  0  0
  187.1170  177.7620  147.2450 C   0  0  0  0  0  3  0  0  0  0  0  0
  189.1560  175.3760  144.0800 C   0  0  0  0  0  2  0  0  0  0  0  0
  190.6340  175.0580  144.2450 C   0  0  2  0  0  3  0  0  0  0  0  0
  190.3910  177.4370  144.5550 C   0  0  0  0  0  2  0  0  0  0  0  0
  189.0390  176.8910  144.1400 C   0  0  2  0  0  3  0  0  0  0  0  0
  191.3780  176.3740  144.1350 C   0  0  0  0  0  2  0  0  0  0  0  0
  191.0720  174.1560  143.1910 N   0  0  0  0  0  2  0  0  0  0  0  0
  190.8420  172.5310  143.7480 S   0  0  0  0  0  0  0  0  0  0  0  0
  192.1750  171.8890  144.0160 O   0  0  0  0  0  0  0  0  0  0  0  0
  190.0290  172.5360  145.0130 O   0  0  0  0  0  0  0  0  0  0  0  0
  189.2980  172.5370  141.5290 C   0  0  0  0  0  1  0  0  0  0  0  0
  189.9740  171.5980  142.5060 C   0  0  0  0  0  2  0  0  0  0  0  0
  1  5  1  0  0  0  0
  2  1  2  0  0  0  0
  3 10  1  0  0  0  0
  4 11  1  0  0  0  0
  5  3  1  0  0  0  0
  5  4  2  0  0  0  0
  7  9  1  0  0  0  0
  9  4  1  0  0  0  0
  9  6  2  0  0  0  0
 10  8  2  0  0  0  0
 10 14  1  0  0  0  0
 11 14  2  0  0  0  0
 12 13  1  0  0  0  0
 13  1  1  0  0  0  0
 13  7  2  0  0  0  0
 15 16  1  0  0  0  0
 16 20  1  6  0  0  0
 18 15  1  1  0  0  0
 18 17  1  0  0  0  0
 18  3  1  0  0  0  0
 19 16  1  0  0  0  0
 19 17  1  0  0  0  0
 20 21  1  0  0  0  0
 21 22  2  0  0  0  0
 21 23  2  0  0  0  0
 24 25  1  0  0  0  0
 25 21  1  0  0  0  0
M  END
>  <MODEL>
7

>  <REMARK>
 VINA RESULT:      -6.4      2.793      4.199
  Name = 
  4 active torsions:
  status: ('A' for Active; 'I' for Inactive)
    1  A    between atoms: S_1  and  N_7
    2  A    between atoms: S_1  and  C_25
    3  A    between atoms: C_5  and  N_7
    4  A    between atoms: C_8  and  N_11
                            x       y       z     vdW  Elec       q    Type
                         _______ _______ _______ _____ _____    ______ ____

>  <TORSDO>
F 4

$$$$
=
 OpenBabel11042417483D

 25 27  0  0  1  0  0  0  0  0999 V2000
  190.8310  173.4320  144.7340 C   0  0  0  0  0  0  0  0  0  0  0  0
  189.6140  173.2770  144.4520 O   0  0  0  0  0  0  0  0  0  0  0  0
  190.4630  175.5690  146.0550 N   0  0  0  0  0  0  0  0  0  0  0  0
  192.6930  174.6740  145.8070 C   0  0  0  0  0  0  0  0  0  0  0  0
  191.3080  174.5940  145.5520 C   0  0  0  0  0  0  0  0  0  0  0  0
  194.8410  173.6960  145.5000 O   0  0  0  0  0  0  0  0  0  0  0  0
  193.0760  172.5570  144.5050 N   0  0  0  0  0  0  0  0  0  0  0  0
  190.2230  177.5110  147.2610 O   0  0  0  0  0  0  0  0  0  0  0  0
  193.6020  173.6390  145.2780 C   0  0  0  0  0  0  0  0  0  0  0  0
  190.9770  176.6110  146.7960 C   0  0  0  0  0  0  0  0  0  0  0  0
  193.1990  175.7310  146.5570 C   0  0  0  0  0  3  0  0  0  0  0  0
  191.3530  171.2760  143.4240 C   0  0  0  0  0  1  0  0  0  0  0  0
  191.8100  172.4360  144.2390 C   0  0  0  0  0  0  0  0  0  0  0  0
  192.3410  176.7010  147.0520 C   0  0  0  0  0  3  0  0  0  0  0  0
  188.5630  176.4480  144.7050 C   0  0  0  0  0  2  0  0  0  0  0  0
  187.3240  177.1480  145.2390 C   0  0  2  0  0  3  0  0  0  0  0  0
  188.1880  175.7880  147.0340 C   0  0  0  0  0  2  0  0  0  0  0  0
  189.0150  175.4920  145.7980 C   0  0  2  0  0  3  0  0  0  0  0  0
  186.9200  176.4160  146.5040 C   0  0  0  0  0  2  0  0  0  0  0  0
  186.2480  177.0730  144.2630 N   0  0  0  0  0  2  0  0  0  0  0  0
  185.7120  178.6880  143.9330 S   0  0  0  0  0  0  0  0  0  0  0  0
  185.9410  179.5580  145.1380 O   0  0  0  0  0  0  0  0  0  0  0  0
  186.4720  179.2470  142.7630 O   0  0  0  0  0  0  0  0  0  0  0  0
  183.7780  178.2900  142.0870 C   0  0  0  0  0  1  0  0  0  0  0  0
  183.9770  178.6650  143.5410 C   0  0  0  0  0  2  0  0  0  0  0  0
  1  5  1  0  0  0  0
  2  1  2  0  0  0  0
  3 10  1  0  0  0  0
  4 11  1  0  0  0  0
  5  4  2  0  0  0  0
  5  3  1  0  0  0  0
  7  9  1  0  0  0  0
  9  6  2  0  0  0  0
  9  4  1  0  0  0  0
 10 14  1  0  0  0  0
 10  8  2  0  0  0  0
 11 14  2  0  0  0  0
 12 13  1  0  0  0  0
 13  7  2  0  0  0  0
 13  1  1  0  0  0  0
 15 16  1  0  0  0  0
 16 20  1  6  0  0  0
 16 19  1  0  0  0  0
 18 15  1  6  0  0  0
 18  3  1  0  0  0  0
 18 17  1  0  0  0  0
 19 17  1  0  0  0  0
 21 20  1  0  0  0  0
 21 22  2  0  0  0  0
 23 21  2  0  0  0  0
 24 25  1  0  0  0  0
 25 21  1  0  0  0  0
M  END
>  <MODEL>
8

>  <REMARK>
 VINA RESULT:      -6.3      2.897      7.682
  Name = 
  4 active torsions:
  status: ('A' for Active; 'I' for Inactive)
    1  A    between atoms: S_1  and  N_7
    2  A    between atoms: S_1  and  C_25
    3  A    between atoms: C_5  and  N_7
    4  A    between atoms: C_8  and  N_11
                            x       y       z     vdW  Elec       q    Type
                         _______ _______ _______ _____ _____    ______ ____

>  <TORSDO>
F 4

$$$$
=
 OpenBabel11042417483D

 25 27  0  0  1  0  0  0  0  0999 V2000
  191.9120  175.0840  143.4560 C   0  0  0  0  0  0  0  0  0  0  0  0
  190.7020  174.8120  143.2370 O   0  0  0  0  0  0  0  0  0  0  0  0
  191.5000  175.9840  145.7930 N   0  0  0  0  0  0  0  0  0  0  0  0
  193.7400  175.9550  144.8910 C   0  0  0  0  0  0  0  0  0  0  0  0
  192.3620  175.6870  144.7520 C   0  0  0  0  0  0  0  0  0  0  0  0
  195.9010  175.8720  143.8990 O   0  0  0  0  0  0  0  0  0  0  0  0
  194.1680  175.0650  142.5780 N   0  0  0  0  0  0  0  0  0  0  0  0
  191.2180  176.8230  147.9150 O   0  0  0  0  0  0  0  0  0  0  0  0
  194.6690  175.6410  143.7880 C   0  0  0  0  0  0  0  0  0  0  0  0
  191.9880  176.5430  146.9550 C   0  0  0  0  0  0  0  0  0  0  0  0
  194.2210  176.5190  146.0690 C   0  0  0  0  0  3  0  0  0  0  0  0
  192.4790  174.2010  141.1030 C   0  0  0  0  0  1  0  0  0  0  0  0
  192.9080  174.7990  142.3970 C   0  0  0  0  0  0  0  0  0  0  0  0
  193.3450  176.8130  147.1020 C   0  0  0  0  0  3  0  0  0  0  0  0
  189.2620  176.9290  145.2440 C   0  0  0  0  0  2  0  0  0  0  0  0
  188.0520  176.9810  146.1630 C   0  0  2  0  0  3  0  0  0  0  0  0
  189.4480  175.1750  146.9430 C   0  0  0  0  0  2  0  0  0  0  0  0
  190.0600  175.7040  145.6600 C   0  0  2  0  0  3  0  0  0  0  0  0
  188.0200  175.6640  146.9150 C   0  0  0  0  0  2  0  0  0  0  0  0
  186.8350  177.1300  145.3810 N   0  0  0  0  0  2  0  0  0  0  0  0
  185.8000  178.2440  146.2120 S   0  0  0  0  0  0  0  0  0  0  0  0
  184.4910  177.5800  146.5360 O   0  0  0  0  0  0  0  0  0  0  0  0
  186.4570  178.6990  147.4850 O   0  0  0  0  0  0  0  0  0  0  0  0
  185.7410  179.2990  143.7230 C   0  0  0  0  0  1  0  0  0  0  0  0
  185.5040  179.6600  145.1750 C   0  0  0  0  0  2  0  0  0  0  0  0
  1  5  1  0  0  0  0
  2  1  2  0  0  0  0
  3 10  1  0  0  0  0
  4 11  1  0  0  0  0
  5  4  2  0  0  0  0
  5  3  1  0  0  0  0
  7  9  1  0  0  0  0
  9  6  2  0  0  0  0
  9  4  1  0  0  0  0
 10 14  1  0  0  0  0
 10  8  2  0  0  0  0
 11 14  2  0  0  0  0
 12 13  1  0  0  0  0
 13  7  2  0  0  0  0
 13  1  1  0  0  0  0
 15 16  1  0  0  0  0
 16 20  1  6  0  0  0
 16 19  1  0  0  0  0
 18 15  1  1  0  0  0
 18  3  1  0  0  0  0
 18 17  1  0  0  0  0
 19 17  1  0  0  0  0
 20 21  1  0  0  0  0
 21 22  2  0  0  0  0
 21 23  2  0  0  0  0
 24 25  1  0  0  0  0
 25 21  1  0  0  0  0
M  END
>  <MODEL>
9

>  <REMARK>
 VINA RESULT:      -6.2      2.887      7.658
  Name = 
  4 active torsions:
  status: ('A' for Active; 'I' for Inactive)
    1  A    between atoms: S_1  and  N_7
    2  A    between atoms: S_1  and  C_25
    3  A    between atoms: C_5  and  N_7
    4  A    between atoms: C_8  and  N_11
                            x       y       z     vdW  Elec       q    Type
                         _______ _______ _______ _____ _____    ______ ____

>  <TORSDO>
F 4

$$$$
