=
 OpenBabel11042418263D

 28 30  0  0  1  0  0  0  0  0999 V2000
  190.0170  176.9480  144.0210 C   0  0  2  0  0  3  0  0  0  0  0  0
  192.2750  176.3140  144.5160 O   0  0  0  0  0  0  0  0  0  0  0  0
  190.5160  176.4730  147.7500 N   0  0  0  0  0  1  0  0  0  0  0  0
  189.6600  176.9100  145.5150 C   0  0  2  0  0  3  0  0  0  0  0  0
  190.7090  176.1570  146.3430 C   0  0  1  0  0  3  0  0  0  0  0  0
  191.4980  177.2810  143.8600 C   0  0  0  0  0  2  0  0  0  0  0  0
  192.1290  176.5540  145.8940 C   0  0  1  0  0  3  0  0  0  0  0  0
  193.2140  175.7860  146.6440 C   0  0  0  0  0  3  0  0  0  0  0  0
  194.4390  176.4230  146.5370 F   0  0  0  0  0  0  0  0  0  0  0  0
  193.3120  174.4860  146.1810 F   0  0  0  0  0  0  0  0  0  0  0  0
  188.3900  176.2910  145.6870 O   0  0  0  0  0  0  0  0  0  0  0  0
  185.9840  176.1340  144.2840 O   0  0  0  0  0  0  0  0  0  0  0  0
  184.8630  177.8360  145.5440 C   0  0  1  0  0  3  0  0  0  0  0  0
  187.2350  177.7010  147.2320 C   0  0  0  0  0  3  0  0  0  0  0  0
  186.0340  176.9260  145.2640 C   0  0  0  0  0  0  0  0  0  0  0  0
  184.9290  178.4660  146.9130 C   0  0  0  0  0  3  0  0  0  0  0  0
  187.2470  176.9850  146.0990 C   0  0  0  0  0  0  0  0  0  0  0  0
  186.0270  178.4200  147.6730 C   0  0  0  0  0  3  0  0  0  0  0  0
  184.7580  178.8930  144.4910 C   0  0  0  0  0  0  0  0  0  0  0  0
  183.8400  178.8030  143.5880 N   0  0  0  0  0  2  0  0  0  0  0  0
  185.7420  179.9200  144.3950 N   0  0  0  0  0  1  0  0  0  0  0  0
  189.2040  178.0120  143.2920 C   0  0  0  0  0  2  0  0  0  0  0  0
  188.6630  177.5230  141.9540 C   0  0  1  0  0  3  0  0  0  0  0  0
  188.5090  176.0190  142.0090 C   0  0  0  0  0  1  0  0  0  0  0  0
  187.3120  178.1470  141.6470 C   0  0  0  0  0  2  0  0  0  0  0  0
  186.4020  177.5080  139.5860 C   0  0  0  0  0  2  0  0  0  0  0  0
  185.3090  177.9220  140.4550 C   0  0  0  0  0  2  0  0  0  0  0  0
  186.4410  177.1710  141.0170 N   0  0  0  0  0  0  0  0  0  0  0  0
  1 22  1  6  0  0  0
  1  4  1  0  0  0  0
  2  7  1  0  0  0  0
  4 11  1  6  0  0  0
  4  5  1  0  0  0  0
  5  3  1  1  0  0  0
  6  1  1  0  0  0  0
  6  2  1  0  0  0  0
  7  5  1  0  0  0  0
  7  8  1  1  0  0  0
  9  8  1  0  0  0  0
 10  8  1  0  0  0  0
 11 17  1  0  0  0  0
 12 15  2  0  0  0  0
 13 19  1  6  0  0  0
 13 16  1  0  0  0  0
 14 18  1  0  0  0  0
 15 13  1  0  0  0  0
 15 17  1  0  0  0  0
 16 18  2  0  0  0  0
 17 14  2  0  0  0  0
 20 19  2  0  0  0  0
 21 19  1  0  0  0  0
 23 24  1  1  0  0  0
 23 22  1  0  0  0  0
 25 23  1  0  0  0  0
 26 27  1  0  0  0  0
 26 28  1  0  0  0  0
 27 28  1  0  0  0  0
 28 25  1  0  0  0  0
M  END
>  <MODEL>
1

>  <REMARK>
 VINA RESULT:      -6.9      0.000      0.000
  Name = 
  8 active torsions:
  status: ('A' for Active; 'I' for Inactive)
    1  A    between atoms: C_1  and  C_26
    2  A    between atoms: C_3  and  C_7
    3  A    between atoms: C_5  and  C_12
    4  A    between atoms: O_11  and  C_15
    5  A    between atoms: O_11  and  C_20
    6  A    between atoms: C_12  and  C_14
    7  A    between atoms: C_14  and  C_25
    8  A    between atoms: N_17  and  C_25
                            x       y       z     vdW  Elec       q    Type
                         _______ _______ _______ _____ _____    ______ ____

>  <TORSDO>
F 8

$$$$
=
 OpenBabel11042418263D

 28 30  0  0  1  0  0  0  0  0999 V2000
  189.7700  176.7210  143.8110 C   0  0  2  0  0  3  0  0  0  0  0  0
  192.0740  176.2320  144.2580 O   0  0  0  0  0  0  0  0  0  0  0  0
  190.5200  176.9490  147.5220 N   0  0  0  0  0  1  0  0  0  0  0  0
  189.5100  176.9510  145.3080 C   0  0  2  0  0  3  0  0  0  0  0  0
  190.6330  176.3830  146.1860 C   0  0  1  0  0  3  0  0  0  0  0  0
  191.2260  177.0470  143.4920 C   0  0  0  0  0  2  0  0  0  0  0  0
  192.0080  176.7180  145.5750 C   0  0  1  0  0  3  0  0  0  0  0  0
  193.1630  176.1220  146.3770 C   0  0  0  0  0  3  0  0  0  0  0  0
  192.7610  174.9900  147.0640 F   0  0  0  0  0  0  0  0  0  0  0  0
  193.6870  177.0530  147.2570 F   0  0  0  0  0  0  0  0  0  0  0  0
  188.2740  176.3490  145.6760 O   0  0  0  0  0  0  0  0  0  0  0  0
  185.8310  176.1340  144.3470 O   0  0  0  0  0  0  0  0  0  0  0  0
  184.7630  177.9290  145.5200 C   0  0  1  0  0  3  0  0  0  0  0  0
  187.1750  177.8720  147.1540 C   0  0  0  0  0  3  0  0  0  0  0  0
  185.9150  176.9880  145.2710 C   0  0  0  0  0  0  0  0  0  0  0  0
  184.8710  178.6460  146.8440 C   0  0  0  0  0  3  0  0  0  0  0  0
  187.1500  177.0840  146.0710 C   0  0  0  0  0  0  0  0  0  0  0  0
  185.9870  178.6350  147.5770 C   0  0  0  0  0  3  0  0  0  0  0  0
  184.6430  178.9170  144.4030 C   0  0  0  0  0  0  0  0  0  0  0  0
  183.7360  178.7510  143.5000 N   0  0  0  0  0  2  0  0  0  0  0  0
  185.6050  179.9590  144.2520 N   0  0  0  0  0  1  0  0  0  0  0  0
  188.8780  177.6170  142.9580 C   0  0  0  0  0  2  0  0  0  0  0  0
  187.8910  176.8240  142.1090 C   0  0  1  0  0  3  0  0  0  0  0  0
  187.4340  177.6890  140.9550 C   0  0  0  0  0  1  0  0  0  0  0  0
  188.5340  175.5630  141.5570 C   0  0  0  0  0  2  0  0  0  0  0  0
  188.8150  173.4330  142.4910 C   0  0  0  0  0  2  0  0  0  0  0  0
  188.2430  173.2730  141.1610 C   0  0  0  0  0  2  0  0  0  0  0  0
  187.8070  174.3910  142.0110 N   0  0  0  0  0  0  0  0  0  0  0  0
  1 22  1  6  0  0  0
  1  4  1  0  0  0  0
  2  7  1  0  0  0  0
  4 11  1  1  0  0  0
  4  5  1  0  0  0  0
  5  3  1  1  0  0  0
  6  1  1  0  0  0  0
  6  2  1  0  0  0  0
  7  5  1  0  0  0  0
  7  8  1  1  0  0  0
  8  9  1  0  0  0  0
  8 10  1  0  0  0  0
 11 17  1  0  0  0  0
 12 15  2  0  0  0  0
 13 19  1  6  0  0  0
 13 16  1  0  0  0  0
 14 18  1  0  0  0  0
 15 13  1  0  0  0  0
 15 17  1  0  0  0  0
 16 18  2  0  0  0  0
 17 14  2  0  0  0  0
 20 19  2  0  0  0  0
 21 19  1  0  0  0  0
 23 24  1  6  0  0  0
 23 22  1  0  0  0  0
 25 28  1  0  0  0  0
 25 23  1  0  0  0  0
 27 28  1  0  0  0  0
 27 26  1  0  0  0  0
 28 26  1  0  0  0  0
M  END
>  <MODEL>
2

>  <REMARK>
 VINA RESULT:      -6.8      1.084      1.904
  Name = 
  8 active torsions:
  status: ('A' for Active; 'I' for Inactive)
    1  A    between atoms: C_1  and  C_26
    2  A    between atoms: C_3  and  C_7
    3  A    between atoms: C_5  and  C_12
    4  A    between atoms: O_11  and  C_15
    5  A    between atoms: O_11  and  C_20
    6  A    between atoms: C_12  and  C_14
    7  A    between atoms: C_14  and  C_25
    8  A    between atoms: N_17  and  C_25
                            x       y       z     vdW  Elec       q    Type
                         _______ _______ _______ _____ _____    ______ ____

>  <TORSDO>
F 8

$$$$
=
 OpenBabel11042418263D

 28 30  0  0  1  0  0  0  0  0999 V2000
  187.5800  176.6000  143.4690 C   0  0  2  0  0  3  0  0  0  0  0  0
  185.3830  177.5550  143.5430 O   0  0  0  0  0  0  0  0  0  0  0  0
  186.8130  177.9960  146.9100 N   0  0  0  0  0  1  0  0  0  0  0  0
  187.8040  176.9570  144.9460 C   0  0  2  0  0  3  0  0  0  0  0  0
  186.7870  177.9860  145.4560 C   0  0  1  0  0  3  0  0  0  0  0  0
  186.0900  176.3870  143.2170 C   0  0  0  0  0  2  0  0  0  0  0  0
  185.3750  177.6370  144.9460 C   0  0  1  0  0  3  0  0  0  0  0  0
  184.3300  178.6650  145.3720 C   0  0  0  0  0  3  0  0  0  0  0  0
  183.5990  178.2120  146.4570 F   0  0  0  0  0  0  0  0  0  0  0  0
  183.4820  178.9740  144.3230 F   0  0  0  0  0  0  0  0  0  0  0  0
  189.1210  177.4700  145.1190 O   0  0  0  0  0  0  0  0  0  0  0  0
  191.7330  177.3400  144.1520 O   0  0  0  0  0  0  0  0  0  0  0  0
  192.5100  175.7590  145.7760 C   0  0  1  0  0  3  0  0  0  0  0  0
  189.9030  176.2130  146.9950 C   0  0  0  0  0  3  0  0  0  0  0  0
  191.4670  176.6790  145.1920 C   0  0  0  0  0  0  0  0  0  0  0  0
  192.1730  175.3100  147.1770 C   0  0  0  0  0  3  0  0  0  0  0  0
  190.1290  176.7810  145.8030 C   0  0  0  0  0  0  0  0  0  0  0  0
  190.9690  175.5000  147.7210 C   0  0  0  0  0  3  0  0  0  0  0  0
  192.7210  174.5750  144.8870 C   0  0  0  0  0  0  0  0  0  0  0  0
  193.6430  174.6120  143.9850 N   0  0  0  0  0  2  0  0  0  0  0  0
  191.8270  173.4650  144.9360 N   0  0  0  0  0  1  0  0  0  0  0  0
  188.3180  175.3170  143.0990 C   0  0  0  0  0  2  0  0  0  0  0  0
  189.0800  175.4380  141.7840 C   0  0  1  0  0  3  0  0  0  0  0  0
  190.3870  174.6850  141.9060 C   0  0  0  0  0  1  0  0  0  0  0  0
  188.2800  174.8550  140.6320 C   0  0  0  0  0  2  0  0  0  0  0  0
  188.4900  173.8480  138.5270 C   0  0  0  0  0  2  0  0  0  0  0  0
  188.2520  172.7990  139.5100 C   0  0  0  0  0  2  0  0  0  0  0  0
  189.1060  173.9440  139.8590 N   0  0  0  0  0  0  0  0  0  0  0  0
  1 22  1  1  0  0  0
  1  4  1  0  0  0  0
  2  7  1  0  0  0  0
  4 11  1  6  0  0  0
  4  5  1  0  0  0  0
  5  3  1  1  0  0  0
  6  1  1  0  0  0  0
  6  2  1  0  0  0  0
  7  8  1  6  0  0  0
  7  5  1  0  0  0  0
  8  9  1  0  0  0  0
 10  8  1  0  0  0  0
 11 17  1  0  0  0  0
 12 15  2  0  0  0  0
 13 19  1  6  0  0  0
 13 16  1  0  0  0  0
 14 18  1  0  0  0  0
 15 13  1  0  0  0  0
 15 17  1  0  0  0  0
 16 18  2  0  0  0  0
 17 14  2  0  0  0  0
 19 21  1  0  0  0  0
 20 19  2  0  0  0  0
 23 24  1  1  0  0  0
 23 22  1  0  0  0  0
 25 23  1  0  0  0  0
 26 27  1  0  0  0  0
 26 28  1  0  0  0  0
 27 28  1  0  0  0  0
 28 25  1  0  0  0  0
M  END
>  <MODEL>
3

>  <REMARK>
 VINA RESULT:      -6.5      3.687      6.342
  Name = 
  8 active torsions:
  status: ('A' for Active; 'I' for Inactive)
    1  A    between atoms: C_1  and  C_26
    2  A    between atoms: C_3  and  C_7
    3  A    between atoms: C_5  and  C_12
    4  A    between atoms: O_11  and  C_15
    5  A    between atoms: O_11  and  C_20
    6  A    between atoms: C_12  and  C_14
    7  A    between atoms: C_14  and  C_25
    8  A    between atoms: N_17  and  C_25
                            x       y       z     vdW  Elec       q    Type
                         _______ _______ _______ _____ _____    ______ ____

>  <TORSDO>
F 8

$$$$
=
 OpenBabel11042418263D

 28 30  0  0  1  0  0  0  0  0999 V2000
  187.1320  177.4110  143.2170 C   0  0  2  0  0  3  0  0  0  0  0  0
  186.7050  175.1040  142.7280 O   0  0  0  0  0  0  0  0  0  0  0  0
  190.3010  175.6370  142.1240 N   0  0  0  0  0  1  0  0  0  0  0  0
  188.6150  177.2300  142.8600 C   0  0  2  0  0  3  0  0  0  0  0  0
  189.0260  175.7530  142.8150 C   0  0  1  0  0  3  0  0  0  0  0  0
  186.2930  176.4110  142.4260 C   0  0  0  0  0  2  0  0  0  0  0  0
  187.9460  174.9210  142.0950 C   0  0  1  0  0  3  0  0  0  0  0  0
  188.2740  173.4310  142.0760 C   0  0  0  0  0  3  0  0  0  0  0  0
  187.1310  172.6720  141.8900 F   0  0  0  0  0  0  0  0  0  0  0  0
  188.9140  173.0490  143.2410 F   0  0  0  0  0  0  0  0  0  0  0  0
  189.4230  177.9150  143.8120 O   0  0  0  0  0  0  0  0  0  0  0  0
  192.1460  177.4860  144.2320 O   0  0  0  0  0  0  0  0  0  0  0  0
  191.8780  176.1950  146.2320 C   0  0  1  0  0  3  0  0  0  0  0  0
  189.0850  176.9880  145.9880 C   0  0  0  0  0  3  0  0  0  0  0  0
  191.3480  177.0400  145.1010 C   0  0  0  0  0  0  0  0  0  0  0  0
  190.8800  176.0260  147.3510 C   0  0  0  0  0  3  0  0  0  0  0  0
  189.9050  177.3160  144.9810 C   0  0  0  0  0  0  0  0  0  0  0  0
  189.5950  176.3700  147.2250 C   0  0  0  0  0  3  0  0  0  0  0  0
  192.3200  174.8590  145.7250 C   0  0  0  0  0  0  0  0  0  0  0  0
  191.4510  174.0500  145.2180 N   0  0  0  0  0  2  0  0  0  0  0  0
  193.6610  174.4180  145.9220 N   0  0  0  0  0  1  0  0  0  0  0  0
  186.6550  178.8180  142.8710 C   0  0  0  0  0  2  0  0  0  0  0  0
  185.6880  179.3800  143.9070 C   0  0  1  0  0  3  0  0  0  0  0  0
  184.2780  178.9940  143.5190 C   0  0  0  0  0  1  0  0  0  0  0  0
  185.9890  178.8300  145.2910 C   0  0  0  0  0  2  0  0  0  0  0  0
  184.9880  178.2200  147.3190 C   0  0  0  0  0  2  0  0  0  0  0  0
  185.2300  177.0080  146.5500 C   0  0  0  0  0  2  0  0  0  0  0  0
  184.7950  178.2310  145.8610 N   0  0  0  0  0  0  0  0  0  0  0  0
  1 22  1  6  0  0  0
  4  1  1  0  0  0  0
  4 11  1  1  0  0  0
  5  3  1  6  0  0  0
  5  4  1  0  0  0  0
  6  2  1  0  0  0  0
  6  1  1  0  0  0  0
  7  8  1  1  0  0  0
  7  2  1  0  0  0  0
  7  5  1  0  0  0  0
  8 10  1  0  0  0  0
  9  8  1  0  0  0  0
 11 17  1  0  0  0  0
 12 15  2  0  0  0  0
 13 19  1  6  0  0  0
 13 16  1  0  0  0  0
 14 18  1  0  0  0  0
 15 13  1  0  0  0  0
 17 15  1  0  0  0  0
 17 14  2  0  0  0  0
 18 16  2  0  0  0  0
 19 21  1  0  0  0  0
 20 19  2  0  0  0  0
 22 23  1  0  0  0  0
 23 24  1  6  0  0  0
 23 25  1  0  0  0  0
 25 28  1  0  0  0  0
 27 26  1  0  0  0  0
 28 27  1  0  0  0  0
 28 26  1  0  0  0  0
M  END
>  <MODEL>
4

>  <REMARK>
 VINA RESULT:      -6.5      2.627      5.930
  Name = 
  8 active torsions:
  status: ('A' for Active; 'I' for Inactive)
    1  A    between atoms: C_1  and  C_26
    2  A    between atoms: C_3  and  C_7
    3  A    between atoms: C_5  and  C_12
    4  A    between atoms: O_11  and  C_15
    5  A    between atoms: O_11  and  C_20
    6  A    between atoms: C_12  and  C_14
    7  A    between atoms: C_14  and  C_25
    8  A    between atoms: N_17  and  C_25
                            x       y       z     vdW  Elec       q    Type
                         _______ _______ _______ _____ _____    ______ ____

>  <TORSDO>
F 8

$$$$
=
 OpenBabel11042418263D

 28 30  0  0  1  0  0  0  0  0999 V2000
  187.6220  176.7540  143.6780 C   0  0  2  0  0  3  0  0  0  0  0  0
  185.3950  177.5770  144.0080 O   0  0  0  0  0  0  0  0  0  0  0  0
  187.1040  177.8930  147.2580 N   0  0  0  0  0  1  0  0  0  0  0  0
  187.9620  177.0330  145.1490 C   0  0  2  0  0  3  0  0  0  0  0  0
  186.9450  177.9690  145.8130 C   0  0  1  0  0  3  0  0  0  0  0  0
  186.1280  176.4730  143.5450 C   0  0  0  0  0  2  0  0  0  0  0  0
  185.5120  177.5720  145.4090 C   0  0  1  0  0  3  0  0  0  0  0  0
  184.4590  178.5110  145.9920 C   0  0  0  0  0  3  0  0  0  0  0  0
  183.6790  177.8620  146.9330 F   0  0  0  0  0  0  0  0  0  0  0  0
  183.6590  179.0400  144.9950 F   0  0  0  0  0  0  0  0  0  0  0  0
  189.2610  177.6080  145.2390 O   0  0  0  0  0  0  0  0  0  0  0  0
  191.7380  177.5310  143.9590 O   0  0  0  0  0  0  0  0  0  0  0  0
  192.7400  175.9690  145.4740 C   0  0  1  0  0  3  0  0  0  0  0  0
  190.2930  176.3700  147.0040 C   0  0  0  0  0  3  0  0  0  0  0  0
  191.6140  176.8660  145.0230 C   0  0  0  0  0  0  0  0  0  0  0  0
  192.5870  175.5140  146.9040 C   0  0  0  0  0  3  0  0  0  0  0  0
  190.3600  176.9420  145.7930 C   0  0  0  0  0  0  0  0  0  0  0  0
  191.4540  175.6800  147.5920 C   0  0  0  0  0  3  0  0  0  0  0  0
  192.8650  174.7880  144.5640 C   0  0  0  0  0  0  0  0  0  0  0  0
  192.1090  173.7590  144.7490 N   0  0  0  0  0  1  0  0  0  0  0  0
  193.9000  174.7350  143.5860 N   0  0  0  0  0  2  0  0  0  0  0  0
  188.3870  175.5400  143.1600 C   0  0  0  0  0  2  0  0  0  0  0  0
  187.6780  174.8500  142.0010 C   0  0  1  0  0  3  0  0  0  0  0  0
  187.9290  175.6380  140.7350 C   0  0  0  0  0  1  0  0  0  0  0  0
  188.1920  173.4330  141.8110 C   0  0  0  0  0  2  0  0  0  0  0  0
  190.0950  172.0760  141.9680 C   0  0  0  0  0  2  0  0  0  0  0  0
  189.3230  171.9180  143.1930 C   0  0  0  0  0  2  0  0  0  0  0  0
  189.4210  173.2410  142.5600 N   0  0  0  0  0  0  0  0  0  0  0  0
  1 22  1  1  0  0  0
  1  4  1  0  0  0  0
  2  7  1  0  0  0  0
  4 11  1  6  0  0  0
  4  5  1  0  0  0  0
  5  3  1  1  0  0  0
  6  1  1  0  0  0  0
  6  2  1  0  0  0  0
  7  5  1  0  0  0  0
  7  8  1  1  0  0  0
  8  9  1  0  0  0  0
 10  8  1  0  0  0  0
 11 17  1  0  0  0  0
 12 15  2  0  0  0  0
 13 19  1  6  0  0  0
 13 16  1  0  0  0  0
 14 18  1  0  0  0  0
 15 13  1  0  0  0  0
 15 17  1  0  0  0  0
 16 18  2  0  0  0  0
 17 14  2  0  0  0  0
 19 20  1  0  0  0  0
 21 19  2  0  0  0  0
 23 24  1  6  0  0  0
 23 22  1  0  0  0  0
 25 23  1  0  0  0  0
 25 28  1  0  0  0  0
 26 28  1  0  0  0  0
 26 27  1  0  0  0  0
 28 27  1  0  0  0  0
M  END
>  <MODEL>
5

>  <REMARK>
 VINA RESULT:      -6.4      3.737      6.517
  Name = 
  8 active torsions:
  status: ('A' for Active; 'I' for Inactive)
    1  A    between atoms: C_1  and  C_26
    2  A    between atoms: C_3  and  C_7
    3  A    between atoms: C_5  and  C_12
    4  A    between atoms: O_11  and  C_15
    5  A    between atoms: O_11  and  C_20
    6  A    between atoms: C_12  and  C_14
    7  A    between atoms: C_14  and  C_25
    8  A    between atoms: N_17  and  C_25
                            x       y       z     vdW  Elec       q    Type
                         _______ _______ _______ _____ _____    ______ ____

>  <TORSDO>
F 8

$$$$
=
 OpenBabel11042418263D

 28 30  0  0  1  0  0  0  0  0999 V2000
  189.7480  175.2650  144.0180 C   0  0  2  0  0  3  0  0  0  0  0  0
  191.6420  174.9080  145.4430 O   0  0  0  0  0  0  0  0  0  0  0  0
  189.6180  177.5330  147.0540 N   0  0  0  0  0  1  0  0  0  0  0  0
  189.2130  176.3450  144.9700 C   0  0  2  0  0  3  0  0  0  0  0  0
  189.8840  176.2890  146.3480 C   0  0  1  0  0  3  0  0  0  0  0  0
  191.2690  175.2030  144.1230 C   0  0  0  0  0  2  0  0  0  0  0  0
  191.4020  176.0720  146.1940 C   0  0  1  0  0  3  0  0  0  0  0  0
  192.1140  175.9460  147.5380 C   0  0  0  0  0  3  0  0  0  0  0  0
  191.3560  175.2140  148.4360 F   0  0  0  0  0  0  0  0  0  0  0  0
  192.4030  177.1920  148.0650 F   0  0  0  0  0  0  0  0  0  0  0  0
  187.8060  176.1920  145.1240 O   0  0  0  0  0  0  0  0  0  0  0  0
  186.0500  175.5700  143.0480 O   0  0  0  0  0  0  0  0  0  0  0  0
  185.1930  177.7920  142.7880 C   0  0  1  0  0  3  0  0  0  0  0  0
  186.7340  178.3260  145.2020 C   0  0  0  0  0  3  0  0  0  0  0  0
  186.0370  176.7530  143.4830 C   0  0  0  0  0  0  0  0  0  0  0  0
  185.0180  179.0460  143.6080 C   0  0  0  0  0  3  0  0  0  0  0  0
  186.8750  177.1180  144.6400 C   0  0  0  0  0  0  0  0  0  0  0  0
  185.7440  179.2960  144.7000 C   0  0  0  0  0  3  0  0  0  0  0  0
  185.7690  178.1230  141.4470 C   0  0  0  0  0  0  0  0  0  0  0  0
  187.0420  178.3010  141.3270 N   0  0  0  0  0  1  0  0  0  0  0  0
  184.9140  178.3790  140.3360 N   0  0  0  0  0  2  0  0  0  0  0  0
  189.3780  175.5790  142.5720 C   0  0  0  0  0  2  0  0  0  0  0  0
  189.3420  174.3350  141.6920 C   0  0  1  0  0  3  0  0  0  0  0  0
  188.7380  173.1950  142.4820 C   0  0  0  0  0  1  0  0  0  0  0  0
  188.5050  174.5700  140.4460 C   0  0  0  0  0  2  0  0  0  0  0  0
  188.2160  174.1250  138.1640 C   0  0  0  0  0  2  0  0  0  0  0  0
  188.2900  172.8520  138.8690 C   0  0  0  0  0  2  0  0  0  0  0  0
  189.1480  173.9680  139.2910 N   0  0  0  0  0  0  0  0  0  0  0  0
  1 22  1  6  0  0  0
  1  6  1  0  0  0  0
  1  4  1  0  0  0  0
  2  7  1  0  0  0  0
  4 11  1  1  0  0  0
  4  5  1  0  0  0  0
  5  3  1  6  0  0  0
  6  2  1  0  0  0  0
  7  5  1  0  0  0  0
  7  8  1  1  0  0  0
  8 10  1  0  0  0  0
  8  9  1  0  0  0  0
 12 15  2  0  0  0  0
 13 19  1  6  0  0  0
 13 15  1  0  0  0  0
 13 16  1  0  0  0  0
 15 17  1  0  0  0  0
 16 18  2  0  0  0  0
 17 11  1  0  0  0  0
 17 14  2  0  0  0  0
 18 14  1  0  0  0  0
 20 19  1  0  0  0  0
 21 19  2  0  0  0  0
 23 24  1  1  0  0  0
 23 22  1  0  0  0  0
 25 23  1  0  0  0  0
 26 27  1  0  0  0  0
 26 28  1  0  0  0  0
 27 28  1  0  0  0  0
 28 25  1  0  0  0  0
M  END
>  <MODEL>
6

>  <REMARK>
 VINA RESULT:      -6.3      2.166      2.968
  Name = 
  8 active torsions:
  status: ('A' for Active; 'I' for Inactive)
    1  A    between atoms: C_1  and  C_26
    2  A    between atoms: C_3  and  C_7
    3  A    between atoms: C_5  and  C_12
    4  A    between atoms: O_11  and  C_15
    5  A    between atoms: O_11  and  C_20
    6  A    between atoms: C_12  and  C_14
    7  A    between atoms: C_14  and  C_25
    8  A    between atoms: N_17  and  C_25
                            x       y       z     vdW  Elec       q    Type
                         _______ _______ _______ _____ _____    ______ ____

>  <TORSDO>
F 8

$$$$
=
 OpenBabel11042418263D

 28 30  0  0  1  0  0  0  0  0999 V2000
  188.0970  178.0670  143.6100 C   0  0  2  0  0  3  0  0  0  0  0  0
  186.0900  178.6510  144.7820 O   0  0  0  0  0  0  0  0  0  0  0  0
  187.9170  176.3130  146.9670 N   0  0  0  0  0  1  0  0  0  0  0  0
  188.5270  177.1520  144.7660 C   0  0  2  0  0  3  0  0  0  0  0  0
  187.7370  177.4280  146.0510 C   0  0  1  0  0  3  0  0  0  0  0  0
  186.5740  178.1480  143.5650 C   0  0  0  0  0  2  0  0  0  0  0  0
  186.2420  177.6210  145.7270 C   0  0  1  0  0  3  0  0  0  0  0  0
  185.4150  177.9620  146.9630 C   0  0  0  0  0  3  0  0  0  0  0  0
  184.0660  177.7590  146.7320 F   0  0  0  0  0  0  0  0  0  0  0  0
  185.6380  179.2670  147.3640 F   0  0  0  0  0  0  0  0  0  0  0  0
  189.9170  177.3250  145.0220 O   0  0  0  0  0  0  0  0  0  0  0  0
  191.3510  176.7910  147.3540 O   0  0  0  0  0  0  0  0  0  0  0  0
  192.7510  175.1020  146.3900 C   0  0  1  0  0  3  0  0  0  0  0  0
  190.9840  175.3990  144.0920 C   0  0  0  0  0  3  0  0  0  0  0  0
  191.6090  176.0860  146.3400 C   0  0  0  0  0  0  0  0  0  0  0  0
  192.7210  174.1150  145.2490 C   0  0  0  0  0  3  0  0  0  0  0  0
  190.8210  176.2600  145.1060 C   0  0  0  0  0  0  0  0  0  0  0  0
  191.9260  174.2700  144.1870 C   0  0  0  0  0  3  0  0  0  0  0  0
  194.0620  175.8220  146.4200 C   0  0  0  0  0  0  0  0  0  0  0  0
  195.1470  175.1810  146.1380 N   0  0  0  0  0  2  0  0  0  0  0  0
  194.1400  177.1660  146.8880 N   0  0  0  0  0  1  0  0  0  0  0  0
  188.5900  177.5250  142.2720 C   0  0  0  0  0  2  0  0  0  0  0  0
  187.6020  176.5570  141.6320 C   0  0  1  0  0  3  0  0  0  0  0  0
  187.0670  177.1750  140.3590 C   0  0  0  0  0  1  0  0  0  0  0  0
  188.2710  175.2350  141.2960 C   0  0  0  0  0  2  0  0  0  0  0  0
  188.9440  173.1530  142.1320 C   0  0  0  0  0  2  0  0  0  0  0  0
  187.5800  173.0230  141.6370 C   0  0  0  0  0  2  0  0  0  0  0  0
  187.9890  174.2540  142.3290 N   0  0  0  0  0  0  0  0  0  0  0  0
  1 22  1  6  0  0  0
  1  4  1  0  0  0  0
  2  7  1  0  0  0  0
  4 11  1  1  0  0  0
  4  5  1  0  0  0  0
  5  3  1  1  0  0  0
  6  1  1  0  0  0  0
  6  2  1  0  0  0  0
  7  5  1  0  0  0  0
  7  8  1  1  0  0  0
  8 10  1  0  0  0  0
  9  8  1  0  0  0  0
 11 17  1  0  0  0  0
 13 19  1  6  0  0  0
 14 18  1  0  0  0  0
 14 17  2  0  0  0  0
 15 13  1  0  0  0  0
 15 12  2  0  0  0  0
 16 13  1  0  0  0  0
 17 15  1  0  0  0  0
 18 16  2  0  0  0  0
 19 21  1  0  0  0  0
 20 19  2  0  0  0  0
 23 24  1  6  0  0  0
 23 22  1  0  0  0  0
 25 23  1  0  0  0  0
 25 28  1  0  0  0  0
 26 28  1  0  0  0  0
 27 26  1  0  0  0  0
 27 28  1  0  0  0  0
M  END
>  <MODEL>
7

>  <REMARK>
 VINA RESULT:      -6.3      3.332      6.408
  Name = 
  8 active torsions:
  status: ('A' for Active; 'I' for Inactive)
    1  A    between atoms: C_1  and  C_26
    2  A    between atoms: C_3  and  C_7
    3  A    between atoms: C_5  and  C_12
    4  A    between atoms: O_11  and  C_15
    5  A    between atoms: O_11  and  C_20
    6  A    between atoms: C_12  and  C_14
    7  A    between atoms: C_14  and  C_25
    8  A    between atoms: N_17  and  C_25
                            x       y       z     vdW  Elec       q    Type
                         _______ _______ _______ _____ _____    ______ ____

>  <TORSDO>
F 8

$$$$
=
 OpenBabel11042418263D

 28 30  0  0  1  0  0  0  0  0999 V2000
  189.9300  176.5960  146.4130 C   0  0  2  0  0  3  0  0  0  0  0  0
  192.0920  176.6550  147.4470 O   0  0  0  0  0  0  0  0  0  0  0  0
  192.6780  176.0020  143.8680 N   0  0  0  0  0  1  0  0  0  0  0  0
  190.5720  176.3160  145.0460 C   0  0  2  0  0  3  0  0  0  0  0  0
  192.0740  176.6260  145.0350 C   0  0  1  0  0  3  0  0  0  0  0  0
  190.8290  176.0480  147.5180 C   0  0  0  0  0  2  0  0  0  0  0  0
  192.7360  176.1030  146.3260 C   0  0  1  0  0  3  0  0  0  0  0  0
  194.2230  176.4390  146.3980 C   0  0  0  0  0  3  0  0  0  0  0  0
  194.9620  175.3440  146.8100 F   0  0  0  0  0  0  0  0  0  0  0  0
  194.4480  177.5110  147.2440 F   0  0  0  0  0  0  0  0  0  0  0  0
  189.9240  177.0940  144.0450 O   0  0  0  0  0  0  0  0  0  0  0  0
  188.9420  178.6510  141.9500 O   0  0  0  0  0  0  0  0  0  0  0  0
  187.6920  176.8910  140.9110 C   0  0  1  0  0  3  0  0  0  0  0  0
  189.0410  175.2090  142.8710 C   0  0  0  0  0  3  0  0  0  0  0  0
  188.6510  177.4250  141.9460 C   0  0  0  0  0  0  0  0  0  0  0  0
  187.7070  175.3850  140.8230 C   0  0  0  0  0  3  0  0  0  0  0  0
  189.2160  176.5340  142.9760 C   0  0  0  0  0  0  0  0  0  0  0  0
  188.3070  174.6190  141.7380 C   0  0  0  0  0  3  0  0  0  0  0  0
  186.3050  177.3820  141.1790 C   0  0  0  0  0  0  0  0  0  0  0  0
  185.7550  177.1460  142.3230 N   0  0  0  0  0  1  0  0  0  0  0  0
  185.5370  177.9850  140.1400 N   0  0  0  0  0  2  0  0  0  0  0  0
  188.5660  175.9220  146.5240 C   0  0  0  0  0  2  0  0  0  0  0  0
  187.5470  176.7800  147.2650 C   0  0  1  0  0  3  0  0  0  0  0  0
  188.0710  178.1960  147.3520 C   0  0  0  0  0  1  0  0  0  0  0  0
  186.2110  176.7910  146.5410 C   0  0  0  0  0  2  0  0  0  0  0  0
  184.4170  178.2690  146.8250 C   0  0  0  0  0  2  0  0  0  0  0  0
  184.6260  178.0800  145.3970 C   0  0  0  0  0  2  0  0  0  0  0  0
  185.7850  178.1570  146.2980 N   0  0  0  0  0  0  0  0  0  0  0  0
  1 22  1  6  0  0  0
  1  6  1  0  0  0  0
  2  6  1  0  0  0  0
  4 11  1  6  0  0  0
  4  1  1  0  0  0  0
  5  3  1  6  0  0  0
  5  4  1  0  0  0  0
  5  7  1  0  0  0  0
  7  8  1  6  0  0  0
  7  2  1  0  0  0  0
  8  9  1  0  0  0  0
  8 10  1  0  0  0  0
 13 19  1  1  0  0  0
 13 15  1  0  0  0  0
 14 17  2  0  0  0  0
 15 12  2  0  0  0  0
 15 17  1  0  0  0  0
 16 13  1  0  0  0  0
 16 18  2  0  0  0  0
 17 11  1  0  0  0  0
 18 14  1  0  0  0  0
 19 20  1  0  0  0  0
 21 19  2  0  0  0  0
 22 23  1  0  0  0  0
 23 24  1  6  0  0  0
 25 23  1  0  0  0  0
 27 28  1  0  0  0  0
 27 26  1  0  0  0  0
 28 25  1  0  0  0  0
 28 26  1  0  0  0  0
M  END
>  <MODEL>
8

>  <REMARK>
 VINA RESULT:      -6.2      1.862      4.468
  Name = 
  8 active torsions:
  status: ('A' for Active; 'I' for Inactive)
    1  A    between atoms: C_1  and  C_26
    2  A    between atoms: C_3  and  C_7
    3  A    between atoms: C_5  and  C_12
    4  A    between atoms: O_11  and  C_15
    5  A    between atoms: O_11  and  C_20
    6  A    between atoms: C_12  and  C_14
    7  A    between atoms: C_14  and  C_25
    8  A    between atoms: N_17  and  C_25
                            x       y       z     vdW  Elec       q    Type
                         _______ _______ _______ _____ _____    ______ ____

>  <TORSDO>
F 8

$$$$
=
 OpenBabel11042418263D

 28 30  0  0  1  0  0  0  0  0999 V2000
  190.5320  174.7140  144.2650 C   0  0  2  0  0  3  0  0  0  0  0  0
  191.1470  173.3420  142.3990 O   0  0  0  0  0  0  0  0  0  0  0  0
  187.5530  174.0570  142.0130 N   0  0  0  0  0  1  0  0  0  0  0  0
  189.0810  174.7730  143.7660 C   0  0  2  0  0  3  0  0  0  0  0  0
  188.9510  174.3350  142.3020 C   0  0  1  0  0  3  0  0  0  0  0  0
  191.1780  173.4120  143.8000 C   0  0  0  0  0  2  0  0  0  0  0  0
  189.8120  173.0830  142.0420 C   0  0  1  0  0  3  0  0  0  0  0  0
  189.7710  172.6380  140.5830 C   0  0  0  0  0  3  0  0  0  0  0  0
  190.7360  171.6790  140.3260 F   0  0  0  0  0  0  0  0  0  0  0  0
  189.9330  173.7160  139.7310 F   0  0  0  0  0  0  0  0  0  0  0  0
  188.5800  176.0980  143.9070 O   0  0  0  0  0  0  0  0  0  0  0  0
  186.0240  176.5500  142.8880 O   0  0  0  0  0  0  0  0  0  0  0  0
  185.0780  177.3180  144.9510 C   0  0  1  0  0  3  0  0  0  0  0  0
  187.6310  176.4680  146.0690 C   0  0  0  0  0  3  0  0  0  0  0  0
  186.1970  176.7380  144.1230 C   0  0  0  0  0  0  0  0  0  0  0  0
  185.3110  177.1680  146.4340 C   0  0  0  0  0  3  0  0  0  0  0  0
  187.5020  176.4270  144.7360 C   0  0  0  0  0  0  0  0  0  0  0  0
  186.4910  176.8010  146.9410 C   0  0  0  0  0  3  0  0  0  0  0  0
  184.8590  178.7560  144.6030 C   0  0  0  0  0  0  0  0  0  0  0  0
  185.6610  179.6540  145.0690 N   0  0  0  0  0  1  0  0  0  0  0  0
  183.6990  179.1570  143.8770 N   0  0  0  0  0  2  0  0  0  0  0  0
  190.5890  174.7610  145.7890 C   0  0  0  0  0  2  0  0  0  0  0  0
  191.0890  176.1010  146.3160 C   0  0  1  0  0  3  0  0  0  0  0  0
  191.2000  176.0230  147.8220 C   0  0  0  0  0  1  0  0  0  0  0  0
  192.4530  176.4420  145.7370 C   0  0  0  0  0  2  0  0  0  0  0  0
  194.5680  177.1450  146.4580 C   0  0  0  0  0  2  0  0  0  0  0  0
  194.6890  175.7830  145.9560 C   0  0  0  0  0  2  0  0  0  0  0  0
  193.4920  176.1750  146.7150 N   0  0  0  0  0  0  0  0  0  0  0  0
  1 22  1  1  0  0  0
  2  6  1  0  0  0  0
  4 11  1  6  0  0  0
  4  1  1  0  0  0  0
  5  3  1  1  0  0  0
  5  4  1  0  0  0  0
  6  1  1  0  0  0  0
  7  8  1  6  0  0  0
  7  5  1  0  0  0  0
  7  2  1  0  0  0  0
  9  8  1  0  0  0  0
 10  8  1  0  0  0  0
 11 17  1  0  0  0  0
 12 15  2  0  0  0  0
 13 19  1  1  0  0  0
 13 16  1  0  0  0  0
 14 18  1  0  0  0  0
 15 17  1  0  0  0  0
 15 13  1  0  0  0  0
 16 18  2  0  0  0  0
 17 14  2  0  0  0  0
 19 20  1  0  0  0  0
 21 19  2  0  0  0  0
 22 23  1  0  0  0  0
 23 24  1  1  0  0  0
 25 23  1  0  0  0  0
 25 28  1  0  0  0  0
 26 28  1  0  0  0  0
 27 26  1  0  0  0  0
 27 28  1  0  0  0  0
M  END
>  <MODEL>
9

>  <REMARK>
 VINA RESULT:      -6.1      3.030      5.394
  Name = 
  8 active torsions:
  status: ('A' for Active; 'I' for Inactive)
    1  A    between atoms: C_1  and  C_26
    2  A    between atoms: C_3  and  C_7
    3  A    between atoms: C_5  and  C_12
    4  A    between atoms: O_11  and  C_15
    5  A    between atoms: O_11  and  C_20
    6  A    between atoms: C_12  and  C_14
    7  A    between atoms: C_14  and  C_25
    8  A    between atoms: N_17  and  C_25
                            x       y       z     vdW  Elec       q    Type
                         _______ _______ _______ _____ _____    ______ ____

>  <TORSDO>
F 8

$$$$
