=
 OpenBabel11042414463D

 36 41  0  0  1  0  0  0  0  0999 V2000
  190.4260  174.8980  146.1970 C   0  0  0  0  0  0  0  0  0  0  0  0
  190.0990  177.2900  143.5750 C   0  0  0  0  0  3  0  0  0  0  0  0
  189.3920  176.4890  144.5990 C   0  0  0  0  0  0  0  0  0  0  0  0
  187.6470  176.3510  146.3370 C   0  0  0  0  0  0  0  0  0  0  0  0
  190.7420  174.5080  143.7370 C   0  0  0  0  0  0  0  0  0  0  0  0
  186.3680  176.7750  146.7130 C   0  0  0  0  0  3  0  0  0  0  0  0
  190.9330  173.1300  143.7230 O   0  0  0  0  0  1  0  0  0  0  0  0
  191.3340  175.3010  142.8160 C   0  0  0  0  0  0  0  0  0  0  0  0
  186.4010  178.4780  145.0540 N   0  0  0  0  0  0  0  0  0  0  0  0
  189.8560  175.0730  144.8270 C   0  0  0  0  0  0  0  0  0  0  0  0
  187.6240  178.0730  144.6270 C   0  0  0  0  0  3  0  0  0  0  0  0
  184.1580  178.3620  146.5450 Cl  0  0  0  0  0  0  0  0  0  0  0  0
  188.2740  176.9630  145.2050 C   0  0  0  0  0  0  0  0  0  0  0  0
  189.6250  175.0310  147.2500 C   0  0  0  0  0  2  0  0  0  0  0  0
  191.0040  176.7410  142.7700 C   0  0  0  0  0  3  0  0  0  0  0  0
  188.2320  175.5150  147.2130 C   0  0  0  0  0  3  0  0  0  0  0  0
  185.7500  177.8280  146.0480 C   0  0  0  0  0  0  0  0  0  0  0  0
  193.5070  173.6480  139.9490 C   0  0  0  0  0  0  0  0  0  0  0  0
  196.4190  176.0330  140.3980 O   0  0  0  0  0  0  0  0  0  0  0  0
  196.2290  173.9160  138.7390 C   0  0  0  0  0  2  0  0  0  0  0  0
  195.8220  171.6270  139.3530 O   0  0  0  0  0  1  0  0  0  0  0  0
  196.0220  174.5840  140.3860 S   0  0  0  0  0  0  0  0  0  0  0  0
  193.9490  172.9200  138.8000 N   0  0  0  0  0  2  0  0  0  0  0  0
  196.8520  173.8100  141.3710 O   0  0  0  0  0  0  0  0  0  0  0  0
  191.9300  173.7520  140.5000 S   0  0  0  0  0  0  0  0  0  0  0  0
  192.2850  174.7880  141.7970 C   0  0  0  0  0  0  0  0  0  0  0  0
  195.3680  172.6630  138.5360 C   0  0  1  0  0  3  0  0  0  0  0  0
  193.6570  175.0560  141.7990 C   0  0  0  0  0  3  0  0  0  0  0  0
  194.3250  174.4120  140.7520 C   0  0  0  0  0  0  0  0  0  0  0  0
  191.8040  174.5100  146.3550 N   0  0  0  0  0  2  0  0  0  0  0  0
  196.1020  175.7090  144.4630 C   0  0  0  0  0  1  0  0  0  0  0  0
  194.4770  176.9000  146.0180 C   0  0  0  0  0  3  0  0  0  0  0  0
  193.2460  176.5620  146.5630 C   0  0  0  0  0  3  0  0  0  0  0  0
  193.9370  174.8730  145.3010 O   0  0  0  0  0  0  0  0  0  0  0  0
  192.9730  175.2950  146.0780 C   0  0  0  0  0  0  0  0  0  0  0  0
  194.8440  175.8130  145.2500 C   0  0  0  0  0  0  0  0  0  0  0  0
  1 30  1  0  0  0  0
  1 14  1  0  0  0  0
  2  3  1  0  0  0  0
  3 10  1  0  0  0  0
  3 13  2  0  0  0  0
  4  6  1  0  0  0  0
  4 16  2  0  0  0  0
  5 10  1  0  0  0  0
  7  5  1  0  0  0  0
  8  5  2  0  0  0  0
  9 17  1  0  0  0  0
 10  1  2  0  0  0  0
 11  9  2  0  0  0  0
 11 13  1  0  0  0  0
 13  4  1  0  0  0  0
 15  8  1  0  0  0  0
 15  2  2  0  0  0  0
 16 14  1  0  0  0  0
 17 12  1  0  0  0  0
 17  6  2  0  0  0  0
 18 25  1  0  0  0  0
 18 29  2  0  0  0  0
 20 22  1  0  0  0  0
 22 19  2  0  0  0  0
 22 29  1  0  0  0  0
 22 24  2  0  0  0  0
 23 18  1  0  0  0  0
 25 26  1  0  0  0  0
 26 28  2  0  0  0  0
 26  8  1  0  0  0  0
 27 20  1  0  0  0  0
 27 23  1  0  0  0  0
 27 21  1  1  0  0  0
 29 28  1  0  0  0  0
 31 36  1  0  0  0  0
 32 33  1  0  0  0  0
 34 35  1  0  0  0  0
 35 30  1  0  0  0  0
 35 33  2  0  0  0  0
 36 34  1  0  0  0  0
 36 32  2  0  0  0  0
M  END
>  <MODEL>
1

>  <REMARK>
 VINA RESULT:      -8.3      0.000      0.000
  Name = 
  3 active torsions:
  status: ('A' for Active; 'I' for Inactive)
    1  A    between atoms: C_1  and  N_30
    2  A    between atoms: C_18  and  C_29
    3  A    between atoms: N_30  and  C_32
                            x       y       z     vdW  Elec       q    Type
                         _______ _______ _______ _____ _____    ______ ____

>  <TORSDO>
F 3

$$$$
=
 OpenBabel11042414463D

 36 41  0  0  1  0  0  0  0  0999 V2000
  188.7310  175.6920  142.6300 C   0  0  0  0  0  0  0  0  0  0  0  0
  189.6630  174.9540  145.9910 C   0  0  0  0  0  3  0  0  0  0  0  0
  188.8660  175.8300  145.1040 C   0  0  0  0  0  0  0  0  0  0  0  0
  186.7590  177.0380  144.6690 C   0  0  0  0  0  0  0  0  0  0  0  0
  190.9780  176.0420  143.6950 C   0  0  0  0  0  0  0  0  0  0  0  0
  185.7070  177.7520  145.2500 C   0  0  0  0  0  3  0  0  0  0  0  0
  191.6450  176.6970  142.6660 O   0  0  0  0  0  1  0  0  0  0  0  0
  191.6450  175.2460  144.5620 C   0  0  0  0  0  0  0  0  0  0  0  0
  186.3270  176.9830  147.4130 N   0  0  0  0  0  0  0  0  0  0  0  0
  189.4820  176.2520  143.7950 C   0  0  1  0  0  3  0  0  0  0  0  0
  187.3870  176.3100  146.8970 C   0  0  0  0  0  3  0  0  0  0  0  0
  184.1810  178.6130  147.3380 Cl  0  0  0  0  0  0  0  0  0  0  0  0
  187.6840  176.3520  145.5200 C   0  0  0  0  0  0  0  0  0  0  0  0
  187.4820  176.0920  142.4170 C   0  0  0  0  0  3  0  0  0  0  0  0
  190.9360  174.6750  145.7260 C   0  0  0  0  0  3  0  0  0  0  0  0
  186.6790  176.9260  143.3300 C   0  0  0  0  0  3  0  0  0  0  0  0
  185.5160  177.7310  146.6280 C   0  0  0  0  0  0  0  0  0  0  0  0
  195.5770  174.9160  144.2280 C   0  0  0  0  0  0  0  0  0  0  0  0
  195.5710  171.1450  144.6090 O   0  0  0  0  0  0  0  0  0  0  0  0
  197.6620  172.7760  144.1150 C   0  0  0  0  0  2  0  0  0  0  0  0
  197.9190  174.2760  142.2540 O   0  0  0  0  0  1  0  0  0  0  0  0
  195.9900  172.2790  143.7150 S   0  0  0  0  0  0  0  0  0  0  0  0
  196.9850  175.1690  144.2070 N   0  0  0  0  0  2  0  0  0  0  0  0
  195.8990  171.8650  142.2740 O   0  0  0  0  0  0  0  0  0  0  0  0
  194.3830  176.0380  144.5690 S   0  0  0  0  0  0  0  0  0  0  0  0
  193.0930  174.9430  144.4300 C   0  0  0  0  0  0  0  0  0  0  0  0
  197.9410  174.2100  143.6480 C   0  0  1  0  0  3  0  0  0  0  0  0
  193.6050  173.6810  144.1130 C   0  0  0  0  0  3  0  0  0  0  0  0
  195.0000  173.6850  144.0090 C   0  0  0  0  0  0  0  0  0  0  0  0
  189.3920  174.7960  141.7170 N   0  0  0  0  0  2  0  0  0  0  0  0
  192.4020  170.9970  141.7570 C   0  0  0  0  0  1  0  0  0  0  0  0
  190.0540  171.3830  142.6590 C   0  0  0  0  0  3  0  0  0  0  0  0
  189.1880  172.4670  142.6500 C   0  0  0  0  0  3  0  0  0  0  0  0
  191.0540  173.0590  141.6060 O   0  0  0  0  0  0  0  0  0  0  0  0
  189.8700  173.4690  141.9820 C   0  0  0  0  0  0  0  0  0  0  0  0
  191.1850  171.8170  141.9990 C   0  0  0  0  0  0  0  0  0  0  0  0
  3 13  2  0  0  0  0
  3  2  1  0  0  0  0
  4  6  1  0  0  0  0
  4 13  1  0  0  0  0
  5 10  1  0  0  0  0
  5  8  2  0  0  0  0
  6 17  2  0  0  0  0
  7  5  1  0  0  0  0
  8 15  1  0  0  0  0
 10  1  1  6  0  0  0
 10  3  1  0  0  0  0
 11  9  2  0  0  0  0
 13 11  1  0  0  0  0
 14  1  2  0  0  0  0
 14 16  1  0  0  0  0
 15  2  2  0  0  0  0
 16  4  2  0  0  0  0
 17 12  1  0  0  0  0
 17  9  1  0  0  0  0
 18 25  1  0  0  0  0
 22 29  1  0  0  0  0
 22 20  1  0  0  0  0
 22 19  2  0  0  0  0
 23 18  1  0  0  0  0
 24 22  2  0  0  0  0
 26  8  1  0  0  0  0
 26 25  1  0  0  0  0
 27 21  1  6  0  0  0
 27 20  1  0  0  0  0
 27 23  1  0  0  0  0
 28 26  2  0  0  0  0
 29 28  1  0  0  0  0
 29 18  2  0  0  0  0
 30 35  1  0  0  0  0
 30  1  1  0  0  0  0
 31 36  1  0  0  0  0
 33 32  1  0  0  0  0
 34 35  1  0  0  0  0
 34 36  1  0  0  0  0
 35 33  2  0  0  0  0
 36 32  2  0  0  0  0
M  END
>  <MODEL>
2

>  <REMARK>
 VINA RESULT:      -8.2      2.774      4.369
  Name = 
  3 active torsions:
  status: ('A' for Active; 'I' for Inactive)
    1  A    between atoms: C_1  and  N_30
    2  A    between atoms: C_18  and  C_29
    3  A    between atoms: N_30  and  C_32
                            x       y       z     vdW  Elec       q    Type
                         _______ _______ _______ _____ _____    ______ ____

>  <TORSDO>
F 3

$$$$
=
 OpenBabel11042414463D

 36 41  0  0  1  0  0  0  0  0999 V2000
  193.5890  176.5210  144.5360 C   0  0  0  0  0  0  0  0  0  0  0  0
  191.7940  174.9100  141.9120 C   0  0  0  0  0  3  0  0  0  0  0  0
  193.0480  175.5910  142.3000 C   0  0  0  0  0  0  0  0  0  0  0  0
  195.5100  175.7020  142.1920 C   0  0  0  0  0  0  0  0  0  0  0  0
  191.5590  177.3800  143.3350 C   0  0  0  0  0  0  0  0  0  0  0  0
  196.6330  175.4870  141.3850 C   0  0  0  0  0  3  0  0  0  0  0  0
  191.4580  178.6510  143.8890 O   0  0  0  0  0  1  0  0  0  0  0  0
  190.4570  176.7070  142.9320 C   0  0  0  0  0  0  0  0  0  0  0  0
  195.3310  174.2360  139.8380 N   0  0  0  0  0  0  0  0  0  0  0  0
  192.9460  176.7850  143.2130 C   0  0  0  0  0  0  0  0  0  0  0  0
  194.2080  174.4570  140.5670 C   0  0  0  0  0  3  0  0  0  0  0  0
  197.9410  174.4890  139.2120 Cl  0  0  0  0  0  0  0  0  0  0  0  0
  194.2330  175.2420  141.7370 C   0  0  0  0  0  0  0  0  0  0  0  0
  194.9040  176.3270  144.5850 C   0  0  0  0  0  2  0  0  0  0  0  0
  190.6050  175.4200  142.2210 C   0  0  0  0  0  3  0  0  0  0  0  0
  195.7940  176.1740  143.4190 C   0  0  0  0  0  3  0  0  0  0  0  0
  196.5230  174.7680  140.1990 C   0  0  0  0  0  0  0  0  0  0  0  0
  186.8260  178.2830  143.0180 C   0  0  0  0  0  0  0  0  0  0  0  0
  185.8090  176.4620  146.1830 O   0  0  0  0  0  0  0  0  0  0  0  0
  184.4060  178.2830  144.7750 C   0  0  0  0  0  2  0  0  0  0  0  0
  185.0600  180.5420  144.2720 O   0  0  0  0  0  1  0  0  0  0  0  0
  185.9500  177.8170  145.5490 S   0  0  0  0  0  0  0  0  0  0  0  0
  185.5870  178.9110  142.6760 N   0  0  0  0  0  2  0  0  0  0  0  0
  186.3440  178.8350  146.5810 O   0  0  0  0  0  0  0  0  0  0  0  0
  188.1080  178.0080  141.9780 S   0  0  0  0  0  0  0  0  0  0  0  0
  189.0780  177.2220  143.1280 C   0  0  0  0  0  0  0  0  0  0  0  0
  184.6260  179.3480  143.6930 C   0  0  1  0  0  3  0  0  0  0  0  0
  188.3880  177.1740  144.3430 C   0  0  0  0  0  3  0  0  0  0  0  0
  187.1250  177.7690  144.2610 C   0  0  0  0  0  0  0  0  0  0  0  0
  192.7970  176.5590  145.7380 N   0  0  0  0  0  2  0  0  0  0  0  0
  189.6800  172.8550  145.5280 C   0  0  0  0  0  1  0  0  0  0  0  0
  189.8480  174.9230  147.0010 C   0  0  0  0  0  3  0  0  0  0  0  0
  190.7370  175.9870  147.0650 C   0  0  0  0  0  3  0  0  0  0  0  0
  191.3920  174.6290  145.4360 O   0  0  0  0  0  0  0  0  0  0  0  0
  191.6660  175.7410  146.0690 C   0  0  0  0  0  0  0  0  0  0  0  0
  190.3110  174.1240  145.9750 C   0  0  0  0  0  0  0  0  0  0  0  0
  1 14  1  0  0  0  0
  1 30  1  0  0  0  0
  2 15  2  0  0  0  0
  2  3  1  0  0  0  0
  3 10  1  0  0  0  0
  4 16  2  0  0  0  0
  5  7  1  0  0  0  0
  6  4  1  0  0  0  0
  8 26  1  0  0  0  0
  8  5  2  0  0  0  0
  9 17  1  0  0  0  0
  9 11  2  0  0  0  0
 10  5  1  0  0  0  0
 10  1  2  0  0  0  0
 11 13  1  0  0  0  0
 12 17  1  0  0  0  0
 13  4  1  0  0  0  0
 13  3  2  0  0  0  0
 15  8  1  0  0  0  0
 16 14  1  0  0  0  0
 17  6  2  0  0  0  0
 18 29  2  0  0  0  0
 20 22  1  0  0  0  0
 22 19  2  0  0  0  0
 22 24  2  0  0  0  0
 23 18  1  0  0  0  0
 23 27  1  0  0  0  0
 25 18  1  0  0  0  0
 25 26  1  0  0  0  0
 26 28  2  0  0  0  0
 27 21  1  1  0  0  0
 27 20  1  0  0  0  0
 29 28  1  0  0  0  0
 29 22  1  0  0  0  0
 30 35  1  0  0  0  0
 31 36  1  0  0  0  0
 32 33  1  0  0  0  0
 34 36  1  0  0  0  0
 34 35  1  0  0  0  0
 35 33  2  0  0  0  0
 36 32  2  0  0  0  0
M  END
>  <MODEL>
3

>  <REMARK>
 VINA RESULT:      -8.2      4.300      8.548
  Name = 
  3 active torsions:
  status: ('A' for Active; 'I' for Inactive)
    1  A    between atoms: C_1  and  N_30
    2  A    between atoms: C_18  and  C_29
    3  A    between atoms: N_30  and  C_32
                            x       y       z     vdW  Elec       q    Type
                         _______ _______ _______ _____ _____    ______ ____

>  <TORSDO>
F 3

$$$$
=
 OpenBabel11042414463D

 36 41  0  0  1  0  0  0  0  0999 V2000
  188.5660  174.9350  142.8130 C   0  0  0  0  0  0  0  0  0  0  0  0
  189.0910  174.9920  146.3380 C   0  0  0  0  0  3  0  0  0  0  0  0
  188.4450  175.6560  145.1840 C   0  0  0  0  0  0  0  0  0  0  0  0
  186.4720  176.7920  144.2350 C   0  0  0  0  0  0  0  0  0  0  0  0
  190.7040  175.4570  144.0220 C   0  0  0  0  0  0  0  0  0  0  0  0
  185.4080  177.6580  144.5060 C   0  0  0  0  0  3  0  0  0  0  0  0
  191.5140  175.8250  142.9540 O   0  0  0  0  0  1  0  0  0  0  0  0
  191.2270  174.8700  145.1220 C   0  0  0  0  0  0  0  0  0  0  0  0
  185.7480  177.4080  146.8460 N   0  0  0  0  0  0  0  0  0  0  0  0
  189.2200  175.7330  143.8940 C   0  0  1  0  0  3  0  0  0  0  0  0
  186.8150  176.5970  146.6290 C   0  0  0  0  0  3  0  0  0  0  0  0
  183.7220  179.0410  146.1420 Cl  0  0  0  0  0  0  0  0  0  0  0  0
  187.2590  176.3000  145.3260 C   0  0  0  0  0  0  0  0  0  0  0  0
  187.3720  175.3140  142.3660 C   0  0  0  0  0  3  0  0  0  0  0  0
  190.3660  174.6170  146.2970 C   0  0  0  0  0  3  0  0  0  0  0  0
  186.5270  176.3670  142.9600 C   0  0  0  0  0  3  0  0  0  0  0  0
  185.0700  177.9730  145.8190 C   0  0  0  0  0  0  0  0  0  0  0  0
  195.1410  174.3530  145.4250 C   0  0  0  0  0  0  0  0  0  0  0  0
  194.8810  170.6170  146.0140 O   0  0  0  0  0  0  0  0  0  0  0  0
  197.1040  172.1220  145.7610 C   0  0  0  0  0  2  0  0  0  0  0  0
  197.7220  173.4880  143.8810 O   0  0  0  0  0  1  0  0  0  0  0  0
  195.4900  171.6730  145.1340 S   0  0  0  0  0  0  0  0  0  0  0  0
  196.5460  174.5430  145.6100 N   0  0  0  0  0  2  0  0  0  0  0  0
  195.5990  171.1710  143.7230 O   0  0  0  0  0  0  0  0  0  0  0  0
  193.9680  175.5440  145.5120 S   0  0  0  0  0  0  0  0  0  0  0  0
  192.6600  174.4980  145.2360 C   0  0  0  0  0  0  0  0  0  0  0  0
  197.5260  173.5100  145.2630 C   0  0  1  0  0  3  0  0  0  0  0  0
  193.1490  173.1970  145.0750 C   0  0  0  0  0  3  0  0  0  0  0  0
  194.5410  173.1350  145.1890 C   0  0  0  0  0  0  0  0  0  0  0  0
  189.2660  173.8270  142.2180 N   0  0  0  0  0  2  0  0  0  0  0  0
  188.9430  173.6790  137.3840 C   0  0  0  0  0  1  0  0  0  0  0  0
  190.8660  173.3770  139.0230 C   0  0  0  0  0  3  0  0  0  0  0  0
  190.9650  173.4170  140.4060 C   0  0  0  0  0  3  0  0  0  0  0  0
  188.8520  173.8020  139.8470 O   0  0  0  0  0  0  0  0  0  0  0  0
  189.6820  173.6840  140.8520 C   0  0  0  0  0  0  0  0  0  0  0  0
  189.5360  173.6220  138.7460 C   0  0  0  0  0  0  0  0  0  0  0  0
  3 13  2  0  0  0  0
  3  2  1  0  0  0  0
  4  6  1  0  0  0  0
  4 13  1  0  0  0  0
  5  8  2  0  0  0  0
  6 17  2  0  0  0  0
  7  5  1  0  0  0  0
  8 26  1  0  0  0  0
  8 15  1  0  0  0  0
 10  1  1  6  0  0  0
 10  5  1  0  0  0  0
 10  3  1  0  0  0  0
 11  9  2  0  0  0  0
 13 11  1  0  0  0  0
 14  1  2  0  0  0  0
 14 16  1  0  0  0  0
 15  2  2  0  0  0  0
 16  4  2  0  0  0  0
 17 12  1  0  0  0  0
 17  9  1  0  0  0  0
 18 25  1  0  0  0  0
 18 23  1  0  0  0  0
 22 29  1  0  0  0  0
 22 20  1  0  0  0  0
 22 19  2  0  0  0  0
 24 22  2  0  0  0  0
 26 25  1  0  0  0  0
 27 21  1  6  0  0  0
 27 23  1  0  0  0  0
 27 20  1  0  0  0  0
 28 29  1  0  0  0  0
 28 26  2  0  0  0  0
 29 18  2  0  0  0  0
 30  1  1  0  0  0  0
 31 36  1  0  0  0  0
 32 33  1  0  0  0  0
 33 35  2  0  0  0  0
 34 35  1  0  0  0  0
 35 30  1  0  0  0  0
 36 32  2  0  0  0  0
 36 34  1  0  0  0  0
M  END
>  <MODEL>
4

>  <REMARK>
 VINA RESULT:      -8.1      3.019      5.221
  Name = 
  3 active torsions:
  status: ('A' for Active; 'I' for Inactive)
    1  A    between atoms: C_1  and  N_30
    2  A    between atoms: C_18  and  C_29
    3  A    between atoms: N_30  and  C_32
                            x       y       z     vdW  Elec       q    Type
                         _______ _______ _______ _____ _____    ______ ____

>  <TORSDO>
F 3

$$$$
=
 OpenBabel11042414463D

 36 41  0  0  1  0  0  0  0  0999 V2000
  188.9280  176.1710  145.8900 C   0  0  0  0  0  0  0  0  0  0  0  0
  189.5160  175.7650  142.3980 C   0  0  0  0  0  3  0  0  0  0  0  0
  188.4990  175.9550  143.4560 C   0  0  0  0  0  0  0  0  0  0  0  0
  186.4220  177.0480  144.2150 C   0  0  0  0  0  0  0  0  0  0  0  0
  189.7030  174.0930  144.7110 C   0  0  0  0  0  0  0  0  0  0  0  0
  185.1670  177.5230  143.8210 C   0  0  0  0  0  3  0  0  0  0  0  0
  189.6910  173.1870  145.7660 O   0  0  0  0  0  1  0  0  0  0  0  0
  190.5850  173.9680  143.6950 C   0  0  0  0  0  0  0  0  0  0  0  0
  185.7990  177.4090  141.5320 N   0  0  0  0  0  0  0  0  0  0  0  0
  188.6950  175.2230  144.7580 C   0  0  0  0  0  0  0  0  0  0  0  0
  187.0130  176.9030  141.8670 C   0  0  0  0  0  3  0  0  0  0  0  0
  183.2960  178.2970  141.9960 Cl  0  0  0  0  0  0  0  0  0  0  0  0
  187.3580  176.6470  143.2090 C   0  0  0  0  0  0  0  0  0  0  0  0
  187.9490  176.9930  146.2540 C   0  0  0  0  0  2  0  0  0  0  0  0
  190.4830  174.8610  142.5220 C   0  0  0  0  0  3  0  0  0  0  0  0
  186.6800  177.1910  145.5280 C   0  0  0  0  0  3  0  0  0  0  0  0
  184.8630  177.6790  142.4730 C   0  0  0  0  0  0  0  0  0  0  0  0
  193.0620  170.8820  143.5530 C   0  0  0  0  0  0  0  0  0  0  0  0
  196.1840  173.0310  143.5800 O   0  0  0  0  0  0  0  0  0  0  0  0
  196.0020  170.3410  143.6240 C   0  0  0  0  0  2  0  0  0  0  0  0
  194.8760  168.9920  145.2660 O   0  0  0  0  0  1  0  0  0  0  0  0
  195.4670  171.9150  144.2860 S   0  0  0  0  0  0  0  0  0  0  0  0
  193.6440  169.5890  143.3650 N   0  0  0  0  0  2  0  0  0  0  0  0
  195.7350  171.9770  145.7630 O   0  0  0  0  0  0  0  0  0  0  0  0
  191.4680  171.2950  143.2500 S   0  0  0  0  0  0  0  0  0  0  0  0
  191.6480  172.9300  143.6700 C   0  0  0  0  0  0  0  0  0  0  0  0
  194.9660  169.2430  143.8950 C   0  0  1  0  0  3  0  0  0  0  0  0
  192.9740  173.1550  144.0520 C   0  0  0  0  0  3  0  0  0  0  0  0
  193.7530  171.9960  143.9740 C   0  0  0  0  0  0  0  0  0  0  0  0
  190.1700  176.1250  146.6180 N   0  0  0  0  0  2  0  0  0  0  0  0
  194.9610  175.5690  146.1380 C   0  0  0  0  0  1  0  0  0  0  0  0
  193.2330  177.0020  144.9380 C   0  0  0  0  0  3  0  0  0  0  0  0
  191.8620  177.1650  145.0710 C   0  0  0  0  0  3  0  0  0  0  0  0
  192.5350  175.6790  146.5750 O   0  0  0  0  0  0  0  0  0  0  0  0
  191.4950  176.3180  146.1030 C   0  0  0  0  0  0  0  0  0  0  0  0
  193.5820  176.0710  145.8960 C   0  0  0  0  0  0  0  0  0  0  0  0
  1 14  1  0  0  0  0
  1 30  1  0  0  0  0
  2 15  2  0  0  0  0
  2  3  1  0  0  0  0
  3 10  1  0  0  0  0
  4 16  2  0  0  0  0
  5 10  1  0  0  0  0
  5  7  1  0  0  0  0
  6  4  1  0  0  0  0
  8  5  2  0  0  0  0
  9 11  2  0  0  0  0
  9 17  1  0  0  0  0
 10  1  2  0  0  0  0
 11 13  1  0  0  0  0
 12 17  1  0  0  0  0
 13  3  2  0  0  0  0
 13  4  1  0  0  0  0
 15  8  1  0  0  0  0
 16 14  1  0  0  0  0
 17  6  2  0  0  0  0
 18 29  2  0  0  0  0
 19 22  2  0  0  0  0
 20 27  1  0  0  0  0
 20 22  1  0  0  0  0
 22 24  2  0  0  0  0
 23 18  1  0  0  0  0
 23 27  1  0  0  0  0
 25 18  1  0  0  0  0
 25 26  1  0  0  0  0
 26  8  1  0  0  0  0
 26 28  2  0  0  0  0
 27 21  1  1  0  0  0
 29 28  1  0  0  0  0
 29 22  1  0  0  0  0
 32 33  1  0  0  0  0
 32 36  2  0  0  0  0
 33 35  2  0  0  0  0
 35 34  1  0  0  0  0
 35 30  1  0  0  0  0
 36 31  1  0  0  0  0
 36 34  1  0  0  0  0
M  END
>  <MODEL>
5

>  <REMARK>
 VINA RESULT:      -8.0      3.066      3.473
  Name = 
  3 active torsions:
  status: ('A' for Active; 'I' for Inactive)
    1  A    between atoms: C_1  and  N_30
    2  A    between atoms: C_18  and  C_29
    3  A    between atoms: N_30  and  C_32
                            x       y       z     vdW  Elec       q    Type
                         _______ _______ _______ _____ _____    ______ ____

>  <TORSDO>
F 3

$$$$
=
 OpenBabel11042414463D

 36 41  0  0  1  0  0  0  0  0999 V2000
  190.1610  174.9680  146.0840 C   0  0  0  0  0  0  0  0  0  0  0  0
  189.6880  177.0530  143.2320 C   0  0  0  0  0  3  0  0  0  0  0  0
  189.0420  176.3880  144.3840 C   0  0  0  0  0  0  0  0  0  0  0  0
  187.4150  176.4830  146.2360 C   0  0  0  0  0  0  0  0  0  0  0  0
  190.3070  174.2950  143.6690 C   0  0  0  0  0  0  0  0  0  0  0  0
  186.1700  176.9720  146.6440 C   0  0  0  0  0  3  0  0  0  0  0  0
  190.4790  172.9220  143.8010 O   0  0  0  0  0  1  0  0  0  0  0  0
  190.8460  174.9670  142.6270 C   0  0  0  0  0  0  0  0  0  0  0  0
  186.1130  178.4750  144.8020 N   0  0  0  0  0  0  0  0  0  0  0  0
  189.5030  174.9990  144.7420 C   0  0  0  0  0  0  0  0  0  0  0  0
  187.3000  177.9990  144.3460 C   0  0  0  0  0  3  0  0  0  0  0  0
  183.9730  178.5730  146.4390 Cl  0  0  0  0  0  0  0  0  0  0  0  0
  187.9730  176.9500  145.0030 C   0  0  0  0  0  0  0  0  0  0  0  0
  189.4340  175.2360  147.1640 C   0  0  0  0  0  2  0  0  0  0  0  0
  190.5310  176.3990  142.4380 C   0  0  0  0  0  3  0  0  0  0  0  0
  188.0470  175.7400  147.1630 C   0  0  0  0  0  3  0  0  0  0  0  0
  185.5210  177.9550  145.9040 C   0  0  0  0  0  0  0  0  0  0  0  0
  193.5450  173.4760  140.1430 C   0  0  0  0  0  0  0  0  0  0  0  0
  191.1070  171.0950  138.4830 O   0  0  0  0  0  0  0  0  0  0  0  0
  193.6950  171.5410  137.8680 C   0  0  0  0  0  2  0  0  0  0  0  0
  194.6920  173.6360  137.2350 O   0  0  0  0  0  1  0  0  0  0  0  0
  192.0780  172.2150  138.2340 S   0  0  0  0  0  0  0  0  0  0  0  0
  194.7630  173.0770  139.5090 N   0  0  0  0  0  2  0  0  0  0  0  0
  191.6000  173.0710  137.0950 O   0  0  0  0  0  0  0  0  0  0  0  0
  193.4170  174.3250  141.5800 S   0  0  0  0  0  0  0  0  0  0  0  0
  191.7200  174.3230  141.6140 C   0  0  0  0  0  0  0  0  0  0  0  0
  194.7990  172.5720  138.1340 C   0  0  1  0  0  3  0  0  0  0  0  0
  191.2470  173.6480  140.4840 C   0  0  0  0  0  3  0  0  0  0  0  0
  192.2850  173.1760  139.6740 C   0  0  0  0  0  0  0  0  0  0  0  0
  191.5410  174.5740  146.1950 N   0  0  0  0  0  2  0  0  0  0  0  0
  195.5790  176.3340  144.1730 C   0  0  0  0  0  1  0  0  0  0  0  0
  194.2850  176.9050  146.2880 C   0  0  0  0  0  3  0  0  0  0  0  0
  193.1300  176.4050  146.8720 C   0  0  0  0  0  3  0  0  0  0  0  0
  193.5120  175.2710  145.0030 O   0  0  0  0  0  0  0  0  0  0  0  0
  192.7050  175.3960  146.0250 C   0  0  0  0  0  0  0  0  0  0  0  0
  194.4620  176.1610  145.1390 C   0  0  0  0  0  0  0  0  0  0  0  0
  1 30  1  0  0  0  0
  1 14  1  0  0  0  0
  2  3  1  0  0  0  0
  3 10  1  0  0  0  0
  3 13  2  0  0  0  0
  4  6  1  0  0  0  0
  4 16  2  0  0  0  0
  5  7  1  0  0  0  0
  5 10  1  0  0  0  0
  8  5  2  0  0  0  0
  9 17  1  0  0  0  0
 10  1  2  0  0  0  0
 11  9  2  0  0  0  0
 11 13  1  0  0  0  0
 13  4  1  0  0  0  0
 15  8  1  0  0  0  0
 15  2  2  0  0  0  0
 16 14  1  0  0  0  0
 17 12  1  0  0  0  0
 17  6  2  0  0  0  0
 18 25  1  0  0  0  0
 20 27  1  0  0  0  0
 20 22  1  0  0  0  0
 22 19  2  0  0  0  0
 22 29  1  0  0  0  0
 23 18  1  0  0  0  0
 24 22  2  0  0  0  0
 25 26  1  0  0  0  0
 26  8  1  0  0  0  0
 27 21  1  6  0  0  0
 27 23  1  0  0  0  0
 28 26  2  0  0  0  0
 29 18  2  0  0  0  0
 29 28  1  0  0  0  0
 31 36  1  0  0  0  0
 32 33  1  0  0  0  0
 34 36  1  0  0  0  0
 34 35  1  0  0  0  0
 35 30  1  0  0  0  0
 35 33  2  0  0  0  0
 36 32  2  0  0  0  0
M  END
>  <MODEL>
6

>  <REMARK>
 VINA RESULT:      -8.0      1.554      2.226
  Name = 
  3 active torsions:
  status: ('A' for Active; 'I' for Inactive)
    1  A    between atoms: C_1  and  N_30
    2  A    between atoms: C_18  and  C_29
    3  A    between atoms: N_30  and  C_32
                            x       y       z     vdW  Elec       q    Type
                         _______ _______ _______ _____ _____    ______ ____

>  <TORSDO>
F 3

$$$$
=
 OpenBabel11042414463D

 36 41  0  0  1  0  0  0  0  0999 V2000
  188.1760  175.6530  142.4090 C   0  0  0  0  0  0  0  0  0  0  0  0
  189.4270  175.0110  145.6840 C   0  0  0  0  0  3  0  0  0  0  0  0
  188.5450  175.8600  144.8540 C   0  0  0  0  0  0  0  0  0  0  0  0
  186.4010  177.0520  144.5890 C   0  0  0  0  0  0  0  0  0  0  0  0
  190.5120  176.0360  143.2450 C   0  0  0  0  0  0  0  0  0  0  0  0
  185.4060  177.7810  145.2490 C   0  0  0  0  0  3  0  0  0  0  0  0
  191.0750  176.6630  142.1390 O   0  0  0  0  0  1  0  0  0  0  0  0
  191.2620  175.2660  144.0650 C   0  0  0  0  0  0  0  0  0  0  0  0
  186.2330  177.0720  147.3630 N   0  0  0  0  0  0  0  0  0  0  0  0
  189.0310  176.2470  143.4810 C   0  0  1  0  0  3  0  0  0  0  0  0
  187.2410  176.3870  146.7660 C   0  0  0  0  0  3  0  0  0  0  0  0
  184.0820  178.6960  147.4490 Cl  0  0  0  0  0  0  0  0  0  0  0  0
  187.4060  176.3910  145.3670 C   0  0  0  0  0  0  0  0  0  0  0  0
  186.9090  176.0460  142.3050 C   0  0  0  0  0  3  0  0  0  0  0  0
  190.6700  174.7270  145.3070 C   0  0  0  0  0  3  0  0  0  0  0  0
  186.1940  176.9030  143.2680 C   0  0  0  0  0  3  0  0  0  0  0  0
  185.3470  177.7970  146.6380 C   0  0  0  0  0  0  0  0  0  0  0  0
  194.9930  174.0300  143.5870 C   0  0  0  0  0  0  0  0  0  0  0  0
  195.9670  176.9420  141.3650 O   0  0  0  0  0  0  0  0  0  0  0  0
  197.5270  174.9460  142.2890 C   0  0  0  0  0  2  0  0  0  0  0  0
  197.9380  174.3760  144.5890 O   0  0  0  0  0  1  0  0  0  0  0  0
  196.3070  176.2090  142.6320 S   0  0  0  0  0  0  0  0  0  0  0  0
  196.1880  173.2460  143.5180 N   0  0  0  0  0  2  0  0  0  0  0  0
  196.8280  177.1700  143.6630 O   0  0  0  0  0  0  0  0  0  0  0  0
  193.4800  173.4770  144.0430 S   0  0  0  0  0  0  0  0  0  0  0  0
  192.6920  174.9620  143.8050 C   0  0  0  0  0  0  0  0  0  0  0  0
  197.5130  173.8540  143.3660 C   0  0  1  0  0  3  0  0  0  0  0  0
  193.6270  175.9030  143.3610 C   0  0  0  0  0  3  0  0  0  0  0  0
  194.9100  175.3610  143.2410 C   0  0  0  0  0  0  0  0  0  0  0  0
  188.7500  174.7340  141.4620 N   0  0  0  0  0  2  0  0  0  0  0  0
  192.0180  171.1600  141.2550 C   0  0  0  0  0  1  0  0  0  0  0  0
  189.8260  171.4610  142.5130 C   0  0  0  0  0  3  0  0  0  0  0  0
  188.8870  172.4800  142.5760 C   0  0  0  0  0  3  0  0  0  0  0  0
  190.5040  173.1080  141.1920 O   0  0  0  0  0  0  0  0  0  0  0  0
  189.3690  173.4680  141.7340 C   0  0  0  0  0  0  0  0  0  0  0  0
  190.7960  171.9140  141.6420 C   0  0  0  0  0  0  0  0  0  0  0  0
  3 13  2  0  0  0  0
  3  2  1  0  0  0  0
  4  6  1  0  0  0  0
  4 13  1  0  0  0  0
  5 10  1  0  0  0  0
  5  8  2  0  0  0  0
  6 17  2  0  0  0  0
  7  5  1  0  0  0  0
  8 15  1  0  0  0  0
 10  1  1  6  0  0  0
 10  3  1  0  0  0  0
 11  9  2  0  0  0  0
 13 11  1  0  0  0  0
 14  1  2  0  0  0  0
 14 16  1  0  0  0  0
 15  2  2  0  0  0  0
 16  4  2  0  0  0  0
 17  9  1  0  0  0  0
 17 12  1  0  0  0  0
 18 25  1  0  0  0  0
 19 22  2  0  0  0  0
 20 22  1  0  0  0  0
 20 27  1  0  0  0  0
 22 29  1  0  0  0  0
 22 24  2  0  0  0  0
 23 18  1  0  0  0  0
 26 25  1  0  0  0  0
 26  8  1  0  0  0  0
 27 23  1  0  0  0  0
 27 21  1  1  0  0  0
 28 26  2  0  0  0  0
 29 28  1  0  0  0  0
 29 18  2  0  0  0  0
 30 35  1  0  0  0  0
 30  1  1  0  0  0  0
 31 36  1  0  0  0  0
 32 33  1  0  0  0  0
 34 36  1  0  0  0  0
 34 35  1  0  0  0  0
 35 33  2  0  0  0  0
 36 32  2  0  0  0  0
M  END
>  <MODEL>
7

>  <REMARK>
 VINA RESULT:      -7.8      2.719      4.206
  Name = 
  3 active torsions:
  status: ('A' for Active; 'I' for Inactive)
    1  A    between atoms: C_1  and  N_30
    2  A    between atoms: C_18  and  C_29
    3  A    between atoms: N_30  and  C_32
                            x       y       z     vdW  Elec       q    Type
                         _______ _______ _______ _____ _____    ______ ____

>  <TORSDO>
F 3

$$$$
=
 OpenBabel11042414463D

 36 41  0  0  1  0  0  0  0  0999 V2000
  190.2320  174.4890  145.2730 C   0  0  0  0  0  0  0  0  0  0  0  0
  188.6670  176.2610  142.6050 C   0  0  0  0  0  3  0  0  0  0  0  0
  188.5470  175.7980  144.0050 C   0  0  0  0  0  0  0  0  0  0  0  0
  187.8630  176.2580  146.3300 C   0  0  0  0  0  0  0  0  0  0  0  0
  189.3180  173.5290  143.1400 C   0  0  0  0  0  0  0  0  0  0  0  0
  186.9250  176.9030  147.1420 C   0  0  0  0  0  3  0  0  0  0  0  0
  189.4820  172.1700  143.3860 O   0  0  0  0  0  1  0  0  0  0  0  0
  189.3870  174.0220  141.8830 C   0  0  0  0  0  0  0  0  0  0  0  0
  186.1460  178.1800  145.2940 N   0  0  0  0  0  0  0  0  0  0  0  0
  189.0680  174.4230  144.3360 C   0  0  0  0  0  0  0  0  0  0  0  0
  187.0100  177.5470  144.4600 C   0  0  0  0  0  3  0  0  0  0  0  0
  184.9050  178.6660  147.6380 Cl  0  0  0  0  0  0  0  0  0  0  0  0
  187.8610  176.5250  144.9230 C   0  0  0  0  0  0  0  0  0  0  0  0
  190.0400  174.9470  146.5060 C   0  0  0  0  0  2  0  0  0  0  0  0
  189.0710  175.4450  141.6370 C   0  0  0  0  0  3  0  0  0  0  0  0
  188.8020  175.5730  147.0070 C   0  0  0  0  0  3  0  0  0  0  0  0
  186.0580  177.8490  146.6040 C   0  0  0  0  0  0  0  0  0  0  0  0
  189.8180  171.7740  138.6520 C   0  0  0  0  0  0  0  0  0  0  0  0
  193.5950  172.0850  138.6010 O   0  0  0  0  0  0  0  0  0  0  0  0
  192.0120  170.6260  136.9770 C   0  0  0  0  0  2  0  0  0  0  0  0
  190.4770  168.8920  137.6250 O   0  0  0  0  0  1  0  0  0  0  0  0
  192.4530  171.1080  138.6420 S   0  0  0  0  0  0  0  0  0  0  0  0
  189.6040  171.0570  137.4330 N   0  0  0  0  0  2  0  0  0  0  0  0
  192.8320  169.9010  139.4520 O   0  0  0  0  0  0  0  0  0  0  0  0
  188.6710  172.6710  139.4790 S   0  0  0  0  0  0  0  0  0  0  0  0
  189.7270  173.1860  140.7040 C   0  0  0  0  0  0  0  0  0  0  0  0
  190.5760  170.0900  136.9150 C   0  0  1  0  0  3  0  0  0  0  0  0
  190.9950  172.6480  140.4620 C   0  0  0  0  0  3  0  0  0  0  0  0
  191.0270  171.8640  139.3050 C   0  0  0  0  0  0  0  0  0  0  0  0
  191.5150  173.9850  144.8570 N   0  0  0  0  0  2  0  0  0  0  0  0
  196.0280  175.5720  144.0840 C   0  0  0  0  0  1  0  0  0  0  0  0
  193.7900  176.0410  142.9680 C   0  0  0  0  0  3  0  0  0  0  0  0
  192.4950  175.5900  143.1850 C   0  0  0  0  0  3  0  0  0  0  0  0
  193.8280  174.6240  144.6730 O   0  0  0  0  0  0  0  0  0  0  0  0
  192.5920  174.7170  144.2550 C   0  0  0  0  0  0  0  0  0  0  0  0
  194.5600  175.4050  143.9210 C   0  0  0  0  0  0  0  0  0  0  0  0
  1 14  1  0  0  0  0
  2  3  1  0  0  0  0
  3 10  1  0  0  0  0
  3 13  2  0  0  0  0
  4 16  2  0  0  0  0
  4  6  1  0  0  0  0
  5  7  1  0  0  0  0
  5 10  1  0  0  0  0
  8  5  2  0  0  0  0
  9 17  1  0  0  0  0
 10  1  2  0  0  0  0
 11 13  1  0  0  0  0
 11  9  2  0  0  0  0
 13  4  1  0  0  0  0
 14 16  1  0  0  0  0
 15  8  1  0  0  0  0
 15  2  2  0  0  0  0
 17  6  2  0  0  0  0
 17 12  1  0  0  0  0
 18 29  2  0  0  0  0
 18 25  1  0  0  0  0
 19 22  2  0  0  0  0
 20 22  1  0  0  0  0
 22 29  1  0  0  0  0
 22 24  2  0  0  0  0
 23 18  1  0  0  0  0
 25 26  1  0  0  0  0
 26  8  1  0  0  0  0
 27 20  1  0  0  0  0
 27 23  1  0  0  0  0
 27 21  1  1  0  0  0
 28 26  2  0  0  0  0
 29 28  1  0  0  0  0
 30  1  1  0  0  0  0
 32 33  1  0  0  0  0
 32 36  2  0  0  0  0
 33 35  2  0  0  0  0
 35 34  1  0  0  0  0
 35 30  1  0  0  0  0
 36 31  1  0  0  0  0
 36 34  1  0  0  0  0
M  END
>  <MODEL>
8

>  <REMARK>
 VINA RESULT:      -7.8      2.598      3.154
  Name = 
  3 active torsions:
  status: ('A' for Active; 'I' for Inactive)
    1  A    between atoms: C_1  and  N_30
    2  A    between atoms: C_18  and  C_29
    3  A    between atoms: N_30  and  C_32
                            x       y       z     vdW  Elec       q    Type
                         _______ _______ _______ _____ _____    ______ ____

>  <TORSDO>
F 3

$$$$
=
 OpenBabel11042414463D

 36 41  0  0  1  0  0  0  0  0999 V2000
  192.3930  176.3270  145.9900 C   0  0  0  0  0  0  0  0  0  0  0  0
  191.1650  173.4510  144.2800 C   0  0  0  0  0  3  0  0  0  0  0  0
  192.3590  174.2510  144.6330 C   0  0  0  0  0  0  0  0  0  0  0  0
  194.7180  174.3180  145.3500 C   0  0  0  0  0  0  0  0  0  0  0  0
  191.0070  176.2810  143.8970 C   0  0  0  0  0  0  0  0  0  0  0  0
  195.9640  173.6880  145.2540 C   0  0  0  0  0  3  0  0  0  0  0  0
  190.9970  177.6330  143.5720 O   0  0  0  0  0  1  0  0  0  0  0  0
  189.9630  175.4820  143.5820 C   0  0  0  0  0  0  0  0  0  0  0  0
  194.9540  171.7450  144.3280 N   0  0  0  0  0  0  0  0  0  0  0  0
  192.2280  175.7520  144.6210 C   0  0  0  0  0  0  0  0  0  0  0  0
  193.7320  172.3330  144.3620 C   0  0  0  0  0  3  0  0  0  0  0  0
  197.6310  171.6240  144.6280 Cl  0  0  0  0  0  0  0  0  0  0  0  0
  193.5660  173.6570  144.8160 C   0  0  0  0  0  0  0  0  0  0  0  0
  193.5720  176.2210  146.5950 C   0  0  0  0  0  2  0  0  0  0  0  0
  190.0600  174.0250  143.8140 C   0  0  0  0  0  3  0  0  0  0  0  0
  194.7170  175.4260  146.1120 C   0  0  0  0  0  3  0  0  0  0  0  0
  196.0680  172.4070  144.7210 C   0  0  0  0  0  0  0  0  0  0  0  0
  186.8090  176.6750  141.5070 C   0  0  0  0  0  0  0  0  0  0  0  0
  184.7930  177.6030  144.5790 O   0  0  0  0  0  0  0  0  0  0  0  0
  184.1310  177.9160  141.9830 C   0  0  0  0  0  2  0  0  0  0  0  0
  185.3360  179.1700  140.3230 O   0  0  0  0  0  1  0  0  0  0  0  0
  185.3450  178.1230  143.2810 S   0  0  0  0  0  0  0  0  0  0  0  0
  185.8300  176.8870  140.4860 N   0  0  0  0  0  2  0  0  0  0  0  0
  185.7200  179.5710  143.4190 O   0  0  0  0  0  0  0  0  0  0  0  0
  188.1940  175.7450  141.3640 S   0  0  0  0  0  0  0  0  0  0  0  0
  188.7140  175.9900  142.9610 C   0  0  0  0  0  0  0  0  0  0  0  0
  184.7920  177.9140  140.6000 C   0  0  1  0  0  3  0  0  0  0  0  0
  187.7900  176.8120  143.6150 C   0  0  0  0  0  3  0  0  0  0  0  0
  186.7270  177.1810  142.7860 C   0  0  0  0  0  0  0  0  0  0  0  0
  191.3070  177.0520  146.5980 N   0  0  0  0  0  2  0  0  0  0  0  0
  186.5140  177.1130  147.3080 C   0  0  0  0  0  1  0  0  0  0  0  0
  188.2840  175.2910  147.4510 C   0  0  0  0  0  3  0  0  0  0  0  0
  189.6560  175.2670  147.2490 C   0  0  0  0  0  3  0  0  0  0  0  0
  188.9360  177.3360  146.8950 O   0  0  0  0  0  0  0  0  0  0  0  0
  189.9940  176.5660  146.9080 C   0  0  0  0  0  0  0  0  0  0  0  0
  187.9050  176.5970  147.2150 C   0  0  0  0  0  0  0  0  0  0  0  0
  1 14  1  0  0  0  0
  1 30  1  0  0  0  0
  2  3  1  0  0  0  0
  3 13  2  0  0  0  0
  4 16  2  0  0  0  0
  5 10  1  0  0  0  0
  6  4  1  0  0  0  0
  7  5  1  0  0  0  0
  8 15  1  0  0  0  0
  8  5  2  0  0  0  0
  9 11  2  0  0  0  0
  9 17  1  0  0  0  0
 10  3  1  0  0  0  0
 10  1  2  0  0  0  0
 11 13  1  0  0  0  0
 12 17  1  0  0  0  0
 13  4  1  0  0  0  0
 15  2  2  0  0  0  0
 16 14  1  0  0  0  0
 17  6  2  0  0  0  0
 18 29  2  0  0  0  0
 20 22  1  0  0  0  0
 22 24  2  0  0  0  0
 22 19  2  0  0  0  0
 23 27  1  0  0  0  0
 23 18  1  0  0  0  0
 25 18  1  0  0  0  0
 25 26  1  0  0  0  0
 26  8  1  0  0  0  0
 26 28  2  0  0  0  0
 27 21  1  1  0  0  0
 27 20  1  0  0  0  0
 29 22  1  0  0  0  0
 29 28  1  0  0  0  0
 30 35  1  0  0  0  0
 33 32  1  0  0  0  0
 34 35  1  0  0  0  0
 34 36  1  0  0  0  0
 35 33  2  0  0  0  0
 36 31  1  0  0  0  0
 36 32  2  0  0  0  0
M  END
>  <MODEL>
9

>  <REMARK>
 VINA RESULT:      -7.7      4.570      8.130
  Name = 
  3 active torsions:
  status: ('A' for Active; 'I' for Inactive)
    1  A    between atoms: C_1  and  N_30
    2  A    between atoms: C_18  and  C_29
    3  A    between atoms: N_30  and  C_32
                            x       y       z     vdW  Elec       q    Type
                         _______ _______ _______ _____ _____    ______ ____

>  <TORSDO>
F 3

$$$$
