=
 OpenBabel11042418333D

 37 41  0  0  1  0  0  0  0  0999 V2000
  195.7490  170.4920  146.1410 C   0  0  0  0  0  0  0  0  0  0  0  0
  195.9360  169.1090  146.6480 C   0  0  0  0  0  1  0  0  0  0  0  0
  196.6950  172.6460  145.5910 N   0  0  0  0  0  0  0  0  0  0  0  0
  194.3620  172.2370  145.2870 C   0  0  0  0  0  0  0  0  0  0  0  0
  195.1250  174.2820  144.7630 N   0  0  0  0  0  0  0  0  0  0  0  0
  194.4730  170.9310  145.7490 C   0  0  0  0  0  3  0  0  0  0  0  0
  196.8540  171.3670  146.0500 C   0  0  0  0  0  3  0  0  0  0  0  0
  195.4550  173.0630  145.2260 C   0  0  0  0  0  0  0  0  0  0  0  0
  193.2860  172.9750  144.8300 C   0  0  0  0  0  0  0  0  0  0  0  0
  196.0510  175.3780  144.5060 C   0  0  0  0  0  1  0  0  0  0  0  0
  193.7880  174.2290  144.5140 C   0  0  0  0  0  0  0  0  0  0  0  0
  193.0060  175.2640  143.9930 O   0  0  0  0  0  0  0  0  0  0  0  0
  192.7790  176.4860  144.6800 C   0  0  0  0  0  2  0  0  0  0  0  0
  192.1770  176.1890  146.0400 C   0  0  0  0  0  2  0  0  0  0  0  0
  190.6920  176.1540  145.9510 C   0  0  0  0  0  0  0  0  0  0  0  0
  188.2950  176.5910  145.8690 C   0  0  0  0  0  0  0  0  0  0  0  0
  189.9780  175.0120  145.8210 N   0  0  0  0  0  0  0  0  0  0  0  0
  189.7030  177.5140  145.9910 S   0  0  0  0  0  0  0  0  0  0  0  0
  188.6390  175.2470  145.7730 C   0  0  0  0  0  3  0  0  0  0  0  0
  185.5660  179.2370  145.1010 C   0  0  0  0  0  2  0  0  0  0  0  0
  186.8940  177.1170  145.8120 C   0  0  1  0  0  3  0  0  0  0  0  0
  184.5570  178.6490  146.0920 C   0  0  0  0  0  2  0  0  0  0  0  0
  186.3870  177.4520  147.1900 C   0  0  0  0  0  3  0  0  0  0  0  0
  185.2700  178.1760  147.3240 C   0  0  0  0  0  3  0  0  0  0  0  0
  186.7800  178.3160  144.8450 C   0  0  1  0  0  3  0  0  0  0  0  0
  186.8180  177.8700  143.4150 C   0  0  0  0  0  0  0  0  0  0  0  0
  185.6820  177.0850  142.8600 C   0  0  0  0  0  1  0  0  0  0  0  0
  187.7720  178.1390  142.7050 O   0  0  0  0  0  0  0  0  0  0  0  0
  191.9450  172.5940  144.7210 O   0  0  0  0  0  0  0  0  0  0  0  0
  191.5040  171.5530  143.8630 C   0  0  0  0  0  2  0  0  0  0  0  0
  191.4010  172.0600  142.4280 C   0  0  0  0  0  2  0  0  0  0  0  0
  190.2300  172.9040  142.2500 N   0  0  0  0  0  0  0  0  0  0  0  0
  188.9050  172.3030  142.4300 C   0  0  0  0  0  2  0  0  0  0  0  0
  187.7980  173.2320  142.0050 C   0  0  0  0  0  3  0  0  0  0  0  0
  188.0020  174.5420  141.8500 C   0  0  0  0  0  3  0  0  0  0  0  0
  189.3410  175.1220  142.0230 C   0  0  0  0  0  3  0  0  0  0  0  0
  190.3950  174.3290  142.2100 C   0  0  0  0  0  3  0  0  0  0  0  0
  1  2  1  0  0  0  0
  3  7  2  0  0  0  0
  4  6  1  0  0  0  0
  5  8  1  0  0  0  0
  6  1  2  0  0  0  0
  7  1  1  0  0  0  0
  8  4  2  0  0  0  0
  8  3  1  0  0  0  0
  9  4  1  0  0  0  0
 10  5  1  0  0  0  0
 11  5  1  0  0  0  0
 11  9  2  0  0  0  0
 12 11  1  0  0  0  0
 12 13  1  0  0  0  0
 13 14  1  0  0  0  0
 15 18  1  0  0  0  0
 15 14  1  0  0  0  0
 16 18  1  0  0  0  0
 17 15  2  0  0  0  0
 19 17  1  0  0  0  0
 19 16  2  0  0  0  0
 20 22  1  0  0  0  0
 21 16  1  1  0  0  0
 21 23  1  0  0  0  0
 22 24  1  0  0  0  0
 23 24  2  0  0  0  0
 25 26  1  6  0  0  0
 25 20  1  0  0  0  0
 25 21  1  0  0  0  0
 27 26  1  0  0  0  0
 28 26  2  0  0  0  0
 29  9  1  0  0  0  0
 30 29  1  0  0  0  0
 31 30  1  0  0  0  0
 32 31  1  0  0  0  0
 32 33  1  0  0  0  0
 34 33  1  0  0  0  0
 35 34  2  0  0  0  0
 35 36  1  0  0  0  0
 36 37  2  0  0  0  0
 37 32  1  0  0  0  0
M  END
>  <MODEL>
1

>  <REMARK>
 VINA RESULT:      -7.3      0.000      0.000
  Name = 
  10 active torsions:
  status: ('A' for Active; 'I' for Inactive)
    1  A    between atoms: C_3  and  C_26
    2  A    between atoms: O_4  and  C_18
    3  A    between atoms: O_4  and  C_37
    4  A    between atoms: C_5  and  C_13
    5  A    between atoms: N_8  and  C_23
    6  A    between atoms: C_9  and  C_34
    7  A    between atoms: C_18  and  C_26
    8  A    between atoms: C_19  and  C_23
    9  A    between atoms: C_19  and  O_36
   10  A    between atoms: C_32  and  O_36
                            x       y       z     vdW  Elec       q    Type
                         _______ _______ _______ _____ _____    ______ ____

>  <TORSDO>
F 10

$$$$
=
 OpenBabel11042418333D

 37 41  0  0  1  0  0  0  0  0999 V2000
  189.3450  173.5780  140.0470 C   0  0  0  0  0  0  0  0  0  0  0  0
  189.0000  173.7580  138.6140 C   0  0  0  0  0  1  0  0  0  0  0  0
  188.7970  172.6580  142.2130 N   0  0  0  0  0  0  0  0  0  0  0  0
  190.7810  173.9540  141.9160 C   0  0  0  0  0  0  0  0  0  0  0  0
  190.3640  173.1680  143.9770 N   0  0  0  0  0  0  0  0  0  0  0  0
  190.5160  174.1550  140.5660 C   0  0  0  0  0  3  0  0  0  0  0  0
  188.4960  172.8250  140.8890 C   0  0  0  0  0  3  0  0  0  0  0  0
  189.9260  173.2290  142.7060 C   0  0  0  0  0  0  0  0  0  0  0  0
  191.8180  174.3660  142.7330 C   0  0  0  0  0  0  0  0  0  0  0  0
  189.7380  172.4220  145.0620 C   0  0  0  0  0  1  0  0  0  0  0  0
  191.5340  173.8650  143.9950 C   0  0  0  0  0  0  0  0  0  0  0  0
  192.3640  174.0500  145.1040 O   0  0  0  0  0  0  0  0  0  0  0  0
  192.6390  175.3260  145.6620 C   0  0  0  0  0  2  0  0  0  0  0  0
  192.0300  175.4060  147.0480 C   0  0  0  0  0  2  0  0  0  0  0  0
  190.5640  175.6460  146.9560 C   0  0  0  0  0  0  0  0  0  0  0  0
  188.2990  176.4650  146.5820 C   0  0  0  0  0  0  0  0  0  0  0  0
  189.6360  174.8050  147.4670 N   0  0  0  0  0  0  0  0  0  0  0  0
  189.8620  176.9770  146.2040 S   0  0  0  0  0  0  0  0  0  0  0  0
  188.3690  175.2540  147.2620 C   0  0  0  0  0  3  0  0  0  0  0  0
  186.1230  178.9590  144.5620 C   0  0  0  0  0  2  0  0  0  0  0  0
  187.0260  177.1570  146.2050 C   0  0  1  0  0  3  0  0  0  0  0  0
  185.0330  179.0530  145.6340 C   0  0  0  0  0  2  0  0  0  0  0  0
  186.6120  178.1420  147.2670 C   0  0  0  0  0  3  0  0  0  0  0  0
  185.6590  179.0410  146.9980 C   0  0  0  0  0  3  0  0  0  0  0  0
  187.1320  177.8170  144.8130 C   0  0  1  0  0  3  0  0  0  0  0  0
  187.0620  176.7950  143.7180 C   0  0  0  0  0  0  0  0  0  0  0  0
  188.2490  176.5670  142.8490 C   0  0  0  0  0  1  0  0  0  0  0  0
  186.0420  176.1540  143.5300 O   0  0  0  0  0  0  0  0  0  0  0  0
  192.9280  175.1520  142.4110 O   0  0  0  0  0  0  0  0  0  0  0  0
  194.1960  174.6030  142.0860 C   0  0  0  0  0  2  0  0  0  0  0  0
  195.2680  175.1650  143.0150 C   0  0  0  0  0  2  0  0  0  0  0  0
  195.6980  174.1720  143.9870 N   0  0  0  0  0  0  0  0  0  0  0  0
  195.3710  172.7650  143.7350 C   0  0  0  0  0  2  0  0  0  0  0  0
  195.6860  171.8890  144.9200 C   0  0  0  0  0  3  0  0  0  0  0  0
  196.4950  172.2970  145.8990 C   0  0  0  0  0  3  0  0  0  0  0  0
  197.0610  173.6540  145.8940 C   0  0  0  0  0  3  0  0  0  0  0  0
  196.6690  174.5380  144.9780 C   0  0  0  0  0  3  0  0  0  0  0  0
  1  6  2  0  0  0  0
  1  7  1  0  0  0  0
  2  1  1  0  0  0  0
  3  8  1  0  0  0  0
  4  8  2  0  0  0  0
  4  9  1  0  0  0  0
  5 11  1  0  0  0  0
  5 10  1  0  0  0  0
  6  4  1  0  0  0  0
  7  3  2  0  0  0  0
  8  5  1  0  0  0  0
  9 11  2  0  0  0  0
 11 12  1  0  0  0  0
 12 13  1  0  0  0  0
 13 14  1  0  0  0  0
 15 14  1  0  0  0  0
 15 17  2  0  0  0  0
 16 19  2  0  0  0  0
 18 16  1  0  0  0  0
 18 15  1  0  0  0  0
 19 17  1  0  0  0  0
 20 25  1  0  0  0  0
 20 22  1  0  0  0  0
 21 16  1  1  0  0  0
 21 23  1  0  0  0  0
 22 24  1  0  0  0  0
 24 23  2  0  0  0  0
 25 26  1  6  0  0  0
 25 21  1  0  0  0  0
 27 26  1  0  0  0  0
 28 26  2  0  0  0  0
 29  9  1  0  0  0  0
 30 29  1  0  0  0  0
 30 31  1  0  0  0  0
 31 32  1  0  0  0  0
 32 37  1  0  0  0  0
 33 32  1  0  0  0  0
 33 34  1  0  0  0  0
 34 35  2  0  0  0  0
 36 35  1  0  0  0  0
 37 36  2  0  0  0  0
M  END
>  <MODEL>
2

>  <REMARK>
 VINA RESULT:      -7.1      1.585      5.347
  Name = 
  10 active torsions:
  status: ('A' for Active; 'I' for Inactive)
    1  A    between atoms: C_3  and  C_26
    2  A    between atoms: O_4  and  C_18
    3  A    between atoms: O_4  and  C_37
    4  A    between atoms: C_5  and  C_13
    5  A    between atoms: N_8  and  C_23
    6  A    between atoms: C_9  and  C_34
    7  A    between atoms: C_18  and  C_26
    8  A    between atoms: C_19  and  C_23
    9  A    between atoms: C_19  and  O_36
   10  A    between atoms: C_32  and  O_36
                            x       y       z     vdW  Elec       q    Type
                         _______ _______ _______ _____ _____    ______ ____

>  <TORSDO>
F 10

$$$$
=
 OpenBabel11042418333D

 37 41  0  0  1  0  0  0  0  0999 V2000
  188.8430  173.5180  141.5690 C   0  0  0  0  0  0  0  0  0  0  0  0
  187.9750  172.5200  140.8950 C   0  0  0  0  0  1  0  0  0  0  0  0
  189.5700  175.8100  141.8070 N   0  0  0  0  0  0  0  0  0  0  0  0
  190.5240  174.0920  143.1650 C   0  0  0  0  0  0  0  0  0  0  0  0
  191.2920  176.1810  143.4590 N   0  0  0  0  0  0  0  0  0  0  0  0
  189.7350  173.1100  142.5750 C   0  0  0  0  0  3  0  0  0  0  0  0
  188.7710  174.8810  141.2000 C   0  0  0  0  0  3  0  0  0  0  0  0
  190.4370  175.4030  142.7700 C   0  0  0  0  0  0  0  0  0  0  0  0
  191.4810  174.0440  144.1610 C   0  0  0  0  0  0  0  0  0  0  0  0
  191.4110  177.6290  143.3430 C   0  0  0  0  0  1  0  0  0  0  0  0
  191.9340  175.3450  144.3200 C   0  0  0  0  0  0  0  0  0  0  0  0
  192.9010  175.7150  145.2590 O   0  0  0  0  0  0  0  0  0  0  0  0
  192.6870  176.7210  146.2380 C   0  0  0  0  0  2  0  0  0  0  0  0
  191.9630  176.1150  147.4250 C   0  0  0  0  0  2  0  0  0  0  0  0
  190.4950  176.1020  147.1840 C   0  0  0  0  0  0  0  0  0  0  0  0
  188.1450  176.5740  146.7390 C   0  0  0  0  0  0  0  0  0  0  0  0
  189.7380  174.9820  147.2480 N   0  0  0  0  0  0  0  0  0  0  0  0
  189.5810  177.4590  146.7940 S   0  0  0  0  0  0  0  0  0  0  0  0
  188.4250  175.2370  146.9990 C   0  0  0  0  0  3  0  0  0  0  0  0
  185.6530  179.1510  145.2610 C   0  0  0  0  0  2  0  0  0  0  0  0
  186.7880  177.1100  146.4060 C   0  0  1  0  0  3  0  0  0  0  0  0
  184.4850  178.6990  146.1440 C   0  0  0  0  0  2  0  0  0  0  0  0
  186.0870  177.6110  147.6420 C   0  0  0  0  0  3  0  0  0  0  0  0
  184.9870  178.3620  147.5180 C   0  0  0  0  0  3  0  0  0  0  0  0
  186.8610  178.1890  145.3030 C   0  0  1  0  0  3  0  0  0  0  0  0
  187.1010  177.5780  143.9560 C   0  0  0  0  0  0  0  0  0  0  0  0
  186.3210  176.3800  143.5420 C   0  0  0  0  0  1  0  0  0  0  0  0
  187.9340  178.0490  143.1990 O   0  0  0  0  0  0  0  0  0  0  0  0
  191.9540  172.9350  144.8690 O   0  0  0  0  0  0  0  0  0  0  0  0
  192.7150  171.9000  144.2650 C   0  0  0  0  0  2  0  0  0  0  0  0
  193.8770  172.4920  143.4750 C   0  0  0  0  0  2  0  0  0  0  0  0
  194.9970  172.8140  144.3460 N   0  0  0  0  0  0  0  0  0  0  0  0
  195.6720  171.7180  145.0460 C   0  0  0  0  0  2  0  0  0  0  0  0
  196.6590  172.2200  146.0680 C   0  0  0  0  0  3  0  0  0  0  0  0
  197.1100  173.4760  146.0490 C   0  0  0  0  0  3  0  0  0  0  0  0
  196.6050  174.4440  145.0660 C   0  0  0  0  0  3  0  0  0  0  0  0
  195.5960  174.1160  144.2620 C   0  0  0  0  0  3  0  0  0  0  0  0
  1  6  1  0  0  0  0
  2  1  1  0  0  0  0
  3  8  2  0  0  0  0
  4  9  1  0  0  0  0
  5 11  1  0  0  0  0
  6  4  2  0  0  0  0
  7  1  2  0  0  0  0
  7  3  1  0  0  0  0
  8  4  1  0  0  0  0
  8  5  1  0  0  0  0
  9 11  2  0  0  0  0
  9 29  1  0  0  0  0
 10  5  1  0  0  0  0
 11 12  1  0  0  0  0
 12 13  1  0  0  0  0
 13 14  1  0  0  0  0
 15 17  2  0  0  0  0
 15 14  1  0  0  0  0
 16 18  1  0  0  0  0
 16 19  2  0  0  0  0
 18 15  1  0  0  0  0
 19 17  1  0  0  0  0
 20 25  1  0  0  0  0
 20 22  1  0  0  0  0
 21 16  1  1  0  0  0
 21 23  1  0  0  0  0
 22 24  1  0  0  0  0
 24 23  2  0  0  0  0
 25 26  1  6  0  0  0
 25 21  1  0  0  0  0
 27 26  1  0  0  0  0
 28 26  2  0  0  0  0
 30 29  1  0  0  0  0
 31 30  1  0  0  0  0
 31 32  1  0  0  0  0
 32 33  1  0  0  0  0
 33 34  1  0  0  0  0
 35 34  2  0  0  0  0
 36 35  1  0  0  0  0
 37 32  1  0  0  0  0
 37 36  2  0  0  0  0
M  END
>  <MODEL>
3

>  <REMARK>
 VINA RESULT:      -7.1      1.358      4.969
  Name = 
  10 active torsions:
  status: ('A' for Active; 'I' for Inactive)
    1  A    between atoms: C_3  and  C_26
    2  A    between atoms: O_4  and  C_18
    3  A    between atoms: O_4  and  C_37
    4  A    between atoms: C_5  and  C_13
    5  A    between atoms: N_8  and  C_23
    6  A    between atoms: C_9  and  C_34
    7  A    between atoms: C_18  and  C_26
    8  A    between atoms: C_19  and  C_23
    9  A    between atoms: C_19  and  O_36
   10  A    between atoms: C_32  and  O_36
                            x       y       z     vdW  Elec       q    Type
                         _______ _______ _______ _____ _____    ______ ____

>  <TORSDO>
F 10

$$$$
=
 OpenBabel11042418333D

 37 41  0  0  1  0  0  0  0  0999 V2000
  185.2250  177.6790  145.4450 C   0  0  0  0  0  0  0  0  0  0  0  0
  184.7740  177.8760  146.8460 C   0  0  0  0  0  1  0  0  0  0  0  0
  184.9790  178.1900  143.0960 N   0  0  0  0  0  0  0  0  0  0  0  0
  186.6640  176.6660  143.8320 C   0  0  0  0  0  0  0  0  0  0  0  0
  186.5160  177.0490  141.6250 N   0  0  0  0  0  0  0  0  0  0  0  0
  186.2930  176.8110  145.1650 C   0  0  0  0  0  3  0  0  0  0  0  0
  184.5800  178.3670  144.3930 C   0  0  0  0  0  3  0  0  0  0  0  0
  186.0050  177.3400  142.8360 C   0  0  0  0  0  0  0  0  0  0  0  0
  187.6480  175.9160  143.2160 C   0  0  0  0  0  0  0  0  0  0  0  0
  186.1010  177.6390  140.3590 C   0  0  0  0  0  1  0  0  0  0  0  0
  187.5320  176.1730  141.8580 C   0  0  0  0  0  0  0  0  0  0  0  0
  188.3730  175.6120  140.8920 O   0  0  0  0  0  0  0  0  0  0  0  0
  188.1930  174.3030  140.3750 C   0  0  0  0  0  2  0  0  0  0  0  0
  189.5180  173.7900  139.8440 C   0  0  0  0  0  2  0  0  0  0  0  0
  190.4440  173.4870  140.9680 C   0  0  0  0  0  0  0  0  0  0  0  0
  192.2260  173.3740  142.6280 C   0  0  0  0  0  0  0  0  0  0  0  0
  190.2640  172.4580  141.8280 N   0  0  0  0  0  0  0  0  0  0  0  0
  191.8250  174.3770  141.3310 S   0  0  0  0  0  0  0  0  0  0  0  0
  191.2540  172.3890  142.7580 C   0  0  0  0  0  3  0  0  0  0  0  0
  195.7880  172.5860  143.9400 C   0  0  0  0  0  2  0  0  0  0  0  0
  193.4010  173.5370  143.5410 C   0  0  1  0  0  3  0  0  0  0  0  0
  195.5120  173.1240  145.3480 C   0  0  0  0  0  2  0  0  0  0  0  0
  193.1110  172.9570  144.9010 C   0  0  0  0  0  3  0  0  0  0  0  0
  194.1160  172.7660  145.7640 C   0  0  0  0  0  3  0  0  0  0  0  0
  194.6850  172.9450  142.9200 C   0  0  1  0  0  3  0  0  0  0  0  0
  195.2270  173.8300  141.8400 C   0  0  0  0  0  0  0  0  0  0  0  0
  195.6260  175.2270  142.1650 C   0  0  0  0  0  1  0  0  0  0  0  0
  195.3400  173.4190  140.6970 O   0  0  0  0  0  0  0  0  0  0  0  0
  188.5720  175.0380  143.7930 O   0  0  0  0  0  0  0  0  0  0  0  0
  189.5030  175.4400  144.7860 C   0  0  0  0  0  2  0  0  0  0  0  0
  190.5330  176.3930  144.1880 C   0  0  0  0  0  2  0  0  0  0  0  0
  191.7530  176.4150  144.9810 N   0  0  0  0  0  0  0  0  0  0  0  0
  192.9410  177.0580  144.4120 C   0  0  0  0  0  2  0  0  0  0  0  0
  194.1720  176.8150  145.2460 C   0  0  0  0  0  3  0  0  0  0  0  0
  194.0910  176.3950  146.5100 C   0  0  0  0  0  3  0  0  0  0  0  0
  192.7900  176.0850  147.1200 C   0  0  0  0  0  3  0  0  0  0  0  0
  191.6840  176.0960  146.3780 C   0  0  0  0  0  3  0  0  0  0  0  0
  1  2  1  0  0  0  0
  3  7  1  0  0  0  0
  4  6  2  0  0  0  0
  5 11  1  0  0  0  0
  5  8  1  0  0  0  0
  6  1  1  0  0  0  0
  7  1  2  0  0  0  0
  8  3  2  0  0  0  0
  8  4  1  0  0  0  0
  9 29  1  0  0  0  0
  9  4  1  0  0  0  0
 10  5  1  0  0  0  0
 11  9  2  0  0  0  0
 12 11  1  0  0  0  0
 13 12  1  0  0  0  0
 14 13  1  0  0  0  0
 14 15  1  0  0  0  0
 15 18  1  0  0  0  0
 15 17  2  0  0  0  0
 16 19  2  0  0  0  0
 17 19  1  0  0  0  0
 18 16  1  0  0  0  0
 20 22  1  0  0  0  0
 21 16  1  6  0  0  0
 21 23  1  0  0  0  0
 22 24  1  0  0  0  0
 23 24  2  0  0  0  0
 25 26  1  6  0  0  0
 25 21  1  0  0  0  0
 25 20  1  0  0  0  0
 26 27  1  0  0  0  0
 28 26  2  0  0  0  0
 29 30  1  0  0  0  0
 31 30  1  0  0  0  0
 31 32  1  0  0  0  0
 32 37  1  0  0  0  0
 33 32  1  0  0  0  0
 33 34  1  0  0  0  0
 34 35  2  0  0  0  0
 35 36  1  0  0  0  0
 37 36  2  0  0  0  0
M  END
>  <MODEL>
4

>  <REMARK>
 VINA RESULT:      -7.0      2.492      8.772
  Name = 
  10 active torsions:
  status: ('A' for Active; 'I' for Inactive)
    1  A    between atoms: C_3  and  C_26
    2  A    between atoms: O_4  and  C_18
    3  A    between atoms: O_4  and  C_37
    4  A    between atoms: C_5  and  C_13
    5  A    between atoms: N_8  and  C_23
    6  A    between atoms: C_9  and  C_34
    7  A    between atoms: C_18  and  C_26
    8  A    between atoms: C_19  and  C_23
    9  A    between atoms: C_19  and  O_36
   10  A    between atoms: C_32  and  O_36
                            x       y       z     vdW  Elec       q    Type
                         _______ _______ _______ _____ _____    ______ ____

>  <TORSDO>
F 10

$$$$
=
 OpenBabel11042418333D

 37 41  0  0  1  0  0  0  0  0999 V2000
  185.2310  178.1120  141.9890 C   0  0  0  0  0  0  0  0  0  0  0  0
  184.5390  178.2960  140.6880 C   0  0  0  0  0  1  0  0  0  0  0  0
  185.1070  177.8980  144.3920 N   0  0  0  0  0  0  0  0  0  0  0  0
  187.2190  177.8240  143.2790 C   0  0  0  0  0  0  0  0  0  0  0  0
  187.2280  177.6360  145.5160 N   0  0  0  0  0  0  0  0  0  0  0  0
  186.6300  177.9900  142.0300 C   0  0  0  0  0  3  0  0  0  0  0  0
  184.4820  178.0590  143.1860 C   0  0  0  0  0  3  0  0  0  0  0  0
  186.4610  177.7920  144.4210 C   0  0  0  0  0  0  0  0  0  0  0  0
  188.5350  177.6740  143.6750 C   0  0  0  0  0  0  0  0  0  0  0  0
  186.7450  177.4910  146.8840 C   0  0  0  0  0  1  0  0  0  0  0  0
  188.5070  177.5590  145.0570 C   0  0  0  0  0  0  0  0  0  0  0  0
  189.6510  177.3690  145.8380 O   0  0  0  0  0  0  0  0  0  0  0  0
  190.0550  176.0990  146.3270 C   0  0  0  0  0  2  0  0  0  0  0  0
  191.0480  176.2910  147.4560 C   0  0  0  0  0  2  0  0  0  0  0  0
  192.4410  176.1750  146.9460 C   0  0  0  0  0  0  0  0  0  0  0  0
  194.5850  175.5210  145.9880 C   0  0  0  0  0  0  0  0  0  0  0  0
  193.3600  177.1630  147.0520 N   0  0  0  0  0  0  0  0  0  0  0  0
  193.0610  174.8200  146.1660 S   0  0  0  0  0  0  0  0  0  0  0  0
  194.5590  176.8060  146.5180 C   0  0  0  0  0  3  0  0  0  0  0  0
  196.3880  173.4630  143.2400 C   0  0  0  0  0  2  0  0  0  0  0  0
  195.7710  174.9010  145.3180 C   0  0  1  0  0  3  0  0  0  0  0  0
  197.5960  173.1310  144.1210 C   0  0  0  0  0  2  0  0  0  0  0  0
  196.2700  173.7110  146.0950 C   0  0  0  0  0  3  0  0  0  0  0  0
  197.1440  172.8710  145.5280 C   0  0  0  0  0  3  0  0  0  0  0  0
  195.4670  174.5460  143.8460 C   0  0  1  0  0  3  0  0  0  0  0  0
  195.4450  175.7700  142.9820 C   0  0  0  0  0  0  0  0  0  0  0  0
  196.5170  176.7920  143.1270 C   0  0  0  0  0  1  0  0  0  0  0  0
  194.5550  175.9390  142.1650 O   0  0  0  0  0  0  0  0  0  0  0  0
  189.6910  177.6660  142.8900 O   0  0  0  0  0  0  0  0  0  0  0  0
  190.5780  176.5580  142.8310 C   0  0  0  0  0  2  0  0  0  0  0  0
  189.8280  175.3060  142.3880 C   0  0  0  0  0  2  0  0  0  0  0  0
  190.4010  174.1090  142.9850 N   0  0  0  0  0  0  0  0  0  0  0  0
  191.8090  173.8040  142.7160 C   0  0  0  0  0  2  0  0  0  0  0  0
  192.1980  172.4370  143.2170 C   0  0  0  0  0  3  0  0  0  0  0  0
  191.4540  171.7770  144.1060 C   0  0  0  0  0  3  0  0  0  0  0  0
  190.1800  172.3340  144.5850 C   0  0  0  0  0  3  0  0  0  0  0  0
  189.6890  173.4450  144.0390 C   0  0  0  0  0  3  0  0  0  0  0  0
  1  6  2  0  0  0  0
  1  7  1  0  0  0  0
  2  1  1  0  0  0  0
  3  8  1  0  0  0  0
  4  9  1  0  0  0  0
  4  8  2  0  0  0  0
  5 10  1  0  0  0  0
  6  4  1  0  0  0  0
  7  3  2  0  0  0  0
  8  5  1  0  0  0  0
  9 11  2  0  0  0  0
 11  5  1  0  0  0  0
 11 12  1  0  0  0  0
 12 13  1  0  0  0  0
 13 14  1  0  0  0  0
 15 17  2  0  0  0  0
 15 14  1  0  0  0  0
 16 18  1  0  0  0  0
 16 19  2  0  0  0  0
 18 15  1  0  0  0  0
 19 17  1  0  0  0  0
 20 25  1  0  0  0  0
 20 22  1  0  0  0  0
 21 16  1  1  0  0  0
 21 23  1  0  0  0  0
 22 24  1  0  0  0  0
 24 23  2  0  0  0  0
 25 26  1  6  0  0  0
 25 21  1  0  0  0  0
 26 27  1  0  0  0  0
 28 26  2  0  0  0  0
 29  9  1  0  0  0  0
 30 29  1  0  0  0  0
 31 30  1  0  0  0  0
 31 32  1  0  0  0  0
 32 37  1  0  0  0  0
 33 32  1  0  0  0  0
 33 34  1  0  0  0  0
 34 35  2  0  0  0  0
 35 36  1  0  0  0  0
 37 36  2  0  0  0  0
M  END
>  <MODEL>
5

>  <REMARK>
 VINA RESULT:      -7.0      2.428      8.616
  Name = 
  10 active torsions:
  status: ('A' for Active; 'I' for Inactive)
    1  A    between atoms: C_3  and  C_26
    2  A    between atoms: O_4  and  C_18
    3  A    between atoms: O_4  and  C_37
    4  A    between atoms: C_5  and  C_13
    5  A    between atoms: N_8  and  C_23
    6  A    between atoms: C_9  and  C_34
    7  A    between atoms: C_18  and  C_26
    8  A    between atoms: C_19  and  C_23
    9  A    between atoms: C_19  and  O_36
   10  A    between atoms: C_32  and  O_36
                            x       y       z     vdW  Elec       q    Type
                         _______ _______ _______ _____ _____    ______ ____

>  <TORSDO>
F 10

$$$$
=
 OpenBabel11042418333D

 37 41  0  0  1  0  0  0  0  0999 V2000
  193.5310  174.4400  140.2790 C   0  0  0  0  0  0  0  0  0  0  0  0
  193.1510  174.0050  138.9110 C   0  0  0  0  0  1  0  0  0  0  0  0
  194.8220  175.8980  141.7080 N   0  0  0  0  0  0  0  0  0  0  0  0
  193.3670  174.2570  142.6540 C   0  0  0  0  0  0  0  0  0  0  0  0
  194.5320  175.5420  144.0790 N   0  0  0  0  0  0  0  0  0  0  0  0
  192.9680  173.8070  141.4000 C   0  0  0  0  0  3  0  0  0  0  0  0
  194.4580  175.4920  140.4540 C   0  0  0  0  0  3  0  0  0  0  0  0
  194.2800  175.2720  142.7840 C   0  0  0  0  0  0  0  0  0  0  0  0
  193.0200  173.8720  143.9350 C   0  0  0  0  0  0  0  0  0  0  0  0
  195.3970  176.6050  144.5770 C   0  0  0  0  0  1  0  0  0  0  0  0
  193.7530  174.6820  144.7900 C   0  0  0  0  0  0  0  0  0  0  0  0
  193.6640  174.6130  146.1830 O   0  0  0  0  0  0  0  0  0  0  0  0
  192.5080  175.0090  146.9070 C   0  0  0  0  0  2  0  0  0  0  0  0
  191.9700  176.3000  146.3200 C   0  0  0  0  0  2  0  0  0  0  0  0
  190.4830  176.3050  146.3590 C   0  0  0  0  0  0  0  0  0  0  0  0
  188.0930  176.7470  146.1750 C   0  0  0  0  0  0  0  0  0  0  0  0
  189.7480  175.3510  146.9750 N   0  0  0  0  0  0  0  0  0  0  0  0
  189.5160  177.4790  145.6400 S   0  0  0  0  0  0  0  0  0  0  0  0
  188.4120  175.5900  146.8770 C   0  0  0  0  0  3  0  0  0  0  0  0
  185.4170  179.0790  144.6120 C   0  0  0  0  0  2  0  0  0  0  0  0
  186.6980  177.2180  145.9000 C   0  0  1  0  0  3  0  0  0  0  0  0
  184.3430  178.7280  145.6460 C   0  0  0  0  0  2  0  0  0  0  0  0
  186.0960  177.8640  147.1200 C   0  0  0  0  0  3  0  0  0  0  0  0
  184.9710  178.5780  147.0010 C   0  0  0  0  0  3  0  0  0  0  0  0
  186.6480  178.1470  144.6670 C   0  0  1  0  0  3  0  0  0  0  0  0
  186.7860  177.3710  143.3930 C   0  0  0  0  0  0  0  0  0  0  0  0
  187.6980  177.8650  142.3260 C   0  0  0  0  0  1  0  0  0  0  0  0
  186.1530  176.3420  143.2200 O   0  0  0  0  0  0  0  0  0  0  0  0
  192.1440  172.8600  144.3390 O   0  0  0  0  0  0  0  0  0  0  0  0
  190.7350  173.0260  144.3720 C   0  0  0  0  0  2  0  0  0  0  0  0
  190.0640  172.0280  143.4330 C   0  0  0  0  0  2  0  0  0  0  0  0
  189.7220  172.6480  142.1620 N   0  0  0  0  0  0  0  0  0  0  0  0
  189.8740  171.8560  140.9390 C   0  0  0  0  0  2  0  0  0  0  0  0
  189.6910  172.6900  139.6970 C   0  0  0  0  0  3  0  0  0  0  0  0
  189.1020  173.8870  139.7360 C   0  0  0  0  0  3  0  0  0  0  0  0
  188.6670  174.4720  141.0130 C   0  0  0  0  0  3  0  0  0  0  0  0
  188.9720  173.8720  142.1620 C   0  0  0  0  0  3  0  0  0  0  0  0
  1  7  2  0  0  0  0
  1  6  1  0  0  0  0
  2  1  1  0  0  0  0
  3  8  2  0  0  0  0
  4  8  1  0  0  0  0
  4  9  1  0  0  0  0
  5 10  1  0  0  0  0
  5 11  1  0  0  0  0
  6  4  2  0  0  0  0
  7  3  1  0  0  0  0
  8  5  1  0  0  0  0
  9 29  1  0  0  0  0
  9 11  2  0  0  0  0
 11 12  1  0  0  0  0
 12 13  1  0  0  0  0
 14 15  1  0  0  0  0
 14 13  1  0  0  0  0
 15 17  2  0  0  0  0
 16 19  2  0  0  0  0
 18 16  1  0  0  0  0
 18 15  1  0  0  0  0
 19 17  1  0  0  0  0
 20 25  1  0  0  0  0
 20 22  1  0  0  0  0
 21 16  1  1  0  0  0
 21 23  1  0  0  0  0
 22 24  1  0  0  0  0
 24 23  2  0  0  0  0
 25 26  1  6  0  0  0
 25 21  1  0  0  0  0
 27 26  1  0  0  0  0
 28 26  2  0  0  0  0
 29 30  1  0  0  0  0
 31 30  1  0  0  0  0
 32 31  1  0  0  0  0
 33 32  1  0  0  0  0
 34 35  2  0  0  0  0
 34 33  1  0  0  0  0
 35 36  1  0  0  0  0
 36 37  2  0  0  0  0
 37 32  1  0  0  0  0
M  END
>  <MODEL>
6

>  <REMARK>
 VINA RESULT:      -7.0      2.136      3.066
  Name = 
  10 active torsions:
  status: ('A' for Active; 'I' for Inactive)
    1  A    between atoms: C_3  and  C_26
    2  A    between atoms: O_4  and  C_18
    3  A    between atoms: O_4  and  C_37
    4  A    between atoms: C_5  and  C_13
    5  A    between atoms: N_8  and  C_23
    6  A    between atoms: C_9  and  C_34
    7  A    between atoms: C_18  and  C_26
    8  A    between atoms: C_19  and  C_23
    9  A    between atoms: C_19  and  O_36
   10  A    between atoms: C_32  and  O_36
                            x       y       z     vdW  Elec       q    Type
                         _______ _______ _______ _____ _____    ______ ____

>  <TORSDO>
F 10

$$$$
=
 OpenBabel11042418333D

 37 41  0  0  1  0  0  0  0  0999 V2000
  195.0050  175.8820  141.3040 C   0  0  0  0  0  0  0  0  0  0  0  0
  196.1410  176.6690  141.8480 C   0  0  0  0  0  1  0  0  0  0  0  0
  193.9450  174.7970  139.4230 N   0  0  0  0  0  0  0  0  0  0  0  0
  192.9130  174.7650  141.5760 C   0  0  0  0  0  0  0  0  0  0  0  0
  191.8260  173.7430  139.8990 N   0  0  0  0  0  0  0  0  0  0  0  0
  193.9480  175.4970  142.1470 C   0  0  0  0  0  3  0  0  0  0  0  0
  194.9880  175.5170  139.9390 C   0  0  0  0  0  3  0  0  0  0  0  0
  192.9240  174.4410  140.2440 C   0  0  0  0  0  0  0  0  0  0  0  0
  191.7490  174.2360  142.1010 C   0  0  0  0  0  0  0  0  0  0  0  0
  191.5500  173.1810  138.5830 C   0  0  0  0  0  1  0  0  0  0  0  0
  191.1020  173.6120  141.0450 C   0  0  0  0  0  0  0  0  0  0  0  0
  189.8870  172.9330  141.1770 O   0  0  0  0  0  0  0  0  0  0  0  0
  188.6710  173.5790  141.5190 C   0  0  0  0  0  2  0  0  0  0  0  0
  188.6000  174.9170  140.8090 C   0  0  0  0  0  2  0  0  0  0  0  0
  188.1230  175.9740  141.7420 C   0  0  0  0  0  0  0  0  0  0  0  0
  187.3660  177.3410  143.6120 C   0  0  0  0  0  0  0  0  0  0  0  0
  187.8200  177.2340  141.3510 N   0  0  0  0  0  0  0  0  0  0  0  0
  187.9060  175.7570  143.3950 S   0  0  0  0  0  0  0  0  0  0  0  0
  187.3970  178.0040  142.3900 C   0  0  0  0  0  3  0  0  0  0  0  0
  186.1300  177.3290  147.2870 C   0  0  0  0  0  2  0  0  0  0  0  0
  186.9690  177.9710  144.9110 C   0  0  1  0  0  3  0  0  0  0  0  0
  185.6130  178.7700  147.2380 C   0  0  0  0  0  2  0  0  0  0  0  0
  185.6320  178.6540  144.7930 C   0  0  0  0  0  3  0  0  0  0  0  0
  184.9880  179.0410  145.9010 C   0  0  0  0  0  3  0  0  0  0  0  0
  186.9970  176.9470  146.0670 C   0  0  1  0  0  3  0  0  0  0  0  0
  188.4010  176.6370  146.4880 C   0  0  0  0  0  0  0  0  0  0  0  0
  188.7250  175.2920  147.0360 C   0  0  0  0  0  1  0  0  0  0  0  0
  189.2790  177.4780  146.3910 O   0  0  0  0  0  0  0  0  0  0  0  0
  191.2610  174.3140  143.4090 O   0  0  0  0  0  0  0  0  0  0  0  0
  191.2400  173.2030  144.2930 C   0  0  0  0  0  2  0  0  0  0  0  0
  192.6250  172.9790  144.8920 C   0  0  0  0  0  2  0  0  0  0  0  0
  193.1550  174.2050  145.4690 N   0  0  0  0  0  0  0  0  0  0  0  0
  192.3020  174.9670  146.3860 C   0  0  0  0  0  2  0  0  0  0  0  0
  192.8970  176.3090  146.7290 C   0  0  0  0  0  3  0  0  0  0  0  0
  194.1860  176.5800  146.5180 C   0  0  0  0  0  3  0  0  0  0  0  0
  195.0680  175.5960  145.8750 C   0  0  0  0  0  3  0  0  0  0  0  0
  194.5620  174.4690  145.3770 C   0  0  0  0  0  3  0  0  0  0  0  0
  1  2  1  0  0  0  0
  1  6  1  0  0  0  0
  3  7  1  0  0  0  0
  3  8  2  0  0  0  0
  4  9  1  0  0  0  0
  4  6  2  0  0  0  0
  5  8  1  0  0  0  0
  5 11  1  0  0  0  0
  7  1  2  0  0  0  0
  8  4  1  0  0  0  0
  9 29  1  0  0  0  0
 10  5  1  0  0  0  0
 11 12  1  0  0  0  0
 11  9  2  0  0  0  0
 12 13  1  0  0  0  0
 14 13  1  0  0  0  0
 14 15  1  0  0  0  0
 15 18  1  0  0  0  0
 17 15  2  0  0  0  0
 17 19  1  0  0  0  0
 18 16  1  0  0  0  0
 19 16  2  0  0  0  0
 21 16  1  6  0  0  0
 21 25  1  0  0  0  0
 22 20  1  0  0  0  0
 23 21  1  0  0  0  0
 23 24  2  0  0  0  0
 24 22  1  0  0  0  0
 25 26  1  1  0  0  0
 25 20  1  0  0  0  0
 26 27  1  0  0  0  0
 28 26  2  0  0  0  0
 29 30  1  0  0  0  0
 30 31  1  0  0  0  0
 31 32  1  0  0  0  0
 32 33  1  0  0  0  0
 33 34  1  0  0  0  0
 35 34  2  0  0  0  0
 36 35  1  0  0  0  0
 37 32  1  0  0  0  0
 37 36  2  0  0  0  0
M  END
>  <MODEL>
7

>  <REMARK>
 VINA RESULT:      -6.9      2.474      5.216
  Name = 
  10 active torsions:
  status: ('A' for Active; 'I' for Inactive)
    1  A    between atoms: C_3  and  C_26
    2  A    between atoms: O_4  and  C_18
    3  A    between atoms: O_4  and  C_37
    4  A    between atoms: C_5  and  C_13
    5  A    between atoms: N_8  and  C_23
    6  A    between atoms: C_9  and  C_34
    7  A    between atoms: C_18  and  C_26
    8  A    between atoms: C_19  and  C_23
    9  A    between atoms: C_19  and  O_36
   10  A    between atoms: C_32  and  O_36
                            x       y       z     vdW  Elec       q    Type
                         _______ _______ _______ _____ _____    ______ ____

>  <TORSDO>
F 10

$$$$
=
 OpenBabel11042418333D

 37 41  0  0  1  0  0  0  0  0999 V2000
  184.6660  178.2510  144.8930 C   0  0  0  0  0  0  0  0  0  0  0  0
  183.9570  178.6700  146.1290 C   0  0  0  0  0  1  0  0  0  0  0  0
  184.8340  178.2870  142.4830 N   0  0  0  0  0  0  0  0  0  0  0  0
  186.4240  177.0730  143.7870 C   0  0  0  0  0  0  0  0  0  0  0  0
  186.6670  177.0190  141.5560 N   0  0  0  0  0  0  0  0  0  0  0  0
  185.8080  177.4360  144.9800 C   0  0  0  0  0  3  0  0  0  0  0  0
  184.1950  178.6730  143.6300 C   0  0  0  0  0  3  0  0  0  0  0  0
  185.9290  177.4900  142.5780 C   0  0  0  0  0  0  0  0  0  0  0  0
  187.5380  176.3030  143.5120 C   0  0  0  0  0  0  0  0  0  0  0  0
  186.4640  177.3240  140.1450 C   0  0  0  0  0  1  0  0  0  0  0  0
  187.6620  176.2900  142.1300 C   0  0  0  0  0  0  0  0  0  0  0  0
  188.6910  175.6270  141.4540 O   0  0  0  0  0  0  0  0  0  0  0  0
  188.4750  174.4820  140.6440 C   0  0  0  0  0  2  0  0  0  0  0  0
  188.0960  173.3100  141.5280 C   0  0  0  0  0  2  0  0  0  0  0  0
  189.2300  172.9450  142.4200 C   0  0  0  0  0  0  0  0  0  0  0  0
  191.3670  172.4340  143.4760 C   0  0  0  0  0  0  0  0  0  0  0  0
  189.0730  172.5510  143.7050 N   0  0  0  0  0  0  0  0  0  0  0  0
  190.8490  172.9820  141.9660 S   0  0  0  0  0  0  0  0  0  0  0  0
  190.2610  172.2640  144.3020 C   0  0  0  0  0  3  0  0  0  0  0  0
  194.2650  170.5020  145.1800 C   0  0  0  0  0  2  0  0  0  0  0  0
  192.7860  172.2150  143.8990 C   0  0  1  0  0  3  0  0  0  0  0  0
  195.1440  171.7450  145.3520 C   0  0  0  0  0  2  0  0  0  0  0  0
  193.1640  173.1460  145.0210 C   0  0  0  0  0  3  0  0  0  0  0  0
  194.2900  172.9260  145.7090 C   0  0  0  0  0  3  0  0  0  0  0  0
  193.0470  170.7360  144.2590 C   0  0  1  0  0  3  0  0  0  0  0  0
  193.1370  169.8820  143.0310 C   0  0  0  0  0  0  0  0  0  0  0  0
  194.1640  170.1860  141.9970 C   0  0  0  0  0  1  0  0  0  0  0  0
  192.3730  168.9450  142.8680 O   0  0  0  0  0  0  0  0  0  0  0  0
  188.3800  175.6290  144.4020 O   0  0  0  0  0  0  0  0  0  0  0  0
  189.4320  176.2700  145.1070 C   0  0  0  0  0  2  0  0  0  0  0  0
  190.6530  176.4240  144.2060 C   0  0  0  0  0  2  0  0  0  0  0  0
  191.8790  176.4880  144.9870 N   0  0  0  0  0  0  0  0  0  0  0  0
  193.1020  176.9540  144.3260 C   0  0  0  0  0  2  0  0  0  0  0  0
  194.3210  176.7620  145.1900 C   0  0  0  0  0  3  0  0  0  0  0  0
  194.2250  176.5500  146.5040 C   0  0  0  0  0  3  0  0  0  0  0  0
  192.9120  176.4270  147.1530 C   0  0  0  0  0  3  0  0  0  0  0  0
  191.8020  176.3950  146.4170 C   0  0  0  0  0  3  0  0  0  0  0  0
  1  6  1  0  0  0  0
  1  2  1  0  0  0  0
  3  8  2  0  0  0  0
  3  7  1  0  0  0  0
  4  6  2  0  0  0  0
  5 11  1  0  0  0  0
  5  8  1  0  0  0  0
  7  1  2  0  0  0  0
  8  4  1  0  0  0  0
  9  4  1  0  0  0  0
  9 29  1  0  0  0  0
 10  5  1  0  0  0  0
 11  9  2  0  0  0  0
 12 11  1  0  0  0  0
 13 12  1  0  0  0  0
 13 14  1  0  0  0  0
 14 15  1  0  0  0  0
 15 17  2  0  0  0  0
 16 19  2  0  0  0  0
 17 19  1  0  0  0  0
 18 15  1  0  0  0  0
 18 16  1  0  0  0  0
 20 22  1  0  0  0  0
 21 16  1  1  0  0  0
 21 25  1  0  0  0  0
 21 23  1  0  0  0  0
 22 24  1  0  0  0  0
 23 24  2  0  0  0  0
 25 26  1  6  0  0  0
 25 20  1  0  0  0  0
 27 26  1  0  0  0  0
 28 26  2  0  0  0  0
 29 30  1  0  0  0  0
 31 32  1  0  0  0  0
 31 30  1  0  0  0  0
 32 37  1  0  0  0  0
 33 32  1  0  0  0  0
 33 34  1  0  0  0  0
 34 35  2  0  0  0  0
 35 36  1  0  0  0  0
 37 36  2  0  0  0  0
M  END
>  <MODEL>
8

>  <REMARK>
 VINA RESULT:      -6.9      2.496      8.986
  Name = 
  10 active torsions:
  status: ('A' for Active; 'I' for Inactive)
    1  A    between atoms: C_3  and  C_26
    2  A    between atoms: O_4  and  C_18
    3  A    between atoms: O_4  and  C_37
    4  A    between atoms: C_5  and  C_13
    5  A    between atoms: N_8  and  C_23
    6  A    between atoms: C_9  and  C_34
    7  A    between atoms: C_18  and  C_26
    8  A    between atoms: C_19  and  C_23
    9  A    between atoms: C_19  and  O_36
   10  A    between atoms: C_32  and  O_36
                            x       y       z     vdW  Elec       q    Type
                         _______ _______ _______ _____ _____    ______ ____

>  <TORSDO>
F 10

$$$$
=
 OpenBabel11042418333D

 37 41  0  0  1  0  0  0  0  0999 V2000
  184.4620  178.1930  143.1080 C   0  0  0  0  0  0  0  0  0  0  0  0
  183.7050  178.3040  141.8350 C   0  0  0  0  0  1  0  0  0  0  0  0
  184.7660  178.8690  145.4070 N   0  0  0  0  0  0  0  0  0  0  0  0
  186.2350  177.2710  144.4140 C   0  0  0  0  0  0  0  0  0  0  0  0
  186.6260  177.8380  146.5500 N   0  0  0  0  0  0  0  0  0  0  0  0
  185.5650  177.3270  143.1960 C   0  0  0  0  0  3  0  0  0  0  0  0
  184.0730  178.9560  144.2310 C   0  0  0  0  0  3  0  0  0  0  0  0
  185.8370  178.0380  145.4780 C   0  0  0  0  0  0  0  0  0  0  0  0
  187.3310  176.5440  144.8400 C   0  0  0  0  0  0  0  0  0  0  0  0
  186.4460  178.4380  147.8660 C   0  0  0  0  0  1  0  0  0  0  0  0
  187.5460  176.9140  146.1600 C   0  0  0  0  0  0  0  0  0  0  0  0
  188.5620  176.3770  146.9560 O   0  0  0  0  0  0  0  0  0  0  0  0
  189.9340  176.6970  146.7820 C   0  0  0  0  0  2  0  0  0  0  0  0
  190.7830  175.5830  147.3630 C   0  0  0  0  0  2  0  0  0  0  0  0
  192.1860  175.6950  146.8790 C   0  0  0  0  0  0  0  0  0  0  0  0
  194.4140  175.4080  145.9320 C   0  0  0  0  0  0  0  0  0  0  0  0
  192.9550  176.7930  147.0650 N   0  0  0  0  0  0  0  0  0  0  0  0
  193.0000  174.4910  146.0320 S   0  0  0  0  0  0  0  0  0  0  0  0
  194.2000  176.6410  146.5380 C   0  0  0  0  0  3  0  0  0  0  0  0
  196.5250  173.7610  143.1280 C   0  0  0  0  0  2  0  0  0  0  0  0
  195.6850  175.0030  145.2520 C   0  0  1  0  0  3  0  0  0  0  0  0
  197.7650  173.5810  144.0100 C   0  0  0  0  0  2  0  0  0  0  0  0
  196.3540  173.8720  145.9880 C   0  0  0  0  0  3  0  0  0  0  0  0
  197.3490  173.1980  145.4000 C   0  0  0  0  0  3  0  0  0  0  0  0
  195.4470  174.6650  143.7640 C   0  0  1  0  0  3  0  0  0  0  0  0
  195.2440  175.9060  142.9490 C   0  0  0  0  0  0  0  0  0  0  0  0
  194.0300  176.0370  142.0970 C   0  0  0  0  0  1  0  0  0  0  0  0
  196.0670  176.8060  142.9720 O   0  0  0  0  0  0  0  0  0  0  0  0
  188.1150  175.6360  144.1220 O   0  0  0  0  0  0  0  0  0  0  0  0
  189.1310  176.0400  143.2160 C   0  0  0  0  0  2  0  0  0  0  0  0
  190.1220  174.9020  142.9930 C   0  0  0  0  0  2  0  0  0  0  0  0
  190.0230  174.3740  141.6410 N   0  0  0  0  0  0  0  0  0  0  0  0
  191.1970  173.7120  141.0650 C   0  0  0  0  0  2  0  0  0  0  0  0
  191.0170  173.4140  139.5990 C   0  0  0  0  0  3  0  0  0  0  0  0
  189.8120  173.4180  139.0240 C   0  0  0  0  0  3  0  0  0  0  0  0
  188.6120  173.7830  139.7910 C   0  0  0  0  0  3  0  0  0  0  0  0
  188.7280  174.2400  141.0360 C   0  0  0  0  0  3  0  0  0  0  0  0
  1  6  2  0  0  0  0
  1  7  1  0  0  0  0
  2  1  1  0  0  0  0
  3  8  1  0  0  0  0
  4  9  1  0  0  0  0
  4  8  2  0  0  0  0
  5 10  1  0  0  0  0
  6  4  1  0  0  0  0
  7  3  2  0  0  0  0
  8  5  1  0  0  0  0
  9 11  2  0  0  0  0
 11  5  1  0  0  0  0
 11 12  1  0  0  0  0
 13 12  1  0  0  0  0
 13 14  1  0  0  0  0
 15 17  2  0  0  0  0
 15 14  1  0  0  0  0
 16 18  1  0  0  0  0
 16 19  2  0  0  0  0
 18 15  1  0  0  0  0
 19 17  1  0  0  0  0
 20 25  1  0  0  0  0
 20 22  1  0  0  0  0
 21 16  1  1  0  0  0
 21 23  1  0  0  0  0
 22 24  1  0  0  0  0
 24 23  2  0  0  0  0
 25 26  1  6  0  0  0
 25 21  1  0  0  0  0
 26 28  2  0  0  0  0
 27 26  1  0  0  0  0
 29  9  1  0  0  0  0
 30 29  1  0  0  0  0
 31 30  1  0  0  0  0
 32 31  1  0  0  0  0
 33 32  1  0  0  0  0
 34 33  1  0  0  0  0
 35 34  2  0  0  0  0
 35 36  1  0  0  0  0
 36 37  2  0  0  0  0
 37 32  1  0  0  0  0
M  END
>  <MODEL>
9

>  <REMARK>
 VINA RESULT:      -6.9      2.618      8.693
  Name = 
  10 active torsions:
  status: ('A' for Active; 'I' for Inactive)
    1  A    between atoms: C_3  and  C_26
    2  A    between atoms: O_4  and  C_18
    3  A    between atoms: O_4  and  C_37
    4  A    between atoms: C_5  and  C_13
    5  A    between atoms: N_8  and  C_23
    6  A    between atoms: C_9  and  C_34
    7  A    between atoms: C_18  and  C_26
    8  A    between atoms: C_19  and  C_23
    9  A    between atoms: C_19  and  O_36
   10  A    between atoms: C_32  and  O_36
                            x       y       z     vdW  Elec       q    Type
                         _______ _______ _______ _____ _____    ______ ____

>  <TORSDO>
F 10

$$$$
