=
 OpenBabel11042418143D

 53 56  0  0  1  0  0  0  0  0999 V2000
  194.8750  175.2750  143.5810 C   0  0  0  0  0  2  0  0  0  0  0  0
  192.1050  176.0160  144.5350 C   0  0  0  0  0  2  0  0  0  0  0  0
  195.8510  176.8240  141.4320 O   0  0  0  0  0  0  0  0  0  0  0  0
  194.6090  174.4470  144.6050 C   0  0  1  0  0  3  0  0  0  0  0  0
  194.8270  174.8320  142.1620 C   0  0  2  0  0  3  0  0  0  0  0  0
  191.0820  174.3570  143.0930 O   0  0  0  0  0  0  0  0  0  0  0  0
  194.0670  175.0690  145.8460 C   0  0  0  0  0  2  0  0  0  0  0  0
  193.6210  173.6930  139.5970 C   0  0  0  0  0  2  0  0  0  0  0  0
  195.3390  175.2900  138.8940 N   0  0  0  0  0  0  0  0  0  0  0  0
  194.1730  174.7530  138.6750 C   0  0  0  0  0  0  0  0  0  0  0  0
  192.8120  174.3080  140.6980 C   0  0  0  0  0  0  0  0  0  0  0  0
  190.5990  174.6960  141.8140 C   0  0  1  0  0  3  0  0  0  0  0  0
  195.7140  175.6250  141.2640 C   0  0  0  0  0  0  0  0  0  0  0  0
  196.2150  174.9640  140.0140 C   0  0  2  0  0  3  0  0  0  0  0  0
  192.5490  175.2470  145.7880 C   0  0  1  0  0  3  0  0  0  0  0  0
  193.4470  175.0220  141.7490 N   0  0  0  0  0  2  0  0  0  0  0  0
  190.8240  175.4590  143.9220 C   0  0  0  0  0  2  0  0  0  0  0  0
  197.6300  175.4110  139.7010 C   0  0  0  0  0  1  0  0  0  0  0  0
  191.4910  174.1360  140.7320 C   0  0  0  0  0  3  0  0  0  0  0  0
  193.3990  175.2620  137.5760 N   0  0  0  0  0  0  0  0  0  0  0  0
  194.0150  173.6200  135.9770 N   0  0  0  0  0  1  0  0  0  0  0  0
  192.4440  175.4210  135.4360 N   0  0  0  0  0  1  0  0  0  0  0  0
  193.2700  174.7550  136.3860 C   0  0  0  0  0  0  0  0  0  0  0  0
  193.0820  176.8250  147.4970 F   0  0  0  0  0  0  0  0  0  0  0  0
  191.7470  175.1000  148.0480 F   0  0  0  0  0  0  0  0  0  0  0  0
  192.0770  175.9980  147.0390 C   0  0  0  0  0  0  0  0  0  0  0  0
  190.9510  176.7670  146.7360 F   0  0  0  0  0  0  0  0  0  0  0  0
  189.2050  174.1140  141.6130 C   0  0  0  0  0  2  0  0  0  0  0  0
  188.2890  175.0610  140.8630 C   0  0  0  0  0  2  0  0  0  0  0  0
  187.9590  177.2370  141.8770 C   0  0  1  0  0  3  0  0  0  0  0  0
  187.4480  175.8710  141.8340 C   0  0  1  0  0  3  0  0  0  0  0  0
  186.7460  176.9370  141.1010 N   0  0  0  0  0  2  0  0  0  0  0  0
  187.5650  177.8870  143.1920 C   0  0  0  0  0  2  0  0  0  0  0  0
  186.3670  178.8100  142.9970 C   0  0  0  0  0  2  0  0  0  0  0  0
  185.2530  178.5010  143.9940 C   0  0  0  0  0  2  0  0  0  0  0  0
  185.7950  179.3720  147.5050 O   0  0  0  0  0  0  0  0  0  0  0  0
  185.6400  178.6530  146.4870 C   0  0  0  0  0  0  0  0  0  0  0  0
  185.4450  179.2700  145.2160 N   0  0  0  0  0  2  0  0  0  0  0  0
  185.6260  177.1710  146.6370 C   0  0  0  0  0  2  0  0  0  0  0  0
  187.0540  176.6480  146.7070 C   0  0  0  0  0  1  0  0  0  0  0  0
  194.6230  172.9410  144.5040 C   0  0  1  0  0  3  0  0  0  0  0  0
  195.4200  172.2780  145.5840 C   0  0  0  0  0  0  0  0  0  0  0  0
  196.5000  172.8020  145.9790 O   0  0  0  0  0  0  0  0  0  0  0  0
  195.0070  171.0580  146.1110 O   0  0  0  0  0  1  0  0  0  0  0  0
  193.3180  172.4280  144.4510 O   0  0  0  0  0  0  0  0  0  0  0  0
  192.7720  169.4020  142.6170 C   0  0  1  0  0  3  0  0  0  0  0  0
  193.1370  168.3390  143.6340 C   0  0  0  0  0  1  0  0  0  0  0  0
  192.1330  170.5870  143.3270 C   0  0  1  0  0  3  0  0  0  0  0  0
  194.3980  171.2320  142.5920 C   0  0  0  0  0  2  0  0  0  0  0  0
  193.1200  171.7470  143.2290 C   0  0  2  0  0  3  0  0  0  0  0  0
  194.0220  169.9160  141.9300 C   0  0  0  0  0  2  0  0  0  0  0  0
  190.7970  170.7060  141.3170 O   0  0  0  0  0  1  0  0  0  0  0  0
  190.7940  170.9610  142.6930 C   0  0  0  0  0  2  0  0  0  0  0  0
  1  4  1  0  0  0  0
  2 15  1  0  0  0  0
  4 41  1  6  0  0  0
  4  7  1  0  0  0  0
  5  1  1  1  0  0  0
  6 17  1  0  0  0  0
  8 11  1  0  0  0  0
  9 14  1  0  0  0  0
 10  9  2  0  0  0  0
 10  8  1  0  0  0  0
 11 19  2  0  0  0  0
 11 16  1  0  0  0  0
 12 28  1  6  0  0  0
 12  6  1  0  0  0  0
 13  3  2  0  0  0  0
 13  5  1  0  0  0  0
 14 18  1  6  0  0  0
 14 13  1  0  0  0  0
 15  7  1  0  0  0  0
 15 26  1  1  0  0  0
 16  5  1  0  0  0  0
 17  2  1  0  0  0  0
 19 12  1  0  0  0  0
 20 10  1  0  0  0  0
 21 23  1  0  0  0  0
 22 23  1  0  0  0  0
 23 20  2  0  0  0  0
 26 24  1  0  0  0  0
 26 25  1  0  0  0  0
 27 26  1  0  0  0  0
 29 28  1  0  0  0  0
 30 33  1  1  0  0  0
 31 29  1  6  0  0  0
 31 30  1  0  0  0  0
 32 31  1  0  0  0  0
 32 30  1  0  0  0  0
 34 33  1  0  0  0  0
 34 35  1  0  0  0  0
 35 38  1  0  0  0  0
 37 39  1  0  0  0  0
 37 36  2  0  0  0  0
 38 37  1  0  0  0  0
 39 40  1  0  0  0  0
 41 45  1  1  0  0  0
 41 42  1  0  0  0  0
 42 43  2  0  0  0  0
 42 44  1  0  0  0  0
 46 48  1  0  0  0  0
 46 47  1  1  0  0  0
 48 53  1  6  0  0  0
 49 50  1  0  0  0  0
 50 48  1  0  0  0  0
 50 45  1  1  0  0  0
 51 49  1  0  0  0  0
 51 46  1  0  0  0  0
 52 53  1  0  0  0  0
M  END
>  <MODEL>
1

>  <REMARK>
 VINA RESULT:      -7.0      0.000      0.000
  Name = 
  15 active torsions:
  status: ('A' for Active; 'I' for Inactive)
    1  A    between atoms: C_1  and  C_15
    2  A    between atoms: C_1  and  C_37
    3  A    between atoms: N_2  and  C_35
    4  A    between atoms: C_5  and  C_12
    5  A    between atoms: C_5  and  C_32
    6  A    between atoms: C_10  and  C_13
    7  A    between atoms: C_10  and  C_17
    8  A    between atoms: C_10  and  O_52
    9  A    between atoms: C_15  and  C_23
   10  A    between atoms: C_18  and  C_33
   11  A    between atoms: C_26  and  C_28
   12  A    between atoms: C_31  and  C_40
   13  A    between atoms: C_32  and  C_43
   14  A    between atoms: C_42  and  O_52
   15  A    between atoms: C_43  and  N_48
                            x       y       z     vdW  Elec       q    Type
                         _______ _______ _______ _____ _____    ______ ____

>  <TORSDO>
F 15

$$$$
=
 OpenBabel11042418143D

 53 56  0  0  1  0  0  0  0  0999 V2000
  193.9230  172.8240  142.0430 C   0  0  0  0  0  2  0  0  0  0  0  0
  194.1650  175.8250  142.2950 C   0  0  0  0  0  2  0  0  0  0  0  0
  193.0440  171.9050  139.5220 O   0  0  0  0  0  0  0  0  0  0  0  0
  194.3680  173.0490  143.2910 C   0  0  1  0  0  3  0  0  0  0  0  0
  192.5130  172.4460  141.7530 C   0  0  2  0  0  3  0  0  0  0  0  0
  191.9220  176.0060  143.1980 O   0  0  0  0  0  0  0  0  0  0  0  0
  195.5120  173.9930  143.4330 C   0  0  0  0  0  2  0  0  0  0  0  0
  189.4710  172.7120  141.6980 C   0  0  0  0  0  2  0  0  0  0  0  0
  190.0800  171.4150  139.7110 N   0  0  0  0  0  0  0  0  0  0  0  0
  189.3010  172.3060  140.2530 C   0  0  0  0  0  0  0  0  0  0  0  0
  190.4080  173.8740  141.8210 C   0  0  0  0  0  0  0  0  0  0  0  0
  190.8190  176.2880  142.3690 C   0  0  1  0  0  3  0  0  0  0  0  0
  192.3590  171.6550  140.4980 C   0  0  0  0  0  0  0  0  0  0  0  0
  191.1780  170.7370  140.3910 C   0  0  2  0  0  3  0  0  0  0  0  0
  195.0550  175.4520  143.4900 C   0  0  1  0  0  3  0  0  0  0  0  0
  191.8020  173.7040  141.6080 N   0  0  0  0  0  2  0  0  0  0  0  0
  193.0050  176.7360  142.6840 C   0  0  0  0  0  2  0  0  0  0  0  0
  191.5460  169.4760  139.6330 C   0  0  0  0  0  1  0  0  0  0  0  0
  189.9470  175.0680  142.1940 C   0  0  0  0  0  3  0  0  0  0  0  0
  188.3300  172.9470  139.4090 N   0  0  0  0  0  0  0  0  0  0  0  0
  189.8560  174.0110  137.9340 N   0  0  0  0  0  1  0  0  0  0  0  0
  187.4310  174.2130  137.6460 N   0  0  0  0  0  1  0  0  0  0  0  0
  188.5440  173.6660  138.3470 C   0  0  0  0  0  0  0  0  0  0  0  0
  196.0800  177.4020  144.4080 F   0  0  0  0  0  0  0  0  0  0  0  0
  196.5120  176.9090  142.2560 F   0  0  0  0  0  0  0  0  0  0  0  0
  196.2830  176.3690  143.5160 C   0  0  0  0  0  0  0  0  0  0  0  0
  197.4120  175.6410  143.9040 F   0  0  0  0  0  0  0  0  0  0  0  0
  189.9640  177.3830  142.9940 C   0  0  0  0  0  2  0  0  0  0  0  0
  189.0450  178.0430  141.9840 C   0  0  0  0  0  2  0  0  0  0  0  0
  186.6580  178.4490  142.0660 C   0  0  1  0  0  3  0  0  0  0  0  0
  187.6700  177.4000  142.0130 C   0  0  1  0  0  3  0  0  0  0  0  0
  186.9330  177.7650  140.7920 N   0  0  0  0  0  2  0  0  0  0  0  0
  185.3780  177.8920  142.6660 C   0  0  0  0  0  2  0  0  0  0  0  0
  184.7070  178.9300  143.5590 C   0  0  0  0  0  2  0  0  0  0  0  0
  185.6970  179.5430  144.5450 C   0  0  0  0  0  2  0  0  0  0  0  0
  185.5820  177.7760  147.7460 O   0  0  0  0  0  0  0  0  0  0  0  0
  185.9310  178.0500  146.5710 C   0  0  0  0  0  0  0  0  0  0  0  0
  185.3460  179.1680  145.9090 N   0  0  0  0  0  2  0  0  0  0  0  0
  186.9230  177.1760  145.8830 C   0  0  0  0  0  2  0  0  0  0  0  0
  188.3300  177.5380  146.3380 C   0  0  0  0  0  1  0  0  0  0  0  0
  193.6600  172.5840  144.5400 C   0  0  1  0  0  3  0  0  0  0  0  0
  194.0770  171.2170  144.9870 C   0  0  0  0  0  0  0  0  0  0  0  0
  193.3880  170.2110  144.6550 O   0  0  0  0  0  0  0  0  0  0  0  0
  195.1830  171.0580  145.8170 O   0  0  0  0  0  1  0  0  0  0  0  0
  193.8020  173.5190  145.5760 O   0  0  0  0  0  0  0  0  0  0  0  0
  191.3480  175.5790  147.1760 C   0  0  1  0  0  3  0  0  0  0  0  0
  191.2740  174.9710  148.5630 C   0  0  0  0  0  1  0  0  0  0  0  0
  192.7740  175.4790  146.6540 C   0  0  1  0  0  3  0  0  0  0  0  0
  191.3690  173.8610  145.4320 C   0  0  0  0  0  2  0  0  0  0  0  0
  192.7580  174.4700  145.5090 C   0  0  2  0  0  3  0  0  0  0  0  0
  190.4680  174.7990  146.2180 C   0  0  0  0  0  2  0  0  0  0  0  0
  194.3620  177.2760  146.9510 O   0  0  0  0  0  1  0  0  0  0  0  0
  193.2870  176.8360  146.1710 C   0  0  0  0  0  2  0  0  0  0  0  0
  1  4  1  0  0  0  0
  2 17  1  0  0  0  0
  2 15  1  0  0  0  0
  3 13  2  0  0  0  0
  4  7  1  0  0  0  0
  4 41  1  1  0  0  0
  5  1  1  6  0  0  0
  7 15  1  0  0  0  0
  8 11  1  0  0  0  0
  9 10  2  0  0  0  0
  9 14  1  0  0  0  0
 10  8  1  0  0  0  0
 11 19  2  0  0  0  0
 12 28  1  1  0  0  0
 12  6  1  0  0  0  0
 13  5  1  0  0  0  0
 14 18  1  6  0  0  0
 14 13  1  0  0  0  0
 15 26  1  6  0  0  0
 16  5  1  0  0  0  0
 16 11  1  0  0  0  0
 17  6  1  0  0  0  0
 19 12  1  0  0  0  0
 20 10  1  0  0  0  0
 21 23  1  0  0  0  0
 22 23  1  0  0  0  0
 23 20  2  0  0  0  0
 25 26  1  0  0  0  0
 26 27  1  0  0  0  0
 26 24  1  0  0  0  0
 29 28  1  0  0  0  0
 30 33  1  1  0  0  0
 31 29  1  6  0  0  0
 31 30  1  0  0  0  0
 32 31  1  0  0  0  0
 32 30  1  0  0  0  0
 33 34  1  0  0  0  0
 34 35  1  0  0  0  0
 35 38  1  0  0  0  0
 37 36  2  0  0  0  0
 38 37  1  0  0  0  0
 39 40  1  0  0  0  0
 39 37  1  0  0  0  0
 41 42  1  1  0  0  0
 41 45  1  0  0  0  0
 42 44  1  0  0  0  0
 43 42  2  0  0  0  0
 46 47  1  1  0  0  0
 48 53  1  6  0  0  0
 48 46  1  0  0  0  0
 49 50  1  0  0  0  0
 49 51  1  0  0  0  0
 50 45  1  1  0  0  0
 50 48  1  0  0  0  0
 51 46  1  0  0  0  0
 53 52  1  0  0  0  0
M  END
>  <MODEL>
2

>  <REMARK>
 VINA RESULT:      -6.7      2.660      4.578
  Name = 
  15 active torsions:
  status: ('A' for Active; 'I' for Inactive)
    1  A    between atoms: C_1  and  C_15
    2  A    between atoms: C_1  and  C_37
    3  A    between atoms: N_2  and  C_35
    4  A    between atoms: C_5  and  C_12
    5  A    between atoms: C_5  and  C_32
    6  A    between atoms: C_10  and  C_13
    7  A    between atoms: C_10  and  C_17
    8  A    between atoms: C_10  and  O_52
    9  A    between atoms: C_15  and  C_23
   10  A    between atoms: C_18  and  C_33
   11  A    between atoms: C_26  and  C_28
   12  A    between atoms: C_31  and  C_40
   13  A    between atoms: C_32  and  C_43
   14  A    between atoms: C_42  and  O_52
   15  A    between atoms: C_43  and  N_48
                            x       y       z     vdW  Elec       q    Type
                         _______ _______ _______ _____ _____    ______ ____

>  <TORSDO>
F 15

$$$$
=
 OpenBabel11042418143D

 53 56  0  0  1  0  0  0  0  0999 V2000
  190.4250  172.3280  143.3520 C   0  0  0  0  0  2  0  0  0  0  0  0
  192.1750  174.3520  144.7550 C   0  0  0  0  0  2  0  0  0  0  0  0
  191.7380  169.9550  142.5670 O   0  0  0  0  0  0  0  0  0  0  0  0
  189.6170  173.3580  143.6550 C   0  0  1  0  0  3  0  0  0  0  0  0
  190.9270  172.0860  141.9720 C   0  0  2  0  0  3  0  0  0  0  0  0
  192.6470  175.5010  142.6730 O   0  0  0  0  0  0  0  0  0  0  0  0
  189.6940  173.8800  145.0490 C   0  0  0  0  0  2  0  0  0  0  0  0
  192.3780  172.6730  139.3500 C   0  0  0  0  0  2  0  0  0  0  0  0
  192.5000  170.2490  139.6700 N   0  0  0  0  0  0  0  0  0  0  0  0
  193.0760  171.3380  139.2500 C   0  0  0  0  0  0  0  0  0  0  0  0
  192.6970  173.3480  140.6490 C   0  0  0  0  0  0  0  0  0  0  0  0
  193.8010  175.2070  141.9200 C   0  0  1  0  0  3  0  0  0  0  0  0
  191.2420  170.6540  141.7010 C   0  0  0  0  0  0  0  0  0  0  0  0
  191.1770  170.1810  140.2780 C   0  0  2  0  0  3  0  0  0  0  0  0
  190.8190  174.9010  145.2240 C   0  0  1  0  0  3  0  0  0  0  0  0
  192.1480  172.8660  141.8670 N   0  0  0  0  0  2  0  0  0  0  0  0
  193.0140  175.3950  144.0240 C   0  0  0  0  0  2  0  0  0  0  0  0
  190.6560  168.7580  140.2100 C   0  0  0  0  0  1  0  0  0  0  0  0
  193.4500  174.4480  140.6640 C   0  0  0  0  0  3  0  0  0  0  0  0
  194.4250  171.2370  138.7640 N   0  0  0  0  0  0  0  0  0  0  0  0
  193.9150  171.1590  136.4470 N   0  0  0  0  0  1  0  0  0  0  0  0
  196.2260  171.1040  137.2610 N   0  0  0  0  0  1  0  0  0  0  0  0
  194.8300  171.2060  137.5290 C   0  0  0  0  0  0  0  0  0  0  0  0
  189.8730  174.7410  147.4090 F   0  0  0  0  0  0  0  0  0  0  0  0
  190.8470  176.6850  146.8310 F   0  0  0  0  0  0  0  0  0  0  0  0
  190.9150  175.3040  146.7000 C   0  0  0  0  0  0  0  0  0  0  0  0
  192.1270  174.8600  147.2350 F   0  0  0  0  0  0  0  0  0  0  0  0
  194.4920  176.4990  141.5020 C   0  0  0  0  0  2  0  0  0  0  0  0
  195.9990  176.4210  141.6500 C   0  0  0  0  0  2  0  0  0  0  0  0
  196.7100  174.9900  143.4720 C   0  0  1  0  0  3  0  0  0  0  0  0
  196.3890  176.3680  143.1170 C   0  0  1  0  0  3  0  0  0  0  0  0
  197.7970  175.9530  143.2340 N   0  0  0  0  0  2  0  0  0  0  0  0
  196.5330  174.7950  144.9690 C   0  0  0  0  0  2  0  0  0  0  0  0
  197.5280  173.7690  145.4980 C   0  0  0  0  0  2  0  0  0  0  0  0
  197.2430  172.3750  144.9430 C   0  0  0  0  0  2  0  0  0  0  0  0
  193.7780  171.2040  144.9230 O   0  0  0  0  0  0  0  0  0  0  0  0
  194.8860  171.5910  144.4770 C   0  0  0  0  0  0  0  0  0  0  0  0
  195.9340  171.9150  145.3880 N   0  0  0  0  0  2  0  0  0  0  0  0
  195.0670  171.7390  143.0050 C   0  0  0  0  0  2  0  0  0  0  0  0
  195.2080  170.3650  142.3640 C   0  0  0  0  0  1  0  0  0  0  0  0
  188.8170  174.1370  142.6390 C   0  0  1  0  0  3  0  0  0  0  0  0
  188.1000  173.2680  141.6530 C   0  0  0  0  0  0  0  0  0  0  0  0
  188.3400  173.3900  140.4180 O   0  0  0  0  0  0  0  0  0  0  0  0
  187.1280  172.3720  142.0860 O   0  0  0  0  0  1  0  0  0  0  0  0
  187.9310  175.0230  143.2700 O   0  0  0  0  0  0  0  0  0  0  0  0
  187.2290  178.5340  143.3080 C   0  0  1  0  0  3  0  0  0  0  0  0
  186.0830  178.6220  144.2960 C   0  0  0  0  0  1  0  0  0  0  0  0
  188.1830  177.4270  143.7330 C   0  0  1  0  0  3  0  0  0  0  0  0
  186.9360  176.6750  141.7420 C   0  0  0  0  0  2  0  0  0  0  0  0
  188.0550  176.3110  142.7000 C   0  0  2  0  0  3  0  0  0  0  0  0
  186.7040  178.1650  141.9340 C   0  0  0  0  0  2  0  0  0  0  0  0
  190.2840  177.7590  142.5860 O   0  0  0  0  0  1  0  0  0  0  0  0
  189.6240  177.9320  143.8080 C   0  0  0  0  0  2  0  0  0  0  0  0
  1  4  1  0  0  0  0
  2 15  1  0  0  0  0
  4 41  1  6  0  0  0
  4  7  1  0  0  0  0
  5  1  1  1  0  0  0
  6 17  1  0  0  0  0
  7 15  1  0  0  0  0
  8 11  1  0  0  0  0
  9 14  1  0  0  0  0
 10  8  1  0  0  0  0
 10  9  2  0  0  0  0
 11 19  2  0  0  0  0
 11 16  1  0  0  0  0
 12 28  1  6  0  0  0
 12  6  1  0  0  0  0
 13  5  1  0  0  0  0
 13  3  2  0  0  0  0
 14 18  1  1  0  0  0
 14 13  1  0  0  0  0
 15 26  1  1  0  0  0
 16  5  1  0  0  0  0
 17  2  1  0  0  0  0
 19 12  1  0  0  0  0
 20 10  1  0  0  0  0
 21 23  1  0  0  0  0
 22 23  1  0  0  0  0
 23 20  2  0  0  0  0
 26 25  1  0  0  0  0
 26 27  1  0  0  0  0
 26 24  1  0  0  0  0
 28 29  1  0  0  0  0
 30 33  1  1  0  0  0
 31 29  1  6  0  0  0
 31 32  1  0  0  0  0
 31 30  1  0  0  0  0
 32 30  1  0  0  0  0
 33 34  1  0  0  0  0
 35 38  1  0  0  0  0
 35 34  1  0  0  0  0
 37 36  2  0  0  0  0
 37 38  1  0  0  0  0
 39 37  1  0  0  0  0
 40 39  1  0  0  0  0
 41 42  1  1  0  0  0
 41 45  1  0  0  0  0
 42 44  1  0  0  0  0
 43 42  2  0  0  0  0
 46 48  1  0  0  0  0
 46 47  1  1  0  0  0
 48 53  1  6  0  0  0
 49 51  1  0  0  0  0
 49 50  1  0  0  0  0
 50 45  1  1  0  0  0
 50 48  1  0  0  0  0
 51 46  1  0  0  0  0
 52 53  1  0  0  0  0
M  END
>  <MODEL>
3

>  <REMARK>
 VINA RESULT:      -6.6      2.816      7.616
  Name = 
  15 active torsions:
  status: ('A' for Active; 'I' for Inactive)
    1  A    between atoms: C_1  and  C_15
    2  A    between atoms: C_1  and  C_37
    3  A    between atoms: N_2  and  C_35
    4  A    between atoms: C_5  and  C_12
    5  A    between atoms: C_5  and  C_32
    6  A    between atoms: C_10  and  C_13
    7  A    between atoms: C_10  and  C_17
    8  A    between atoms: C_10  and  O_52
    9  A    between atoms: C_15  and  C_23
   10  A    between atoms: C_18  and  C_33
   11  A    between atoms: C_26  and  C_28
   12  A    between atoms: C_31  and  C_40
   13  A    between atoms: C_32  and  C_43
   14  A    between atoms: C_42  and  O_52
   15  A    between atoms: C_43  and  N_48
                            x       y       z     vdW  Elec       q    Type
                         _______ _______ _______ _____ _____    ______ ____

>  <TORSDO>
F 15

$$$$
=
 OpenBabel11042418143D

 53 56  0  0  1  0  0  0  0  0999 V2000
  194.1420  172.2800  142.4530 C   0  0  0  0  0  2  0  0  0  0  0  0
  191.1980  171.9390  141.8640 C   0  0  0  0  0  2  0  0  0  0  0  0
  194.8090  172.3630  145.1940 O   0  0  0  0  0  0  0  0  0  0  0  0
  194.0400  172.2460  141.1130 C   0  0  1  0  0  3  0  0  0  0  0  0
  194.3710  173.5440  143.2040 C   0  0  2  0  0  3  0  0  0  0  0  0
  190.8740  174.3370  141.7000 O   0  0  0  0  0  0  0  0  0  0  0  0
  193.2140  171.1490  140.5330 C   0  0  0  0  0  2  0  0  0  0  0  0
  193.8280  176.3840  144.1880 C   0  0  0  0  0  2  0  0  0  0  0  0
  195.0410  175.2560  145.9910 N   0  0  0  0  0  0  0  0  0  0  0  0
  194.1210  176.1080  145.6430 C   0  0  0  0  0  0  0  0  0  0  0  0
  192.7660  175.4630  143.6710 C   0  0  0  0  0  0  0  0  0  0  0  0
  190.4400  175.0940  142.8040 C   0  0  1  0  0  3  0  0  0  0  0  0
  195.0600  173.3390  144.5100 C   0  0  0  0  0  0  0  0  0  0  0  0
  195.8590  174.4810  145.0660 C   0  0  2  0  0  3  0  0  0  0  0  0
  191.7270  171.5050  140.4900 C   0  0  1  0  0  3  0  0  0  0  0  0
  193.0470  174.0890  143.4500 N   0  0  0  0  0  2  0  0  0  0  0  0
  190.2130  173.1010  141.7790 C   0  0  0  0  0  2  0  0  0  0  0  0
  197.0950  173.9710  145.7820 C   0  0  0  0  0  1  0  0  0  0  0  0
  191.5620  175.9410  143.3550 C   0  0  0  0  0  3  0  0  0  0  0  0
  193.3410  176.7140  146.6880 N   0  0  0  0  0  0  0  0  0  0  0  0
  191.6920  175.0160  146.8680 N   0  0  0  0  0  1  0  0  0  0  0  0
  191.6610  177.0000  148.3050 N   0  0  0  0  0  1  0  0  0  0  0  0
  192.2900  176.2320  147.2830 C   0  0  0  0  0  0  0  0  0  0  0  0
  189.8350  170.7150  139.2680 F   0  0  0  0  0  0  0  0  0  0  0  0
  190.4810  169.5360  141.0720 F   0  0  0  0  0  0  0  0  0  0  0  0
  190.9290  170.2930  139.9960 C   0  0  0  0  0  0  0  0  0  0  0  0
  191.7360  169.4890  139.1870 F   0  0  0  0  0  0  0  0  0  0  0  0
  189.3160  176.0320  142.3830 C   0  0  0  0  0  2  0  0  0  0  0  0
  188.1260  175.9640  143.3210 C   0  0  0  0  0  2  0  0  0  0  0  0
  187.2980  176.5140  145.5300 C   0  0  1  0  0  3  0  0  0  0  0  0
  188.4500  176.6350  144.6430 C   0  0  1  0  0  3  0  0  0  0  0  0
  188.4570  175.6260  145.7150 N   0  0  0  0  0  2  0  0  0  0  0  0
  187.3410  177.6170  146.5740 C   0  0  0  0  0  2  0  0  0  0  0  0
  186.0470  177.6450  147.3790 C   0  0  0  0  0  2  0  0  0  0  0  0
  185.2440  178.9140  147.1050 C   0  0  0  0  0  2  0  0  0  0  0  0
  183.5070  178.6870  143.8940 O   0  0  0  0  0  0  0  0  0  0  0  0
  184.4280  178.9280  144.7120 C   0  0  0  0  0  0  0  0  0  0  0  0
  184.2230  178.6550  146.0970 N   0  0  0  0  0  2  0  0  0  0  0  0
  185.7000  179.5280  144.2210 C   0  0  0  0  0  2  0  0  0  0  0  0
  185.9850  179.0420  142.8070 C   0  0  0  0  0  1  0  0  0  0  0  0
  194.5210  173.3450  140.1970 C   0  0  1  0  0  3  0  0  0  0  0  0
  195.9890  173.6120  140.3060 C   0  0  0  0  0  0  0  0  0  0  0  0
  196.8170  172.7250  139.9510 O   0  0  0  0  0  0  0  0  0  0  0  0
  196.4450  174.8070  140.8540 O   0  0  0  0  0  1  0  0  0  0  0  0
  194.1510  173.0890  138.8680 O   0  0  0  0  0  0  0  0  0  0  0  0
  192.2880  174.6350  136.2300 C   0  0  1  0  0  3  0  0  0  0  0  0
  192.7460  173.8560  135.0130 C   0  0  0  0  0  1  0  0  0  0  0  0
  192.2460  173.7120  137.4390 C   0  0  1  0  0  3  0  0  0  0  0  0
  194.1650  175.2430  137.6780 C   0  0  0  0  0  2  0  0  0  0  0  0
  193.3660  174.1570  138.3750 C   0  0  2  0  0  3  0  0  0  0  0  0
  193.2800  175.7370  136.5460 C   0  0  0  0  0  2  0  0  0  0  0  0
  189.8730  174.1290  137.2530 O   0  0  0  0  0  1  0  0  0  0  0  0
  190.8920  173.7790  138.1460 C   0  0  0  0  0  2  0  0  0  0  0  0
  4 41  1  1  0  0  0
  4  1  1  0  0  0  0
  5  1  1  1  0  0  0
  5 16  1  0  0  0  0
  5 13  1  0  0  0  0
  6 17  1  0  0  0  0
  6 12  1  0  0  0  0
  7  4  1  0  0  0  0
  8 10  1  0  0  0  0
 10  9  2  0  0  0  0
 10 20  1  0  0  0  0
 11  8  1  0  0  0  0
 12 28  1  6  0  0  0
 12 19  1  0  0  0  0
 13 14  1  0  0  0  0
 13  3  2  0  0  0  0
 14 18  1  1  0  0  0
 14  9  1  0  0  0  0
 15 26  1  1  0  0  0
 15  7  1  0  0  0  0
 15  2  1  0  0  0  0
 16 11  1  0  0  0  0
 17  2  1  0  0  0  0
 19 11  2  0  0  0  0
 20 23  2  0  0  0  0
 21 23  1  0  0  0  0
 23 22  1  0  0  0  0
 24 26  1  0  0  0  0
 26 25  1  0  0  0  0
 27 26  1  0  0  0  0
 28 29  1  0  0  0  0
 30 32  1  0  0  0  0
 30 33  1  1  0  0  0
 31 29  1  6  0  0  0
 31 30  1  0  0  0  0
 31 32  1  0  0  0  0
 33 34  1  0  0  0  0
 35 34  1  0  0  0  0
 36 37  2  0  0  0  0
 37 38  1  0  0  0  0
 38 35  1  0  0  0  0
 39 37  1  0  0  0  0
 40 39  1  0  0  0  0
 41 45  1  6  0  0  0
 41 42  1  0  0  0  0
 42 44  1  0  0  0  0
 43 42  2  0  0  0  0
 46 47  1  6  0  0  0
 46 51  1  0  0  0  0
 46 48  1  0  0  0  0
 48 53  1  1  0  0  0
 48 50  1  0  0  0  0
 49 50  1  0  0  0  0
 50 45  1  6  0  0  0
 51 49  1  0  0  0  0
 52 53  1  0  0  0  0
M  END
>  <MODEL>
4

>  <REMARK>
 VINA RESULT:      -6.4      3.466      6.221
  Name = 
  15 active torsions:
  status: ('A' for Active; 'I' for Inactive)
    1  A    between atoms: C_1  and  C_15
    2  A    between atoms: C_1  and  C_37
    3  A    between atoms: N_2  and  C_35
    4  A    between atoms: C_5  and  C_12
    5  A    between atoms: C_5  and  C_32
    6  A    between atoms: C_10  and  C_13
    7  A    between atoms: C_10  and  C_17
    8  A    between atoms: C_10  and  O_52
    9  A    between atoms: C_15  and  C_23
   10  A    between atoms: C_18  and  C_33
   11  A    between atoms: C_26  and  C_28
   12  A    between atoms: C_31  and  C_40
   13  A    between atoms: C_32  and  C_43
   14  A    between atoms: C_42  and  O_52
   15  A    between atoms: C_43  and  N_48
                            x       y       z     vdW  Elec       q    Type
                         _______ _______ _______ _____ _____    ______ ____

>  <TORSDO>
F 15

$$$$
=
 OpenBabel11042418143D

 53 56  0  0  1  0  0  0  0  0999 V2000
  192.2500  173.7540  145.7660 C   0  0  0  0  0  2  0  0  0  0  0  0
  191.8600  171.2100  144.1830 C   0  0  0  0  0  2  0  0  0  0  0  0
  189.9250  174.7420  147.0270 O   0  0  0  0  0  0  0  0  0  0  0  0
  193.4600  173.4450  145.2710 C   0  0  1  0  0  3  0  0  0  0  0  0
  191.4090  174.8440  145.2000 C   0  0  2  0  0  3  0  0  0  0  0  0
  191.4800  172.4530  142.1350 O   0  0  0  0  0  0  0  0  0  0  0  0
  193.9110  172.0340  145.4390 C   0  0  0  0  0  2  0  0  0  0  0  0
  189.8150  176.3790  143.0950 C   0  0  0  0  0  2  0  0  0  0  0  0
  188.7560  176.8700  145.2480 N   0  0  0  0  0  0  0  0  0  0  0  0
  188.6170  176.6550  143.9720 C   0  0  0  0  0  0  0  0  0  0  0  0
  190.0970  174.9090  143.0210 C   0  0  0  0  0  0  0  0  0  0  0  0
  190.1790  172.7750  141.7050 C   0  0  1  0  0  3  0  0  0  0  0  0
  190.4710  175.4420  146.1920 C   0  0  0  0  0  0  0  0  0  0  0  0
  190.0240  176.8570  145.9670 C   0  0  2  0  0  3  0  0  0  0  0  0
  193.3870  171.1240  144.3280 C   0  0  1  0  0  3  0  0  0  0  0  0
  190.6390  174.2200  144.1380 N   0  0  0  0  0  2  0  0  0  0  0  0
  191.4020  171.1830  142.7280 C   0  0  0  0  0  2  0  0  0  0  0  0
  189.8700  177.5860  147.2880 C   0  0  0  0  0  1  0  0  0  0  0  0
  189.8990  174.2480  141.8810 C   0  0  0  0  0  3  0  0  0  0  0  0
  187.2800  176.6090  143.4430 N   0  0  0  0  0  0  0  0  0  0  0  0
  187.3250  178.6940  142.3080 N   0  0  0  0  0  1  0  0  0  0  0  0
  185.3570  177.2340  142.2480 N   0  0  0  0  0  1  0  0  0  0  0  0
  186.6990  177.4720  142.6640 C   0  0  0  0  0  0  0  0  0  0  0  0
  192.6590  168.9010  144.8010 F   0  0  0  0  0  0  0  0  0  0  0  0
  194.5510  169.6120  145.7870 F   0  0  0  0  0  0  0  0  0  0  0  0
  193.7880  169.6740  144.6280 C   0  0  0  0  0  0  0  0  0  0  0  0
  194.5390  169.1600  143.5670 F   0  0  0  0  0  0  0  0  0  0  0  0
  190.0230  172.4470  140.2250 C   0  0  0  0  0  2  0  0  0  0  0  0
  189.4440  173.6050  139.4360 C   0  0  0  0  0  2  0  0  0  0  0  0
  189.3190  172.6740  137.2030 C   0  0  1  0  0  3  0  0  0  0  0  0
  190.0270  173.6400  138.0350 C   0  0  1  0  0  3  0  0  0  0  0  0
  188.9990  174.1050  137.0890 N   0  0  0  0  0  2  0  0  0  0  0  0
  190.2010  172.2640  136.0350 C   0  0  0  0  0  2  0  0  0  0  0  0
  190.1380  170.7560  135.8190 C   0  0  0  0  0  2  0  0  0  0  0  0
  191.4870  170.0950  136.0870 C   0  0  0  0  0  2  0  0  0  0  0  0
  192.2130  169.5800  139.6350 O   0  0  0  0  0  0  0  0  0  0  0  0
  192.2290  170.1240  138.5030 C   0  0  0  0  0  0  0  0  0  0  0  0
  191.5100  169.5240  137.4280 N   0  0  0  0  0  2  0  0  0  0  0  0
  193.0300  171.3640  138.3020 C   0  0  0  0  0  2  0  0  0  0  0  0
  193.8200  171.6770  139.5650 C   0  0  0  0  0  1  0  0  0  0  0  0
  194.2760  174.3610  144.3900 C   0  0  1  0  0  3  0  0  0  0  0  0
  194.8910  175.5070  145.1300 C   0  0  0  0  0  0  0  0  0  0  0  0
  195.1240  175.4010  146.3680 O   0  0  0  0  0  1  0  0  0  0  0  0
  195.1510  176.7060  144.4740 O   0  0  0  0  0  0  0  0  0  0  0  0
  195.2450  173.6400  143.6770 O   0  0  0  0  0  0  0  0  0  0  0  0
  195.6950  175.5410  140.6760 C   0  0  1  0  0  3  0  0  0  0  0  0
  196.1230  176.8930  141.2130 C   0  0  0  0  0  1  0  0  0  0  0  0
  196.2430  174.4410  141.5740 C   0  0  1  0  0  3  0  0  0  0  0  0
  193.8090  174.6190  141.9350 C   0  0  0  0  0  2  0  0  0  0  0  0
  195.0480  173.8160  142.2890 C   0  0  2  0  0  3  0  0  0  0  0  0
  194.1830  175.4250  140.7020 C   0  0  0  0  0  2  0  0  0  0  0  0
  196.9610  173.6750  139.3980 O   0  0  0  0  0  1  0  0  0  0  0  0
  197.0020  173.3880  140.7670 C   0  0  0  0  0  2  0  0  0  0  0  0
  2 15  1  0  0  0  0
  4 41  1  6  0  0  0
  4  7  1  0  0  0  0
  4  1  1  0  0  0  0
  5  1  1  1  0  0  0
  5 13  1  0  0  0  0
  6 17  1  0  0  0  0
  8 10  1  0  0  0  0
  9 14  1  0  0  0  0
 10  9  2  0  0  0  0
 11  8  1  0  0  0  0
 11 16  1  0  0  0  0
 12 28  1  6  0  0  0
 12 19  1  0  0  0  0
 12  6  1  0  0  0  0
 13  3  2  0  0  0  0
 14 13  1  0  0  0  0
 14 18  1  1  0  0  0
 15 26  1  1  0  0  0
 15  7  1  0  0  0  0
 16  5  1  0  0  0  0
 17  2  1  0  0  0  0
 19 11  2  0  0  0  0
 20 10  1  0  0  0  0
 21 23  1  0  0  0  0
 22 23  1  0  0  0  0
 23 20  2  0  0  0  0
 26 24  1  0  0  0  0
 26 25  1  0  0  0  0
 27 26  1  0  0  0  0
 29 28  1  0  0  0  0
 30 33  1  6  0  0  0
 30 31  1  0  0  0  0
 31 29  1  1  0  0  0
 32 30  1  0  0  0  0
 32 31  1  0  0  0  0
 34 33  1  0  0  0  0
 34 35  1  0  0  0  0
 35 38  1  0  0  0  0
 37 36  2  0  0  0  0
 38 37  1  0  0  0  0
 39 37  1  0  0  0  0
 39 40  1  0  0  0  0
 41 45  1  1  0  0  0
 41 42  1  0  0  0  0
 42 43  1  0  0  0  0
 44 42  2  0  0  0  0
 46 51  1  0  0  0  0
 46 47  1  1  0  0  0
 46 48  1  0  0  0  0
 48 53  1  6  0  0  0
 48 50  1  0  0  0  0
 49 50  1  0  0  0  0
 50 45  1  1  0  0  0
 51 49  1  0  0  0  0
 52 53  1  0  0  0  0
M  END
>  <MODEL>
5

>  <REMARK>
 VINA RESULT:      -6.3      3.148      7.540
  Name = 
  15 active torsions:
  status: ('A' for Active; 'I' for Inactive)
    1  A    between atoms: C_1  and  C_15
    2  A    between atoms: C_1  and  C_37
    3  A    between atoms: N_2  and  C_35
    4  A    between atoms: C_5  and  C_12
    5  A    between atoms: C_5  and  C_32
    6  A    between atoms: C_10  and  C_13
    7  A    between atoms: C_10  and  C_17
    8  A    between atoms: C_10  and  O_52
    9  A    between atoms: C_15  and  C_23
   10  A    between atoms: C_18  and  C_33
   11  A    between atoms: C_26  and  C_28
   12  A    between atoms: C_31  and  C_40
   13  A    between atoms: C_32  and  C_43
   14  A    between atoms: C_42  and  O_52
   15  A    between atoms: C_43  and  N_48
                            x       y       z     vdW  Elec       q    Type
                         _______ _______ _______ _____ _____    ______ ____

>  <TORSDO>
F 15

$$$$
=
 OpenBabel11042418143D

 53 56  0  0  1  0  0  0  0  0999 V2000
  194.0220  172.6050  141.1540 C   0  0  0  0  0  2  0  0  0  0  0  0
  191.4050  171.1360  141.5020 C   0  0  0  0  0  2  0  0  0  0  0  0
  195.3890  173.1920  143.5530 O   0  0  0  0  0  0  0  0  0  0  0  0
  193.5490  172.4070  139.9120 C   0  0  1  0  0  3  0  0  0  0  0  0
  193.9610  173.9290  141.8310 C   0  0  2  0  0  3  0  0  0  0  0  0
  190.1530  173.2120  141.5110 O   0  0  0  0  0  0  0  0  0  0  0  0
  193.0750  171.0310  139.5880 C   0  0  0  0  0  2  0  0  0  0  0  0
  192.6880  176.4420  143.0120 C   0  0  0  0  0  2  0  0  0  0  0  0
  194.7180  176.0250  144.3170 N   0  0  0  0  0  0  0  0  0  0  0  0
  193.4830  176.4350  144.2960 C   0  0  0  0  0  0  0  0  0  0  0  0
  191.9600  175.1460  142.8260 C   0  0  0  0  0  0  0  0  0  0  0  0
  189.8110  173.8560  142.7160 C   0  0  1  0  0  3  0  0  0  0  0  0
  195.0310  174.1210  142.8510 C   0  0  0  0  0  0  0  0  0  0  0  0
  195.4560  175.5260  143.1630 C   0  0  2  0  0  3  0  0  0  0  0  0
  191.6260  170.8010  140.0190 C   0  0  1  0  0  3  0  0  0  0  0  0
  192.6670  173.9610  142.4910 N   0  0  0  0  0  2  0  0  0  0  0  0
  190.0730  171.8330  141.7580 C   0  0  0  0  0  2  0  0  0  0  0  0
  196.9440  175.5850  143.4440 C   0  0  0  0  0  1  0  0  0  0  0  0
  190.6300  175.1090  142.9130 C   0  0  0  0  0  3  0  0  0  0  0  0
  192.8790  176.8040  145.5470 N   0  0  0  0  0  0  0  0  0  0  0  0
  192.2830  174.6180  146.2580 N   0  0  0  0  0  1  0  0  0  0  0  0
  191.8300  176.5920  147.6380 N   0  0  0  0  0  1  0  0  0  0  0  0
  192.3840  176.0180  146.4580 C   0  0  0  0  0  0  0  0  0  0  0  0
  190.3770  168.9010  140.7440 F   0  0  0  0  0  0  0  0  0  0  0  0
  192.3790  168.5330  139.7870 F   0  0  0  0  0  0  0  0  0  0  0  0
  191.2470  169.3380  139.7650 C   0  0  0  0  0  0  0  0  0  0  0  0
  190.6310  169.2150  138.5170 F   0  0  0  0  0  0  0  0  0  0  0  0
  188.3430  174.2620  142.6910 C   0  0  0  0  0  2  0  0  0  0  0  0
  188.1610  175.7620  142.5590 C   0  0  0  0  0  2  0  0  0  0  0  0
  186.4890  177.4940  142.8280 C   0  0  1  0  0  3  0  0  0  0  0  0
  186.6910  176.1110  142.4120 C   0  0  1  0  0  3  0  0  0  0  0  0
  186.5380  177.1630  141.3950 N   0  0  0  0  0  2  0  0  0  0  0  0
  185.0420  177.6940  143.2460 C   0  0  0  0  0  2  0  0  0  0  0  0
  184.8510  179.0680  143.8780 C   0  0  0  0  0  2  0  0  0  0  0  0
  185.8970  179.3390  144.9570 C   0  0  0  0  0  2  0  0  0  0  0  0
  186.1280  177.1630  147.8880 O   0  0  0  0  0  0  0  0  0  0  0  0
  186.4830  177.7590  146.8410 C   0  0  0  0  0  0  0  0  0  0  0  0
  185.5580  178.6180  146.1780 N   0  0  0  0  0  2  0  0  0  0  0  0
  187.8500  177.5250  146.2970 C   0  0  0  0  0  2  0  0  0  0  0  0
  188.2050  176.0500  146.4180 C   0  0  0  0  0  1  0  0  0  0  0  0
  193.2750  173.5130  138.9220 C   0  0  1  0  0  3  0  0  0  0  0  0
  194.4890  174.3160  138.5740 C   0  0  0  0  0  0  0  0  0  0  0  0
  195.4800  173.7510  138.0280 O   0  0  0  0  0  0  0  0  0  0  0  0
  194.5550  175.6650  138.9060 O   0  0  0  0  0  1  0  0  0  0  0  0
  192.6520  173.0120  137.7690 O   0  0  0  0  0  0  0  0  0  0  0  0
  189.7060  173.5990  135.8200 C   0  0  1  0  0  3  0  0  0  0  0  0
  189.9290  172.6980  134.6210 C   0  0  0  0  0  1  0  0  0  0  0  0
  190.2950  172.9460  137.0620 C   0  0  1  0  0  3  0  0  0  0  0  0
  191.7300  174.8440  136.4090 C   0  0  0  0  0  2  0  0  0  0  0  0
  191.5050  173.7820  137.4710 C   0  0  2  0  0  3  0  0  0  0  0  0
  190.4300  174.9160  135.6230 C   0  0  0  0  0  2  0  0  0  0  0  0
  188.8420  174.1640  138.5600 O   0  0  0  0  0  1  0  0  0  0  0  0
  189.2730  172.8840  138.1970 C   0  0  0  0  0  2  0  0  0  0  0  0
  2 17  1  0  0  0  0
  4 41  1  1  0  0  0
  4  1  1  0  0  0  0
  5  1  1  1  0  0  0
  5 16  1  0  0  0  0
  5 13  1  0  0  0  0
  6 17  1  0  0  0  0
  6 12  1  0  0  0  0
  7  4  1  0  0  0  0
  7 15  1  0  0  0  0
  8 10  1  0  0  0  0
 10  9  2  0  0  0  0
 10 20  1  0  0  0  0
 11 19  2  0  0  0  0
 11  8  1  0  0  0  0
 12 28  1  6  0  0  0
 12 19  1  0  0  0  0
 13 14  1  0  0  0  0
 13  3  2  0  0  0  0
 14 18  1  1  0  0  0
 14  9  1  0  0  0  0
 15 26  1  1  0  0  0
 15  2  1  0  0  0  0
 16 11  1  0  0  0  0
 20 23  2  0  0  0  0
 21 23  1  0  0  0  0
 23 22  1  0  0  0  0
 26 25  1  0  0  0  0
 26 24  1  0  0  0  0
 27 26  1  0  0  0  0
 29 28  1  0  0  0  0
 30 33  1  6  0  0  0
 31 29  1  1  0  0  0
 31 30  1  0  0  0  0
 32 31  1  0  0  0  0
 32 30  1  0  0  0  0
 33 34  1  0  0  0  0
 34 35  1  0  0  0  0
 35 38  1  0  0  0  0
 37 36  2  0  0  0  0
 38 37  1  0  0  0  0
 39 40  1  0  0  0  0
 39 37  1  0  0  0  0
 41 45  1  6  0  0  0
 42 44  1  0  0  0  0
 42 41  1  0  0  0  0
 43 42  2  0  0  0  0
 46 47  1  6  0  0  0
 46 48  1  0  0  0  0
 48 50  1  0  0  0  0
 48 53  1  1  0  0  0
 49 50  1  0  0  0  0
 50 45  1  6  0  0  0
 51 46  1  0  0  0  0
 51 49  1  0  0  0  0
 53 52  1  0  0  0  0
M  END
>  <MODEL>
6

>  <REMARK>
 VINA RESULT:      -6.3      3.519      6.152
  Name = 
  15 active torsions:
  status: ('A' for Active; 'I' for Inactive)
    1  A    between atoms: C_1  and  C_15
    2  A    between atoms: C_1  and  C_37
    3  A    between atoms: N_2  and  C_35
    4  A    between atoms: C_5  and  C_12
    5  A    between atoms: C_5  and  C_32
    6  A    between atoms: C_10  and  C_13
    7  A    between atoms: C_10  and  C_17
    8  A    between atoms: C_10  and  O_52
    9  A    between atoms: C_15  and  C_23
   10  A    between atoms: C_18  and  C_33
   11  A    between atoms: C_26  and  C_28
   12  A    between atoms: C_31  and  C_40
   13  A    between atoms: C_32  and  C_43
   14  A    between atoms: C_42  and  O_52
   15  A    between atoms: C_43  and  N_48
                            x       y       z     vdW  Elec       q    Type
                         _______ _______ _______ _____ _____    ______ ____

>  <TORSDO>
F 15

$$$$
=
 OpenBabel11042418143D

 53 56  0  0  1  0  0  0  0  0999 V2000
  195.2930  174.6330  141.5140 C   0  0  0  0  0  2  0  0  0  0  0  0
  193.1570  175.9770  143.1760 C   0  0  0  0  0  2  0  0  0  0  0  0
  195.2610  175.2940  138.7690 O   0  0  0  0  0  0  0  0  0  0  0  0
  195.4910  174.2080  142.7730 C   0  0  1  0  0  3  0  0  0  0  0  0
  194.6670  173.7760  140.4710 C   0  0  2  0  0  3  0  0  0  0  0  0
  191.6560  174.0900  142.9110 O   0  0  0  0  0  0  0  0  0  0  0  0
  195.5020  175.2510  143.8370 C   0  0  0  0  0  2  0  0  0  0  0  0
  192.5250  172.0500  139.1440 C   0  0  0  0  0  2  0  0  0  0  0  0
  193.7670  173.1170  137.3230 N   0  0  0  0  0  0  0  0  0  0  0  0
  192.6260  172.6900  137.7800 C   0  0  0  0  0  0  0  0  0  0  0  0
  192.2350  173.0760  140.1970 C   0  0  0  0  0  0  0  0  0  0  0  0
  190.6800  174.0690  141.8960 C   0  0  1  0  0  3  0  0  0  0  0  0
  195.0870  174.1300  139.0850 C   0  0  0  0  0  0  0  0  0  0  0  0
  195.0350  173.0530  138.0420 C   0  0  2  0  0  3  0  0  0  0  0  0
  194.0940  175.5910  144.3300 C   0  0  1  0  0  3  0  0  0  0  0  0
  193.2370  173.9980  140.6010 N   0  0  0  0  0  2  0  0  0  0  0  0
  191.7470  175.4210  143.3490 C   0  0  0  0  0  2  0  0  0  0  0  0
  196.1840  173.1980  137.0630 C   0  0  0  0  0  1  0  0  0  0  0  0
  191.0510  173.0900  140.8080 C   0  0  0  0  0  3  0  0  0  0  0  0
  191.4550  172.9210  136.9770 N   0  0  0  0  0  0  0  0  0  0  0  0
  191.4370  170.8320  135.8490 N   0  0  0  0  0  1  0  0  0  0  0  0
  189.7150  172.5290  135.4490 N   0  0  0  0  0  1  0  0  0  0  0  0
  190.8780  172.0990  136.1510 C   0  0  0  0  0  0  0  0  0  0  0  0
  194.2790  176.2530  146.6150 F   0  0  0  0  0  0  0  0  0  0  0  0
  193.0290  177.5350  145.2530 F   0  0  0  0  0  0  0  0  0  0  0  0
  194.1720  176.7490  145.3320 C   0  0  0  0  0  0  0  0  0  0  0  0
  195.2860  177.5450  145.0530 F   0  0  0  0  0  0  0  0  0  0  0  0
  189.3390  173.6330  142.4730 C   0  0  0  0  0  2  0  0  0  0  0  0
  188.2060  174.5500  142.0550 C   0  0  0  0  0  2  0  0  0  0  0  0
  188.2970  176.8720  142.7400 C   0  0  1  0  0  3  0  0  0  0  0  0
  187.8840  175.5380  143.1620 C   0  0  1  0  0  3  0  0  0  0  0  0
  186.8760  176.4970  142.6820 N   0  0  0  0  0  2  0  0  0  0  0  0
  188.5360  177.7410  143.9640 C   0  0  0  0  0  2  0  0  0  0  0  0
  187.3390  177.6820  144.9060 C   0  0  0  0  0  2  0  0  0  0  0  0
  187.7770  177.5350  146.3600 C   0  0  0  0  0  2  0  0  0  0  0  0
  188.9440  174.1890  147.2710 O   0  0  0  0  0  0  0  0  0  0  0  0
  189.0000  175.4010  146.9470 C   0  0  0  0  0  0  0  0  0  0  0  0
  187.7910  176.1280  146.7420 N   0  0  0  0  0  2  0  0  0  0  0  0
  190.3310  176.0420  146.7490 C   0  0  0  0  0  2  0  0  0  0  0  0
  191.2540  175.6750  147.9030 C   0  0  0  0  0  1  0  0  0  0  0  0
  195.4880  172.7570  143.1890 C   0  0  1  0  0  3  0  0  0  0  0  0
  196.3890  172.4680  144.3490 C   0  0  0  0  0  0  0  0  0  0  0  0
  195.9400  172.5510  145.5280 O   0  0  0  0  0  1  0  0  0  0  0  0
  197.7310  172.1690  144.1360 O   0  0  0  0  0  0  0  0  0  0  0  0
  194.1820  172.3080  143.4390 O   0  0  0  0  0  0  0  0  0  0  0  0
  192.6360  169.2370  142.4410 C   0  0  1  0  0  3  0  0  0  0  0  0
  191.2530  169.6950  142.0210 C   0  0  0  0  0  1  0  0  0  0  0  0
  193.6540  170.3140  142.0960 C   0  0  1  0  0  3  0  0  0  0  0  0
  193.3370  170.2780  144.5430 C   0  0  0  0  0  2  0  0  0  0  0  0
  194.1490  170.8950  143.4180 C   0  0  2  0  0  3  0  0  0  0  0  0
  192.6860  169.0420  143.9440 C   0  0  0  0  0  2  0  0  0  0  0  0
  195.8920  169.4020  142.1180 O   0  0  0  0  0  1  0  0  0  0  0  0
  194.8190  169.7420  141.2880 C   0  0  0  0  0  2  0  0  0  0  0  0
  1  4  1  0  0  0  0
  2 17  1  0  0  0  0
  2 15  1  0  0  0  0
  3 13  2  0  0  0  0
  4 41  1  1  0  0  0
  4  7  1  0  0  0  0
  5 16  1  0  0  0  0
  5  1  1  1  0  0  0
  6 17  1  0  0  0  0
  7 15  1  0  0  0  0
  8 11  1  0  0  0  0
  9 10  2  0  0  0  0
  9 14  1  0  0  0  0
 10  8  1  0  0  0  0
 11 16  1  0  0  0  0
 11 19  2  0  0  0  0
 12 28  1  1  0  0  0
 12  6  1  0  0  0  0
 13  5  1  0  0  0  0
 14 18  1  6  0  0  0
 14 13  1  0  0  0  0
 15 26  1  1  0  0  0
 19 12  1  0  0  0  0
 20 10  1  0  0  0  0
 21 23  1  0  0  0  0
 22 23  1  0  0  0  0
 23 20  2  0  0  0  0
 25 26  1  0  0  0  0
 26 24  1  0  0  0  0
 27 26  1  0  0  0  0
 29 28  1  0  0  0  0
 30 31  1  0  0  0  0
 30 33  1  1  0  0  0
 31 29  1  6  0  0  0
 32 30  1  0  0  0  0
 32 31  1  0  0  0  0
 33 34  1  0  0  0  0
 34 35  1  0  0  0  0
 35 38  1  0  0  0  0
 37 36  2  0  0  0  0
 38 37  1  0  0  0  0
 39 37  1  0  0  0  0
 39 40  1  0  0  0  0
 41 45  1  1  0  0  0
 41 42  1  0  0  0  0
 42 43  1  0  0  0  0
 44 42  2  0  0  0  0
 46 47  1  1  0  0  0
 46 51  1  0  0  0  0
 48 53  1  1  0  0  0
 48 46  1  0  0  0  0
 48 50  1  0  0  0  0
 50 45  1  6  0  0  0
 50 49  1  0  0  0  0
 51 49  1  0  0  0  0
 53 52  1  0  0  0  0
M  END
>  <MODEL>
7

>  <REMARK>
 VINA RESULT:      -6.2      2.084      2.880
  Name = 
  15 active torsions:
  status: ('A' for Active; 'I' for Inactive)
    1  A    between atoms: C_1  and  C_15
    2  A    between atoms: C_1  and  C_37
    3  A    between atoms: N_2  and  C_35
    4  A    between atoms: C_5  and  C_12
    5  A    between atoms: C_5  and  C_32
    6  A    between atoms: C_10  and  C_13
    7  A    between atoms: C_10  and  C_17
    8  A    between atoms: C_10  and  O_52
    9  A    between atoms: C_15  and  C_23
   10  A    between atoms: C_18  and  C_33
   11  A    between atoms: C_26  and  C_28
   12  A    between atoms: C_31  and  C_40
   13  A    between atoms: C_32  and  C_43
   14  A    between atoms: C_42  and  O_52
   15  A    between atoms: C_43  and  N_48
                            x       y       z     vdW  Elec       q    Type
                         _______ _______ _______ _____ _____    ______ ____

>  <TORSDO>
F 15

$$$$
=
 OpenBabel11042418143D

 53 56  0  0  1  0  0  0  0  0999 V2000
  191.2010  173.7830  144.9890 C   0  0  0  0  0  2  0  0  0  0  0  0
  190.5090  171.4730  143.1690 C   0  0  0  0  0  2  0  0  0  0  0  0
  189.0920  174.6760  146.6400 O   0  0  0  0  0  0  0  0  0  0  0  0
  192.3290  173.5020  144.3140 C   0  0  1  0  0  3  0  0  0  0  0  0
  190.3510  174.9610  144.6690 C   0  0  2  0  0  3  0  0  0  0  0  0
  189.9460  172.9750  141.3510 O   0  0  0  0  0  0  0  0  0  0  0  0
  192.7310  172.0680  144.2520 C   0  0  0  0  0  2  0  0  0  0  0  0
  188.5900  176.7990  142.9800 C   0  0  0  0  0  2  0  0  0  0  0  0
  187.8190  177.0470  145.2910 N   0  0  0  0  0  0  0  0  0  0  0  0
  187.5190  176.9990  144.0250 C   0  0  0  0  0  0  0  0  0  0  0  0
  188.7930  175.3420  142.6930 C   0  0  0  0  0  0  0  0  0  0  0  0
  188.6180  173.3890  141.1280 C   0  0  1  0  0  3  0  0  0  0  0  0
  189.5660  175.4580  145.8350 C   0  0  0  0  0  0  0  0  0  0  0  0
  189.1620  176.9030  145.8400 C   0  0  2  0  0  3  0  0  0  0  0  0
  192.0360  171.3210  143.1120 C   0  0  1  0  0  3  0  0  0  0  0  0
  189.4320  174.5010  143.6420 N   0  0  0  0  0  2  0  0  0  0  0  0
  189.8800  171.6440  141.7900 C   0  0  0  0  0  2  0  0  0  0  0  0
  189.2000  177.4650  147.2480 C   0  0  0  0  0  1  0  0  0  0  0  0
  188.4300  174.8370  141.5140 C   0  0  0  0  0  3  0  0  0  0  0  0
  186.1290  177.0620  143.6640 N   0  0  0  0  0  0  0  0  0  0  0  0
  186.0800  179.3450  143.0160 N   0  0  0  0  0  1  0  0  0  0  0  0
  184.0900  177.9220  142.8760 N   0  0  0  0  0  1  0  0  0  0  0  0
  185.4760  178.0710  143.1690 C   0  0  0  0  0  0  0  0  0  0  0  0
  192.4010  169.4110  144.4950 F   0  0  0  0  0  0  0  0  0  0  0  0
  193.6670  169.6210  142.6480 F   0  0  0  0  0  0  0  0  0  0  0  0
  192.4030  169.8340  143.1820 C   0  0  0  0  0  0  0  0  0  0  0  0
  191.4750  169.0810  142.4560 F   0  0  0  0  0  0  0  0  0  0  0  0
  188.2730  173.2560  139.6500 C   0  0  0  0  0  2  0  0  0  0  0  0
  189.3890  173.7490  138.7500 C   0  0  0  0  0  2  0  0  0  0  0  0
  189.4990  172.6040  136.6170 C   0  0  1  0  0  3  0  0  0  0  0  0
  190.0070  172.5920  137.9850 C   0  0  1  0  0  3  0  0  0  0  0  0
  190.8480  173.1190  136.8980 N   0  0  0  0  0  2  0  0  0  0  0  0
  189.6090  171.2100  136.0210 C   0  0  0  0  0  2  0  0  0  0  0  0
  191.0710  170.8000  135.8830 C   0  0  0  0  0  2  0  0  0  0  0  0
  191.2800  169.3360  136.2630 C   0  0  0  0  0  2  0  0  0  0  0  0
  190.2960  168.6440  139.7170 O   0  0  0  0  0  0  0  0  0  0  0  0
  191.0360  168.9420  138.7480 C   0  0  0  0  0  0  0  0  0  0  0  0
  190.4820  169.0020  137.4360 N   0  0  0  0  0  2  0  0  0  0  0  0
  192.4860  169.1910  138.9870 C   0  0  0  0  0  2  0  0  0  0  0  0
  192.6850  170.6040  139.5180 C   0  0  0  0  0  1  0  0  0  0  0  0
  193.0750  174.4950  143.4570 C   0  0  1  0  0  3  0  0  0  0  0  0
  192.4810  174.6700  142.0940 C   0  0  0  0  0  0  0  0  0  0  0  0
  191.7580  175.6780  141.8490 O   0  0  0  0  0  1  0  0  0  0  0  0
  192.6720  173.6980  141.1170 O   0  0  0  0  0  0  0  0  0  0  0  0
  193.2050  175.7280  144.1140 O   0  0  0  0  0  0  0  0  0  0  0  0
  196.4860  174.4100  144.6840 C   0  0  1  0  0  3  0  0  0  0  0  0
  196.3320  172.9660  144.2500 C   0  0  0  0  0  1  0  0  0  0  0  0
  195.6100  175.2990  143.8120 C   0  0  1  0  0  3  0  0  0  0  0  0
  194.6000  175.1510  146.0580 C   0  0  0  0  0  2  0  0  0  0  0  0
  194.4870  175.8250  144.7010 C   0  0  2  0  0  3  0  0  0  0  0  0
  196.0070  174.5790  146.1130 C   0  0  0  0  0  2  0  0  0  0  0  0
  197.7750  176.1490  143.1570 O   0  0  0  0  0  1  0  0  0  0  0  0
  196.4110  176.4550  143.2120 C   0  0  0  0  0  2  0  0  0  0  0  0
  4 41  1  6  0  0  0
  4  1  1  0  0  0  0
  5  1  1  1  0  0  0
  5 13  1  0  0  0  0
  6 17  1  0  0  0  0
  7  4  1  0  0  0  0
  8 10  1  0  0  0  0
  9 14  1  0  0  0  0
 10  9  2  0  0  0  0
 11  8  1  0  0  0  0
 11 16  1  0  0  0  0
 12 28  1  6  0  0  0
 12  6  1  0  0  0  0
 12 19  1  0  0  0  0
 13 14  1  0  0  0  0
 13  3  2  0  0  0  0
 14 18  1  1  0  0  0
 15  2  1  0  0  0  0
 15 26  1  1  0  0  0
 15  7  1  0  0  0  0
 16  5  1  0  0  0  0
 17  2  1  0  0  0  0
 19 11  2  0  0  0  0
 20 10  1  0  0  0  0
 21 23  1  0  0  0  0
 22 23  1  0  0  0  0
 23 20  2  0  0  0  0
 25 26  1  0  0  0  0
 26 24  1  0  0  0  0
 27 26  1  0  0  0  0
 29 28  1  0  0  0  0
 30 33  1  6  0  0  0
 30 32  1  0  0  0  0
 30 31  1  0  0  0  0
 31 29  1  1  0  0  0
 32 31  1  0  0  0  0
 34 33  1  0  0  0  0
 34 35  1  0  0  0  0
 35 38  1  0  0  0  0
 37 39  1  0  0  0  0
 37 36  2  0  0  0  0
 38 37  1  0  0  0  0
 39 40  1  0  0  0  0
 41 42  1  6  0  0  0
 41 45  1  0  0  0  0
 43 42  1  0  0  0  0
 44 42  2  0  0  0  0
 46 47  1  6  0  0  0
 46 51  1  0  0  0  0
 48 53  1  1  0  0  0
 48 46  1  0  0  0  0
 48 50  1  0  0  0  0
 49 51  1  0  0  0  0
 50 45  1  6  0  0  0
 50 49  1  0  0  0  0
 52 53  1  0  0  0  0
M  END
>  <MODEL>
8

>  <REMARK>
 VINA RESULT:      -6.2      3.228      8.030
  Name = 
  15 active torsions:
  status: ('A' for Active; 'I' for Inactive)
    1  A    between atoms: C_1  and  C_15
    2  A    between atoms: C_1  and  C_37
    3  A    between atoms: N_2  and  C_35
    4  A    between atoms: C_5  and  C_12
    5  A    between atoms: C_5  and  C_32
    6  A    between atoms: C_10  and  C_13
    7  A    between atoms: C_10  and  C_17
    8  A    between atoms: C_10  and  O_52
    9  A    between atoms: C_15  and  C_23
   10  A    between atoms: C_18  and  C_33
   11  A    between atoms: C_26  and  C_28
   12  A    between atoms: C_31  and  C_40
   13  A    between atoms: C_32  and  C_43
   14  A    between atoms: C_42  and  O_52
   15  A    between atoms: C_43  and  N_48
                            x       y       z     vdW  Elec       q    Type
                         _______ _______ _______ _____ _____    ______ ____

>  <TORSDO>
F 15

$$$$
=
 OpenBabel11042418143D

 53 56  0  0  1  0  0  0  0  0999 V2000
  191.3220  173.4990  144.5040 C   0  0  0  0  0  2  0  0  0  0  0  0
  190.4930  171.1690  142.7680 C   0  0  0  0  0  2  0  0  0  0  0  0
  189.3010  174.5020  146.2000 O   0  0  0  0  0  0  0  0  0  0  0  0
  192.4160  173.1640  143.7980 C   0  0  1  0  0  3  0  0  0  0  0  0
  190.5000  174.6970  144.1810 C   0  0  2  0  0  3  0  0  0  0  0  0
  189.9160  172.6430  140.9320 O   0  0  0  0  0  0  0  0  0  0  0  0
  192.7690  171.7160  143.7600 C   0  0  0  0  0  2  0  0  0  0  0  0
  188.7410  176.5490  142.5060 C   0  0  0  0  0  2  0  0  0  0  0  0
  188.0590  176.8800  144.8340 N   0  0  0  0  0  0  0  0  0  0  0  0
  187.7140  176.8100  143.5810 C   0  0  0  0  0  0  0  0  0  0  0  0
  188.8870  175.0800  142.2500 C   0  0  0  0  0  0  0  0  0  0  0  0
  188.5960  173.0960  140.7430 C   0  0  1  0  0  3  0  0  0  0  0  0
  189.7720  175.2480  145.3600 C   0  0  0  0  0  0  0  0  0  0  0  0
  189.4150  176.7060  145.3420 C   0  0  2  0  0  3  0  0  0  0  0  0
  192.0110  170.9650  142.6640 C   0  0  1  0  0  3  0  0  0  0  0  0
  189.5310  174.2420  143.1990 N   0  0  0  0  0  2  0  0  0  0  0  0
  189.8220  171.3260  141.4070 C   0  0  0  0  0  2  0  0  0  0  0  0
  189.5190  177.3000  146.7330 C   0  0  0  0  0  1  0  0  0  0  0  0
  188.4670  174.5570  141.0980 C   0  0  0  0  0  3  0  0  0  0  0  0
  186.3150  176.9100  143.2660 N   0  0  0  0  0  0  0  0  0  0  0  0
  186.2520  179.2510  142.8750 N   0  0  0  0  0  1  0  0  0  0  0  0
  184.2570  177.8490  142.6310 N   0  0  0  0  0  1  0  0  0  0  0  0
  185.6510  177.9670  142.9020 C   0  0  0  0  0  0  0  0  0  0  0  0
  192.6840  169.1450  144.0540 F   0  0  0  0  0  0  0  0  0  0  0  0
  193.3880  169.1440  141.9180 F   0  0  0  0  0  0  0  0  0  0  0  0
  192.3320  169.4690  142.7600 C   0  0  0  0  0  0  0  0  0  0  0  0
  191.2130  168.7180  142.3870 F   0  0  0  0  0  0  0  0  0  0  0  0
  188.1950  172.9370  139.2810 C   0  0  0  0  0  2  0  0  0  0  0  0
  188.5680  174.1470  138.4470 C   0  0  0  0  0  2  0  0  0  0  0  0
  189.3680  172.7540  136.6340 C   0  0  1  0  0  3  0  0  0  0  0  0
  189.7460  173.8300  137.5430 C   0  0  1  0  0  3  0  0  0  0  0  0
  189.3910  174.1430  136.1500 N   0  0  0  0  0  2  0  0  0  0  0  0
  190.6160  172.0350  136.1500 C   0  0  0  0  0  2  0  0  0  0  0  0
  191.7370  172.1540  137.1770 C   0  0  0  0  0  2  0  0  0  0  0  0
  193.0370  172.6310  136.5340 C   0  0  0  0  0  2  0  0  0  0  0  0
  194.5530  175.3190  138.4980 O   0  0  0  0  0  0  0  0  0  0  0  0
  193.8260  174.7640  137.6380 C   0  0  0  0  0  0  0  0  0  0  0  0
  193.8490  173.3440  137.5120 N   0  0  0  0  0  2  0  0  0  0  0  0
  192.9830  175.6060  136.7440 C   0  0  0  0  0  2  0  0  0  0  0  0
  193.8580  176.2760  135.6930 C   0  0  0  0  0  1  0  0  0  0  0  0
  193.1630  174.1110  142.8910 C   0  0  1  0  0  3  0  0  0  0  0  0
  193.0130  173.7860  141.4380 C   0  0  0  0  0  0  0  0  0  0  0  0
  193.8550  173.0310  140.8720 O   0  0  0  0  0  1  0  0  0  0  0  0
  191.9870  174.3610  140.6940 O   0  0  0  0  0  0  0  0  0  0  0  0
  192.8070  175.4420  143.1510 O   0  0  0  0  0  0  0  0  0  0  0  0
  195.6980  175.2890  145.2590 C   0  0  1  0  0  3  0  0  0  0  0  0
  195.6480  173.8630  145.7710 C   0  0  0  0  0  1  0  0  0  0  0  0
  195.1710  175.3360  143.8320 C   0  0  1  0  0  3  0  0  0  0  0  0
  193.4970  176.3580  145.3290 C   0  0  0  0  0  2  0  0  0  0  0  0
  193.8390  176.0810  143.8760 C   0  0  2  0  0  3  0  0  0  0  0  0
  194.7960  176.1750  146.0960 C   0  0  0  0  0  2  0  0  0  0  0  0
  196.7230  177.1600  143.5130 O   0  0  0  0  0  1  0  0  0  0  0  0
  196.1540  176.0400  142.8970 C   0  0  0  0  0  2  0  0  0  0  0  0
  4 41  1  6  0  0  0
  4  1  1  0  0  0  0
  5  1  1  1  0  0  0
  5 13  1  0  0  0  0
  6 17  1  0  0  0  0
  7  4  1  0  0  0  0
  8 10  1  0  0  0  0
  9 14  1  0  0  0  0
 10  9  2  0  0  0  0
 11  8  1  0  0  0  0
 11 16  1  0  0  0  0
 12 28  1  6  0  0  0
 12  6  1  0  0  0  0
 12 19  1  0  0  0  0
 13  3  2  0  0  0  0
 14 13  1  0  0  0  0
 14 18  1  1  0  0  0
 15 26  1  1  0  0  0
 15  2  1  0  0  0  0
 15  7  1  0  0  0  0
 16  5  1  0  0  0  0
 17  2  1  0  0  0  0
 19 11  2  0  0  0  0
 20 10  1  0  0  0  0
 21 23  1  0  0  0  0
 22 23  1  0  0  0  0
 23 20  2  0  0  0  0
 25 26  1  0  0  0  0
 26 24  1  0  0  0  0
 27 26  1  0  0  0  0
 29 28  1  0  0  0  0
 30 33  1  6  0  0  0
 30 31  1  0  0  0  0
 31 29  1  1  0  0  0
 32 30  1  0  0  0  0
 32 31  1  0  0  0  0
 33 34  1  0  0  0  0
 35 34  1  0  0  0  0
 35 38  1  0  0  0  0
 37 36  2  0  0  0  0
 38 37  1  0  0  0  0
 39 37  1  0  0  0  0
 40 39  1  0  0  0  0
 41 42  1  6  0  0  0
 41 45  1  0  0  0  0
 43 42  1  0  0  0  0
 44 42  2  0  0  0  0
 46 47  1  1  0  0  0
 46 51  1  0  0  0  0
 48 53  1  6  0  0  0
 48 50  1  0  0  0  0
 48 46  1  0  0  0  0
 49 51  1  0  0  0  0
 50 45  1  1  0  0  0
 50 49  1  0  0  0  0
 53 52  1  0  0  0  0
M  END
>  <MODEL>
9

>  <REMARK>
 VINA RESULT:      -6.1      3.020      7.869
  Name = 
  15 active torsions:
  status: ('A' for Active; 'I' for Inactive)
    1  A    between atoms: C_1  and  C_15
    2  A    between atoms: C_1  and  C_37
    3  A    between atoms: N_2  and  C_35
    4  A    between atoms: C_5  and  C_12
    5  A    between atoms: C_5  and  C_32
    6  A    between atoms: C_10  and  C_13
    7  A    between atoms: C_10  and  C_17
    8  A    between atoms: C_10  and  O_52
    9  A    between atoms: C_15  and  C_23
   10  A    between atoms: C_18  and  C_33
   11  A    between atoms: C_26  and  C_28
   12  A    between atoms: C_31  and  C_40
   13  A    between atoms: C_32  and  C_43
   14  A    between atoms: C_42  and  O_52
   15  A    between atoms: C_43  and  N_48
                            x       y       z     vdW  Elec       q    Type
                         _______ _______ _______ _____ _____    ______ ____

>  <TORSDO>
F 15

$$$$
