=
 OpenBabel11042415133D

 45 47  0  0  1  0  0  0  0  0999 V2000
  188.5540  177.4230  144.3650 C   0  0  0  0  0  3  0  0  0  0  0  0
  187.6970  176.3210  146.1670 N   0  0  0  0  0  0  0  0  0  0  0  0
  189.6500  176.5830  144.9360 C   0  0  1  0  0  3  0  0  0  0  0  0
  188.9250  175.9370  146.0700 C   0  0  0  0  0  0  0  0  0  0  0  0
  187.4640  177.2330  145.1020 C   0  0  0  0  0  0  0  0  0  0  0  0
  183.6820  179.0670  144.3410 C   0  0  0  0  0  3  0  0  0  0  0  0
  184.3370  178.3680  143.3230 C   0  0  0  0  0  0  0  0  0  0  0  0
  185.5730  177.7800  143.6050 C   0  0  0  0  0  3  0  0  0  0  0  0
  184.2420  179.1640  145.5750 N   0  0  0  0  0  0  0  0  0  0  0  0
  186.1470  177.8790  144.8780 C   0  0  0  0  0  0  0  0  0  0  0  0
  185.9660  178.7600  147.1860 N   0  0  0  0  0  1  0  0  0  0  0  0
  185.4410  178.5970  145.8720 C   0  0  0  0  0  0  0  0  0  0  0  0
  182.3170  178.3150  141.8270 N   0  0  0  0  0  2  0  0  0  0  0  0
  183.7370  178.2560  141.9820 C   0  0  0  0  0  0  0  0  0  0  0  0
  184.4770  178.1050  140.9710 O   0  0  0  0  0  0  0  0  0  0  0  0
  181.6790  178.2010  140.5260 C   0  0  0  0  0  2  0  0  0  0  0  0
  180.3360  178.9000  140.5610 C   0  0  0  0  0  1  0  0  0  0  0  0
  190.1210  175.5740  143.9330 C   0  0  0  0  0  0  0  0  0  0  0  0
  189.3030  174.4410  143.6530 N   0  0  0  0  0  2  0  0  0  0  0  0
  191.2350  175.7130  143.3540 O   0  0  0  0  0  0  0  0  0  0  0  0
  188.5280  174.4100  140.9900 O   0  0  0  0  0  0  0  0  0  0  0  0
  190.1410  170.8270  142.1130 O   0  0  0  0  0  0  0  0  0  0  0  0
  189.2710  173.4700  141.3880 C   0  0  0  0  0  0  0  0  0  0  0  0
  189.6660  172.4300  140.4740 N   0  0  0  0  0  0  0  0  0  0  0  0
  191.1480  170.4490  140.0480 N   0  0  0  0  0  0  0  0  0  0  0  0
  189.7170  173.4560  142.7460 N   0  0  0  0  0  2  0  0  0  0  0  0
  189.2810  172.5530  139.0740 C   0  0  0  0  0  1  0  0  0  0  0  0
  191.5830  170.9770  138.8740 O   0  0  0  0  0  1  0  0  0  0  0  0
  190.3180  171.2260  140.9280 C   0  0  0  0  0  0  0  0  0  0  0  0
  192.9470  168.9920  140.2040 C   0  0  0  0  0  1  0  0  0  0  0  0
  190.8380  168.2150  139.5270 C   0  0  0  0  0  1  0  0  0  0  0  0
  191.5150  169.1410  140.4190 N   0  0  0  0  0  0  0  0  0  0  0  0
  189.5540  175.0010  147.0470 C   0  0  0  0  0  2  0  0  0  0  0  0
  190.8120  175.6220  147.6310 C   0  0  0  0  0  2  0  0  0  0  0  0
  192.0310  174.7860  147.2730 C   0  0  0  0  0  2  0  0  0  0  0  0
  193.9610  174.6680  146.0310 N   0  0  0  0  0  2  0  0  0  0  0  0
  195.0120  175.6030  145.6380 C   0  0  2  0  0  3  0  0  0  0  0  0
  194.5810  176.9660  146.1260 C   0  0  0  0  0  2  0  0  0  0  0  0
  192.7850  175.4200  146.2030 N   0  0  0  0  0  0  0  0  0  0  0  0
  193.2020  176.7310  146.6780 C   0  0  0  0  0  2  0  0  0  0  0  0
  195.1840  175.6070  144.1140 C   0  0  1  0  0  3  0  0  0  0  0  0
  196.2280  176.6270  143.6860 C   0  0  0  0  0  1  0  0  0  0  0  0
  195.5640  174.2540  143.5970 C   0  0  0  0  0  0  0  0  0  0  0  0
  194.7830  173.6480  142.6230 O   0  0  0  0  0  0  0  0  0  0  0  0
  196.5820  173.6590  144.0420 O   0  0  0  0  0  1  0  0  0  0  0  0
  1  3  1  0  0  0  0
  1  5  2  0  0  0  0
  3 18  1  6  0  0  0
  3  4  1  0  0  0  0
  4  2  2  0  0  0  0
  4 33  1  0  0  0  0
  5  2  1  0  0  0  0
  6  9  1  0  0  0  0
  7  8  1  0  0  0  0
  7  6  2  0  0  0  0
  8 10  2  0  0  0  0
  9 12  2  0  0  0  0
 10  5  1  0  0  0  0
 10 12  1  0  0  0  0
 12 11  1  0  0  0  0
 13 14  1  0  0  0  0
 14  7  1  0  0  0  0
 15 14  2  0  0  0  0
 16 17  1  0  0  0  0
 16 13  1  0  0  0  0
 19 18  1  0  0  0  0
 20 18  2  0  0  0  0
 21 23  2  0  0  0  0
 23 26  1  0  0  0  0
 24 29  1  0  0  0  0
 24 23  1  0  0  0  0
 25 32  1  0  0  0  0
 25 29  1  0  0  0  0
 26 19  1  0  0  0  0
 27 24  1  0  0  0  0
 28 25  1  0  0  0  0
 29 22  2  0  0  0  0
 30 32  1  0  0  0  0
 31 32  1  0  0  0  0
 33 34  1  0  0  0  0
 35 34  1  0  0  0  0
 36 39  1  0  0  0  0
 37 41  1  6  0  0  0
 37 36  1  0  0  0  0
 37 38  1  0  0  0  0
 38 40  1  0  0  0  0
 39 40  1  0  0  0  0
 39 35  1  0  0  0  0
 41 42  1  1  0  0  0
 43 45  1  0  0  0  0
 43 41  1  0  0  0  0
 44 43  2  0  0  0  0
M  END
>  <MODEL>
1

>  <REMARK>
 VINA RESULT:      -7.8      0.000      0.000
  Name = 
  12 active torsions:
  status: ('A' for Active; 'I' for Inactive)
    1  A    between atoms: C_4  and  C_30
    2  A    between atoms: C_8  and  C_33
    3  A    between atoms: C_9  and  C_20
    4  A    between atoms: N_11  and  N_25
    5  A    between atoms: N_12  and  C_29
    6  A    between atoms: N_15  and  N_22
    7  A    between atoms: C_16  and  C_34
    8  A    between atoms: C_16  and  C_35
    9  A    between atoms: C_20  and  C_23
   10  A    between atoms: C_24  and  C_37
   11  A    between atoms: C_34  and  C_38
   12  A    between atoms: C_38  and  N_43
                            x       y       z     vdW  Elec       q    Type
                         _______ _______ _______ _____ _____    ______ ____

>  <TORSDO>
F 12

$$$$
=
 OpenBabel11042415133D

 45 47  0  0  1  0  0  0  0  0999 V2000
  189.5200  174.4040  144.1030 C   0  0  0  0  0  3  0  0  0  0  0  0
  189.7630  176.4800  143.1930 N   0  0  0  0  0  0  0  0  0  0  0  0
  188.5350  174.5180  142.9860 C   0  0  1  0  0  3  0  0  0  0  0  0
  188.8370  175.9000  142.5070 C   0  0  0  0  0  0  0  0  0  0  0  0
  190.1950  175.5470  144.1760 C   0  0  0  0  0  0  0  0  0  0  0  0
  193.3690  176.3750  146.9110 C   0  0  0  0  0  3  0  0  0  0  0  0
  193.6480  175.7790  145.6780 C   0  0  0  0  0  0  0  0  0  0  0  0
  192.5860  175.5210  144.8050 C   0  0  0  0  0  3  0  0  0  0  0  0
  192.0920  176.6950  147.2440 N   0  0  0  0  0  0  0  0  0  0  0  0
  191.2710  175.8550  145.1500 C   0  0  0  0  0  0  0  0  0  0  0  0
  189.7340  176.8090  146.8430 N   0  0  0  0  0  1  0  0  0  0  0  0
  191.0450  176.4570  146.4100 C   0  0  0  0  0  0  0  0  0  0  0  0
  195.6750  174.3130  145.9230 N   0  0  0  0  0  2  0  0  0  0  0  0
  195.0300  175.4300  145.3060 C   0  0  0  0  0  0  0  0  0  0  0  0
  195.6450  176.1170  144.4450 O   0  0  0  0  0  0  0  0  0  0  0  0
  197.0390  173.9340  145.5950 C   0  0  0  0  0  2  0  0  0  0  0  0
  197.1240  172.4290  145.4550 C   0  0  0  0  0  1  0  0  0  0  0  0
  188.8120  173.4930  141.9290 C   0  0  0  0  0  0  0  0  0  0  0  0
  190.1620  173.1270  141.6550 N   0  0  0  0  0  2  0  0  0  0  0  0
  187.8670  172.9700  141.2740 O   0  0  0  0  0  0  0  0  0  0  0  0
  190.4050  170.4070  142.1360 O   0  0  0  0  0  0  0  0  0  0  0  0
  191.9780  171.4200  138.5040 O   0  0  0  0  0  0  0  0  0  0  0  0
  190.6090  170.8060  140.9570 C   0  0  0  0  0  0  0  0  0  0  0  0
  190.9690  169.8630  139.9310 N   0  0  0  0  0  0  0  0  0  0  0  0
  191.3080  169.4410  137.4800 N   0  0  0  0  0  0  0  0  0  0  0  0
  190.4710  172.1970  140.6540 N   0  0  0  0  0  2  0  0  0  0  0  0
  190.9820  168.4440  140.2650 C   0  0  0  0  0  1  0  0  0  0  0  0
  190.4910  168.3550  137.5130 O   0  0  0  0  0  1  0  0  0  0  0  0
  191.4310  170.2900  138.6330 C   0  0  0  0  0  0  0  0  0  0  0  0
  191.0790  170.1170  135.2710 C   0  0  0  0  0  1  0  0  0  0  0  0
  192.7170  168.5470  135.8750 C   0  0  0  0  0  1  0  0  0  0  0  0
  192.0300  169.7510  136.3120 N   0  0  0  0  0  0  0  0  0  0  0  0
  188.1060  176.5870  141.4020 C   0  0  0  0  0  2  0  0  0  0  0  0
  187.8330  178.0340  141.7770 C   0  0  0  0  0  2  0  0  0  0  0  0
  186.3530  178.3500  141.6300 C   0  0  0  0  0  2  0  0  0  0  0  0
  186.6510  178.7800  143.8680 N   0  0  0  0  0  2  0  0  0  0  0  0
  186.3780  178.0730  145.1160 C   0  0  2  0  0  3  0  0  0  0  0  0
  185.6260  176.8170  144.7430 C   0  0  0  0  0  2  0  0  0  0  0  0
  185.7000  178.3420  142.9300 N   0  0  0  0  0  0  0  0  0  0  0  0
  185.4040  176.9570  143.2630 C   0  0  0  0  0  2  0  0  0  0  0  0
  185.5360  178.9460  146.0530 C   0  0  1  0  0  3  0  0  0  0  0  0
  184.0730  178.5280  146.0200 C   0  0  0  0  0  1  0  0  0  0  0  0
  186.0400  178.8910  147.4620 C   0  0  0  0  0  0  0  0  0  0  0  0
  186.2530  177.6590  148.0660 O   0  0  0  0  0  0  0  0  0  0  0  0
  186.2690  179.9510  148.1050 O   0  0  0  0  0  1  0  0  0  0  0  0
  1  5  2  0  0  0  0
  2  5  1  0  0  0  0
  3 18  1  6  0  0  0
  3  1  1  0  0  0  0
  4  3  1  0  0  0  0
  4  2  2  0  0  0  0
  5 10  1  0  0  0  0
  6  9  1  0  0  0  0
  7  6  2  0  0  0  0
  8 10  2  0  0  0  0
  8  7  1  0  0  0  0
 10 12  1  0  0  0  0
 12 11  1  0  0  0  0
 12  9  2  0  0  0  0
 14  7  1  0  0  0  0
 14 13  1  0  0  0  0
 15 14  2  0  0  0  0
 16 13  1  0  0  0  0
 17 16  1  0  0  0  0
 19 18  1  0  0  0  0
 20 18  2  0  0  0  0
 22 29  2  0  0  0  0
 23 21  2  0  0  0  0
 24 27  1  0  0  0  0
 24 23  1  0  0  0  0
 25 28  1  0  0  0  0
 25 29  1  0  0  0  0
 26 23  1  0  0  0  0
 26 19  1  0  0  0  0
 29 24  1  0  0  0  0
 30 32  1  0  0  0  0
 31 32  1  0  0  0  0
 32 25  1  0  0  0  0
 33 34  1  0  0  0  0
 33  4  1  0  0  0  0
 35 34  1  0  0  0  0
 35 39  1  0  0  0  0
 36 37  1  0  0  0  0
 37 41  1  1  0  0  0
 38 37  1  0  0  0  0
 39 40  1  0  0  0  0
 39 36  1  0  0  0  0
 40 38  1  0  0  0  0
 41 42  1  1  0  0  0
 41 43  1  0  0  0  0
 43 44  2  0  0  0  0
 43 45  1  0  0  0  0
M  END
>  <MODEL>
2

>  <REMARK>
 VINA RESULT:      -7.4      2.589      8.201
  Name = 
  12 active torsions:
  status: ('A' for Active; 'I' for Inactive)
    1  A    between atoms: C_4  and  C_30
    2  A    between atoms: C_8  and  C_33
    3  A    between atoms: C_9  and  C_20
    4  A    between atoms: N_11  and  N_25
    5  A    between atoms: N_12  and  C_29
    6  A    between atoms: N_15  and  N_22
    7  A    between atoms: C_16  and  C_34
    8  A    between atoms: C_16  and  C_35
    9  A    between atoms: C_20  and  C_23
   10  A    between atoms: C_24  and  C_37
   11  A    between atoms: C_34  and  C_38
   12  A    between atoms: C_38  and  N_43
                            x       y       z     vdW  Elec       q    Type
                         _______ _______ _______ _____ _____    ______ ____

>  <TORSDO>
F 12

$$$$
=
 OpenBabel11042415133D

 45 47  0  0  1  0  0  0  0  0999 V2000
  189.1630  174.4120  143.5570 C   0  0  0  0  0  3  0  0  0  0  0  0
  189.0300  176.6510  143.1490 N   0  0  0  0  0  0  0  0  0  0  0  0
  188.3980  174.5880  142.2860 C   0  0  1  0  0  3  0  0  0  0  0  0
  188.4200  176.0770  142.1670 C   0  0  0  0  0  0  0  0  0  0  0  0
  189.5010  175.6170  144.0050 C   0  0  0  0  0  0  0  0  0  0  0  0
  191.8160  176.3970  147.5090 C   0  0  0  0  0  3  0  0  0  0  0  0
  192.4520  176.2140  146.2780 C   0  0  0  0  0  0  0  0  0  0  0  0
  191.6660  175.9610  145.1500 C   0  0  0  0  0  3  0  0  0  0  0  0
  190.4620  176.3300  147.5970 N   0  0  0  0  0  0  0  0  0  0  0  0
  190.2700  175.8950  145.2430 C   0  0  0  0  0  0  0  0  0  0  0  0
  188.2660  176.0180  146.6950 N   0  0  0  0  0  1  0  0  0  0  0  0
  189.6780  176.0890  146.5130 C   0  0  0  0  0  0  0  0  0  0  0  0
  194.6100  175.4600  145.2310 N   0  0  0  0  0  2  0  0  0  0  0  0
  193.9200  176.2870  146.1720 C   0  0  0  0  0  0  0  0  0  0  0  0
  194.5680  177.0770  146.9120 O   0  0  0  0  0  0  0  0  0  0  0  0
  196.0570  175.4910  145.0960 C   0  0  0  0  0  2  0  0  0  0  0  0
  196.6320  174.1620  145.5410 C   0  0  0  0  0  1  0  0  0  0  0  0
  189.1130  173.9310  141.1440 C   0  0  0  0  0  0  0  0  0  0  0  0
  188.3480  173.3390  140.0970 N   0  0  0  0  0  2  0  0  0  0  0  0
  190.3740  173.8860  141.1130 O   0  0  0  0  0  0  0  0  0  0  0  0
  188.2280  174.2590  137.4830 O   0  0  0  0  0  0  0  0  0  0  0  0
  189.5530  170.3970  137.6410 O   0  0  0  0  0  0  0  0  0  0  0  0
  188.8610  173.1870  137.6910 C   0  0  0  0  0  0  0  0  0  0  0  0
  189.4690  172.4870  136.5900 N   0  0  0  0  0  0  0  0  0  0  0  0
  191.0230  170.6580  135.8550 N   0  0  0  0  0  0  0  0  0  0  0  0
  188.9730  172.6860  139.0250 N   0  0  0  0  0  2  0  0  0  0  0  0
  189.4260  173.1010  135.2680 C   0  0  0  0  0  1  0  0  0  0  0  0
  191.7210  171.5140  135.0640 O   0  0  0  0  0  1  0  0  0  0  0  0
  190.0030  171.1550  136.7380 C   0  0  0  0  0  0  0  0  0  0  0  0
  192.3490  169.0050  136.8010 C   0  0  0  0  0  1  0  0  0  0  0  0
  191.8280  168.9520  134.5130 C   0  0  0  0  0  1  0  0  0  0  0  0
  191.3010  169.2780  135.8270 N   0  0  0  0  0  0  0  0  0  0  0  0
  187.7500  176.8440  141.0780 C   0  0  0  0  0  2  0  0  0  0  0  0
  187.3290  178.2130  141.5870 C   0  0  0  0  0  2  0  0  0  0  0  0
  185.8130  178.3370  141.5820 C   0  0  0  0  0  2  0  0  0  0  0  0
  186.2630  178.9300  143.7570 N   0  0  0  0  0  2  0  0  0  0  0  0
  186.2160  178.2640  145.0550 C   0  0  2  0  0  3  0  0  0  0  0  0
  185.6190  176.8970  144.8160 C   0  0  0  0  0  2  0  0  0  0  0  0
  185.2970  178.3130  142.9420 N   0  0  0  0  0  0  0  0  0  0  0  0
  185.2360  176.9210  143.3620 C   0  0  0  0  0  2  0  0  0  0  0  0
  185.3520  179.0630  146.0380 C   0  0  1  0  0  3  0  0  0  0  0  0
  183.9080  178.5830  146.0100 C   0  0  0  0  0  1  0  0  0  0  0  0
  185.8810  178.9770  147.4360 C   0  0  0  0  0  0  0  0  0  0  0  0
  186.4500  180.0990  148.0230 O   0  0  0  0  0  0  0  0  0  0  0  0
  185.8200  177.8960  148.0810 O   0  0  0  0  0  1  0  0  0  0  0  0
  1  5  2  0  0  0  0
  2  5  1  0  0  0  0
  3 18  1  6  0  0  0
  3  1  1  0  0  0  0
  4  3  1  0  0  0  0
  4  2  2  0  0  0  0
  5 10  1  0  0  0  0
  6  9  1  0  0  0  0
  7  6  2  0  0  0  0
  8 10  2  0  0  0  0
  8  7  1  0  0  0  0
 10 12  1  0  0  0  0
 12 11  1  0  0  0  0
 12  9  2  0  0  0  0
 13 14  1  0  0  0  0
 14  7  1  0  0  0  0
 14 15  2  0  0  0  0
 16 13  1  0  0  0  0
 16 17  1  0  0  0  0
 19 18  1  0  0  0  0
 20 18  2  0  0  0  0
 21 23  2  0  0  0  0
 23 26  1  0  0  0  0
 24 29  1  0  0  0  0
 24 23  1  0  0  0  0
 25 29  1  0  0  0  0
 26 19  1  0  0  0  0
 27 24  1  0  0  0  0
 28 25  1  0  0  0  0
 29 22  2  0  0  0  0
 31 32  1  0  0  0  0
 32 25  1  0  0  0  0
 32 30  1  0  0  0  0
 33 34  1  0  0  0  0
 33  4  1  0  0  0  0
 35 34  1  0  0  0  0
 35 39  1  0  0  0  0
 36 37  1  0  0  0  0
 37 41  1  1  0  0  0
 38 37  1  0  0  0  0
 39 40  1  0  0  0  0
 39 36  1  0  0  0  0
 40 38  1  0  0  0  0
 41 42  1  1  0  0  0
 41 43  1  0  0  0  0
 43 44  2  0  0  0  0
 43 45  1  0  0  0  0
M  END
>  <MODEL>
3

>  <REMARK>
 VINA RESULT:      -7.4      2.911      7.980
  Name = 
  12 active torsions:
  status: ('A' for Active; 'I' for Inactive)
    1  A    between atoms: C_4  and  C_30
    2  A    between atoms: C_8  and  C_33
    3  A    between atoms: C_9  and  C_20
    4  A    between atoms: N_11  and  N_25
    5  A    between atoms: N_12  and  C_29
    6  A    between atoms: N_15  and  N_22
    7  A    between atoms: C_16  and  C_34
    8  A    between atoms: C_16  and  C_35
    9  A    between atoms: C_20  and  C_23
   10  A    between atoms: C_24  and  C_37
   11  A    between atoms: C_34  and  C_38
   12  A    between atoms: C_38  and  N_43
                            x       y       z     vdW  Elec       q    Type
                         _______ _______ _______ _____ _____    ______ ____

>  <TORSDO>
F 12

$$$$
=
 OpenBabel11042415133D

 45 47  0  0  1  0  0  0  0  0999 V2000
  189.0870  177.8290  144.6280 C   0  0  0  0  0  3  0  0  0  0  0  0
  188.6190  176.1430  146.0880 N   0  0  0  0  0  0  0  0  0  0  0  0
  190.3130  176.9830  144.7380 C   0  0  1  0  0  3  0  0  0  0  0  0
  189.8340  175.9450  145.6990 C   0  0  0  0  0  0  0  0  0  0  0  0
  188.1520  177.3050  145.4140 C   0  0  0  0  0  0  0  0  0  0  0  0
  184.1880  178.8400  145.8290 C   0  0  0  0  0  3  0  0  0  0  0  0
  184.6660  178.4690  144.5680 C   0  0  0  0  0  0  0  0  0  0  0  0
  185.9670  177.9700  144.4670 C   0  0  0  0  0  3  0  0  0  0  0  0
  184.9790  178.7120  146.9250 N   0  0  0  0  0  0  0  0  0  0  0  0
  186.7800  177.8370  145.5990 C   0  0  0  0  0  0  0  0  0  0  0  0
  187.0160  178.1400  148.0470 N   0  0  0  0  0  1  0  0  0  0  0  0
  186.2470  178.2260  146.8510 C   0  0  0  0  0  0  0  0  0  0  0  0
  184.3020  178.1760  142.0980 N   0  0  0  0  0  2  0  0  0  0  0  0
  183.8150  178.6030  143.3730 C   0  0  0  0  0  0  0  0  0  0  0  0
  182.6570  179.0960  143.4740 O   0  0  0  0  0  0  0  0  0  0  0  0
  183.5020  178.2940  140.8900 C   0  0  0  0  0  2  0  0  0  0  0  0
  184.2530  177.6790  139.7270 C   0  0  0  0  0  1  0  0  0  0  0  0
  190.6660  176.3870  143.4090 C   0  0  0  0  0  0  0  0  0  0  0  0
  189.7280  175.5300  142.7630 N   0  0  0  0  0  0  0  0  0  0  0  0
  191.7840  176.6240  142.8730 O   0  0  0  0  0  0  0  0  0  0  0  0
  188.0500  173.7020  141.5260 O   0  0  0  0  0  0  0  0  0  0  0  0
  191.7870  173.6440  139.8750 O   0  0  0  0  0  0  0  0  0  0  0  0
  189.1400  173.9690  140.9490 C   0  0  0  0  0  0  0  0  0  0  0  0
  189.4740  173.3200  139.7090 N   0  0  0  0  0  0  0  0  0  0  0  0
  191.0060  173.2320  137.7210 N   0  0  0  0  0  0  0  0  0  0  0  0
  190.0270  174.9250  141.5350 N   0  0  0  0  0  0  0  0  0  0  0  0
  188.4850  172.4440  139.0940 C   0  0  0  0  0  1  0  0  0  0  0  0
  189.9550  173.2630  136.8600 O   0  0  0  0  0  1  0  0  0  0  0  0
  190.7930  173.4170  139.1310 C   0  0  0  0  0  0  0  0  0  0  0  0
  192.7210  174.2260  136.5150 C   0  0  0  0  0  1  0  0  0  0  0  0
  192.2780  171.9310  136.2900 C   0  0  0  0  0  1  0  0  0  0  0  0
  192.3140  173.0300  137.2400 N   0  0  0  0  0  0  0  0  0  0  0  0
  190.6760  174.8320  146.2250 C   0  0  0  0  0  2  0  0  0  0  0  0
  192.0370  175.3610  146.6460 C   0  0  0  0  0  2  0  0  0  0  0  0
  193.1410  174.4440  146.1420 C   0  0  0  0  0  2  0  0  0  0  0  0
  194.1100  174.8230  144.0930 N   0  0  0  0  0  2  0  0  0  0  0  0
  195.4740  174.8950  143.5780 C   0  0  2  0  0  3  0  0  0  0  0  0
  196.3930  174.7850  144.7720 C   0  0  0  0  0  2  0  0  0  0  0  0
  194.1590  175.2120  145.4440 N   0  0  0  0  0  0  0  0  0  0  0  0
  195.4550  174.7810  145.9470 C   0  0  0  0  0  2  0  0  0  0  0  0
  195.7010  176.2240  142.8460 C   0  0  1  0  0  3  0  0  0  0  0  0
  197.0560  176.8180  143.2030 C   0  0  0  0  0  1  0  0  0  0  0  0
  195.6010  176.0610  141.3610 C   0  0  0  0  0  0  0  0  0  0  0  0
  194.3680  175.7890  140.7830 O   0  0  0  0  0  1  0  0  0  0  0  0
  196.6240  176.1640  140.6320 O   0  0  0  0  0  0  0  0  0  0  0  0
  1  3  1  0  0  0  0
  1  5  2  0  0  0  0
  3 18  1  6  0  0  0
  3  4  1  0  0  0  0
  4  2  2  0  0  0  0
  4 33  1  0  0  0  0
  5 10  1  0  0  0  0
  5  2  1  0  0  0  0
  6  9  1  0  0  0  0
  7  6  2  0  0  0  0
  8  7  1  0  0  0  0
  8 10  2  0  0  0  0
 10 12  1  0  0  0  0
 12  9  2  0  0  0  0
 12 11  1  0  0  0  0
 13 14  1  0  0  0  0
 14 15  2  0  0  0  0
 14  7  1  0  0  0  0
 16 13  1  0  0  0  0
 17 16  1  0  0  0  0
 19 18  1  0  0  0  0
 20 18  2  0  0  0  0
 23 21  2  0  0  0  0
 23 26  1  0  0  0  0
 24 23  1  0  0  0  0
 25 29  1  0  0  0  0
 26 19  2  0  0  0  0
 27 24  1  0  0  0  0
 28 25  1  0  0  0  0
 29 24  1  0  0  0  0
 29 22  2  0  0  0  0
 30 32  1  0  0  0  0
 31 32  1  0  0  0  0
 32 25  1  0  0  0  0
 33 34  1  0  0  0  0
 35 34  1  0  0  0  0
 36 39  1  0  0  0  0
 37 41  1  1  0  0  0
 37 36  1  0  0  0  0
 37 38  1  0  0  0  0
 38 40  1  0  0  0  0
 39 40  1  0  0  0  0
 39 35  1  0  0  0  0
 41 42  1  6  0  0  0
 43 41  1  0  0  0  0
 44 43  1  0  0  0  0
 45 43  2  0  0  0  0
M  END
>  <MODEL>
4

>  <REMARK>
 VINA RESULT:      -7.2      2.162      2.509
  Name = 
  12 active torsions:
  status: ('A' for Active; 'I' for Inactive)
    1  A    between atoms: C_4  and  C_30
    2  A    between atoms: C_8  and  C_33
    3  A    between atoms: C_9  and  C_20
    4  A    between atoms: N_11  and  N_25
    5  A    between atoms: N_12  and  C_29
    6  A    between atoms: N_15  and  N_22
    7  A    between atoms: C_16  and  C_34
    8  A    between atoms: C_16  and  C_35
    9  A    between atoms: C_20  and  C_23
   10  A    between atoms: C_24  and  C_37
   11  A    between atoms: C_34  and  C_38
   12  A    between atoms: C_38  and  N_43
                            x       y       z     vdW  Elec       q    Type
                         _______ _______ _______ _____ _____    ______ ____

>  <TORSDO>
F 12

$$$$
=
 OpenBabel11042415133D

 45 47  0  0  1  0  0  0  0  0999 V2000
  190.3590  173.4150  139.4180 C   0  0  0  0  0  3  0  0  0  0  0  0
  191.8280  172.2600  140.7240 N   0  0  0  0  0  0  0  0  0  0  0  0
  189.5560  172.5410  140.3250 C   0  0  1  0  0  3  0  0  0  0  0  0
  190.6520  171.8860  141.1000 C   0  0  0  0  0  0  0  0  0  0  0  0
  191.6460  173.2180  139.6890 C   0  0  0  0  0  0  0  0  0  0  0  0
  194.9610  175.1890  137.8540 C   0  0  0  0  0  3  0  0  0  0  0  0
  194.8920  175.0890  139.2460 C   0  0  0  0  0  0  0  0  0  0  0  0
  193.7930  174.4380  139.8150 C   0  0  0  0  0  3  0  0  0  0  0  0
  193.9790  174.6590  137.0790 N   0  0  0  0  0  0  0  0  0  0  0  0
  192.7840  173.8900  139.0140 C   0  0  0  0  0  0  0  0  0  0  0  0
  191.9110  173.5060  136.7280 N   0  0  0  0  0  1  0  0  0  0  0  0
  192.9050  174.0190  137.6110 C   0  0  0  0  0  0  0  0  0  0  0  0
  195.6250  176.2150  141.3700 N   0  0  0  0  0  2  0  0  0  0  0  0
  195.9530  175.6580  140.0950 C   0  0  0  0  0  0  0  0  0  0  0  0
  197.1500  175.6560  139.6950 O   0  0  0  0  0  0  0  0  0  0  0  0
  196.6360  176.7950  142.2400 C   0  0  0  0  0  2  0  0  0  0  0  0
  197.0160  175.7910  143.3090 C   0  0  0  0  0  1  0  0  0  0  0  0
  188.6710  173.3670  141.2090 C   0  0  0  0  0  0  0  0  0  0  0  0
  189.0570  174.7030  141.5220 N   0  0  0  0  0  2  0  0  0  0  0  0
  187.6060  172.8860  141.6850 O   0  0  0  0  0  0  0  0  0  0  0  0
  187.3980  176.7240  140.5970 O   0  0  0  0  0  0  0  0  0  0  0  0
  188.0090  177.0280  144.6260 O   0  0  0  0  0  0  0  0  0  0  0  0
  187.4560  176.5480  141.8460 C   0  0  0  0  0  0  0  0  0  0  0  0
  186.6910  177.3920  142.7260 N   0  0  0  0  0  0  0  0  0  0  0  0
  185.8560  177.7980  145.0580 N   0  0  0  0  0  0  0  0  0  0  0  0
  188.2780  175.5020  142.3690 N   0  0  0  0  0  2  0  0  0  0  0  0
  185.7800  178.3660  142.1370 C   0  0  0  0  0  1  0  0  0  0  0  0
  184.5750  177.9180  144.6220 O   0  0  0  0  0  1  0  0  0  0  0  0
  186.8940  177.3830  144.1540 C   0  0  0  0  0  0  0  0  0  0  0  0
  185.9900  176.8430  147.1690 C   0  0  0  0  0  1  0  0  0  0  0  0
  185.2280  179.0470  146.9040 C   0  0  0  0  0  1  0  0  0  0  0  0
  186.1770  178.0670  146.4030 N   0  0  0  0  0  0  0  0  0  0  0  0
  190.4360  170.8480  142.1490 C   0  0  0  0  0  2  0  0  0  0  0  0
  191.1410  171.2500  143.4340 C   0  0  0  0  0  2  0  0  0  0  0  0
  190.3170  172.2810  144.1900 C   0  0  0  0  0  2  0  0  0  0  0  0
  190.3530  174.1700  145.4980 N   0  0  0  0  0  2  0  0  0  0  0  0
  191.0390  175.4590  145.4580 C   0  0  2  0  0  3  0  0  0  0  0  0
  192.0090  175.3950  144.3010 C   0  0  0  0  0  2  0  0  0  0  0  0
  191.1870  173.2400  144.8520 N   0  0  0  0  0  0  0  0  0  0  0  0
  191.8960  173.9760  143.8170 C   0  0  0  0  0  2  0  0  0  0  0  0
  191.7860  175.7100  146.7730 C   0  0  1  0  0  3  0  0  0  0  0  0
  193.2000  176.2080  146.5110 C   0  0  0  0  0  1  0  0  0  0  0  0
  191.0620  176.6920  147.6410 C   0  0  0  0  0  0  0  0  0  0  0  0
  189.8180  177.1670  147.2480 O   0  0  0  0  0  0  0  0  0  0  0  0
  191.5730  177.0950  148.7210 O   0  0  0  0  0  1  0  0  0  0  0  0
  1  5  2  0  0  0  0
  1  3  1  0  0  0  0
  2  4  2  0  0  0  0
  3  4  1  0  0  0  0
  3 18  1  1  0  0  0
  4 33  1  0  0  0  0
  5  2  1  0  0  0  0
  6  7  1  0  0  0  0
  7  8  2  0  0  0  0
  7 14  1  0  0  0  0
  9 12  1  0  0  0  0
  9  6  2  0  0  0  0
 10  5  1  0  0  0  0
 10  8  1  0  0  0  0
 11 12  1  0  0  0  0
 12 10  2  0  0  0  0
 13 16  1  0  0  0  0
 14 13  1  0  0  0  0
 15 14  2  0  0  0  0
 16 17  1  0  0  0  0
 18 19  1  0  0  0  0
 18 20  2  0  0  0  0
 19 26  1  0  0  0  0
 21 23  2  0  0  0  0
 23 26  1  0  0  0  0
 23 24  1  0  0  0  0
 24 29  1  0  0  0  0
 25 32  1  0  0  0  0
 27 24  1  0  0  0  0
 28 25  1  0  0  0  0
 29 22  2  0  0  0  0
 29 25  1  0  0  0  0
 32 31  1  0  0  0  0
 32 30  1  0  0  0  0
 33 34  1  0  0  0  0
 34 35  1  0  0  0  0
 35 39  1  0  0  0  0
 37 36  1  0  0  0  0
 37 41  1  1  0  0  0
 38 37  1  0  0  0  0
 39 36  1  0  0  0  0
 40 38  1  0  0  0  0
 40 39  1  0  0  0  0
 41 42  1  6  0  0  0
 41 43  1  0  0  0  0
 43 45  1  0  0  0  0
 44 43  2  0  0  0  0
M  END
>  <MODEL>
5

>  <REMARK>
 VINA RESULT:      -7.0      3.035      9.040
  Name = 
  12 active torsions:
  status: ('A' for Active; 'I' for Inactive)
    1  A    between atoms: C_4  and  C_30
    2  A    between atoms: C_8  and  C_33
    3  A    between atoms: C_9  and  C_20
    4  A    between atoms: N_11  and  N_25
    5  A    between atoms: N_12  and  C_29
    6  A    between atoms: N_15  and  N_22
    7  A    between atoms: C_16  and  C_34
    8  A    between atoms: C_16  and  C_35
    9  A    between atoms: C_20  and  C_23
   10  A    between atoms: C_24  and  C_37
   11  A    between atoms: C_34  and  C_38
   12  A    between atoms: C_38  and  N_43
                            x       y       z     vdW  Elec       q    Type
                         _______ _______ _______ _____ _____    ______ ____

>  <TORSDO>
F 12

$$$$
=
 OpenBabel11042415133D

 45 47  0  0  1  0  0  0  0  0999 V2000
  190.0770  173.4140  139.4330 C   0  0  0  0  0  3  0  0  0  0  0  0
  191.6790  172.3190  140.6300 N   0  0  0  0  0  0  0  0  0  0  0  0
  189.3750  172.5540  140.4320 C   0  0  1  0  0  3  0  0  0  0  0  0
  190.5480  171.9380  141.1210 C   0  0  0  0  0  0  0  0  0  0  0  0
  191.3860  173.2450  139.5900 C   0  0  0  0  0  0  0  0  0  0  0  0
  194.4980  175.1930  137.4080 C   0  0  0  0  0  3  0  0  0  0  0  0
  194.6660  174.9180  138.7680 C   0  0  0  0  0  0  0  0  0  0  0  0
  193.6280  174.2800  139.4530 C   0  0  0  0  0  3  0  0  0  0  0  0
  193.3500  174.8400  136.7740 N   0  0  0  0  0  0  0  0  0  0  0  0
  192.4460  173.9150  138.7970 C   0  0  0  0  0  0  0  0  0  0  0  0
  191.1520  173.8950  136.6850 N   0  0  0  0  0  1  0  0  0  0  0  0
  192.3300  174.2150  137.4200 C   0  0  0  0  0  0  0  0  0  0  0  0
  195.8930  175.5340  140.8740 N   0  0  0  0  0  2  0  0  0  0  0  0
  195.9080  175.2950  139.4640 C   0  0  0  0  0  0  0  0  0  0  0  0
  196.9850  175.4090  138.8160 O   0  0  0  0  0  0  0  0  0  0  0  0
  197.0920  175.9150  141.6030 C   0  0  0  0  0  2  0  0  0  0  0  0
  196.7090  176.7900  142.7780 C   0  0  0  0  0  1  0  0  0  0  0  0
  188.5600  173.3920  141.3710 C   0  0  0  0  0  0  0  0  0  0  0  0
  188.9770  174.7250  141.6500 N   0  0  0  0  0  2  0  0  0  0  0  0
  187.5260  172.9200  141.9220 O   0  0  0  0  0  0  0  0  0  0  0  0
  187.3110  176.7870  140.8340 O   0  0  0  0  0  0  0  0  0  0  0  0
  188.1560  177.0490  144.8230 O   0  0  0  0  0  0  0  0  0  0  0  0
  187.4360  176.6010  142.0760 C   0  0  0  0  0  0  0  0  0  0  0  0
  186.7400  177.4540  143.0030 N   0  0  0  0  0  0  0  0  0  0  0  0
  186.0470  177.8610  145.3820 N   0  0  0  0  0  0  0  0  0  0  0  0
  188.2640  175.5340  142.5450 N   0  0  0  0  0  2  0  0  0  0  0  0
  185.8180  178.4510  142.4730 C   0  0  0  0  0  1  0  0  0  0  0  0
  184.7460  178.0100  145.0200 O   0  0  0  0  0  1  0  0  0  0  0  0
  187.0240  177.4300  144.4170 C   0  0  0  0  0  0  0  0  0  0  0  0
  186.2540  176.8960  147.4830 C   0  0  0  0  0  1  0  0  0  0  0  0
  185.5700  179.1310  147.2580 C   0  0  0  0  0  1  0  0  0  0  0  0
  186.4500  178.1140  146.7070 N   0  0  0  0  0  0  0  0  0  0  0  0
  190.4470  170.9260  142.2130 C   0  0  0  0  0  2  0  0  0  0  0  0
  191.1900  171.4130  143.4470 C   0  0  0  0  0  2  0  0  0  0  0  0
  190.2870  172.2970  144.2940 C   0  0  0  0  0  2  0  0  0  0  0  0
  192.1780  173.4120  144.9780 N   0  0  0  0  0  2  0  0  0  0  0  0
  192.4670  174.5360  145.8630 C   0  0  2  0  0  3  0  0  0  0  0  0
  191.1340  175.0940  146.3020 C   0  0  0  0  0  2  0  0  0  0  0  0
  190.8820  173.6130  144.4680 N   0  0  0  0  0  0  0  0  0  0  0  0
  190.1330  174.2980  145.5100 C   0  0  0  0  0  2  0  0  0  0  0  0
  193.2800  175.6050  145.1240 C   0  0  1  0  0  3  0  0  0  0  0  0
  192.4290  176.8310  144.8290 C   0  0  0  0  0  1  0  0  0  0  0  0
  194.4940  176.0130  145.9010 C   0  0  0  0  0  0  0  0  0  0  0  0
  195.6710  175.2920  145.7610 O   0  0  0  0  0  0  0  0  0  0  0  0
  194.4540  176.9990  146.6840 O   0  0  0  0  0  1  0  0  0  0  0  0
  1  5  2  0  0  0  0
  1  3  1  0  0  0  0
  2  4  2  0  0  0  0
  3  4  1  0  0  0  0
  3 18  1  1  0  0  0
  4 33  1  0  0  0  0
  5  2  1  0  0  0  0
  6  7  1  0  0  0  0
  7  8  2  0  0  0  0
  7 14  1  0  0  0  0
  9  6  2  0  0  0  0
  9 12  1  0  0  0  0
 10  8  1  0  0  0  0
 10  5  1  0  0  0  0
 11 12  1  0  0  0  0
 12 10  2  0  0  0  0
 13 16  1  0  0  0  0
 14 13  1  0  0  0  0
 15 14  2  0  0  0  0
 16 17  1  0  0  0  0
 18 19  1  0  0  0  0
 18 20  2  0  0  0  0
 19 26  1  0  0  0  0
 21 23  2  0  0  0  0
 23 26  1  0  0  0  0
 23 24  1  0  0  0  0
 24 29  1  0  0  0  0
 25 32  1  0  0  0  0
 27 24  1  0  0  0  0
 28 25  1  0  0  0  0
 29 22  2  0  0  0  0
 29 25  1  0  0  0  0
 32 31  1  0  0  0  0
 32 30  1  0  0  0  0
 33 34  1  0  0  0  0
 34 35  1  0  0  0  0
 35 39  1  0  0  0  0
 36 37  1  0  0  0  0
 37 41  1  6  0  0  0
 37 38  1  0  0  0  0
 39 36  1  0  0  0  0
 39 40  1  0  0  0  0
 40 38  1  0  0  0  0
 41 42  1  1  0  0  0
 41 43  1  0  0  0  0
 43 45  1  0  0  0  0
 44 43  2  0  0  0  0
M  END
>  <MODEL>
6

>  <REMARK>
 VINA RESULT:      -7.0      3.018      8.854
  Name = 
  12 active torsions:
  status: ('A' for Active; 'I' for Inactive)
    1  A    between atoms: C_4  and  C_30
    2  A    between atoms: C_8  and  C_33
    3  A    between atoms: C_9  and  C_20
    4  A    between atoms: N_11  and  N_25
    5  A    between atoms: N_12  and  C_29
    6  A    between atoms: N_15  and  N_22
    7  A    between atoms: C_16  and  C_34
    8  A    between atoms: C_16  and  C_35
    9  A    between atoms: C_20  and  C_23
   10  A    between atoms: C_24  and  C_37
   11  A    between atoms: C_34  and  C_38
   12  A    between atoms: C_38  and  N_43
                            x       y       z     vdW  Elec       q    Type
                         _______ _______ _______ _____ _____    ______ ____

>  <TORSDO>
F 12

$$$$
=
 OpenBabel11042415133D

 45 47  0  0  1  0  0  0  0  0999 V2000
  193.6320  177.2170  145.0920 C   0  0  0  0  0  3  0  0  0  0  0  0
  193.3230  175.1570  146.0160 N   0  0  0  0  0  0  0  0  0  0  0  0
  194.9320  176.4880  144.9970 C   0  0  1  0  0  3  0  0  0  0  0  0
  194.5510  175.1850  145.6200 C   0  0  0  0  0  0  0  0  0  0  0  0
  192.7490  176.4130  145.6760 C   0  0  0  0  0  0  0  0  0  0  0  0
  188.6560  177.4030  146.3880 C   0  0  0  0  0  3  0  0  0  0  0  0
  189.1500  177.3720  145.0810 C   0  0  0  0  0  0  0  0  0  0  0  0
  190.4950  177.0450  144.8820 C   0  0  0  0  0  3  0  0  0  0  0  0
  189.4710  177.1160  147.4350 N   0  0  0  0  0  0  0  0  0  0  0  0
  191.3330  176.7470  145.9630 C   0  0  0  0  0  0  0  0  0  0  0  0
  191.5720  176.5200  148.4190 N   0  0  0  0  0  1  0  0  0  0  0  0
  190.7810  176.7910  147.2650 C   0  0  0  0  0  0  0  0  0  0  0  0
  188.7830  177.6000  142.6040 N   0  0  0  0  0  2  0  0  0  0  0  0
  188.2730  177.6810  143.9380 C   0  0  0  0  0  0  0  0  0  0  0  0
  187.0730  178.0180  144.1360 O   0  0  0  0  0  0  0  0  0  0  0  0
  187.9580  177.9020  141.4460 C   0  0  0  0  0  2  0  0  0  0  0  0
  187.4140  176.6120  140.8660 C   0  0  0  0  0  1  0  0  0  0  0  0
  195.3410  176.3180  143.5660 C   0  0  0  0  0  0  0  0  0  0  0  0
  194.3570  175.9530  142.6020 N   0  0  0  0  0  2  0  0  0  0  0  0
  196.5440  176.4790  143.2160 O   0  0  0  0  0  0  0  0  0  0  0  0
  192.7660  174.5340  140.8280 O   0  0  0  0  0  0  0  0  0  0  0  0
  196.5320  175.0780  139.3400 O   0  0  0  0  0  0  0  0  0  0  0  0
  193.8560  174.9920  140.3880 C   0  0  0  0  0  0  0  0  0  0  0  0
  194.2360  174.7540  139.0210 N   0  0  0  0  0  0  0  0  0  0  0  0
  195.8050  175.3080  137.1410 N   0  0  0  0  0  0  0  0  0  0  0  0
  194.6990  175.7520  141.2580 N   0  0  0  0  0  2  0  0  0  0  0  0
  193.2890  174.0750  138.1450 C   0  0  0  0  0  1  0  0  0  0  0  0
  194.7700  175.5670  136.3000 O   0  0  0  0  0  1  0  0  0  0  0  0
  195.5600  175.0560  138.5360 C   0  0  0  0  0  0  0  0  0  0  0  0
  197.2120  176.2220  135.5370 C   0  0  0  0  0  1  0  0  0  0  0  0
  197.4080  173.9640  136.1490 C   0  0  0  0  0  1  0  0  0  0  0  0
  197.1280  175.2960  136.6580 N   0  0  0  0  0  0  0  0  0  0  0  0
  195.4940  174.0510  145.8420 C   0  0  0  0  0  2  0  0  0  0  0  0
  194.8820  172.7560  145.3340 C   0  0  0  0  0  2  0  0  0  0  0  0
  195.1490  172.5920  143.8460 C   0  0  0  0  0  2  0  0  0  0  0  0
  192.8680  172.7710  143.6340 N   0  0  0  0  0  2  0  0  0  0  0  0
  191.7380  171.8470  143.6680 C   0  0  2  0  0  3  0  0  0  0  0  0
  192.3210  170.4560  143.7650 C   0  0  0  0  0  2  0  0  0  0  0  0
  193.9810  172.0430  143.1760 N   0  0  0  0  0  0  0  0  0  0  0  0
  193.8030  170.6800  143.6520 C   0  0  0  0  0  2  0  0  0  0  0  0
  190.8920  171.9880  142.3960 C   0  0  1  0  0  3  0  0  0  0  0  0
  190.4490  170.6260  141.8820 C   0  0  0  0  0  1  0  0  0  0  0  0
  189.6910  172.8520  142.6250 C   0  0  0  0  0  0  0  0  0  0  0  0
  189.8400  174.2310  142.6840 O   0  0  0  0  0  0  0  0  0  0  0  0
  188.5480  172.3390  142.7680 O   0  0  0  0  0  1  0  0  0  0  0  0
  1  5  2  0  0  0  0
  3 18  1  6  0  0  0
  3  1  1  0  0  0  0
  3  4  1  0  0  0  0
  4 33  1  0  0  0  0
  4  2  2  0  0  0  0
  5 10  1  0  0  0  0
  5  2  1  0  0  0  0
  6  9  1  0  0  0  0
  7  6  2  0  0  0  0
  8  7  1  0  0  0  0
  8 10  2  0  0  0  0
 10 12  1  0  0  0  0
 12  9  2  0  0  0  0
 12 11  1  0  0  0  0
 13 14  1  0  0  0  0
 14 15  2  0  0  0  0
 14  7  1  0  0  0  0
 16 13  1  0  0  0  0
 17 16  1  0  0  0  0
 19 18  1  0  0  0  0
 20 18  2  0  0  0  0
 23 21  2  0  0  0  0
 23 26  1  0  0  0  0
 24 23  1  0  0  0  0
 25 29  1  0  0  0  0
 26 19  1  0  0  0  0
 27 24  1  0  0  0  0
 28 25  1  0  0  0  0
 29 24  1  0  0  0  0
 29 22  2  0  0  0  0
 30 32  1  0  0  0  0
 31 32  1  0  0  0  0
 32 25  1  0  0  0  0
 34 33  1  0  0  0  0
 35 34  1  0  0  0  0
 36 37  1  0  0  0  0
 37 41  1  6  0  0  0
 37 38  1  0  0  0  0
 39 36  1  0  0  0  0
 39 40  1  0  0  0  0
 39 35  1  0  0  0  0
 40 38  1  0  0  0  0
 41 42  1  1  0  0  0
 41 43  1  0  0  0  0
 43 44  2  0  0  0  0
 43 45  1  0  0  0  0
M  END
>  <MODEL>
7

>  <REMARK>
 VINA RESULT:      -6.9      3.703      6.181
  Name = 
  12 active torsions:
  status: ('A' for Active; 'I' for Inactive)
    1  A    between atoms: C_4  and  C_30
    2  A    between atoms: C_8  and  C_33
    3  A    between atoms: C_9  and  C_20
    4  A    between atoms: N_11  and  N_25
    5  A    between atoms: N_12  and  C_29
    6  A    between atoms: N_15  and  N_22
    7  A    between atoms: C_16  and  C_34
    8  A    between atoms: C_16  and  C_35
    9  A    between atoms: C_20  and  C_23
   10  A    between atoms: C_24  and  C_37
   11  A    between atoms: C_34  and  C_38
   12  A    between atoms: C_38  and  N_43
                            x       y       z     vdW  Elec       q    Type
                         _______ _______ _______ _____ _____    ______ ____

>  <TORSDO>
F 12

$$$$
=
 OpenBabel11042415133D

 45 47  0  0  1  0  0  0  0  0999 V2000
  185.1570  178.7700  141.9500 C   0  0  0  0  0  3  0  0  0  0  0  0
  184.1500  178.2590  143.9300 N   0  0  0  0  0  0  0  0  0  0  0  0
  186.2170  178.7720  143.0030 C   0  0  1  0  0  3  0  0  0  0  0  0
  185.4020  178.4120  144.2010 C   0  0  0  0  0  0  0  0  0  0  0  0
  184.0000  178.4680  142.5310 C   0  0  0  0  0  0  0  0  0  0  0  0
  180.1740  178.1800  140.6550 C   0  0  0  0  0  3  0  0  0  0  0  0
  180.2720  178.6190  141.9790 C   0  0  0  0  0  0  0  0  0  0  0  0
  181.5390  178.7020  142.5630 C   0  0  0  0  0  3  0  0  0  0  0  0
  181.2920  177.8460  139.9600 N   0  0  0  0  0  0  0  0  0  0  0  0
  182.6900  178.3600  141.8440 C   0  0  0  0  0  0  0  0  0  0  0  0
  183.6540  177.5390  139.7140 N   0  0  0  0  0  1  0  0  0  0  0  0
  182.5340  177.9230  140.5070 C   0  0  0  0  0  0  0  0  0  0  0  0
  178.9450  178.6050  144.1140 N   0  0  0  0  0  2  0  0  0  0  0  0
  179.0650  178.9840  142.7410 C   0  0  0  0  0  0  0  0  0  0  0  0
  178.1370  179.6300  142.1810 O   0  0  0  0  0  0  0  0  0  0  0  0
  177.7710  178.9370  144.9040 C   0  0  0  0  0  2  0  0  0  0  0  0
  178.0610  180.1620  145.7460 C   0  0  0  0  0  1  0  0  0  0  0  0
  187.2570  177.7330  142.7080 C   0  0  0  0  0  0  0  0  0  0  0  0
  186.8540  176.3760  142.5430 N   0  0  0  0  0  2  0  0  0  0  0  0
  188.4770  178.0490  142.6240 O   0  0  0  0  0  0  0  0  0  0  0  0
  187.7040  175.6810  139.9970 O   0  0  0  0  0  0  0  0  0  0  0  0
  188.7480  172.8390  142.7410 O   0  0  0  0  0  0  0  0  0  0  0  0
  188.1830  175.0280  140.9660 C   0  0  0  0  0  0  0  0  0  0  0  0
  189.1180  173.9610  140.7210 N   0  0  0  0  0  0  0  0  0  0  0  0
  190.7650  172.3360  141.6940 N   0  0  0  0  0  0  0  0  0  0  0  0
  187.7950  175.3670  142.2990 N   0  0  0  0  0  2  0  0  0  0  0  0
  189.5700  173.7340  139.3540 C   0  0  0  0  0  1  0  0  0  0  0  0
  191.7290  172.7280  140.8210 O   0  0  0  0  0  1  0  0  0  0  0  0
  189.5160  173.0460  141.7620 C   0  0  0  0  0  0  0  0  0  0  0  0
  192.3690  171.2850  143.0020 C   0  0  0  0  0  1  0  0  0  0  0  0
  190.8150  170.0230  141.7750 C   0  0  0  0  0  1  0  0  0  0  0  0
  190.9850  171.2400  142.5510 N   0  0  0  0  0  0  0  0  0  0  0  0
  185.9430  178.3100  145.5870 C   0  0  0  0  0  2  0  0  0  0  0  0
  186.2500  176.8600  145.9230 C   0  0  0  0  0  2  0  0  0  0  0  0
  186.9520  176.7660  147.2690 C   0  0  0  0  0  2  0  0  0  0  0  0
  188.6580  176.7390  145.7280 N   0  0  0  0  0  2  0  0  0  0  0  0
  189.7060  175.7990  145.3430 C   0  0  2  0  0  3  0  0  0  0  0  0
  189.6320  174.6480  146.3180 C   0  0  0  0  0  2  0  0  0  0  0  0
  188.3710  176.5030  147.0840 N   0  0  0  0  0  0  0  0  0  0  0  0
  188.5870  175.0820  147.3080 C   0  0  0  0  0  2  0  0  0  0  0  0
  191.0820  176.4740  145.4110 C   0  0  1  0  0  3  0  0  0  0  0  0
  191.9130  175.9050  146.5520 C   0  0  0  0  0  1  0  0  0  0  0  0
  191.8330  176.3290  144.1240 C   0  0  0  0  0  0  0  0  0  0  0  0
  191.1500  175.9730  142.9690 O   0  0  0  0  0  0  0  0  0  0  0  0
  193.0780  176.5200  144.0810 O   0  0  0  0  0  1  0  0  0  0  0  0
  1  5  2  0  0  0  0
  1  3  1  0  0  0  0
  2  4  2  0  0  0  0
  3 18  1  6  0  0  0
  3  4  1  0  0  0  0
  4 33  1  0  0  0  0
  5  2  1  0  0  0  0
  6  7  1  0  0  0  0
  7  8  2  0  0  0  0
  7 14  1  0  0  0  0
  9 12  1  0  0  0  0
  9  6  2  0  0  0  0
 10  5  1  0  0  0  0
 10  8  1  0  0  0  0
 11 12  1  0  0  0  0
 12 10  2  0  0  0  0
 13 16  1  0  0  0  0
 14 13  1  0  0  0  0
 15 14  2  0  0  0  0
 16 17  1  0  0  0  0
 19 18  1  0  0  0  0
 20 18  2  0  0  0  0
 21 23  2  0  0  0  0
 23 26  1  0  0  0  0
 24 23  1  0  0  0  0
 24 29  1  0  0  0  0
 25 29  1  0  0  0  0
 25 32  1  0  0  0  0
 26 19  1  0  0  0  0
 27 24  1  0  0  0  0
 28 25  1  0  0  0  0
 29 22  2  0  0  0  0
 31 32  1  0  0  0  0
 32 30  1  0  0  0  0
 33 34  1  0  0  0  0
 34 35  1  0  0  0  0
 36 39  1  0  0  0  0
 37 41  1  1  0  0  0
 37 36  1  0  0  0  0
 37 38  1  0  0  0  0
 38 40  1  0  0  0  0
 39 35  1  0  0  0  0
 39 40  1  0  0  0  0
 41 42  1  1  0  0  0
 43 41  1  0  0  0  0
 44 43  2  0  0  0  0
 45 43  1  0  0  0  0
M  END
>  <MODEL>
8

>  <REMARK>
 VINA RESULT:      -6.8      2.504      4.515
  Name = 
  12 active torsions:
  status: ('A' for Active; 'I' for Inactive)
    1  A    between atoms: C_4  and  C_30
    2  A    between atoms: C_8  and  C_33
    3  A    between atoms: C_9  and  C_20
    4  A    between atoms: N_11  and  N_25
    5  A    between atoms: N_12  and  C_29
    6  A    between atoms: N_15  and  N_22
    7  A    between atoms: C_16  and  C_34
    8  A    between atoms: C_16  and  C_35
    9  A    between atoms: C_20  and  C_23
   10  A    between atoms: C_24  and  C_37
   11  A    between atoms: C_34  and  C_38
   12  A    between atoms: C_38  and  N_43
                            x       y       z     vdW  Elec       q    Type
                         _______ _______ _______ _____ _____    ______ ____

>  <TORSDO>
F 12

$$$$
=
 OpenBabel11042415133D

 45 47  0  0  1  0  0  0  0  0999 V2000
  190.3040  173.4100  139.4330 C   0  0  0  0  0  3  0  0  0  0  0  0
  191.8690  172.3250  140.6850 N   0  0  0  0  0  0  0  0  0  0  0  0
  189.5730  172.5260  140.3900 C   0  0  1  0  0  3  0  0  0  0  0  0
  190.7250  171.9180  141.1210 C   0  0  0  0  0  0  0  0  0  0  0  0
  191.6080  173.2600  139.6460 C   0  0  0  0  0  0  0  0  0  0  0  0
  194.7820  175.2840  137.6290 C   0  0  0  0  0  3  0  0  0  0  0  0
  194.9100  174.9570  138.9820 C   0  0  0  0  0  0  0  0  0  0  0  0
  193.8530  174.2950  139.6120 C   0  0  0  0  0  3  0  0  0  0  0  0
  193.6510  174.9590  136.9500 N   0  0  0  0  0  0  0  0  0  0  0  0
  192.6900  173.9580  138.9100 C   0  0  0  0  0  0  0  0  0  0  0  0
  191.4560  174.0220  136.7620 N   0  0  0  0  0  1  0  0  0  0  0  0
  192.6130  174.3110  137.5420 C   0  0  0  0  0  0  0  0  0  0  0  0
  196.0400  175.7800  141.0720 N   0  0  0  0  0  2  0  0  0  0  0  0
  196.1330  175.3040  139.7270 C   0  0  0  0  0  0  0  0  0  0  0  0
  197.2630  175.1830  139.1770 O   0  0  0  0  0  0  0  0  0  0  0  0
  197.2170  176.1420  141.8430 C   0  0  0  0  0  2  0  0  0  0  0  0
  196.7870  176.7860  143.1450 C   0  0  0  0  0  1  0  0  0  0  0  0
  188.7030  173.3370  141.3020 C   0  0  0  0  0  0  0  0  0  0  0  0
  189.0960  174.6660  141.6330 N   0  0  0  0  0  2  0  0  0  0  0  0
  187.6450  172.8470  141.7860 O   0  0  0  0  0  0  0  0  0  0  0  0
  189.6630  174.9160  144.3360 O   0  0  0  0  0  0  0  0  0  0  0  0
  185.9020  176.2610  143.4750 O   0  0  0  0  0  0  0  0  0  0  0  0
  188.6500  175.5280  143.8980 C   0  0  0  0  0  0  0  0  0  0  0  0
  187.8340  176.3010  144.7970 N   0  0  0  0  0  0  0  0  0  0  0  0
  185.9780  177.9730  145.0510 N   0  0  0  0  0  0  0  0  0  0  0  0
  188.3310  175.4500  142.5070 N   0  0  0  0  0  2  0  0  0  0  0  0
  188.2680  176.4430  146.1820 C   0  0  0  0  0  1  0  0  0  0  0  0
  186.7470  178.7660  145.8420 O   0  0  0  0  0  1  0  0  0  0  0  0
  186.5510  176.8260  144.3980 C   0  0  0  0  0  0  0  0  0  0  0  0
  184.5270  179.4190  143.9610 C   0  0  0  0  0  1  0  0  0  0  0  0
  184.0530  178.6660  146.1340 C   0  0  0  0  0  1  0  0  0  0  0  0
  184.6160  178.2720  144.8540 N   0  0  0  0  0  0  0  0  0  0  0  0
  190.5930  170.8910  142.1940 C   0  0  0  0  0  2  0  0  0  0  0  0
  191.0040  171.4780  143.5340 C   0  0  0  0  0  2  0  0  0  0  0  0
  192.3160  170.8650  144.0010 C   0  0  0  0  0  2  0  0  0  0  0  0
  192.4370  173.0780  144.6080 N   0  0  0  0  0  2  0  0  0  0  0  0
  193.3680  174.1790  144.3740 C   0  0  2  0  0  3  0  0  0  0  0  0
  194.5480  173.5950  143.6340 C   0  0  0  0  0  2  0  0  0  0  0  0
  193.1860  171.8890  144.5580 N   0  0  0  0  0  0  0  0  0  0  0  0
  194.2580  172.1190  143.6030 C   0  0  0  0  0  2  0  0  0  0  0  0
  193.8180  174.7930  145.7050 C   0  0  1  0  0  3  0  0  0  0  0  0
  195.3350  174.7830  145.8250 C   0  0  0  0  0  1  0  0  0  0  0  0
  193.3120  176.1930  145.8670 C   0  0  0  0  0  0  0  0  0  0  0  0
  192.1190  176.4170  146.5400 O   0  0  0  0  0  1  0  0  0  0  0  0
  193.9550  177.1680  145.3930 O   0  0  0  0  0  0  0  0  0  0  0  0
  1  5  2  0  0  0  0
  1  3  1  0  0  0  0
  2  4  2  0  0  0  0
  3  4  1  0  0  0  0
  3 18  1  1  0  0  0
  4 33  1  0  0  0  0
  5  2  1  0  0  0  0
  6  7  1  0  0  0  0
  7  8  2  0  0  0  0
  7 14  1  0  0  0  0
  9 12  1  0  0  0  0
  9  6  2  0  0  0  0
 10  8  1  0  0  0  0
 10  5  1  0  0  0  0
 11 12  1  0  0  0  0
 12 10  2  0  0  0  0
 13 16  1  0  0  0  0
 14 13  1  0  0  0  0
 15 14  2  0  0  0  0
 16 17  1  0  0  0  0
 18 19  1  0  0  0  0
 18 20  2  0  0  0  0
 19 26  1  0  0  0  0
 22 29  2  0  0  0  0
 23 21  2  0  0  0  0
 23 24  1  0  0  0  0
 24 27  1  0  0  0  0
 25 28  1  0  0  0  0
 26 23  1  0  0  0  0
 29 24  1  0  0  0  0
 29 25  1  0  0  0  0
 30 32  1  0  0  0  0
 32 25  1  0  0  0  0
 32 31  1  0  0  0  0
 33 34  1  0  0  0  0
 34 35  1  0  0  0  0
 35 39  1  0  0  0  0
 37 36  1  0  0  0  0
 37 41  1  1  0  0  0
 38 37  1  0  0  0  0
 39 36  1  0  0  0  0
 40 38  1  0  0  0  0
 40 39  1  0  0  0  0
 41 42  1  6  0  0  0
 41 43  1  0  0  0  0
 43 44  1  0  0  0  0
 45 43  2  0  0  0  0
M  END
>  <MODEL>
9

>  <REMARK>
 VINA RESULT:      -6.8      2.993      8.993
  Name = 
  12 active torsions:
  status: ('A' for Active; 'I' for Inactive)
    1  A    between atoms: C_4  and  C_30
    2  A    between atoms: C_8  and  C_33
    3  A    between atoms: C_9  and  C_20
    4  A    between atoms: N_11  and  N_25
    5  A    between atoms: N_12  and  C_29
    6  A    between atoms: N_15  and  N_22
    7  A    between atoms: C_16  and  C_34
    8  A    between atoms: C_16  and  C_35
    9  A    between atoms: C_20  and  C_23
   10  A    between atoms: C_24  and  C_37
   11  A    between atoms: C_34  and  C_38
   12  A    between atoms: C_38  and  N_43
                            x       y       z     vdW  Elec       q    Type
                         _______ _______ _______ _____ _____    ______ ____

>  <TORSDO>
F 12

$$$$
