=
 OpenBabel11042415403D

 46 48  0  0  1  0  0  0  0  0999 V2000
  191.0750  172.9330  142.1030 C   0  0  1  0  0  3  0  0  0  0  0  0
  191.1630  174.2560  142.7070 N   0  0  0  0  0  2  0  0  0  0  0  0
  190.1800  175.2750  142.5130 C   0  0  0  0  0  0  0  0  0  0  0  0
  188.2140  177.2490  142.1170 C   0  0  0  0  0  0  0  0  0  0  0  0
  187.9540  175.9080  141.7920 C   0  0  0  0  0  3  0  0  0  0  0  0
  190.4450  176.6140  142.8340 C   0  0  0  0  0  3  0  0  0  0  0  0
  189.4660  177.5920  142.6360 C   0  0  0  0  0  3  0  0  0  0  0  0
  188.9310  174.9280  141.9890 C   0  0  0  0  0  3  0  0  0  0  0  0
  187.2720  178.2700  141.9290 O   0  0  0  0  0  0  0  0  0  0  0  0
  185.4050  178.3040  140.5410 O   0  0  0  0  0  0  0  0  0  0  0  0
  185.9020  178.0990  141.6800 C   0  0  0  0  0  0  0  0  0  0  0  0
  185.0090  177.6940  142.8020 C   0  0  0  0  0  2  0  0  0  0  0  0
  185.8400  178.4670  146.9520 C   0  0  1  0  0  3  0  0  0  0  0  0
  184.3500  178.8910  144.9090 C   0  0  0  0  0  2  0  0  0  0  0  0
  186.2060  177.3150  144.8490 O   0  0  0  0  0  0  0  0  0  0  0  0
  184.4100  178.5070  146.3940 C   0  0  0  0  0  2  0  0  0  0  0  0
  185.5130  178.2870  144.1050 C   0  0  1  0  0  3  0  0  0  0  0  0
  185.8670  177.6050  148.0500 O   0  0  0  0  0  1  0  0  0  0  0  0
  186.8520  178.0320  145.8670 C   0  0  2  0  0  3  0  0  0  0  0  0
  188.0520  177.2630  146.4130 C   0  0  0  0  0  2  0  0  0  0  0  0
  188.2370  175.9180  145.7160 C   0  0  0  0  0  2  0  0  0  0  0  0
  189.3350  175.0950  146.3690 C   0  0  0  0  0  2  0  0  0  0  0  0
  188.8710  174.5430  147.5630 O   0  0  0  0  0  1  0  0  0  0  0  0
  191.6860  172.9580  140.8180 O   0  0  0  0  0  0  0  0  0  0  0  0
  190.9660  172.7460  139.6400 C   0  0  0  0  0  0  0  0  0  0  0  0
  190.3370  171.4830  139.4290 N   0  0  0  0  0  2  0  0  0  0  0  0
  190.8740  173.6560  138.7700 O   0  0  0  0  0  0  0  0  0  0  0  0
  189.5610  171.1970  138.2330 C   0  0  0  0  0  2  0  0  0  0  0  0
  190.2950  168.9750  138.8920 N   0  0  0  0  0  1  0  0  0  0  0  0
  189.8290  169.7770  137.7720 C   0  0  0  0  0  2  0  0  0  0  0  0
  191.7830  171.9190  142.9880 C   0  0  0  0  0  2  0  0  0  0  0  0
  193.1240  172.4590  143.4570 C   0  0  0  0  0  2  0  0  0  0  0  0
  193.4350  171.9620  144.8610 C   0  0  0  0  0  2  0  0  0  0  0  0
  196.7250  173.2770  145.9210 C   0  0  0  0  0  3  0  0  0  0  0  0
  195.7740  171.2300  145.3120 C   0  0  0  0  0  3  0  0  0  0  0  0
  194.8700  172.1890  145.2070 C   0  0  0  0  0  0  0  0  0  0  0  0
  197.0780  171.8350  145.7310 C   0  0  0  0  0  2  0  0  0  0  0  0
  195.4650  173.4610  145.5580 C   0  0  0  0  0  0  0  0  0  0  0  0
  194.7450  175.7570  145.0010 C   0  0  0  0  0  0  0  0  0  0  0  0
  194.7170  174.6750  145.7270 N   0  0  0  0  0  0  0  0  0  0  0  0
  195.0050  175.2090  142.5780 O   0  0  0  0  0  0  0  0  0  0  0  0
  196.4980  176.5870  143.6230 O   0  0  0  0  0  1  0  0  0  0  0  0
  195.4780  175.8530  143.7140 C   0  0  0  0  0  0  0  0  0  0  0  0
  194.7850  177.7940  146.2370 O   0  0  0  0  0  1  0  0  0  0  0  0
  193.9670  176.9350  145.5010 C   0  0  2  0  0  3  0  0  0  0  0  0
  192.7890  176.4880  146.3450 C   0  0  0  0  0  1  0  0  0  0  0  0
  1  2  1  0  0  0  0
  1 31  1  1  0  0  0
  3  2  1  0  0  0  0
  3  6  1  0  0  0  0
  4  7  1  0  0  0  0
  5  8  1  0  0  0  0
  5  4  2  0  0  0  0
  7  6  2  0  0  0  0
  8  3  2  0  0  0  0
  9  4  1  0  0  0  0
 10 11  2  0  0  0  0
 11  9  1  0  0  0  0
 11 12  1  0  0  0  0
 13 18  1  1  0  0  0
 14 16  1  0  0  0  0
 15 19  1  0  0  0  0
 16 13  1  0  0  0  0
 17 12  1  6  0  0  0
 17 15  1  0  0  0  0
 17 14  1  0  0  0  0
 19 20  1  1  0  0  0
 19 13  1  0  0  0  0
 21 22  1  0  0  0  0
 21 20  1  0  0  0  0
 22 23  1  0  0  0  0
 24  1  1  0  0  0  0
 25 24  1  0  0  0  0
 26 25  1  0  0  0  0
 27 25  2  0  0  0  0
 28 26  1  0  0  0  0
 30 28  1  0  0  0  0
 30 29  1  0  0  0  0
 31 32  1  0  0  0  0
 32 33  1  0  0  0  0
 33 36  1  0  0  0  0
 35 37  1  0  0  0  0
 36 35  2  0  0  0  0
 36 38  1  0  0  0  0
 37 34  1  0  0  0  0
 38 40  1  0  0  0  0
 38 34  2  0  0  0  0
 39 45  1  0  0  0  0
 39 40  2  0  0  0  0
 41 43  2  0  0  0  0
 42 43  1  0  0  0  0
 43 39  1  0  0  0  0
 45 44  1  0  0  0  0
 45 46  1  1  0  0  0
M  END
>  <MODEL>
1

>  <REMARK>
 VINA RESULT:      -6.7      0.000      0.000
  Name = 
  20 active torsions:
  status: ('A' for Active; 'I' for Inactive)
    1  A    between atoms: C_1  and  N_32
    2  A    between atoms: C_2  and  O_45
    3  A    between atoms: C_7  and  C_18
    4  A    between atoms: C_7  and  O_27
    5  A    between atoms: C_7  and  N_32
    6  A    between atoms: C_8  and  C_16
    7  A    between atoms: CA_10  and  C_28
    8  A    between atoms: CA_10  and  CB_43
    9  A    between atoms: N_11  and  C_35
   10  A    between atoms: C_15  and  C_18
   11  A    between atoms: C_15  and  C_41
   12  A    between atoms: C_16  and  C_17
   13  A    between atoms: C_17  and  C_39
   14  A    between atoms: C_21  and  C_41
   15  A    between atoms: C_22  and  O_27
   16  A    between atoms: C_23  and  C_36
   17  A    between atoms: C_23  and  C_42
   18  A    between atoms: N_25  and  C_29
   19  A    between atoms: C_29  and  C_38
   20  A    between atoms: C_42  and  O_45
                            x       y       z     vdW  Elec       q    Type
                         _______ _______ _______ _____ _____    ______ ____

>  <TORSDO>
F 20

$$$$
=
 OpenBabel11042415403D

 46 48  0  0  1  0  0  0  0  0999 V2000
  190.9120  173.3610  142.5400 C   0  0  1  0  0  3  0  0  0  0  0  0
  191.1100  174.8040  142.6020 N   0  0  0  0  0  2  0  0  0  0  0  0
  190.0490  175.7490  142.4450 C   0  0  0  0  0  0  0  0  0  0  0  0
  187.9350  177.5770  142.1210 C   0  0  0  0  0  0  0  0  0  0  0  0
  187.7950  176.2430  141.7050 C   0  0  0  0  0  3  0  0  0  0  0  0
  190.1950  177.0820  142.8580 C   0  0  0  0  0  3  0  0  0  0  0  0
  189.1420  177.9870  142.6960 C   0  0  0  0  0  3  0  0  0  0  0  0
  188.8460  175.3360  141.8660 C   0  0  0  0  0  3  0  0  0  0  0  0
  186.9150  178.5270  141.9730 O   0  0  0  0  0  0  0  0  0  0  0  0
  185.0500  178.3720  140.5920 O   0  0  0  0  0  0  0  0  0  0  0  0
  185.5580  178.2590  141.7380 C   0  0  0  0  0  0  0  0  0  0  0  0
  184.6930  177.8570  142.8830 C   0  0  0  0  0  2  0  0  0  0  0  0
  185.7780  178.4950  146.9970 C   0  0  1  0  0  3  0  0  0  0  0  0
  184.1060  178.8940  145.0940 C   0  0  0  0  0  2  0  0  0  0  0  0
  186.0700  177.4790  144.8140 O   0  0  0  0  0  0  0  0  0  0  0  0
  184.3100  178.4450  146.5480 C   0  0  0  0  0  2  0  0  0  0  0  0
  185.2480  178.4260  144.1760 C   0  0  1  0  0  3  0  0  0  0  0  0
  185.9560  177.5870  148.0420 O   0  0  0  0  0  1  0  0  0  0  0  0
  186.7340  178.1970  145.8190 C   0  0  2  0  0  3  0  0  0  0  0  0
  188.0290  177.5030  146.2340 C   0  0  0  0  0  2  0  0  0  0  0  0
  188.0500  176.0340  145.8220 C   0  0  0  0  0  2  0  0  0  0  0  0
  188.6980  175.1630  146.8850 C   0  0  0  0  0  2  0  0  0  0  0  0
  189.6420  174.3190  146.3000 O   0  0  0  0  0  1  0  0  0  0  0  0
  191.5210  172.8500  141.3590 O   0  0  0  0  0  0  0  0  0  0  0  0
  190.7860  172.2490  140.3350 C   0  0  0  0  0  0  0  0  0  0  0  0
  190.7330  172.8800  139.0560 N   0  0  0  0  0  2  0  0  0  0  0  0
  190.1740  171.1630  140.5350 O   0  0  0  0  0  0  0  0  0  0  0  0
  189.9980  172.3030  137.9410 C   0  0  0  0  0  2  0  0  0  0  0  0
  188.7470  174.2270  137.1390 N   0  0  0  0  0  1  0  0  0  0  0  0
  188.6330  172.9550  137.8320 C   0  0  0  0  0  2  0  0  0  0  0  0
  191.5360  172.7060  143.7630 C   0  0  0  0  0  2  0  0  0  0  0  0
  192.9820  173.1430  143.9270 C   0  0  0  0  0  2  0  0  0  0  0  0
  193.3770  173.1300  145.3960 C   0  0  0  0  0  2  0  0  0  0  0  0
  194.5560  176.5680  146.0840 C   0  0  0  0  0  3  0  0  0  0  0  0
  192.7780  175.1750  146.6890 C   0  0  0  0  0  3  0  0  0  0  0  0
  193.6120  174.5160  145.9030 C   0  0  0  0  0  0  0  0  0  0  0  0
  193.3230  176.5480  146.9340 C   0  0  0  0  0  2  0  0  0  0  0  0
  194.7270  175.3690  145.5500 C   0  0  0  0  0  0  0  0  0  0  0  0
  196.7320  174.2230  144.6770 C   0  0  0  0  0  0  0  0  0  0  0  0
  195.7140  175.0280  144.5640 N   0  0  0  0  0  0  0  0  0  0  0  0
  196.8630  171.9710  145.7510 O   0  0  0  0  0  0  0  0  0  0  0  0
  197.3040  173.8590  146.9570 O   0  0  0  0  0  1  0  0  0  0  0  0
  196.9540  173.3530  145.8580 C   0  0  0  0  0  0  0  0  0  0  0  0
  197.9370  175.4530  143.0290 O   0  0  0  0  0  1  0  0  0  0  0  0
  197.6940  174.1730  143.5290 C   0  0  2  0  0  3  0  0  0  0  0  0
  197.1720  173.2740  142.4240 C   0  0  0  0  0  1  0  0  0  0  0  0
  1  2  1  0  0  0  0
  1 31  1  1  0  0  0
  3  2  1  0  0  0  0
  3  6  1  0  0  0  0
  4  7  1  0  0  0  0
  5  8  1  0  0  0  0
  5  4  2  0  0  0  0
  7  6  2  0  0  0  0
  8  3  2  0  0  0  0
  9  4  1  0  0  0  0
 10 11  2  0  0  0  0
 11  9  1  0  0  0  0
 11 12  1  0  0  0  0
 13 18  1  1  0  0  0
 14 16  1  0  0  0  0
 15 19  1  0  0  0  0
 16 13  1  0  0  0  0
 17 12  1  6  0  0  0
 17 15  1  0  0  0  0
 17 14  1  0  0  0  0
 19 20  1  1  0  0  0
 19 13  1  0  0  0  0
 21 20  1  0  0  0  0
 21 22  1  0  0  0  0
 23 22  1  0  0  0  0
 24  1  1  0  0  0  0
 25 27  2  0  0  0  0
 25 24  1  0  0  0  0
 26 25  1  0  0  0  0
 28 26  1  0  0  0  0
 29 30  1  0  0  0  0
 30 28  1  0  0  0  0
 31 32  1  0  0  0  0
 32 33  1  0  0  0  0
 33 36  1  0  0  0  0
 34 37  1  0  0  0  0
 35 37  1  0  0  0  0
 36 35  2  0  0  0  0
 38 36  1  0  0  0  0
 38 34  2  0  0  0  0
 39 43  1  0  0  0  0
 40 39  2  0  0  0  0
 40 38  1  0  0  0  0
 41 43  2  0  0  0  0
 43 42  1  0  0  0  0
 44 45  1  0  0  0  0
 45 46  1  6  0  0  0
 45 39  1  0  0  0  0
M  END
>  <MODEL>
2

>  <REMARK>
 VINA RESULT:      -6.5      1.598      2.644
  Name = 
  20 active torsions:
  status: ('A' for Active; 'I' for Inactive)
    1  A    between atoms: C_1  and  N_32
    2  A    between atoms: C_2  and  O_45
    3  A    between atoms: C_7  and  C_18
    4  A    between atoms: C_7  and  O_27
    5  A    between atoms: C_7  and  N_32
    6  A    between atoms: C_8  and  C_16
    7  A    between atoms: CA_10  and  C_28
    8  A    between atoms: CA_10  and  CB_43
    9  A    between atoms: N_11  and  C_35
   10  A    between atoms: C_15  and  C_18
   11  A    between atoms: C_15  and  C_41
   12  A    between atoms: C_16  and  C_17
   13  A    between atoms: C_17  and  C_39
   14  A    between atoms: C_21  and  C_41
   15  A    between atoms: C_22  and  O_27
   16  A    between atoms: C_23  and  C_36
   17  A    between atoms: C_23  and  C_42
   18  A    between atoms: N_25  and  C_29
   19  A    between atoms: C_29  and  C_38
   20  A    between atoms: C_42  and  O_45
                            x       y       z     vdW  Elec       q    Type
                         _______ _______ _______ _____ _____    ______ ____

>  <TORSDO>
F 20

$$$$
=
 OpenBabel11042415403D

 46 48  0  0  1  0  0  0  0  0999 V2000
  194.2750  175.8070  144.6620 C   0  0  1  0  0  3  0  0  0  0  0  0
  193.0960  176.5400  145.1060 N   0  0  0  0  0  2  0  0  0  0  0  0
  191.9130  176.6760  144.3150 C   0  0  0  0  0  0  0  0  0  0  0  0
  189.5890  176.9020  142.7450 C   0  0  0  0  0  0  0  0  0  0  0  0
  190.3470  175.7200  142.7310 C   0  0  0  0  0  3  0  0  0  0  0  0
  191.1610  177.8600  144.3280 C   0  0  0  0  0  3  0  0  0  0  0  0
  190.0070  177.9690  143.5470 C   0  0  0  0  0  3  0  0  0  0  0  0
  191.5010  175.6090  143.5110 C   0  0  0  0  0  3  0  0  0  0  0  0
  188.4290  177.0670  141.9740 O   0  0  0  0  0  0  0  0  0  0  0  0
  187.0860  175.1860  142.2350 O   0  0  0  0  0  0  0  0  0  0  0  0
  187.1930  176.4400  142.1890 C   0  0  0  0  0  0  0  0  0  0  0  0
  185.9730  177.2810  142.3380 C   0  0  0  0  0  2  0  0  0  0  0  0
  185.4430  178.8710  146.3000 C   0  0  1  0  0  3  0  0  0  0  0  0
  184.7730  178.9110  143.8250 C   0  0  0  0  0  2  0  0  0  0  0  0
  186.3700  177.2950  144.7060 O   0  0  0  0  0  0  0  0  0  0  0  0
  184.2930  178.8410  145.2820 C   0  0  0  0  0  2  0  0  0  0  0  0
  186.0700  178.1150  143.6020 C   0  0  1  0  0  3  0  0  0  0  0  0
  185.0120  178.2550  147.4760 O   0  0  0  0  0  1  0  0  0  0  0  0
  186.7090  178.1870  145.7350 C   0  0  2  0  0  3  0  0  0  0  0  0
  187.5720  177.5080  146.7960 C   0  0  0  0  0  2  0  0  0  0  0  0
  188.1700  176.1970  146.2960 C   0  0  0  0  0  2  0  0  0  0  0  0
  189.4850  175.8810  146.9890 C   0  0  0  0  0  2  0  0  0  0  0  0
  189.8740  174.5730  146.7020 O   0  0  0  0  0  1  0  0  0  0  0  0
  195.3010  176.7300  144.3150 O   0  0  0  0  0  0  0  0  0  0  0  0
  196.1460  176.5380  143.2190 C   0  0  0  0  0  0  0  0  0  0  0  0
  195.6530  175.8350  142.0790 N   0  0  0  0  0  2  0  0  0  0  0  0
  197.3290  176.9750  143.2350 O   0  0  0  0  0  0  0  0  0  0  0  0
  196.4720  175.6100  140.8980 C   0  0  0  0  0  2  0  0  0  0  0  0
  194.1960  175.2710  140.1150 N   0  0  0  0  0  1  0  0  0  0  0  0
  195.5960  175.1670  139.7410 C   0  0  0  0  0  2  0  0  0  0  0  0
  194.7600  174.8950  145.7780 C   0  0  0  0  0  2  0  0  0  0  0  0
  194.2210  173.4870  145.5950 C   0  0  0  0  0  2  0  0  0  0  0  0
  194.4270  173.0220  144.1610 C   0  0  0  0  0  2  0  0  0  0  0  0
  193.5450  169.4360  143.9310 C   0  0  0  0  0  3  0  0  0  0  0  0
  195.4540  170.7800  143.7980 C   0  0  0  0  0  3  0  0  0  0  0  0
  194.4010  171.5310  144.0700 C   0  0  0  0  0  0  0  0  0  0  0  0
  195.0270  169.3470  143.7320 C   0  0  0  0  0  3  0  0  0  0  0  0
  193.2230  170.6960  144.1800 C   0  0  1  0  0  3  0  0  0  0  0  0
  191.1380  171.7310  143.3530 C   0  0  0  0  0  0  0  0  0  0  0  0
  191.8860  171.2100  144.2850 N   0  0  0  0  0  0  0  0  0  0  0  0
  192.0350  172.8640  141.3150 O   0  0  0  0  0  1  0  0  0  0  0  0
  191.4250  170.6650  141.2460 O   0  0  0  0  0  0  0  0  0  0  0  0
  191.5100  171.7270  141.9170 C   0  0  0  0  0  0  0  0  0  0  0  0
  189.3950  171.7620  144.9760 O   0  0  0  0  0  1  0  0  0  0  0  0
  189.8330  172.3300  143.7800 C   0  0  2  0  0  3  0  0  0  0  0  0
  188.7790  172.1560  142.7040 C   0  0  0  0  0  1  0  0  0  0  0  0
  1  2  1  0  0  0  0
  1 31  1  1  0  0  0
  3  6  1  0  0  0  0
  3  2  1  0  0  0  0
  4  7  1  0  0  0  0
  5  4  2  0  0  0  0
  5  8  1  0  0  0  0
  7  6  2  0  0  0  0
  8  3  2  0  0  0  0
  9 11  1  0  0  0  0
  9  4  1  0  0  0  0
 11 10  2  0  0  0  0
 11 12  1  0  0  0  0
 13 18  1  1  0  0  0
 14 16  1  0  0  0  0
 15 19  1  0  0  0  0
 16 13  1  0  0  0  0
 17 12  1  6  0  0  0
 17 14  1  0  0  0  0
 17 15  1  0  0  0  0
 19 13  1  0  0  0  0
 19 20  1  1  0  0  0
 21 20  1  0  0  0  0
 21 22  1  0  0  0  0
 23 22  1  0  0  0  0
 24  1  1  0  0  0  0
 25 27  2  0  0  0  0
 25 24  1  0  0  0  0
 26 25  1  0  0  0  0
 28 26  1  0  0  0  0
 30 29  1  0  0  0  0
 30 28  1  0  0  0  0
 32 31  1  0  0  0  0
 33 32  1  0  0  0  0
 34 38  1  0  0  0  0
 35 36  2  0  0  0  0
 36 33  1  0  0  0  0
 36 38  1  0  0  0  0
 37 35  1  0  0  0  0
 37 34  2  0  0  0  0
 38 40  1  6  0  0  0
 39 45  1  0  0  0  0
 39 40  2  0  0  0  0
 41 43  1  0  0  0  0
 42 43  2  0  0  0  0
 43 39  1  0  0  0  0
 45 46  1  6  0  0  0
 45 44  1  0  0  0  0
M  END
>  <MODEL>
3

>  <REMARK>
 VINA RESULT:      -6.4      2.178      4.542
  Name = 
  20 active torsions:
  status: ('A' for Active; 'I' for Inactive)
    1  A    between atoms: C_1  and  N_32
    2  A    between atoms: C_2  and  O_45
    3  A    between atoms: C_7  and  C_18
    4  A    between atoms: C_7  and  O_27
    5  A    between atoms: C_7  and  N_32
    6  A    between atoms: C_8  and  C_16
    7  A    between atoms: CA_10  and  C_28
    8  A    between atoms: CA_10  and  CB_43
    9  A    between atoms: N_11  and  C_35
   10  A    between atoms: C_15  and  C_18
   11  A    between atoms: C_15  and  C_41
   12  A    between atoms: C_16  and  C_17
   13  A    between atoms: C_17  and  C_39
   14  A    between atoms: C_21  and  C_41
   15  A    between atoms: C_22  and  O_27
   16  A    between atoms: C_23  and  C_36
   17  A    between atoms: C_23  and  C_42
   18  A    between atoms: N_25  and  C_29
   19  A    between atoms: C_29  and  C_38
   20  A    between atoms: C_42  and  O_45
                            x       y       z     vdW  Elec       q    Type
                         _______ _______ _______ _____ _____    ______ ____

>  <TORSDO>
F 20

$$$$
=
 OpenBabel11042415403D

 46 48  0  0  1  0  0  0  0  0999 V2000
  192.2570  171.9710  144.1250 C   0  0  1  0  0  3  0  0  0  0  0  0
  190.8350  172.1520  144.3850 N   0  0  0  0  0  2  0  0  0  0  0  0
  190.0010  173.0220  143.6150 C   0  0  0  0  0  0  0  0  0  0  0  0
  188.3820  174.7680  142.1160 C   0  0  0  0  0  0  0  0  0  0  0  0
  189.3480  175.2730  143.0020 C   0  0  0  0  0  3  0  0  0  0  0  0
  189.0340  172.5120  142.7360 C   0  0  0  0  0  3  0  0  0  0  0  0
  188.2320  173.3830  141.9930 C   0  0  0  0  0  3  0  0  0  0  0  0
  190.1510  174.4050  143.7460 C   0  0  0  0  0  3  0  0  0  0  0  0
  187.5460  175.5960  141.3550 O   0  0  0  0  0  0  0  0  0  0  0  0
  187.9600  177.8850  141.3620 O   0  0  0  0  0  0  0  0  0  0  0  0
  187.2000  176.9230  141.6500 C   0  0  0  0  0  0  0  0  0  0  0  0
  185.9120  177.1960  142.3470 C   0  0  0  0  0  2  0  0  0  0  0  0
  185.5780  178.8360  146.3100 C   0  0  1  0  0  3  0  0  0  0  0  0
  185.2720  179.1540  143.7840 C   0  0  0  0  0  2  0  0  0  0  0  0
  186.0030  177.0360  144.7420 O   0  0  0  0  0  0  0  0  0  0  0  0
  184.6350  179.2670  145.1770 C   0  0  0  0  0  2  0  0  0  0  0  0
  186.1760  177.9160  143.6580 C   0  0  1  0  0  3  0  0  0  0  0  0
  184.8070  178.4290  147.4010 O   0  0  0  0  0  1  0  0  0  0  0  0
  186.5370  177.7160  145.8460 C   0  0  2  0  0  3  0  0  0  0  0  0
  186.9370  176.7460  146.9550 C   0  0  0  0  0  2  0  0  0  0  0  0
  188.2830  176.0820  146.6780 C   0  0  0  0  0  2  0  0  0  0  0  0
  189.3450  177.1030  146.3060 C   0  0  0  0  0  2  0  0  0  0  0  0
  189.8190  177.7400  147.4520 O   0  0  0  0  0  1  0  0  0  0  0  0
  193.0010  172.3430  145.2810 O   0  0  0  0  0  0  0  0  0  0  0  0
  193.6600  173.5690  145.3870 C   0  0  0  0  0  0  0  0  0  0  0  0
  195.0330  173.6540  145.0090 N   0  0  0  0  0  2  0  0  0  0  0  0
  193.0540  174.5900  145.8150 O   0  0  0  0  0  0  0  0  0  0  0  0
  195.7780  174.9010  145.0810 C   0  0  0  0  0  2  0  0  0  0  0  0
  196.9540  173.7610  143.2840 N   0  0  0  0  0  1  0  0  0  0  0  0
  197.0880  174.7620  144.3290 C   0  0  0  0  0  2  0  0  0  0  0  0
  192.5330  170.5150  143.7840 C   0  0  0  0  0  2  0  0  0  0  0  0
  192.1420  170.2150  142.3460 C   0  0  0  0  0  2  0  0  0  0  0  0
  192.8570  171.1620  141.3940 C   0  0  0  0  0  2  0  0  0  0  0  0
  190.8220  173.4840  139.3570 C   0  0  0  0  0  3  0  0  0  0  0  0
  191.1840  171.1820  139.5470 C   0  0  0  0  0  3  0  0  0  0  0  0
  191.8910  171.8190  140.4630 C   0  0  0  0  0  0  0  0  0  0  0  0
  190.3790  172.1790  138.7720 C   0  0  0  0  0  3  0  0  0  0  0  0
  191.6470  173.2430  140.3640 C   0  0  1  0  0  3  0  0  0  0  0  0
  193.5910  174.6890  140.8440 C   0  0  0  0  0  0  0  0  0  0  0  0
  192.3930  174.2350  141.0870 N   0  0  0  0  0  0  0  0  0  0  0  0
  194.0930  175.0060  138.4180 O   0  0  0  0  0  0  0  0  0  0  0  0
  195.3020  173.5270  139.6700 O   0  0  0  0  0  1  0  0  0  0  0  0
  194.3530  174.3540  139.6170 C   0  0  0  0  0  0  0  0  0  0  0  0
  193.1910  176.3260  142.5290 O   0  0  0  0  0  1  0  0  0  0  0  0
  194.1870  175.6160  141.8590 C   0  0  2  0  0  3  0  0  0  0  0  0
  195.1630  176.5760  141.2080 C   0  0  0  0  0  1  0  0  0  0  0  0
  1 31  1  1  0  0  0
  1  2  1  0  0  0  0
  1 24  1  0  0  0  0
  3  8  1  0  0  0  0
  3  2  1  0  0  0  0
  4  5  1  0  0  0  0
  5  8  2  0  0  0  0
  6  3  2  0  0  0  0
  7  4  2  0  0  0  0
  7  6  1  0  0  0  0
  9 11  1  0  0  0  0
  9  4  1  0  0  0  0
 10 11  2  0  0  0  0
 11 12  1  0  0  0  0
 13 18  1  1  0  0  0
 14 16  1  0  0  0  0
 15 19  1  0  0  0  0
 16 13  1  0  0  0  0
 17 12  1  6  0  0  0
 17 14  1  0  0  0  0
 17 15  1  0  0  0  0
 19 13  1  0  0  0  0
 19 20  1  1  0  0  0
 21 20  1  0  0  0  0
 22 21  1  0  0  0  0
 22 23  1  0  0  0  0
 24 25  1  0  0  0  0
 25 27  2  0  0  0  0
 26 28  1  0  0  0  0
 26 25  1  0  0  0  0
 29 30  1  0  0  0  0
 30 28  1  0  0  0  0
 32 31  1  0  0  0  0
 33 32  1  0  0  0  0
 34 38  1  0  0  0  0
 35 36  2  0  0  0  0
 36 33  1  0  0  0  0
 37 34  2  0  0  0  0
 37 35  1  0  0  0  0
 38 36  1  0  0  0  0
 38 40  1  6  0  0  0
 39 40  2  0  0  0  0
 39 45  1  0  0  0  0
 41 43  2  0  0  0  0
 43 42  1  0  0  0  0
 43 39  1  0  0  0  0
 45 46  1  6  0  0  0
 45 44  1  0  0  0  0
M  END
>  <MODEL>
4

>  <REMARK>
 VINA RESULT:      -6.3      2.238      4.892
  Name = 
  20 active torsions:
  status: ('A' for Active; 'I' for Inactive)
    1  A    between atoms: C_1  and  N_32
    2  A    between atoms: C_2  and  O_45
    3  A    between atoms: C_7  and  C_18
    4  A    between atoms: C_7  and  O_27
    5  A    between atoms: C_7  and  N_32
    6  A    between atoms: C_8  and  C_16
    7  A    between atoms: CA_10  and  C_28
    8  A    between atoms: CA_10  and  CB_43
    9  A    between atoms: N_11  and  C_35
   10  A    between atoms: C_15  and  C_18
   11  A    between atoms: C_15  and  C_41
   12  A    between atoms: C_16  and  C_17
   13  A    between atoms: C_17  and  C_39
   14  A    between atoms: C_21  and  C_41
   15  A    between atoms: C_22  and  O_27
   16  A    between atoms: C_23  and  C_36
   17  A    between atoms: C_23  and  C_42
   18  A    between atoms: N_25  and  C_29
   19  A    between atoms: C_29  and  C_38
   20  A    between atoms: C_42  and  O_45
                            x       y       z     vdW  Elec       q    Type
                         _______ _______ _______ _____ _____    ______ ____

>  <TORSDO>
F 20

$$$$
=
 OpenBabel11042415403D

 46 48  0  0  1  0  0  0  0  0999 V2000
  193.2410  176.1050  143.9550 C   0  0  1  0  0  3  0  0  0  0  0  0
  192.6940  175.2060  144.9630 N   0  0  0  0  0  2  0  0  0  0  0  0
  191.4230  175.4040  145.5860 C   0  0  0  0  0  0  0  0  0  0  0  0
  188.9130  175.7510  146.8100 C   0  0  0  0  0  0  0  0  0  0  0  0
  189.3350  174.4780  146.3940 C   0  0  0  0  0  3  0  0  0  0  0  0
  191.0040  176.6790  145.9950 C   0  0  0  0  0  3  0  0  0  0  0  0
  189.7570  176.8470  146.6030 C   0  0  0  0  0  3  0  0  0  0  0  0
  190.5810  174.3070  145.7860 C   0  0  0  0  0  3  0  0  0  0  0  0
  187.6700  175.9770  147.4160 O   0  0  0  0  0  0  0  0  0  0  0  0
  187.3130  178.2740  147.3240 O   0  0  0  0  0  0  0  0  0  0  0  0
  186.8530  177.1050  147.2420 C   0  0  0  0  0  0  0  0  0  0  0  0
  185.3990  176.9100  146.9800 C   0  0  0  0  0  2  0  0  0  0  0  0
  185.4260  178.5500  143.0030 C   0  0  1  0  0  3  0  0  0  0  0  0
  184.5190  178.6510  145.3990 C   0  0  0  0  0  2  0  0  0  0  0  0
  186.2350  177.0550  144.7330 O   0  0  0  0  0  0  0  0  0  0  0  0
  185.1530  179.4250  144.2350 C   0  0  0  0  0  2  0  0  0  0  0  0
  185.0880  177.2280  145.5290 C   0  0  1  0  0  3  0  0  0  0  0  0
  186.4600  179.1290  142.2650 O   0  0  0  0  0  1  0  0  0  0  0  0
  185.7670  177.0980  143.4120 C   0  0  2  0  0  3  0  0  0  0  0  0
  186.7310  176.3970  142.4580 C   0  0  0  0  0  2  0  0  0  0  0  0
  187.9050  175.7600  143.1950 C   0  0  0  0  0  2  0  0  0  0  0  0
  189.2300  176.3780  142.7780 C   0  0  0  0  0  2  0  0  0  0  0  0
  189.0040  177.4750  141.9470 O   0  0  0  0  0  1  0  0  0  0  0  0
  194.4340  176.7030  144.4520 O   0  0  0  0  0  0  0  0  0  0  0  0
  195.7020  176.1850  144.1820 C   0  0  0  0  0  0  0  0  0  0  0  0
  196.1250  175.0000  144.8550 N   0  0  0  0  0  2  0  0  0  0  0  0
  196.4680  176.7560  143.3570 O   0  0  0  0  0  0  0  0  0  0  0  0
  197.4270  174.3980  144.6130 C   0  0  0  0  0  2  0  0  0  0  0  0
  196.9410  172.5990  146.1740 N   0  0  0  0  0  1  0  0  0  0  0  0
  197.3440  172.8960  144.8090 C   0  0  0  0  0  2  0  0  0  0  0  0
  193.5480  175.3260  142.6860 C   0  0  0  0  0  2  0  0  0  0  0  0
  193.0640  173.8900  142.8070 C   0  0  0  0  0  2  0  0  0  0  0  0
  192.2970  173.4810  141.5590 C   0  0  0  0  0  2  0  0  0  0  0  0
  188.7020  172.6090  141.6140 C   0  0  0  0  0  3  0  0  0  0  0  0
  190.5750  172.3950  142.9980 C   0  0  0  0  0  3  0  0  0  0  0  0
  190.9070  173.0510  141.8990 C   0  0  0  0  0  0  0  0  0  0  0  0
  189.1100  172.0880  142.9570 C   0  0  0  0  0  2  0  0  0  0  0  0
  189.7420  173.2080  141.0540 C   0  0  0  0  0  0  0  0  0  0  0  0
  190.1370  173.0840  138.6190 C   0  0  0  0  0  0  0  0  0  0  0  0
  189.7910  173.7090  139.7090 N   0  0  0  0  0  0  0  0  0  0  0  0
  191.6440  171.1090  138.8840 O   0  0  0  0  0  1  0  0  0  0  0  0
  189.4520  170.8270  138.3090 O   0  0  0  0  0  0  0  0  0  0  0  0
  190.3930  171.6240  138.5670 C   0  0  0  0  0  0  0  0  0  0  0  0
  188.9830  174.2900  136.9190 O   0  0  0  0  0  1  0  0  0  0  0  0
  190.2450  173.9010  137.3680 C   0  0  2  0  0  3  0  0  0  0  0  0
  190.9720  173.1340  136.2810 C   0  0  0  0  0  1  0  0  0  0  0  0
  1 31  1  6  0  0  0
  1 24  1  0  0  0  0
  1  2  1  0  0  0  0
  2  3  1  0  0  0  0
  3  8  2  0  0  0  0
  3  6  1  0  0  0  0
  4  9  1  0  0  0  0
  5  4  2  0  0  0  0
  6  7  2  0  0  0  0
  7  4  1  0  0  0  0
  8  5  1  0  0  0  0
 11 10  2  0  0  0  0
 11  9  1  0  0  0  0
 12 11  1  0  0  0  0
 13 18  1  1  0  0  0
 13 19  1  0  0  0  0
 13 16  1  0  0  0  0
 14 17  1  0  0  0  0
 15 17  1  0  0  0  0
 16 14  1  0  0  0  0
 17 12  1  1  0  0  0
 19 20  1  6  0  0  0
 19 15  1  0  0  0  0
 20 21  1  0  0  0  0
 22 21  1  0  0  0  0
 23 22  1  0  0  0  0
 25 24  1  0  0  0  0
 25 26  1  0  0  0  0
 27 25  2  0  0  0  0
 28 30  1  0  0  0  0
 28 26  1  0  0  0  0
 30 29  1  0  0  0  0
 31 32  1  0  0  0  0
 33 36  1  0  0  0  0
 33 32  1  0  0  0  0
 34 37  1  0  0  0  0
 36 35  2  0  0  0  0
 37 35  1  0  0  0  0
 38 34  2  0  0  0  0
 38 36  1  0  0  0  0
 39 40  2  0  0  0  0
 40 38  1  0  0  0  0
 42 43  2  0  0  0  0
 43 39  1  0  0  0  0
 43 41  1  0  0  0  0
 44 45  1  0  0  0  0
 45 46  1  6  0  0  0
 45 39  1  0  0  0  0
M  END
>  <MODEL>
5

>  <REMARK>
 VINA RESULT:      -6.3      1.827      6.552
  Name = 
  20 active torsions:
  status: ('A' for Active; 'I' for Inactive)
    1  A    between atoms: C_1  and  N_32
    2  A    between atoms: C_2  and  O_45
    3  A    between atoms: C_7  and  C_18
    4  A    between atoms: C_7  and  O_27
    5  A    between atoms: C_7  and  N_32
    6  A    between atoms: C_8  and  C_16
    7  A    between atoms: CA_10  and  C_28
    8  A    between atoms: CA_10  and  CB_43
    9  A    between atoms: N_11  and  C_35
   10  A    between atoms: C_15  and  C_18
   11  A    between atoms: C_15  and  C_41
   12  A    between atoms: C_16  and  C_17
   13  A    between atoms: C_17  and  C_39
   14  A    between atoms: C_21  and  C_41
   15  A    between atoms: C_22  and  O_27
   16  A    between atoms: C_23  and  C_36
   17  A    between atoms: C_23  and  C_42
   18  A    between atoms: N_25  and  C_29
   19  A    between atoms: C_29  and  C_38
   20  A    between atoms: C_42  and  O_45
                            x       y       z     vdW  Elec       q    Type
                         _______ _______ _______ _____ _____    ______ ____

>  <TORSDO>
F 20

$$$$
=
 OpenBabel11042415403D

 46 48  0  0  1  0  0  0  0  0999 V2000
  190.1600  172.1500  140.7130 C   0  0  1  0  0  3  0  0  0  0  0  0
  189.2940  172.1670  141.8850 N   0  0  0  0  0  2  0  0  0  0  0  0
  189.4650  173.0770  142.9740 C   0  0  0  0  0  0  0  0  0  0  0  0
  189.8290  174.8410  145.1350 C   0  0  0  0  0  0  0  0  0  0  0  0
  190.4320  173.5730  145.1390 C   0  0  0  0  0  3  0  0  0  0  0  0
  188.8560  174.3410  142.9680 C   0  0  0  0  0  3  0  0  0  0  0  0
  189.0400  175.2150  144.0430 C   0  0  0  0  0  3  0  0  0  0  0  0
  190.2510  172.6980  144.0660 C   0  0  0  0  0  3  0  0  0  0  0  0
  189.9730  175.7510  146.1920 O   0  0  0  0  0  0  0  0  0  0  0  0
  190.2510  177.9220  145.4020 O   0  0  0  0  0  0  0  0  0  0  0  0
  189.6500  177.1160  146.1610 C   0  0  0  0  0  0  0  0  0  0  0  0
  188.5890  177.6280  147.0730 C   0  0  0  0  0  2  0  0  0  0  0  0
  184.5620  177.9380  145.5930 C   0  0  1  0  0  3  0  0  0  0  0  0
  186.1310  177.4820  147.5680 C   0  0  0  0  0  2  0  0  0  0  0  0
  186.9680  178.1550  145.3810 O   0  0  0  0  0  0  0  0  0  0  0  0
  184.9110  178.2590  147.0530 C   0  0  0  0  0  2  0  0  0  0  0  0
  187.2190  177.3290  146.4920 C   0  0  1  0  0  3  0  0  0  0  0  0
  183.8730  179.0250  145.0500 O   0  0  0  0  0  1  0  0  0  0  0  0
  185.8300  177.6060  144.7730 C   0  0  2  0  0  3  0  0  0  0  0  0
  185.7380  178.0050  143.3020 C   0  0  0  0  0  2  0  0  0  0  0  0
  186.0470  176.8380  142.3700 C   0  0  0  0  0  2  0  0  0  0  0  0
  186.7560  177.3000  141.1080 C   0  0  0  0  0  2  0  0  0  0  0  0
  188.1030  177.5400  141.3780 O   0  0  0  0  0  1  0  0  0  0  0  0
  190.1600  173.4390  140.1070 O   0  0  0  0  0  0  0  0  0  0  0  0
  189.4990  173.7040  138.9060 C   0  0  0  0  0  0  0  0  0  0  0  0
  190.2500  173.7270  137.6920 N   0  0  0  0  0  2  0  0  0  0  0  0
  188.2570  173.9250  138.8900 O   0  0  0  0  0  0  0  0  0  0  0  0
  189.6250  173.9840  136.4040 C   0  0  0  0  0  2  0  0  0  0  0  0
  189.3860  171.9810  135.0460 N   0  0  0  0  0  1  0  0  0  0  0  0
  190.2580  173.1050  135.3410 C   0  0  0  0  0  2  0  0  0  0  0  0
  191.5750  171.7780  141.1270 C   0  0  0  0  0  2  0  0  0  0  0  0
  192.5360  172.9200  140.8430 C   0  0  0  0  0  2  0  0  0  0  0  0
  193.4290  173.1750  142.0480 C   0  0  0  0  0  2  0  0  0  0  0  0
  193.4770  176.3670  143.9170 C   0  0  0  0  0  3  0  0  0  0  0  0
  192.2680  175.3770  142.1780 C   0  0  0  0  0  3  0  0  0  0  0  0
  193.1650  174.5220  142.6380 C   0  0  0  0  0  0  0  0  0  0  0  0
  192.3360  176.6350  142.9860 C   0  0  0  0  0  3  0  0  0  0  0  0
  193.8960  175.1240  143.7330 C   0  0  1  0  0  3  0  0  0  0  0  0
  196.3060  174.6370  143.9630 C   0  0  0  0  0  0  0  0  0  0  0  0
  195.0610  174.5390  144.3350 N   0  0  0  0  0  0  0  0  0  0  0  0
  197.6950  176.5530  143.1630 O   0  0  0  0  0  1  0  0  0  0  0  0
  196.3700  175.3930  141.7090 O   0  0  0  0  0  0  0  0  0  0  0  0
  196.7640  175.5580  142.8940 C   0  0  0  0  0  0  0  0  0  0  0  0
  197.5090  172.5810  144.0230 O   0  0  0  0  0  1  0  0  0  0  0  0
  197.3050  173.7890  144.6900 C   0  0  2  0  0  3  0  0  0  0  0  0
  196.8580  173.5280  146.1160 C   0  0  0  0  0  1  0  0  0  0  0  0
  1 31  1  1  0  0  0
  1  2  1  0  0  0  0
  2  3  1  0  0  0  0
  3  8  1  0  0  0  0
  4  5  1  0  0  0  0
  4  9  1  0  0  0  0
  6  3  2  0  0  0  0
  6  7  1  0  0  0  0
  7  4  2  0  0  0  0
  8  5  2  0  0  0  0
 10 11  2  0  0  0  0
 11  9  1  0  0  0  0
 11 12  1  0  0  0  0
 13 18  1  6  0  0  0
 13 16  1  0  0  0  0
 15 17  1  0  0  0  0
 16 14  1  0  0  0  0
 17 12  1  1  0  0  0
 17 14  1  0  0  0  0
 19 20  1  6  0  0  0
 19 15  1  0  0  0  0
 19 13  1  0  0  0  0
 21 20  1  0  0  0  0
 22 23  1  0  0  0  0
 22 21  1  0  0  0  0
 24  1  1  0  0  0  0
 25 24  1  0  0  0  0
 26 25  1  0  0  0  0
 27 25  2  0  0  0  0
 28 26  1  0  0  0  0
 29 30  1  0  0  0  0
 30 28  1  0  0  0  0
 32 31  1  0  0  0  0
 32 33  1  0  0  0  0
 33 36  1  0  0  0  0
 35 36  2  0  0  0  0
 35 37  1  0  0  0  0
 36 38  1  0  0  0  0
 37 34  2  0  0  0  0
 38 34  1  0  0  0  0
 38 40  1  6  0  0  0
 39 40  2  0  0  0  0
 39 45  1  0  0  0  0
 42 43  2  0  0  0  0
 43 41  1  0  0  0  0
 43 39  1  0  0  0  0
 44 45  1  0  0  0  0
 45 46  1  1  0  0  0
M  END
>  <MODEL>
6

>  <REMARK>
 VINA RESULT:      -6.2      2.103      4.009
  Name = 
  20 active torsions:
  status: ('A' for Active; 'I' for Inactive)
    1  A    between atoms: C_1  and  N_32
    2  A    between atoms: C_2  and  O_45
    3  A    between atoms: C_7  and  C_18
    4  A    between atoms: C_7  and  O_27
    5  A    between atoms: C_7  and  N_32
    6  A    between atoms: C_8  and  C_16
    7  A    between atoms: CA_10  and  C_28
    8  A    between atoms: CA_10  and  CB_43
    9  A    between atoms: N_11  and  C_35
   10  A    between atoms: C_15  and  C_18
   11  A    between atoms: C_15  and  C_41
   12  A    between atoms: C_16  and  C_17
   13  A    between atoms: C_17  and  C_39
   14  A    between atoms: C_21  and  C_41
   15  A    between atoms: C_22  and  O_27
   16  A    between atoms: C_23  and  C_36
   17  A    between atoms: C_23  and  C_42
   18  A    between atoms: N_25  and  C_29
   19  A    between atoms: C_29  and  C_38
   20  A    between atoms: C_42  and  O_45
                            x       y       z     vdW  Elec       q    Type
                         _______ _______ _______ _____ _____    ______ ____

>  <TORSDO>
F 20

$$$$
=
 OpenBabel11042415403D

 46 48  0  0  1  0  0  0  0  0999 V2000
  185.5270  178.2910  141.3150 C   0  0  1  0  0  3  0  0  0  0  0  0
  186.4770  177.5200  140.5230 N   0  0  0  0  0  2  0  0  0  0  0  0
  187.5060  176.7120  141.0990 C   0  0  0  0  0  0  0  0  0  0  0  0
  189.5190  175.0890  142.2090 C   0  0  0  0  0  0  0  0  0  0  0  0
  188.5930  174.5550  141.2990 C   0  0  0  0  0  3  0  0  0  0  0  0
  188.4270  177.2490  142.0120 C   0  0  0  0  0  3  0  0  0  0  0  0
  189.4260  176.4400  142.5610 C   0  0  0  0  0  3  0  0  0  0  0  0
  187.5940  175.3620  140.7480 C   0  0  0  0  0  3  0  0  0  0  0  0
  190.5340  174.3200  142.7960 O   0  0  0  0  0  0  0  0  0  0  0  0
  192.2920  172.8780  142.3060 O   0  0  0  0  0  0  0  0  0  0  0  0
  191.7850  174.0280  142.2330 C   0  0  0  0  0  0  0  0  0  0  0  0
  192.5450  175.1180  141.5570 C   0  0  0  0  0  2  0  0  0  0  0  0
  196.6670  175.9150  142.4940 C   0  0  1  0  0  3  0  0  0  0  0  0
  194.8700  175.5360  140.7050 C   0  0  0  0  0  2  0  0  0  0  0  0
  194.3320  175.6260  143.0800 O   0  0  0  0  0  0  0  0  0  0  0  0
  196.0210  176.4240  141.1970 C   0  0  0  0  0  2  0  0  0  0  0  0
  194.0250  174.9840  141.8660 C   0  0  1  0  0  3  0  0  0  0  0  0
  197.2580  176.9950  143.1520 O   0  0  0  0  0  1  0  0  0  0  0  0
  195.6310  175.2020  143.3940 C   0  0  2  0  0  3  0  0  0  0  0  0
  195.9130  175.3360  144.8880 C   0  0  0  0  0  2  0  0  0  0  0  0
  194.6300  175.4080  145.7100 C   0  0  0  0  0  2  0  0  0  0  0  0
  194.5480  176.6970  146.5110 C   0  0  0  0  0  2  0  0  0  0  0  0
  193.2930  176.8090  147.1090 O   0  0  0  0  0  1  0  0  0  0  0  0
  184.4940  178.7820  140.4670 O   0  0  0  0  0  0  0  0  0  0  0  0
  183.2090  178.2360  140.4550 C   0  0  0  0  0  0  0  0  0  0  0  0
  182.2090  178.7980  141.3050 N   0  0  0  0  0  2  0  0  0  0  0  0
  182.9320  177.2580  139.7080 O   0  0  0  0  0  0  0  0  0  0  0  0
  180.8470  178.2900  141.3360 C   0  0  0  0  0  2  0  0  0  0  0  0
  180.2960  180.5080  140.5070 N   0  0  0  0  0  1  0  0  0  0  0  0
  179.9760  179.0950  140.3900 C   0  0  0  0  0  2  0  0  0  0  0  0
  184.9270  177.4070  142.3960 C   0  0  0  0  0  2  0  0  0  0  0  0
  184.9050  178.1310  143.7320 C   0  0  0  0  0  2  0  0  0  0  0  0
  186.2270  177.9420  144.4600 C   0  0  0  0  0  2  0  0  0  0  0  0
  186.4270  178.1810  148.1460 C   0  0  0  0  0  3  0  0  0  0  0  0
  185.5680  179.4180  146.3570 C   0  0  0  0  0  3  0  0  0  0  0  0
  186.1000  178.2950  145.9060 C   0  0  0  0  0  0  0  0  0  0  0  0
  185.6730  179.4410  147.8510 C   0  0  0  0  0  2  0  0  0  0  0  0
  186.6080  177.5160  147.0160 C   0  0  0  0  0  0  0  0  0  0  0  0
  188.6810  176.2410  146.5980 C   0  0  0  0  0  0  0  0  0  0  0  0
  187.4080  176.3340  146.8630 N   0  0  0  0  0  0  0  0  0  0  0  0
  189.8370  178.0970  145.3900 O   0  0  0  0  0  0  0  0  0  0  0  0
  190.0960  177.8420  147.6440 O   0  0  0  0  0  1  0  0  0  0  0  0
  189.5930  177.4110  146.5730 C   0  0  0  0  0  0  0  0  0  0  0  0
  188.9470  174.0150  147.4050 O   0  0  0  0  0  1  0  0  0  0  0  0
  189.2270  174.8690  146.3390 C   0  0  2  0  0  3  0  0  0  0  0  0
  190.7220  174.9190  146.0900 C   0  0  0  0  0  1  0  0  0  0  0  0
  1 31  1  1  0  0  0
  2  3  1  0  0  0  0
  2  1  1  0  0  0  0
  3  6  1  0  0  0  0
  4  7  1  0  0  0  0
  4  9  1  0  0  0  0
  5  4  2  0  0  0  0
  6  7  2  0  0  0  0
  8  3  2  0  0  0  0
  8  5  1  0  0  0  0
 11 10  2  0  0  0  0
 11  9  1  0  0  0  0
 12 11  1  0  0  0  0
 13 18  1  1  0  0  0
 13 19  1  0  0  0  0
 14 16  1  0  0  0  0
 14 17  1  0  0  0  0
 15 19  1  0  0  0  0
 16 13  1  0  0  0  0
 17 12  1  6  0  0  0
 17 15  1  0  0  0  0
 19 20  1  1  0  0  0
 20 21  1  0  0  0  0
 21 22  1  0  0  0  0
 22 23  1  0  0  0  0
 24  1  1  0  0  0  0
 25 24  1  0  0  0  0
 25 26  1  0  0  0  0
 26 28  1  0  0  0  0
 27 25  2  0  0  0  0
 30 29  1  0  0  0  0
 30 28  1  0  0  0  0
 31 32  1  0  0  0  0
 32 33  1  0  0  0  0
 33 36  1  0  0  0  0
 35 37  1  0  0  0  0
 36 35  2  0  0  0  0
 36 38  1  0  0  0  0
 37 34  1  0  0  0  0
 38 34  2  0  0  0  0
 39 40  2  0  0  0  0
 40 38  1  0  0  0  0
 41 43  2  0  0  0  0
 43 39  1  0  0  0  0
 43 42  1  0  0  0  0
 45 46  1  1  0  0  0
 45 39  1  0  0  0  0
 45 44  1  0  0  0  0
M  END
>  <MODEL>
7

>  <REMARK>
 VINA RESULT:      -6.2      3.325      8.863
  Name = 
  20 active torsions:
  status: ('A' for Active; 'I' for Inactive)
    1  A    between atoms: C_1  and  N_32
    2  A    between atoms: C_2  and  O_45
    3  A    between atoms: C_7  and  C_18
    4  A    between atoms: C_7  and  O_27
    5  A    between atoms: C_7  and  N_32
    6  A    between atoms: C_8  and  C_16
    7  A    between atoms: CA_10  and  C_28
    8  A    between atoms: CA_10  and  CB_43
    9  A    between atoms: N_11  and  C_35
   10  A    between atoms: C_15  and  C_18
   11  A    between atoms: C_15  and  C_41
   12  A    between atoms: C_16  and  C_17
   13  A    between atoms: C_17  and  C_39
   14  A    between atoms: C_21  and  C_41
   15  A    between atoms: C_22  and  O_27
   16  A    between atoms: C_23  and  C_36
   17  A    between atoms: C_23  and  C_42
   18  A    between atoms: N_25  and  C_29
   19  A    between atoms: C_29  and  C_38
   20  A    between atoms: C_42  and  O_45
                            x       y       z     vdW  Elec       q    Type
                         _______ _______ _______ _____ _____    ______ ____

>  <TORSDO>
F 20

$$$$
=
 OpenBabel11042415403D

 46 48  0  0  1  0  0  0  0  0999 V2000
  185.2270  178.4460  141.1360 C   0  0  1  0  0  3  0  0  0  0  0  0
  186.3010  177.7010  140.4930 N   0  0  0  0  0  2  0  0  0  0  0  0
  187.4470  177.2120  141.1950 C   0  0  0  0  0  0  0  0  0  0  0  0
  189.6890  176.2090  142.5670 C   0  0  0  0  0  0  0  0  0  0  0  0
  188.7200  175.3350  142.0480 C   0  0  0  0  0  3  0  0  0  0  0  0
  188.4100  178.0890  141.7150 C   0  0  0  0  0  3  0  0  0  0  0  0
  189.5230  177.5870  142.3960 C   0  0  0  0  0  3  0  0  0  0  0  0
  187.6070  175.8340  141.3670 C   0  0  0  0  0  3  0  0  0  0  0  0
  190.8180  175.7590  143.2650 O   0  0  0  0  0  0  0  0  0  0  0  0
  192.4710  177.1540  144.1210 O   0  0  0  0  0  0  0  0  0  0  0  0
  192.0960  176.3370  143.2390 C   0  0  0  0  0  0  0  0  0  0  0  0
  193.0200  175.9960  142.1220 C   0  0  0  0  0  2  0  0  0  0  0  0
  196.2030  174.3920  144.5310 C   0  0  1  0  0  3  0  0  0  0  0  0
  195.4650  176.0250  142.6970 C   0  0  0  0  0  2  0  0  0  0  0  0
  193.8720  174.6330  143.9070 O   0  0  0  0  0  0  0  0  0  0  0  0
  196.2330  175.8380  144.0130 C   0  0  0  0  0  2  0  0  0  0  0  0
  194.1840  175.1740  142.6460 C   0  0  1  0  0  3  0  0  0  0  0  0
  196.3940  174.4100  145.9140 O   0  0  0  0  0  1  0  0  0  0  0  0
  194.8790  173.6880  144.1520 C   0  0  2  0  0  3  0  0  0  0  0  0
  194.4230  172.6410  145.1660 C   0  0  0  0  0  2  0  0  0  0  0  0
  193.2200  171.8460  144.6670 C   0  0  0  0  0  2  0  0  0  0  0  0
  193.3210  171.5520  143.1800 C   0  0  0  0  0  2  0  0  0  0  0  0
  192.2020  170.8330  142.7580 O   0  0  0  0  0  1  0  0  0  0  0  0
  184.1850  178.6820  140.1940 O   0  0  0  0  0  0  0  0  0  0  0  0
  182.9070  178.1400  140.3370 C   0  0  0  0  0  0  0  0  0  0  0  0
  181.9850  178.7610  141.2320 N   0  0  0  0  0  2  0  0  0  0  0  0
  182.5670  177.1130  139.6860 O   0  0  0  0  0  0  0  0  0  0  0  0
  180.6330  178.2590  141.4200 C   0  0  0  0  0  2  0  0  0  0  0  0
  180.2700  180.4490  140.4280 N   0  0  0  0  0  1  0  0  0  0  0  0
  179.6440  179.1690  140.7170 C   0  0  0  0  0  2  0  0  0  0  0  0
  184.6840  177.6490  142.3120 C   0  0  0  0  0  2  0  0  0  0  0  0
  185.0160  178.3360  143.6260 C   0  0  0  0  0  2  0  0  0  0  0  0
  185.7020  177.3650  144.5750 C   0  0  0  0  0  2  0  0  0  0  0  0
  186.7480  178.2920  148.0000 C   0  0  0  0  0  3  0  0  0  0  0  0
  185.3830  179.1360  146.2990 C   0  0  0  0  0  3  0  0  0  0  0  0
  185.8910  177.9740  145.9260 C   0  0  0  0  0  0  0  0  0  0  0  0
  185.8360  179.4390  147.6940 C   0  0  0  0  0  2  0  0  0  0  0  0
  186.7150  177.4380  146.9890 C   0  0  0  0  0  0  0  0  0  0  0  0
  188.8440  176.2380  146.6360 C   0  0  0  0  0  0  0  0  0  0  0  0
  187.5580  176.2850  146.8420 N   0  0  0  0  0  0  0  0  0  0  0  0
  189.8880  178.2400  145.5680 O   0  0  0  0  0  0  0  0  0  0  0  0
  190.2570  177.7770  147.7730 O   0  0  0  0  0  1  0  0  0  0  0  0
  189.7190  177.4350  146.6870 C   0  0  0  0  0  0  0  0  0  0  0  0
  188.9380  173.9370  147.2490 O   0  0  0  0  0  1  0  0  0  0  0  0
  189.4440  174.8910  146.3670 C   0  0  2  0  0  3  0  0  0  0  0  0
  190.9560  174.9420  146.4660 C   0  0  0  0  0  1  0  0  0  0  0  0
  1 31  1  1  0  0  0
  2  1  1  0  0  0  0
  2  3  1  0  0  0  0
  3  8  2  0  0  0  0
  3  6  1  0  0  0  0
  4  9  1  0  0  0  0
  5  4  2  0  0  0  0
  6  7  2  0  0  0  0
  7  4  1  0  0  0  0
  8  5  1  0  0  0  0
 11  9  1  0  0  0  0
 11 10  2  0  0  0  0
 12 11  1  0  0  0  0
 13 18  1  1  0  0  0
 14 16  1  0  0  0  0
 15 19  1  0  0  0  0
 16 13  1  0  0  0  0
 17 12  1  1  0  0  0
 17 14  1  0  0  0  0
 17 15  1  0  0  0  0
 19 13  1  0  0  0  0
 19 20  1  1  0  0  0
 21 20  1  0  0  0  0
 22 21  1  0  0  0  0
 23 22  1  0  0  0  0
 24 25  1  0  0  0  0
 24  1  1  0  0  0  0
 25 26  1  0  0  0  0
 26 28  1  0  0  0  0
 27 25  2  0  0  0  0
 29 30  1  0  0  0  0
 30 28  1  0  0  0  0
 31 32  1  0  0  0  0
 32 33  1  0  0  0  0
 33 36  1  0  0  0  0
 35 37  1  0  0  0  0
 36 35  2  0  0  0  0
 36 38  1  0  0  0  0
 37 34  1  0  0  0  0
 38 34  2  0  0  0  0
 39 43  1  0  0  0  0
 39 40  2  0  0  0  0
 40 38  1  0  0  0  0
 41 43  2  0  0  0  0
 43 42  1  0  0  0  0
 45 46  1  1  0  0  0
 45 39  1  0  0  0  0
 45 44  1  0  0  0  0
M  END
>  <MODEL>
8

>  <REMARK>
 VINA RESULT:      -6.1      3.426      8.804
  Name = 
  20 active torsions:
  status: ('A' for Active; 'I' for Inactive)
    1  A    between atoms: C_1  and  N_32
    2  A    between atoms: C_2  and  O_45
    3  A    between atoms: C_7  and  C_18
    4  A    between atoms: C_7  and  O_27
    5  A    between atoms: C_7  and  N_32
    6  A    between atoms: C_8  and  C_16
    7  A    between atoms: CA_10  and  C_28
    8  A    between atoms: CA_10  and  CB_43
    9  A    between atoms: N_11  and  C_35
   10  A    between atoms: C_15  and  C_18
   11  A    between atoms: C_15  and  C_41
   12  A    between atoms: C_16  and  C_17
   13  A    between atoms: C_17  and  C_39
   14  A    between atoms: C_21  and  C_41
   15  A    between atoms: C_22  and  O_27
   16  A    between atoms: C_23  and  C_36
   17  A    between atoms: C_23  and  C_42
   18  A    between atoms: N_25  and  C_29
   19  A    between atoms: C_29  and  C_38
   20  A    between atoms: C_42  and  O_45
                            x       y       z     vdW  Elec       q    Type
                         _______ _______ _______ _____ _____    ______ ____

>  <TORSDO>
F 20

$$$$
=
 OpenBabel11042415403D

 46 48  0  0  1  0  0  0  0  0999 V2000
  190.2130  172.3290  142.0730 C   0  0  1  0  0  3  0  0  0  0  0  0
  190.6810  173.7090  142.0470 N   0  0  0  0  0  2  0  0  0  0  0  0
  189.8000  174.8360  142.0380 C   0  0  0  0  0  0  0  0  0  0  0  0
  188.0360  177.0270  142.0020 C   0  0  0  0  0  0  0  0  0  0  0  0
  187.6620  175.8010  141.4290 C   0  0  0  0  0  3  0  0  0  0  0  0
  190.1790  176.0600  142.6070 C   0  0  0  0  0  3  0  0  0  0  0  0
  189.3000  177.1470  142.5870 C   0  0  0  0  0  3  0  0  0  0  0  0
  188.5390  174.7130  141.4470 C   0  0  0  0  0  3  0  0  0  0  0  0
  187.1960  178.1500  142.0010 O   0  0  0  0  0  0  0  0  0  0  0  0
  185.2680  178.5200  140.7530 O   0  0  0  0  0  0  0  0  0  0  0  0
  185.8040  178.1460  141.8300 C   0  0  0  0  0  0  0  0  0  0  0  0
  184.9390  177.7140  142.9630 C   0  0  0  0  0  2  0  0  0  0  0  0
  185.8140  178.4500  147.1100 C   0  0  1  0  0  3  0  0  0  0  0  0
  184.3240  178.9220  145.0770 C   0  0  0  0  0  2  0  0  0  0  0  0
  186.1370  177.2950  145.0020 O   0  0  0  0  0  0  0  0  0  0  0  0
  184.3820  178.5310  146.5610 C   0  0  0  0  0  2  0  0  0  0  0  0
  185.4660  178.2890  144.2650 C   0  0  1  0  0  3  0  0  0  0  0  0
  185.8230  177.5850  148.2050 O   0  0  0  0  0  1  0  0  0  0  0  0
  186.8080  177.9920  146.0180 C   0  0  2  0  0  3  0  0  0  0  0  0
  187.9900  177.1880  146.5550 C   0  0  0  0  0  2  0  0  0  0  0  0
  188.2280  175.9130  145.7520 C   0  0  0  0  0  2  0  0  0  0  0  0
  189.3030  175.0440  146.3860 C   0  0  0  0  0  2  0  0  0  0  0  0
  188.8720  174.5840  147.6300 O   0  0  0  0  0  1  0  0  0  0  0  0
  190.2580  171.7910  140.7550 O   0  0  0  0  0  0  0  0  0  0  0  0
  191.1290  172.2720  139.7760 C   0  0  0  0  0  0  0  0  0  0  0  0
  190.6280  173.1610  138.7780 N   0  0  0  0  0  2  0  0  0  0  0  0
  192.3430  171.9260  139.7680 O   0  0  0  0  0  0  0  0  0  0  0  0
  191.4810  173.7110  137.7360 C   0  0  0  0  0  2  0  0  0  0  0  0
  189.6950  174.4790  136.2760 N   0  0  0  0  0  1  0  0  0  0  0  0
  190.8100  173.5530  136.3850 C   0  0  0  0  0  2  0  0  0  0  0  0
  191.1010  171.5060  142.9930 C   0  0  0  0  0  2  0  0  0  0  0  0
  192.1340  172.3880  143.6740 C   0  0  0  0  0  2  0  0  0  0  0  0
  193.5100  172.1580  143.0680 C   0  0  0  0  0  2  0  0  0  0  0  0
  196.2980  172.2970  145.4960 C   0  0  0  0  0  3  0  0  0  0  0  0
  194.4760  170.9170  145.0020 C   0  0  0  0  0  3  0  0  0  0  0  0
  194.5310  171.9090  144.1300 C   0  0  0  0  0  0  0  0  0  0  0  0
  195.6360  171.0300  145.9410 C   0  0  0  0  0  2  0  0  0  0  0  0
  195.6750  172.7480  144.4190 C   0  0  0  0  0  0  0  0  0  0  0  0
  195.3400  175.1580  143.9930 C   0  0  0  0  0  0  0  0  0  0  0  0
  195.9210  174.0110  143.7800 N   0  0  0  0  0  0  0  0  0  0  0  0
  194.8520  175.5880  146.4050 O   0  0  0  0  0  1  0  0  0  0  0  0
  193.1580  175.4970  144.8770 O   0  0  0  0  0  0  0  0  0  0  0  0
  194.3910  175.3930  145.1090 C   0  0  0  0  0  0  0  0  0  0  0  0
  195.2960  175.9930  141.7620 O   0  0  0  0  0  1  0  0  0  0  0  0
  195.6910  176.2830  143.0680 C   0  0  2  0  0  3  0  0  0  0  0  0
  197.1780  176.5760  143.1100 C   0  0  0  0  0  1  0  0  0  0  0  0
  1 31  1  1  0  0  0
  2  1  1  0  0  0  0
  3  2  1  0  0  0  0
  3  6  1  0  0  0  0
  4  7  1  0  0  0  0
  5  8  1  0  0  0  0
  5  4  2  0  0  0  0
  7  6  2  0  0  0  0
  8  3  2  0  0  0  0
  9  4  1  0  0  0  0
 10 11  2  0  0  0  0
 11  9  1  0  0  0  0
 11 12  1  0  0  0  0
 13 18  1  1  0  0  0
 14 16  1  0  0  0  0
 15 19  1  0  0  0  0
 16 13  1  0  0  0  0
 17 12  1  6  0  0  0
 17 15  1  0  0  0  0
 17 14  1  0  0  0  0
 19 20  1  1  0  0  0
 19 13  1  0  0  0  0
 21 22  1  0  0  0  0
 21 20  1  0  0  0  0
 22 23  1  0  0  0  0
 24  1  1  0  0  0  0
 25 24  1  0  0  0  0
 26 25  1  0  0  0  0
 27 25  2  0  0  0  0
 28 26  1  0  0  0  0
 29 30  1  0  0  0  0
 30 28  1  0  0  0  0
 31 32  1  0  0  0  0
 33 32  1  0  0  0  0
 33 36  1  0  0  0  0
 34 37  1  0  0  0  0
 35 37  1  0  0  0  0
 36 38  1  0  0  0  0
 36 35  2  0  0  0  0
 38 34  2  0  0  0  0
 39 43  1  0  0  0  0
 40 39  2  0  0  0  0
 40 38  1  0  0  0  0
 42 43  2  0  0  0  0
 43 41  1  0  0  0  0
 44 45  1  0  0  0  0
 45 46  1  6  0  0  0
 45 39  1  0  0  0  0
M  END
>  <MODEL>
9

>  <REMARK>
 VINA RESULT:      -6.1      1.376      2.079
  Name = 
  20 active torsions:
  status: ('A' for Active; 'I' for Inactive)
    1  A    between atoms: C_1  and  N_32
    2  A    between atoms: C_2  and  O_45
    3  A    between atoms: C_7  and  C_18
    4  A    between atoms: C_7  and  O_27
    5  A    between atoms: C_7  and  N_32
    6  A    between atoms: C_8  and  C_16
    7  A    between atoms: CA_10  and  C_28
    8  A    between atoms: CA_10  and  CB_43
    9  A    between atoms: N_11  and  C_35
   10  A    between atoms: C_15  and  C_18
   11  A    between atoms: C_15  and  C_41
   12  A    between atoms: C_16  and  C_17
   13  A    between atoms: C_17  and  C_39
   14  A    between atoms: C_21  and  C_41
   15  A    between atoms: C_22  and  O_27
   16  A    between atoms: C_23  and  C_36
   17  A    between atoms: C_23  and  C_42
   18  A    between atoms: N_25  and  C_29
   19  A    between atoms: C_29  and  C_38
   20  A    between atoms: C_42  and  O_45
                            x       y       z     vdW  Elec       q    Type
                         _______ _______ _______ _____ _____    ______ ____

>  <TORSDO>
F 20

$$$$
