=
 OpenBabel11042413473D

 30 33  0  0  1  0  0  0  0  0999 V2000
  184.5430  178.6560  140.4600 N   0  0  0  0  0  2  0  0  0  0  0  0
  187.3940  176.7770  142.7930 N   0  0  0  0  0  2  0  0  0  0  0  0
  185.5300  178.1980  141.1600 C   0  0  0  0  0  0  0  0  0  0  0  0
  184.3570  178.9200  145.7580 C   0  0  0  0  0  3  0  0  0  0  0  0
  185.9980  177.3290  146.9130 C   0  0  0  0  0  0  0  0  0  0  0  0
  186.3770  177.0400  140.6380 C   0  0  1  0  0  3  0  0  0  0  0  0
  186.3870  176.5720  148.0520 N   0  0  0  0  0  1  0  0  0  0  0  0
  186.6280  177.1520  145.7830 N   0  0  0  0  0  0  0  0  0  0  0  0
  186.5480  177.7490  143.3860 C   0  0  0  0  0  0  0  0  0  0  0  0
  186.2410  177.9220  144.6500 C   0  0  0  0  0  0  0  0  0  0  0  0
  185.0720  178.7550  144.6530 C   0  0  0  0  0  0  0  0  0  0  0  0
  184.6660  179.0450  143.3130 N   0  0  0  0  0  0  0  0  0  0  0  0
  186.6930  177.2640  139.1620 C   0  0  0  0  0  1  0  0  0  0  0  0
  187.6410  176.8480  141.4020 N   0  0  0  0  0  0  0  0  0  0  0  0
  184.9030  178.3870  147.0700 C   0  0  0  0  0  2  0  0  0  0  0  0
  185.5780  178.4560  142.5960 C   0  0  0  0  0  0  0  0  0  0  0  0
  188.2080  175.5580  141.0260 C   0  0  0  0  0  2  0  0  0  0  0  0
  187.5320  173.5100  142.0480 O   0  0  0  0  0  1  0  0  0  0  0  0
  188.3050  174.6560  142.2430 C   0  0  1  0  0  3  0  0  0  0  0  0
  189.6920  174.2730  142.4490 N   0  0  0  0  0  2  0  0  0  0  0  0
  189.7730  173.5820  143.7280 C   0  0  0  0  0  2  0  0  0  0  0  0
  190.3670  176.4180  146.9020 C   0  0  0  0  0  0  0  0  0  0  0  0
  189.9970  174.5600  144.8320 C   0  0  0  0  0  0  0  0  0  0  0  0
  189.5120  174.2860  146.1150 C   0  0  0  0  0  3  0  0  0  0  0  0
  189.6980  175.2110  147.1460 C   0  0  0  0  0  3  0  0  0  0  0  0
  190.6640  175.7630  144.5810 C   0  0  0  0  0  3  0  0  0  0  0  0
  190.8480  176.6880  145.6120 C   0  0  0  0  0  3  0  0  0  0  0  0
  189.6960  178.4740  148.1200 O   0  0  0  0  0  0  0  0  0  0  0  0
  191.4970  177.2480  148.8170 O   0  0  0  0  0  1  0  0  0  0  0  0
  190.5560  177.3900  147.9910 C   0  0  0  0  0  0  0  0  0  0  0  0
  1  3  2  0  0  0  0
  2  9  1  0  0  0  0
  3 16  1  0  0  0  0
  4 15  1  0  0  0  0
  5 15  1  0  0  0  0
  5  7  1  0  0  0  0
  6 13  1  6  0  0  0
  6  3  1  0  0  0  0
  6 14  1  0  0  0  0
  8  5  2  0  0  0  0
  9 10  2  0  0  0  0
 10 11  1  0  0  0  0
 10  8  1  0  0  0  0
 11  4  2  0  0  0  0
 12 11  1  0  0  0  0
 14  2  1  0  0  0  0
 16 12  2  0  0  0  0
 16  9  1  0  0  0  0
 17 14  1  0  0  0  0
 17 19  1  0  0  0  0
 19 18  1  6  0  0  0
 19 20  1  0  0  0  0
 20 21  1  0  0  0  0
 21 23  1  0  0  0  0
 22 25  1  0  0  0  0
 22 30  1  0  0  0  0
 23 24  1  0  0  0  0
 24 25  2  0  0  0  0
 26 23  2  0  0  0  0
 26 27  1  0  0  0  0
 27 22  2  0  0  0  0
 30 28  2  0  0  0  0
 30 29  1  0  0  0  0
M  END
>  <MODEL>
1

>  <REMARK>
 VINA RESULT:      -7.4      0.000      0.000
  Name = 
  6 active torsions:
  status: ('A' for Active; 'I' for Inactive)
    1  A    between atoms: C_1  and  C_28
    2  A    between atoms: C_2  and  C_4
    3  A    between atoms: C_2  and  N_11
    4  A    between atoms: N_11  and  C_21
    5  A    between atoms: C_17  and  C_21
    6  A    between atoms: C_17  and  N_24
                            x       y       z     vdW  Elec       q    Type
                         _______ _______ _______ _____ _____    ______ ____

>  <TORSDO>
F 6

$$$$
=
 OpenBabel11042413473D

 30 33  0  0  1  0  0  0  0  0999 V2000
  184.4230  178.9770  146.7040 N   0  0  0  0  0  2  0  0  0  0  0  0
  187.1230  176.7480  144.5030 N   0  0  0  0  0  2  0  0  0  0  0  0
  185.1810  178.1490  146.0610 C   0  0  0  0  0  0  0  0  0  0  0  0
  183.9560  178.5280  141.4360 C   0  0  0  0  0  3  0  0  0  0  0  0
  185.9920  177.4420  140.3240 C   0  0  0  0  0  0  0  0  0  0  0  0
  186.5790  177.8190  146.5780 C   0  0  1  0  0  3  0  0  0  0  0  0
  186.8040  177.2320  139.1750 N   0  0  0  0  0  1  0  0  0  0  0  0
  186.4140  177.0300  141.4890 N   0  0  0  0  0  0  0  0  0  0  0  0
  185.8980  177.1350  143.9040 C   0  0  0  0  0  0  0  0  0  0  0  0
  185.5900  177.2340  142.6320 C   0  0  0  0  0  0  0  0  0  0  0  0
  184.3960  178.0300  142.5840 C   0  0  0  0  0  0  0  0  0  0  0  0
  184.0200  178.4400  143.9010 N   0  0  0  0  0  0  0  0  0  0  0  0
  186.5260  177.5930  148.0860 C   0  0  0  0  0  1  0  0  0  0  0  0
  187.1850  176.6330  145.9120 N   0  0  0  0  0  0  0  0  0  0  0  0
  184.6100  178.0750  140.1430 C   0  0  0  0  0  3  0  0  0  0  0  0
  184.9160  177.8690  144.6530 C   0  0  2  0  0  3  0  0  0  0  0  0
  188.6030  176.5940  146.2510 C   0  0  0  0  0  2  0  0  0  0  0  0
  189.2560  174.4380  145.4620 O   0  0  0  0  0  1  0  0  0  0  0  0
  189.0140  175.1800  146.6200 C   0  0  1  0  0  3  0  0  0  0  0  0
  190.2230  175.2250  147.4250 N   0  0  0  0  0  2  0  0  0  0  0  0
  191.0530  176.3070  146.9150 C   0  0  0  0  0  2  0  0  0  0  0  0
  194.9750  174.8690  145.9030 C   0  0  0  0  0  0  0  0  0  0  0  0
  192.4160  175.8000  146.5810 C   0  0  0  0  0  0  0  0  0  0  0  0
  193.5200  176.6540  146.6760 C   0  0  0  0  0  3  0  0  0  0  0  0
  194.7940  176.1890  146.3400 C   0  0  0  0  0  3  0  0  0  0  0  0
  192.5890  174.4830  146.1430 C   0  0  0  0  0  3  0  0  0  0  0  0
  193.8640  174.0190  145.8070 C   0  0  0  0  0  3  0  0  0  0  0  0
  196.9420  173.4140  146.3190 O   0  0  0  0  0  1  0  0  0  0  0  0
  196.9170  174.8510  144.5390 O   0  0  0  0  0  0  0  0  0  0  0  0
  196.3200  174.3880  145.5470 C   0  0  0  0  0  0  0  0  0  0  0  0
  2 14  1  0  0  0  0
  3  6  1  0  0  0  0
  3  1  2  0  0  0  0
  4 11  1  0  0  0  0
  5  8  2  0  0  0  0
  6 13  1  1  0  0  0
  7  5  1  0  0  0  0
  8 10  1  0  0  0  0
  9  2  1  0  0  0  0
  9 16  1  0  0  0  0
 10  9  2  0  0  0  0
 11 10  1  0  0  0  0
 11 12  2  0  0  0  0
 14 17  1  0  0  0  0
 14  6  1  0  0  0  0
 15  5  1  0  0  0  0
 15  4  2  0  0  0  0
 16 12  1  6  0  0  0
 16  3  1  0  0  0  0
 17 19  1  0  0  0  0
 19 18  1  6  0  0  0
 19 20  1  0  0  0  0
 21 20  1  0  0  0  0
 22 25  1  0  0  0  0
 23 24  1  0  0  0  0
 23 21  1  0  0  0  0
 25 24  2  0  0  0  0
 26 23  2  0  0  0  0
 27 22  2  0  0  0  0
 27 26  1  0  0  0  0
 29 30  2  0  0  0  0
 30 22  1  0  0  0  0
 30 28  1  0  0  0  0
M  END
>  <MODEL>
2

>  <REMARK>
 VINA RESULT:      -7.3      3.063      5.258
  Name = 
  6 active torsions:
  status: ('A' for Active; 'I' for Inactive)
    1  A    between atoms: C_1  and  C_28
    2  A    between atoms: C_2  and  C_4
    3  A    between atoms: C_2  and  N_11
    4  A    between atoms: N_11  and  C_21
    5  A    between atoms: C_17  and  C_21
    6  A    between atoms: C_17  and  N_24
                            x       y       z     vdW  Elec       q    Type
                         _______ _______ _______ _____ _____    ______ ____

>  <TORSDO>
F 6

$$$$
=
 OpenBabel11042413473D

 30 33  0  0  1  0  0  0  0  0999 V2000
  188.4360  174.7100  140.7800 N   0  0  0  0  0  2  0  0  0  0  0  0
  188.2460  175.9470  144.7220 N   0  0  0  0  0  2  0  0  0  0  0  0
  188.4940  175.2030  141.9750 C   0  0  0  0  0  0  0  0  0  0  0  0
  184.7040  178.1170  142.4060 C   0  0  0  0  0  3  0  0  0  0  0  0
  184.5930  178.3620  144.9530 C   0  0  0  0  0  0  0  0  0  0  0  0
  189.1250  174.4030  143.1120 C   0  0  1  0  0  3  0  0  0  0  0  0
  183.8680  178.6980  146.1290 N   0  0  0  0  0  1  0  0  0  0  0  0
  185.7550  177.7760  145.0650 N   0  0  0  0  0  0  0  0  0  0  0  0
  187.5180  176.6640  143.7380 C   0  0  0  0  0  0  0  0  0  0  0  0
  186.4800  177.4530  143.8830 C   0  0  0  0  0  0  0  0  0  0  0  0
  185.9090  177.5860  142.5730 C   0  0  0  0  0  0  0  0  0  0  0  0
  186.6410  176.7980  141.6300 N   0  0  0  0  0  0  0  0  0  0  0  0
  190.4190  173.7580  142.6260 C   0  0  0  0  0  1  0  0  0  0  0  0
  189.3950  175.2230  144.3250 N   0  0  0  0  0  0  0  0  0  0  0  0
  184.0230  178.7730  143.5940 C   0  0  0  0  0  2  0  0  0  0  0  0
  187.5980  176.2910  142.3520 C   0  0  0  0  0  0  0  0  0  0  0  0
  189.7020  174.3180  145.4270 C   0  0  0  0  0  2  0  0  0  0  0  0
  188.8620  174.4120  147.6600 O   0  0  0  0  0  1  0  0  0  0  0  0
  189.6830  175.0730  146.7440 C   0  0  1  0  0  3  0  0  0  0  0  0
  191.0340  175.1490  147.2740 N   0  0  0  0  0  2  0  0  0  0  0  0
  191.5750  176.4540  146.9180 C   0  0  0  0  0  2  0  0  0  0  0  0
  195.0180  176.0560  144.3780 C   0  0  0  0  0  0  0  0  0  0  0  0
  192.7650  176.2980  146.0330 C   0  0  0  0  0  0  0  0  0  0  0  0
  194.0180  176.0260  146.5910 C   0  0  0  0  0  3  0  0  0  0  0  0
  195.1400  175.9040  145.7670 C   0  0  0  0  0  3  0  0  0  0  0  0
  192.6370  176.4530  144.6490 C   0  0  0  0  0  3  0  0  0  0  0  0
  193.7590  176.3320  143.8250 C   0  0  0  0  0  3  0  0  0  0  0  0
  197.0250  177.0280  143.2870 O   0  0  0  0  0  1  0  0  0  0  0  0
  196.4890  174.8250  142.9790 O   0  0  0  0  0  0  0  0  0  0  0  0
  196.2050  175.9290  143.5160 C   0  0  0  0  0  0  0  0  0  0  0  0
  1  3  2  0  0  0  0
  3 16  1  0  0  0  0
  3  6  1  0  0  0  0
  4 11  2  0  0  0  0
  4 15  1  0  0  0  0
  5  8  2  0  0  0  0
  5  7  1  0  0  0  0
  6 13  1  6  0  0  0
  6 14  1  0  0  0  0
  9 10  2  0  0  0  0
  9  2  1  0  0  0  0
 10  8  1  0  0  0  0
 11 10  1  0  0  0  0
 12 16  2  0  0  0  0
 12 11  1  0  0  0  0
 14  2  1  0  0  0  0
 14 17  1  0  0  0  0
 15  5  1  0  0  0  0
 16  9  1  0  0  0  0
 17 19  1  0  0  0  0
 19 20  1  0  0  0  0
 19 18  1  1  0  0  0
 21 20  1  0  0  0  0
 22 25  1  0  0  0  0
 23 24  1  0  0  0  0
 23 21  1  0  0  0  0
 25 24  2  0  0  0  0
 26 23  2  0  0  0  0
 27 22  2  0  0  0  0
 27 26  1  0  0  0  0
 28 30  1  0  0  0  0
 29 30  2  0  0  0  0
 30 22  1  0  0  0  0
M  END
>  <MODEL>
3

>  <REMARK>
 VINA RESULT:      -7.3      3.203      4.629
  Name = 
  6 active torsions:
  status: ('A' for Active; 'I' for Inactive)
    1  A    between atoms: C_1  and  C_28
    2  A    between atoms: C_2  and  C_4
    3  A    between atoms: C_2  and  N_11
    4  A    between atoms: N_11  and  C_21
    5  A    between atoms: C_17  and  C_21
    6  A    between atoms: C_17  and  N_24
                            x       y       z     vdW  Elec       q    Type
                         _______ _______ _______ _____ _____    ______ ____

>  <TORSDO>
F 6

$$$$
=
 OpenBabel11042413473D

 30 33  0  0  1  0  0  0  0  0999 V2000
  185.1570  180.1810  144.4300 N   0  0  0  0  0  2  0  0  0  0  0  0
  186.6920  176.3600  144.8160 N   0  0  0  0  0  2  0  0  0  0  0  0
  185.4820  178.9360  144.5600 C   0  0  0  0  0  0  0  0  0  0  0  0
  186.7040  177.4070  140.1780 C   0  0  0  0  0  3  0  0  0  0  0  0
  187.9810  175.2680  140.7700 C   0  0  0  0  0  0  0  0  0  0  0  0
  186.0770  178.4240  145.8700 C   0  0  1  0  0  3  0  0  0  0  0  0
  188.9040  174.2450  140.4180 N   0  0  0  0  0  1  0  0  0  0  0  0
  187.5720  175.3600  142.0070 N   0  0  0  0  0  0  0  0  0  0  0  0
  186.2850  176.8150  143.5360 C   0  0  0  0  0  0  0  0  0  0  0  0
  186.6390  176.3800  142.3490 C   0  0  0  0  0  0  0  0  0  0  0  0
  186.2660  177.4180  141.4300 C   0  0  0  0  0  0  0  0  0  0  0  0
  185.6990  178.5250  142.1350 N   0  0  0  0  0  0  0  0  0  0  0  0
  185.2980  179.0050  147.0460 C   0  0  0  0  0  1  0  0  0  0  0  0
  186.0980  176.9380  145.9630 N   0  0  0  0  0  0  0  0  0  0  0  0
  187.4340  176.1780  139.6680 C   0  0  0  0  0  3  0  0  0  0  0  0
  185.7040  178.1180  143.3720 C   0  0  2  0  0  3  0  0  0  0  0  0
  186.9470  176.5640  147.0880 C   0  0  0  0  0  2  0  0  0  0  0  0
  189.1380  177.5120  147.1030 O   0  0  0  0  0  1  0  0  0  0  0  0
  188.3890  176.4310  146.6340 C   0  0  1  0  0  3  0  0  0  0  0  0
  188.9460  175.1950  147.1570 N   0  0  0  0  0  2  0  0  0  0  0  0
  189.6080  174.5080  146.0560 C   0  0  0  0  0  2  0  0  0  0  0  0
  193.4660  176.2690  145.3640 C   0  0  0  0  0  0  0  0  0  0  0  0
  190.9530  175.1030  145.8090 C   0  0  0  0  0  0  0  0  0  0  0  0
  191.8620  175.2330  146.8640 C   0  0  0  0  0  3  0  0  0  0  0  0
  193.1140  175.8130  146.6420 C   0  0  0  0  0  3  0  0  0  0  0  0
  191.2970  175.5590  144.5320 C   0  0  0  0  0  3  0  0  0  0  0  0
  192.5490  176.1390  144.3110 C   0  0  0  0  0  3  0  0  0  0  0  0
  195.1060  178.0950  145.7350 O   0  0  0  0  0  1  0  0  0  0  0  0
  195.6360  176.3130  144.4020 O   0  0  0  0  0  0  0  0  0  0  0  0
  194.7850  176.8830  145.1370 C   0  0  0  0  0  0  0  0  0  0  0  0
  1  3  2  0  0  0  0
  2 14  1  0  0  0  0
  3  6  1  0  0  0  0
  4 11  1  0  0  0  0
  5  8  2  0  0  0  0
  6 14  1  0  0  0  0
  6 13  1  1  0  0  0
  7  5  1  0  0  0  0
  8 10  1  0  0  0  0
  9  2  1  0  0  0  0
 10  9  2  0  0  0  0
 11 12  2  0  0  0  0
 11 10  1  0  0  0  0
 14 17  1  0  0  0  0
 15  4  2  0  0  0  0
 15  5  1  0  0  0  0
 16 12  1  6  0  0  0
 16  9  1  0  0  0  0
 16  3  1  0  0  0  0
 19 17  1  0  0  0  0
 19 18  1  1  0  0  0
 19 20  1  0  0  0  0
 21 20  1  0  0  0  0
 22 25  1  0  0  0  0
 23 21  1  0  0  0  0
 23 24  1  0  0  0  0
 25 24  2  0  0  0  0
 26 23  2  0  0  0  0
 27 26  1  0  0  0  0
 27 22  2  0  0  0  0
 29 30  2  0  0  0  0
 30 22  1  0  0  0  0
 30 28  1  0  0  0  0
M  END
>  <MODEL>
4

>  <REMARK>
 VINA RESULT:      -7.2      2.178      4.809
  Name = 
  6 active torsions:
  status: ('A' for Active; 'I' for Inactive)
    1  A    between atoms: C_1  and  C_28
    2  A    between atoms: C_2  and  C_4
    3  A    between atoms: C_2  and  N_11
    4  A    between atoms: N_11  and  C_21
    5  A    between atoms: C_17  and  C_21
    6  A    between atoms: C_17  and  N_24
                            x       y       z     vdW  Elec       q    Type
                         _______ _______ _______ _____ _____    ______ ____

>  <TORSDO>
F 6

$$$$
=
 OpenBabel11042413473D

 30 33  0  0  1  0  0  0  0  0999 V2000
  184.4400  178.4330  140.4430 N   0  0  0  0  0  2  0  0  0  0  0  0
  187.3810  176.9760  142.9590 N   0  0  0  0  0  2  0  0  0  0  0  0
  185.4400  178.1160  141.2000 C   0  0  0  0  0  0  0  0  0  0  0  0
  183.9870  178.8460  145.7160 C   0  0  0  0  0  3  0  0  0  0  0  0
  185.7470  177.4960  146.9950 C   0  0  0  0  0  0  0  0  0  0  0  0
  186.4370  177.0480  140.7570 C   0  0  1  0  0  3  0  0  0  0  0  0
  186.1690  176.8270  148.1770 N   0  0  0  0  0  1  0  0  0  0  0  0
  186.4440  177.3570  145.9000 N   0  0  0  0  0  0  0  0  0  0  0  0
  186.4030  177.8620  143.4810 C   0  0  0  0  0  0  0  0  0  0  0  0
  186.0220  178.0390  144.7230 C   0  0  0  0  0  0  0  0  0  0  0  0
  184.7650  178.7300  144.6470 C   0  0  0  0  0  0  0  0  0  0  0  0
  184.3890  178.9270  143.2820 N   0  0  0  0  0  0  0  0  0  0  0  0
  186.7920  177.2590  139.2880 C   0  0  0  0  0  1  0  0  0  0  0  0
  187.6800  177.0300  141.5770 N   0  0  0  0  0  0  0  0  0  0  0  0
  184.5320  178.4230  147.0680 C   0  0  0  0  0  2  0  0  0  0  0  0
  185.3950  178.4240  142.6260 C   0  0  0  0  0  0  0  0  0  0  0  0
  188.4080  175.8040  141.2740 C   0  0  0  0  0  2  0  0  0  0  0  0
  187.3160  173.7670  141.8750 O   0  0  0  0  0  1  0  0  0  0  0  0
  188.1620  174.7680  142.3570 C   0  0  1  0  0  3  0  0  0  0  0  0
  189.4290  174.1790  142.7560 N   0  0  0  0  0  2  0  0  0  0  0  0
  189.5480  174.3250  144.2000 C   0  0  0  0  0  2  0  0  0  0  0  0
  193.2200  176.2980  145.2460 C   0  0  0  0  0  0  0  0  0  0  0  0
  190.8310  175.0010  144.5490 C   0  0  0  0  0  0  0  0  0  0  0  0
  191.6340  174.4890  145.5730 C   0  0  0  0  0  3  0  0  0  0  0  0
  192.8240  175.1340  145.9190 C   0  0  0  0  0  3  0  0  0  0  0  0
  191.2190  176.1640  143.8750 C   0  0  0  0  0  3  0  0  0  0  0  0
  192.4090  176.8090  144.2220 C   0  0  0  0  0  3  0  0  0  0  0  0
  195.5370  177.0200  144.7250 O   0  0  0  0  0  0  0  0  0  0  0  0
  194.5910  177.5240  146.7460 O   0  0  0  0  0  1  0  0  0  0  0  0
  194.4730  176.9760  145.6180 C   0  0  0  0  0  0  0  0  0  0  0  0
  1  3  2  0  0  0  0
  2  9  1  0  0  0  0
  3 16  1  0  0  0  0
  4 15  1  0  0  0  0
  5 15  1  0  0  0  0
  5  7  1  0  0  0  0
  6 13  1  6  0  0  0
  6  3  1  0  0  0  0
  6 14  1  0  0  0  0
  8  5  2  0  0  0  0
  9 10  2  0  0  0  0
 10  8  1  0  0  0  0
 11 10  1  0  0  0  0
 11  4  2  0  0  0  0
 12 11  1  0  0  0  0
 14  2  1  0  0  0  0
 16 12  2  0  0  0  0
 16  9  1  0  0  0  0
 17 14  1  0  0  0  0
 17 19  1  0  0  0  0
 19 18  1  6  0  0  0
 19 20  1  0  0  0  0
 20 21  1  0  0  0  0
 21 23  1  0  0  0  0
 22 30  1  0  0  0  0
 22 25  1  0  0  0  0
 23 24  1  0  0  0  0
 24 25  2  0  0  0  0
 26 27  1  0  0  0  0
 26 23  2  0  0  0  0
 27 22  2  0  0  0  0
 28 30  2  0  0  0  0
 30 29  1  0  0  0  0
M  END
>  <MODEL>
5

>  <REMARK>
 VINA RESULT:      -7.1      1.674      1.989
  Name = 
  6 active torsions:
  status: ('A' for Active; 'I' for Inactive)
    1  A    between atoms: C_1  and  C_28
    2  A    between atoms: C_2  and  C_4
    3  A    between atoms: C_2  and  N_11
    4  A    between atoms: N_11  and  C_21
    5  A    between atoms: C_17  and  C_21
    6  A    between atoms: C_17  and  N_24
                            x       y       z     vdW  Elec       q    Type
                         _______ _______ _______ _____ _____    ______ ____

>  <TORSDO>
F 6

$$$$
=
 OpenBabel11042413473D

 30 33  0  0  1  0  0  0  0  0999 V2000
  190.4040  172.4900  141.7980 N   0  0  0  0  0  2  0  0  0  0  0  0
  188.2850  175.8340  142.9940 N   0  0  0  0  0  2  0  0  0  0  0  0
  189.6170  173.4340  142.2010 C   0  0  0  0  0  0  0  0  0  0  0  0
  191.0130  174.5240  146.6620 C   0  0  0  0  0  3  0  0  0  0  0  0
  189.8930  176.8090  146.9560 C   0  0  0  0  0  0  0  0  0  0  0  0
  189.0120  174.4170  141.2020 C   0  0  1  0  0  3  0  0  0  0  0  0
  189.7940  178.0560  147.6310 N   0  0  0  0  0  1  0  0  0  0  0  0
  189.2180  176.6240  145.8530 N   0  0  0  0  0  0  0  0  0  0  0  0
  188.9380  175.0430  143.9740 C   0  0  0  0  0  0  0  0  0  0  0  0
  189.3130  175.3680  145.1890 C   0  0  0  0  0  0  0  0  0  0  0  0
  190.2560  174.3610  145.5850 C   0  0  0  0  0  0  0  0  0  0  0  0
  190.4590  173.4260  144.5220 N   0  0  0  0  0  0  0  0  0  0  0  0
  188.5180  173.6580  139.9740 C   0  0  0  0  0  1  0  0  0  0  0  0
  187.9010  175.2260  141.7750 N   0  0  0  0  0  0  0  0  0  0  0  0
  190.7270  175.6920  147.5890 C   0  0  0  0  0  2  0  0  0  0  0  0
  189.6430  173.8490  143.6000 C   0  0  0  0  0  0  0  0  0  0  0  0
  187.6110  176.3190  140.8540 C   0  0  0  0  0  2  0  0  0  0  0  0
  188.5590  178.4510  141.3590 O   0  0  0  0  0  1  0  0  0  0  0  0
  187.4660  177.6230  141.6190 C   0  0  1  0  0  3  0  0  0  0  0  0
  186.2440  178.2910  141.2020 N   0  0  0  0  0  2  0  0  0  0  0  0
  185.1480  177.7350  141.9830 C   0  0  0  0  0  2  0  0  0  0  0  0
  185.7790  178.3630  146.1870 C   0  0  0  0  0  0  0  0  0  0  0  0
  185.3860  177.9560  143.4390 C   0  0  0  0  0  0  0  0  0  0  0  0
  185.5610  176.8610  144.2910 C   0  0  0  0  0  3  0  0  0  0  0  0
  185.7580  177.0640  145.6600 C   0  0  0  0  0  3  0  0  0  0  0  0
  185.4030  179.2550  143.9590 C   0  0  0  0  0  3  0  0  0  0  0  0
  185.6000  179.4570  145.3280 C   0  0  0  0  0  3  0  0  0  0  0  0
  186.3150  179.8290  148.1180 O   0  0  0  0  0  0  0  0  0  0  0  0
  185.8590  177.6100  148.4370 O   0  0  0  0  0  1  0  0  0  0  0  0
  185.9840  178.5700  147.6300 C   0  0  0  0  0  0  0  0  0  0  0  0
  1  3  2  0  0  0  0
  2  9  1  0  0  0  0
  3 16  1  0  0  0  0
  4 15  1  0  0  0  0
  5 15  1  0  0  0  0
  5  7  1  0  0  0  0
  6 13  1  6  0  0  0
  6 14  1  0  0  0  0
  6  3  1  0  0  0  0
  8  5  2  0  0  0  0
  9 10  2  0  0  0  0
 10 11  1  0  0  0  0
 10  8  1  0  0  0  0
 11  4  2  0  0  0  0
 12 11  1  0  0  0  0
 14  2  1  0  0  0  0
 16  9  1  0  0  0  0
 16 12  2  0  0  0  0
 17 19  1  0  0  0  0
 17 14  1  0  0  0  0
 19 18  1  6  0  0  0
 20 19  1  0  0  0  0
 20 21  1  0  0  0  0
 21 23  1  0  0  0  0
 22 30  1  0  0  0  0
 23 26  2  0  0  0  0
 23 24  1  0  0  0  0
 24 25  2  0  0  0  0
 25 22  1  0  0  0  0
 26 27  1  0  0  0  0
 27 22  2  0  0  0  0
 30 28  2  0  0  0  0
 30 29  1  0  0  0  0
M  END
>  <MODEL>
6

>  <REMARK>
 VINA RESULT:      -7.0      2.174      5.269
  Name = 
  6 active torsions:
  status: ('A' for Active; 'I' for Inactive)
    1  A    between atoms: C_1  and  C_28
    2  A    between atoms: C_2  and  C_4
    3  A    between atoms: C_2  and  N_11
    4  A    between atoms: N_11  and  C_21
    5  A    between atoms: C_17  and  C_21
    6  A    between atoms: C_17  and  N_24
                            x       y       z     vdW  Elec       q    Type
                         _______ _______ _______ _____ _____    ______ ____

>  <TORSDO>
F 6

$$$$
=
 OpenBabel11042413473D

 30 33  0  0  1  0  0  0  0  0999 V2000
  192.0100  175.2770  147.1770 N   0  0  0  0  0  2  0  0  0  0  0  0
  191.4350  175.3370  143.0820 N   0  0  0  0  0  2  0  0  0  0  0  0
  191.7690  175.4460  145.9170 C   0  0  0  0  0  0  0  0  0  0  0  0
  195.9980  176.4190  143.8660 C   0  0  0  0  0  3  0  0  0  0  0  0
  195.4380  175.9710  141.4080 C   0  0  0  0  0  0  0  0  0  0  0  0
  190.6130  174.7110  145.2450 C   0  0  1  0  0  3  0  0  0  0  0  0
  195.8580  175.6950  140.0780 N   0  0  0  0  0  1  0  0  0  0  0  0
  194.1700  175.8850  141.7080 N   0  0  0  0  0  0  0  0  0  0  0  0
  192.6080  175.9230  143.6230 C   0  0  0  0  0  0  0  0  0  0  0  0
  193.7550  176.1750  143.0390 C   0  0  0  0  0  0  0  0  0  0  0  0
  194.6940  176.3850  144.1050 C   0  0  0  0  0  0  0  0  0  0  0  0
  194.0540  176.2080  145.3710 N   0  0  0  0  0  0  0  0  0  0  0  0
  189.3800  174.7710  146.1420 C   0  0  0  0  0  1  0  0  0  0  0  0
  190.2810  175.2470  143.8960 N   0  0  0  0  0  0  0  0  0  0  0  0
  196.4790  176.4410  142.4270 C   0  0  0  0  0  3  0  0  0  0  0  0
  192.8180  175.9630  145.0440 C   0  0  2  0  0  3  0  0  0  0  0  0
  189.3930  174.3000  143.2340 C   0  0  0  0  0  2  0  0  0  0  0  0
  188.9740  173.9400  140.9120 O   0  0  0  0  0  1  0  0  0  0  0  0
  188.8780  174.8870  141.9330 C   0  0  1  0  0  3  0  0  0  0  0  0
  187.4880  175.2790  142.0980 N   0  0  0  0  0  2  0  0  0  0  0  0
  187.4290  176.7330  142.0350 C   0  0  0  0  0  2  0  0  0  0  0  0
  185.8480  178.3040  145.7090 C   0  0  0  0  0  0  0  0  0  0  0  0
  186.8970  177.2860  143.3140 C   0  0  0  0  0  0  0  0  0  0  0  0
  186.8070  176.4670  144.4430 C   0  0  0  0  0  3  0  0  0  0  0  0
  186.2860  176.9750  145.6360 C   0  0  0  0  0  3  0  0  0  0  0  0
  186.4590  178.6130  143.3780 C   0  0  0  0  0  3  0  0  0  0  0  0
  185.9370  179.1200  144.5710 C   0  0  0  0  0  3  0  0  0  0  0  0
  186.0340  179.7250  147.7360 O   0  0  0  0  0  1  0  0  0  0  0  0
  184.1500  178.4830  147.3580 O   0  0  0  0  0  0  0  0  0  0  0  0
  185.2960  178.8320  146.9670 C   0  0  0  0  0  0  0  0  0  0  0  0
  2  9  1  0  0  0  0
  2 14  1  0  0  0  0
  3  1  2  0  0  0  0
  4 11  1  0  0  0  0
  5  8  2  0  0  0  0
  5 15  1  0  0  0  0
  6  3  1  0  0  0  0
  6 13  1  1  0  0  0
  7  5  1  0  0  0  0
  8 10  1  0  0  0  0
 10  9  2  0  0  0  0
 10 11  1  0  0  0  0
 11 12  2  0  0  0  0
 14  6  1  0  0  0  0
 15  4  2  0  0  0  0
 16  9  1  6  0  0  0
 16 12  1  0  0  0  0
 16  3  1  0  0  0  0
 17 14  1  0  0  0  0
 19 18  1  6  0  0  0
 19 20  1  0  0  0  0
 19 17  1  0  0  0  0
 21 20  1  0  0  0  0
 21 23  1  0  0  0  0
 22 30  1  0  0  0  0
 23 26  2  0  0  0  0
 23 24  1  0  0  0  0
 24 25  2  0  0  0  0
 25 22  1  0  0  0  0
 26 27  1  0  0  0  0
 27 22  2  0  0  0  0
 30 29  2  0  0  0  0
 30 28  1  0  0  0  0
M  END
>  <MODEL>
7

>  <REMARK>
 VINA RESULT:      -6.9      3.391      7.344
  Name = 
  6 active torsions:
  status: ('A' for Active; 'I' for Inactive)
    1  A    between atoms: C_1  and  C_28
    2  A    between atoms: C_2  and  C_4
    3  A    between atoms: C_2  and  N_11
    4  A    between atoms: N_11  and  C_21
    5  A    between atoms: C_17  and  C_21
    6  A    between atoms: C_17  and  N_24
                            x       y       z     vdW  Elec       q    Type
                         _______ _______ _______ _____ _____    ______ ____

>  <TORSDO>
F 6

$$$$
=
 OpenBabel11042413473D

 30 33  0  0  1  0  0  0  0  0999 V2000
  186.9330  177.4780  140.4440 N   0  0  0  0  0  2  0  0  0  0  0  0
  188.6360  175.6960  143.7640 N   0  0  0  0  0  2  0  0  0  0  0  0
  187.3200  176.8500  141.5060 C   0  0  0  0  0  0  0  0  0  0  0  0
  189.9310  173.1220  139.9810 C   0  0  0  0  0  3  0  0  0  0  0  0
  191.1690  172.5070  142.1370 C   0  0  0  0  0  0  0  0  0  0  0  0
  187.5440  177.6060  142.8140 C   0  0  1  0  0  3  0  0  0  0  0  0
  192.2470  171.8560  142.7970 N   0  0  0  0  0  1  0  0  0  0  0  0
  190.4030  173.3200  142.8140 N   0  0  0  0  0  0  0  0  0  0  0  0
  188.5880  174.9760  142.5430 C   0  0  0  0  0  0  0  0  0  0  0  0
  189.3190  173.9600  142.1490 C   0  0  1  0  0  3  0  0  0  0  0  0
  189.1400  173.8840  140.7260 C   0  0  0  0  0  0  0  0  0  0  0  0
  188.2880  174.9400  140.2760 N   0  0  0  0  0  0  0  0  0  0  0  0
  186.3980  178.5890  143.0370 C   0  0  0  0  0  1  0  0  0  0  0  0
  187.6760  176.7090  143.9950 N   0  0  0  0  0  0  0  0  0  0  0  0
  190.8920  172.1710  140.6700 C   0  0  0  0  0  3  0  0  0  0  0  0
  187.9620  175.5450  141.3820 C   0  0  0  0  0  0  0  0  0  0  0  0
  188.1820  177.4980  145.1120 C   0  0  0  0  0  2  0  0  0  0  0  0
  190.3930  178.2710  144.6510 O   0  0  0  0  0  1  0  0  0  0  0  0
  189.6710  177.2600  145.2880 C   0  0  1  0  0  3  0  0  0  0  0  0
  189.9930  177.2540  146.7050 N   0  0  0  0  0  2  0  0  0  0  0  0
  190.3570  175.8920  147.0700 C   0  0  0  0  0  2  0  0  0  0  0  0
  194.4030  175.0990  145.8590 C   0  0  0  0  0  0  0  0  0  0  0  0
  191.7640  175.6050  146.6650 C   0  0  0  0  0  0  0  0  0  0  0  0
  192.7770  176.5180  146.9740 C   0  0  0  0  0  3  0  0  0  0  0  0
  194.0920  176.2650  146.5740 C   0  0  0  0  0  3  0  0  0  0  0  0
  192.0660  174.4420  145.9490 C   0  0  0  0  0  3  0  0  0  0  0  0
  193.3810  174.1900  145.5490 C   0  0  0  0  0  3  0  0  0  0  0  0
  196.3280  175.5140  144.3480 O   0  0  0  0  0  0  0  0  0  0  0  0
  196.5020  174.0090  146.0610 O   0  0  0  0  0  1  0  0  0  0  0  0
  195.7900  174.8400  145.4380 C   0  0  0  0  0  0  0  0  0  0  0  0
  1  3  2  0  0  0  0
  2 14  1  0  0  0  0
  3  6  1  0  0  0  0
  4 15  2  0  0  0  0
  4 11  1  0  0  0  0
  5  7  1  0  0  0  0
  5  8  2  0  0  0  0
  6 13  1  1  0  0  0
  6 14  1  0  0  0  0
  9  2  1  0  0  0  0
 10 11  1  6  0  0  0
 10  9  1  0  0  0  0
 10  8  1  0  0  0  0
 12 11  2  0  0  0  0
 12 16  1  0  0  0  0
 14 17  1  0  0  0  0
 15  5  1  0  0  0  0
 16  3  1  0  0  0  0
 16  9  2  0  0  0  0
 17 19  1  0  0  0  0
 19 18  1  6  0  0  0
 19 20  1  0  0  0  0
 20 21  1  0  0  0  0
 22 25  1  0  0  0  0
 23 24  1  0  0  0  0
 23 21  1  0  0  0  0
 25 24  2  0  0  0  0
 26 23  2  0  0  0  0
 27 22  2  0  0  0  0
 27 26  1  0  0  0  0
 28 30  2  0  0  0  0
 30 22  1  0  0  0  0
 30 29  1  0  0  0  0
M  END
>  <MODEL>
8

>  <REMARK>
 VINA RESULT:      -6.7      2.966      5.660
  Name = 
  6 active torsions:
  status: ('A' for Active; 'I' for Inactive)
    1  A    between atoms: C_1  and  C_28
    2  A    between atoms: C_2  and  C_4
    3  A    between atoms: C_2  and  N_11
    4  A    between atoms: N_11  and  C_21
    5  A    between atoms: C_17  and  C_21
    6  A    between atoms: C_17  and  N_24
                            x       y       z     vdW  Elec       q    Type
                         _______ _______ _______ _____ _____    ______ ____

>  <TORSDO>
F 6

$$$$
=
 OpenBabel11042413473D

 30 33  0  0  1  0  0  0  0  0999 V2000
  190.0730  171.0890  142.4870 N   0  0  0  0  0  2  0  0  0  0  0  0
  190.1510  175.1800  143.0890 N   0  0  0  0  0  2  0  0  0  0  0  0
  189.9890  172.3430  142.7950 C   0  0  0  0  0  0  0  0  0  0  0  0
  193.9310  173.3670  145.3340 C   0  0  0  0  0  3  0  0  0  0  0  0
  193.9350  175.9230  145.1770 C   0  0  0  0  0  0  0  0  0  0  0  0
  189.2550  173.3170  141.8760 C   0  0  1  0  0  3  0  0  0  0  0  0
  194.6230  177.1630  145.2780 N   0  0  0  0  0  1  0  0  0  0  0  0
  192.7350  175.8980  144.6640 N   0  0  0  0  0  0  0  0  0  0  0  0
  190.9700  174.3480  143.8950 C   0  0  0  0  0  0  0  0  0  0  0  0
  192.0480  174.6540  144.5780 C   0  0  0  0  0  0  0  0  0  0  0  0
  192.6890  173.4020  144.8700 C   0  0  0  0  0  0  0  0  0  0  0  0
  191.9540  172.3220  144.2890 N   0  0  0  0  0  0  0  0  0  0  0  0
  187.9470  172.6870  141.4060 C   0  0  0  0  0  1  0  0  0  0  0  0
  188.9790  174.6320  142.5170 N   0  0  0  0  0  0  0  0  0  0  0  0
  194.5950  174.6660  145.7510 C   0  0  0  0  0  2  0  0  0  0  0  0
  190.9330  172.9190  143.7470 C   0  0  0  0  0  0  0  0  0  0  0  0
  188.5630  175.5670  141.4780 C   0  0  0  0  0  2  0  0  0  0  0  0
  187.4950  177.6700  141.1070 O   0  0  0  0  0  1  0  0  0  0  0  0
  187.9560  176.8100  142.1060 C   0  0  1  0  0  3  0  0  0  0  0  0
  186.8460  176.4240  142.9610 N   0  0  0  0  0  2  0  0  0  0  0  0
  186.7690  177.3910  144.0470 C   0  0  0  0  0  2  0  0  0  0  0  0
  189.9100  176.6340  146.8800 C   0  0  0  0  0  0  0  0  0  0  0  0
  187.8500  177.1380  145.0430 C   0  0  0  0  0  0  0  0  0  0  0  0
  189.0120  177.9150  145.0220 C   0  0  0  0  0  3  0  0  0  0  0  0
  190.0380  177.6650  145.9380 C   0  0  0  0  0  3  0  0  0  0  0  0
  187.7170  176.1060  145.9780 C   0  0  0  0  0  3  0  0  0  0  0  0
  188.7430  175.8560  146.8930 C   0  0  0  0  0  3  0  0  0  0  0  0
  191.4120  177.3680  148.7140 O   0  0  0  0  0  1  0  0  0  0  0  0
  191.5560  175.2440  147.8780 O   0  0  0  0  0  0  0  0  0  0  0  0
  190.9960  176.3720  147.8390 C   0  0  0  0  0  0  0  0  0  0  0  0
  1  3  2  0  0  0  0
  2  9  1  0  0  0  0
  3 16  1  0  0  0  0
  4 15  1  0  0  0  0
  5  7  1  0  0  0  0
  5 15  1  0  0  0  0
  6 13  1  1  0  0  0
  6 14  1  0  0  0  0
  6  3  1  0  0  0  0
  8  5  2  0  0  0  0
  9 10  2  0  0  0  0
 10  8  1  0  0  0  0
 10 11  1  0  0  0  0
 11  4  2  0  0  0  0
 12 11  1  0  0  0  0
 14  2  1  0  0  0  0
 16  9  1  0  0  0  0
 16 12  2  0  0  0  0
 17 19  1  0  0  0  0
 17 14  1  0  0  0  0
 19 18  1  6  0  0  0
 19 20  1  0  0  0  0
 20 21  1  0  0  0  0
 21 23  1  0  0  0  0
 22 27  1  0  0  0  0
 22 30  1  0  0  0  0
 23 26  1  0  0  0  0
 24 23  2  0  0  0  0
 24 25  1  0  0  0  0
 25 22  2  0  0  0  0
 26 27  2  0  0  0  0
 30 29  2  0  0  0  0
 30 28  1  0  0  0  0
M  END
>  <MODEL>
9

>  <REMARK>
 VINA RESULT:      -6.7      2.574      5.996
  Name = 
  6 active torsions:
  status: ('A' for Active; 'I' for Inactive)
    1  A    between atoms: C_1  and  C_28
    2  A    between atoms: C_2  and  C_4
    3  A    between atoms: C_2  and  N_11
    4  A    between atoms: N_11  and  C_21
    5  A    between atoms: C_17  and  C_21
    6  A    between atoms: C_17  and  N_24
                            x       y       z     vdW  Elec       q    Type
                         _______ _______ _______ _____ _____    ______ ____

>  <TORSDO>
F 6

$$$$
