=
 OpenBabel11042416133D

 60 65  0  0  1  0  0  0  0  0999 V2000
  193.3150  175.8470  144.8020 C   0  0  0  0  0  0  0  0  0  0  0  0
  192.7610  176.0620  146.1730 C   0  0  1  0  0  3  0  0  0  0  0  0
  193.5770  177.1300  146.8840 C   0  0  0  0  0  1  0  0  0  0  0  0
  188.9800  175.0760  141.0610 C   0  0  0  0  0  0  0  0  0  0  0  0
  190.6480  176.8810  147.3950 C   0  0  0  0  0  3  0  0  0  0  0  0
  188.0210  176.5860  145.1180 N   0  0  0  0  0  0  0  0  0  0  0  0
  188.4770  176.2850  143.8120 N   0  0  2  0  0  0  0  0  0  0  0  0
  187.7100  175.5930  141.6890 C   0  0  0  0  0  2  0  0  0  0  0  0
  191.9740  175.4910  142.9500 O   0  0  0  0  0  0  0  0  0  0  0  0
  194.3510  175.0790  144.6640 N   0  0  0  0  0  0  0  0  0  0  0  0
  187.6220  175.3120  143.1730 C   0  0  0  0  0  2  0  0  0  0  0  0
  191.2800  176.3560  146.2560 C   0  0  0  0  0  0  0  0  0  0  0  0
  192.6840  176.4870  143.6110 C   0  0  0  0  0  2  0  0  0  0  0  0
  190.6750  175.9680  142.7500 C   0  0  2  0  0  3  0  0  0  0  0  0
  189.3550  177.0240  147.1580 O   0  0  0  0  0  0  0  0  0  0  0  0
  190.2530  176.1660  145.3350 C   0  0  0  0  0  0  0  0  0  0  0  0
  189.8090  175.6610  143.9850 C   0  0  1  0  0  3  0  0  0  0  0  0
  189.1600  176.5920  145.9440 C   0  0  0  0  0  0  0  0  0  0  0  0
  190.1740  175.2680  141.5570 N   0  0  0  0  0  0  0  0  0  0  0  0
  186.5090  178.4930  144.6940 C   0  0  0  0  0  3  0  0  0  0  0  0
  184.4460  178.7330  145.9380 C   0  0  0  0  0  3  0  0  0  0  0  0
  184.7390  177.5650  146.6450 C   0  0  0  0  0  3  0  0  0  0  0  0
  185.3310  179.1970  144.9620 C   0  0  0  0  0  3  0  0  0  0  0  0
  186.8110  177.3150  145.3950 C   0  0  0  0  0  0  0  0  0  0  0  0
  185.9150  176.8590  146.3750 C   0  0  0  0  0  3  0  0  0  0  0  0
  188.9020  174.3680  139.8590 O   0  0  0  0  0  0  0  0  0  0  0  0
  189.7320  173.2570  139.5350 C   0  0  1  0  0  3  0  0  0  0  0  0
  189.0310  172.0620  139.7210 O   0  0  0  0  0  1  0  0  0  0  0  0
  190.1940  173.3680  138.0870 C   0  0  0  0  0  2  0  0  0  0  0  0
  190.4530  171.9890  137.4890 C   0  0  0  0  0  2  0  0  0  0  0  0
  191.8510  171.6120  137.6760 N   0  0  0  0  0  0  0  0  0  0  0  0
  193.8770  172.7200  138.3930 C   0  0  0  0  0  3  0  0  0  0  0  0
  192.9190  172.5520  137.4840 C   0  0  0  0  0  3  0  0  0  0  0  0
  194.9760  173.7100  138.1990 C   0  0  1  0  0  3  0  0  0  0  0  0
  194.9970  174.6830  139.3420 C   0  0  0  0  0  0  0  0  0  0  0  0
  193.8770  174.9090  140.0270 C   0  0  0  0  0  2  0  0  0  0  0  0
  196.2890  175.2150  139.8700 C   0  0  0  0  0  1  0  0  0  0  0  0
  196.2590  173.0290  138.0870 N   0  0  0  0  0  2  0  0  0  0  0  0
  196.6920  170.4510  140.5420 O   0  0  0  0  0  0  0  0  0  0  0  0
  196.8220  171.5560  139.9530 C   0  0  0  0  0  3  0  0  0  0  0  0
  196.1220  171.7970  138.7380 N   0  0  0  0  0  2  0  0  0  0  0  0
  192.1700  170.2000  137.7910 C   0  0  0  0  0  2  0  0  0  0  0  0
  191.9410  169.7120  139.2140 C   0  0  0  0  0  2  0  0  0  0  0  0
  190.7610  168.9710  139.2790 O   0  0  0  0  0  1  0  0  0  0  0  0
  194.8960  174.8010  143.4280 O   0  0  0  0  0  0  0  0  0  0  0  0
  195.4130  173.5380  143.1380 C   0  0  0  0  0  0  0  0  0  0  0  0
  196.7200  173.3360  143.2190 C   0  0  0  0  0  2  0  0  0  0  0  0
  194.5220  172.4080  142.7340 C   0  0  0  0  0  2  0  0  0  0  0  0
  193.6630  171.9480  143.9080 C   0  0  2  0  0  3  0  0  0  0  0  0
  192.7610  169.5720  144.1190 C   0  0  0  0  0  2  0  0  0  0  0  0
  195.7800  171.0430  145.7670 O   0  0  0  0  0  1  0  0  0  0  0  0
  194.5590  170.3690  145.6890 C   0  0  1  0  0  3  0  0  0  0  0  0
  193.9730  170.4920  144.2770 C   0  0  2  0  0  3  0  0  0  0  0  0
  195.7800  168.2930  145.3480 O   0  0  0  0  0  1  0  0  0  0  0  0
  194.7390  168.8920  146.0690 C   0  0  2  0  0  3  0  0  0  0  0  0
  193.1480  168.1660  144.5660 C   0  0  0  0  0  2  0  0  0  0  0  0
  193.5320  168.1660  145.9260 O   0  0  0  0  0  0  0  0  0  0  0  0
  191.6890  172.1470  142.3880 O   0  0  0  0  0  0  0  0  0  0  0  0
  191.4460  172.5290  144.6340 O   0  0  0  0  0  1  0  0  0  0  0  0
  192.2020  172.2110  143.6780 C   0  0  0  0  0  0  0  0  0  0  0  0
  1  2  1  0  0  0  0
  2 12  1  0  0  0  0
  2  3  1  6  0  0  0
  4 19  2  0  0  0  0
  4  8  1  0  0  0  0
  6 24  1  0  0  0  0
  6 18  1  0  0  0  0
  7 11  1  1  0  0  0
  7 17  1  0  0  0  0
  7  6  1  0  0  0  0
  8 11  1  0  0  0  0
  9 13  1  0  0  0  0
 10  1  2  0  0  0  0
 12  5  2  0  0  0  0
 13  1  1  0  0  0  0
 14 19  1  6  0  0  0
 14  9  1  0  0  0  0
 14 17  1  0  0  0  0
 15  5  1  0  0  0  0
 16 18  2  0  0  0  0
 16 12  1  0  0  0  0
 17 16  1  1  0  0  0
 18 15  1  0  0  0  0
 20 23  2  0  0  0  0
 20 24  1  0  0  0  0
 21 22  2  0  0  0  0
 23 21  1  0  0  0  0
 24 25  2  0  0  0  0
 25 22  1  0  0  0  0
 26  4  1  0  0  0  0
 27 28  1  6  0  0  0
 27 26  1  0  0  0  0
 29 27  1  0  0  0  0
 30 31  1  0  0  0  0
 30 29  1  0  0  0  0
 31 42  1  0  0  0  0
 33 31  1  0  0  0  0
 33 32  2  0  0  0  0
 34 32  1  1  0  0  0
 34 35  1  0  0  0  0
 35 37  1  0  0  0  0
 35 36  2  0  0  0  0
 38 34  1  0  0  0  0
 38 41  1  0  0  0  0
 40 39  2  0  0  0  0
 41 40  1  0  0  0  0
 42 43  1  0  0  0  0
 43 44  1  0  0  0  0
 45 10  1  0  0  0  0
 46 47  2  0  0  0  0
 46 45  1  0  0  0  0
 48 46  1  0  0  0  0
 49 48  1  6  0  0  0
 50 53  1  0  0  0  0
 50 56  1  0  0  0  0
 52 51  1  6  0  0  0
 52 55  1  0  0  0  0
 53 49  1  1  0  0  0
 53 52  1  0  0  0  0
 55 54  1  6  0  0  0
 56 57  1  0  0  0  0
 57 55  1  0  0  0  0
 58 60  2  0  0  0  0
 60 49  1  0  0  0  0
 60 59  1  0  0  0  0
M  END
>  <MODEL>
1

>  <REMARK>
 VINA RESULT:      -6.3      0.000      0.000
  Name = 
  19 active torsions:
  status: ('A' for Active; 'I' for Inactive)
    1  A    between atoms: C_1  and  C_12
    2  A    between atoms: N_5  and  C_12
    3  A    between atoms: N_5  and  N_58
    4  A    between atoms: C_8  and  C_32
    5  A    between atoms: C_8  and  C_50
    6  A    between atoms: C_9  and  C_12
    7  A    between atoms: C_10  and  O_57
    8  A    between atoms: N_15  and  C_51
    9  A    between atoms: C_16  and  C_42
   10  A    between atoms: O_18  and  N_27
   11  A    between atoms: O_18  and  C_32
   12  A    between atoms: C_19  and  C_49
   13  A    between atoms: C_19  and  O_57
   14  A    between atoms: N_24  and  C_37
   15  A    between atoms: N_24  and  C_38
   16  A    between atoms: N_24  and  C_42
   17  A    between atoms: C_28  and  C_50
   18  A    between atoms: C_36  and  C_50
   19  A    between atoms: C_37  and  C_49
                            x       y       z     vdW  Elec       q    Type
                         _______ _______ _______ _____ _____    ______ ____

>  <TORSDO>
F 19

$$$$
=
 OpenBabel11042416133D

 60 65  0  0  1  0  0  0  0  0999 V2000
  193.1280  175.6640  145.6460 C   0  0  0  0  0  0  0  0  0  0  0  0
  192.3270  176.0760  146.8380 C   0  0  1  0  0  3  0  0  0  0  0  0
  193.0660  177.1760  147.5840 C   0  0  0  0  0  1  0  0  0  0  0  0
  189.5920  174.6850  141.1830 C   0  0  0  0  0  0  0  0  0  0  0  0
  190.0840  177.1580  147.4910 C   0  0  0  0  0  3  0  0  0  0  0  0
  187.9570  176.7340  144.7580 N   0  0  0  0  0  0  0  0  0  0  0  0
  188.6420  176.2480  143.6180 N   0  0  2  0  0  0  0  0  0  0  0  0
  188.2670  175.3460  141.4700 C   0  0  0  0  0  2  0  0  0  0  0  0
  192.1650  175.1590  143.6030 O   0  0  0  0  0  0  0  0  0  0  0  0
  194.1050  174.8270  145.8130 N   0  0  0  0  0  0  0  0  0  0  0  0
  187.8580  175.2550  142.9230 C   0  0  0  0  0  2  0  0  0  0  0  0
  190.8890  176.4620  146.5750 C   0  0  0  0  0  0  0  0  0  0  0  0
  192.8050  176.1870  144.2870 C   0  0  0  0  0  2  0  0  0  0  0  0
  190.9770  175.6800  143.0840 C   0  0  2  0  0  3  0  0  0  0  0  0
  188.8810  177.3430  146.9740 O   0  0  0  0  0  0  0  0  0  0  0  0
  190.0570  176.2180  145.4850 C   0  0  0  0  0  0  0  0  0  0  0  0
  189.8560  175.5770  144.1340 C   0  0  1  0  0  3  0  0  0  0  0  0
  188.9020  176.7770  145.8000 C   0  0  0  0  0  0  0  0  0  0  0  0
  190.6720  174.8690  141.8950 N   0  0  0  0  0  0  0  0  0  0  0  0
  186.6930  178.6130  143.7710 C   0  0  0  0  0  3  0  0  0  0  0  0
  184.4750  179.1640  144.5700 C   0  0  0  0  0  3  0  0  0  0  0  0
  184.5510  178.1190  145.4940 C   0  0  0  0  0  3  0  0  0  0  0  0
  185.5460  179.4100  143.7080 C   0  0  0  0  0  3  0  0  0  0  0  0
  186.7780  177.5580  144.6930 C   0  0  0  0  0  0  0  0  0  0  0  0
  185.6970  177.3210  145.5560 C   0  0  0  0  0  3  0  0  0  0  0  0
  189.7030  173.8390  140.0750 O   0  0  0  0  0  0  0  0  0  0  0  0
  189.2150  172.5020  140.0430 C   0  0  1  0  0  3  0  0  0  0  0  0
  187.9860  172.4530  139.3810 O   0  0  0  0  0  1  0  0  0  0  0  0
  190.2240  171.6060  139.3350 C   0  0  0  0  0  2  0  0  0  0  0  0
  191.6530  172.0200  139.6730 C   0  0  0  0  0  2  0  0  0  0  0  0
  192.2980  172.6100  138.5030 N   0  0  0  0  0  0  0  0  0  0  0  0
  194.6640  172.9290  138.8860 C   0  0  0  0  0  3  0  0  0  0  0  0
  193.4630  173.4400  138.6210 C   0  0  0  0  0  3  0  0  0  0  0  0
  195.8700  173.7960  139.0260 C   0  0  1  0  0  3  0  0  0  0  0  0
  196.7200  173.6940  137.7930 C   0  0  0  0  0  0  0  0  0  0  0  0
  197.0750  174.8070  137.1520 C   0  0  0  0  0  2  0  0  0  0  0  0
  197.3630  172.4010  137.4110 C   0  0  0  0  0  1  0  0  0  0  0  0
  195.4760  175.1800  139.2590 N   0  0  0  0  0  2  0  0  0  0  0  0
  195.8620  176.6990  142.4840 O   0  0  0  0  0  0  0  0  0  0  0  0
  195.3310  176.3530  141.3970 C   0  0  0  0  0  3  0  0  0  0  0  0
  196.0690  175.5730  140.4640 N   0  0  0  0  0  2  0  0  0  0  0  0
  191.5850  172.5750  137.2380 C   0  0  0  0  0  2  0  0  0  0  0  0
  192.3890  171.8200  136.1900 C   0  0  0  0  0  2  0  0  0  0  0  0
  192.6970  170.5420  136.6560 O   0  0  0  0  0  1  0  0  0  0  0  0
  194.8650  174.3690  144.7580 O   0  0  0  0  0  0  0  0  0  0  0  0
  196.0920  173.7420  144.9740 C   0  0  0  0  0  0  0  0  0  0  0  0
  197.2100  174.3710  144.6420 C   0  0  0  0  0  2  0  0  0  0  0  0
  196.1720  172.3740  145.5700 C   0  0  0  0  0  2  0  0  0  0  0  0
  196.1100  171.3050  144.4840 C   0  0  2  0  0  3  0  0  0  0  0  0
  194.5040  169.3700  144.9110 C   0  0  0  0  0  2  0  0  0  0  0  0
  194.1840  172.1120  142.3860 O   0  0  0  0  0  1  0  0  0  0  0  0
  194.2210  170.7980  142.8580 C   0  0  1  0  0  3  0  0  0  0  0  0
  194.6810  170.7690  144.3210 C   0  0  2  0  0  3  0  0  0  0  0  0
  191.8290  170.9320  143.2800 O   0  0  0  0  0  1  0  0  0  0  0  0
  192.8390  170.1420  142.7180 C   0  0  2  0  0  3  0  0  0  0  0  0
  193.0770  168.9000  144.6470 C   0  0  0  0  0  2  0  0  0  0  0  0
  192.8260  168.8320  143.2580 O   0  0  0  0  0  0  0  0  0  0  0  0
  197.6070  169.5100  143.5990 O   0  0  0  0  0  0  0  0  0  0  0  0
  197.5370  169.9340  145.8490 O   0  0  0  0  0  1  0  0  0  0  0  0
  197.1340  170.2250  144.6920 C   0  0  0  0  0  0  0  0  0  0  0  0
  1 10  2  0  0  0  0
  1  2  1  0  0  0  0
  2  3  1  6  0  0  0
  4  8  1  0  0  0  0
  4 19  2  0  0  0  0
  6 18  1  0  0  0  0
  7 11  1  1  0  0  0
  7 17  1  0  0  0  0
  7  6  1  0  0  0  0
  8 11  1  0  0  0  0
  9 13  1  0  0  0  0
 12  2  1  0  0  0  0
 12  5  2  0  0  0  0
 13  1  1  0  0  0  0
 14 19  1  6  0  0  0
 14  9  1  0  0  0  0
 14 17  1  0  0  0  0
 15  5  1  0  0  0  0
 16 18  2  0  0  0  0
 16 12  1  0  0  0  0
 17 16  1  1  0  0  0
 18 15  1  0  0  0  0
 20 24  1  0  0  0  0
 21 22  2  0  0  0  0
 22 25  1  0  0  0  0
 23 20  2  0  0  0  0
 23 21  1  0  0  0  0
 24  6  1  0  0  0  0
 24 25  2  0  0  0  0
 26  4  1  0  0  0  0
 27 28  1  6  0  0  0
 27 26  1  0  0  0  0
 29 30  1  0  0  0  0
 29 27  1  0  0  0  0
 31 33  1  0  0  0  0
 31 30  1  0  0  0  0
 33 32  2  0  0  0  0
 34 32  1  6  0  0  0
 34 38  1  0  0  0  0
 35 34  1  0  0  0  0
 36 35  2  0  0  0  0
 37 35  1  0  0  0  0
 38 41  1  0  0  0  0
 40 39  2  0  0  0  0
 41 40  1  0  0  0  0
 42 31  1  0  0  0  0
 43 44  1  0  0  0  0
 43 42  1  0  0  0  0
 45 46  1  0  0  0  0
 45 10  1  0  0  0  0
 46 48  1  0  0  0  0
 47 46  2  0  0  0  0
 49 60  1  0  0  0  0
 49 48  1  1  0  0  0
 52 51  1  1  0  0  0
 52 53  1  0  0  0  0
 53 49  1  6  0  0  0
 53 50  1  0  0  0  0
 55 52  1  0  0  0  0
 55 57  1  0  0  0  0
 55 54  1  1  0  0  0
 56 50  1  0  0  0  0
 57 56  1  0  0  0  0
 58 60  2  0  0  0  0
 60 59  1  0  0  0  0
M  END
>  <MODEL>
2

>  <REMARK>
 VINA RESULT:      -6.0      1.620      2.674
  Name = 
  19 active torsions:
  status: ('A' for Active; 'I' for Inactive)
    1  A    between atoms: C_1  and  C_12
    2  A    between atoms: N_5  and  C_12
    3  A    between atoms: N_5  and  N_58
    4  A    between atoms: C_8  and  C_32
    5  A    between atoms: C_8  and  C_50
    6  A    between atoms: C_9  and  C_12
    7  A    between atoms: C_10  and  O_57
    8  A    between atoms: N_15  and  C_51
    9  A    between atoms: C_16  and  C_42
   10  A    between atoms: O_18  and  N_27
   11  A    between atoms: O_18  and  C_32
   12  A    between atoms: C_19  and  C_49
   13  A    between atoms: C_19  and  O_57
   14  A    between atoms: N_24  and  C_37
   15  A    between atoms: N_24  and  C_38
   16  A    between atoms: N_24  and  C_42
   17  A    between atoms: C_28  and  C_50
   18  A    between atoms: C_36  and  C_50
   19  A    between atoms: C_37  and  C_49
                            x       y       z     vdW  Elec       q    Type
                         _______ _______ _______ _____ _____    ______ ____

>  <TORSDO>
F 19

$$$$
=
 OpenBabel11042416133D

 60 65  0  0  1  0  0  0  0  0999 V2000
  189.4930  174.4390  143.0650 C   0  0  0  0  0  0  0  0  0  0  0  0
  188.6270  174.1610  141.8780 C   0  0  1  0  0  3  0  0  0  0  0  0
  188.3650  175.4610  141.1330 C   0  0  0  0  0  1  0  0  0  0  0  0
  193.3390  170.1740  143.6940 C   0  0  0  0  0  0  0  0  0  0  0  0
  188.6120  172.8890  139.6400 C   0  0  0  0  0  3  0  0  0  0  0  0
  191.0380  170.3970  139.9110 N   0  0  0  0  0  0  0  0  0  0  0  0
  191.8320  170.5480  141.0730 N   0  0  2  0  0  0  0  0  0  0  0  0
  193.4290  169.4170  142.3920 C   0  0  0  0  0  2  0  0  0  0  0  0
  191.1920  173.0190  143.7350 O   0  0  0  0  0  0  0  0  0  0  0  0
  188.9370  174.8900  144.1460 N   0  0  0  0  0  0  0  0  0  0  0  0
  192.0950  169.2720  141.6940 C   0  0  0  0  0  2  0  0  0  0  0  0
  189.1080  173.0780  140.9400 C   0  0  0  0  0  0  0  0  0  0  0  0
  190.9620  174.1870  143.0170 C   0  0  0  0  0  2  0  0  0  0  0  0
  191.9480  172.1710  142.9200 C   0  0  2  0  0  3  0  0  0  0  0  0
  189.2270  171.8650  139.0740 O   0  0  0  0  0  0  0  0  0  0  0  0
  190.0440  172.0610  141.1130 C   0  0  0  0  0  0  0  0  0  0  0  0
  191.0150  171.3440  142.0170 C   0  0  1  0  0  3  0  0  0  0  0  0
  190.0570  171.4030  139.9680 C   0  0  0  0  0  0  0  0  0  0  0  0
  192.7070  171.3090  143.8390 N   0  0  0  0  0  0  0  0  0  0  0  0
  190.7720  168.7570  138.0820 C   0  0  0  0  0  3  0  0  0  0  0  0
  192.4250  168.5920  136.3210 C   0  0  0  0  0  3  0  0  0  0  0  0
  193.1660  169.6100  136.9250 C   0  0  0  0  0  3  0  0  0  0  0  0
  191.2270  168.1660  136.9000 C   0  0  0  0  0  3  0  0  0  0  0  0
  191.5070  169.7850  138.6950 C   0  0  0  0  0  0  0  0  0  0  0  0
  192.7100  170.2030  138.1050 C   0  0  0  0  0  3  0  0  0  0  0  0
  193.9870  169.6630  144.8220 O   0  0  0  0  0  0  0  0  0  0  0  0
  194.7110  170.4610  145.7530 C   0  0  1  0  0  3  0  0  0  0  0  0
  195.0160  169.7120  146.8930 O   0  0  0  0  0  1  0  0  0  0  0  0
  195.9940  170.9670  145.1040 C   0  0  0  0  0  2  0  0  0  0  0  0
  196.4650  172.2600  145.7630 C   0  0  0  0  0  2  0  0  0  0  0  0
  196.1920  173.3980  144.8910 N   0  0  0  0  0  0  0  0  0  0  0  0
  196.0810  173.8160  142.5120 C   0  0  0  0  0  3  0  0  0  0  0  0
  196.7970  173.5190  143.5950 C   0  0  0  0  0  3  0  0  0  0  0  0
  196.7090  173.9230  141.1640 C   0  0  1  0  0  3  0  0  0  0  0  0
  196.9860  175.3630  140.8410 C   0  0  0  0  0  0  0  0  0  0  0  0
  197.7460  175.6600  139.7880 C   0  0  0  0  0  2  0  0  0  0  0  0
  196.2400  176.4590  141.5290 C   0  0  0  0  0  1  0  0  0  0  0  0
  197.9400  173.1450  141.1140 N   0  0  0  0  0  2  0  0  0  0  0  0
  196.4020  170.9990  138.6870 O   0  0  0  0  0  0  0  0  0  0  0  0
  196.5190  171.7990  139.6520 C   0  0  0  0  0  3  0  0  0  0  0  0
  197.8100  172.2480  140.0460 N   0  0  0  0  0  2  0  0  0  0  0  0
  195.5150  174.5500  145.4610 C   0  0  0  0  0  2  0  0  0  0  0  0
  194.0320  174.5230  145.1230 C   0  0  0  0  0  2  0  0  0  0  0  0
  193.3010  174.0710  146.2210 O   0  0  0  0  0  1  0  0  0  0  0  0
  189.6610  175.1330  145.2940 O   0  0  0  0  0  0  0  0  0  0  0  0
  189.6840  176.4010  145.8760 C   0  0  0  0  0  0  0  0  0  0  0  0
  190.4660  176.6220  146.9220 C   0  0  0  0  0  2  0  0  0  0  0  0
  188.8410  177.5150  145.3430 C   0  0  0  0  0  2  0  0  0  0  0  0
  187.3610  177.2370  145.5830 C   0  0  2  0  0  3  0  0  0  0  0  0
  185.8910  179.2930  145.2390 C   0  0  0  0  0  2  0  0  0  0  0  0
  185.9410  176.1370  143.2300 O   0  0  0  0  0  1  0  0  0  0  0  0
  185.3830  177.1710  143.9870 C   0  0  1  0  0  3  0  0  0  0  0  0
  186.4870  178.0350  144.6060 C   0  0  2  0  0  3  0  0  0  0  0  0
  185.0910  178.4480  141.9370 O   0  0  0  0  0  1  0  0  0  0  0  0
  184.4560  178.0300  143.1130 C   0  0  2  0  0  3  0  0  0  0  0  0
  184.9930  179.9820  144.2160 C   0  0  0  0  0  2  0  0  0  0  0  0
  183.9330  179.1310  143.8340 O   0  0  0  0  0  0  0  0  0  0  0  0
  187.6040  178.4080  147.7780 O   0  0  0  0  0  1  0  0  0  0  0  0
  186.1190  176.6770  147.5640 O   0  0  0  0  0  0  0  0  0  0  0  0
  186.9750  177.4260  147.0230 C   0  0  0  0  0  0  0  0  0  0  0  0
  1 10  2  0  0  0  0
  2  3  1  6  0  0  0
  2  1  1  0  0  0  0
  4 19  2  0  0  0  0
  4 26  1  0  0  0  0
  5 12  2  0  0  0  0
  6 18  1  0  0  0  0
  6  7  1  0  0  0  0
  7 11  1  1  0  0  0
  7 17  1  0  0  0  0
  8  4  1  0  0  0  0
 10 45  1  0  0  0  0
 11  8  1  0  0  0  0
 12 16  1  0  0  0  0
 12  2  1  0  0  0  0
 13  1  1  0  0  0  0
 13  9  1  0  0  0  0
 14  9  1  1  0  0  0
 14 19  1  0  0  0  0
 15  5  1  0  0  0  0
 15 18  1  0  0  0  0
 17 16  1  6  0  0  0
 17 14  1  0  0  0  0
 18 16  2  0  0  0  0
 20 24  1  0  0  0  0
 21 23  1  0  0  0  0
 21 22  2  0  0  0  0
 22 25  1  0  0  0  0
 23 20  2  0  0  0  0
 24  6  1  0  0  0  0
 25 24  2  0  0  0  0
 26 27  1  0  0  0  0
 27 28  1  1  0  0  0
 29 27  1  0  0  0  0
 29 30  1  0  0  0  0
 31 42  1  0  0  0  0
 31 30  1  0  0  0  0
 32 33  2  0  0  0  0
 33 31  1  0  0  0  0
 34 32  1  1  0  0  0
 35 34  1  0  0  0  0
 35 37  1  0  0  0  0
 36 35  2  0  0  0  0
 38 34  1  0  0  0  0
 39 40  2  0  0  0  0
 40 41  1  0  0  0  0
 41 38  1  0  0  0  0
 43 42  1  0  0  0  0
 43 44  1  0  0  0  0
 45 46  1  0  0  0  0
 46 47  2  0  0  0  0
 48 46  1  0  0  0  0
 49 48  1  1  0  0  0
 49 60  1  0  0  0  0
 52 51  1  6  0  0  0
 52 53  1  0  0  0  0
 53 50  1  0  0  0  0
 53 49  1  1  0  0  0
 55 54  1  6  0  0  0
 55 57  1  0  0  0  0
 55 52  1  0  0  0  0
 56 50  1  0  0  0  0
 57 56  1  0  0  0  0
 60 59  2  0  0  0  0
 60 58  1  0  0  0  0
M  END
>  <MODEL>
3

>  <REMARK>
 VINA RESULT:      -5.9      2.270      8.876
  Name = 
  19 active torsions:
  status: ('A' for Active; 'I' for Inactive)
    1  A    between atoms: C_1  and  C_12
    2  A    between atoms: N_5  and  C_12
    3  A    between atoms: N_5  and  N_58
    4  A    between atoms: C_8  and  C_32
    5  A    between atoms: C_8  and  C_50
    6  A    between atoms: C_9  and  C_12
    7  A    between atoms: C_10  and  O_57
    8  A    between atoms: N_15  and  C_51
    9  A    between atoms: C_16  and  C_42
   10  A    between atoms: O_18  and  N_27
   11  A    between atoms: O_18  and  C_32
   12  A    between atoms: C_19  and  C_49
   13  A    between atoms: C_19  and  O_57
   14  A    between atoms: N_24  and  C_37
   15  A    between atoms: N_24  and  C_38
   16  A    between atoms: N_24  and  C_42
   17  A    between atoms: C_28  and  C_50
   18  A    between atoms: C_36  and  C_50
   19  A    between atoms: C_37  and  C_49
                            x       y       z     vdW  Elec       q    Type
                         _______ _______ _______ _____ _____    ______ ____

>  <TORSDO>
F 19

$$$$
=
 OpenBabel11042416133D

 60 65  0  0  1  0  0  0  0  0999 V2000
  193.2910  175.4900  144.8800 C   0  0  0  0  0  0  0  0  0  0  0  0
  192.7140  175.7910  146.2250 C   0  0  1  0  0  3  0  0  0  0  0  0
  193.5640  176.8490  146.9110 C   0  0  0  0  0  1  0  0  0  0  0  0
  189.0160  174.7640  141.0620 C   0  0  0  0  0  0  0  0  0  0  0  0
  190.6150  176.7630  147.3550 C   0  0  0  0  0  3  0  0  0  0  0  0
  188.0330  176.4940  145.0230 N   0  0  0  0  0  0  0  0  0  0  0  0
  188.5060  176.1140  143.7440 N   0  0  2  0  0  0  0  0  0  0  0  0
  187.7580  175.3680  141.6330 C   0  0  0  0  0  2  0  0  0  0  0  0
  191.9800  175.1170  143.0100 O   0  0  0  0  0  0  0  0  0  0  0  0
  194.2910  174.6670  144.8030 N   0  0  0  0  0  0  0  0  0  0  0  0
  187.6200  175.1560  143.1250 C   0  0  0  0  0  2  0  0  0  0  0  0
  191.2490  176.1590  146.2570 C   0  0  0  0  0  0  0  0  0  0  0  0
  192.7210  176.1060  143.6470 C   0  0  0  0  0  2  0  0  0  0  0  0
  190.7110  175.6470  142.7560 C   0  0  2  0  0  3  0  0  0  0  0  0
  189.3360  176.9570  147.0780 O   0  0  0  0  0  0  0  0  0  0  0  0
  190.2360  175.9780  145.3180 C   0  0  0  0  0  0  0  0  0  0  0  0
  189.8010  175.4360  143.9790 C   0  0  1  0  0  3  0  0  0  0  0  0
  189.1500  176.4820  145.8780 C   0  0  0  0  0  0  0  0  0  0  0  0
  190.2050  174.9200  141.5810 N   0  0  0  0  0  0  0  0  0  0  0  0
  186.6760  178.5040  144.5530 C   0  0  0  0  0  3  0  0  0  0  0  0
  184.5480  178.8440  145.6560 C   0  0  0  0  0  3  0  0  0  0  0  0
  184.7160  177.6400  146.3450 C   0  0  0  0  0  3  0  0  0  0  0  0
  185.5280  179.2750  144.7590 C   0  0  0  0  0  3  0  0  0  0  0  0
  186.8530  177.2910  145.2370 C   0  0  0  0  0  0  0  0  0  0  0  0
  185.8630  176.8690  146.1370 C   0  0  0  0  0  3  0  0  0  0  0  0
  188.9330  174.0070  139.8890 O   0  0  0  0  0  0  0  0  0  0  0  0
  189.8930  173.0280  139.5040 C   0  0  1  0  0  3  0  0  0  0  0  0
  189.2540  171.8290  139.1810 O   0  0  0  0  0  1  0  0  0  0  0  0
  190.6870  173.5340  138.3060 C   0  0  0  0  0  2  0  0  0  0  0  0
  189.7570  173.9650  137.1770 C   0  0  0  0  0  2  0  0  0  0  0  0
  190.5290  174.5240  136.0710 N   0  0  0  0  0  0  0  0  0  0  0  0
  192.6200  175.3970  135.2270 C   0  0  0  0  0  3  0  0  0  0  0  0
  191.8690  175.0050  136.2540 C   0  0  0  0  0  3  0  0  0  0  0  0
  194.0180  175.8810  135.4180 C   0  0  1  0  0  3  0  0  0  0  0  0
  194.1110  177.3360  135.0610 C   0  0  0  0  0  0  0  0  0  0  0  0
  195.2830  177.8390  134.6770 C   0  0  0  0  0  2  0  0  0  0  0  0
  192.8790  178.1640  134.9010 C   0  0  0  0  0  1  0  0  0  0  0  0
  194.4450  175.6670  136.7960 N   0  0  0  0  0  2  0  0  0  0  0  0
  196.9900  173.4250  135.6320 O   0  0  0  0  0  0  0  0  0  0  0  0
  195.8970  174.0460  135.6850 C   0  0  0  0  0  3  0  0  0  0  0  0
  195.6580  174.9700  136.7400 N   0  0  0  0  0  2  0  0  0  0  0  0
  189.8300  174.8430  134.8390 C   0  0  0  0  0  2  0  0  0  0  0  0
  188.7560  175.8920  135.0880 C   0  0  0  0  0  2  0  0  0  0  0  0
  189.3000  177.1700  134.9650 O   0  0  0  0  0  1  0  0  0  0  0  0
  194.8520  174.3100  143.5950 O   0  0  0  0  0  0  0  0  0  0  0  0
  195.6790  173.1920  143.4890 C   0  0  0  0  0  0  0  0  0  0  0  0
  196.4230  172.8330  144.5260 C   0  0  0  0  0  2  0  0  0  0  0  0
  195.7470  172.3910  142.2290 C   0  0  0  0  0  2  0  0  0  0  0  0
  194.4910  172.5970  141.3880 C   0  0  2  0  0  3  0  0  0  0  0  0
  194.4470  171.0460  139.3640 C   0  0  0  0  0  2  0  0  0  0  0  0
  192.0830  171.1140  142.2620 O   0  0  0  0  0  1  0  0  0  0  0  0
  192.4720  171.1230  140.9210 C   0  0  1  0  0  3  0  0  0  0  0  0
  193.9940  171.2670  140.8080 C   0  0  2  0  0  3  0  0  0  0  0  0
  192.3800  168.6920  140.9270 O   0  0  0  0  0  1  0  0  0  0  0  0
  192.0000  169.8400  140.2200 C   0  0  2  0  0  3  0  0  0  0  0  0
  193.8560  169.7340  138.8560 C   0  0  0  0  0  2  0  0  0  0  0  0
  192.4440  169.7860  138.8770 O   0  0  0  0  0  0  0  0  0  0  0  0
  195.9460  173.9670  139.8880 O   0  0  0  0  0  0  0  0  0  0  0  0
  193.6850  174.3350  139.9360 O   0  0  0  0  0  1  0  0  0  0  0  0
  194.6700  173.6720  140.3540 C   0  0  0  0  0  0  0  0  0  0  0  0
  1  2  1  0  0  0  0
  2 12  1  0  0  0  0
  2  3  1  6  0  0  0
  4 19  2  0  0  0  0
  4  8  1  0  0  0  0
  6 24  1  0  0  0  0
  6 18  1  0  0  0  0
  7 11  1  1  0  0  0
  7 17  1  0  0  0  0
  7  6  1  0  0  0  0
  8 11  1  0  0  0  0
  9 13  1  0  0  0  0
 10  1  2  0  0  0  0
 12  5  2  0  0  0  0
 13  1  1  0  0  0  0
 14 19  1  6  0  0  0
 14  9  1  0  0  0  0
 14 17  1  0  0  0  0
 15  5  1  0  0  0  0
 16 18  2  0  0  0  0
 16 12  1  0  0  0  0
 17 16  1  1  0  0  0
 18 15  1  0  0  0  0
 20 23  2  0  0  0  0
 20 24  1  0  0  0  0
 21 22  2  0  0  0  0
 23 21  1  0  0  0  0
 24 25  2  0  0  0  0
 25 22  1  0  0  0  0
 26  4  1  0  0  0  0
 27 28  1  6  0  0  0
 27 26  1  0  0  0  0
 29 27  1  0  0  0  0
 30 29  1  0  0  0  0
 31 33  1  0  0  0  0
 31 30  1  0  0  0  0
 32 33  2  0  0  0  0
 34 32  1  1  0  0  0
 34 38  1  0  0  0  0
 35 34  1  0  0  0  0
 36 35  2  0  0  0  0
 37 35  1  0  0  0  0
 39 40  2  0  0  0  0
 40 41  1  0  0  0  0
 41 38  1  0  0  0  0
 42 43  1  0  0  0  0
 42 31  1  0  0  0  0
 44 43  1  0  0  0  0
 45 10  1  0  0  0  0
 46 45  1  0  0  0  0
 46 47  2  0  0  0  0
 48 46  1  0  0  0  0
 49 48  1  6  0  0  0
 50 53  1  0  0  0  0
 52 51  1  1  0  0  0
 53 52  1  0  0  0  0
 53 49  1  6  0  0  0
 55 52  1  0  0  0  0
 55 54  1  1  0  0  0
 56 57  1  0  0  0  0
 56 50  1  0  0  0  0
 57 55  1  0  0  0  0
 58 60  2  0  0  0  0
 59 60  1  0  0  0  0
 60 49  1  0  0  0  0
M  END
>  <MODEL>
4

>  <REMARK>
 VINA RESULT:      -5.8      2.330      3.630
  Name = 
  19 active torsions:
  status: ('A' for Active; 'I' for Inactive)
    1  A    between atoms: C_1  and  C_12
    2  A    between atoms: N_5  and  C_12
    3  A    between atoms: N_5  and  N_58
    4  A    between atoms: C_8  and  C_32
    5  A    between atoms: C_8  and  C_50
    6  A    between atoms: C_9  and  C_12
    7  A    between atoms: C_10  and  O_57
    8  A    between atoms: N_15  and  C_51
    9  A    between atoms: C_16  and  C_42
   10  A    between atoms: O_18  and  N_27
   11  A    between atoms: O_18  and  C_32
   12  A    between atoms: C_19  and  C_49
   13  A    between atoms: C_19  and  O_57
   14  A    between atoms: N_24  and  C_37
   15  A    between atoms: N_24  and  C_38
   16  A    between atoms: N_24  and  C_42
   17  A    between atoms: C_28  and  C_50
   18  A    between atoms: C_36  and  C_50
   19  A    between atoms: C_37  and  C_49
                            x       y       z     vdW  Elec       q    Type
                         _______ _______ _______ _____ _____    ______ ____

>  <TORSDO>
F 19

$$$$
=
 OpenBabel11042416133D

 60 65  0  0  1  0  0  0  0  0999 V2000
  193.2480  175.8040  144.6080 C   0  0  0  0  0  0  0  0  0  0  0  0
  192.8840  175.8460  146.0570 C   0  0  1  0  0  3  0  0  0  0  0  0
  193.8160  176.8040  146.7810 C   0  0  0  0  0  1  0  0  0  0  0  0
  188.4410  175.5700  141.4120 C   0  0  0  0  0  0  0  0  0  0  0  0
  190.9730  176.5240  147.6430 C   0  0  0  0  0  3  0  0  0  0  0  0
  188.0640  176.5540  145.7180 N   0  0  0  0  0  0  0  0  0  0  0  0
  188.3370  176.4190  144.3350 N   0  0  2  0  0  0  0  0  0  0  0  0
  187.2790  176.0150  142.2640 C   0  0  0  0  0  2  0  0  0  0  0  0
  191.6670  175.7040  142.9210 O   0  0  0  0  0  0  0  0  0  0  0  0
  194.2350  175.0480  144.2370 N   0  0  0  0  0  0  0  0  0  0  0  0
  187.3790  175.5460  143.6990 C   0  0  0  0  0  2  0  0  0  0  0  0
  191.4370  176.1430  146.3730 C   0  0  0  0  0  0  0  0  0  0  0  0
  192.4850  176.5980  143.6020 C   0  0  0  0  0  2  0  0  0  0  0  0
  190.3670  176.2170  142.9590 C   0  0  2  0  0  3  0  0  0  0  0  0
  189.6650  176.7100  147.6010 O   0  0  0  0  0  0  0  0  0  0  0  0
  190.2920  176.0850  145.5810 C   0  0  0  0  0  0  0  0  0  0  0  0
  189.6620  175.7630  144.2490 C   0  0  1  0  0  3  0  0  0  0  0  0
  189.3010  176.4410  146.3790 C   0  0  0  0  0  0  0  0  0  0  0  0
  189.6940  175.6830  141.7640 N   0  0  0  0  0  0  0  0  0  0  0  0
  187.0880  178.3810  147.0650 C   0  0  0  0  0  3  0  0  0  0  0  0
  184.6870  178.6180  147.2670 C   0  0  0  0  0  3  0  0  0  0  0  0
  184.5100  177.4960  146.4550 C   0  0  0  0  0  3  0  0  0  0  0  0
  185.9770  179.0620  147.5710 C   0  0  0  0  0  3  0  0  0  0  0  0
  186.9210  177.2540  146.2440 C   0  0  0  0  0  0  0  0  0  0  0  0
  185.6210  176.8170  145.9460 C   0  0  0  0  0  3  0  0  0  0  0  0
  188.1870  175.0230  140.1510 O   0  0  0  0  0  0  0  0  0  0  0  0
  188.8220  173.8520  139.6480 C   0  0  1  0  0  3  0  0  0  0  0  0
  188.0710  172.7200  139.9720 O   0  0  0  0  0  1  0  0  0  0  0  0
  188.9730  173.9610  138.1350 C   0  0  0  0  0  2  0  0  0  0  0  0
  189.3320  172.6100  137.5240 C   0  0  0  0  0  2  0  0  0  0  0  0
  190.7820  172.4520  137.4650 N   0  0  0  0  0  0  0  0  0  0  0  0
  192.5220  174.0840  137.8570 C   0  0  0  0  0  3  0  0  0  0  0  0
  191.6410  173.5190  137.0350 C   0  0  0  0  0  3  0  0  0  0  0  0
  193.4010  175.2040  137.4120 C   0  0  1  0  0  3  0  0  0  0  0  0
  194.8300  174.9060  137.7640 C   0  0  0  0  0  0  0  0  0  0  0  0
  195.0940  174.1330  138.8160 C   0  0  0  0  0  2  0  0  0  0  0  0
  195.9380  175.2590  136.8270 C   0  0  0  0  0  1  0  0  0  0  0  0
  193.2650  175.4170  135.9770 N   0  0  0  0  0  2  0  0  0  0  0  0
  193.0780  178.8240  134.8720 O   0  0  0  0  0  0  0  0  0  0  0  0
  193.5190  177.6570  135.0330 C   0  0  0  0  0  3  0  0  0  0  0  0
  192.7780  176.7190  135.8050 N   0  0  0  0  0  2  0  0  0  0  0  0
  191.3300  171.1120  137.5820 C   0  0  0  0  0  2  0  0  0  0  0  0
  191.6270  170.7800  139.0360 C   0  0  0  0  0  2  0  0  0  0  0  0
  190.6490  169.9210  139.5380 O   0  0  0  0  0  1  0  0  0  0  0  0
  194.6060  174.9250  142.9140 O   0  0  0  0  0  0  0  0  0  0  0  0
  195.4110  173.8690  142.4880 C   0  0  0  0  0  0  0  0  0  0  0  0
  196.6780  174.1010  142.1780 C   0  0  0  0  0  2  0  0  0  0  0  0
  194.8720  172.4800  142.3710 C   0  0  0  0  0  2  0  0  0  0  0  0
  194.3160  171.9990  143.7070 C   0  0  2  0  0  3  0  0  0  0  0  0
  194.5220  169.5090  144.2190 C   0  0  0  0  0  2  0  0  0  0  0  0
  196.4130  172.3410  145.7680 O   0  0  0  0  0  1  0  0  0  0  0  0
  195.6210  171.1900  145.7340 C   0  0  1  0  0  3  0  0  0  0  0  0
  195.1890  170.8830  144.2960 C   0  0  2  0  0  3  0  0  0  0  0  0
  197.6520  169.8510  145.7490 O   0  0  0  0  0  1  0  0  0  0  0  0
  196.3870  170.0000  146.3300 C   0  0  2  0  0  3  0  0  0  0  0  0
  195.4340  168.4810  144.8810 C   0  0  0  0  0  2  0  0  0  0  0  0
  195.6380  168.8010  146.2420 O   0  0  0  0  0  0  0  0  0  0  0  0
  192.3670  171.0660  142.4520 O   0  0  0  0  0  0  0  0  0  0  0  0
  192.0760  171.8850  144.5720 O   0  0  0  0  0  1  0  0  0  0  0  0
  192.8610  171.6370  143.6190 C   0  0  0  0  0  0  0  0  0  0  0  0
  1  2  1  0  0  0  0
  2 12  1  0  0  0  0
  2  3  1  1  0  0  0
  4 19  2  0  0  0  0
  4  8  1  0  0  0  0
  6 24  1  0  0  0  0
  6 18  1  0  0  0  0
  7 11  1  6  0  0  0
  7  6  1  0  0  0  0
  8 11  1  0  0  0  0
  9 14  1  0  0  0  0
  9 13  1  0  0  0  0
 10  1  2  0  0  0  0
 12  5  2  0  0  0  0
 13  1  1  0  0  0  0
 14 19  1  6  0  0  0
 14 17  1  0  0  0  0
 15  5  1  0  0  0  0
 16 12  1  0  0  0  0
 16 18  2  0  0  0  0
 17  7  1  0  0  0  0
 17 16  1  1  0  0  0
 18 15  1  0  0  0  0
 20 23  1  0  0  0  0
 21 23  2  0  0  0  0
 22 21  1  0  0  0  0
 24 20  2  0  0  0  0
 25 24  1  0  0  0  0
 25 22  2  0  0  0  0
 26  4  1  0  0  0  0
 27 28  1  6  0  0  0
 27 26  1  0  0  0  0
 29 27  1  0  0  0  0
 30 29  1  0  0  0  0
 31 30  1  0  0  0  0
 31 42  1  0  0  0  0
 33 31  1  0  0  0  0
 33 32  2  0  0  0  0
 34 35  1  0  0  0  0
 34 32  1  6  0  0  0
 35 36  2  0  0  0  0
 37 35  1  0  0  0  0
 38 34  1  0  0  0  0
 39 40  2  0  0  0  0
 40 41  1  0  0  0  0
 41 38  1  0  0  0  0
 42 43  1  0  0  0  0
 43 44  1  0  0  0  0
 45 10  1  0  0  0  0
 46 45  1  0  0  0  0
 47 46  2  0  0  0  0
 48 46  1  0  0  0  0
 49 48  1  6  0  0  0
 50 53  1  0  0  0  0
 50 56  1  0  0  0  0
 52 51  1  6  0  0  0
 52 55  1  0  0  0  0
 53 49  1  1  0  0  0
 53 52  1  0  0  0  0
 55 54  1  6  0  0  0
 56 57  1  0  0  0  0
 57 55  1  0  0  0  0
 58 60  2  0  0  0  0
 60 49  1  0  0  0  0
 60 59  1  0  0  0  0
M  END
>  <MODEL>
5

>  <REMARK>
 VINA RESULT:      -5.7      1.879      2.408
  Name = 
  19 active torsions:
  status: ('A' for Active; 'I' for Inactive)
    1  A    between atoms: C_1  and  C_12
    2  A    between atoms: N_5  and  C_12
    3  A    between atoms: N_5  and  N_58
    4  A    between atoms: C_8  and  C_32
    5  A    between atoms: C_8  and  C_50
    6  A    between atoms: C_9  and  C_12
    7  A    between atoms: C_10  and  O_57
    8  A    between atoms: N_15  and  C_51
    9  A    between atoms: C_16  and  C_42
   10  A    between atoms: O_18  and  N_27
   11  A    between atoms: O_18  and  C_32
   12  A    between atoms: C_19  and  C_49
   13  A    between atoms: C_19  and  O_57
   14  A    between atoms: N_24  and  C_37
   15  A    between atoms: N_24  and  C_38
   16  A    between atoms: N_24  and  C_42
   17  A    between atoms: C_28  and  C_50
   18  A    between atoms: C_36  and  C_50
   19  A    between atoms: C_37  and  C_49
                            x       y       z     vdW  Elec       q    Type
                         _______ _______ _______ _____ _____    ______ ____

>  <TORSDO>
F 19

$$$$
=
 OpenBabel11042416133D

 60 65  0  0  1  0  0  0  0  0999 V2000
  193.6820  175.4460  145.1850 C   0  0  0  0  0  0  0  0  0  0  0  0
  193.0180  175.8290  146.4680 C   0  0  1  0  0  3  0  0  0  0  0  0
  193.8040  176.9540  147.1230 C   0  0  0  0  0  1  0  0  0  0  0  0
  189.6640  174.3420  141.1830 C   0  0  0  0  0  0  0  0  0  0  0  0
  190.8350  176.8290  147.3960 C   0  0  0  0  0  3  0  0  0  0  0  0
  188.4070  176.3300  144.9410 N   0  0  0  0  0  0  0  0  0  0  0  0
  188.9640  175.8700  143.7230 N   0  0  2  0  0  0  0  0  0  0  0  0
  188.3610  174.9550  141.6320 C   0  0  0  0  0  2  0  0  0  0  0  0
  192.4950  174.9070  143.2720 O   0  0  0  0  0  0  0  0  0  0  0  0
  194.7010  174.6440  145.2270 N   0  0  0  0  0  0  0  0  0  0  0  0
  188.1370  174.8490  143.1250 C   0  0  0  0  0  2  0  0  0  0  0  0
  191.5470  176.1620  146.3850 C   0  0  0  0  0  0  0  0  0  0  0  0
  193.1760  175.9570  143.8780 C   0  0  0  0  0  2  0  0  0  0  0  0
  191.2340  175.3860  142.9050 C   0  0  2  0  0  3  0  0  0  0  0  0
  189.5720  176.9710  147.0300 O   0  0  0  0  0  0  0  0  0  0  0  0
  190.5970  175.8900  145.4030 C   0  0  0  0  0  0  0  0  0  0  0  0
  190.2550  175.2420  144.0840 C   0  0  1  0  0  3  0  0  0  0  0  0
  189.4690  176.4060  145.8590 C   0  0  0  0  0  0  0  0  0  0  0  0
  190.8160  174.5640  141.7580 N   0  0  0  0  0  0  0  0  0  0  0  0
  187.0270  178.2480  144.2190 C   0  0  0  0  0  3  0  0  0  0  0  0
  184.8430  178.6330  145.1910 C   0  0  0  0  0  3  0  0  0  0  0  0
  185.0070  177.5070  146.0000 C   0  0  0  0  0  3  0  0  0  0  0  0
  185.8530  179.0030  144.2990 C   0  0  0  0  0  3  0  0  0  0  0  0
  187.2000  177.1110  145.0250 C   0  0  0  0  0  0  0  0  0  0  0  0
  186.1790  176.7500  145.9180 C   0  0  0  0  0  3  0  0  0  0  0  0
  189.6680  173.5020  140.0660 O   0  0  0  0  0  0  0  0  0  0  0  0
  190.8090  172.7770  139.6200 C   0  0  1  0  0  3  0  0  0  0  0  0
  190.7160  171.4400  140.0160 O   0  0  0  0  0  1  0  0  0  0  0  0
  190.9090  172.8630  138.1020 C   0  0  0  0  0  2  0  0  0  0  0  0
  191.9390  173.9070  137.6810 C   0  0  0  0  0  2  0  0  0  0  0  0
  193.1150  173.2550  137.1120 N   0  0  0  0  0  0  0  0  0  0  0  0
  194.9510  173.3160  138.6840 C   0  0  0  0  0  3  0  0  0  0  0  0
  194.4460  173.6320  137.4930 C   0  0  0  0  0  3  0  0  0  0  0  0
  196.3290  173.7240  139.0830 C   0  0  1  0  0  3  0  0  0  0  0  0
  196.2660  174.9150  139.9960 C   0  0  0  0  0  0  0  0  0  0  0  0
  197.3240  175.7190  140.0910 C   0  0  0  0  0  2  0  0  0  0  0  0
  194.9730  175.3420  140.6090 C   0  0  0  0  0  1  0  0  0  0  0  0
  197.0160  172.6180  139.7370 N   0  0  0  0  0  2  0  0  0  0  0  0
  195.9680  169.3410  138.7240 O   0  0  0  0  0  0  0  0  0  0  0  0
  196.6940  170.3600  138.8600 C   0  0  0  0  0  3  0  0  0  0  0  0
  196.2060  171.4870  139.5790 N   0  0  0  0  0  2  0  0  0  0  0  0
  192.9300  172.4060  135.9470 C   0  0  0  0  0  2  0  0  0  0  0  0
  193.6470  171.0780  136.1330 C   0  0  0  0  0  2  0  0  0  0  0  0
  192.7980  170.1600  136.7510 O   0  0  0  0  0  1  0  0  0  0  0  0
  195.3420  174.2140  144.0850 O   0  0  0  0  0  0  0  0  0  0  0  0
  196.4090  173.3190  144.1530 C   0  0  0  0  0  0  0  0  0  0  0  0
  197.3330  173.3350  143.2020 C   0  0  0  0  0  2  0  0  0  0  0  0
  196.5320  172.3390  145.2750 C   0  0  0  0  0  2  0  0  0  0  0  0
  196.5190  170.9070  144.7480 C   0  0  2  0  0  3  0  0  0  0  0  0
  193.9800  170.7990  144.9700 C   0  0  0  0  0  2  0  0  0  0  0  0
  196.1490  169.0530  142.4710 O   0  0  0  0  0  1  0  0  0  0  0  0
  195.1720  169.1750  143.4630 C   0  0  1  0  0  3  0  0  0  0  0  0
  195.1880  170.5890  144.0550 C   0  0  2  0  0  3  0  0  0  0  0  0
  193.5220  169.5770  141.7210 O   0  0  0  0  0  1  0  0  0  0  0  0
  193.7860  168.8490  142.8880 C   0  0  2  0  0  3  0  0  0  0  0  0
  192.7150  170.4000  144.2160 C   0  0  0  0  0  2  0  0  0  0  0  0
  192.7650  169.0360  143.8520 O   0  0  0  0  0  0  0  0  0  0  0  0
  196.1070  169.7870  146.9440 O   0  0  0  0  0  1  0  0  0  0  0  0
  197.9410  169.2170  145.6960 O   0  0  0  0  0  0  0  0  0  0  0  0
  196.8960  169.9110  145.8080 C   0  0  0  0  0  0  0  0  0  0  0  0
  1 10  2  0  0  0  0
  1  2  1  0  0  0  0
  2  3  1  6  0  0  0
  4  8  1  0  0  0  0
  4 19  2  0  0  0  0
  6 24  1  0  0  0  0
  6 18  1  0  0  0  0
  7 11  1  1  0  0  0
  7 17  1  0  0  0  0
  7  6  1  0  0  0  0
  8 11  1  0  0  0  0
  9 13  1  0  0  0  0
 12  2  1  0  0  0  0
 12  5  2  0  0  0  0
 13  1  1  0  0  0  0
 14 19  1  6  0  0  0
 14  9  1  0  0  0  0
 14 17  1  0  0  0  0
 15  5  1  0  0  0  0
 16 18  2  0  0  0  0
 16 12  1  0  0  0  0
 17 16  1  1  0  0  0
 18 15  1  0  0  0  0
 20 23  2  0  0  0  0
 20 24  1  0  0  0  0
 21 22  2  0  0  0  0
 23 21  1  0  0  0  0
 24 25  2  0  0  0  0
 25 22  1  0  0  0  0
 26  4  1  0  0  0  0
 27 28  1  6  0  0  0
 27 26  1  0  0  0  0
 29 27  1  0  0  0  0
 30 29  1  0  0  0  0
 31 33  1  0  0  0  0
 31 30  1  0  0  0  0
 33 32  2  0  0  0  0
 34 32  1  1  0  0  0
 34 38  1  0  0  0  0
 34 35  1  0  0  0  0
 35 36  2  0  0  0  0
 35 37  1  0  0  0  0
 39 40  2  0  0  0  0
 40 41  1  0  0  0  0
 41 38  1  0  0  0  0
 42 43  1  0  0  0  0
 42 31  1  0  0  0  0
 43 44  1  0  0  0  0
 45 46  1  0  0  0  0
 45 10  1  0  0  0  0
 46 48  1  0  0  0  0
 47 46  2  0  0  0  0
 49 48  1  1  0  0  0
 49 60  1  0  0  0  0
 52 51  1  6  0  0  0
 52 53  1  0  0  0  0
 53 49  1  1  0  0  0
 53 50  1  0  0  0  0
 55 54  1  6  0  0  0
 55 52  1  0  0  0  0
 55 57  1  0  0  0  0
 56 50  1  0  0  0  0
 57 56  1  0  0  0  0
 59 60  2  0  0  0  0
 60 58  1  0  0  0  0
M  END
>  <MODEL>
6

>  <REMARK>
 VINA RESULT:      -5.6      1.429      2.328
  Name = 
  19 active torsions:
  status: ('A' for Active; 'I' for Inactive)
    1  A    between atoms: C_1  and  C_12
    2  A    between atoms: N_5  and  C_12
    3  A    between atoms: N_5  and  N_58
    4  A    between atoms: C_8  and  C_32
    5  A    between atoms: C_8  and  C_50
    6  A    between atoms: C_9  and  C_12
    7  A    between atoms: C_10  and  O_57
    8  A    between atoms: N_15  and  C_51
    9  A    between atoms: C_16  and  C_42
   10  A    between atoms: O_18  and  N_27
   11  A    between atoms: O_18  and  C_32
   12  A    between atoms: C_19  and  C_49
   13  A    between atoms: C_19  and  O_57
   14  A    between atoms: N_24  and  C_37
   15  A    between atoms: N_24  and  C_38
   16  A    between atoms: N_24  and  C_42
   17  A    between atoms: C_28  and  C_50
   18  A    between atoms: C_36  and  C_50
   19  A    between atoms: C_37  and  C_49
                            x       y       z     vdW  Elec       q    Type
                         _______ _______ _______ _____ _____    ______ ____

>  <TORSDO>
F 19

$$$$
=
 OpenBabel11042416133D

 60 65  0  0  1  0  0  0  0  0999 V2000
  193.1480  175.1330  144.9990 C   0  0  0  0  0  0  0  0  0  0  0  0
  192.5280  175.6040  146.2740 C   0  0  1  0  0  3  0  0  0  0  0  0
  193.4080  176.6790  146.8930 C   0  0  0  0  0  1  0  0  0  0  0  0
  189.0220  174.2530  141.0510 C   0  0  0  0  0  0  0  0  0  0  0  0
  190.4410  176.8070  147.1850 C   0  0  0  0  0  3  0  0  0  0  0  0
  187.9620  176.4410  144.7580 N   0  0  0  0  0  0  0  0  0  0  0  0
  188.4700  175.9040  143.5510 N   0  0  2  0  0  0  0  0  0  0  0  0
  187.7780  174.9840  141.4900 C   0  0  0  0  0  2  0  0  0  0  0  0
  191.9060  174.6410  143.1090 O   0  0  0  0  0  0  0  0  0  0  0  0
  194.0980  174.2510  145.0590 N   0  0  0  0  0  0  0  0  0  0  0  0
  187.5570  174.9380  142.9860 C   0  0  0  0  0  2  0  0  0  0  0  0
  191.0880  176.0560  146.1890 C   0  0  0  0  0  0  0  0  0  0  0  0
  192.6760  175.6470  143.6800 C   0  0  0  0  0  2  0  0  0  0  0  0
  190.6860  175.2120  142.7350 C   0  0  2  0  0  3  0  0  0  0  0  0
  189.1920  177.0420  146.8220 O   0  0  0  0  0  0  0  0  0  0  0  0
  190.1120  175.8350  145.2210 C   0  0  0  0  0  0  0  0  0  0  0  0
  189.7080  175.1820  143.9230 C   0  0  1  0  0  3  0  0  0  0  0  0
  189.0340  176.4560  145.6680 C   0  0  0  0  0  0  0  0  0  0  0  0
  190.1930  174.3960  141.6140 N   0  0  0  0  0  0  0  0  0  0  0  0
  186.7110  178.4130  143.9500 C   0  0  0  0  0  3  0  0  0  0  0  0
  184.6020  179.0370  144.9620 C   0  0  0  0  0  3  0  0  0  0  0  0
  184.7070  177.9580  145.8420 C   0  0  0  0  0  3  0  0  0  0  0  0
  185.6040  179.2640  144.0150 C   0  0  0  0  0  3  0  0  0  0  0  0
  186.8240  177.3220  144.8260 C   0  0  0  0  0  0  0  0  0  0  0  0
  185.8120  177.1050  145.7740 C   0  0  0  0  0  3  0  0  0  0  0  0
  188.9480  173.3850  139.9590 O   0  0  0  0  0  0  0  0  0  0  0  0
  188.1980  173.6520  138.7790 C   0  0  1  0  0  3  0  0  0  0  0  0
  187.9800  175.0260  138.6480 O   0  0  0  0  0  1  0  0  0  0  0  0
  188.9530  173.1280  137.5630 C   0  0  0  0  0  2  0  0  0  0  0  0
  190.2540  173.8980  137.3540 C   0  0  0  0  0  2  0  0  0  0  0  0
  190.2740  174.5060  136.0280 N   0  0  0  0  0  0  0  0  0  0  0  0
  192.3840  175.6290  136.3880 C   0  0  0  0  0  3  0  0  0  0  0  0
  191.3830  175.2980  135.5760 C   0  0  0  0  0  3  0  0  0  0  0  0
  193.5270  176.4670  135.9200 C   0  0  1  0  0  3  0  0  0  0  0  0
  194.8020  175.6780  135.9870 C   0  0  0  0  0  0  0  0  0  0  0  0
  195.9280  176.2180  135.5240 C   0  0  0  0  0  2  0  0  0  0  0  0
  194.8750  174.4070  136.7690 C   0  0  0  0  0  1  0  0  0  0  0  0
  193.2890  176.9350  134.5600 N   0  0  0  0  0  2  0  0  0  0  0  0
  193.7180  180.4760  134.9350 O   0  0  0  0  0  0  0  0  0  0  0  0
  194.0030  179.2520  134.8610 C   0  0  0  0  0  3  0  0  0  0  0  0
  192.9710  178.2960  134.6500 N   0  0  0  0  0  2  0  0  0  0  0  0
  189.0360  174.5330  135.2680 C   0  0  0  0  0  2  0  0  0  0  0  0
  188.6670  175.9600  134.8920 C   0  0  0  0  0  2  0  0  0  0  0  0
  187.5180  176.3520  135.5790 O   0  0  0  0  0  1  0  0  0  0  0  0
  194.6930  173.7380  143.9250 O   0  0  0  0  0  0  0  0  0  0  0  0
  194.8780  172.3640  143.7690 C   0  0  0  0  0  0  0  0  0  0  0  0
  194.3530  171.5320  144.6570 C   0  0  0  0  0  2  0  0  0  0  0  0
  195.6610  171.8110  142.6220 C   0  0  0  0  0  2  0  0  0  0  0  0
  195.1650  172.3880  141.3000 C   0  0  2  0  0  3  0  0  0  0  0  0
  194.4980  170.0910  140.4180 C   0  0  0  0  0  2  0  0  0  0  0  0
  192.8320  173.3770  139.7710 O   0  0  0  0  0  1  0  0  0  0  0  0
  193.4320  172.1560  139.4540 C   0  0  1  0  0  3  0  0  0  0  0  0
  194.0460  171.5230  140.7080 C   0  0  2  0  0  3  0  0  0  0  0  0
  191.2460  171.0990  139.6000 O   0  0  0  0  0  1  0  0  0  0  0  0
  192.4050  171.2060  138.8210 C   0  0  2  0  0  3  0  0  0  0  0  0
  193.3410  169.3290  139.7770 C   0  0  0  0  0  2  0  0  0  0  0  0
  192.9650  169.9330  138.5560 O   0  0  0  0  0  0  0  0  0  0  0  0
  196.8490  171.5940  139.6330 O   0  0  0  0  0  0  0  0  0  0  0  0
  196.7600  173.8120  140.2000 O   0  0  0  0  0  1  0  0  0  0  0  0
  196.2910  172.6520  140.3390 C   0  0  0  0  0  0  0  0  0  0  0  0
  1 10  2  0  0  0  0
  1  2  1  0  0  0  0
  2  3  1  6  0  0  0
  4  8  1  0  0  0  0
  4 19  2  0  0  0  0
  6 24  1  0  0  0  0
  6 18  1  0  0  0  0
  7 11  1  1  0  0  0
  7 17  1  0  0  0  0
  7  6  1  0  0  0  0
  8 11  1  0  0  0  0
  9 13  1  0  0  0  0
 12  2  1  0  0  0  0
 12  5  2  0  0  0  0
 13  1  1  0  0  0  0
 14 19  1  6  0  0  0
 14  9  1  0  0  0  0
 14 17  1  0  0  0  0
 15  5  1  0  0  0  0
 16 18  2  0  0  0  0
 16 12  1  0  0  0  0
 17 16  1  1  0  0  0
 18 15  1  0  0  0  0
 20 23  2  0  0  0  0
 20 24  1  0  0  0  0
 21 22  2  0  0  0  0
 23 21  1  0  0  0  0
 24 25  2  0  0  0  0
 25 22  1  0  0  0  0
 26  4  1  0  0  0  0
 27 28  1  6  0  0  0
 27 26  1  0  0  0  0
 29 27  1  0  0  0  0
 30 29  1  0  0  0  0
 31 30  1  0  0  0  0
 33 31  1  0  0  0  0
 33 32  2  0  0  0  0
 34 35  1  0  0  0  0
 34 32  1  6  0  0  0
 35 37  1  0  0  0  0
 36 35  2  0  0  0  0
 38 41  1  0  0  0  0
 38 34  1  0  0  0  0
 40 39  2  0  0  0  0
 41 40  1  0  0  0  0
 42 31  1  0  0  0  0
 43 42  1  0  0  0  0
 43 44  1  0  0  0  0
 45 10  1  0  0  0  0
 46 45  1  0  0  0  0
 46 47  2  0  0  0  0
 48 46  1  0  0  0  0
 49 48  1  1  0  0  0
 50 53  1  0  0  0  0
 52 51  1  1  0  0  0
 52 53  1  0  0  0  0
 53 49  1  6  0  0  0
 55 52  1  0  0  0  0
 55 54  1  1  0  0  0
 56 50  1  0  0  0  0
 57 55  1  0  0  0  0
 57 56  1  0  0  0  0
 58 60  2  0  0  0  0
 59 60  1  0  0  0  0
 60 49  1  0  0  0  0
M  END
>  <MODEL>
7

>  <REMARK>
 VINA RESULT:      -5.5      2.670      4.339
  Name = 
  19 active torsions:
  status: ('A' for Active; 'I' for Inactive)
    1  A    between atoms: C_1  and  C_12
    2  A    between atoms: N_5  and  C_12
    3  A    between atoms: N_5  and  N_58
    4  A    between atoms: C_8  and  C_32
    5  A    between atoms: C_8  and  C_50
    6  A    between atoms: C_9  and  C_12
    7  A    between atoms: C_10  and  O_57
    8  A    between atoms: N_15  and  C_51
    9  A    between atoms: C_16  and  C_42
   10  A    between atoms: O_18  and  N_27
   11  A    between atoms: O_18  and  C_32
   12  A    between atoms: C_19  and  C_49
   13  A    between atoms: C_19  and  O_57
   14  A    between atoms: N_24  and  C_37
   15  A    between atoms: N_24  and  C_38
   16  A    between atoms: N_24  and  C_42
   17  A    between atoms: C_28  and  C_50
   18  A    between atoms: C_36  and  C_50
   19  A    between atoms: C_37  and  C_49
                            x       y       z     vdW  Elec       q    Type
                         _______ _______ _______ _____ _____    ______ ____

>  <TORSDO>
F 19

$$$$
=
 OpenBabel11042416133D

 60 65  0  0  1  0  0  0  0  0999 V2000
  192.0180  175.3690  146.0700 C   0  0  0  0  0  0  0  0  0  0  0  0
  191.0400  175.7120  147.1470 C   0  0  1  0  0  3  0  0  0  0  0  0
  191.6550  176.7520  148.0710 C   0  0  0  0  0  1  0  0  0  0  0  0
  189.2230  174.7260  141.0540 C   0  0  0  0  0  0  0  0  0  0  0  0
  188.7240  176.7760  147.5120 C   0  0  0  0  0  3  0  0  0  0  0  0
  187.0520  176.5570  144.4580 N   0  0  0  0  0  0  0  0  0  0  0  0
  187.9060  176.1390  143.4090 N   0  0  2  0  0  0  0  0  0  0  0  0
  187.8710  175.3830  141.1740 C   0  0  0  0  0  2  0  0  0  0  0  0
  191.3860  175.0100  143.8730 O   0  0  0  0  0  0  0  0  0  0  0  0
  192.9540  174.5110  146.3320 N   0  0  0  0  0  0  0  0  0  0  0  0
  187.2390  175.2020  142.5360 C   0  0  0  0  0  2  0  0  0  0  0  0
  189.6620  176.1310  146.6890 C   0  0  0  0  0  0  0  0  0  0  0  0
  191.9120  175.9830  144.7150 C   0  0  0  0  0  2  0  0  0  0  0  0
  190.2940  175.5790  143.2100 C   0  0  2  0  0  3  0  0  0  0  0  0
  187.6180  177.0090  146.8270 O   0  0  0  0  0  0  0  0  0  0  0  0
  189.0110  175.9700  145.4680 C   0  0  0  0  0  0  0  0  0  0  0  0
  189.0230  175.4200  144.0640 C   0  0  1  0  0  3  0  0  0  0  0  0
  187.8210  176.5210  145.6350 C   0  0  0  0  0  0  0  0  0  0  0  0
  190.1790  174.8500  141.9370 N   0  0  0  0  0  0  0  0  0  0  0  0
  185.4800  177.7510  142.9720 C   0  0  0  0  0  3  0  0  0  0  0  0
  183.6490  179.0400  143.8920 C   0  0  0  0  0  3  0  0  0  0  0  0
  184.0590  178.6980  145.1820 C   0  0  0  0  0  3  0  0  0  0  0  0
  184.3590  178.5650  142.7860 C   0  0  0  0  0  3  0  0  0  0  0  0
  185.8990  177.3980  144.2650 C   0  0  0  0  0  0  0  0  0  0  0  0
  185.1790  177.8820  145.3680 C   0  0  0  0  0  3  0  0  0  0  0  0
  189.5050  173.9540  139.9240 O   0  0  0  0  0  0  0  0  0  0  0  0
  188.5110  173.3080  139.1350 C   0  0  1  0  0  3  0  0  0  0  0  0
  188.1700  174.1070  138.0410 O   0  0  0  0  0  1  0  0  0  0  0  0
  189.0380  171.9620  138.6510 C   0  0  0  0  0  2  0  0  0  0  0  0
  190.5410  171.8460  138.8870 C   0  0  0  0  0  2  0  0  0  0  0  0
  191.2540  171.8560  137.6140 N   0  0  0  0  0  0  0  0  0  0  0  0
  191.5690  174.1640  136.9660 C   0  0  0  0  0  3  0  0  0  0  0  0
  191.1240  172.9420  136.6840 C   0  0  0  0  0  3  0  0  0  0  0  0
  191.4170  175.2940  136.0040 C   0  0  1  0  0  3  0  0  0  0  0  0
  192.7680  175.7740  135.5600 C   0  0  0  0  0  0  0  0  0  0  0  0
  193.6540  174.8930  135.0990 C   0  0  0  0  0  2  0  0  0  0  0  0
  193.0480  177.2330  135.4030 C   0  0  0  0  0  1  0  0  0  0  0  0
  190.6210  174.8790  134.8560 N   0  0  0  0  0  2  0  0  0  0  0  0
  188.2260  177.5480  134.9250 O   0  0  0  0  0  0  0  0  0  0  0  0
  189.3340  176.9560  134.8420 C   0  0  0  0  0  3  0  0  0  0  0  0
  189.3900  175.5390  134.9560 N   0  0  0  0  0  2  0  0  0  0  0  0
  191.8840  170.6240  137.1730 C   0  0  0  0  0  2  0  0  0  0  0  0
  191.8280  169.5700  138.2690 C   0  0  0  0  0  2  0  0  0  0  0  0
  191.2010  168.4200  137.7920 O   0  0  0  0  0  1  0  0  0  0  0  0
  193.8700  174.1130  145.3800 O   0  0  0  0  0  0  0  0  0  0  0  0
  193.9090  172.7950  144.9260 C   0  0  0  0  0  0  0  0  0  0  0  0
  194.2670  171.8300  145.7600 C   0  0  0  0  0  2  0  0  0  0  0  0
  193.5560  172.4490  143.5150 C   0  0  0  0  0  2  0  0  0  0  0  0
  194.8030  172.4170  142.6370 C   0  0  2  0  0  3  0  0  0  0  0  0
  194.0310  174.6260  141.6210 C   0  0  0  0  0  2  0  0  0  0  0  0
  197.5160  173.2810  141.8270 O   0  0  0  0  0  1  0  0  0  0  0  0
  196.3800  173.8190  141.2170 C   0  0  1  0  0  3  0  0  0  0  0  0
  195.2040  173.8320  142.2000 C   0  0  2  0  0  3  0  0  0  0  0  0
  197.2310  176.0450  141.7070 O   0  0  0  0  0  1  0  0  0  0  0  0
  196.6700  175.2380  140.7080 C   0  0  2  0  0  3  0  0  0  0  0  0
  194.5380  175.9890  141.1610 C   0  0  0  0  0  2  0  0  0  0  0  0
  195.5150  175.8400  140.1520 O   0  0  0  0  0  0  0  0  0  0  0  0
  193.6740  171.6560  140.5420 O   0  0  0  0  0  0  0  0  0  0  0  0
  195.4130  170.4420  141.4100 O   0  0  0  0  0  1  0  0  0  0  0  0
  194.6660  171.4530  141.4930 C   0  0  0  0  0  0  0  0  0  0  0  0
  1 10  2  0  0  0  0
  1  2  1  0  0  0  0
  2  3  1  6  0  0  0
  4  8  1  0  0  0  0
  4 19  2  0  0  0  0
  6 18  1  0  0  0  0
  7 11  1  6  0  0  0
  7 17  1  0  0  0  0
  7  6  1  0  0  0  0
  8 11  1  0  0  0  0
  9 13  1  0  0  0  0
 12  2  1  0  0  0  0
 12  5  2  0  0  0  0
 13  1  1  0  0  0  0
 14 19  1  6  0  0  0
 14  9  1  0  0  0  0
 14 17  1  0  0  0  0
 15  5  1  0  0  0  0
 16 18  2  0  0  0  0
 16 12  1  0  0  0  0
 17 16  1  1  0  0  0
 18 15  1  0  0  0  0
 20 24  1  0  0  0  0
 21 22  2  0  0  0  0
 22 25  1  0  0  0  0
 23 20  2  0  0  0  0
 23 21  1  0  0  0  0
 24  6  1  0  0  0  0
 24 25  2  0  0  0  0
 26  4  1  0  0  0  0
 27 28  1  6  0  0  0
 27 26  1  0  0  0  0
 29 30  1  0  0  0  0
 29 27  1  0  0  0  0
 31 30  1  0  0  0  0
 33 32  2  0  0  0  0
 33 31  1  0  0  0  0
 34 32  1  1  0  0  0
 35 34  1  0  0  0  0
 36 35  2  0  0  0  0
 37 35  1  0  0  0  0
 38 41  1  0  0  0  0
 38 34  1  0  0  0  0
 40 39  2  0  0  0  0
 40 41  1  0  0  0  0
 42 31  1  0  0  0  0
 42 43  1  0  0  0  0
 44 43  1  0  0  0  0
 45 10  1  0  0  0  0
 46 45  1  0  0  0  0
 46 47  2  0  0  0  0
 48 46  1  0  0  0  0
 49 48  1  6  0  0  0
 50 53  1  0  0  0  0
 52 51  1  1  0  0  0
 52 53  1  0  0  0  0
 53 49  1  6  0  0  0
 55 52  1  0  0  0  0
 55 54  1  1  0  0  0
 56 50  1  0  0  0  0
 57 55  1  0  0  0  0
 57 56  1  0  0  0  0
 58 60  2  0  0  0  0
 59 60  1  0  0  0  0
 60 49  1  0  0  0  0
M  END
>  <MODEL>
8

>  <REMARK>
 VINA RESULT:      -5.5      2.234      4.260
  Name = 
  19 active torsions:
  status: ('A' for Active; 'I' for Inactive)
    1  A    between atoms: C_1  and  C_12
    2  A    between atoms: N_5  and  C_12
    3  A    between atoms: N_5  and  N_58
    4  A    between atoms: C_8  and  C_32
    5  A    between atoms: C_8  and  C_50
    6  A    between atoms: C_9  and  C_12
    7  A    between atoms: C_10  and  O_57
    8  A    between atoms: N_15  and  C_51
    9  A    between atoms: C_16  and  C_42
   10  A    between atoms: O_18  and  N_27
   11  A    between atoms: O_18  and  C_32
   12  A    between atoms: C_19  and  C_49
   13  A    between atoms: C_19  and  O_57
   14  A    between atoms: N_24  and  C_37
   15  A    between atoms: N_24  and  C_38
   16  A    between atoms: N_24  and  C_42
   17  A    between atoms: C_28  and  C_50
   18  A    between atoms: C_36  and  C_50
   19  A    between atoms: C_37  and  C_49
                            x       y       z     vdW  Elec       q    Type
                         _______ _______ _______ _____ _____    ______ ____

>  <TORSDO>
F 19

$$$$
=
 OpenBabel11042416133D

 60 65  0  0  1  0  0  0  0  0999 V2000
  188.8630  173.8400  139.9010 C   0  0  0  0  0  0  0  0  0  0  0  0
  188.5590  173.2220  138.5740 C   0  0  1  0  0  3  0  0  0  0  0  0
  188.1480  174.3110  137.5950 C   0  0  0  0  0  1  0  0  0  0  0  0
  193.4540  171.2290  142.2420 C   0  0  0  0  0  0  0  0  0  0  0  0
  189.6660  171.9240  136.6460 C   0  0  0  0  0  3  0  0  0  0  0  0
  192.5390  170.4570  137.9730 N   0  0  0  0  0  0  0  0  0  0  0  0
  192.8280  170.9300  139.2760 N   0  0  2  0  0  0  0  0  0  0  0  0
  194.1920  170.4920  141.1520 C   0  0  0  0  0  2  0  0  0  0  0  0
  190.6180  173.1380  141.2360 O   0  0  0  0  0  0  0  0  0  0  0  0
  187.8780  174.1160  140.6980 N   0  0  0  0  0  0  0  0  0  0  0  0
  193.2710  169.8570  140.1340 C   0  0  0  0  0  2  0  0  0  0  0  0
  189.6330  172.3340  137.9890 C   0  0  0  0  0  0  0  0  0  0  0  0
  190.2700  174.1170  140.3120 C   0  0  0  0  0  2  0  0  0  0  0  0
  191.8230  172.5730  140.8090 C   0  0  2  0  0  3  0  0  0  0  0  0
  190.7220  171.1560  136.4420 O   0  0  0  0  0  0  0  0  0  0  0  0
  190.7370  171.7200  138.5750 C   0  0  0  0  0  0  0  0  0  0  0  0
  191.5430  171.4300  139.8160 C   0  0  1  0  0  3  0  0  0  0  0  0
  191.3240  171.0560  137.5940 C   0  0  0  0  0  0  0  0  0  0  0  0
  192.4820  172.0750  142.0270 N   0  0  0  0  0  0  0  0  0  0  0  0
  193.2050  169.1000  136.0190 C   0  0  0  0  0  3  0  0  0  0  0  0
  195.5000  169.0890  135.2490 C   0  0  0  0  0  3  0  0  0  0  0  0
  195.8460  169.9730  136.2730 C   0  0  0  0  0  3  0  0  0  0  0  0
  194.1790  168.6530  135.1210 C   0  0  0  0  0  3  0  0  0  0  0  0
  193.5410  169.9920  137.0500 C   0  0  0  0  0  0  0  0  0  0  0  0
  194.8720  170.4220  137.1690 C   0  0  0  0  0  3  0  0  0  0  0  0
  193.8350  171.0300  143.5720 O   0  0  0  0  0  0  0  0  0  0  0  0
  194.0890  172.0850  144.4930 C   0  0  1  0  0  3  0  0  0  0  0  0
  194.2400  171.5720  145.7840 O   0  0  0  0  0  1  0  0  0  0  0  0
  195.3510  172.8330  144.0800 C   0  0  0  0  0  2  0  0  0  0  0  0
  195.7850  173.8130  145.1650 C   0  0  0  0  0  2  0  0  0  0  0  0
  195.4980  175.1830  144.7510 N   0  0  0  0  0  0  0  0  0  0  0  0
  193.3870  175.3570  145.9160 C   0  0  0  0  0  3  0  0  0  0  0  0
  194.2110  175.7830  144.9610 C   0  0  0  0  0  3  0  0  0  0  0  0
  192.0430  175.9700  146.1210 C   0  0  1  0  0  3  0  0  0  0  0  0
  191.3470  176.1320  144.8010 C   0  0  0  0  0  0  0  0  0  0  0  0
  190.8100  175.0650  144.2120 C   0  0  0  0  0  2  0  0  0  0  0  0
  191.0430  177.4900  144.2580 C   0  0  0  0  0  1  0  0  0  0  0  0
  191.2420  175.1480  147.0200 N   0  0  0  0  0  2  0  0  0  0  0  0
  191.5500  177.7430  149.4760 O   0  0  0  0  0  0  0  0  0  0  0  0
  191.5440  177.1730  148.3550 C   0  0  0  0  0  3  0  0  0  0  0  0
  191.2560  175.7820  148.2690 N   0  0  0  0  0  2  0  0  0  0  0  0
  196.4460  175.8450  143.8720 C   0  0  0  0  0  2  0  0  0  0  0  0
  195.8720  175.9840  142.4700 C   0  0  0  0  0  2  0  0  0  0  0  0
  196.7050  176.7870  141.6910 O   0  0  0  0  0  1  0  0  0  0  0  0
  188.0790  174.6500  141.9530 O   0  0  0  0  0  0  0  0  0  0  0  0
  187.5610  175.8990  142.2950 C   0  0  0  0  0  0  0  0  0  0  0  0
  188.2570  176.9910  142.0140 C   0  0  0  0  0  2  0  0  0  0  0  0
  186.2370  176.0300  142.9760 C   0  0  0  0  0  2  0  0  0  0  0  0
  186.0470  177.4400  143.5260 C   0  0  2  0  0  3  0  0  0  0  0  0
  184.5420  178.2340  145.4250 C   0  0  0  0  0  2  0  0  0  0  0  0
  188.0500  176.9540  145.6510 O   0  0  0  0  0  1  0  0  0  0  0  0
  186.9900  177.8420  145.8530 C   0  0  1  0  0  3  0  0  0  0  0  0
  185.7690  177.4090  145.0340 C   0  0  2  0  0  3  0  0  0  0  0  0
  186.4420  176.6450  147.8990 O   0  0  0  0  0  1  0  0  0  0  0  0
  186.6360  177.9170  147.3460 C   0  0  2  0  0  3  0  0  0  0  0  0
  184.3830  178.1930  146.9420 C   0  0  0  0  0  2  0  0  0  0  0  0
  185.5160  178.7530  147.5750 O   0  0  0  0  0  0  0  0  0  0  0  0
  183.8040  177.6390  142.4430 O   0  0  0  0  0  1  0  0  0  0  0  0
  185.2890  179.3800  142.3250 O   0  0  0  0  0  0  0  0  0  0  0  0
  185.0290  178.2210  142.7450 C   0  0  0  0  0  0  0  0  0  0  0  0
  1 13  1  0  0  0  0
  1 10  2  0  0  0  0
  2  3  1  6  0  0  0
  2  1  1  0  0  0  0
  4 26  1  0  0  0  0
  5 12  2  0  0  0  0
  6  7  1  0  0  0  0
  7 17  1  0  0  0  0
  7 11  1  1  0  0  0
  8  4  1  0  0  0  0
 10 45  1  0  0  0  0
 11  8  1  0  0  0  0
 12  2  1  0  0  0  0
 12 16  1  0  0  0  0
 13  9  1  0  0  0  0
 14  9  1  1  0  0  0
 14 19  1  0  0  0  0
 15  5  1  0  0  0  0
 15 18  1  0  0  0  0
 17 16  1  6  0  0  0
 17 14  1  0  0  0  0
 18  6  1  0  0  0  0
 18 16  2  0  0  0  0
 19  4  2  0  0  0  0
 20 24  1  0  0  0  0
 21 22  2  0  0  0  0
 22 25  1  0  0  0  0
 23 21  1  0  0  0  0
 23 20  2  0  0  0  0
 24 25  2  0  0  0  0
 24  6  1  0  0  0  0
 26 27  1  0  0  0  0
 27 28  1  1  0  0  0
 29 27  1  0  0  0  0
 29 30  1  0  0  0  0
 31 33  1  0  0  0  0
 31 30  1  0  0  0  0
 33 32  2  0  0  0  0
 34 32  1  6  0  0  0
 34 38  1  0  0  0  0
 35 34  1  0  0  0  0
 36 35  2  0  0  0  0
 37 35  1  0  0  0  0
 38 41  1  0  0  0  0
 40 39  2  0  0  0  0
 41 40  1  0  0  0  0
 42 31  1  0  0  0  0
 43 42  1  0  0  0  0
 44 43  1  0  0  0  0
 45 46  1  0  0  0  0
 46 48  1  0  0  0  0
 47 46  2  0  0  0  0
 49 48  1  6  0  0  0
 50 56  1  0  0  0  0
 52 51  1  1  0  0  0
 52 55  1  0  0  0  0
 53 49  1  6  0  0  0
 53 50  1  0  0  0  0
 53 52  1  0  0  0  0
 55 57  1  0  0  0  0
 55 54  1  6  0  0  0
 56 57  1  0  0  0  0
 58 60  1  0  0  0  0
 59 60  2  0  0  0  0
 60 49  1  0  0  0  0
M  END
>  <MODEL>
9

>  <REMARK>
 VINA RESULT:      -5.4      2.544     10.081
  Name = 
  19 active torsions:
  status: ('A' for Active; 'I' for Inactive)
    1  A    between atoms: C_1  and  C_12
    2  A    between atoms: N_5  and  C_12
    3  A    between atoms: N_5  and  N_58
    4  A    between atoms: C_8  and  C_32
    5  A    between atoms: C_8  and  C_50
    6  A    between atoms: C_9  and  C_12
    7  A    between atoms: C_10  and  O_57
    8  A    between atoms: N_15  and  C_51
    9  A    between atoms: C_16  and  C_42
   10  A    between atoms: O_18  and  N_27
   11  A    between atoms: O_18  and  C_32
   12  A    between atoms: C_19  and  C_49
   13  A    between atoms: C_19  and  O_57
   14  A    between atoms: N_24  and  C_37
   15  A    between atoms: N_24  and  C_38
   16  A    between atoms: N_24  and  C_42
   17  A    between atoms: C_28  and  C_50
   18  A    between atoms: C_36  and  C_50
   19  A    between atoms: C_37  and  C_49
                            x       y       z     vdW  Elec       q    Type
                         _______ _______ _______ _____ _____    ______ ____

>  <TORSDO>
F 19

$$$$
