=
 OpenBabel11042416513D

 29 34  0  0  1  0  0  0  0  0999 V2000
  190.2640  176.9830  143.4460 N   0  0  0  0  0  0  0  0  0  0  0  0
  192.3250  176.8930  144.7280 C   0  0  0  0  0  0  0  0  0  0  0  0
  188.0750  176.1850  147.0300 C   0  0  0  0  0  3  0  0  0  0  0  0
  190.0090  174.2170  141.8640 C   0  0  0  0  0  0  0  0  0  0  0  0
  188.0140  176.7810  144.6520 C   0  0  0  0  0  0  0  0  0  0  0  0
  189.4550  176.7250  144.6310 C   0  0  0  0  0  0  0  0  0  0  0  0
  191.4970  174.3290  141.7430 C   0  0  0  0  0  1  0  0  0  0  0  0
  187.1850  177.3300  143.4800 C   0  0  2  0  0  3  0  0  0  0  0  0
  194.4250  176.7020  145.9180 C   0  0  0  0  0  3  0  0  0  0  0  0
  187.2470  173.9810  142.1040 C   0  0  0  0  0  3  0  0  0  0  0  0
  193.7180  177.0110  144.7540 C   0  0  0  0  0  3  0  0  0  0  0  0
  185.9420  176.4630  143.2550 C   0  0  0  0  0  2  0  0  0  0  0  0
  189.8030  176.7430  142.0900 C   0  0  0  0  0  2  0  0  0  0  0  0
  191.6300  177.1740  143.5560 O   0  0  0  0  0  0  0  0  0  0  0  0
  189.2130  175.3700  141.9890 C   0  0  0  0  0  0  0  0  0  0  0  0
  191.6300  176.4720  145.8670 C   0  0  0  0  0  0  0  0  0  0  0  0
  192.3480  176.1640  147.0350 C   0  0  0  0  0  3  0  0  0  0  0  0
  187.8300  175.2500  142.1400 C   0  0  0  0  0  0  0  0  0  0  0  0
  188.0270  172.8760  141.9720 N   0  0  0  0  0  0  0  0  0  0  0  0
  193.7400  176.2760  147.0590 C   0  0  0  0  0  3  0  0  0  0  0  0
  190.1670  171.6990  141.7240 C   0  0  0  0  0  1  0  0  0  0  0  0
  190.1520  176.4170  145.8280 C   0  0  0  0  0  0  0  0  0  0  0  0
  187.3540  176.5430  145.8960 C   0  0  0  0  0  0  0  0  0  0  0  0
  189.4550  176.1210  146.9960 C   0  0  0  0  0  3  0  0  0  0  0  0
  186.9960  176.4950  142.1900 C   0  0  2  0  0  3  0  0  0  0  0  0
  189.3800  172.9580  141.8570 C   0  0  0  0  0  0  0  0  0  0  0  0
  185.8850  176.7560  146.1040 C   0  0  0  0  0  2  0  0  0  0  0  0
  185.6520  177.9810  146.8760 C   0  0  0  0  0  0  0  0  0  0  0  0
  185.4670  178.9480  147.4840 N   0  0  0  0  0  0  0  0  0  0  0  0
  1 14  1  0  0  0  0
  1  6  1  0  0  0  0
  2 11  2  0  0  0  0
  2 16  1  0  0  0  0
  4 15  1  0  0  0  0
  5 23  1  0  0  0  0
  6  5  2  0  0  0  0
  6 22  1  0  0  0  0
  7  4  1  0  0  0  0
  8 12  1  1  0  0  0
  8  5  1  0  0  0  0
  9 20  2  0  0  0  0
 10 18  1  0  0  0  0
 11  9  1  0  0  0  0
 13  1  1  0  0  0  0
 14  2  1  0  0  0  0
 15 13  1  0  0  0  0
 15 18  2  0  0  0  0
 16 17  2  0  0  0  0
 17 20  1  0  0  0  0
 18 25  1  0  0  0  0
 19 10  2  0  0  0  0
 21 26  1  0  0  0  0
 22 16  1  0  0  0  0
 22 24  2  0  0  0  0
 23 27  1  0  0  0  0
 23  3  2  0  0  0  0
 24  3  1  0  0  0  0
 25 12  1  1  0  0  0
 25  8  1  0  0  0  0
 26  4  2  0  0  0  0
 26 19  1  0  0  0  0
 27 28  1  0  0  0  0
 28 29  3  0  0  0  0
M  END
>  <MODEL>
1

>  <REMARK>
 VINA RESULT:      -8.2      0.000      0.000
  Name = 
  2 active torsions:
  status: ('A' for Active; 'I' for Inactive)
    1  A    between atoms: C_6  and  C_11
    2  A    between atoms: C_11  and  C_26
                            x       y       z     vdW  Elec       q    Type
                         _______ _______ _______ _____ _____    ______ ____

>  <TORSDO>
F 2

$$$$
=
 OpenBabel11042416513D

 29 34  0  0  1  0  0  0  0  0999 V2000
  190.6500  173.5420  144.2070 N   0  0  0  0  0  0  0  0  0  0  0  0
  189.8240  173.1010  141.9660 C   0  0  0  0  0  0  0  0  0  0  0  0
  188.2490  177.0760  144.3270 C   0  0  0  0  0  3  0  0  0  0  0  0
  193.6020  174.7340  143.9130 C   0  0  0  0  0  0  0  0  0  0  0  0
  189.7180  175.5250  145.5320 C   0  0  0  0  0  0  0  0  0  0  0  0
  189.8480  174.7540  144.3200 C   0  0  0  0  0  0  0  0  0  0  0  0
  193.7070  173.7750  142.7680 C   0  0  0  0  0  1  0  0  0  0  0  0
  190.2380  175.0330  146.8920 C   0  0  2  0  0  3  0  0  0  0  0  0
  189.1360  172.6590  139.6870 C   0  0  0  0  0  3  0  0  0  0  0  0
  193.4130  176.5420  146.0210 C   0  0  0  0  0  3  0  0  0  0  0  0
  189.8060  172.2640  140.8460 C   0  0  0  0  0  3  0  0  0  0  0  0
  190.8890  176.1860  147.6620 C   0  0  0  0  0  2  0  0  0  0  0  0
  191.8290  173.2800  145.0150 C   0  0  0  0  0  2  0  0  0  0  0  0
  190.5200  172.7130  143.1070 O   0  0  0  0  0  0  0  0  0  0  0  0
  192.7370  174.4700  144.9910 C   0  0  0  0  0  0  0  0  0  0  0  0
  189.1670  174.3350  141.9370 C   0  0  0  0  0  0  0  0  0  0  0  0
  188.4920  174.7260  140.7670 C   0  0  0  0  0  3  0  0  0  0  0  0
  192.6200  175.3910  146.0340 C   0  0  0  0  0  0  0  0  0  0  0  0
  194.2510  176.7790  144.9790 N   0  0  0  0  0  0  0  0  0  0  0  0
  188.4800  173.8920  139.6460 C   0  0  0  0  0  3  0  0  0  0  0  0
  195.3000  176.2550  142.8220 C   0  0  0  0  0  1  0  0  0  0  0  0
  189.1510  175.1710  143.1570 C   0  0  0  0  0  0  0  0  0  0  0  0
  188.8650  176.6700  145.5060 C   0  0  0  0  0  0  0  0  0  0  0  0
  188.3910  176.3380  143.1680 C   0  0  0  0  0  3  0  0  0  0  0  0
  191.7530  175.0480  147.2080 C   0  0  2  0  0  3  0  0  0  0  0  0
  194.3630  175.9180  143.9320 C   0  0  0  0  0  0  0  0  0  0  0  0
  188.4890  177.4460  146.7320 C   0  0  0  0  0  2  0  0  0  0  0  0
  187.0810  177.2150  147.0710 C   0  0  0  0  0  0  0  0  0  0  0  0
  185.9700  177.0320  147.3380 N   0  0  0  0  0  0  0  0  0  0  0  0
  1  6  1  0  0  0  0
  1 13  1  0  0  0  0
  2 14  1  0  0  0  0
  3 23  1  0  0  0  0
  4 26  2  0  0  0  0
  4 15  1  0  0  0  0
  5  8  1  0  0  0  0
  6  5  1  0  0  0  0
  7  4  1  0  0  0  0
  8 25  1  0  0  0  0
  8 12  1  1  0  0  0
  9 11  1  0  0  0  0
 10 18  1  0  0  0  0
 11  2  2  0  0  0  0
 14  1  1  0  0  0  0
 15 13  1  0  0  0  0
 15 18  2  0  0  0  0
 16  2  1  0  0  0  0
 16 22  1  0  0  0  0
 17 16  2  0  0  0  0
 18 25  1  0  0  0  0
 19 10  2  0  0  0  0
 20  9  2  0  0  0  0
 20 17  1  0  0  0  0
 21 26  1  0  0  0  0
 22 24  1  0  0  0  0
 22  6  2  0  0  0  0
 23  5  2  0  0  0  0
 23 27  1  0  0  0  0
 24  3  2  0  0  0  0
 25 12  1  1  0  0  0
 26 19  1  0  0  0  0
 27 28  1  0  0  0  0
 28 29  3  0  0  0  0
M  END
>  <MODEL>
2

>  <REMARK>
 VINA RESULT:      -7.6      2.142      5.467
  Name = 
  2 active torsions:
  status: ('A' for Active; 'I' for Inactive)
    1  A    between atoms: C_6  and  C_11
    2  A    between atoms: C_11  and  C_26
                            x       y       z     vdW  Elec       q    Type
                         _______ _______ _______ _____ _____    ______ ____

>  <TORSDO>
F 2

$$$$
=
 OpenBabel11042416513D

 29 34  0  0  1  0  0  0  0  0999 V2000
  188.9220  174.0790  143.1910 N   0  0  0  0  0  0  0  0  0  0  0  0
  188.7990  173.2800  140.9010 C   0  0  0  0  0  0  0  0  0  0  0  0
  187.1160  177.7460  141.9410 C   0  0  0  0  0  3  0  0  0  0  0  0
  191.9480  174.9590  143.7270 C   0  0  0  0  0  0  0  0  0  0  0  0
  187.8990  176.3470  143.7970 C   0  0  0  0  0  0  0  0  0  0  0  0
  188.3000  175.3490  142.8360 C   0  0  0  0  0  0  0  0  0  0  0  0
  192.2790  173.7920  142.8500 C   0  0  0  0  0  1  0  0  0  0  0  0
  187.8870  176.0870  145.3110 C   0  0  2  0  0  3  0  0  0  0  0  0
  188.8160  172.4620  138.6220 C   0  0  0  0  0  3  0  0  0  0  0  0
  191.3490  177.1480  145.3380 C   0  0  0  0  0  3  0  0  0  0  0  0
  189.0220  172.2460  139.9860 C   0  0  0  0  0  3  0  0  0  0  0  0
  188.4110  177.3140  146.0660 C   0  0  0  0  0  2  0  0  0  0  0  0
  189.7350  173.8870  144.3790 C   0  0  0  0  0  2  0  0  0  0  0  0
  189.0360  173.0660  142.2550 O   0  0  0  0  0  0  0  0  0  0  0  0
  190.7580  174.9760  144.4770 C   0  0  0  0  0  0  0  0  0  0  0  0
  188.3610  174.5330  140.4590 C   0  0  0  0  0  0  0  0  0  0  0  0
  188.1530  174.7420  139.0850 C   0  0  0  0  0  3  0  0  0  0  0  0
  190.4430  176.0870  145.2620 C   0  0  0  0  0  0  0  0  0  0  0  0
  192.5000  177.1150  144.6160 N   0  0  0  0  0  0  0  0  0  0  0  0
  188.3830  173.7110  138.1700 C   0  0  0  0  0  3  0  0  0  0  0  0
  194.0970  176.1040  143.0500 C   0  0  0  0  0  1  0  0  0  0  0  0
  188.0730  175.5870  141.4560 C   0  0  0  0  0  0  0  0  0  0  0  0
  187.2640  177.5290  143.3060 C   0  0  0  0  0  0  0  0  0  0  0  0
  187.5160  176.7900  141.0280 C   0  0  0  0  0  3  0  0  0  0  0  0
  189.2100  176.0460  146.1140 C   0  0  2  0  0  3  0  0  0  0  0  0
  192.8190  176.0610  143.8160 C   0  0  0  0  0  0  0  0  0  0  0  0
  186.6280  178.5530  144.1970 C   0  0  0  0  0  2  0  0  0  0  0  0
  185.1910  178.6480  143.9210 C   0  0  0  0  0  0  0  0  0  0  0  0
  184.0570  178.7230  143.7030 N   0  0  0  0  0  0  0  0  0  0  0  0
  1 13  1  0  0  0  0
  2 14  1  0  0  0  0
  3 23  1  0  0  0  0
  4 26  2  0  0  0  0
  4 15  1  0  0  0  0
  5  8  1  0  0  0  0
  6  1  1  0  0  0  0
  6  5  1  0  0  0  0
  7  4  1  0  0  0  0
  8 12  1  1  0  0  0
  8 25  1  0  0  0  0
  9 11  1  0  0  0  0
 11  2  2  0  0  0  0
 13 15  1  0  0  0  0
 14  1  1  0  0  0  0
 15 18  2  0  0  0  0
 16  2  1  0  0  0  0
 16 22  1  0  0  0  0
 17 16  2  0  0  0  0
 18 10  1  0  0  0  0
 18 25  1  0  0  0  0
 19 10  2  0  0  0  0
 20  9  2  0  0  0  0
 20 17  1  0  0  0  0
 21 26  1  0  0  0  0
 22  6  2  0  0  0  0
 23  5  2  0  0  0  0
 23 27  1  0  0  0  0
 24 22  1  0  0  0  0
 24  3  2  0  0  0  0
 25 12  1  1  0  0  0
 26 19  1  0  0  0  0
 28 27  1  0  0  0  0
 29 28  3  0  0  0  0
M  END
>  <MODEL>
3

>  <REMARK>
 VINA RESULT:      -7.3      2.184      5.453
  Name = 
  2 active torsions:
  status: ('A' for Active; 'I' for Inactive)
    1  A    between atoms: C_6  and  C_11
    2  A    between atoms: C_11  and  C_26
                            x       y       z     vdW  Elec       q    Type
                         _______ _______ _______ _____ _____    ______ ____

>  <TORSDO>
F 2

$$$$
=
 OpenBabel11042416513D

 29 34  0  0  1  0  0  0  0  0999 V2000
  191.7110  173.3740  144.4000 N   0  0  0  0  0  0  0  0  0  0  0  0
  191.3360  172.6040  142.1280 C   0  0  0  0  0  0  0  0  0  0  0  0
  188.9840  176.5890  143.6940 C   0  0  0  0  0  3  0  0  0  0  0  0
  194.5340  174.8730  144.4420 C   0  0  0  0  0  0  0  0  0  0  0  0
  190.3680  175.3590  145.3020 C   0  0  0  0  0  0  0  0  0  0  0  0
  190.7840  174.4860  144.2320 C   0  0  0  0  0  0  0  0  0  0  0  0
  194.9320  173.8180  143.4560 C   0  0  0  0  0  1  0  0  0  0  0  0
  190.6900  175.0790  146.7780 C   0  0  2  0  0  3  0  0  0  0  0  0
  191.1020  171.8460  139.8400 C   0  0  0  0  0  3  0  0  0  0  0  0
  193.8010  176.8560  146.2510 C   0  0  0  0  0  3  0  0  0  0  0  0
  191.5960  171.6580  141.1320 C   0  0  0  0  0  3  0  0  0  0  0  0
  191.0780  176.3760  147.4950 C   0  0  0  0  0  2  0  0  0  0  0  0
  192.7510  173.3410  145.4140 C   0  0  0  0  0  2  0  0  0  0  0  0
  191.8570  172.4240  143.4050 O   0  0  0  0  0  0  0  0  0  0  0  0
  193.5250  174.6220  145.3900 C   0  0  0  0  0  0  0  0  0  0  0  0
  190.5730  173.7410  141.8400 C   0  0  0  0  0  0  0  0  0  0  0  0
  190.0770  173.9240  140.5380 C   0  0  0  0  0  3  0  0  0  0  0  0
  193.1370  175.6270  146.2780 C   0  0  0  0  0  0  0  0  0  0  0  0
  194.7800  177.0810  145.3360 N   0  0  0  0  0  0  0  0  0  0  0  0
  190.3430  172.9810  139.5420 C   0  0  0  0  0  3  0  0  0  0  0  0
  196.2360  176.4620  143.4590 C   0  0  0  0  0  1  0  0  0  0  0  0
  190.2620  174.6920  142.9290 C   0  0  0  0  0  0  0  0  0  0  0  0
  189.4230  176.3860  144.9970 C   0  0  0  0  0  0  0  0  0  0  0  0
  189.3980  175.7550  142.6730 C   0  0  0  0  0  3  0  0  0  0  0  0
  192.1180  175.3080  147.3310 C   0  0  2  0  0  3  0  0  0  0  0  0
  195.1580  176.1340  144.4360 C   0  0  0  0  0  0  0  0  0  0  0  0
  188.7640  177.2350  146.0420 C   0  0  0  0  0  2  0  0  0  0  0  0
  187.4000  177.5850  145.6290 C   0  0  0  0  0  0  0  0  0  0  0  0
  186.3250  177.8610  145.3040 N   0  0  0  0  0  0  0  0  0  0  0  0
  1 13  1  0  0  0  0
  2 14  1  0  0  0  0
  3 23  1  0  0  0  0
  4 15  1  0  0  0  0
  5  8  1  0  0  0  0
  6  1  1  0  0  0  0
  6  5  1  0  0  0  0
  7  4  1  0  0  0  0
  8 25  1  0  0  0  0
  8 12  1  1  0  0  0
  9 11  1  0  0  0  0
 10 18  1  0  0  0  0
 11  2  2  0  0  0  0
 14  1  1  0  0  0  0
 15 13  1  0  0  0  0
 15 18  2  0  0  0  0
 16  2  1  0  0  0  0
 16 22  1  0  0  0  0
 17 16  2  0  0  0  0
 18 25  1  0  0  0  0
 19 10  2  0  0  0  0
 20  9  2  0  0  0  0
 20 17  1  0  0  0  0
 21 26  1  0  0  0  0
 22  6  2  0  0  0  0
 23  5  2  0  0  0  0
 23 27  1  0  0  0  0
 24 22  1  0  0  0  0
 24  3  2  0  0  0  0
 25 12  1  1  0  0  0
 26  4  2  0  0  0  0
 26 19  1  0  0  0  0
 28 27  1  0  0  0  0
 29 28  3  0  0  0  0
M  END
>  <MODEL>
4

>  <REMARK>
 VINA RESULT:      -6.9      2.315      5.734
  Name = 
  2 active torsions:
  status: ('A' for Active; 'I' for Inactive)
    1  A    between atoms: C_6  and  C_11
    2  A    between atoms: C_11  and  C_26
                            x       y       z     vdW  Elec       q    Type
                         _______ _______ _______ _____ _____    ______ ____

>  <TORSDO>
F 2

$$$$
=
 OpenBabel11042416513D

 29 34  0  0  1  0  0  0  0  0999 V2000
  192.1620  175.9290  142.8990 N   0  0  0  0  0  0  0  0  0  0  0  0
  194.4810  176.2820  142.2720 C   0  0  0  0  0  0  0  0  0  0  0  0
  193.3780  175.6520  146.9880 C   0  0  0  0  0  3  0  0  0  0  0  0
  191.4400  172.8950  142.1970 C   0  0  0  0  0  0  0  0  0  0  0  0
  191.5330  175.7610  145.3760 C   0  0  0  0  0  0  0  0  0  0  0  0
  192.5050  175.8350  144.3130 C   0  0  0  0  0  0  0  0  0  0  0  0
  192.3390  173.1170  141.0210 C   0  0  0  0  0  1  0  0  0  0  0  0
  190.0300  175.9910  145.1470 C   0  0  2  0  0  3  0  0  0  0  0  0
  196.7830  176.5230  141.5590 C   0  0  0  0  0  3  0  0  0  0  0  0
  189.7890  172.4570  144.3940 C   0  0  0  0  0  3  0  0  0  0  0  0
  195.4180  176.5310  141.2640 C   0  0  0  0  0  3  0  0  0  0  0  0
  189.2080  174.9860  145.9620 C   0  0  0  0  0  2  0  0  0  0  0  0
  190.9400  175.3850  142.3310 C   0  0  0  0  0  2  0  0  0  0  0  0
  193.1250  176.2620  141.9630 O   0  0  0  0  0  0  0  0  0  0  0  0
  190.7530  173.9720  142.7860 C   0  0  0  0  0  0  0  0  0  0  0  0
  194.9020  176.0310  143.5820 C   0  0  0  0  0  0  0  0  0  0  0  0
  196.2770  176.0260  143.8720 C   0  0  0  0  0  3  0  0  0  0  0  0
  189.9480  173.7570  143.9060 C   0  0  0  0  0  0  0  0  0  0  0  0
  190.4510  171.4240  143.8100 N   0  0  0  0  0  0  0  0  0  0  0  0
  197.2130  176.2680  142.8640 C   0  0  0  0  0  3  0  0  0  0  0  0
  191.9670  170.4230  142.1580 C   0  0  0  0  0  1  0  0  0  0  0  0
  193.8860  175.8330  144.6380 C   0  0  0  0  0  0  0  0  0  0  0  0
  192.0150  175.7130  146.7200 C   0  0  0  0  0  0  0  0  0  0  0  0
  194.3000  175.7100  145.9620 C   0  0  0  0  0  3  0  0  0  0  0  0
  189.1620  174.9050  144.4650 C   0  0  2  0  0  3  0  0  0  0  0  0
  191.2690  171.6070  142.7380 C   0  0  0  0  0  0  0  0  0  0  0  0
  191.1230  175.8260  147.9190 C   0  0  0  0  0  2  0  0  0  0  0  0
  191.4240  177.0540  148.6640 C   0  0  0  0  0  0  0  0  0  0  0  0
  191.6600  178.0220  149.2510 N   0  0  0  0  0  0  0  0  0  0  0  0
  1  6  1  0  0  0  0
  2 16  1  0  0  0  0
  4 26  2  0  0  0  0
  4 15  1  0  0  0  0
  5 23  2  0  0  0  0
  6 22  2  0  0  0  0
  6  5  1  0  0  0  0
  7  4  1  0  0  0  0
  8  5  1  0  0  0  0
  8 12  1  1  0  0  0
  9 20  2  0  0  0  0
 11  9  1  0  0  0  0
 11  2  2  0  0  0  0
 13 15  1  0  0  0  0
 13  1  1  0  0  0  0
 14  2  1  0  0  0  0
 14  1  1  0  0  0  0
 15 18  2  0  0  0  0
 16 17  2  0  0  0  0
 16 22  1  0  0  0  0
 18 10  1  0  0  0  0
 18 25  1  0  0  0  0
 19 10  2  0  0  0  0
 20 17  1  0  0  0  0
 21 26  1  0  0  0  0
 22 24  1  0  0  0  0
 23  3  1  0  0  0  0
 23 27  1  0  0  0  0
 24  3  2  0  0  0  0
 25  8  1  0  0  0  0
 25 12  1  1  0  0  0
 26 19  1  0  0  0  0
 27 28  1  0  0  0  0
 28 29  3  0  0  0  0
M  END
>  <MODEL>
5

>  <REMARK>
 VINA RESULT:      -6.7      2.597      4.011
  Name = 
  2 active torsions:
  status: ('A' for Active; 'I' for Inactive)
    1  A    between atoms: C_6  and  C_11
    2  A    between atoms: C_11  and  C_26
                            x       y       z     vdW  Elec       q    Type
                         _______ _______ _______ _____ _____    ______ ____

>  <TORSDO>
F 2

$$$$
=
 OpenBabel11042416513D

 29 34  0  0  1  0  0  0  0  0999 V2000
  190.4350  176.9170  142.7970 N   0  0  0  0  0  0  0  0  0  0  0  0
  188.1230  177.6390  142.9640 C   0  0  0  0  0  0  0  0  0  0  0  0
  189.0750  173.0510  141.5820 C   0  0  0  0  0  3  0  0  0  0  0  0
  191.4750  176.3690  145.7700 C   0  0  0  0  0  0  0  0  0  0  0  0
  190.9690  174.5730  141.9170 C   0  0  0  0  0  0  0  0  0  0  0  0
  190.0410  175.5810  142.3670 C   0  0  0  0  0  0  0  0  0  0  0  0
  190.6120  177.5410  146.1200 C   0  0  0  0  0  1  0  0  0  0  0  0
  192.4510  174.8690  141.6380 C   0  0  2  0  0  3  0  0  0  0  0  0
  185.8420  178.3940  143.2650 C   0  0  0  0  0  3  0  0  0  0  0  0
  193.0630  174.1730  145.1380 C   0  0  0  0  0  3  0  0  0  0  0  0
  187.2110  178.6660  143.2280 C   0  0  0  0  0  3  0  0  0  0  0  0
  193.3290  173.7240  142.1520 C   0  0  0  0  0  2  0  0  0  0  0  0
  191.7270  177.2240  143.3870 C   0  0  0  0  0  2  0  0  0  0  0  0
  189.4870  177.9110  142.9590 O   0  0  0  0  0  0  0  0  0  0  0  0
  192.0300  176.2490  144.4820 C   0  0  0  0  0  0  0  0  0  0  0  0
  187.6710  176.3360  142.7270 C   0  0  0  0  0  0  0  0  0  0  0  0
  186.2910  176.0710  142.7630 C   0  0  0  0  0  3  0  0  0  0  0  0
  192.8020  175.1320  144.1570 C   0  0  0  0  0  0  0  0  0  0  0  0
  192.5300  174.3060  146.3800 N   0  0  0  0  0  0  0  0  0  0  0  0
  185.3810  177.0960  143.0340 C   0  0  0  0  0  3  0  0  0  0  0  0
  191.1910  175.4360  148.1010 C   0  0  0  0  0  1  0  0  0  0  0  0
  188.6540  175.2850  142.3880 C   0  0  0  0  0  0  0  0  0  0  0  0
  190.4360  173.3190  141.4870 C   0  0  0  0  0  0  0  0  0  0  0  0
  188.1960  174.0200  142.0270 C   0  0  0  0  0  3  0  0  0  0  0  0
  193.4480  175.0680  142.8050 C   0  0  2  0  0  3  0  0  0  0  0  0
  191.7460  175.3660  146.7190 C   0  0  0  0  0  0  0  0  0  0  0  0
  191.2590  172.2580  140.8210 C   0  0  0  0  0  2  0  0  0  0  0  0
  191.0110  170.9540  141.4440 C   0  0  0  0  0  0  0  0  0  0  0  0
  190.8160  169.9240  141.9360 N   0  0  0  0  0  0  0  0  0  0  0  0
  1 14  1  0  0  0  0
  1 13  1  0  0  0  0
  2 11  1  0  0  0  0
  3 24  1  0  0  0  0
  4  7  1  0  0  0  0
  4 26  1  0  0  0  0
  5  6  2  0  0  0  0
  6 22  1  0  0  0  0
  6  1  1  0  0  0  0
  8  5  1  0  0  0  0
  8 12  1  6  0  0  0
  8 25  1  0  0  0  0
 10 19  1  0  0  0  0
 11  9  2  0  0  0  0
 13 15  1  0  0  0  0
 14  2  1  0  0  0  0
 15  4  2  0  0  0  0
 16 17  1  0  0  0  0
 16  2  2  0  0  0  0
 17 20  2  0  0  0  0
 18 15  1  0  0  0  0
 18 10  2  0  0  0  0
 19 26  2  0  0  0  0
 20  9  1  0  0  0  0
 22 16  1  0  0  0  0
 23  3  2  0  0  0  0
 23  5  1  0  0  0  0
 24 22  2  0  0  0  0
 25 12  1  1  0  0  0
 25 18  1  0  0  0  0
 26 21  1  0  0  0  0
 27 28  1  0  0  0  0
 27 23  1  0  0  0  0
 28 29  3  0  0  0  0
M  END
>  <MODEL>
6

>  <REMARK>
 VINA RESULT:      -6.7      2.321      6.503
  Name = 
  2 active torsions:
  status: ('A' for Active; 'I' for Inactive)
    1  A    between atoms: C_6  and  C_11
    2  A    between atoms: C_11  and  C_26
                            x       y       z     vdW  Elec       q    Type
                         _______ _______ _______ _____ _____    ______ ____

>  <TORSDO>
F 2

$$$$
=
 OpenBabel11042416513D

 29 34  0  0  1  0  0  0  0  0999 V2000
  193.3470  172.4150  145.0570 N   0  0  0  0  0  0  0  0  0  0  0  0
  192.5350  170.6270  143.6280 C   0  0  0  0  0  0  0  0  0  0  0  0
  189.9300  174.7450  143.9720 C   0  0  0  0  0  3  0  0  0  0  0  0
  195.7040  173.8920  143.4820 C   0  0  0  0  0  0  0  0  0  0  0  0
  191.9210  174.5170  145.3860 C   0  0  0  0  0  0  0  0  0  0  0  0
  192.2010  173.2590  144.7390 C   0  0  0  0  0  0  0  0  0  0  0  0
  196.0280  172.5150  142.9910 C   0  0  0  0  0  1  0  0  0  0  0  0
  192.6820  175.0000  146.6310 C   0  0  2  0  0  3  0  0  0  0  0  0
  191.8500  168.8480  142.1350 C   0  0  0  0  0  3  0  0  0  0  0  0
  195.0990  176.4610  144.3640 C   0  0  0  0  0  3  0  0  0  0  0  0
  192.7050  169.3320  143.1280 C   0  0  0  0  0  3  0  0  0  0  0  0
  192.9750  176.5010  146.5270 C   0  0  0  0  0  2  0  0  0  0  0  0
  194.6070  172.9290  145.5650 C   0  0  0  0  0  2  0  0  0  0  0  0
  193.4100  171.1120  144.5950 O   0  0  0  0  0  0  0  0  0  0  0  0
  195.0650  174.0780  144.7220 C   0  0  0  0  0  0  0  0  0  0  0  0
  191.5070  171.4430  143.1460 C   0  0  0  0  0  0  0  0  0  0  0  0
  190.6490  170.9480  142.1480 C   0  0  0  0  0  3  0  0  0  0  0  0
  194.7350  175.3650  145.1500 C   0  0  0  0  0  0  0  0  0  0  0  0
  195.7250  176.2680  143.1740 N   0  0  0  0  0  0  0  0  0  0  0  0
  190.8230  169.6570  141.6430 C   0  0  0  0  0  3  0  0  0  0  0  0
  196.7120  174.8960  141.3930 C   0  0  0  0  0  1  0  0  0  0  0  0
  191.3140  172.7830  143.7390 C   0  0  0  0  0  0  0  0  0  0  0  0
  190.7390  175.2190  145.0000 C   0  0  0  0  0  0  0  0  0  0  0  0
  190.2150  173.5450  143.3490 C   0  0  0  0  0  3  0  0  0  0  0  0
  194.1280  175.5420  146.5100 C   0  0  2  0  0  3  0  0  0  0  0  0
  196.0310  175.0250  142.7130 C   0  0  0  0  0  0  0  0  0  0  0  0
  190.2280  176.4310  145.7170 C   0  0  0  0  0  2  0  0  0  0  0  0
  189.0030  176.1080  146.4560 C   0  0  0  0  0  0  0  0  0  0  0  0
  188.0370  175.8540  147.0400 N   0  0  0  0  0  0  0  0  0  0  0  0
  1 13  1  0  0  0  0
  2 14  1  0  0  0  0
  3 23  1  0  0  0  0
  4 15  1  0  0  0  0
  5  8  1  0  0  0  0
  6  1  1  0  0  0  0
  6  5  1  0  0  0  0
  7  4  1  0  0  0  0
  8 12  1  6  0  0  0
  9 11  1  0  0  0  0
 10 18  1  0  0  0  0
 11  2  2  0  0  0  0
 14  1  1  0  0  0  0
 15 18  2  0  0  0  0
 15 13  1  0  0  0  0
 16  2  1  0  0  0  0
 16 22  1  0  0  0  0
 17 16  2  0  0  0  0
 18 25  1  0  0  0  0
 19 10  2  0  0  0  0
 20  9  2  0  0  0  0
 20 17  1  0  0  0  0
 21 26  1  0  0  0  0
 22  6  2  0  0  0  0
 23  5  2  0  0  0  0
 23 27  1  0  0  0  0
 24 22  1  0  0  0  0
 24  3  2  0  0  0  0
 25 12  1  6  0  0  0
 25  8  1  0  0  0  0
 26 19  1  0  0  0  0
 26  4  2  0  0  0  0
 27 28  1  0  0  0  0
 28 29  3  0  0  0  0
M  END
>  <MODEL>
7

>  <REMARK>
 VINA RESULT:      -6.5      3.254      6.490
  Name = 
  2 active torsions:
  status: ('A' for Active; 'I' for Inactive)
    1  A    between atoms: C_6  and  C_11
    2  A    between atoms: C_11  and  C_26
                            x       y       z     vdW  Elec       q    Type
                         _______ _______ _______ _____ _____    ______ ____

>  <TORSDO>
F 2

$$$$
=
 OpenBabel11042416513D

 29 34  0  0  1  0  0  0  0  0999 V2000
  193.3330  175.4360  142.9160 N   0  0  0  0  0  0  0  0  0  0  0  0
  195.4380  174.6730  143.8550 C   0  0  0  0  0  0  0  0  0  0  0  0
  191.8450  176.0100  146.8820 C   0  0  0  0  0  3  0  0  0  0  0  0
  191.7270  172.8440  141.9550 C   0  0  0  0  0  0  0  0  0  0  0  0
  191.4920  176.2990  144.4720 C   0  0  0  0  0  0  0  0  0  0  0  0
  192.7660  175.6650  144.2390 C   0  0  0  0  0  0  0  0  0  0  0  0
  193.0850  172.3320  141.5860 C   0  0  0  0  0  1  0  0  0  0  0  0
  190.6920  176.9950  143.3590 C   0  0  2  0  0  3  0  0  0  0  0  0
  197.5220  173.7930  144.7180 C   0  0  0  0  0  3  0  0  0  0  0  0
  189.2000  173.7690  142.6620 C   0  0  0  0  0  3  0  0  0  0  0  0
  196.7450  174.2230  143.6410 C   0  0  0  0  0  3  0  0  0  0  0  0
  189.1980  176.6830  143.5020 C   0  0  0  0  0  2  0  0  0  0  0  0
  192.5300  175.2460  141.7190 C   0  0  0  0  0  2  0  0  0  0  0  0
  194.6600  175.0720  142.7730 O   0  0  0  0  0  0  0  0  0  0  0  0
  191.4660  174.2260  141.9780 C   0  0  0  0  0  0  0  0  0  0  0  0
  194.9040  174.7030  145.1470 C   0  0  0  0  0  0  0  0  0  0  0  0
  195.6920  174.2710  146.2270 C   0  0  0  0  0  3  0  0  0  0  0  0
  190.2060  174.6910  142.3620 C   0  0  0  0  0  0  0  0  0  0  0  0
  189.4640  172.4370  142.6270 N   0  0  0  0  0  0  0  0  0  0  0  0
  196.9950  173.8140  146.0120 C   0  0  0  0  0  3  0  0  0  0  0  0
  190.9020  170.4770  142.2810 C   0  0  0  0  0  1  0  0  0  0  0  0
  193.5420  175.2440  145.3490 C   0  0  0  0  0  0  0  0  0  0  0  0
  191.0800  176.4940  145.8260 C   0  0  0  0  0  0  0  0  0  0  0  0
  193.0580  175.3920  146.6470 C   0  0  0  0  0  3  0  0  0  0  0  0
  189.9290  176.1630  142.3000 C   0  0  2  0  0  3  0  0  0  0  0  0
  190.6900  171.9540  142.2890 C   0  0  0  0  0  0  0  0  0  0  0  0
  189.8800  177.3030  146.2140 C   0  0  0  0  0  2  0  0  0  0  0  0
  188.8240  176.4300  146.7380 C   0  0  0  0  0  0  0  0  0  0  0  0
  187.9900  175.7420  147.1510 N   0  0  0  0  0  0  0  0  0  0  0  0
  1  6  1  0  0  0  0
  2 16  1  0  0  0  0
  4 15  2  0  0  0  0
  4 26  1  0  0  0  0
  5 23  1  0  0  0  0
  6  5  2  0  0  0  0
  6 22  1  0  0  0  0
  7  4  1  0  0  0  0
  8 12  1  1  0  0  0
  8  5  1  0  0  0  0
  9 20  2  0  0  0  0
 11  2  2  0  0  0  0
 11  9  1  0  0  0  0
 13 15  1  0  0  0  0
 13  1  1  0  0  0  0
 14  1  1  0  0  0  0
 14  2  1  0  0  0  0
 15 18  1  0  0  0  0
 16 22  1  0  0  0  0
 16 17  2  0  0  0  0
 18 10  2  0  0  0  0
 19 10  1  0  0  0  0
 20 17  1  0  0  0  0
 21 26  1  0  0  0  0
 22 24  2  0  0  0  0
 23 27  1  0  0  0  0
 23  3  2  0  0  0  0
 24  3  1  0  0  0  0
 25 18  1  0  0  0  0
 25  8  1  0  0  0  0
 25 12  1  1  0  0  0
 26 19  2  0  0  0  0
 27 28  1  0  0  0  0
 28 29  3  0  0  0  0
M  END
>  <MODEL>
8

>  <REMARK>
 VINA RESULT:      -6.5      2.260      3.371
  Name = 
  2 active torsions:
  status: ('A' for Active; 'I' for Inactive)
    1  A    between atoms: C_6  and  C_11
    2  A    between atoms: C_11  and  C_26
                            x       y       z     vdW  Elec       q    Type
                         _______ _______ _______ _____ _____    ______ ____

>  <TORSDO>
F 2

$$$$
=
 OpenBabel11042416513D

 29 34  0  0  1  0  0  0  0  0999 V2000
  191.0630  174.0190  143.9800 N   0  0  0  0  0  0  0  0  0  0  0  0
  192.4970  175.3500  145.4190 C   0  0  0  0  0  0  0  0  0  0  0  0
  193.6520  174.8980  140.6940 C   0  0  0  0  0  3  0  0  0  0  0  0
  188.4870  175.7880  143.3090 C   0  0  0  0  0  0  0  0  0  0  0  0
  191.7320  173.6280  141.5400 C   0  0  0  0  0  0  0  0  0  0  0  0
  191.9080  174.2690  142.8190 C   0  0  0  0  0  0  0  0  0  0  0  0
  188.6470  176.2750  144.7160 C   0  0  0  0  0  1  0  0  0  0  0  0
  190.7670  172.4520  141.3240 C   0  0  2  0  0  3  0  0  0  0  0  0
  193.8130  176.7550  146.8880 C   0  0  0  0  0  3  0  0  0  0  0  0
  188.1910  174.9160  140.6830 C   0  0  0  0  0  3  0  0  0  0  0  0
  192.7780  175.8360  146.6990 C   0  0  0  0  0  3  0  0  0  0  0  0
  190.0290  172.6060  139.9900 C   0  0  0  0  0  2  0  0  0  0  0  0
  189.6710  173.6130  143.8880 C   0  0  0  0  0  2  0  0  0  0  0  0
  191.4450  174.4580  145.2350 O   0  0  0  0  0  0  0  0  0  0  0  0
  188.9410  174.5100  142.9370 C   0  0  0  0  0  0  0  0  0  0  0  0
  193.2520  175.7720  144.3200 C   0  0  0  0  0  0  0  0  0  0  0  0
  194.2940  176.6960  144.5170 C   0  0  0  0  0  3  0  0  0  0  0  0
  188.8200  174.0840  141.6130 C   0  0  0  0  0  0  0  0  0  0  0  0
  187.7480  176.1440  141.0580 N   0  0  0  0  0  0  0  0  0  0  0  0
  194.5700  177.1870  145.7960 C   0  0  0  0  0  3  0  0  0  0  0  0
  187.3760  177.9640  142.6620 C   0  0  0  0  0  1  0  0  0  0  0  0
  192.9720  175.1930  142.9890 C   0  0  0  0  0  0  0  0  0  0  0  0
  192.6610  173.9420  140.5010 C   0  0  0  0  0  0  0  0  0  0  0  0
  193.8040  175.5170  141.9200 C   0  0  0  0  0  3  0  0  0  0  0  0
  189.2380  172.6870  141.2610 C   0  0  2  0  0  3  0  0  0  0  0  0
  187.8810  176.6010  142.3320 C   0  0  0  0  0  0  0  0  0  0  0  0
  192.7130  173.2120  139.1930 C   0  0  0  0  0  2  0  0  0  0  0  0
  192.7080  174.1650  138.0780 C   0  0  0  0  0  0  0  0  0  0  0  0
  192.7040  174.9160  137.1970 N   0  0  0  0  0  0  0  0  0  0  0  0
  1 14  1  0  0  0  0
  2 11  1  0  0  0  0
  3 24  1  0  0  0  0
  4  7  1  0  0  0  0
  5  6  2  0  0  0  0
  6 22  1  0  0  0  0
  6  1  1  0  0  0  0
  8 12  1  6  0  0  0
  8  5  1  0  0  0  0
 10 19  2  0  0  0  0
 10 18  1  0  0  0  0
 11  9  2  0  0  0  0
 13  1  1  0  0  0  0
 14  2  1  0  0  0  0
 15  4  1  0  0  0  0
 15 13  1  0  0  0  0
 16 17  1  0  0  0  0
 16  2  2  0  0  0  0
 17 20  2  0  0  0  0
 18 15  2  0  0  0  0
 19 26  1  0  0  0  0
 20  9  1  0  0  0  0
 22 16  1  0  0  0  0
 23  3  2  0  0  0  0
 23  5  1  0  0  0  0
 24 22  2  0  0  0  0
 25 12  1  6  0  0  0
 25  8  1  0  0  0  0
 25 18  1  0  0  0  0
 26 21  1  0  0  0  0
 26  4  2  0  0  0  0
 27 23  1  0  0  0  0
 28 27  1  0  0  0  0
 29 28  3  0  0  0  0
M  END
>  <MODEL>
9

>  <REMARK>
 VINA RESULT:      -6.4      2.335      5.719
  Name = 
  2 active torsions:
  status: ('A' for Active; 'I' for Inactive)
    1  A    between atoms: C_6  and  C_11
    2  A    between atoms: C_11  and  C_26
                            x       y       z     vdW  Elec       q    Type
                         _______ _______ _______ _____ _____    ______ ____

>  <TORSDO>
F 2

$$$$
