=
 OpenBabel11042414193D

 62 68  0  0  1  0  0  0  0  0999 V2000
  191.9300  172.9060  137.7240 C   0  0  1  0  0  3  0  0  0  0  0  0
  190.0530  171.6250  140.0560 N   0  0  0  0  0  0  0  0  0  0  0  0
  190.5770  173.1330  138.2650 N   0  0  0  0  0  0  0  0  0  0  0  0
  191.7760  173.9820  136.7500 C   0  0  2  0  0  3  0  0  0  0  0  0
  192.7690  174.1570  137.8740 C   0  0  2  0  0  3  0  0  0  0  0  0
  189.6730  172.5200  139.1920 C   0  0  0  0  0  0  0  0  0  0  0  0
  190.4580  174.1500  137.2750 N   0  0  0  0  0  2  0  0  0  0  0  0
  193.5690  170.3600  140.1580 N   0  0  0  0  0  0  0  0  0  0  0  0
  193.5310  171.3960  141.1920 C   0  0  0  0  0  2  0  0  0  0  0  0
  192.2320  170.3240  139.5610 C   0  0  0  0  0  3  0  0  0  0  0  0
  191.3980  171.2440  140.3680 C   0  0  0  0  0  0  0  0  0  0  0  0
  192.1350  171.8780  141.2420 C   0  0  0  0  0  0  0  0  0  0  0  0
  191.6570  173.0050  142.1010 C   0  0  0  0  0  2  0  0  0  0  0  0
  190.4570  171.4080  143.3650 O   0  0  0  0  0  0  0  0  0  0  0  0
  191.0150  172.4950  143.3610 C   0  0  0  0  0  0  0  0  0  0  0  0
  189.9570  175.5790  146.4290 N   0  0  0  0  0  2  0  0  0  0  0  0
  192.7910  174.7130  145.7770 C   0  0  0  0  0  2  0  0  0  0  0  0
  192.3650  176.0450  146.3690 C   0  0  1  0  0  3  0  0  0  0  0  0
  192.0670  174.4390  144.4740 C   0  0  0  0  0  2  0  0  0  0  0  0
  191.1130  173.2630  144.6390 C   0  0  1  0  0  3  0  0  0  0  0  0
  189.7340  173.7240  145.0930 C   0  0  0  0  0  2  0  0  0  0  0  0
  189.7820  174.1850  146.4710 N   0  0  0  0  0  2  0  0  0  0  0  0
  191.1210  175.8890  147.2450 C   0  0  1  0  0  3  0  0  0  0  0  0
  193.4150  176.5420  147.1190 F   0  0  0  0  0  0  0  0  0  0  0  0
  190.0000  177.9750  147.6240 O   0  0  0  0  0  0  0  0  0  0  0  0
  191.5650  177.3820  149.1900 O   0  0  0  0  0  1  0  0  0  0  0  0
  190.8550  177.1380  148.0230 C   0  0  0  0  0  0  0  0  0  0  0  0
  194.1110  173.9050  137.3760 N   0  0  0  0  0  2  0  0  0  0  0  0
  194.7360  175.1960  137.1230 C   0  0  0  0  0  2  0  0  0  0  0  0
  196.9630  175.9530  136.7200 O   0  0  0  0  0  0  0  0  0  0  0  0
  196.2160  175.0860  137.2580 C   0  0  0  0  0  0  0  0  0  0  0  0
  196.7550  174.0350  138.0030 O   0  0  0  0  0  0  0  0  0  0  0  0
  197.7030  174.2460  139.0420 C   0  0  0  0  0  2  0  0  0  0  0  0
  197.2550  175.2560  139.8910 O   0  0  0  0  0  0  0  0  0  0  0  0
  197.3450  174.7190  141.1310 N   0  0  0  0  0  2  0  0  0  0  0  0
  195.8390  176.4840  143.2550 C   0  0  1  0  0  3  0  0  0  0  0  0
  195.3430  175.8930  141.9220 C   0  0  2  0  0  3  0  0  0  0  0  0
  196.7360  172.4370  142.6590 N   0  0  0  0  0  1  0  0  0  0  0  0
  193.9540  175.7550  141.9590 O   0  0  0  0  0  1  0  0  0  0  0  0
  196.5610  174.4390  144.0510 C   0  0  0  0  0  2  0  0  0  0  0  0
  195.7620  175.5670  144.3330 O   0  0  0  0  0  0  0  0  0  0  0  0
  195.9850  174.5330  141.6220 C   0  0  2  0  0  3  0  0  0  0  0  0
  195.9770  173.6580  142.8770 C   0  0  1  0  0  3  0  0  0  0  0  0
  197.2090  177.1440  143.1400 C   0  0  0  0  0  1  0  0  0  0  0  0
  188.2170  172.8060  139.0590 C   0  0  0  0  0  2  0  0  0  0  0  0
  187.9400  174.2390  139.4700 C   0  0  0  0  0  2  0  0  0  0  0  0
  188.4080  177.4290  143.9060 N   0  0  0  0  0  0  0  0  0  0  0  0
  189.4850  177.0880  143.2630 C   0  0  0  0  0  0  0  0  0  0  0  0
  187.2880  176.4100  141.3300 C   0  0  0  0  0  3  0  0  0  0  0  0
  190.7630  177.7720  143.6000 C   0  0  0  0  0  1  0  0  0  0  0  0
  188.8670  174.6390  140.5140 N   0  0  0  0  0  2  0  0  0  0  0  0
  189.5100  176.0310  142.2880 N   0  0  0  0  0  0  0  0  0  0  0  0
  187.1150  176.7630  143.7660 C   0  0  2  0  0  3  0  0  0  0  0  0
  188.5780  175.6880  141.4420 C   0  0  0  0  0  0  0  0  0  0  0  0
  186.6280  176.9270  142.3610 C   0  0  0  0  0  3  0  0  0  0  0  0
  185.8750  178.7100  144.3530 C   0  0  0  0  0  2  0  0  0  0  0  0
  186.7740  177.3540  146.0360 C   0  0  0  0  0  2  0  0  0  0  0  0
  185.1440  178.8120  147.0430 O   0  0  0  0  0  0  0  0  0  0  0  0
  186.1410  177.3160  144.7140 N   0  0  2  0  0  0  0  0  0  0  0  0
  184.4520  179.1190  144.7460 C   0  0  0  0  0  2  0  0  0  0  0  0
  184.0680  178.6630  146.1580 C   0  0  0  0  0  2  0  0  0  0  0  0
  185.7250  177.5400  147.1300 C   0  0  0  0  0  2  0  0  0  0  0  0
  1  5  1  0  0  0  0
  1  3  1  1  0  0  0
  2 11  1  0  0  0  0
  3  6  1  0  0  0  0
  4  7  1  1  0  0  0
  4  1  1  0  0  0  0
  4  5  1  0  0  0  0
  5 28  1  6  0  0  0
  6  2  2  0  0  0  0
  7  3  1  0  0  0  0
  8  9  1  0  0  0  0
  9 12  1  0  0  0  0
 10  8  2  0  0  0  0
 10 11  1  0  0  0  0
 11 12  2  0  0  0  0
 12 13  1  0  0  0  0
 13 15  1  0  0  0  0
 15 14  2  0  0  0  0
 16 22  1  0  0  0  0
 16 23  1  0  0  0  0
 17 18  1  0  0  0  0
 18 24  1  1  0  0  0
 18 23  1  0  0  0  0
 19 20  1  0  0  0  0
 19 17  1  0  0  0  0
 20 15  1  6  0  0  0
 20 21  1  0  0  0  0
 21 22  1  0  0  0  0
 23 27  1  6  0  0  0
 25 27  2  0  0  0  0
 27 26  1  0  0  0  0
 29 31  1  0  0  0  0
 29 28  1  0  0  0  0
 30 31  2  0  0  0  0
 31 32  1  0  0  0  0
 32 33  1  0  0  0  0
 33 34  1  0  0  0  0
 34 35  1  0  0  0  0
 36 44  1  6  0  0  0
 36 41  1  0  0  0  0
 37 39  1  1  0  0  0
 37 36  1  0  0  0  0
 40 41  1  0  0  0  0
 42 35  1  1  0  0  0
 42 37  1  0  0  0  0
 42 43  1  0  0  0  0
 43 38  1  6  0  0  0
 43 40  1  0  0  0  0
 45  6  1  0  0  0  0
 45 46  1  0  0  0  0
 46 51  1  0  0  0  0
 48 50  1  0  0  0  0
 48 47  2  0  0  0  0
 49 54  1  0  0  0  0
 49 55  2  0  0  0  0
 51 54  1  0  0  0  0
 52 48  1  0  0  0  0
 53 55  1  6  0  0  0
 53 47  1  0  0  0  0
 53 59  1  0  0  0  0
 54 52  2  0  0  0  0
 56 60  1  0  0  0  0
 57 62  1  0  0  0  0
 58 62  1  0  0  0  0
 59 56  1  6  0  0  0
 59 57  1  0  0  0  0
 60 61  1  0  0  0  0
 61 58  1  0  0  0  0
M  END
>  <MODEL>
1

>  <REMARK>
 VINA RESULT:      -7.4      0.000      0.000
  Name = 
  17 active torsions:
  status: ('A' for Active; 'I' for Inactive)
    1  A    between atoms: C_2  and  N_37
    2  A    between atoms: C_2  and  C_50
    3  A    between atoms: C_5  and  N_18
    4  A    between atoms: C_5  and  C_27
    5  A    between atoms: N_17  and  C_41
    6  A    between atoms: C_22  and  C_33
    7  A    between atoms: C_22  and  C_36
    8  A    between atoms: N_24  and  C_48
    9  A    between atoms: N_24  and  O_53
   10  A    between atoms: C_27  and  C_55
   11  A    between atoms: C_31  and  N_44
   12  A    between atoms: C_33  and  C_57
   13  A    between atoms: N_37  and  C_54
   14  A    between atoms: C_45  and  O_47
   15  A    between atoms: C_45  and  O_53
   16  A    between atoms: O_47  and  C_50
   17  A    between atoms: C_56  and  C_61
                            x       y       z     vdW  Elec       q    Type
                         _______ _______ _______ _____ _____    ______ ____

>  <TORSDO>
F 17

$$$$
=
 OpenBabel11042414193D

 62 68  0  0  1  0  0  0  0  0999 V2000
  191.5720  171.6380  136.7950 C   0  0  1  0  0  3  0  0  0  0  0  0
  189.7400  171.6310  139.4860 N   0  0  0  0  0  0  0  0  0  0  0  0
  190.8040  172.6230  137.5780 N   0  0  0  0  0  0  0  0  0  0  0  0
  191.9910  172.6540  135.8330 C   0  0  2  0  0  3  0  0  0  0  0  0
  193.0310  172.0380  136.7380 C   0  0  2  0  0  3  0  0  0  0  0  0
  189.8910  172.6430  138.6830 C   0  0  0  0  0  0  0  0  0  0  0  0
  191.2080  173.5730  136.5970 N   0  0  0  0  0  2  0  0  0  0  0  0
  191.5010  168.3740  138.9790 N   0  0  0  0  0  0  0  0  0  0  0  0
  192.3880  169.1250  139.8690 C   0  0  0  0  0  2  0  0  0  0  0  0
  190.3650  169.2520  138.6910 C   0  0  0  0  0  3  0  0  0  0  0  0
  190.5450  170.4480  139.5440 C   0  0  0  0  0  0  0  0  0  0  0  0
  191.6970  170.3980  140.1610 C   0  0  0  0  0  0  0  0  0  0  0  0
  192.2810  171.5170  140.9640 C   0  0  0  0  0  2  0  0  0  0  0  0
  191.9530  170.3160  142.9740 O   0  0  0  0  0  0  0  0  0  0  0  0
  191.9020  171.4010  142.4140 C   0  0  0  0  0  0  0  0  0  0  0  0
  192.2590  174.5160  145.6090 N   0  0  0  0  0  2  0  0  0  0  0  0
  189.6310  173.3480  144.6410 C   0  0  0  0  0  2  0  0  0  0  0  0
  189.9000  173.9700  146.0010 C   0  0  1  0  0  3  0  0  0  0  0  0
  190.6040  172.2230  144.3540 C   0  0  0  0  0  2  0  0  0  0  0  0
  191.5350  172.6100  143.2120 C   0  0  1  0  0  3  0  0  0  0  0  0
  192.7860  173.3110  143.7260 C   0  0  0  0  0  2  0  0  0  0  0  0
  192.4560  174.6360  144.2230 N   0  0  0  0  0  2  0  0  0  0  0  0
  190.9500  175.0780  145.9050 C   0  0  1  0  0  3  0  0  0  0  0  0
  188.7100  174.4830  146.4860 F   0  0  0  0  0  0  0  0  0  0  0  0
  190.7440  177.0800  147.2080 O   0  0  0  0  0  0  0  0  0  0  0  0
  191.4230  175.2120  148.3480 O   0  0  0  0  0  1  0  0  0  0  0  0
  191.0270  175.8520  147.1830 C   0  0  0  0  0  0  0  0  0  0  0  0
  193.7820  171.0360  135.9990 N   0  0  0  0  0  2  0  0  0  0  0  0
  194.9950  171.6730  135.5040 C   0  0  0  0  0  2  0  0  0  0  0  0
  196.3060  169.6810  135.5920 O   0  0  0  0  0  0  0  0  0  0  0  0
  196.1930  170.8950  135.9280 C   0  0  0  0  0  0  0  0  0  0  0  0
  197.1890  171.5310  136.6720 O   0  0  0  0  0  0  0  0  0  0  0  0
  197.5140  172.9030  136.4890 C   0  0  0  0  0  2  0  0  0  0  0  0
  197.8230  173.4830  137.7190 O   0  0  0  0  0  0  0  0  0  0  0  0
  196.6560  173.4620  138.4050 N   0  0  0  0  0  2  0  0  0  0  0  0
  195.5190  174.3410  141.2030 C   0  0  1  0  0  3  0  0  0  0  0  0
  196.6660  174.9350  140.3640 C   0  0  2  0  0  3  0  0  0  0  0  0
  194.6290  174.9630  137.1590 N   0  0  0  0  0  1  0  0  0  0  0  0
  196.8490  176.2770  140.7060 O   0  0  0  0  0  1  0  0  0  0  0  0
  193.9990  174.4740  139.4690 C   0  0  0  0  0  2  0  0  0  0  0  0
  194.2410  174.8170  140.8160 O   0  0  0  0  0  0  0  0  0  0  0  0
  196.3950  174.8230  138.8590 C   0  0  2  0  0  3  0  0  0  0  0  0
  194.9530  175.2310  138.5500 C   0  0  1  0  0  3  0  0  0  0  0  0
  195.5770  172.8190  141.2950 C   0  0  0  0  0  1  0  0  0  0  0  0
  188.9730  173.8070  138.8240 C   0  0  0  0  0  2  0  0  0  0  0  0
  188.3930  173.8320  140.2240 C   0  0  0  0  0  2  0  0  0  0  0  0
  188.5660  177.6010  144.2030 N   0  0  0  0  0  0  0  0  0  0  0  0
  189.6370  177.3840  143.5010 C   0  0  0  0  0  0  0  0  0  0  0  0
  187.4740  176.0690  141.8830 C   0  0  0  0  0  3  0  0  0  0  0  0
  190.7790  178.3280  143.6300 C   0  0  0  0  0  1  0  0  0  0  0  0
  189.3010  174.5270  141.1200 N   0  0  0  0  0  2  0  0  0  0  0  0
  189.7930  176.2320  142.6530 N   0  0  0  0  0  0  0  0  0  0  0  0
  187.4200  176.6960  144.2690 C   0  0  2  0  0  3  0  0  0  0  0  0
  188.8850  175.6160  141.9470 C   0  0  0  0  0  0  0  0  0  0  0  0
  186.8050  176.5850  142.9090 C   0  0  0  0  0  3  0  0  0  0  0  0
  185.9880  178.5130  144.8320 C   0  0  0  0  0  2  0  0  0  0  0  0
  187.1150  177.3540  146.5250 C   0  0  0  0  0  2  0  0  0  0  0  0
  185.3720  178.6620  147.5490 O   0  0  0  0  0  0  0  0  0  0  0  0
  186.4320  177.1790  145.2400 N   0  0  2  0  0  0  0  0  0  0  0  0
  184.5460  178.7750  145.2790 C   0  0  0  0  0  2  0  0  0  0  0  0
  184.2820  178.3470  146.7270 C   0  0  0  0  0  2  0  0  0  0  0  0
  186.1020  177.4710  147.6620 C   0  0  0  0  0  2  0  0  0  0  0  0
  1  3  1  1  0  0  0
  2 11  1  0  0  0  0
  3  6  1  0  0  0  0
  4  7  1  1  0  0  0
  4  5  1  0  0  0  0
  4  1  1  0  0  0  0
  5 28  1  6  0  0  0
  5  1  1  0  0  0  0
  6 45  1  0  0  0  0
  6  2  2  0  0  0  0
  7  3  1  0  0  0  0
  8  9  1  0  0  0  0
  9 12  1  0  0  0  0
 10  8  2  0  0  0  0
 10 11  1  0  0  0  0
 11 12  2  0  0  0  0
 12 13  1  0  0  0  0
 13 15  1  0  0  0  0
 15 14  2  0  0  0  0
 16 23  1  0  0  0  0
 17 18  1  0  0  0  0
 18 24  1  6  0  0  0
 19 17  1  0  0  0  0
 20 15  1  1  0  0  0
 20 21  1  0  0  0  0
 20 19  1  0  0  0  0
 21 22  1  0  0  0  0
 22 16  1  0  0  0  0
 23 18  1  0  0  0  0
 23 27  1  1  0  0  0
 27 25  2  0  0  0  0
 27 26  1  0  0  0  0
 29 31  1  0  0  0  0
 29 28  1  0  0  0  0
 30 31  2  0  0  0  0
 31 32  1  0  0  0  0
 33 32  1  0  0  0  0
 33 34  1  0  0  0  0
 34 35  1  0  0  0  0
 36 44  1  6  0  0  0
 37 39  1  1  0  0  0
 37 36  1  0  0  0  0
 40 41  1  0  0  0  0
 41 36  1  0  0  0  0
 42 35  1  1  0  0  0
 42 37  1  0  0  0  0
 43 38  1  6  0  0  0
 43 42  1  0  0  0  0
 43 40  1  0  0  0  0
 45 46  1  0  0  0  0
 46 51  1  0  0  0  0
 47 53  1  0  0  0  0
 48 50  1  0  0  0  0
 48 47  2  0  0  0  0
 49 54  1  0  0  0  0
 49 55  2  0  0  0  0
 51 54  1  0  0  0  0
 52 48  1  0  0  0  0
 53 55  1  6  0  0  0
 53 59  1  0  0  0  0
 54 52  2  0  0  0  0
 56 60  1  0  0  0  0
 57 62  1  0  0  0  0
 58 62  1  0  0  0  0
 59 56  1  6  0  0  0
 59 57  1  0  0  0  0
 60 61  1  0  0  0  0
 61 58  1  0  0  0  0
M  END
>  <MODEL>
2

>  <REMARK>
 VINA RESULT:      -7.0      1.877      2.686
  Name = 
  17 active torsions:
  status: ('A' for Active; 'I' for Inactive)
    1  A    between atoms: C_2  and  N_37
    2  A    between atoms: C_2  and  C_50
    3  A    between atoms: C_5  and  N_18
    4  A    between atoms: C_5  and  C_27
    5  A    between atoms: N_17  and  C_41
    6  A    between atoms: C_22  and  C_33
    7  A    between atoms: C_22  and  C_36
    8  A    between atoms: N_24  and  C_48
    9  A    between atoms: N_24  and  O_53
   10  A    between atoms: C_27  and  C_55
   11  A    between atoms: C_31  and  N_44
   12  A    between atoms: C_33  and  C_57
   13  A    between atoms: N_37  and  C_54
   14  A    between atoms: C_45  and  O_47
   15  A    between atoms: C_45  and  O_53
   16  A    between atoms: O_47  and  C_50
   17  A    between atoms: C_56  and  C_61
                            x       y       z     vdW  Elec       q    Type
                         _______ _______ _______ _____ _____    ______ ____

>  <TORSDO>
F 17

$$$$
=
 OpenBabel11042414193D

 62 68  0  0  1  0  0  0  0  0999 V2000
  193.1790  174.7060  142.8390 C   0  0  1  0  0  3  0  0  0  0  0  0
  193.5240  174.0850  146.0160 N   0  0  0  0  0  0  0  0  0  0  0  0
  192.4480  175.0130  144.0820 N   0  0  0  0  0  0  0  0  0  0  0  0
  192.2040  175.4320  142.0280 C   0  0  2  0  0  3  0  0  0  0  0  0
  193.6030  175.9880  142.1530 C   0  0  2  0  0  3  0  0  0  0  0  0
  192.4920  174.6590  145.4700 C   0  0  0  0  0  0  0  0  0  0  0  0
  191.5050  175.6790  143.2490 N   0  0  0  0  0  2  0  0  0  0  0  0
  197.0540  174.2390  144.7960 N   0  0  0  0  0  0  0  0  0  0  0  0
  196.7290  172.8110  144.7740 C   0  0  0  0  0  3  0  0  0  0  0  0
  195.8630  174.9250  145.3020 C   0  0  0  0  0  2  0  0  0  0  0  0
  194.8130  173.8870  145.4250 C   0  0  0  0  0  0  0  0  0  0  0  0
  195.3130  172.7040  145.1790 C   0  0  0  0  0  0  0  0  0  0  0  0
  194.5830  171.4140  145.3810 C   0  0  0  0  0  2  0  0  0  0  0  0
  195.4830  169.8440  143.8610 O   0  0  0  0  0  0  0  0  0  0  0  0
  194.5580  170.5990  144.1180 C   0  0  0  0  0  0  0  0  0  0  0  0
  191.9630  172.0440  140.7690 N   0  0  0  0  0  2  0  0  0  0  0  0
  190.9150  170.9630  143.4040 C   0  0  0  0  0  2  0  0  0  0  0  0
  190.1990  171.9220  142.4690 C   0  0  1  0  0  3  0  0  0  0  0  0
  192.2760  171.5010  143.7980 C   0  0  0  0  0  2  0  0  0  0  0  0
  193.3780  170.6370  143.2020 C   0  0  1  0  0  3  0  0  0  0  0  0
  193.7890  171.1330  141.8210 C   0  0  0  0  0  2  0  0  0  0  0  0
  192.7350  170.8730  140.8550 N   0  0  0  0  0  2  0  0  0  0  0  0
  190.5800  171.6630  141.0100 C   0  0  1  0  0  3  0  0  0  0  0  0
  188.8360  171.7580  142.6410 F   0  0  0  0  0  0  0  0  0  0  0  0
  189.1820  171.8710  139.0730 O   0  0  0  0  0  0  0  0  0  0  0  0
  189.4340  173.7700  140.3310 O   0  0  0  0  0  1  0  0  0  0  0  0
  189.6910  172.4290  140.0820 C   0  0  0  0  0  0  0  0  0  0  0  0
  194.3580  175.6690  140.9520 N   0  0  0  0  0  2  0  0  0  0  0  0
  195.6620  176.3070  141.0710 C   0  0  0  0  0  2  0  0  0  0  0  0
  197.8920  175.7140  140.4630 O   0  0  0  0  0  0  0  0  0  0  0  0
  196.6580  175.6030  140.2130 C   0  0  0  0  0  0  0  0  0  0  0  0
  196.2050  174.8070  139.1590 O   0  0  0  0  0  0  0  0  0  0  0  0
  196.2620  175.2360  137.8040 C   0  0  0  0  0  2  0  0  0  0  0  0
  195.5790  174.3320  136.9940 O   0  0  0  0  0  0  0  0  0  0  0  0
  194.8420  175.1090  136.1660 N   0  0  0  0  0  2  0  0  0  0  0  0
  192.2000  173.4510  135.7600 C   0  0  1  0  0  3  0  0  0  0  0  0
  192.8440  173.9970  137.0480 C   0  0  2  0  0  3  0  0  0  0  0  0
  193.4050  177.4580  135.5880 N   0  0  0  0  0  1  0  0  0  0  0  0
  191.8630  174.1570  138.0300 O   0  0  0  0  0  1  0  0  0  0  0  0
  192.2020  175.5150  134.7220 C   0  0  0  0  0  2  0  0  0  0  0  0
  191.4030  174.4110  135.0860 O   0  0  0  0  0  0  0  0  0  0  0  0
  193.5550  175.3350  136.8130 C   0  0  2  0  0  3  0  0  0  0  0  0
  192.6770  176.2590  135.9670 C   0  0  1  0  0  3  0  0  0  0  0  0
  193.2040  172.7670  134.8380 C   0  0  0  0  0  1  0  0  0  0  0  0
  191.2530  174.8150  146.2820 C   0  0  0  0  0  2  0  0  0  0  0  0
  191.1390  176.2460  146.7690 C   0  0  0  0  0  2  0  0  0  0  0  0
  186.2560  178.1520  145.1590 N   0  0  0  0  0  0  0  0  0  0  0  0
  186.5550  178.1860  146.4230 C   0  0  0  0  0  0  0  0  0  0  0  0
  189.2070  177.6900  145.1010 C   0  0  0  0  0  3  0  0  0  0  0  0
  185.6800  178.9610  147.3430 C   0  0  0  0  0  1  0  0  0  0  0  0
  189.7870  176.5020  147.2340 N   0  0  0  0  0  2  0  0  0  0  0  0
  187.6580  177.4520  146.9830 N   0  0  0  0  0  0  0  0  0  0  0  0
  186.9510  177.3370  144.1650 C   0  0  2  0  0  3  0  0  0  0  0  0
  188.8180  177.1960  146.4440 C   0  0  0  0  0  0  0  0  0  0  0  0
  188.3750  177.7890  144.0700 C   0  0  0  0  0  3  0  0  0  0  0  0
  187.1780  178.1630  141.9430 C   0  0  0  0  0  2  0  0  0  0  0  0
  185.1030  178.2790  143.0190 C   0  0  0  0  0  2  0  0  0  0  0  0
  184.7450  178.6480  140.6670 O   0  0  0  0  0  0  0  0  0  0  0  0
  186.2930  177.4390  142.8570 N   0  0  2  0  0  0  0  0  0  0  0  0
  186.9660  177.7080  140.4950 C   0  0  0  0  0  2  0  0  0  0  0  0
  185.4860  177.5950  140.1150 C   0  0  0  0  0  2  0  0  0  0  0  0
  184.1630  178.1170  141.8260 C   0  0  0  0  0  2  0  0  0  0  0  0
  1  3  1  1  0  0  0
  3  6  1  0  0  0  0
  4  5  1  0  0  0  0
  4  1  1  0  0  0  0
  4  7  1  1  0  0  0
  5 28  1  6  0  0  0
  5  1  1  0  0  0  0
  6  2  2  0  0  0  0
  6 45  1  0  0  0  0
  7  3  1  0  0  0  0
  8 10  1  0  0  0  0
  9  8  2  0  0  0  0
  9 12  1  0  0  0  0
 10 11  1  0  0  0  0
 11  2  1  0  0  0  0
 12 13  1  0  0  0  0
 12 11  2  0  0  0  0
 14 15  2  0  0  0  0
 15 13  1  0  0  0  0
 16 22  1  0  0  0  0
 16 23  1  0  0  0  0
 17 19  1  0  0  0  0
 18 24  1  6  0  0  0
 18 17  1  0  0  0  0
 20 19  1  0  0  0  0
 20 15  1  1  0  0  0
 21 20  1  0  0  0  0
 22 21  1  0  0  0  0
 23 27  1  6  0  0  0
 23 18  1  0  0  0  0
 25 27  2  0  0  0  0
 27 26  1  0  0  0  0
 28 29  1  0  0  0  0
 31 30  2  0  0  0  0
 31 29  1  0  0  0  0
 32 31  1  0  0  0  0
 33 32  1  0  0  0  0
 34 33  1  0  0  0  0
 35 34  1  0  0  0  0
 36 44  1  6  0  0  0
 36 37  1  0  0  0  0
 37 39  1  1  0  0  0
 40 41  1  0  0  0  0
 40 43  1  0  0  0  0
 41 36  1  0  0  0  0
 42 35  1  6  0  0  0
 42 37  1  0  0  0  0
 43 38  1  6  0  0  0
 43 42  1  0  0  0  0
 45 46  1  0  0  0  0
 46 51  1  0  0  0  0
 47 48  2  0  0  0  0
 48 52  1  0  0  0  0
 48 50  1  0  0  0  0
 49 54  1  0  0  0  0
 53 55  1  6  0  0  0
 53 47  1  0  0  0  0
 54 52  2  0  0  0  0
 54 51  1  0  0  0  0
 55 49  2  0  0  0  0
 58 62  1  0  0  0  0
 59 56  1  6  0  0  0
 59 57  1  0  0  0  0
 59 53  1  0  0  0  0
 60 56  1  0  0  0  0
 61 60  1  0  0  0  0
 61 58  1  0  0  0  0
 62 57  1  0  0  0  0
M  END
>  <MODEL>
3

>  <REMARK>
 VINA RESULT:      -7.0      2.920      6.239
  Name = 
  17 active torsions:
  status: ('A' for Active; 'I' for Inactive)
    1  A    between atoms: C_2  and  N_37
    2  A    between atoms: C_2  and  C_50
    3  A    between atoms: C_5  and  N_18
    4  A    between atoms: C_5  and  C_27
    5  A    between atoms: N_17  and  C_41
    6  A    between atoms: C_22  and  C_33
    7  A    between atoms: C_22  and  C_36
    8  A    between atoms: N_24  and  C_48
    9  A    between atoms: N_24  and  O_53
   10  A    between atoms: C_27  and  C_55
   11  A    between atoms: C_31  and  N_44
   12  A    between atoms: C_33  and  C_57
   13  A    between atoms: N_37  and  C_54
   14  A    between atoms: C_45  and  O_47
   15  A    between atoms: C_45  and  O_53
   16  A    between atoms: O_47  and  C_50
   17  A    between atoms: C_56  and  C_61
                            x       y       z     vdW  Elec       q    Type
                         _______ _______ _______ _____ _____    ______ ____

>  <TORSDO>
F 17

$$$$
=
 OpenBabel11042414193D

 62 68  0  0  1  0  0  0  0  0999 V2000
  193.4280  175.1940  142.9720 C   0  0  1  0  0  3  0  0  0  0  0  0
  193.2100  173.8270  145.9180 N   0  0  0  0  0  0  0  0  0  0  0  0
  192.5290  175.2840  144.1380 N   0  0  0  0  0  0  0  0  0  0  0  0
  192.6510  176.1870  142.2340 C   0  0  2  0  0  3  0  0  0  0  0  0
  194.0470  176.5450  142.6840 C   0  0  2  0  0  3  0  0  0  0  0  0
  192.3230  174.6190  145.3900 C   0  0  0  0  0  0  0  0  0  0  0  0
  191.7830  176.2210  143.3680 N   0  0  0  0  0  2  0  0  0  0  0  0
  196.8950  173.8570  145.2960 N   0  0  0  0  0  0  0  0  0  0  0  0
  196.4660  172.5340  144.8390 C   0  0  0  0  0  3  0  0  0  0  0  0
  195.6950  174.5300  145.7980 C   0  0  0  0  0  2  0  0  0  0  0  0
  194.5600  173.6320  145.4830 C   0  0  0  0  0  0  0  0  0  0  0  0
  194.9970  172.5000  144.9960 C   0  0  0  0  0  0  0  0  0  0  0  0
  194.1430  171.3010  144.7330 C   0  0  0  0  0  2  0  0  0  0  0  0
  195.0290  170.4630  142.7080 O   0  0  0  0  0  0  0  0  0  0  0  0
  194.0780  170.9910  143.2630 C   0  0  0  0  0  0  0  0  0  0  0  0
  191.1440  173.2990  140.7920 N   0  0  0  0  0  2  0  0  0  0  0  0
  190.3750  171.2510  142.8960 C   0  0  0  0  0  2  0  0  0  0  0  0
  189.5250  172.4130  142.4080 C   0  0  1  0  0  3  0  0  0  0  0  0
  191.7210  171.7350  143.3970 C   0  0  0  0  0  2  0  0  0  0  0  0
  192.8330  171.2470  142.4770 C   0  0  1  0  0  3  0  0  0  0  0  0
  193.1030  172.2420  141.3560 C   0  0  0  0  0  2  0  0  0  0  0  0
  192.0000  172.2520  140.4100 N   0  0  0  0  0  2  0  0  0  0  0  0
  189.8130  172.7310  140.9400 C   0  0  1  0  0  3  0  0  0  0  0  0
  188.1940  172.0730  142.5690 F   0  0  0  0  0  0  0  0  0  0  0  0
  188.3520  173.5580  139.2280 O   0  0  0  0  0  0  0  0  0  0  0  0
  188.3760  174.7530  141.1840 O   0  0  0  0  0  1  0  0  0  0  0  0
  188.8060  173.6940  140.3960 C   0  0  0  0  0  0  0  0  0  0  0  0
  194.9620  176.4320  141.5600 N   0  0  0  0  0  2  0  0  0  0  0  0
  196.3160  176.4150  142.0950 C   0  0  0  0  0  2  0  0  0  0  0  0
  197.5780  175.7190  140.1930 O   0  0  0  0  0  0  0  0  0  0  0  0
  197.1520  175.4320  141.3480 C   0  0  0  0  0  0  0  0  0  0  0  0
  197.4720  174.2140  141.9510 O   0  0  0  0  0  0  0  0  0  0  0  0
  197.9390  173.0960  141.2070 C   0  0  0  0  0  2  0  0  0  0  0  0
  196.8620  172.4370  140.6190 O   0  0  0  0  0  0  0  0  0  0  0  0
  197.2480  172.2350  139.3370 N   0  0  0  0  0  2  0  0  0  0  0  0
  196.6130  169.1720  139.0110 C   0  0  1  0  0  3  0  0  0  0  0  0
  195.6780  170.3520  139.3350 C   0  0  2  0  0  3  0  0  0  0  0  0
  197.0620  172.5270  136.5450 N   0  0  0  0  0  1  0  0  0  0  0  0
  194.3730  170.0340  138.9530 O   0  0  0  0  0  1  0  0  0  0  0  0
  197.4530  170.1810  137.1110 C   0  0  0  0  0  2  0  0  0  0  0  0
  196.8490  169.0140  137.6220 O   0  0  0  0  0  0  0  0  0  0  0  0
  196.1170  171.6430  138.6320 C   0  0  2  0  0  3  0  0  0  0  0  0
  196.4780  171.3530  137.1740 C   0  0  1  0  0  3  0  0  0  0  0  0
  197.9000  169.1910  139.8290 C   0  0  0  0  0  1  0  0  0  0  0  0
  190.9830  174.7170  146.0340 C   0  0  0  0  0  2  0  0  0  0  0  0
  190.8260  176.0800  146.6770 C   0  0  0  0  0  2  0  0  0  0  0  0
  185.8890  177.9210  145.1560 N   0  0  0  0  0  0  0  0  0  0  0  0
  186.1750  177.8700  146.4230 C   0  0  0  0  0  0  0  0  0  0  0  0
  188.8560  177.5740  145.1000 C   0  0  0  0  0  3  0  0  0  0  0  0
  185.2620  178.5400  147.3880 C   0  0  0  0  0  1  0  0  0  0  0  0
  189.4610  176.2500  147.1440 N   0  0  0  0  0  2  0  0  0  0  0  0
  187.3000  177.1360  146.9390 N   0  0  0  0  0  0  0  0  0  0  0  0
  186.6240  177.2100  144.1120 C   0  0  2  0  0  3  0  0  0  0  0  0
  188.4740  176.9650  146.3970 C   0  0  0  0  0  0  0  0  0  0  0  0
  188.0310  177.7200  144.0690 C   0  0  0  0  0  3  0  0  0  0  0  0
  186.8670  178.1580  141.9410 C   0  0  0  0  0  2  0  0  0  0  0  0
  184.7850  178.2180  143.0090 C   0  0  0  0  0  2  0  0  0  0  0  0
  184.4440  178.7190  140.6790 O   0  0  0  0  0  0  0  0  0  0  0  0
  185.9750  177.3860  142.8080 N   0  0  2  0  0  0  0  0  0  0  0  0
  186.6640  177.7850  140.4690 C   0  0  0  0  0  2  0  0  0  0  0  0
  185.1860  177.6960  140.0730 C   0  0  0  0  0  2  0  0  0  0  0  0
  183.8530  178.1260  141.8030 C   0  0  0  0  0  2  0  0  0  0  0  0
  1  3  1  1  0  0  0
  3  6  1  0  0  0  0
  4  5  1  0  0  0  0
  4  1  1  0  0  0  0
  4  7  1  1  0  0  0
  5 28  1  6  0  0  0
  5  1  1  0  0  0  0
  6  2  2  0  0  0  0
  6 45  1  0  0  0  0
  7  3  1  0  0  0  0
  8 10  1  0  0  0  0
  9 12  1  0  0  0  0
  9  8  2  0  0  0  0
 11 10  1  0  0  0  0
 11  2  1  0  0  0  0
 12 11  2  0  0  0  0
 13 12  1  0  0  0  0
 14 15  2  0  0  0  0
 15 13  1  0  0  0  0
 16 23  1  0  0  0  0
 17 19  1  0  0  0  0
 18 24  1  6  0  0  0
 18 17  1  0  0  0  0
 20 15  1  1  0  0  0
 20 19  1  0  0  0  0
 21 20  1  0  0  0  0
 22 16  1  0  0  0  0
 22 21  1  0  0  0  0
 23 27  1  1  0  0  0
 23 18  1  0  0  0  0
 25 27  2  0  0  0  0
 27 26  1  0  0  0  0
 28 29  1  0  0  0  0
 30 31  2  0  0  0  0
 31 32  1  0  0  0  0
 31 29  1  0  0  0  0
 33 32  1  0  0  0  0
 34 33  1  0  0  0  0
 35 34  1  0  0  0  0
 36 37  1  0  0  0  0
 36 44  1  1  0  0  0
 37 39  1  6  0  0  0
 40 43  1  0  0  0  0
 40 41  1  0  0  0  0
 41 36  1  0  0  0  0
 42 37  1  0  0  0  0
 42 35  1  1  0  0  0
 43 38  1  1  0  0  0
 43 42  1  0  0  0  0
 45 46  1  0  0  0  0
 46 51  1  0  0  0  0
 47 48  2  0  0  0  0
 48 52  1  0  0  0  0
 48 50  1  0  0  0  0
 49 54  1  0  0  0  0
 53 55  1  6  0  0  0
 53 47  1  0  0  0  0
 54 52  2  0  0  0  0
 54 51  1  0  0  0  0
 55 49  2  0  0  0  0
 58 62  1  0  0  0  0
 59 56  1  6  0  0  0
 59 57  1  0  0  0  0
 59 53  1  0  0  0  0
 60 56  1  0  0  0  0
 61 60  1  0  0  0  0
 61 58  1  0  0  0  0
 62 57  1  0  0  0  0
M  END
>  <MODEL>
4

>  <REMARK>
 VINA RESULT:      -6.8      3.050      5.942
  Name = 
  17 active torsions:
  status: ('A' for Active; 'I' for Inactive)
    1  A    between atoms: C_2  and  N_37
    2  A    between atoms: C_2  and  C_50
    3  A    between atoms: C_5  and  N_18
    4  A    between atoms: C_5  and  C_27
    5  A    between atoms: N_17  and  C_41
    6  A    between atoms: C_22  and  C_33
    7  A    between atoms: C_22  and  C_36
    8  A    between atoms: N_24  and  C_48
    9  A    between atoms: N_24  and  O_53
   10  A    between atoms: C_27  and  C_55
   11  A    between atoms: C_31  and  N_44
   12  A    between atoms: C_33  and  C_57
   13  A    between atoms: N_37  and  C_54
   14  A    between atoms: C_45  and  O_47
   15  A    between atoms: C_45  and  O_53
   16  A    between atoms: O_47  and  C_50
   17  A    between atoms: C_56  and  C_61
                            x       y       z     vdW  Elec       q    Type
                         _______ _______ _______ _____ _____    ______ ____

>  <TORSDO>
F 17

$$$$
=
 OpenBabel11042414193D

 62 68  0  0  1  0  0  0  0  0999 V2000
  192.0690  172.4510  137.2260 C   0  0  1  0  0  3  0  0  0  0  0  0
  189.7080  171.4840  139.2490 N   0  0  0  0  0  0  0  0  0  0  0  0
  190.9220  173.0680  137.9180 N   0  0  0  0  0  0  0  0  0  0  0  0
  192.4450  173.7200  136.6100 C   0  0  2  0  0  3  0  0  0  0  0  0
  193.3580  173.1200  137.6530 C   0  0  2  0  0  3  0  0  0  0  0  0
  189.7960  172.6630  138.7060 C   0  0  0  0  0  0  0  0  0  0  0  0
  191.3050  174.2760  137.2670 N   0  0  0  0  0  2  0  0  0  0  0  0
  192.2200  168.7650  138.7310 N   0  0  0  0  0  0  0  0  0  0  0  0
  192.7510  169.5320  139.8590 C   0  0  0  0  0  2  0  0  0  0  0  0
  190.9790  169.4300  138.3260 C   0  0  0  0  0  3  0  0  0  0  0  0
  190.7380  170.4920  139.3300 C   0  0  0  0  0  0  0  0  0  0  0  0
  191.7510  170.5800  140.1520 C   0  0  0  0  0  0  0  0  0  0  0  0
  191.9240  171.6540  141.1780 C   0  0  0  0  0  2  0  0  0  0  0  0
  190.7130  170.3330  142.7190 O   0  0  0  0  0  0  0  0  0  0  0  0
  190.9820  171.4600  142.3330 C   0  0  0  0  0  0  0  0  0  0  0  0
  190.9640  175.4560  144.3510 N   0  0  0  0  0  2  0  0  0  0  0  0
  189.3670  173.0540  145.2930 C   0  0  0  0  0  2  0  0  0  0  0  0
  189.8350  174.2220  146.1450 C   0  0  1  0  0  3  0  0  0  0  0  0
  190.5320  172.4010  144.5770 C   0  0  0  0  0  2  0  0  0  0  0  0
  190.4230  172.6310  143.0760 C   0  0  1  0  0  3  0  0  0  0  0  0
  191.1270  173.9150  142.6560 C   0  0  0  0  0  2  0  0  0  0  0  0
  190.3880  175.0750  143.1280 N   0  0  0  0  0  2  0  0  0  0  0  0
  189.8900  175.5150  145.3300 C   0  0  1  0  0  3  0  0  0  0  0  0
  188.9570  174.3640  147.2050 F   0  0  0  0  0  0  0  0  0  0  0  0
  190.6450  176.5640  147.3500 O   0  0  0  0  0  1  0  0  0  0  0  0
  189.6870  177.9540  145.8000 O   0  0  0  0  0  0  0  0  0  0  0  0
  190.1020  176.6980  146.2200 C   0  0  0  0  0  0  0  0  0  0  0  0
  194.4820  172.4740  136.9960 N   0  0  0  0  0  2  0  0  0  0  0  0
  195.5190  173.4790  136.8070 C   0  0  0  0  0  2  0  0  0  0  0  0
  197.7380  172.8760  137.4440 O   0  0  0  0  0  0  0  0  0  0  0  0
  196.6030  173.2950  137.8130 C   0  0  0  0  0  0  0  0  0  0  0  0
  196.3530  173.6130  139.1490 O   0  0  0  0  0  0  0  0  0  0  0  0
  196.0560  174.9370  139.5730 C   0  0  0  0  0  2  0  0  0  0  0  0
  195.2660  174.9010  140.7200 O   0  0  0  0  0  0  0  0  0  0  0  0
  196.1530  174.8710  141.7420 N   0  0  0  0  0  2  0  0  0  0  0  0
  195.3900  175.2740  144.7670 C   0  0  1  0  0  3  0  0  0  0  0  0
  194.6960  174.4470  143.6670 C   0  0  2  0  0  3  0  0  0  0  0  0
  197.9300  172.8280  142.5070 N   0  0  0  0  0  1  0  0  0  0  0  0
  193.9500  173.4220  144.2530 O   0  0  0  0  0  1  0  0  0  0  0  0
  197.4380  174.2630  144.4240 C   0  0  0  0  0  2  0  0  0  0  0  0
  196.4610  174.5840  145.3890 O   0  0  0  0  0  0  0  0  0  0  0  0
  195.7020  173.8470  142.6770 C   0  0  2  0  0  3  0  0  0  0  0  0
  196.8880  173.2420  143.4320 C   0  0  1  0  0  3  0  0  0  0  0  0
  195.7820  176.6720  144.3010 C   0  0  0  0  0  1  0  0  0  0  0  0
  188.6170  173.5690  138.7790 C   0  0  0  0  0  2  0  0  0  0  0  0
  188.7330  174.4590  140.0000 C   0  0  0  0  0  2  0  0  0  0  0  0
  185.4610  177.9710  142.6540 N   0  0  0  0  0  0  0  0  0  0  0  0
  185.3330  177.8460  141.3670 C   0  0  0  0  0  0  0  0  0  0  0  0
  186.9750  175.4490  142.1290 C   0  0  0  0  0  3  0  0  0  0  0  0
  184.1520  178.4630  140.7050 C   0  0  0  0  0  1  0  0  0  0  0  0
  187.9280  175.6540  139.8160 N   0  0  0  0  0  2  0  0  0  0  0  0
  186.3180  177.1970  140.5440 N   0  0  0  0  0  0  0  0  0  0  0  0
  186.6250  177.5240  143.4170 C   0  0  2  0  0  3  0  0  0  0  0  0
  187.0660  176.1680  140.8350 C   0  0  0  0  0  0  0  0  0  0  0  0
  186.7480  176.0370  143.2990 C   0  0  0  0  0  3  0  0  0  0  0  0
  185.9750  176.7830  145.5850 C   0  0  0  0  0  2  0  0  0  0  0  0
  185.4890  178.9710  144.9110 C   0  0  0  0  0  2  0  0  0  0  0  0
  185.2120  178.8470  147.3000 O   0  0  0  0  0  0  0  0  0  0  0  0
  186.5040  177.9170  144.8260 N   0  0  2  0  0  0  0  0  0  0  0  0
  186.4790  176.8050  147.0320 C   0  0  0  0  0  2  0  0  0  0  0  0
  186.3940  178.1940  147.6730 C   0  0  0  0  0  2  0  0  0  0  0  0
  185.5810  179.7000  146.2500 C   0  0  0  0  0  2  0  0  0  0  0  0
  1  5  1  0  0  0  0
  1  3  1  1  0  0  0
  2 11  1  0  0  0  0
  3  6  1  0  0  0  0
  4  1  1  0  0  0  0
  4  7  1  1  0  0  0
  4  5  1  0  0  0  0
  5 28  1  6  0  0  0
  6 45  1  0  0  0  0
  6  2  2  0  0  0  0
  7  3  1  0  0  0  0
  8  9  1  0  0  0  0
  9 12  1  0  0  0  0
 10  8  2  0  0  0  0
 10 11  1  0  0  0  0
 11 12  2  0  0  0  0
 12 13  1  0  0  0  0
 13 15  1  0  0  0  0
 15 14  2  0  0  0  0
 16 23  1  0  0  0  0
 17 18  1  0  0  0  0
 18 24  1  1  0  0  0
 19 17  1  0  0  0  0
 20 15  1  6  0  0  0
 20 19  1  0  0  0  0
 21 20  1  0  0  0  0
 21 22  1  0  0  0  0
 22 16  1  0  0  0  0
 23 18  1  0  0  0  0
 23 27  1  1  0  0  0
 26 27  2  0  0  0  0
 27 25  1  0  0  0  0
 29 28  1  0  0  0  0
 29 31  1  0  0  0  0
 30 31  2  0  0  0  0
 31 32  1  0  0  0  0
 32 33  1  0  0  0  0
 33 34  1  0  0  0  0
 34 35  1  0  0  0  0
 36 44  1  6  0  0  0
 36 41  1  0  0  0  0
 37 39  1  1  0  0  0
 37 36  1  0  0  0  0
 40 41  1  0  0  0  0
 42 35  1  6  0  0  0
 42 43  1  0  0  0  0
 42 37  1  0  0  0  0
 43 38  1  6  0  0  0
 43 40  1  0  0  0  0
 45 46  1  0  0  0  0
 47 53  1  0  0  0  0
 48 47  2  0  0  0  0
 49 55  2  0  0  0  0
 50 48  1  0  0  0  0
 51 46  1  0  0  0  0
 51 54  1  0  0  0  0
 52 54  2  0  0  0  0
 52 48  1  0  0  0  0
 53 55  1  1  0  0  0
 53 59  1  0  0  0  0
 54 49  1  0  0  0  0
 56 60  1  0  0  0  0
 57 62  1  0  0  0  0
 58 61  1  0  0  0  0
 59 57  1  6  0  0  0
 59 56  1  0  0  0  0
 60 61  1  0  0  0  0
 62 58  1  0  0  0  0
M  END
>  <MODEL>
5

>  <REMARK>
 VINA RESULT:      -6.5      1.710      2.402
  Name = 
  17 active torsions:
  status: ('A' for Active; 'I' for Inactive)
    1  A    between atoms: C_2  and  N_37
    2  A    between atoms: C_2  and  C_50
    3  A    between atoms: C_5  and  N_18
    4  A    between atoms: C_5  and  C_27
    5  A    between atoms: N_17  and  C_41
    6  A    between atoms: C_22  and  C_33
    7  A    between atoms: C_22  and  C_36
    8  A    between atoms: N_24  and  C_48
    9  A    between atoms: N_24  and  O_53
   10  A    between atoms: C_27  and  C_55
   11  A    between atoms: C_31  and  N_44
   12  A    between atoms: C_33  and  C_57
   13  A    between atoms: N_37  and  C_54
   14  A    between atoms: C_45  and  O_47
   15  A    between atoms: C_45  and  O_53
   16  A    between atoms: O_47  and  C_50
   17  A    between atoms: C_56  and  C_61
                            x       y       z     vdW  Elec       q    Type
                         _______ _______ _______ _____ _____    ______ ____

>  <TORSDO>
F 17

$$$$
=
 OpenBabel11042414193D

 62 68  0  0  1  0  0  0  0  0999 V2000
  193.9650  171.8790  141.9590 C   0  0  1  0  0  3  0  0  0  0  0  0
  192.6710  173.9100  139.7670 N   0  0  0  0  0  0  0  0  0  0  0  0
  192.6380  172.1150  141.3590 N   0  0  0  0  0  0  0  0  0  0  0  0
  193.4540  170.7850  142.7800 C   0  0  2  0  0  3  0  0  0  0  0  0
  194.4260  170.4670  141.6690 C   0  0  2  0  0  3  0  0  0  0  0  0
  192.0020  173.0660  140.4960 C   0  0  0  0  0  0  0  0  0  0  0  0
  192.1770  171.0650  142.2030 N   0  0  0  0  0  2  0  0  0  0  0  0
  196.1890  173.5510  138.5550 N   0  0  0  0  0  0  0  0  0  0  0  0
  196.2280  174.7290  139.4240 C   0  0  0  0  0  2  0  0  0  0  0  0
  194.8000  173.0860  138.5520 C   0  0  0  0  0  3  0  0  0  0  0  0
  194.0860  173.9240  139.5430 C   0  0  0  0  0  0  0  0  0  0  0  0
  194.8700  174.8700  139.9890 C   0  0  0  0  0  0  0  0  0  0  0  0
  194.4290  175.9980  140.8660 C   0  0  0  0  0  2  0  0  0  0  0  0
  196.1080  175.6050  142.4830 O   0  0  0  0  0  0  0  0  0  0  0  0
  194.9240  175.8190  142.2740 C   0  0  0  0  0  0  0  0  0  0  0  0
  191.9490  174.6030  145.3900 N   0  0  0  0  0  2  0  0  0  0  0  0
  191.9600  177.2950  143.9910 C   0  0  0  0  0  2  0  0  0  0  0  0
  190.7630  176.6090  144.6270 C   0  0  1  0  0  3  0  0  0  0  0  0
  192.6180  176.3980  142.9620 C   0  0  0  0  0  2  0  0  0  0  0  0
  194.0010  175.9750  143.4400 C   0  0  1  0  0  3  0  0  0  0  0  0
  193.9400  174.6860  144.2500 C   0  0  0  0  0  2  0  0  0  0  0  0
  193.3090  174.9260  145.5360 N   0  0  0  0  0  2  0  0  0  0  0  0
  191.1840  175.7600  145.8280 C   0  0  1  0  0  3  0  0  0  0  0  0
  189.8660  177.5840  145.0260 F   0  0  0  0  0  0  0  0  0  0  0  0
  189.5920  175.9300  147.6120 O   0  0  0  0  0  1  0  0  0  0  0  0
  189.3190  174.1490  146.1960 O   0  0  0  0  0  0  0  0  0  0  0  0
  189.9890  175.2950  146.5980 C   0  0  0  0  0  0  0  0  0  0  0  0
  195.7520  170.2640  142.2300 N   0  0  0  0  0  2  0  0  0  0  0  0
  196.3760  169.1700  141.4980 C   0  0  0  0  0  2  0  0  0  0  0  0
  197.3250  170.5570  139.8050 O   0  0  0  0  0  0  0  0  0  0  0  0
  196.5950  169.5620  140.0770 C   0  0  0  0  0  0  0  0  0  0  0  0
  196.0050  168.8020  139.0640 O   0  0  0  0  0  0  0  0  0  0  0  0
  194.9600  169.3090  138.2440 C   0  0  0  0  0  2  0  0  0  0  0  0
  193.7510  168.7170  138.6010 O   0  0  0  0  0  0  0  0  0  0  0  0
  192.8100  169.6120  138.2200 N   0  0  0  0  0  2  0  0  0  0  0  0
  190.9660  170.9780  136.0680 C   0  0  1  0  0  3  0  0  0  0  0  0
  191.8880  169.7500  135.9520 C   0  0  2  0  0  3  0  0  0  0  0  0
  190.5820  168.1660  139.1470 N   0  0  0  0  0  1  0  0  0  0  0  0
  191.4450  168.9280  134.9140 O   0  0  0  0  0  1  0  0  0  0  0  0
  189.8350  170.1270  137.8930 C   0  0  0  0  0  2  0  0  0  0  0  0
  189.6890  170.6670  136.5980 O   0  0  0  0  0  0  0  0  0  0  0  0
  191.9410  168.9450  137.2560 C   0  0  2  0  0  3  0  0  0  0  0  0
  190.5320  168.7710  137.8260 C   0  0  1  0  0  3  0  0  0  0  0  0
  191.6290  172.1540  136.7780 C   0  0  0  0  0  1  0  0  0  0  0  0
  190.5190  173.1940  140.5530 C   0  0  0  0  0  2  0  0  0  0  0  0
  190.1360  174.2050  141.6150 C   0  0  0  0  0  2  0  0  0  0  0  0
  186.0600  177.7630  142.5140 N   0  0  0  0  0  0  0  0  0  0  0  0
  186.3760  177.4700  141.2880 C   0  0  0  0  0  0  0  0  0  0  0  0
  187.7360  175.3170  142.8820 C   0  0  0  0  0  3  0  0  0  0  0  0
  185.4690  177.9080  140.1940 C   0  0  0  0  0  1  0  0  0  0  0  0
  189.4040  175.3030  141.0080 N   0  0  0  0  0  2  0  0  0  0  0  0
  187.5990  176.7990  140.9370 N   0  0  0  0  0  0  0  0  0  0  0  0
  186.9120  177.5040  143.6730 C   0  0  2  0  0  3  0  0  0  0  0  0
  188.2350  175.8740  141.6020 C   0  0  0  0  0  0  0  0  0  0  0  0
  187.1120  176.0280  143.8150 C   0  0  0  0  0  3  0  0  0  0  0  0
  186.6490  177.1870  146.0190 C   0  0  0  0  0  2  0  0  0  0  0  0
  184.8560  177.9920  144.7470 C   0  0  0  0  0  2  0  0  0  0  0  0
  184.3620  178.3920  147.0690 O   0  0  0  0  0  0  0  0  0  0  0  0
  186.3130  178.0600  144.8920 N   0  0  2  0  0  0  0  0  0  0  0  0
  186.7310  177.9820  147.3260 C   0  0  0  0  0  2  0  0  0  0  0  0
  185.5660  178.9610  147.5050 C   0  0  0  0  0  2  0  0  0  0  0  0
  184.1700  178.8910  145.7730 C   0  0  0  0  0  2  0  0  0  0  0  0
  1  3  1  6  0  0  0
  1  4  1  0  0  0  0
  2  6  2  0  0  0  0
  3  7  1  0  0  0  0
  4  7  1  6  0  0  0
  5  1  1  0  0  0  0
  5 28  1  1  0  0  0
  5  4  1  0  0  0  0
  6 45  1  0  0  0  0
  6  3  1  0  0  0  0
  8  9  1  0  0  0  0
  9 12  1  0  0  0  0
 10  8  2  0  0  0  0
 10 11  1  0  0  0  0
 11  2  1  0  0  0  0
 11 12  2  0  0  0  0
 12 13  1  0  0  0  0
 13 15  1  0  0  0  0
 15 14  2  0  0  0  0
 16 22  1  0  0  0  0
 16 23  1  0  0  0  0
 17 18  1  0  0  0  0
 18 24  1  1  0  0  0
 18 23  1  0  0  0  0
 19 20  1  0  0  0  0
 19 17  1  0  0  0  0
 20 15  1  6  0  0  0
 20 21  1  0  0  0  0
 21 22  1  0  0  0  0
 23 27  1  6  0  0  0
 26 27  2  0  0  0  0
 27 25  1  0  0  0  0
 29 28  1  0  0  0  0
 30 31  2  0  0  0  0
 31 29  1  0  0  0  0
 32 31  1  0  0  0  0
 33 34  1  0  0  0  0
 33 32  1  0  0  0  0
 35 34  1  0  0  0  0
 36 41  1  0  0  0  0
 36 44  1  1  0  0  0
 37 39  1  6  0  0  0
 37 36  1  0  0  0  0
 37 42  1  0  0  0  0
 41 40  1  0  0  0  0
 42 43  1  0  0  0  0
 42 35  1  1  0  0  0
 43 40  1  0  0  0  0
 43 38  1  1  0  0  0
 45 46  1  0  0  0  0
 47 53  1  0  0  0  0
 48 47  2  0  0  0  0
 49 55  2  0  0  0  0
 50 48  1  0  0  0  0
 51 54  1  0  0  0  0
 51 46  1  0  0  0  0
 52 48  1  0  0  0  0
 52 54  2  0  0  0  0
 53 55  1  1  0  0  0
 53 59  1  0  0  0  0
 54 49  1  0  0  0  0
 56 60  1  0  0  0  0
 57 62  1  0  0  0  0
 58 61  1  0  0  0  0
 59 57  1  6  0  0  0
 59 56  1  0  0  0  0
 60 61  1  0  0  0  0
 62 58  1  0  0  0  0
M  END
>  <MODEL>
6

>  <REMARK>
 VINA RESULT:      -6.4      2.759      5.386
  Name = 
  17 active torsions:
  status: ('A' for Active; 'I' for Inactive)
    1  A    between atoms: C_2  and  N_37
    2  A    between atoms: C_2  and  C_50
    3  A    between atoms: C_5  and  N_18
    4  A    between atoms: C_5  and  C_27
    5  A    between atoms: N_17  and  C_41
    6  A    between atoms: C_22  and  C_33
    7  A    between atoms: C_22  and  C_36
    8  A    between atoms: N_24  and  C_48
    9  A    between atoms: N_24  and  O_53
   10  A    between atoms: C_27  and  C_55
   11  A    between atoms: C_31  and  N_44
   12  A    between atoms: C_33  and  C_57
   13  A    between atoms: N_37  and  C_54
   14  A    between atoms: C_45  and  O_47
   15  A    between atoms: C_45  and  O_53
   16  A    between atoms: O_47  and  C_50
   17  A    between atoms: C_56  and  C_61
                            x       y       z     vdW  Elec       q    Type
                         _______ _______ _______ _____ _____    ______ ____

>  <TORSDO>
F 17

$$$$
=
 OpenBabel11042414193D

 62 68  0  0  1  0  0  0  0  0999 V2000
  193.2010  175.0990  143.0770 C   0  0  1  0  0  3  0  0  0  0  0  0
  193.0200  173.8190  146.0650 N   0  0  0  0  0  0  0  0  0  0  0  0
  192.3150  175.2210  144.2500 N   0  0  0  0  0  0  0  0  0  0  0  0
  192.4120  176.0670  142.3190 C   0  0  2  0  0  3  0  0  0  0  0  0
  193.8120  176.4430  142.7430 C   0  0  2  0  0  3  0  0  0  0  0  0
  192.1250  174.5920  145.5240 C   0  0  0  0  0  0  0  0  0  0  0  0
  191.5570  176.1320  143.4610 N   0  0  0  0  0  2  0  0  0  0  0  0
  196.6950  173.8570  145.3850 N   0  0  0  0  0  0  0  0  0  0  0  0
  196.2760  172.5050  145.0100 C   0  0  0  0  0  3  0  0  0  0  0  0
  195.4940  174.5430  145.8660 C   0  0  0  0  0  2  0  0  0  0  0  0
  194.3660  173.6160  145.6210 C   0  0  0  0  0  0  0  0  0  0  0  0
  194.8100  172.4630  145.1910 C   0  0  0  0  0  0  0  0  0  0  0  0
  193.9680  171.2410  145.0100 C   0  0  0  0  0  2  0  0  0  0  0  0
  194.8440  170.1760  143.0900 O   0  0  0  0  0  0  0  0  0  0  0  0
  193.9230  170.8210  143.5670 C   0  0  0  0  0  0  0  0  0  0  0  0
  191.2210  173.1870  140.8950 N   0  0  0  0  0  2  0  0  0  0  0  0
  190.2580  171.2490  143.0220 C   0  0  0  0  0  2  0  0  0  0  0  0
  189.4900  172.4340  142.4620 C   0  0  1  0  0  3  0  0  0  0  0  0
  191.6030  171.6820  143.5700 C   0  0  0  0  0  2  0  0  0  0  0  0
  192.7280  171.1120  142.7180 C   0  0  1  0  0  3  0  0  0  0  0  0
  193.0970  172.0550  141.5800 C   0  0  0  0  0  2  0  0  0  0  0  0
  192.0390  172.0880  140.5850 N   0  0  0  0  0  2  0  0  0  0  0  0
  189.8570  172.6910  140.9990 C   0  0  1  0  0  3  0  0  0  0  0  0
  188.1370  172.1650  142.5720 F   0  0  0  0  0  0  0  0  0  0  0  0
  188.4040  174.5960  141.0770 O   0  0  0  0  0  1  0  0  0  0  0  0
  188.6250  173.5910  139.0290 O   0  0  0  0  0  0  0  0  0  0  0  0
  188.9250  173.6840  140.3810 C   0  0  0  0  0  0  0  0  0  0  0  0
  194.7140  176.2990  141.6120 N   0  0  0  0  0  2  0  0  0  0  0  0
  196.0490  176.0560  142.1420 C   0  0  0  0  0  2  0  0  0  0  0  0
  197.2280  176.0330  140.0680 O   0  0  0  0  0  0  0  0  0  0  0  0
  196.9000  175.3980  141.1100 C   0  0  0  0  0  0  0  0  0  0  0  0
  197.3430  174.0910  141.3270 O   0  0  0  0  0  0  0  0  0  0  0  0
  197.5670  173.1780  140.2600 C   0  0  0  0  0  2  0  0  0  0  0  0
  197.6340  173.8700  139.0520 O   0  0  0  0  0  0  0  0  0  0  0  0
  196.7290  173.2510  138.2570 N   0  0  0  0  0  2  0  0  0  0  0  0
  194.9970  175.3960  136.7430 C   0  0  1  0  0  3  0  0  0  0  0  0
  196.5260  175.2220  136.8140 C   0  0  2  0  0  3  0  0  0  0  0  0
  196.3780  171.4980  136.0860 N   0  0  0  0  0  1  0  0  0  0  0  0
  197.1160  175.8030  135.6900 O   0  0  0  0  0  1  0  0  0  0  0  0
  194.6450  173.2210  136.0500 C   0  0  0  0  0  2  0  0  0  0  0  0
  194.3890  174.5770  135.7590 O   0  0  0  0  0  0  0  0  0  0  0  0
  196.9330  173.7460  136.9010 C   0  0  2  0  0  3  0  0  0  0  0  0
  196.1320  172.9180  135.8950 C   0  0  1  0  0  3  0  0  0  0  0  0
  194.3220  175.2790  138.1060 C   0  0  0  0  0  1  0  0  0  0  0  0
  190.7920  174.7050  146.1790 C   0  0  0  0  0  2  0  0  0  0  0  0
  190.5870  176.1230  146.6750 C   0  0  0  0  0  2  0  0  0  0  0  0
  185.6900  177.9490  145.0160 N   0  0  0  0  0  0  0  0  0  0  0  0
  185.9450  177.9130  146.2900 C   0  0  0  0  0  0  0  0  0  0  0  0
  188.6570  177.6000  145.0340 C   0  0  0  0  0  3  0  0  0  0  0  0
  185.0110  178.5940  147.2250 C   0  0  0  0  0  1  0  0  0  0  0  0
  189.2120  176.2980  147.1070 N   0  0  0  0  0  2  0  0  0  0  0  0
  187.0570  177.1840  146.8410 N   0  0  0  0  0  0  0  0  0  0  0  0
  186.4490  177.2260  143.9980 C   0  0  2  0  0  3  0  0  0  0  0  0
  188.2430  177.0060  146.3290 C   0  0  0  0  0  0  0  0  0  0  0  0
  187.8560  177.7350  143.9820 C   0  0  0  0  0  3  0  0  0  0  0  0
  186.7730  178.0890  141.8020 C   0  0  0  0  0  2  0  0  0  0  0  0
  184.6780  178.2800  142.8280 C   0  0  0  0  0  2  0  0  0  0  0  0
  184.4000  178.7170  140.4770 O   0  0  0  0  0  0  0  0  0  0  0  0
  185.8310  177.3880  142.6770 N   0  0  2  0  0  0  0  0  0  0  0  0
  186.5780  177.6760  140.3400 C   0  0  0  0  0  2  0  0  0  0  0  0
  185.1050  177.6420  139.9190 C   0  0  0  0  0  2  0  0  0  0  0  0
  183.7630  178.1890  141.6080 C   0  0  0  0  0  2  0  0  0  0  0  0
  1  3  1  1  0  0  0
  3  6  1  0  0  0  0
  4  5  1  0  0  0  0
  4  1  1  0  0  0  0
  4  7  1  1  0  0  0
  5 28  1  6  0  0  0
  5  1  1  0  0  0  0
  6  2  2  0  0  0  0
  6 45  1  0  0  0  0
  7  3  1  0  0  0  0
  8 10  1  0  0  0  0
  9 12  1  0  0  0  0
  9  8  2  0  0  0  0
 11 10  1  0  0  0  0
 11  2  1  0  0  0  0
 12 11  2  0  0  0  0
 13 12  1  0  0  0  0
 14 15  2  0  0  0  0
 15 13  1  0  0  0  0
 16 23  1  0  0  0  0
 17 19  1  0  0  0  0
 18 24  1  6  0  0  0
 18 17  1  0  0  0  0
 20 15  1  1  0  0  0
 20 19  1  0  0  0  0
 21 20  1  0  0  0  0
 22 16  1  0  0  0  0
 22 21  1  0  0  0  0
 23 27  1  1  0  0  0
 23 18  1  0  0  0  0
 26 27  2  0  0  0  0
 27 25  1  0  0  0  0
 28 29  1  0  0  0  0
 30 31  2  0  0  0  0
 31 32  1  0  0  0  0
 31 29  1  0  0  0  0
 33 32  1  0  0  0  0
 34 33  1  0  0  0  0
 35 34  1  0  0  0  0
 36 37  1  0  0  0  0
 36 44  1  1  0  0  0
 37 39  1  6  0  0  0
 37 42  1  0  0  0  0
 41 40  1  0  0  0  0
 41 36  1  0  0  0  0
 42 35  1  1  0  0  0
 43 40  1  0  0  0  0
 43 38  1  1  0  0  0
 43 42  1  0  0  0  0
 45 46  1  0  0  0  0
 46 51  1  0  0  0  0
 47 48  2  0  0  0  0
 48 52  1  0  0  0  0
 48 50  1  0  0  0  0
 49 54  1  0  0  0  0
 53 55  1  6  0  0  0
 53 47  1  0  0  0  0
 54 52  2  0  0  0  0
 54 51  1  0  0  0  0
 55 49  2  0  0  0  0
 58 62  1  0  0  0  0
 59 56  1  6  0  0  0
 59 57  1  0  0  0  0
 59 53  1  0  0  0  0
 60 56  1  0  0  0  0
 61 60  1  0  0  0  0
 61 58  1  0  0  0  0
 62 57  1  0  0  0  0
M  END
>  <MODEL>
7

>  <REMARK>
 VINA RESULT:      -6.4      2.867      5.866
  Name = 
  17 active torsions:
  status: ('A' for Active; 'I' for Inactive)
    1  A    between atoms: C_2  and  N_37
    2  A    between atoms: C_2  and  C_50
    3  A    between atoms: C_5  and  N_18
    4  A    between atoms: C_5  and  C_27
    5  A    between atoms: N_17  and  C_41
    6  A    between atoms: C_22  and  C_33
    7  A    between atoms: C_22  and  C_36
    8  A    between atoms: N_24  and  C_48
    9  A    between atoms: N_24  and  O_53
   10  A    between atoms: C_27  and  C_55
   11  A    between atoms: C_31  and  N_44
   12  A    between atoms: C_33  and  C_57
   13  A    between atoms: N_37  and  C_54
   14  A    between atoms: C_45  and  O_47
   15  A    between atoms: C_45  and  O_53
   16  A    between atoms: O_47  and  C_50
   17  A    between atoms: C_56  and  C_61
                            x       y       z     vdW  Elec       q    Type
                         _______ _______ _______ _____ _____    ______ ____

>  <TORSDO>
F 17

$$$$
=
 OpenBabel11042414193D

 62 68  0  0  1  0  0  0  0  0999 V2000
  190.2260  176.0440  143.6560 C   0  0  1  0  0  3  0  0  0  0  0  0
  191.5730  176.6110  146.5660 N   0  0  0  0  0  0  0  0  0  0  0  0
  191.5580  176.4100  144.1750 N   0  0  0  0  0  0  0  0  0  0  0  0
  190.7080  176.0430  142.2780 C   0  0  2  0  0  3  0  0  0  0  0  0
  190.3020  174.7310  142.9050 C   0  0  2  0  0  3  0  0  0  0  0  0
  192.1600  176.7890  145.4180 C   0  0  0  0  0  0  0  0  0  0  0  0
  191.9740  176.4320  142.8130 N   0  0  0  0  0  2  0  0  0  0  0  0
  188.9180  174.1690  147.5430 N   0  0  0  0  0  0  0  0  0  0  0  0
  188.2040  175.4410  147.4110 C   0  0  0  0  0  2  0  0  0  0  0  0
  190.3250  174.4550  147.2550 C   0  0  0  0  0  3  0  0  0  0  0  0
  190.3750  175.8680  146.8150 C   0  0  0  0  0  0  0  0  0  0  0  0
  189.2020  176.4290  146.9520 C   0  0  0  0  0  0  0  0  0  0  0  0
  188.9300  177.8880  146.7690 C   0  0  0  0  0  2  0  0  0  0  0  0
  186.7730  178.1990  147.6840 O   0  0  0  0  0  0  0  0  0  0  0  0
  187.4550  178.1590  146.6710 C   0  0  0  0  0  0  0  0  0  0  0  0
  184.1510  178.6290  143.6870 N   0  0  0  0  0  2  0  0  0  0  0  0
  186.9210  177.5820  143.0250 C   0  0  0  0  0  2  0  0  0  0  0  0
  185.6380  177.2950  142.2630 C   0  0  1  0  0  3  0  0  0  0  0  0
  186.7810  177.2100  144.4870 C   0  0  0  0  0  2  0  0  0  0  0  0
  186.8140  178.4610  145.3550 C   0  0  1  0  0  3  0  0  0  0  0  0
  185.4180  179.0340  145.5600 C   0  0  0  0  0  2  0  0  0  0  0  0
  184.9230  179.6160  144.3230 N   0  0  0  0  0  2  0  0  0  0  0  0
  184.6740  178.4800  142.3380 C   0  0  1  0  0  3  0  0  0  0  0  0
  185.9660  177.0310  140.9460 F   0  0  0  0  0  0  0  0  0  0  0  0
  183.7400  178.1730  140.1510 O   0  0  0  0  0  0  0  0  0  0  0  0
  182.2330  178.2840  141.8740 O   0  0  0  0  0  1  0  0  0  0  0  0
  183.5330  178.3000  141.3870 C   0  0  0  0  0  0  0  0  0  0  0  0
  188.9760  174.3620  142.4370 N   0  0  0  0  0  2  0  0  0  0  0  0
  188.8840  174.7410  141.0340 C   0  0  0  0  0  2  0  0  0  0  0  0
  187.9200  172.5750  140.7600 O   0  0  0  0  0  0  0  0  0  0  0  0
  188.4820  173.5650  140.2100 C   0  0  0  0  0  0  0  0  0  0  0  0
  188.7120  173.5890  138.8330 O   0  0  0  0  0  0  0  0  0  0  0  0
  189.9090  173.0860  138.2530 C   0  0  0  0  0  2  0  0  0  0  0  0
  190.1830  173.7670  137.0690 O   0  0  0  0  0  0  0  0  0  0  0  0
  191.3670  174.3830  137.2980 N   0  0  0  0  0  2  0  0  0  0  0  0
  194.5070  174.5020  137.1680 C   0  0  1  0  0  3  0  0  0  0  0  0
  193.5240  173.4930  136.5460 C   0  0  2  0  0  3  0  0  0  0  0  0
  191.2520  176.1990  135.1530 N   0  0  0  0  0  1  0  0  0  0  0  0
  194.1150  172.8880  135.4350 O   0  0  0  0  0  1  0  0  0  0  0  0
  193.4420  176.3260  136.2320 C   0  0  0  0  0  2  0  0  0  0  0  0
  194.6810  175.6680  136.3800 O   0  0  0  0  0  0  0  0  0  0  0  0
  192.2060  174.1570  136.1280 C   0  0  2  0  0  3  0  0  0  0  0  0
  192.4870  175.4740  135.4000 C   0  0  1  0  0  3  0  0  0  0  0  0
  194.1910  174.8190  138.6270 C   0  0  0  0  0  1  0  0  0  0  0  0
  193.4380  177.5550  145.3840 C   0  0  0  0  0  2  0  0  0  0  0  0
  194.5940  176.6310  145.7120 C   0  0  0  0  0  2  0  0  0  0  0  0
  195.1270  173.0210  141.6180 N   0  0  0  0  0  0  0  0  0  0  0  0
  196.1440  173.7670  141.9320 C   0  0  0  0  0  0  0  0  0  0  0  0
  194.3070  174.0830  144.2880 C   0  0  0  0  0  3  0  0  0  0  0  0
  197.4730  173.4430  141.3470 C   0  0  0  0  0  1  0  0  0  0  0  0
  195.3580  176.3520  144.5090 N   0  0  0  0  0  2  0  0  0  0  0  0
  196.0290  174.9330  142.7670 N   0  0  0  0  0  0  0  0  0  0  0  0
  193.7480  173.2910  142.0190 C   0  0  2  0  0  3  0  0  0  0  0  0
  195.2370  175.1240  143.7860 C   0  0  0  0  0  0  0  0  0  0  0  0
  193.6490  173.2300  143.5110 C   0  0  0  0  0  3  0  0  0  0  0  0
  192.3330  171.4250  142.4450 C   0  0  0  0  0  2  0  0  0  0  0  0
  193.6080  171.4910  140.4840 C   0  0  0  0  0  2  0  0  0  0  0  0
  191.9290  169.7860  140.2240 O   0  0  0  0  0  0  0  0  0  0  0  0
  192.8300  172.3250  141.4040 N   0  0  2  0  0  0  0  0  0  0  0  0
  190.9260  170.9190  142.1100 C   0  0  0  0  0  2  0  0  0  0  0  0
  190.7840  170.4700  140.6520 C   0  0  0  0  0  2  0  0  0  0  0  0
  192.6860  170.7380  139.5280 C   0  0  0  0  0  2  0  0  0  0  0  0
  1  3  1  1  0  0  0
  2 11  1  0  0  0  0
  3  6  1  0  0  0  0
  4  7  1  1  0  0  0
  4  5  1  0  0  0  0
  4  1  1  0  0  0  0
  5 28  1  6  0  0  0
  5  1  1  0  0  0  0
  6  2  2  0  0  0  0
  7  3  1  0  0  0  0
  9  8  1  0  0  0  0
 10  8  2  0  0  0  0
 11 12  2  0  0  0  0
 11 10  1  0  0  0  0
 12  9  1  0  0  0  0
 13 12  1  0  0  0  0
 15 13  1  0  0  0  0
 15 14  2  0  0  0  0
 16 22  1  0  0  0  0
 17 19  1  0  0  0  0
 18 24  1  6  0  0  0
 18 23  1  0  0  0  0
 18 17  1  0  0  0  0
 19 20  1  0  0  0  0
 20 21  1  0  0  0  0
 20 15  1  1  0  0  0
 22 21  1  0  0  0  0
 23 27  1  6  0  0  0
 23 16  1  0  0  0  0
 25 27  2  0  0  0  0
 27 26  1  0  0  0  0
 29 28  1  0  0  0  0
 31 30  2  0  0  0  0
 31 29  1  0  0  0  0
 32 31  1  0  0  0  0
 33 32  1  0  0  0  0
 34 35  1  0  0  0  0
 34 33  1  0  0  0  0
 36 44  1  1  0  0  0
 37 39  1  6  0  0  0
 37 36  1  0  0  0  0
 40 41  1  0  0  0  0
 41 36  1  0  0  0  0
 42 37  1  0  0  0  0
 42 35  1  1  0  0  0
 43 38  1  1  0  0  0
 43 42  1  0  0  0  0
 43 40  1  0  0  0  0
 45  6  1  0  0  0  0
 45 46  1  0  0  0  0
 47 48  2  0  0  0  0
 47 53  1  0  0  0  0
 48 52  1  0  0  0  0
 50 48  1  0  0  0  0
 51 46  1  0  0  0  0
 52 54  2  0  0  0  0
 53 55  1  1  0  0  0
 54 49  1  0  0  0  0
 54 51  1  0  0  0  0
 55 49  2  0  0  0  0
 58 61  1  0  0  0  0
 59 57  1  6  0  0  0
 59 53  1  0  0  0  0
 59 56  1  0  0  0  0
 60 56  1  0  0  0  0
 61 60  1  0  0  0  0
 62 58  1  0  0  0  0
 62 57  1  0  0  0  0
M  END
>  <MODEL>
8

>  <REMARK>
 VINA RESULT:      -6.2      2.831      8.413
  Name = 
  17 active torsions:
  status: ('A' for Active; 'I' for Inactive)
    1  A    between atoms: C_2  and  N_37
    2  A    between atoms: C_2  and  C_50
    3  A    between atoms: C_5  and  N_18
    4  A    between atoms: C_5  and  C_27
    5  A    between atoms: N_17  and  C_41
    6  A    between atoms: C_22  and  C_33
    7  A    between atoms: C_22  and  C_36
    8  A    between atoms: N_24  and  C_48
    9  A    between atoms: N_24  and  O_53
   10  A    between atoms: C_27  and  C_55
   11  A    between atoms: C_31  and  N_44
   12  A    between atoms: C_33  and  C_57
   13  A    between atoms: N_37  and  C_54
   14  A    between atoms: C_45  and  O_47
   15  A    between atoms: C_45  and  O_53
   16  A    between atoms: O_47  and  C_50
   17  A    between atoms: C_56  and  C_61
                            x       y       z     vdW  Elec       q    Type
                         _______ _______ _______ _____ _____    ______ ____

>  <TORSDO>
F 17

$$$$
=
 OpenBabel11042414193D

 62 68  0  0  1  0  0  0  0  0999 V2000
  191.5900  174.6240  143.2460 C   0  0  1  0  0  3  0  0  0  0  0  0
  193.5520  173.1590  145.3910 N   0  0  0  0  0  0  0  0  0  0  0  0
  191.8560  173.2450  143.6960 N   0  0  0  0  0  0  0  0  0  0  0  0
  190.5710  174.1730  142.3010 C   0  0  2  0  0  3  0  0  0  0  0  0
  190.1420  174.9860  143.4990 C   0  0  2  0  0  3  0  0  0  0  0  0
  192.7860  172.5490  144.5340 C   0  0  0  0  0  0  0  0  0  0  0  0
  190.8810  172.8480  142.7370 N   0  0  0  0  0  2  0  0  0  0  0  0
  192.8490  176.4990  146.9150 N   0  0  0  0  0  0  0  0  0  0  0  0
  194.1890  176.6420  146.3410 C   0  0  0  0  0  3  0  0  0  0  0  0
  192.4290  175.1220  146.6440 C   0  0  0  0  0  2  0  0  0  0  0  0
  193.4820  174.5340  145.7840 C   0  0  0  0  0  0  0  0  0  0  0  0
  194.4840  175.3650  145.6590 C   0  0  0  0  0  0  0  0  0  0  0  0
  195.7880  175.0320  145.0080 C   0  0  0  0  0  2  0  0  0  0  0  0
  196.3030  177.0250  143.8460 O   0  0  0  0  0  0  0  0  0  0  0  0
  195.9970  175.8450  143.7610 C   0  0  0  0  0  0  0  0  0  0  0  0
  196.7740  175.3240  139.3840 N   0  0  0  0  0  2  0  0  0  0  0  0
  194.1360  174.6910  140.7420 C   0  0  0  0  0  2  0  0  0  0  0  0
  194.3400  175.0460  139.2790 C   0  0  1  0  0  3  0  0  0  0  0  0
  194.7130  175.7600  141.6480 C   0  0  0  0  0  2  0  0  0  0  0  0
  195.9140  175.2160  142.4080 C   0  0  1  0  0  3  0  0  0  0  0  0
  197.2080  175.4350  141.6360 C   0  0  0  0  0  2  0  0  0  0  0  0
  197.2550  174.5710  140.4680 N   0  0  0  0  0  2  0  0  0  0  0  0
  195.6980  174.5580  138.7740 C   0  0  1  0  0  3  0  0  0  0  0  0
  193.3220  174.4630  138.5460 F   0  0  0  0  0  0  0  0  0  0  0  0
  196.2300  175.7350  136.7540 O   0  0  0  0  0  1  0  0  0  0  0  0
  195.3770  173.6250  136.4850 O   0  0  0  0  0  0  0  0  0  0  0  0
  195.7900  174.6810  137.2860 C   0  0  0  0  0  0  0  0  0  0  0  0
  189.9050  176.3610  143.0890 N   0  0  0  0  0  2  0  0  0  0  0  0
  188.7900  176.3550  142.1530 C   0  0  0  0  0  2  0  0  0  0  0  0
  188.6860  178.6660  141.5670 O   0  0  0  0  0  0  0  0  0  0  0  0
  188.1240  177.6890  142.1390 C   0  0  0  0  0  0  0  0  0  0  0  0
  186.8710  177.8290  142.7400 O   0  0  0  0  0  0  0  0  0  0  0  0
  186.1130  179.0290  142.6460 C   0  0  0  0  0  2  0  0  0  0  0  0
  185.9720  179.5980  143.9100 O   0  0  0  0  0  0  0  0  0  0  0  0
  186.4910  178.6770  144.7550 N   0  0  0  0  0  2  0  0  0  0  0  0
  186.9470  177.0100  147.3840 C   0  0  1  0  0  3  0  0  0  0  0  0
  187.0330  178.5290  147.1420 C   0  0  2  0  0  3  0  0  0  0  0  0
  183.7270  178.6630  145.2770 N   0  0  0  0  0  1  0  0  0  0  0  0
  186.8170  179.2070  148.3430 O   0  0  0  0  0  1  0  0  0  0  0  0
  184.8140  176.8540  146.5110 C   0  0  0  0  0  2  0  0  0  0  0  0
  185.6250  176.5600  147.6270 O   0  0  0  0  0  0  0  0  0  0  0  0
  186.0170  179.0030  146.0950 C   0  0  2  0  0  3  0  0  0  0  0  0
  184.6520  178.3640  146.3580 C   0  0  1  0  0  3  0  0  0  0  0  0
  187.6580  176.1960  146.3080 C   0  0  0  0  0  1  0  0  0  0  0  0
  192.9910  171.0910  144.3080 C   0  0  0  0  0  2  0  0  0  0  0  0
  194.4640  170.7580  144.4400 C   0  0  0  0  0  2  0  0  0  0  0  0
  194.5010  171.0640  138.9650 N   0  0  0  0  0  0  0  0  0  0  0  0
  195.6170  171.2370  139.6090 C   0  0  0  0  0  0  0  0  0  0  0  0
  193.8080  170.0230  141.6780 C   0  0  0  0  0  3  0  0  0  0  0  0
  196.8890  171.2590  138.8390 C   0  0  0  0  0  1  0  0  0  0  0  0
  195.1970  171.3180  143.3180 N   0  0  0  0  0  2  0  0  0  0  0  0
  195.6700  171.4750  141.0270 N   0  0  0  0  0  0  0  0  0  0  0  0
  193.1740  171.1410  139.5720 C   0  0  2  0  0  3  0  0  0  0  0  0
  194.8990  170.9870  141.9600 C   0  0  0  0  0  0  0  0  0  0  0  0
  193.0390  170.0570  140.5950 C   0  0  0  0  0  3  0  0  0  0  0  0
  191.5320  169.6820  138.6530 C   0  0  0  0  0  2  0  0  0  0  0  0
  192.7750  171.0700  137.2370 C   0  0  0  0  0  2  0  0  0  0  0  0
  190.8820  170.2450  136.0000 O   0  0  0  0  0  0  0  0  0  0  0  0
  192.1280  171.0150  138.5510 N   0  0  2  0  0  0  0  0  0  0  0  0
  190.0660  169.6980  138.2090 C   0  0  0  0  0  2  0  0  0  0  0  0
  189.8440  170.4810  136.9100 C   0  0  0  0  0  2  0  0  0  0  0  0
  191.7470  171.3390  136.1410 C   0  0  0  0  0  2  0  0  0  0  0  0
  1  5  1  0  0  0  0
  1  3  1  1  0  0  0
  2 11  1  0  0  0  0
  3  6  1  0  0  0  0
  4  7  1  1  0  0  0
  4  1  1  0  0  0  0
  4  5  1  0  0  0  0
  5 28  1  6  0  0  0
  6  2  2  0  0  0  0
  7  3  1  0  0  0  0
  9  8  2  0  0  0  0
 10  8  1  0  0  0  0
 11 10  1  0  0  0  0
 12 11  2  0  0  0  0
 12  9  1  0  0  0  0
 13 12  1  0  0  0  0
 15 14  2  0  0  0  0
 15 13  1  0  0  0  0
 16 22  1  0  0  0  0
 17 19  1  0  0  0  0
 18 24  1  6  0  0  0
 18 17  1  0  0  0  0
 19 20  1  0  0  0  0
 20 15  1  1  0  0  0
 21 20  1  0  0  0  0
 22 21  1  0  0  0  0
 23 27  1  6  0  0  0
 23 18  1  0  0  0  0
 23 16  1  0  0  0  0
 25 27  1  0  0  0  0
 26 27  2  0  0  0  0
 29 28  1  0  0  0  0
 30 31  2  0  0  0  0
 31 29  1  0  0  0  0
 31 32  1  0  0  0  0
 33 32  1  0  0  0  0
 33 34  1  0  0  0  0
 34 35  1  0  0  0  0
 36 44  1  6  0  0  0
 36 41  1  0  0  0  0
 37 36  1  0  0  0  0
 37 39  1  1  0  0  0
 40 41  1  0  0  0  0
 42 35  1  6  0  0  0
 42 43  1  0  0  0  0
 42 37  1  0  0  0  0
 43 38  1  6  0  0  0
 43 40  1  0  0  0  0
 45 46  1  0  0  0  0
 45  6  1  0  0  0  0
 47 53  1  0  0  0  0
 47 48  2  0  0  0  0
 48 52  1  0  0  0  0
 49 54  1  0  0  0  0
 50 48  1  0  0  0  0
 51 46  1  0  0  0  0
 52 54  2  0  0  0  0
 53 55  1  1  0  0  0
 54 51  1  0  0  0  0
 55 49  2  0  0  0  0
 58 62  1  0  0  0  0
 58 61  1  0  0  0  0
 59 57  1  6  0  0  0
 59 56  1  0  0  0  0
 59 53  1  0  0  0  0
 60 56  1  0  0  0  0
 61 60  1  0  0  0  0
 62 57  1  0  0  0  0
M  END
>  <MODEL>
9

>  <REMARK>
 VINA RESULT:      -6.2      2.637      9.753
  Name = 
  17 active torsions:
  status: ('A' for Active; 'I' for Inactive)
    1  A    between atoms: C_2  and  N_37
    2  A    between atoms: C_2  and  C_50
    3  A    between atoms: C_5  and  N_18
    4  A    between atoms: C_5  and  C_27
    5  A    between atoms: N_17  and  C_41
    6  A    between atoms: C_22  and  C_33
    7  A    between atoms: C_22  and  C_36
    8  A    between atoms: N_24  and  C_48
    9  A    between atoms: N_24  and  O_53
   10  A    between atoms: C_27  and  C_55
   11  A    between atoms: C_31  and  N_44
   12  A    between atoms: C_33  and  C_57
   13  A    between atoms: N_37  and  C_54
   14  A    between atoms: C_45  and  O_47
   15  A    between atoms: C_45  and  O_53
   16  A    between atoms: O_47  and  C_50
   17  A    between atoms: C_56  and  C_61
                            x       y       z     vdW  Elec       q    Type
                         _______ _______ _______ _____ _____    ______ ____

>  <TORSDO>
F 17

$$$$
