=
 OpenBabel11042414433D

 36 39  0  0  1  0  0  0  0  0999 V2000
  189.2190  175.6320  142.5210 C   0  0  1  0  0  3  0  0  0  0  0  0
  188.3160  174.7700  140.4830 O   0  0  0  0  0  0  0  0  0  0  0  0
  187.2490  176.6630  141.2830 N   0  0  0  0  0  2  0  0  0  0  0  0
  188.2340  175.6360  141.3870 C   0  0  0  0  0  0  0  0  0  0  0  0
  186.6580  177.2740  142.4250 C   0  0  0  0  0  3  0  0  0  0  0  0
  186.0230  176.5470  143.3370 C   0  0  0  0  0  3  0  0  0  0  0  0
  184.5920  178.2280  144.5090 C   0  0  0  0  0  3  0  0  0  0  0  0
  185.9220  176.6810  145.8080 C   0  0  0  0  0  3  0  0  0  0  0  0
  185.5100  177.3190  146.9830 C   0  0  0  0  0  3  0  0  0  0  0  0
  184.6340  178.4000  146.9230 C   0  0  0  0  0  3  0  0  0  0  0  0
  185.4830  177.1490  144.5660 C   0  0  0  0  0  0  0  0  0  0  0  0
  184.1580  178.8430  145.6840 C   0  0  0  0  0  3  0  0  0  0  0  0
  189.5930  174.2400  143.0510 C   0  0  0  0  0  2  0  0  0  0  0  0
  193.5810  172.6420  144.9280 C   0  0  0  0  0  1  0  0  0  0  0  0
  194.0950  174.5880  143.3950 C   0  0  0  0  0  0  0  0  0  0  0  0
  195.7750  175.9930  143.0010 C   0  0  0  0  0  0  0  0  0  0  0  0
  193.7490  175.4380  142.2280 C   0  0  1  0  0  3  0  0  0  0  0  0
  191.0610  174.0250  142.8710 C   0  0  0  0  0  0  0  0  0  0  0  0
  193.1590  173.6720  143.9890 N   0  0  0  0  0  0  0  0  0  0  0  0
  197.0800  176.6940  143.1410 C   0  0  0  0  0  1  0  0  0  0  0  0
  192.6700  173.7030  140.7920 C   0  0  0  0  0  3  0  0  0  0  0  0
  191.7930  173.9800  143.9480 N   0  0  0  0  0  0  0  0  0  0  0  0
  195.3100  174.9030  143.8310 C   0  0  0  0  0  0  0  0  0  0  0  0
  194.9050  176.3150  142.1070 N   0  0  0  0  0  0  0  0  0  0  0  0
  191.4900  173.5150  141.5940 N   0  0  0  0  0  2  0  0  0  0  0  0
  193.6670  174.5550  141.0340 C   0  0  0  0  0  3  0  0  0  0  0  0
  196.5650  173.9300  145.9490 C   0  0  0  0  0  3  0  0  0  0  0  0
  195.9980  174.3730  144.9810 C   0  0  0  0  0  0  0  0  0  0  0  0
  190.2680  176.5730  142.3550 O   0  0  0  0  0  0  0  0  0  0  0  0
  190.1410  177.6430  143.2660 C   0  0  0  0  0  2  0  0  0  0  0  0
  190.5940  177.2820  144.5380 O   0  0  0  0  0  0  0  0  0  0  0  0
  189.7150  177.9010  145.4350 C   0  0  0  0  0  2  0  0  0  0  0  0
  189.4010  176.9820  146.6100 C   0  0  0  0  0  2  0  0  0  0  0  0
  190.2530  175.1050  147.7760 O   0  0  0  0  0  0  0  0  0  0  0  0
  190.1900  175.6910  146.4990 C   0  0  1  0  0  3  0  0  0  0  0  0
  189.3360  174.5460  146.8730 C   0  0  0  0  0  2  0  0  0  0  0  0
  1 13  1  6  0  0  0
  2  4  2  0  0  0  0
  3  4  1  0  0  0  0
  3  5  1  0  0  0  0
  4  1  1  0  0  0  0
  5  6  2  0  0  0  0
  6 11  1  0  0  0  0
  7 11  2  0  0  0  0
  7 12  1  0  0  0  0
  8  9  2  0  0  0  0
 10  9  1  0  0  0  0
 11  8  1  0  0  0  0
 12 10  2  0  0  0  0
 15 23  2  0  0  0  0
 15 19  1  0  0  0  0
 16 20  1  0  0  0  0
 16 23  1  0  0  0  0
 17 26  1  6  0  0  0
 17 15  1  0  0  0  0
 18 13  1  0  0  0  0
 18 22  2  0  0  0  0
 19 14  1  0  0  0  0
 21 26  2  0  0  0  0
 21 25  1  0  0  0  0
 22 19  1  0  0  0  0
 23 28  1  0  0  0  0
 24 17  1  0  0  0  0
 24 16  2  0  0  0  0
 25 18  1  0  0  0  0
 28 27  3  0  0  0  0
 29  1  1  0  0  0  0
 29 30  1  0  0  0  0
 30 31  1  0  0  0  0
 31 32  1  0  0  0  0
 32 33  1  0  0  0  0
 35 33  1  1  0  0  0
 35 36  1  0  0  0  0
 35 34  1  0  0  0  0
 36 34  1  0  0  0  0
M  END
>  <MODEL>
1

>  <REMARK>
 VINA RESULT:      -6.8      0.000      0.000
  Name = 
  12 active torsions:
  status: ('A' for Active; 'I' for Inactive)
    1  A    between atoms: C_3  and  C_12
    2  A    between atoms: C_3  and  C_17
    3  A    between atoms: C_6  and  N_26
    4  A    between atoms: C_7  and  C_34
    5  A    between atoms: O_8  and  C_22
    6  A    between atoms: O_8  and  C_30
    7  A    between atoms: C_17  and  C_28
    8  A    between atoms: C_17  and  O_31
    9  A    between atoms: C_18  and  C_25
   10  A    between atoms: C_22  and  O_31
   11  A    between atoms: C_25  and  C_30
   12  A    between atoms: C_27  and  C_32
                            x       y       z     vdW  Elec       q    Type
                         _______ _______ _______ _____ _____    ______ ____

>  <TORSDO>
F 12

$$$$
=
 OpenBabel11042414433D

 36 39  0  0  1  0  0  0  0  0999 V2000
  188.3390  176.7400  143.4070 C   0  0  1  0  0  3  0  0  0  0  0  0
  187.0950  176.3390  145.4080 O   0  0  0  0  0  0  0  0  0  0  0  0
  189.1690  177.3100  145.7450 N   0  0  0  0  0  2  0  0  0  0  0  0
  188.1640  176.7550  144.8980 C   0  0  0  0  0  0  0  0  0  0  0  0
  190.5570  177.2360  145.4320 C   0  0  0  0  0  3  0  0  0  0  0  0
  191.3170  176.2660  145.9250 C   0  0  0  0  0  3  0  0  0  0  0  0
  193.1780  176.5070  144.2730 C   0  0  0  0  0  3  0  0  0  0  0  0
  193.6260  175.5330  146.4410 C   0  0  0  0  0  3  0  0  0  0  0  0
  194.9460  175.2820  146.0520 C   0  0  0  0  0  3  0  0  0  0  0  0
  195.3840  175.6520  144.7830 C   0  0  0  0  0  3  0  0  0  0  0  0
  192.7310  176.1240  145.5440 C   0  0  0  0  0  0  0  0  0  0  0  0
  194.5030  176.2840  143.8980 C   0  0  0  0  0  3  0  0  0  0  0  0
  187.7350  175.5210  142.6940 C   0  0  0  0  0  2  0  0  0  0  0  0
  190.5820  172.3080  144.5790 C   0  0  0  0  0  1  0  0  0  0  0  0
  191.7280  173.3870  142.5980 C   0  0  0  0  0  0  0  0  0  0  0  0
  193.7820  173.5570  141.7570 C   0  0  0  0  0  0  0  0  0  0  0  0
  191.6580  174.0940  141.2950 C   0  0  1  0  0  3  0  0  0  0  0  0
  188.8100  174.5110  142.4570 C   0  0  0  0  0  0  0  0  0  0  0  0
  190.5870  173.2410  143.4610 N   0  0  0  0  0  0  0  0  0  0  0  0
  195.2590  173.4370  141.6270 C   0  0  0  0  0  1  0  0  0  0  0  0
  189.5810  173.0400  140.3930 C   0  0  0  0  0  3  0  0  0  0  0  0
  189.6030  174.2370  143.4550 N   0  0  0  0  0  0  0  0  0  0  0  0
  192.9870  173.0450  142.8520 C   0  0  0  0  0  0  0  0  0  0  0  0
  193.0530  174.1610  140.8830 N   0  0  0  0  0  0  0  0  0  0  0  0
  188.6560  173.6580  141.3050 N   0  0  0  0  0  2  0  0  0  0  0  0
  190.9020  173.2290  140.3510 C   0  0  0  0  0  3  0  0  0  0  0  0
  193.9350  171.8710  145.0270 C   0  0  0  0  0  3  0  0  0  0  0  0
  193.5040  172.4100  144.0380 C   0  0  0  0  0  0  0  0  0  0  0  0
  188.1450  178.0110  142.8080 O   0  0  0  0  0  0  0  0  0  0  0  0
  186.8660  178.1070  142.2200 C   0  0  0  0  0  2  0  0  0  0  0  0
  186.1840  179.2400  142.6730 O   0  0  0  0  0  0  0  0  0  0  0  0
  185.1890  178.7560  143.5300 C   0  0  0  0  0  2  0  0  0  0  0  0
  185.3770  179.2990  144.9420 C   0  0  0  0  0  2  0  0  0  0  0  0
  184.3710  177.5580  146.1920 O   0  0  0  0  0  0  0  0  0  0  0  0
  184.2060  178.9050  145.8230 C   0  0  1  0  0  3  0  0  0  0  0  0
  184.6920  178.5190  147.1620 C   0  0  0  0  0  2  0  0  0  0  0  0
  1 13  1  6  0  0  0
  1  4  1  0  0  0  0
  4  2  2  0  0  0  0
  4  3  1  0  0  0  0
  5  3  1  0  0  0  0
  5  6  2  0  0  0  0
  7 11  1  0  0  0  0
  9  8  1  0  0  0  0
 10  9  2  0  0  0  0
 11  6  1  0  0  0  0
 11  8  2  0  0  0  0
 12  7  2  0  0  0  0
 12 10  1  0  0  0  0
 15 23  2  0  0  0  0
 15 19  1  0  0  0  0
 16 23  1  0  0  0  0
 17 26  1  6  0  0  0
 17 15  1  0  0  0  0
 18 13  1  0  0  0  0
 18 22  2  0  0  0  0
 19 14  1  0  0  0  0
 20 16  1  0  0  0  0
 21 25  1  0  0  0  0
 22 19  1  0  0  0  0
 23 28  1  0  0  0  0
 24 17  1  0  0  0  0
 24 16  2  0  0  0  0
 25 18  1  0  0  0  0
 26 21  2  0  0  0  0
 28 27  3  0  0  0  0
 29  1  1  0  0  0  0
 30 31  1  0  0  0  0
 30 29  1  0  0  0  0
 31 32  1  0  0  0  0
 32 33  1  0  0  0  0
 34 36  1  0  0  0  0
 35 33  1  6  0  0  0
 35 34  1  0  0  0  0
 35 36  1  0  0  0  0
M  END
>  <MODEL>
2

>  <REMARK>
 VINA RESULT:      -6.7      2.381      5.337
  Name = 
  12 active torsions:
  status: ('A' for Active; 'I' for Inactive)
    1  A    between atoms: C_3  and  C_12
    2  A    between atoms: C_3  and  C_17
    3  A    between atoms: C_6  and  N_26
    4  A    between atoms: C_7  and  C_34
    5  A    between atoms: O_8  and  C_22
    6  A    between atoms: O_8  and  C_30
    7  A    between atoms: C_17  and  C_28
    8  A    between atoms: C_17  and  O_31
    9  A    between atoms: C_18  and  C_25
   10  A    between atoms: C_22  and  O_31
   11  A    between atoms: C_25  and  C_30
   12  A    between atoms: C_27  and  C_32
                            x       y       z     vdW  Elec       q    Type
                         _______ _______ _______ _____ _____    ______ ____

>  <TORSDO>
F 12

$$$$
=
 OpenBabel11042414433D

 36 39  0  0  1  0  0  0  0  0999 V2000
  191.1350  176.2600  145.9170 C   0  0  1  0  0  3  0  0  0  0  0  0
  191.1160  175.3350  148.1210 O   0  0  0  0  0  0  0  0  0  0  0  0
  189.0760  175.2580  147.0280 N   0  0  0  0  0  2  0  0  0  0  0  0
  190.4550  175.6200  147.0930 C   0  0  0  0  0  0  0  0  0  0  0  0
  188.1240  176.0090  146.2810 C   0  0  0  0  0  3  0  0  0  0  0  0
  187.1610  176.6910  146.8900 C   0  0  0  0  0  3  0  0  0  0  0  0
  186.6480  178.2730  145.0240 C   0  0  0  0  0  3  0  0  0  0  0  0
  184.9070  177.6730  146.5930 C   0  0  0  0  0  3  0  0  0  0  0  0
  184.0350  178.5680  145.9630 C   0  0  0  0  0  3  0  0  0  0  0  0
  184.4640  179.3030  144.8610 C   0  0  0  0  0  3  0  0  0  0  0  0
  186.2240  177.5410  146.1400 C   0  0  0  0  0  0  0  0  0  0  0  0
  185.7670  179.1410  144.3780 C   0  0  0  0  0  3  0  0  0  0  0  0
  192.4010  175.5400  145.4290 C   0  0  0  0  0  2  0  0  0  0  0  0
  193.4360  173.6300  141.2740 C   0  0  0  0  0  1  0  0  0  0  0  0
  190.9270  173.6280  141.5970 C   0  0  0  0  0  0  0  0  0  0  0  0
  189.0930  173.3760  140.3620 C   0  0  0  0  0  0  0  0  0  0  0  0
  189.7410  173.6230  142.4910 C   0  0  1  0  0  3  0  0  0  0  0  0
  192.0230  174.5410  144.3830 C   0  0  0  0  0  0  0  0  0  0  0  0
  192.2540  173.9120  142.0750 N   0  0  0  0  0  0  0  0  0  0  0  0
  188.2140  173.2110  139.1720 C   0  0  0  0  0  1  0  0  0  0  0  0
  190.6740  172.2620  144.3650 C   0  0  0  0  0  3  0  0  0  0  0  0
  192.4080  174.7820  143.1620 N   0  0  0  0  0  0  0  0  0  0  0  0
  190.5370  173.4520  140.3390 C   0  0  0  0  0  0  0  0  0  0  0  0
  188.6300  173.4860  141.5590 N   0  0  0  0  0  0  0  0  0  0  0  0
  191.6120  173.2400  144.8480 N   0  0  0  0  0  2  0  0  0  0  0  0
  189.8250  172.4100  143.3470 C   0  0  0  0  0  3  0  0  0  0  0  0
  192.0510  173.4720  138.1670 C   0  0  0  0  0  3  0  0  0  0  0  0
  191.3580  173.4650  139.1540 C   0  0  0  0  0  0  0  0  0  0  0  0
  190.2280  176.7310  144.9330 O   0  0  0  0  0  0  0  0  0  0  0  0
  190.6990  177.9190  144.3340 C   0  0  0  0  0  2  0  0  0  0  0  0
  190.5200  177.8920  142.9480 O   0  0  0  0  0  0  0  0  0  0  0  0
  189.3290  177.1860  142.7410 C   0  0  0  0  0  2  0  0  0  0  0  0
  188.4180  177.9320  141.7730 C   0  0  0  0  0  2  0  0  0  0  0  0
  186.3200  176.8330  141.7540 O   0  0  0  0  0  0  0  0  0  0  0  0
  187.5190  176.9590  141.0320 C   0  0  1  0  0  3  0  0  0  0  0  0
  186.2810  177.6400  140.6080 C   0  0  0  0  0  2  0  0  0  0  0  0
  1 13  1  6  0  0  0
  1  4  1  0  0  0  0
  3  4  1  0  0  0  0
  4  2  2  0  0  0  0
  5  6  2  0  0  0  0
  5  3  1  0  0  0  0
  7 11  1  0  0  0  0
  9  8  1  0  0  0  0
 10  9  2  0  0  0  0
 11  8  2  0  0  0  0
 11  6  1  0  0  0  0
 12 10  1  0  0  0  0
 12  7  2  0  0  0  0
 14 19  1  0  0  0  0
 15 19  1  0  0  0  0
 15 17  1  0  0  0  0
 16 24  2  0  0  0  0
 17 26  1  1  0  0  0
 18 25  1  0  0  0  0
 18 13  1  0  0  0  0
 19 22  1  0  0  0  0
 20 16  1  0  0  0  0
 21 25  1  0  0  0  0
 22 18  2  0  0  0  0
 23 16  1  0  0  0  0
 23 15  2  0  0  0  0
 24 17  1  0  0  0  0
 26 21  2  0  0  0  0
 27 28  3  0  0  0  0
 28 23  1  0  0  0  0
 29  1  1  0  0  0  0
 30 29  1  0  0  0  0
 31 30  1  0  0  0  0
 32 31  1  0  0  0  0
 33 32  1  0  0  0  0
 35 34  1  0  0  0  0
 35 33  1  1  0  0  0
 36 35  1  0  0  0  0
 36 34  1  0  0  0  0
M  END
>  <MODEL>
3

>  <REMARK>
 VINA RESULT:      -6.6      2.210      5.069
  Name = 
  12 active torsions:
  status: ('A' for Active; 'I' for Inactive)
    1  A    between atoms: C_3  and  C_12
    2  A    between atoms: C_3  and  C_17
    3  A    between atoms: C_6  and  N_26
    4  A    between atoms: C_7  and  C_34
    5  A    between atoms: O_8  and  C_22
    6  A    between atoms: O_8  and  C_30
    7  A    between atoms: C_17  and  C_28
    8  A    between atoms: C_17  and  O_31
    9  A    between atoms: C_18  and  C_25
   10  A    between atoms: C_22  and  O_31
   11  A    between atoms: C_25  and  C_30
   12  A    between atoms: C_27  and  C_32
                            x       y       z     vdW  Elec       q    Type
                         _______ _______ _______ _____ _____    ______ ____

>  <TORSDO>
F 12

$$$$
=
 OpenBabel11042414433D

 36 39  0  0  1  0  0  0  0  0999 V2000
  190.5060  175.0370  144.8280 C   0  0  1  0  0  3  0  0  0  0  0  0
  191.1680  174.9090  147.1210 O   0  0  0  0  0  0  0  0  0  0  0  0
  188.9580  175.5160  146.7920 N   0  0  0  0  0  2  0  0  0  0  0  0
  190.2530  175.1700  146.3030 C   0  0  0  0  0  0  0  0  0  0  0  0
  188.0810  176.3830  146.0800 C   0  0  0  0  0  3  0  0  0  0  0  0
  186.9290  176.7760  146.6120 C   0  0  0  0  0  3  0  0  0  0  0  0
  184.7410  177.9600  146.3700 C   0  0  0  0  0  3  0  0  0  0  0  0
  186.5120  178.3900  144.7790 C   0  0  0  0  0  3  0  0  0  0  0  0
  185.6520  179.2180  144.0500 C   0  0  0  0  0  3  0  0  0  0  0  0
  184.3450  179.4260  144.4850 C   0  0  0  0  0  3  0  0  0  0  0  0
  186.0520  177.7390  145.9290 C   0  0  0  0  0  0  0  0  0  0  0  0
  183.8950  178.8110  145.6590 C   0  0  0  0  0  3  0  0  0  0  0  0
  191.1930  176.2460  144.1760 C   0  0  0  0  0  2  0  0  0  0  0  0
  195.3120  176.2410  141.9370 C   0  0  0  0  0  1  0  0  0  0  0  0
  195.4060  174.6120  143.8700 C   0  0  0  0  0  0  0  0  0  0  0  0
  196.6810  172.9230  144.5590 C   0  0  0  0  0  0  0  0  0  0  0  0
  194.9350  174.1660  145.2060 C   0  0  1  0  0  3  0  0  0  0  0  0
  192.6750  176.0840  144.2850 C   0  0  0  0  0  0  0  0  0  0  0  0
  194.7040  175.5970  143.0920 N   0  0  0  0  0  0  0  0  0  0  0  0
  197.7410  171.8780  144.5690 C   0  0  0  0  0  1  0  0  0  0  0  0
  194.4610  176.4010  146.2150 C   0  0  0  0  0  3  0  0  0  0  0  0
  193.3120  175.6910  143.2180 N   0  0  0  0  0  0  0  0  0  0  0  0
  196.4600  173.8900  143.5060 C   0  0  0  0  0  0  0  0  0  0  0  0
  195.8240  173.0550  145.5120 N   0  0  0  0  0  0  0  0  0  0  0  0
  193.3170  176.7240  145.4060 N   0  0  0  0  0  2  0  0  0  0  0  0
  195.1780  175.2760  146.1650 C   0  0  0  0  0  3  0  0  0  0  0  0
  197.7670  173.9960  141.2070 C   0  0  0  0  0  3  0  0  0  0  0  0
  197.1760  173.9460  142.2560 C   0  0  0  0  0  0  0  0  0  0  0  0
  190.9570  173.7460  144.4520 O   0  0  0  0  0  0  0  0  0  0  0  0
  190.4010  173.3520  143.2160 C   0  0  0  0  0  2  0  0  0  0  0  0
  189.0780  173.7850  143.0960 O   0  0  0  0  0  0  0  0  0  0  0  0
  188.7370  173.5730  141.7550 C   0  0  0  0  0  2  0  0  0  0  0  0
  188.4010  174.8900  141.0650 C   0  0  0  0  0  2  0  0  0  0  0  0
  188.3120  177.1820  141.6530 O   0  0  0  0  0  0  0  0  0  0  0  0
  187.9000  175.9060  142.0740 C   0  0  1  0  0  3  0  0  0  0  0  0
  186.9690  176.8470  141.4210 C   0  0  0  0  0  2  0  0  0  0  0  0
  1 13  1  1  0  0  0
  1  4  1  0  0  0  0
  4  3  1  0  0  0  0
  4  2  2  0  0  0  0
  5  6  2  0  0  0  0
  5  3  1  0  0  0  0
  8 11  2  0  0  0  0
  9 10  2  0  0  0  0
  9  8  1  0  0  0  0
 10 12  1  0  0  0  0
 11  7  1  0  0  0  0
 11  6  1  0  0  0  0
 12  7  2  0  0  0  0
 13 18  1  0  0  0  0
 14 19  1  0  0  0  0
 15 17  1  0  0  0  0
 16 20  1  0  0  0  0
 16 24  2  0  0  0  0
 17 24  1  0  0  0  0
 17 26  1  1  0  0  0
 18 25  1  0  0  0  0
 19 22  1  0  0  0  0
 19 15  1  0  0  0  0
 22 18  2  0  0  0  0
 23 15  2  0  0  0  0
 23 16  1  0  0  0  0
 25 21  1  0  0  0  0
 26 21  2  0  0  0  0
 27 28  3  0  0  0  0
 28 23  1  0  0  0  0
 29  1  1  0  0  0  0
 30 29  1  0  0  0  0
 31 30  1  0  0  0  0
 32 31  1  0  0  0  0
 33 32  1  0  0  0  0
 34 35  1  0  0  0  0
 35 33  1  6  0  0  0
 36 34  1  0  0  0  0
 36 35  1  0  0  0  0
M  END
>  <MODEL>
4

>  <REMARK>
 VINA RESULT:      -6.5      2.056      4.316
  Name = 
  12 active torsions:
  status: ('A' for Active; 'I' for Inactive)
    1  A    between atoms: C_3  and  C_12
    2  A    between atoms: C_3  and  C_17
    3  A    between atoms: C_6  and  N_26
    4  A    between atoms: C_7  and  C_34
    5  A    between atoms: O_8  and  C_22
    6  A    between atoms: O_8  and  C_30
    7  A    between atoms: C_17  and  C_28
    8  A    between atoms: C_17  and  O_31
    9  A    between atoms: C_18  and  C_25
   10  A    between atoms: C_22  and  O_31
   11  A    between atoms: C_25  and  C_30
   12  A    between atoms: C_27  and  C_32
                            x       y       z     vdW  Elec       q    Type
                         _______ _______ _______ _____ _____    ______ ____

>  <TORSDO>
F 12

$$$$
=
 OpenBabel11042414433D

 36 39  0  0  1  0  0  0  0  0999 V2000
  190.9140  175.7950  145.3470 C   0  0  1  0  0  3  0  0  0  0  0  0
  193.0230  176.8850  145.0660 O   0  0  0  0  0  0  0  0  0  0  0  0
  191.2490  177.9390  144.0160 N   0  0  0  0  0  2  0  0  0  0  0  0
  191.7980  176.8750  144.7920 C   0  0  0  0  0  0  0  0  0  0  0  0
  190.1260  177.7580  143.1590 C   0  0  0  0  0  3  0  0  0  0  0  0
  188.9340  178.2450  143.4820 C   0  0  0  0  0  3  0  0  0  0  0  0
  186.5050  178.5400  142.9750 C   0  0  0  0  0  3  0  0  0  0  0  0
  187.9630  177.5740  141.3040 C   0  0  0  0  0  3  0  0  0  0  0  0
  186.8610  177.3610  140.4700 C   0  0  0  0  0  3  0  0  0  0  0  0
  185.5870  177.7460  140.8810 C   0  0  0  0  0  3  0  0  0  0  0  0
  187.7850  178.1430  142.5700 C   0  0  0  0  0  0  0  0  0  0  0  0
  185.4110  178.3540  142.1290 C   0  0  0  0  0  3  0  0  0  0  0  0
  191.5250  174.3860  145.3360 C   0  0  0  0  0  2  0  0  0  0  0  0
  192.7750  172.6980  141.1450 C   0  0  0  0  0  1  0  0  0  0  0  0
  190.3630  173.4540  141.0600 C   0  0  0  0  0  0  0  0  0  0  0  0
  188.8230  173.9270  139.5240 C   0  0  0  0  0  0  0  0  0  0  0  0
  189.0720  173.7300  141.7400 C   0  0  1  0  0  3  0  0  0  0  0  0
  191.0920  173.6750  144.0960 C   0  0  0  0  0  0  0  0  0  0  0  0
  191.5900  173.2520  141.7830 N   0  0  0  0  0  0  0  0  0  0  0  0
  188.1930  174.1750  138.1990 C   0  0  0  0  0  1  0  0  0  0  0  0
  189.1710  171.9540  143.4930 C   0  0  0  0  0  3  0  0  0  0  0  0
  191.7690  173.9080  143.0070 N   0  0  0  0  0  0  0  0  0  0  0  0
  190.2010  173.5440  139.7440 C   0  0  0  0  0  0  0  0  0  0  0  0
  188.1810  174.0500  140.6330 N   0  0  0  0  0  0  0  0  0  0  0  0
  190.2360  172.5290  144.2710 N   0  0  0  0  0  2  0  0  0  0  0  0
  188.6250  172.4690  142.3900 C   0  0  0  0  0  3  0  0  0  0  0  0
  192.0610  173.3170  137.8750 C   0  0  0  0  0  3  0  0  0  0  0  0
  191.2110  173.4230  138.7230 C   0  0  0  0  0  0  0  0  0  0  0  0
  190.2080  176.1940  146.5110 O   0  0  0  0  0  0  0  0  0  0  0  0
  189.0140  175.4560  146.6590 C   0  0  0  0  0  2  0  0  0  0  0  0
  188.0050  175.9540  145.8310 O   0  0  0  0  0  0  0  0  0  0  0  0
  187.2430  176.8040  146.6410 C   0  0  0  0  0  2  0  0  0  0  0  0
  185.7890  176.8290  146.1870 C   0  0  0  0  0  2  0  0  0  0  0  0
  185.4080  179.1600  146.3520 O   0  0  0  0  0  0  0  0  0  0  0  0
  185.0260  177.9260  146.9060 C   0  0  1  0  0  3  0  0  0  0  0  0
  184.1650  178.6500  145.9520 C   0  0  0  0  0  2  0  0  0  0  0  0
  1 13  1  1  0  0  0
  1 29  1  0  0  0  0
  3  4  1  0  0  0  0
  4  2  2  0  0  0  0
  4  1  1  0  0  0  0
  5  6  2  0  0  0  0
  5  3  1  0  0  0  0
  8 11  2  0  0  0  0
  9 10  2  0  0  0  0
  9  8  1  0  0  0  0
 10 12  1  0  0  0  0
 11  7  1  0  0  0  0
 11  6  1  0  0  0  0
 12  7  2  0  0  0  0
 14 19  1  0  0  0  0
 15 17  1  0  0  0  0
 15 19  1  0  0  0  0
 16 23  1  0  0  0  0
 16 24  2  0  0  0  0
 17 26  1  6  0  0  0
 18 25  1  0  0  0  0
 18 13  1  0  0  0  0
 19 22  1  0  0  0  0
 20 16  1  0  0  0  0
 21 25  1  0  0  0  0
 22 18  2  0  0  0  0
 23 15  2  0  0  0  0
 24 17  1  0  0  0  0
 26 21  2  0  0  0  0
 27 28  3  0  0  0  0
 28 23  1  0  0  0  0
 29 30  1  0  0  0  0
 31 32  1  0  0  0  0
 31 30  1  0  0  0  0
 33 32  1  0  0  0  0
 34 35  1  0  0  0  0
 35 33  1  6  0  0  0
 36 34  1  0  0  0  0
 36 35  1  0  0  0  0
M  END
>  <MODEL>
5

>  <REMARK>
 VINA RESULT:      -6.5      2.699      5.326
  Name = 
  12 active torsions:
  status: ('A' for Active; 'I' for Inactive)
    1  A    between atoms: C_3  and  C_12
    2  A    between atoms: C_3  and  C_17
    3  A    between atoms: C_6  and  N_26
    4  A    between atoms: C_7  and  C_34
    5  A    between atoms: O_8  and  C_22
    6  A    between atoms: O_8  and  C_30
    7  A    between atoms: C_17  and  C_28
    8  A    between atoms: C_17  and  O_31
    9  A    between atoms: C_18  and  C_25
   10  A    between atoms: C_22  and  O_31
   11  A    between atoms: C_25  and  C_30
   12  A    between atoms: C_27  and  C_32
                            x       y       z     vdW  Elec       q    Type
                         _______ _______ _______ _____ _____    ______ ____

>  <TORSDO>
F 12

$$$$
=
 OpenBabel11042414433D

 36 39  0  0  1  0  0  0  0  0999 V2000
  191.7810  174.6490  145.4380 C   0  0  1  0  0  3  0  0  0  0  0  0
  193.3580  172.8560  145.5490 O   0  0  0  0  0  0  0  0  0  0  0  0
  193.0740  173.7560  143.4350 N   0  0  0  0  0  2  0  0  0  0  0  0
  192.7580  173.6870  144.8250 C   0  0  0  0  0  0  0  0  0  0  0  0
  192.1210  174.1520  142.4540 C   0  0  0  0  0  3  0  0  0  0  0  0
  191.5620  173.2600  141.6450 C   0  0  0  0  0  3  0  0  0  0  0  0
  189.3430  174.2780  141.1110 C   0  0  0  0  0  3  0  0  0  0  0  0
  190.6580  173.2890  139.3390 C   0  0  0  0  0  3  0  0  0  0  0  0
  189.6190  173.5340  138.4350 C   0  0  0  0  0  3  0  0  0  0  0  0
  188.4510  174.1590  138.8640 C   0  0  0  0  0  3  0  0  0  0  0  0
  190.5130  173.6380  140.6850 C   0  0  0  0  0  0  0  0  0  0  0  0
  188.3200  174.5500  140.2020 C   0  0  0  0  0  3  0  0  0  0  0  0
  190.3020  174.2790  145.2510 C   0  0  0  0  0  2  0  0  0  0  0  0
  187.4010  177.5770  146.8900 C   0  0  0  0  0  1  0  0  0  0  0  0
  186.9160  177.1740  144.4400 C   0  0  0  0  0  0  0  0  0  0  0  0
  185.2980  177.6060  142.9730 C   0  0  0  0  0  0  0  0  0  0  0  0
  187.3590  176.7400  143.0910 C   0  0  1  0  0  3  0  0  0  0  0  0
  189.5220  175.5180  144.9520 C   0  0  0  0  0  0  0  0  0  0  0  0
  187.6800  176.9060  145.6280 N   0  0  0  0  0  0  0  0  0  0  0  0
  183.9930  178.0540  142.4150 C   0  0  0  0  0  1  0  0  0  0  0  0
  189.7360  177.4950  143.2020 C   0  0  0  0  0  3  0  0  0  0  0  0
  188.4650  175.7480  145.6790 N   0  0  0  0  0  0  0  0  0  0  0  0
  185.7040  177.7130  144.3580 C   0  0  0  0  0  0  0  0  0  0  0  0
  186.2080  177.0480  142.2530 N   0  0  0  0  0  0  0  0  0  0  0  0
  190.1860  176.5300  144.1700 N   0  0  0  0  0  2  0  0  0  0  0  0
  188.5070  177.5970  142.6940 C   0  0  0  0  0  3  0  0  0  0  0  0
  184.1840  178.5930  146.3390 C   0  0  0  0  0  3  0  0  0  0  0  0
  184.8800  178.1950  145.4380 C   0  0  0  0  0  0  0  0  0  0  0  0
  192.1830  175.1170  146.7150 O   0  0  0  0  0  0  0  0  0  0  0  0
  192.8940  176.3320  146.6120 C   0  0  0  0  0  2  0  0  0  0  0  0
  194.2740  176.1170  146.6700 O   0  0  0  0  0  0  0  0  0  0  0  0
  194.8010  176.7890  145.5610 C   0  0  0  0  0  2  0  0  0  0  0  0
  195.7220  175.8750  144.7600 C   0  0  0  0  0  2  0  0  0  0  0  0
  197.4260  176.0350  143.1240 O   0  0  0  0  0  0  0  0  0  0  0  0
  196.1740  176.5630  143.4850 C   0  0  1  0  0  3  0  0  0  0  0  0
  196.3170  175.5710  142.4020 C   0  0  0  0  0  2  0  0  0  0  0  0
  1 13  1  1  0  0  0
  1 29  1  0  0  0  0
  3  4  1  0  0  0  0
  4  1  1  0  0  0  0
  4  2  2  0  0  0  0
  5  3  1  0  0  0  0
  6  5  2  0  0  0  0
  8 11  2  0  0  0  0
  9 10  2  0  0  0  0
  9  8  1  0  0  0  0
 10 12  1  0  0  0  0
 11  7  1  0  0  0  0
 11  6  1  0  0  0  0
 12  7  2  0  0  0  0
 15 19  1  0  0  0  0
 16 23  1  0  0  0  0
 17 26  1  6  0  0  0
 17 15  1  0  0  0  0
 18 13  1  0  0  0  0
 18 22  2  0  0  0  0
 19 22  1  0  0  0  0
 19 14  1  0  0  0  0
 20 16  1  0  0  0  0
 21 25  1  0  0  0  0
 23 15  2  0  0  0  0
 23 28  1  0  0  0  0
 24 16  2  0  0  0  0
 24 17  1  0  0  0  0
 25 18  1  0  0  0  0
 26 21  2  0  0  0  0
 28 27  3  0  0  0  0
 30 31  1  0  0  0  0
 30 29  1  0  0  0  0
 32 31  1  0  0  0  0
 33 32  1  0  0  0  0
 34 35  1  0  0  0  0
 35 33  1  1  0  0  0
 36 34  1  0  0  0  0
 36 35  1  0  0  0  0
M  END
>  <MODEL>
6

>  <REMARK>
 VINA RESULT:      -6.4      2.552      7.663
  Name = 
  12 active torsions:
  status: ('A' for Active; 'I' for Inactive)
    1  A    between atoms: C_3  and  C_12
    2  A    between atoms: C_3  and  C_17
    3  A    between atoms: C_6  and  N_26
    4  A    between atoms: C_7  and  C_34
    5  A    between atoms: O_8  and  C_22
    6  A    between atoms: O_8  and  C_30
    7  A    between atoms: C_17  and  C_28
    8  A    between atoms: C_17  and  O_31
    9  A    between atoms: C_18  and  C_25
   10  A    between atoms: C_22  and  O_31
   11  A    between atoms: C_25  and  C_30
   12  A    between atoms: C_27  and  C_32
                            x       y       z     vdW  Elec       q    Type
                         _______ _______ _______ _____ _____    ______ ____

>  <TORSDO>
F 12

$$$$
=
 OpenBabel11042414433D

 36 39  0  0  1  0  0  0  0  0999 V2000
  187.5400  176.7060  142.8760 C   0  0  1  0  0  3  0  0  0  0  0  0
  186.1570  176.7700  144.8250 O   0  0  0  0  0  0  0  0  0  0  0  0
  188.2950  177.6040  145.1360 N   0  0  0  0  0  2  0  0  0  0  0  0
  187.2870  176.9970  144.3280 C   0  0  0  0  0  0  0  0  0  0  0  0
  189.6830  177.3570  144.9370 C   0  0  0  0  0  3  0  0  0  0  0  0
  190.4600  176.9760  145.9430 C   0  0  0  0  0  3  0  0  0  0  0  0
  192.6600  176.1440  146.7920 C   0  0  0  0  0  3  0  0  0  0  0  0
  192.4650  176.8670  144.4920 C   0  0  0  0  0  3  0  0  0  0  0  0
  193.8370  176.6590  144.3140 C   0  0  0  0  0  3  0  0  0  0  0  0
  194.6150  176.1850  145.3670 C   0  0  0  0  0  3  0  0  0  0  0  0
  191.8760  176.6340  145.7390 C   0  0  0  0  0  0  0  0  0  0  0  0
  194.0220  175.9080  146.6040 C   0  0  0  0  0  3  0  0  0  0  0  0
  187.0760  175.3210  142.4020 C   0  0  0  0  0  2  0  0  0  0  0  0
  190.0910  172.5500  144.6840 C   0  0  0  0  0  1  0  0  0  0  0  0
  191.2580  173.6130  142.7080 C   0  0  0  0  0  0  0  0  0  0  0  0
  193.3380  173.9410  141.9860 C   0  0  0  0  0  0  0  0  0  0  0  0
  191.2090  174.2240  141.3550 C   0  0  1  0  0  3  0  0  0  0  0  0
  188.2600  174.4150  142.3040 C   0  0  0  0  0  0  0  0  0  0  0  0
  190.0800  173.4040  143.5060 N   0  0  0  0  0  0  0  0  0  0  0  0
  194.8260  173.9680  141.9590 C   0  0  0  0  0  1  0  0  0  0  0  0
  189.3160  172.9040  140.4030 C   0  0  0  0  0  3  0  0  0  0  0  0
  189.0050  174.2900  143.3670 N   0  0  0  0  0  0  0  0  0  0  0  0
  192.5240  173.4210  143.0640 C   0  0  0  0  0  0  0  0  0  0  0  0
  192.6160  174.4090  141.0280 N   0  0  0  0  0  0  0  0  0  0  0  0
  188.2720  173.4790  141.2090 N   0  0  0  0  0  2  0  0  0  0  0  0
  190.6100  173.2260  140.4300 C   0  0  0  0  0  3  0  0  0  0  0  0
  193.4240  172.4980  145.3750 C   0  0  0  0  0  3  0  0  0  0  0  0
  193.0190  172.9210  144.3220 C   0  0  0  0  0  0  0  0  0  0  0  0
  187.2730  177.8120  142.0290 O   0  0  0  0  0  0  0  0  0  0  0  0
  186.3680  177.4610  141.0040 C   0  0  0  0  0  2  0  0  0  0  0  0
  185.4370  178.4790  140.7810 O   0  0  0  0  0  0  0  0  0  0  0  0
  184.2560  178.0450  141.3940 C   0  0  0  0  0  2  0  0  0  0  0  0
  183.0470  178.3420  140.5150 C   0  0  0  0  0  2  0  0  0  0  0  0
  181.2630  179.0390  141.9080 O   0  0  0  0  0  0  0  0  0  0  0  0
  181.7660  177.9240  141.2150 C   0  0  1  0  0  3  0  0  0  0  0  0
  180.6310  178.7120  140.6990 C   0  0  0  0  0  2  0  0  0  0  0  0
  1 13  1  6  0  0  0
  1  4  1  0  0  0  0
  4  2  2  0  0  0  0
  4  3  1  0  0  0  0
  5  3  1  0  0  0  0
  5  6  2  0  0  0  0
  8 11  1  0  0  0  0
  9  8  2  0  0  0  0
  9 10  1  0  0  0  0
 10 12  2  0  0  0  0
 11  6  1  0  0  0  0
 11  7  2  0  0  0  0
 12  7  1  0  0  0  0
 15 23  2  0  0  0  0
 15 19  1  0  0  0  0
 16 23  1  0  0  0  0
 17 26  1  6  0  0  0
 17 15  1  0  0  0  0
 18 13  1  0  0  0  0
 18 22  2  0  0  0  0
 19 14  1  0  0  0  0
 20 16  1  0  0  0  0
 21 26  2  0  0  0  0
 21 25  1  0  0  0  0
 22 19  1  0  0  0  0
 23 28  1  0  0  0  0
 24 17  1  0  0  0  0
 24 16  2  0  0  0  0
 25 18  1  0  0  0  0
 28 27  3  0  0  0  0
 29  1  1  0  0  0  0
 30 29  1  0  0  0  0
 31 30  1  0  0  0  0
 31 32  1  0  0  0  0
 33 32  1  0  0  0  0
 35 33  1  6  0  0  0
 35 34  1  0  0  0  0
 36 35  1  0  0  0  0
 36 34  1  0  0  0  0
M  END
>  <MODEL>
7

>  <REMARK>
 VINA RESULT:      -6.4      2.972      5.976
  Name = 
  12 active torsions:
  status: ('A' for Active; 'I' for Inactive)
    1  A    between atoms: C_3  and  C_12
    2  A    between atoms: C_3  and  C_17
    3  A    between atoms: C_6  and  N_26
    4  A    between atoms: C_7  and  C_34
    5  A    between atoms: O_8  and  C_22
    6  A    between atoms: O_8  and  C_30
    7  A    between atoms: C_17  and  C_28
    8  A    between atoms: C_17  and  O_31
    9  A    between atoms: C_18  and  C_25
   10  A    between atoms: C_22  and  O_31
   11  A    between atoms: C_25  and  C_30
   12  A    between atoms: C_27  and  C_32
                            x       y       z     vdW  Elec       q    Type
                         _______ _______ _______ _____ _____    ______ ____

>  <TORSDO>
F 12

$$$$
=
 OpenBabel11042414433D

 36 39  0  0  1  0  0  0  0  0999 V2000
  188.7640  176.4970  144.7220 C   0  0  1  0  0  3  0  0  0  0  0  0
  187.5680  178.0990  143.4110 O   0  0  0  0  0  0  0  0  0  0  0  0
  187.2900  175.9030  142.7340 N   0  0  0  0  0  2  0  0  0  0  0  0
  187.8690  176.8930  143.5830 C   0  0  0  0  0  0  0  0  0  0  0  0
  187.9590  174.6880  142.4110 C   0  0  0  0  0  3  0  0  0  0  0  0
  189.1630  174.6990  141.8510 C   0  0  0  0  0  3  0  0  0  0  0  0
  190.6130  173.2760  140.3950 C   0  0  0  0  0  3  0  0  0  0  0  0
  189.8440  172.4140  142.5210 C   0  0  0  0  0  3  0  0  0  0  0  0
  190.4450  171.1830  142.2350 C   0  0  0  0  0  3  0  0  0  0  0  0
  191.1370  171.0020  141.0400 C   0  0  0  0  0  3  0  0  0  0  0  0
  189.9050  173.4560  141.5900 C   0  0  0  0  0  0  0  0  0  0  0  0
  191.2380  172.0580  140.1260 C   0  0  0  0  0  3  0  0  0  0  0  0
  189.9580  177.4330  144.9640 C   0  0  0  0  0  2  0  0  0  0  0  0
  193.5450  176.2620  142.1830 C   0  0  0  0  0  1  0  0  0  0  0  0
  193.0210  174.3340  143.7340 C   0  0  0  0  0  0  0  0  0  0  0  0
  193.4700  172.1590  143.8910 C   0  0  0  0  0  0  0  0  0  0  0  0
  192.4720  173.8190  145.0140 C   0  0  1  0  0  3  0  0  0  0  0  0
  191.2260  176.6550  144.8210 C   0  0  0  0  0  0  0  0  0  0  0  0
  192.7770  175.6730  143.2700 N   0  0  0  0  0  0  0  0  0  0  0  0
  193.9700  170.8010  143.5450 C   0  0  0  0  0  1  0  0  0  0  0  0
  193.0680  175.7430  146.4910 C   0  0  0  0  0  3  0  0  0  0  0  0
  191.5730  176.2990  143.6160 N   0  0  0  0  0  0  0  0  0  0  0  0
  193.6370  173.3500  143.0860 C   0  0  0  0  0  0  0  0  0  0  0  0
  192.8060  172.4020  144.9680 N   0  0  0  0  0  0  0  0  0  0  0  0
  192.1380  176.6900  145.9360 N   0  0  0  0  0  2  0  0  0  0  0  0
  193.2220  174.4700  146.1210 C   0  0  0  0  0  3  0  0  0  0  0  0
  194.7550  173.4460  140.6890 C   0  0  0  0  0  3  0  0  0  0  0  0
  194.2420  173.4000  141.7790 C   0  0  0  0  0  0  0  0  0  0  0  0
  188.0520  176.0360  145.8590 O   0  0  0  0  0  0  0  0  0  0  0  0
  187.7880  177.0920  146.7570 C   0  0  0  0  0  2  0  0  0  0  0  0
  186.5410  176.9370  147.3680 O   0  0  0  0  0  0  0  0  0  0  0  0
  185.7980  178.0620  146.9890 C   0  0  0  0  0  2  0  0  0  0  0  0
  184.8790  177.7360  145.8170 C   0  0  0  0  0  2  0  0  0  0  0  0
  184.9940  179.7750  144.6180 O   0  0  0  0  0  0  0  0  0  0  0  0
  184.1210  178.9740  145.3760 C   0  0  1  0  0  3  0  0  0  0  0  0
  184.0500  179.0230  143.9030 C   0  0  0  0  0  2  0  0  0  0  0  0
  1 13  1  1  0  0  0
  1 29  1  0  0  0  0
  2  4  2  0  0  0  0
  3  4  1  0  0  0  0
  4  1  1  0  0  0  0
  5  3  1  0  0  0  0
  6  5  2  0  0  0  0
  7 11  1  0  0  0  0
  9  8  1  0  0  0  0
 10  9  2  0  0  0  0
 11  6  1  0  0  0  0
 11  8  2  0  0  0  0
 12  7  2  0  0  0  0
 12 10  1  0  0  0  0
 14 19  1  0  0  0  0
 15 17  1  0  0  0  0
 16 24  2  0  0  0  0
 17 26  1  1  0  0  0
 18 13  1  0  0  0  0
 18 25  1  0  0  0  0
 19 22  1  0  0  0  0
 19 15  1  0  0  0  0
 20 16  1  0  0  0  0
 22 18  2  0  0  0  0
 23 15  2  0  0  0  0
 23 16  1  0  0  0  0
 24 17  1  0  0  0  0
 25 21  1  0  0  0  0
 26 21  2  0  0  0  0
 27 28  3  0  0  0  0
 28 23  1  0  0  0  0
 29 30  1  0  0  0  0
 30 31  1  0  0  0  0
 32 31  1  0  0  0  0
 33 32  1  0  0  0  0
 34 35  1  0  0  0  0
 35 33  1  6  0  0  0
 36 34  1  0  0  0  0
 36 35  1  0  0  0  0
M  END
>  <MODEL>
8

>  <REMARK>
 VINA RESULT:      -6.3      2.288      5.619
  Name = 
  12 active torsions:
  status: ('A' for Active; 'I' for Inactive)
    1  A    between atoms: C_3  and  C_12
    2  A    between atoms: C_3  and  C_17
    3  A    between atoms: C_6  and  N_26
    4  A    between atoms: C_7  and  C_34
    5  A    between atoms: O_8  and  C_22
    6  A    between atoms: O_8  and  C_30
    7  A    between atoms: C_17  and  C_28
    8  A    between atoms: C_17  and  O_31
    9  A    between atoms: C_18  and  C_25
   10  A    between atoms: C_22  and  O_31
   11  A    between atoms: C_25  and  C_30
   12  A    between atoms: C_27  and  C_32
                            x       y       z     vdW  Elec       q    Type
                         _______ _______ _______ _____ _____    ______ ____

>  <TORSDO>
F 12

$$$$
=
 OpenBabel11042414433D

 36 39  0  0  1  0  0  0  0  0999 V2000
  191.4660  176.2720  145.6040 C   0  0  1  0  0  3  0  0  0  0  0  0
  191.5130  175.1170  147.6960 O   0  0  0  0  0  0  0  0  0  0  0  0
  189.4080  175.3070  146.7500 N   0  0  0  0  0  2  0  0  0  0  0  0
  190.8120  175.5590  146.7530 C   0  0  0  0  0  0  0  0  0  0  0  0
  188.4730  176.2010  146.1550 C   0  0  0  0  0  3  0  0  0  0  0  0
  187.3040  176.4520  146.7320 C   0  0  0  0  0  3  0  0  0  0  0  0
  185.0560  177.5430  146.6670 C   0  0  0  0  0  3  0  0  0  0  0  0
  186.7620  178.2300  145.0960 C   0  0  0  0  0  3  0  0  0  0  0  0
  185.8440  179.0870  144.4790 C   0  0  0  0  0  3  0  0  0  0  0  0
  184.5410  179.1810  144.9610 C   0  0  0  0  0  3  0  0  0  0  0  0
  186.3640  177.4370  146.1760 C   0  0  0  0  0  0  0  0  0  0  0  0
  184.1510  178.4210  146.0700 C   0  0  0  0  0  3  0  0  0  0  0  0
  192.9110  176.7250  145.8590 C   0  0  0  0  0  2  0  0  0  0  0  0
  196.8090  176.4300  143.2710 C   0  0  0  0  0  1  0  0  0  0  0  0
  195.1660  174.6600  142.5180 C   0  0  0  0  0  0  0  0  0  0  0  0
  194.8600  173.3130  140.7730 C   0  0  0  0  0  0  0  0  0  0  0  0
  194.0220  173.7580  142.8010 C   0  0  1  0  0  3  0  0  0  0  0  0
  193.8430  175.8370  145.0990 C   0  0  0  0  0  0  0  0  0  0  0  0
  195.5320  175.7430  143.3910 N   0  0  0  0  0  0  0  0  0  0  0  0
  195.0400  172.6870  139.4360 C   0  0  0  0  0  1  0  0  0  0  0  0
  194.4970  173.2730  145.2040 C   0  0  0  0  0  3  0  0  0  0  0  0
  194.5290  176.3800  144.1330 N   0  0  0  0  0  0  0  0  0  0  0  0
  195.6770  174.3710  141.3260 C   0  0  0  0  0  0  0  0  0  0  0  0
  193.9180  172.9680  141.5820 N   0  0  0  0  0  0  0  0  0  0  0  0
  194.1910  174.5820  145.7160 N   0  0  0  0  0  2  0  0  0  0  0  0
  194.4110  172.8760  143.9330 C   0  0  0  0  0  3  0  0  0  0  0  0
  197.6390  175.6130  140.0560 C   0  0  0  0  0  3  0  0  0  0  0  0
  196.7460  175.0510  140.6380 C   0  0  0  0  0  0  0  0  0  0  0  0
  191.1740  175.6890  144.3440 O   0  0  0  0  0  0  0  0  0  0  0  0
  191.1180  176.6690  143.3300 C   0  0  0  0  0  2  0  0  0  0  0  0
  189.9160  177.3800  143.3800 O   0  0  0  0  0  0  0  0  0  0  0  0
  189.0750  176.7540  142.4520 C   0  0  0  0  0  2  0  0  0  0  0  0
  188.2310  177.7810  141.7060 C   0  0  0  0  0  2  0  0  0  0  0  0
  186.0260  178.2610  140.9860 O   0  0  0  0  0  0  0  0  0  0  0  0
  186.8710  177.2020  141.3620 C   0  0  1  0  0  3  0  0  0  0  0  0
  186.5490  177.4750  139.9490 C   0  0  0  0  0  2  0  0  0  0  0  0
  1 13  1  1  0  0  0
  1  4  1  0  0  0  0
  3  4  1  0  0  0  0
  4  2  2  0  0  0  0
  5  6  2  0  0  0  0
  5  3  1  0  0  0  0
  8 11  2  0  0  0  0
  9 10  2  0  0  0  0
  9  8  1  0  0  0  0
 10 12  1  0  0  0  0
 11  7  1  0  0  0  0
 11  6  1  0  0  0  0
 12  7  2  0  0  0  0
 14 19  1  0  0  0  0
 15 17  1  0  0  0  0
 15 19  1  0  0  0  0
 16 23  1  0  0  0  0
 16 24  2  0  0  0  0
 17 26  1  1  0  0  0
 18 25  1  0  0  0  0
 18 13  1  0  0  0  0
 19 22  1  0  0  0  0
 20 16  1  0  0  0  0
 21 25  1  0  0  0  0
 22 18  2  0  0  0  0
 23 15  2  0  0  0  0
 24 17  1  0  0  0  0
 26 21  2  0  0  0  0
 27 28  3  0  0  0  0
 28 23  1  0  0  0  0
 29  1  1  0  0  0  0
 30 31  1  0  0  0  0
 30 29  1  0  0  0  0
 32 31  1  0  0  0  0
 33 32  1  0  0  0  0
 34 35  1  0  0  0  0
 35 33  1  6  0  0  0
 36 34  1  0  0  0  0
 36 35  1  0  0  0  0
M  END
>  <MODEL>
9

>  <REMARK>
 VINA RESULT:      -6.3      2.047      4.452
  Name = 
  12 active torsions:
  status: ('A' for Active; 'I' for Inactive)
    1  A    between atoms: C_3  and  C_12
    2  A    between atoms: C_3  and  C_17
    3  A    between atoms: C_6  and  N_26
    4  A    between atoms: C_7  and  C_34
    5  A    between atoms: O_8  and  C_22
    6  A    between atoms: O_8  and  C_30
    7  A    between atoms: C_17  and  C_28
    8  A    between atoms: C_17  and  O_31
    9  A    between atoms: C_18  and  C_25
   10  A    between atoms: C_22  and  O_31
   11  A    between atoms: C_25  and  C_30
   12  A    between atoms: C_27  and  C_32
                            x       y       z     vdW  Elec       q    Type
                         _______ _______ _______ _____ _____    ______ ____

>  <TORSDO>
F 12

$$$$
