=
 OpenBabel11042417403D

 54 56  0  0  1  0  0  0  0  0999 V2000
  187.7320  174.9210  137.9730 C   0  0  0  0  0  3  0  0  0  0  0  0
  187.8240  176.0570  142.3350 N   0  0  0  0  0  0  0  0  0  0  0  0
  188.3890  174.3930  139.0020 C   0  0  0  0  0  0  0  0  0  0  0  0
  187.1710  176.9540  143.1180 C   0  0  0  0  0  0  0  0  0  0  0  0
  186.4420  176.8680  138.9100 C   0  0  0  0  0  3  0  0  0  0  0  0
  186.0170  177.7560  141.1590 C   0  0  0  0  0  0  0  0  0  0  0  0
  188.3720  174.9190  140.3320 N   0  0  0  0  0  2  0  0  0  0  0  0
  187.6280  175.9480  140.9920 C   0  0  0  0  0  0  0  0  0  0  0  0
  186.2470  177.8150  142.5300 C   0  0  0  0  0  3  0  0  0  0  0  0
  186.7110  176.8200  140.3560 C   0  0  0  0  0  0  0  0  0  0  0  0
  186.8610  176.0900  137.9230 C   0  0  0  0  0  3  0  0  0  0  0  0
  189.7250  173.0090  137.6290 O   0  0  0  0  0  0  0  0  0  0  0  0
  189.1960  173.1850  138.7600 C   0  0  0  0  0  0  0  0  0  0  0  0
  189.3860  172.2170  139.7970 N   0  0  0  0  0  2  0  0  0  0  0  0
  190.2860  171.0800  139.6590 C   0  0  0  0  0  2  0  0  0  0  0  0
  191.6700  171.4340  140.1790 C   0  0  0  0  0  2  0  0  0  0  0  0
  192.8580  171.4790  138.8020 S   0  0  0  0  0  0  0  0  0  0  0  0
  192.8590  174.1520  138.8860 N   0  0  0  0  0  2  0  0  0  0  0  0
  194.7110  173.1760  139.9920 N   0  0  0  0  0  2  0  0  0  0  0  0
  193.4780  173.0850  139.2740 C   0  0  0  0  0  0  0  0  0  0  0  0
  195.9940  175.3010  140.0410 C   0  0  0  0  0  0  0  0  0  0  0  0
  196.3130  175.1910  138.6920 O   0  0  0  0  0  0  0  0  0  0  0  0
  196.4430  176.2730  140.7030 O   0  0  0  0  0  1  0  0  0  0  0  0
  195.1360  174.3320  140.6700 N   0  0  0  0  0  0  0  0  0  0  0  0
  194.5740  174.5970  141.9870 C   0  0  0  0  0  2  0  0  0  0  0  0
  195.6020  172.9280  143.3390 O   0  0  0  0  0  1  0  0  0  0  0  0
  194.3910  173.2980  142.7520 C   0  0  1  0  0  3  0  0  0  0  0  0
  193.3290  173.4570  143.8310 C   0  0  0  0  0  2  0  0  0  0  0  0
  192.1050  172.5990  143.5210 C   0  0  0  0  0  2  0  0  0  0  0  0
  191.0780  174.6290  142.6760 C   0  0  0  0  0  0  0  0  0  0  0  0
  191.2360  175.7660  142.2150 O   0  0  0  0  0  0  0  0  0  0  0  0
  190.9090  173.4280  143.1600 C   0  0  0  0  0  0  0  0  0  0  0  0
  189.5220  172.8740  143.2380 C   0  0  0  0  0  2  0  0  0  0  0  0
  189.5220  171.4840  143.1030 O   0  0  0  0  0  1  0  0  0  0  0  0
  187.4320  177.0060  144.5760 C   0  0  0  0  0  0  0  0  0  0  0  0
  186.4380  177.4000  145.3910 C   0  0  0  0  0  3  0  0  0  0  0  0
  191.2640  175.8900  146.1370 C   0  0  0  0  0  0  0  0  0  0  0  0
  188.7600  176.6120  145.0880 C   0  0  0  0  0  0  0  0  0  0  0  0
  188.9160  175.3940  145.7620 C   0  0  0  0  0  3  0  0  0  0  0  0
  191.1050  177.1100  145.4720 C   0  0  0  0  0  3  0  0  0  0  0  0
  189.8580  177.4740  144.9530 C   0  0  0  0  0  3  0  0  0  0  0  0
  190.1620  175.0310  146.2800 C   0  0  0  0  0  3  0  0  0  0  0  0
  192.5500  175.5390  146.6580 N   0  0  0  0  0  2  0  0  0  0  0  0
  193.6590  176.4780  146.7670 C   0  0  0  0  0  2  0  0  0  0  0  0
  194.7780  176.0600  145.8750 C   0  0  0  0  0  0  0  0  0  0  0  0
  195.4930  175.0710  146.1830 O   0  0  0  0  0  1  0  0  0  0  0  0
  195.0470  176.7760  144.7160 O   0  0  0  0  0  0  0  0  0  0  0  0
  186.4940  177.5820  146.8530 C   0  0  0  0  0  0  0  0  0  0  0  0
  186.8260  178.6800  147.3720 O   0  0  0  0  0  0  0  0  0  0  0  0
  186.1440  176.4920  147.6970 N   0  0  0  0  0  1  0  0  0  0  0  0
  184.9890  178.6860  140.5890 C   0  0  0  0  0  2  0  0  0  0  0  0
  183.1180  178.2890  142.0150 O   0  0  0  0  0  1  0  0  0  0  0  0
  182.9040  177.5320  139.8620 O   0  0  0  0  0  0  0  0  0  0  0  0
  183.6170  178.1740  140.8650 C   0  0  0  0  0  0  0  0  0  0  0  0
  1  3  2  0  0  0  0
  2  4  1  0  0  0  0
  3  7  1  0  0  0  0
  4 35  1  0  0  0  0
  5 10  1  0  0  0  0
  6  9  1  0  0  0  0
  7  8  1  0  0  0  0
  8  2  2  0  0  0  0
  9  4  2  0  0  0  0
 10  8  1  0  0  0  0
 10  6  2  0  0  0  0
 11  1  1  0  0  0  0
 11  5  2  0  0  0  0
 12 13  2  0  0  0  0
 13  3  1  0  0  0  0
 13 14  1  0  0  0  0
 15 14  1  0  0  0  0
 15 16  1  0  0  0  0
 17 20  1  0  0  0  0
 17 16  1  0  0  0  0
 18 20  2  0  0  0  0
 19 24  1  0  0  0  0
 20 19  1  0  0  0  0
 21 24  1  0  0  0  0
 21 23  1  0  0  0  0
 22 21  2  0  0  0  0
 24 25  1  0  0  0  0
 25 27  1  0  0  0  0
 27 26  1  1  0  0  0
 27 28  1  0  0  0  0
 29 28  1  0  0  0  0
 30 32  2  0  0  0  0
 31 30  2  0  0  0  0
 32 33  1  0  0  0  0
 32 29  1  0  0  0  0
 34 33  1  0  0  0  0
 35 38  1  0  0  0  0
 35 36  2  0  0  0  0
 36 48  1  0  0  0  0
 37 42  1  0  0  0  0
 37 43  1  0  0  0  0
 38 39  1  0  0  0  0
 39 42  2  0  0  0  0
 40 37  2  0  0  0  0
 41 38  2  0  0  0  0
 41 40  1  0  0  0  0
 43 44  1  0  0  0  0
 45 46  1  0  0  0  0
 45 44  1  0  0  0  0
 47 45  2  0  0  0  0
 48 49  2  0  0  0  0
 48 50  1  0  0  0  0
 51 54  1  0  0  0  0
 51  6  1  0  0  0  0
 53 54  2  0  0  0  0
 54 52  1  0  0  0  0
M  END
>  <MODEL>
1

>  <REMARK>
 VINA RESULT:      -6.3      0.000      0.000
  Name = 
  20 active torsions:
  status: ('A' for Active; 'I' for Inactive)
    1  A    between atoms: C_2  and  C_27
    2  A    between atoms: C_2  and  C_54
    3  A    between atoms: C_4  and  C_48
    4  A    between atoms: C_5  and  C_52
    5  A    between atoms: C_6  and  C_50
    6  A    between atoms: C_8  and  N_13
    7  A    between atoms: C_9  and  C_25
    8  A    between atoms: C_12  and  C_25
    9  A    between atoms: N_13  and  C_52
   10  A    between atoms: C_16  and  C_19
   11  A    between atoms: C_16  and  C_37
   12  A    between atoms: N_17  and  N_51
   13  A    between atoms: C_18  and  C_46
   14  A    between atoms: C_18  and  N_51
   15  A    between atoms: C_19  and  C_46
   16  A    between atoms: S_20  and  C_35
   17  A    between atoms: S_20  and  C_41
   18  A    between atoms: C_26  and  C_37
   19  A    between atoms: C_41  and  C_49
   20  A    between atoms: C_49  and  N_53
                            x       y       z     vdW  Elec       q    Type
                         _______ _______ _______ _____ _____    ______ ____

>  <TORSDO>
F 20

$$$$
=
 OpenBabel11042417403D

 54 56  0  0  1  0  0  0  0  0999 V2000
  191.3890  176.4850  147.3190 C   0  0  0  0  0  2  0  0  0  0  0  0
  192.4530  173.0300  144.6260 N   0  0  0  0  0  0  0  0  0  0  0  0
  190.6270  175.5770  146.7160 C   0  0  0  0  0  0  0  0  0  0  0  0
  193.6060  172.4560  144.1930 C   0  0  0  0  0  0  0  0  0  0  0  0
  193.7530  175.9560  146.6370 C   0  0  0  0  0  3  0  0  0  0  0  0
  194.8430  174.1410  145.3930 C   0  0  0  0  0  0  0  0  0  0  0  0
  191.1130  174.5730  145.8210 N   0  0  0  0  0  0  0  0  0  0  0  0
  192.4160  174.1290  145.4280 C   0  0  0  0  0  0  0  0  0  0  0  0
  194.8220  173.0090  144.5840 C   0  0  0  0  0  3  0  0  0  0  0  0
  193.6330  174.7310  145.8300 C   0  0  0  0  0  0  0  0  0  0  0  0
  192.8330  176.6840  147.2510 C   0  0  0  0  0  3  0  0  0  0  0  0
  188.6350  174.6290  147.5640 O   0  0  0  0  0  0  0  0  0  0  0  0
  189.1780  175.6060  146.9810 C   0  0  0  0  0  0  0  0  0  0  0  0
  188.3870  176.7320  146.5860 N   0  0  0  0  0  2  0  0  0  0  0  0
  186.9840  176.8760  146.9460 C   0  0  0  0  0  2  0  0  0  0  0  0
  186.4570  178.2270  146.4940 C   0  0  0  0  0  2  0  0  0  0  0  0
  184.6390  178.1980  146.4400 S   0  0  0  0  0  0  0  0  0  0  0  0
  184.6530  180.0510  144.5120 N   0  0  0  0  0  2  0  0  0  0  0  0
  184.3850  177.8460  143.6940 N   0  0  0  0  0  2  0  0  0  0  0  0
  184.5920  178.7830  144.7530 C   0  0  0  0  0  0  0  0  0  0  0  0
  183.5560  178.2500  141.3890 C   0  0  0  0  0  0  0  0  0  0  0  0
  182.2320  178.2210  141.8130 O   0  0  0  0  0  1  0  0  0  0  0  0
  183.8070  178.4060  140.1650 O   0  0  0  0  0  0  0  0  0  0  0  0
  184.6290  178.1330  142.3390 N   0  0  0  0  0  0  0  0  0  0  0  0
  185.9960  178.4480  141.9430 C   0  0  0  0  0  2  0  0  0  0  0  0
  187.7710  177.7340  140.5270 O   0  0  0  0  0  1  0  0  0  0  0  0
  186.5770  177.3160  141.1170 C   0  0  1  0  0  3  0  0  0  0  0  0
  186.8400  176.0960  141.9900 C   0  0  0  0  0  2  0  0  0  0  0  0
  187.7600  176.4460  143.1560 C   0  0  0  0  0  2  0  0  0  0  0  0
  189.1460  174.4550  143.1380 C   0  0  0  0  0  0  0  0  0  0  0  0
  189.2040  173.2210  143.2120 O   0  0  0  0  0  0  0  0  0  0  0  0
  189.0870  175.7570  143.0570 C   0  0  0  0  0  0  0  0  0  0  0  0
  190.3410  176.5160  142.7580 C   0  0  0  0  0  2  0  0  0  0  0  0
  190.1410  177.8930  142.8750 O   0  0  0  0  0  1  0  0  0  0  0  0
  193.5650  171.2530  143.3280 C   0  0  0  0  0  0  0  0  0  0  0  0
  194.2980  170.1840  143.6830 C   0  0  0  0  0  3  0  0  0  0  0  0
  191.1220  171.1920  139.8070 C   0  0  0  0  0  0  0  0  0  0  0  0
  192.7160  171.2590  142.1190 C   0  0  0  0  0  0  0  0  0  0  0  0
  191.4270  170.7130  142.1680 C   0  0  0  0  0  3  0  0  0  0  0  0
  192.4130  171.7290  139.7570 C   0  0  0  0  0  3  0  0  0  0  0  0
  193.2100  171.7590  140.9060 C   0  0  0  0  0  3  0  0  0  0  0  0
  190.6310  170.6830  141.0200 C   0  0  0  0  0  3  0  0  0  0  0  0
  190.3250  171.1740  138.6180 N   0  0  0  0  0  2  0  0  0  0  0  0
  189.0440  171.8590  138.4960 C   0  0  0  0  0  2  0  0  0  0  0  0
  189.2400  173.3340  138.5820 C   0  0  0  0  0  0  0  0  0  0  0  0
  189.0720  174.0530  137.5630 O   0  0  0  0  0  0  0  0  0  0  0  0
  189.6310  173.9140  139.7820 O   0  0  0  0  0  1  0  0  0  0  0  0
  194.4530  168.9160  142.9450 C   0  0  0  0  0  0  0  0  0  0  0  0
  193.4710  168.1660  142.7030 O   0  0  0  0  0  0  0  0  0  0  0  0
  195.7440  168.5450  142.4770 N   0  0  0  0  0  1  0  0  0  0  0  0
  196.1820  174.6730  145.8060 C   0  0  0  0  0  2  0  0  0  0  0  0
  197.3940  175.2600  143.8370 O   0  0  0  0  0  0  0  0  0  0  0  0
  197.8860  173.2070  144.7310 O   0  0  0  0  0  1  0  0  0  0  0  0
  197.1940  174.4090  144.7440 C   0  0  0  0  0  0  0  0  0  0  0  0
  2  8  2  0  0  0  0
  3 13  1  0  0  0  0
  3  1  1  0  0  0  0
  4  9  2  0  0  0  0
  4  2  1  0  0  0  0
  5 11  2  0  0  0  0
  6 51  1  0  0  0  0
  6 10  2  0  0  0  0
  7  3  2  0  0  0  0
  8  7  1  0  0  0  0
  8 10  1  0  0  0  0
  9  6  1  0  0  0  0
 10  5  1  0  0  0  0
 11  1  1  0  0  0  0
 13 12  2  0  0  0  0
 14 15  1  0  0  0  0
 14 13  1  0  0  0  0
 16 15  1  0  0  0  0
 17 16  1  0  0  0  0
 18 20  2  0  0  0  0
 19 20  1  0  0  0  0
 20 17  1  0  0  0  0
 21 22  1  0  0  0  0
 21 24  1  0  0  0  0
 23 21  2  0  0  0  0
 24 19  1  0  0  0  0
 25 24  1  0  0  0  0
 27 26  1  1  0  0  0
 27 25  1  0  0  0  0
 27 28  1  0  0  0  0
 28 29  1  0  0  0  0
 30 31  2  0  0  0  0
 32 30  2  0  0  0  0
 32 29  1  0  0  0  0
 33 34  1  0  0  0  0
 33 32  1  0  0  0  0
 35 36  2  0  0  0  0
 35  4  1  0  0  0  0
 37 42  1  0  0  0  0
 38 39  1  0  0  0  0
 38 35  1  0  0  0  0
 40 37  2  0  0  0  0
 40 41  1  0  0  0  0
 41 38  2  0  0  0  0
 42 39  2  0  0  0  0
 43 37  1  0  0  0  0
 44 45  1  0  0  0  0
 44 43  1  0  0  0  0
 45 47  1  0  0  0  0
 46 45  2  0  0  0  0
 48 36  1  0  0  0  0
 49 48  2  0  0  0  0
 50 48  1  0  0  0  0
 52 54  2  0  0  0  0
 53 54  1  0  0  0  0
 54 51  1  0  0  0  0
M  END
>  <MODEL>
2

>  <REMARK>
 VINA RESULT:      -5.6      3.017      9.989
  Name = 
  20 active torsions:
  status: ('A' for Active; 'I' for Inactive)
    1  A    between atoms: C_2  and  C_27
    2  A    between atoms: C_2  and  C_54
    3  A    between atoms: C_4  and  C_48
    4  A    between atoms: C_5  and  C_52
    5  A    between atoms: C_6  and  C_50
    6  A    between atoms: C_8  and  N_13
    7  A    between atoms: C_9  and  C_25
    8  A    between atoms: C_12  and  C_25
    9  A    between atoms: N_13  and  C_52
   10  A    between atoms: C_16  and  C_19
   11  A    between atoms: C_16  and  C_37
   12  A    between atoms: N_17  and  N_51
   13  A    between atoms: C_18  and  C_46
   14  A    between atoms: C_18  and  N_51
   15  A    between atoms: C_19  and  C_46
   16  A    between atoms: S_20  and  C_35
   17  A    between atoms: S_20  and  C_41
   18  A    between atoms: C_26  and  C_37
   19  A    between atoms: C_41  and  C_49
   20  A    between atoms: C_49  and  N_53
                            x       y       z     vdW  Elec       q    Type
                         _______ _______ _______ _____ _____    ______ ____

>  <TORSDO>
F 20

$$$$
=
 OpenBabel11042417403D

 54 56  0  0  1  0  0  0  0  0999 V2000
  191.8330  176.1670  146.7210 C   0  0  0  0  0  2  0  0  0  0  0  0
  192.6300  173.4210  143.2340 N   0  0  0  0  0  0  0  0  0  0  0  0
  191.0170  175.3920  146.0120 C   0  0  0  0  0  0  0  0  0  0  0  0
  193.7340  172.9900  142.5710 C   0  0  0  0  0  0  0  0  0  0  0  0
  194.1150  175.8700  145.7030 C   0  0  0  0  0  3  0  0  0  0  0  0
  195.0800  174.4060  143.9840 C   0  0  0  0  0  0  0  0  0  0  0  0
  191.4130  174.6240  144.8720 N   0  0  0  0  0  0  0  0  0  0  0  0
  192.6700  174.3150  144.2610 C   0  0  0  0  0  0  0  0  0  0  0  0
  194.9820  173.4800  142.9500 C   0  0  0  0  0  3  0  0  0  0  0  0
  193.9190  174.8490  144.6600 C   0  0  0  0  0  0  0  0  0  0  0  0
  193.2600  176.4180  146.5530 C   0  0  0  0  0  3  0  0  0  0  0  0
  189.1520  174.2420  146.8990 O   0  0  0  0  0  0  0  0  0  0  0  0
  189.6040  175.3180  146.4210 C   0  0  0  0  0  0  0  0  0  0  0  0
  188.7470  176.4570  146.2850 N   0  0  0  0  0  2  0  0  0  0  0  0
  187.3860  176.4850  146.8020 C   0  0  0  0  0  2  0  0  0  0  0  0
  186.9680  177.9120  147.1150 C   0  0  0  0  0  2  0  0  0  0  0  0
  185.1570  178.0620  147.0260 S   0  0  0  0  0  0  0  0  0  0  0  0
  185.2710  179.8150  145.0100 N   0  0  0  0  0  2  0  0  0  0  0  0
  185.0380  177.5710  144.2920 N   0  0  0  0  0  2  0  0  0  0  0  0
  185.1950  178.5600  145.3120 C   0  0  0  0  0  0  0  0  0  0  0  0
  184.3450  178.1870  141.9890 C   0  0  0  0  0  0  0  0  0  0  0  0
  183.0600  178.5050  142.4140 O   0  0  0  0  0  1  0  0  0  0  0  0
  184.6290  178.2750  140.7660 O   0  0  0  0  0  0  0  0  0  0  0  0
  185.3500  177.7890  142.9380 N   0  0  0  0  0  0  0  0  0  0  0  0
  186.7510  177.7350  142.5430 C   0  0  0  0  0  2  0  0  0  0  0  0
  187.5150  176.5710  140.6110 O   0  0  0  0  0  1  0  0  0  0  0  0
  187.0700  176.3870  141.9210 C   0  0  1  0  0  3  0  0  0  0  0  0
  188.1420  175.6660  142.7280 C   0  0  0  0  0  2  0  0  0  0  0  0
  189.1270  174.9500  141.8080 C   0  0  0  0  0  2  0  0  0  0  0  0
  188.4210  172.9930  140.5590 C   0  0  0  0  0  0  0  0  0  0  0  0
  188.0320  172.5250  139.4810 O   0  0  0  0  0  0  0  0  0  0  0  0
  188.8340  173.4840  141.6960 C   0  0  0  0  0  0  0  0  0  0  0  0
  189.1060  172.5440  142.8280 C   0  0  0  0  0  2  0  0  0  0  0  0
  189.6750  171.3530  142.3730 O   0  0  0  0  0  1  0  0  0  0  0  0
  193.6100  172.0070  141.4690 C   0  0  0  0  0  0  0  0  0  0  0  0
  193.8750  170.7150  141.7310 C   0  0  0  0  0  3  0  0  0  0  0  0
  192.3860  173.2670  137.5600 C   0  0  0  0  0  0  0  0  0  0  0  0
  193.1890  172.4680  140.1300 C   0  0  0  0  0  0  0  0  0  0  0  0
  191.8390  172.4020  139.7620 C   0  0  0  0  0  3  0  0  0  0  0  0
  193.7350  173.3240  137.9260 C   0  0  0  0  0  3  0  0  0  0  0  0
  194.1370  172.9220  139.2030 C   0  0  0  0  0  3  0  0  0  0  0  0
  191.4380  172.8030  138.4850 C   0  0  0  0  0  3  0  0  0  0  0  0
  191.9990  173.6850  136.2470 N   0  0  0  0  0  2  0  0  0  0  0  0
  191.2760  174.9210  135.9750 C   0  0  0  0  0  2  0  0  0  0  0  0
  189.8550  174.6220  135.6350 C   0  0  0  0  0  0  0  0  0  0  0  0
  189.4590  173.4300  135.5750 O   0  0  0  0  0  1  0  0  0  0  0  0
  188.9740  175.6600  135.3590 O   0  0  0  0  0  0  0  0  0  0  0  0
  193.8750  169.5880  140.7800 C   0  0  0  0  0  0  0  0  0  0  0  0
  192.8110  169.1590  140.2620 O   0  0  0  0  0  0  0  0  0  0  0  0
  195.1130  168.9850  140.4260 N   0  0  0  0  0  1  0  0  0  0  0  0
  196.4520  174.8730  144.3660 C   0  0  0  0  0  2  0  0  0  0  0  0
  197.8450  172.9400  144.4730 O   0  0  0  0  0  0  0  0  0  0  0  0
  197.0830  173.7270  146.4870 O   0  0  0  0  0  1  0  0  0  0  0  0
  197.1770  173.8010  145.1040 C   0  0  0  0  0  0  0  0  0  0  0  0
  2  8  2  0  0  0  0
  3 13  1  0  0  0  0
  3  1  1  0  0  0  0
  4  9  2  0  0  0  0
  4  2  1  0  0  0  0
  5 11  2  0  0  0  0
  6 51  1  0  0  0  0
  6 10  2  0  0  0  0
  7  3  2  0  0  0  0
  8 10  1  0  0  0  0
  8  7  1  0  0  0  0
  9  6  1  0  0  0  0
 10  5  1  0  0  0  0
 11  1  1  0  0  0  0
 13 12  2  0  0  0  0
 14 13  1  0  0  0  0
 14 15  1  0  0  0  0
 15 16  1  0  0  0  0
 17 16  1  0  0  0  0
 18 20  2  0  0  0  0
 19 20  1  0  0  0  0
 20 17  1  0  0  0  0
 21 22  1  0  0  0  0
 21 24  1  0  0  0  0
 23 21  2  0  0  0  0
 24 19  1  0  0  0  0
 25 24  1  0  0  0  0
 27 26  1  6  0  0  0
 27 25  1  0  0  0  0
 27 28  1  0  0  0  0
 29 28  1  0  0  0  0
 30 32  2  0  0  0  0
 31 30  2  0  0  0  0
 32 29  1  0  0  0  0
 32 33  1  0  0  0  0
 34 33  1  0  0  0  0
 35 36  2  0  0  0  0
 35  4  1  0  0  0  0
 37 40  2  0  0  0  0
 37 42  1  0  0  0  0
 38 35  1  0  0  0  0
 39 38  1  0  0  0  0
 40 41  1  0  0  0  0
 41 38  2  0  0  0  0
 42 39  2  0  0  0  0
 43 37  1  0  0  0  0
 44 43  1  0  0  0  0
 45 44  1  0  0  0  0
 46 45  1  0  0  0  0
 47 45  2  0  0  0  0
 48 36  1  0  0  0  0
 49 48  2  0  0  0  0
 50 48  1  0  0  0  0
 51 54  1  0  0  0  0
 52 54  2  0  0  0  0
 54 53  1  0  0  0  0
M  END
>  <MODEL>
3

>  <REMARK>
 VINA RESULT:      -5.6      3.155      9.968
  Name = 
  20 active torsions:
  status: ('A' for Active; 'I' for Inactive)
    1  A    between atoms: C_2  and  C_27
    2  A    between atoms: C_2  and  C_54
    3  A    between atoms: C_4  and  C_48
    4  A    between atoms: C_5  and  C_52
    5  A    between atoms: C_6  and  C_50
    6  A    between atoms: C_8  and  N_13
    7  A    between atoms: C_9  and  C_25
    8  A    between atoms: C_12  and  C_25
    9  A    between atoms: N_13  and  C_52
   10  A    between atoms: C_16  and  C_19
   11  A    between atoms: C_16  and  C_37
   12  A    between atoms: N_17  and  N_51
   13  A    between atoms: C_18  and  C_46
   14  A    between atoms: C_18  and  N_51
   15  A    between atoms: C_19  and  C_46
   16  A    between atoms: S_20  and  C_35
   17  A    between atoms: S_20  and  C_41
   18  A    between atoms: C_26  and  C_37
   19  A    between atoms: C_41  and  C_49
   20  A    between atoms: C_49  and  N_53
                            x       y       z     vdW  Elec       q    Type
                         _______ _______ _______ _____ _____    ______ ____

>  <TORSDO>
F 20

$$$$
=
 OpenBabel11042417403D

 54 56  0  0  1  0  0  0  0  0999 V2000
  191.5990  176.2170  147.0590 C   0  0  0  0  0  2  0  0  0  0  0  0
  192.3660  174.0180  143.1980 N   0  0  0  0  0  0  0  0  0  0  0  0
  190.7750  175.5660  146.2420 C   0  0  0  0  0  0  0  0  0  0  0  0
  193.4660  173.6790  142.4760 C   0  0  0  0  0  0  0  0  0  0  0  0
  193.8770  176.0520  146.0040 C   0  0  0  0  0  3  0  0  0  0  0  0
  194.8260  174.8530  144.0830 C   0  0  0  0  0  0  0  0  0  0  0  0
  191.1620  174.9740  144.9990 N   0  0  0  0  0  0  0  0  0  0  0  0
  192.4160  174.7470  144.3470 C   0  0  0  0  0  0  0  0  0  0  0  0
  194.7180  174.0940  142.9220 C   0  0  0  0  0  3  0  0  0  0  0  0
  193.6700  175.2020  144.8200 C   0  0  0  0  0  0  0  0  0  0  0  0
  193.0280  176.4760  146.9280 C   0  0  0  0  0  3  0  0  0  0  0  0
  188.9700  174.4090  147.2390 O   0  0  0  0  0  0  0  0  0  0  0  0
  189.3610  175.4470  146.6390 C   0  0  0  0  0  0  0  0  0  0  0  0
  188.4330  176.4990  146.3510 N   0  0  0  0  0  2  0  0  0  0  0  0
  187.0620  176.4970  146.8420 C   0  0  0  0  0  2  0  0  0  0  0  0
  186.5520  177.9210  146.9940 C   0  0  0  0  0  2  0  0  0  0  0  0
  184.7650  177.9780  146.6610 S   0  0  0  0  0  0  0  0  0  0  0  0
  185.1130  179.7220  144.6640 N   0  0  0  0  0  2  0  0  0  0  0  0
  184.9830  177.4730  143.9360 N   0  0  0  0  0  2  0  0  0  0  0  0
  185.0080  178.4690  144.9610 C   0  0  0  0  0  0  0  0  0  0  0  0
  184.5930  178.1780  141.5870 C   0  0  0  0  0  0  0  0  0  0  0  0
  183.2980  178.5900  141.8800 O   0  0  0  0  0  1  0  0  0  0  0  0
  185.0140  178.2630  140.4040 O   0  0  0  0  0  0  0  0  0  0  0  0
  185.4550  177.6870  142.6290 N   0  0  0  0  0  0  0  0  0  0  0  0
  186.8830  177.5280  142.3840 C   0  0  0  0  0  2  0  0  0  0  0  0
  187.4340  176.0310  140.6170 O   0  0  0  0  0  1  0  0  0  0  0  0
  187.1920  176.0960  141.9900 C   0  0  1  0  0  3  0  0  0  0  0  0
  188.4100  175.5830  142.7470 C   0  0  0  0  0  2  0  0  0  0  0  0
  189.4130  174.9390  141.7950 C   0  0  0  0  0  2  0  0  0  0  0  0
  189.4020  172.8510  140.5590 C   0  0  0  0  0  0  0  0  0  0  0  0
  189.5620  172.2780  139.4740 O   0  0  0  0  0  0  0  0  0  0  0  0
  189.2360  173.4530  141.7050 C   0  0  0  0  0  0  0  0  0  0  0  0
  188.9770  172.6230  142.9220 C   0  0  0  0  0  2  0  0  0  0  0  0
  189.8990  171.5800  143.0300 O   0  0  0  0  0  1  0  0  0  0  0  0
  193.3310  172.8730  141.2390 C   0  0  0  0  0  0  0  0  0  0  0  0
  192.9120  171.6010  141.3470 C   0  0  0  0  0  3  0  0  0  0  0  0
  194.2250  174.5940  137.4180 C   0  0  0  0  0  0  0  0  0  0  0  0
  193.6450  173.4910  139.9350 C   0  0  0  0  0  0  0  0  0  0  0  0
  192.6070  173.9250  139.1000 C   0  0  0  0  0  3  0  0  0  0  0  0
  195.2610  174.1510  138.2470 C   0  0  0  0  0  3  0  0  0  0  0  0
  194.9730  173.5980  139.4990 C   0  0  0  0  0  3  0  0  0  0  0  0
  192.8950  174.4790  137.8500 C   0  0  0  0  0  3  0  0  0  0  0  0
  194.5440  175.1580  136.1410 N   0  0  0  0  0  2  0  0  0  0  0  0
  195.7690  175.9010  135.8720 C   0  0  0  0  0  2  0  0  0  0  0  0
  195.4590  177.1480  135.1160 C   0  0  0  0  0  0  0  0  0  0  0  0
  196.3900  177.9140  134.7540 O   0  0  0  0  0  0  0  0  0  0  0  0
  194.1400  177.4780  134.8320 O   0  0  0  0  0  1  0  0  0  0  0  0
  192.7670  170.6090  140.2660 C   0  0  0  0  0  0  0  0  0  0  0  0
  191.6590  170.0710  140.0050 O   0  0  0  0  0  0  0  0  0  0  0  0
  193.9060  170.2690  139.4850 N   0  0  0  0  0  1  0  0  0  0  0  0
  196.2030  175.2420  144.5290 C   0  0  0  0  0  2  0  0  0  0  0  0
  196.5670  177.1390  143.1290 O   0  0  0  0  0  1  0  0  0  0  0  0
  197.9350  175.3410  142.7410 O   0  0  0  0  0  0  0  0  0  0  0  0
  196.9150  175.9690  143.4400 C   0  0  0  0  0  0  0  0  0  0  0  0
  2  8  2  0  0  0  0
  3 13  1  0  0  0  0
  3  1  1  0  0  0  0
  4  9  2  0  0  0  0
  4  2  1  0  0  0  0
  5 11  2  0  0  0  0
  6 51  1  0  0  0  0
  6 10  2  0  0  0  0
  7  3  2  0  0  0  0
  8 10  1  0  0  0  0
  8  7  1  0  0  0  0
  9  6  1  0  0  0  0
 10  5  1  0  0  0  0
 11  1  1  0  0  0  0
 13 12  2  0  0  0  0
 14 13  1  0  0  0  0
 14 15  1  0  0  0  0
 15 16  1  0  0  0  0
 17 16  1  0  0  0  0
 18 20  2  0  0  0  0
 19 20  1  0  0  0  0
 20 17  1  0  0  0  0
 21 22  1  0  0  0  0
 21 24  1  0  0  0  0
 23 21  2  0  0  0  0
 24 19  1  0  0  0  0
 25 24  1  0  0  0  0
 27 26  1  6  0  0  0
 27 25  1  0  0  0  0
 27 28  1  0  0  0  0
 29 28  1  0  0  0  0
 30 32  2  0  0  0  0
 31 30  2  0  0  0  0
 32 29  1  0  0  0  0
 32 33  1  0  0  0  0
 33 34  1  0  0  0  0
 35 36  2  0  0  0  0
 35  4  1  0  0  0  0
 37 42  2  0  0  0  0
 37 40  1  0  0  0  0
 38 35  1  0  0  0  0
 39 38  2  0  0  0  0
 40 41  2  0  0  0  0
 41 38  1  0  0  0  0
 42 39  1  0  0  0  0
 43 37  1  0  0  0  0
 44 43  1  0  0  0  0
 45 44  1  0  0  0  0
 46 45  2  0  0  0  0
 47 45  1  0  0  0  0
 48 36  1  0  0  0  0
 49 48  2  0  0  0  0
 50 48  1  0  0  0  0
 52 54  1  0  0  0  0
 53 54  2  0  0  0  0
 54 51  1  0  0  0  0
M  END
>  <MODEL>
4

>  <REMARK>
 VINA RESULT:      -5.6      3.073      9.653
  Name = 
  20 active torsions:
  status: ('A' for Active; 'I' for Inactive)
    1  A    between atoms: C_2  and  C_27
    2  A    between atoms: C_2  and  C_54
    3  A    between atoms: C_4  and  C_48
    4  A    between atoms: C_5  and  C_52
    5  A    between atoms: C_6  and  C_50
    6  A    between atoms: C_8  and  N_13
    7  A    between atoms: C_9  and  C_25
    8  A    between atoms: C_12  and  C_25
    9  A    between atoms: N_13  and  C_52
   10  A    between atoms: C_16  and  C_19
   11  A    between atoms: C_16  and  C_37
   12  A    between atoms: N_17  and  N_51
   13  A    between atoms: C_18  and  C_46
   14  A    between atoms: C_18  and  N_51
   15  A    between atoms: C_19  and  C_46
   16  A    between atoms: S_20  and  C_35
   17  A    between atoms: S_20  and  C_41
   18  A    between atoms: C_26  and  C_37
   19  A    between atoms: C_41  and  C_49
   20  A    between atoms: C_49  and  N_53
                            x       y       z     vdW  Elec       q    Type
                         _______ _______ _______ _____ _____    ______ ____

>  <TORSDO>
F 20

$$$$
=
 OpenBabel11042417403D

 54 56  0  0  1  0  0  0  0  0999 V2000
  190.0790  177.7360  142.8770 C   0  0  0  0  0  2  0  0  0  0  0  0
  191.2150  173.5090  141.7950 N   0  0  0  0  0  0  0  0  0  0  0  0
  189.3460  176.7170  142.4370 C   0  0  0  0  0  0  0  0  0  0  0  0
  192.3470  172.7600  141.8650 C   0  0  0  0  0  0  0  0  0  0  0  0
  192.4420  176.8780  142.9960 C   0  0  0  0  0  3  0  0  0  0  0  0
  193.5180  174.6890  142.7120 C   0  0  0  0  0  0  0  0  0  0  0  0
  189.8720  175.4400  142.0630 N   0  0  0  0  0  0  0  0  0  0  0  0
  191.1570  174.8180  142.1630 C   0  0  0  0  0  0  0  0  0  0  0  0
  193.5170  173.3500  142.3350 C   0  0  0  0  0  3  0  0  0  0  0  0
  192.3320  175.4570  142.6270 C   0  0  0  0  0  0  0  0  0  0  0  0
  191.5180  177.8220  143.0980 C   0  0  0  0  0  3  0  0  0  0  0  0
  187.1150  175.9450  142.5520 O   0  0  0  0  0  0  0  0  0  0  0  0
  187.8910  176.9120  142.3200 C   0  0  0  0  0  0  0  0  0  0  0  0
  187.3540  178.1870  141.9520 N   0  0  0  0  0  2  0  0  0  0  0  0
  185.9270  178.4740  141.9590 C   0  0  0  0  0  2  0  0  0  0  0  0
  185.5480  179.2430  143.2140 C   0  0  0  0  0  2  0  0  0  0  0  0
  183.9680  178.6230  143.8690 S   0  0  0  0  0  0  0  0  0  0  0  0
  183.7980  178.3400  146.5230 N   0  0  0  0  0  2  0  0  0  0  0  0
  186.0160  178.6310  145.7490 N   0  0  0  0  0  2  0  0  0  0  0  0
  184.6120  178.4820  145.5290 C   0  0  0  0  0  0  0  0  0  0  0  0
  186.8490  179.1660  148.0260 C   0  0  0  0  0  0  0  0  0  0  0  0
  186.2620  180.4260  147.9920 O   0  0  0  0  0  0  0  0  0  0  0  0
  187.5220  178.8270  149.0350 O   0  0  0  0  0  1  0  0  0  0  0  0
  186.6650  178.2460  146.9360 N   0  0  0  0  0  0  0  0  0  0  0  0
  187.0300  176.8430  147.0910 C   0  0  0  0  0  2  0  0  0  0  0  0
  188.9660  177.5770  145.9160 O   0  0  0  0  0  1  0  0  0  0  0  0
  188.1310  176.4760  146.1150 C   0  0  1  0  0  3  0  0  0  0  0  0
  188.9490  175.3050  146.6450 C   0  0  0  0  0  2  0  0  0  0  0  0
  190.1430  175.0180  145.7390 C   0  0  0  0  0  2  0  0  0  0  0  0
  192.4290  174.3390  146.1820 C   0  0  0  0  0  0  0  0  0  0  0  0
  193.3620  173.5700  145.9140 O   0  0  0  0  0  0  0  0  0  0  0  0
  191.4480  175.1520  146.4640 C   0  0  0  0  0  0  0  0  0  0  0  0
  191.6950  176.2680  147.4300 C   0  0  0  0  0  2  0  0  0  0  0  0
  192.9600  176.8280  147.2460 O   0  0  0  0  0  1  0  0  0  0  0  0
  192.3290  171.3350  141.4550 C   0  0  0  0  0  0  0  0  0  0  0  0
  192.5920  170.3990  142.3840 C   0  0  0  0  0  3  0  0  0  0  0  0
  191.4130  170.2490  137.4120 C   0  0  0  0  0  0  0  0  0  0  0  0
  192.0110  170.9890  140.0550 C   0  0  0  0  0  0  0  0  0  0  0  0
  190.7100  170.6000  139.7100 C   0  0  0  0  0  3  0  0  0  0  0  0
  192.7140  170.6280  137.7600 C   0  0  0  0  0  3  0  0  0  0  0  0
  193.0150  170.9920  139.0760 C   0  0  0  0  0  3  0  0  0  0  0  0
  190.4100  170.2360  138.3940 C   0  0  0  0  0  3  0  0  0  0  0  0
  191.1290  169.8820  136.0580 N   0  0  0  0  0  2  0  0  0  0  0  0
  191.2300  170.8060  134.9350 C   0  0  0  0  0  2  0  0  0  0  0  0
  190.2930  171.9500  135.1240 C   0  0  0  0  0  0  0  0  0  0  0  0
  189.0610  171.7390  135.2650 O   0  0  0  0  0  1  0  0  0  0  0  0
  190.7780  173.2520  135.1200 O   0  0  0  0  0  0  0  0  0  0  0  0
  192.6870  168.9410  142.1860 C   0  0  0  0  0  0  0  0  0  0  0  0
  191.7490  168.1660  142.5110 O   0  0  0  0  0  0  0  0  0  0  0  0
  193.8610  168.4010  141.5920 N   0  0  0  0  0  1  0  0  0  0  0  0
  194.8000  175.2590  143.2390 C   0  0  0  0  0  2  0  0  0  0  0  0
  196.8920  174.9280  142.1420 O   0  0  0  0  0  1  0  0  0  0  0  0
  195.4310  176.3460  141.0870 O   0  0  0  0  0  0  0  0  0  0  0  0
  195.7630  175.4860  142.1250 C   0  0  0  0  0  0  0  0  0  0  0  0
  1 11  1  0  0  0  0
  2  4  1  0  0  0  0
  2  8  2  0  0  0  0
  3  1  1  0  0  0  0
  4  9  2  0  0  0  0
  5 11  2  0  0  0  0
  6 51  1  0  0  0  0
  7  8  1  0  0  0  0
  7  3  2  0  0  0  0
  8 10  1  0  0  0  0
  9  6  1  0  0  0  0
 10  6  2  0  0  0  0
 10  5  1  0  0  0  0
 13  3  1  0  0  0  0
 13 12  2  0  0  0  0
 14 15  1  0  0  0  0
 14 13  1  0  0  0  0
 15 16  1  0  0  0  0
 16 17  1  0  0  0  0
 17 20  1  0  0  0  0
 19 24  1  0  0  0  0
 20 19  1  0  0  0  0
 20 18  2  0  0  0  0
 21 23  1  0  0  0  0
 22 21  2  0  0  0  0
 24 25  1  0  0  0  0
 24 21  1  0  0  0  0
 27 26  1  1  0  0  0
 27 28  1  0  0  0  0
 27 25  1  0  0  0  0
 29 32  1  0  0  0  0
 29 28  1  0  0  0  0
 30 32  2  0  0  0  0
 31 30  2  0  0  0  0
 32 33  1  0  0  0  0
 34 33  1  0  0  0  0
 35  4  1  0  0  0  0
 35 36  2  0  0  0  0
 37 40  2  0  0  0  0
 37 42  1  0  0  0  0
 38 35  1  0  0  0  0
 39 38  1  0  0  0  0
 40 41  1  0  0  0  0
 41 38  2  0  0  0  0
 42 39  2  0  0  0  0
 43 37  1  0  0  0  0
 44 45  1  0  0  0  0
 44 43  1  0  0  0  0
 45 46  1  0  0  0  0
 47 45  2  0  0  0  0
 48 36  1  0  0  0  0
 48 49  2  0  0  0  0
 50 48  1  0  0  0  0
 53 54  2  0  0  0  0
 54 52  1  0  0  0  0
 54 51  1  0  0  0  0
M  END
>  <MODEL>
5

>  <REMARK>
 VINA RESULT:      -5.2      3.172      9.550
  Name = 
  20 active torsions:
  status: ('A' for Active; 'I' for Inactive)
    1  A    between atoms: C_2  and  C_27
    2  A    between atoms: C_2  and  C_54
    3  A    between atoms: C_4  and  C_48
    4  A    between atoms: C_5  and  C_52
    5  A    between atoms: C_6  and  C_50
    6  A    between atoms: C_8  and  N_13
    7  A    between atoms: C_9  and  C_25
    8  A    between atoms: C_12  and  C_25
    9  A    between atoms: N_13  and  C_52
   10  A    between atoms: C_16  and  C_19
   11  A    between atoms: C_16  and  C_37
   12  A    between atoms: N_17  and  N_51
   13  A    between atoms: C_18  and  C_46
   14  A    between atoms: C_18  and  N_51
   15  A    between atoms: C_19  and  C_46
   16  A    between atoms: S_20  and  C_35
   17  A    between atoms: S_20  and  C_41
   18  A    between atoms: C_26  and  C_37
   19  A    between atoms: C_41  and  C_49
   20  A    between atoms: C_49  and  N_53
                            x       y       z     vdW  Elec       q    Type
                         _______ _______ _______ _____ _____    ______ ____

>  <TORSDO>
F 20

$$$$
=
 OpenBabel11042417403D

 54 56  0  0  1  0  0  0  0  0999 V2000
  187.5470  174.9110  137.7420 C   0  0  0  0  0  3  0  0  0  0  0  0
  187.9730  175.8150  142.1380 N   0  0  0  0  0  0  0  0  0  0  0  0
  188.2390  174.3000  138.6990 C   0  0  0  0  0  0  0  0  0  0  0  0
  187.4180  176.7010  143.0050 C   0  0  0  0  0  0  0  0  0  0  0  0
  186.4230  176.8680  138.8540 C   0  0  0  0  0  3  0  0  0  0  0  0
  186.1870  177.6590  141.1670 C   0  0  0  0  0  0  0  0  0  0  0  0
  188.3340  174.7560  140.0510 N   0  0  0  0  0  2  0  0  0  0  0  0
  187.6870  175.7850  140.8080 C   0  0  0  0  0  0  0  0  0  0  0  0
  186.5050  177.6360  142.5210 C   0  0  0  0  0  3  0  0  0  0  0  0
  186.7790  176.7330  140.2760 C   0  0  0  0  0  0  0  0  0  0  0  0
  186.7380  176.1230  137.8050 C   0  0  0  0  0  3  0  0  0  0  0  0
  189.0710  172.7340  137.1350 O   0  0  0  0  0  0  0  0  0  0  0  0
  188.9660  173.0670  138.3470 C   0  0  0  0  0  0  0  0  0  0  0  0
  189.5530  172.2510  139.3660 N   0  0  0  0  0  2  0  0  0  0  0  0
  190.3980  171.1040  139.0680 C   0  0  0  0  0  2  0  0  0  0  0  0
  191.8270  171.3710  139.5100 C   0  0  0  0  0  2  0  0  0  0  0  0
  192.7900  169.8280  139.4630 S   0  0  0  0  0  0  0  0  0  0  0  0
  194.9940  170.0340  137.9630 N   0  0  0  0  0  2  0  0  0  0  0  0
  194.5950  171.9380  139.3120 N   0  0  0  0  0  2  0  0  0  0  0  0
  194.2360  170.6490  138.8100 C   0  0  0  0  0  0  0  0  0  0  0  0
  195.0770  173.8010  137.7440 C   0  0  0  0  0  0  0  0  0  0  0  0
  193.7220  174.0480  137.5510 O   0  0  0  0  0  1  0  0  0  0  0  0
  195.9230  174.4870  137.1120 O   0  0  0  0  0  0  0  0  0  0  0  0
  195.5100  172.7960  138.6760 N   0  0  0  0  0  0  0  0  0  0  0  0
  196.9060  172.7330  139.0900 C   0  0  0  0  0  2  0  0  0  0  0  0
  197.6440  172.2420  141.3000 O   0  0  0  0  0  1  0  0  0  0  0  0
  197.0550  173.2340  140.5150 C   0  0  1  0  0  3  0  0  0  0  0  0
  197.9120  174.4920  140.5530 C   0  0  0  0  0  2  0  0  0  0  0  0
  197.0690  175.7360  140.2870 C   0  0  0  0  0  2  0  0  0  0  0  0
  196.4730  176.5930  142.4760 C   0  0  0  0  0  0  0  0  0  0  0  0
  196.8420  177.1600  143.5130 O   0  0  0  0  0  0  0  0  0  0  0  0
  196.0820  175.9960  141.3830 C   0  0  0  0  0  0  0  0  0  0  0  0
  194.6280  175.6870  141.2150 C   0  0  0  0  0  2  0  0  0  0  0  0
  193.8730  176.2030  142.2700 O   0  0  0  0  0  1  0  0  0  0  0  0
  187.7720  176.6650  144.4440 C   0  0  0  0  0  0  0  0  0  0  0  0
  186.8230  176.9740  145.3450 C   0  0  0  0  0  3  0  0  0  0  0  0
  191.7660  175.5450  145.5210 C   0  0  0  0  0  0  0  0  0  0  0  0
  189.1410  176.2790  144.8430 C   0  0  0  0  0  0  0  0  0  0  0  0
  190.1490  177.2500  144.9100 C   0  0  0  0  0  3  0  0  0  0  0  0
  190.7620  174.5740  145.4440 C   0  0  0  0  0  3  0  0  0  0  0  0
  189.4550  174.9370  145.1020 C   0  0  0  0  0  3  0  0  0  0  0  0
  191.4540  176.8870  145.2530 C   0  0  0  0  0  3  0  0  0  0  0  0
  193.0950  175.1490  145.8750 N   0  0  0  0  0  2  0  0  0  0  0  0
  193.5710  173.7730  145.8100 C   0  0  0  0  0  2  0  0  0  0  0  0
  194.1990  173.5080  144.4840 C   0  0  0  0  0  0  0  0  0  0  0  0
  193.5250  172.9810  143.5620 O   0  0  0  0  0  0  0  0  0  0  0  0
  195.5360  173.8210  144.2730 O   0  0  0  0  0  1  0  0  0  0  0  0
  186.9710  177.0610  146.8100 C   0  0  0  0  0  0  0  0  0  0  0  0
  187.0620  176.0310  147.5280 O   0  0  0  0  0  0  0  0  0  0  0  0
  187.0340  178.3430  147.4210 N   0  0  0  0  0  1  0  0  0  0  0  0
  185.1750  178.6670  140.7110 C   0  0  0  0  0  2  0  0  0  0  0  0
  182.9930  177.8430  140.2140 O   0  0  0  0  0  0  0  0  0  0  0  0
  183.4020  178.3000  142.4220 O   0  0  0  0  0  1  0  0  0  0  0  0
  183.8020  178.2340  141.0950 C   0  0  0  0  0  0  0  0  0  0  0  0
  1 11  1  0  0  0  0
  1  3  2  0  0  0  0
  2  4  1  0  0  0  0
  3  7  1  0  0  0  0
  4 35  1  0  0  0  0
  5 10  1  0  0  0  0
  6  9  1  0  0  0  0
  7  8  1  0  0  0  0
  8  2  2  0  0  0  0
  9  4  2  0  0  0  0
 10  8  1  0  0  0  0
 10  6  2  0  0  0  0
 11  5  2  0  0  0  0
 12 13  2  0  0  0  0
 13  3  1  0  0  0  0
 13 14  1  0  0  0  0
 15 14  1  0  0  0  0
 15 16  1  0  0  0  0
 17 16  1  0  0  0  0
 18 20  2  0  0  0  0
 20 19  1  0  0  0  0
 20 17  1  0  0  0  0
 21 24  1  0  0  0  0
 22 21  1  0  0  0  0
 23 21  2  0  0  0  0
 24 25  1  0  0  0  0
 24 19  1  0  0  0  0
 25 27  1  0  0  0  0
 27 28  1  0  0  0  0
 27 26  1  1  0  0  0
 29 28  1  0  0  0  0
 29 32  1  0  0  0  0
 30 31  2  0  0  0  0
 32 30  2  0  0  0  0
 33 32  1  0  0  0  0
 33 34  1  0  0  0  0
 35 38  1  0  0  0  0
 35 36  2  0  0  0  0
 36 48  1  0  0  0  0
 37 43  1  0  0  0  0
 38 39  2  0  0  0  0
 38 41  1  0  0  0  0
 39 42  1  0  0  0  0
 40 37  1  0  0  0  0
 41 40  2  0  0  0  0
 42 37  2  0  0  0  0
 44 43  1  0  0  0  0
 45 44  1  0  0  0  0
 46 45  2  0  0  0  0
 47 45  1  0  0  0  0
 48 50  1  0  0  0  0
 48 49  2  0  0  0  0
 51 54  1  0  0  0  0
 51  6  1  0  0  0  0
 52 54  2  0  0  0  0
 54 53  1  0  0  0  0
M  END
>  <MODEL>
6

>  <REMARK>
 VINA RESULT:      -5.1      1.630      2.950
  Name = 
  20 active torsions:
  status: ('A' for Active; 'I' for Inactive)
    1  A    between atoms: C_2  and  C_27
    2  A    between atoms: C_2  and  C_54
    3  A    between atoms: C_4  and  C_48
    4  A    between atoms: C_5  and  C_52
    5  A    between atoms: C_6  and  C_50
    6  A    between atoms: C_8  and  N_13
    7  A    between atoms: C_9  and  C_25
    8  A    between atoms: C_12  and  C_25
    9  A    between atoms: N_13  and  C_52
   10  A    between atoms: C_16  and  C_19
   11  A    between atoms: C_16  and  C_37
   12  A    between atoms: N_17  and  N_51
   13  A    between atoms: C_18  and  C_46
   14  A    between atoms: C_18  and  N_51
   15  A    between atoms: C_19  and  C_46
   16  A    between atoms: S_20  and  C_35
   17  A    between atoms: S_20  and  C_41
   18  A    between atoms: C_26  and  C_37
   19  A    between atoms: C_41  and  C_49
   20  A    between atoms: C_49  and  N_53
                            x       y       z     vdW  Elec       q    Type
                         _______ _______ _______ _____ _____    ______ ____

>  <TORSDO>
F 20

$$$$
=
 OpenBabel11042417403D

 54 56  0  0  1  0  0  0  0  0999 V2000
  187.7020  175.0010  138.2480 C   0  0  0  0  0  3  0  0  0  0  0  0
  187.5190  176.3600  142.5430 N   0  0  0  0  0  0  0  0  0  0  0  0
  188.3170  174.5480  139.3370 C   0  0  0  0  0  0  0  0  0  0  0  0
  186.7960  177.2740  143.2410 C   0  0  0  0  0  0  0  0  0  0  0  0
  186.3050  176.9490  139.0100 C   0  0  0  0  0  3  0  0  0  0  0  0
  185.7290  177.9360  141.1840 C   0  0  0  0  0  0  0  0  0  0  0  0
  188.2100  175.1400  140.6350 N   0  0  0  0  0  2  0  0  0  0  0  0
  187.4000  176.1760  141.1990 C   0  0  0  0  0  0  0  0  0  0  0  0
  185.8810  178.0730  142.5600 C   0  0  0  0  0  3  0  0  0  0  0  0
  186.4940  176.9840  140.4700 C   0  0  0  0  0  0  0  0  0  0  0  0
  186.8010  176.1370  138.0900 C   0  0  0  0  0  3  0  0  0  0  0  0
  189.5020  172.9560  138.0530 O   0  0  0  0  0  0  0  0  0  0  0  0
  189.1720  173.3560  139.2030 C   0  0  0  0  0  0  0  0  0  0  0  0
  189.6320  172.6560  140.3630 N   0  0  0  0  0  2  0  0  0  0  0  0
  190.5900  171.5610  140.2950 C   0  0  0  0  0  2  0  0  0  0  0  0
  192.0070  172.0890  140.4440 C   0  0  0  0  0  2  0  0  0  0  0  0
  193.1950  170.7150  140.3450 S   0  0  0  0  0  0  0  0  0  0  0  0
  195.6700  171.2910  139.5090 N   0  0  0  0  0  2  0  0  0  0  0  0
  194.3810  173.2090  140.0230 N   0  0  0  0  0  2  0  0  0  0  0  0
  194.5390  171.7960  139.8800 C   0  0  0  0  0  0  0  0  0  0  0  0
  194.9830  174.6470  138.0910 C   0  0  0  0  0  0  0  0  0  0  0  0
  193.8150  174.3070  137.4170 O   0  0  0  0  0  0  0  0  0  0  0  0
  195.8130  175.4130  137.5350 O   0  0  0  0  0  1  0  0  0  0  0  0
  195.2300  174.1540  139.4190 N   0  0  0  0  0  0  0  0  0  0  0  0
  196.2960  174.7300  140.2280 C   0  0  0  0  0  2  0  0  0  0  0  0
  194.4210  175.8940  141.1200 O   0  0  0  0  0  1  0  0  0  0  0  0
  195.8020  175.9770  140.9390 C   0  0  1  0  0  3  0  0  0  0  0  0
  196.4860  176.1290  142.2910 C   0  0  0  0  0  2  0  0  0  0  0  0
  197.2430  174.8580  142.6660 C   0  0  0  0  0  2  0  0  0  0  0  0
  195.5510  173.4120  143.6300 C   0  0  0  0  0  0  0  0  0  0  0  0
  194.5440  172.7150  143.4490 O   0  0  0  0  0  0  0  0  0  0  0  0
  196.6130  174.1450  143.8240 C   0  0  0  0  0  0  0  0  0  0  0  0
  197.2360  174.1630  145.1840 C   0  0  0  0  0  2  0  0  0  0  0  0
  196.4220  173.5260  146.1230 O   0  0  0  0  0  1  0  0  0  0  0  0
  186.9740  177.4080  144.7070 C   0  0  0  0  0  0  0  0  0  0  0  0
  185.9890  177.9780  145.4220 C   0  0  0  0  0  3  0  0  0  0  0  0
  190.5910  175.9160  146.4550 C   0  0  0  0  0  0  0  0  0  0  0  0
  188.2130  176.9040  145.3350 C   0  0  0  0  0  0  0  0  0  0  0  0
  189.4000  177.6380  145.2260 C   0  0  0  0  0  3  0  0  0  0  0  0
  189.4070  175.1790  146.5550 C   0  0  0  0  0  3  0  0  0  0  0  0
  188.2220  175.6660  145.9940 C   0  0  0  0  0  3  0  0  0  0  0  0
  190.5830  177.1510  145.7870 C   0  0  0  0  0  3  0  0  0  0  0  0
  191.7910  175.3970  147.0390 N   0  0  0  0  0  2  0  0  0  0  0  0
  192.8910  174.8410  146.2600 C   0  0  0  0  0  2  0  0  0  0  0  0
  193.7230  175.9390  145.6890 C   0  0  0  0  0  0  0  0  0  0  0  0
  193.6230  176.2370  144.4720 O   0  0  0  0  0  0  0  0  0  0  0  0
  194.6270  176.6160  146.4970 O   0  0  0  0  0  1  0  0  0  0  0  0
  185.9800  178.2650  146.8680 C   0  0  0  0  0  0  0  0  0  0  0  0
  187.0410  178.5050  147.5030 O   0  0  0  0  0  0  0  0  0  0  0  0
  184.7360  178.2940  147.5570 N   0  0  0  0  0  1  0  0  0  0  0  0
  184.7060  178.8020  140.5120 C   0  0  0  0  0  2  0  0  0  0  0  0
  182.7780  178.4490  141.8710 O   0  0  0  0  0  1  0  0  0  0  0  0
  182.6890  177.5440  139.7660 O   0  0  0  0  0  0  0  0  0  0  0  0
  183.3360  178.2710  140.7560 C   0  0  0  0  0  0  0  0  0  0  0  0
  1  3  2  0  0  0  0
  2  4  1  0  0  0  0
  3  7  1  0  0  0  0
  4 35  1  0  0  0  0
  5 10  1  0  0  0  0
  6  9  1  0  0  0  0
  7  8  1  0  0  0  0
  8  2  2  0  0  0  0
  9  4  2  0  0  0  0
 10  6  2  0  0  0  0
 10  8  1  0  0  0  0
 11  1  1  0  0  0  0
 11  5  2  0  0  0  0
 12 13  2  0  0  0  0
 13  3  1  0  0  0  0
 13 14  1  0  0  0  0
 15 14  1  0  0  0  0
 15 16  1  0  0  0  0
 17 16  1  0  0  0  0
 18 20  2  0  0  0  0
 20 19  1  0  0  0  0
 20 17  1  0  0  0  0
 21 24  1  0  0  0  0
 22 21  2  0  0  0  0
 23 21  1  0  0  0  0
 24 19  1  0  0  0  0
 24 25  1  0  0  0  0
 25 27  1  0  0  0  0
 27 26  1  1  0  0  0
 27 28  1  0  0  0  0
 28 29  1  0  0  0  0
 29 32  1  0  0  0  0
 30 32  2  0  0  0  0
 31 30  2  0  0  0  0
 32 33  1  0  0  0  0
 33 34  1  0  0  0  0
 35 38  1  0  0  0  0
 35 36  2  0  0  0  0
 36 48  1  0  0  0  0
 37 40  1  0  0  0  0
 37 43  1  0  0  0  0
 38 41  1  0  0  0  0
 39 38  2  0  0  0  0
 39 42  1  0  0  0  0
 41 40  2  0  0  0  0
 42 37  2  0  0  0  0
 44 43  1  0  0  0  0
 45 44  1  0  0  0  0
 45 47  1  0  0  0  0
 46 45  2  0  0  0  0
 48 49  2  0  0  0  0
 48 50  1  0  0  0  0
 51 54  1  0  0  0  0
 51  6  1  0  0  0  0
 53 54  2  0  0  0  0
 54 52  1  0  0  0  0
M  END
>  <MODEL>
7

>  <REMARK>
 VINA RESULT:      -5.1      1.591      2.696
  Name = 
  20 active torsions:
  status: ('A' for Active; 'I' for Inactive)
    1  A    between atoms: C_2  and  C_27
    2  A    between atoms: C_2  and  C_54
    3  A    between atoms: C_4  and  C_48
    4  A    between atoms: C_5  and  C_52
    5  A    between atoms: C_6  and  C_50
    6  A    between atoms: C_8  and  N_13
    7  A    between atoms: C_9  and  C_25
    8  A    between atoms: C_12  and  C_25
    9  A    between atoms: N_13  and  C_52
   10  A    between atoms: C_16  and  C_19
   11  A    between atoms: C_16  and  C_37
   12  A    between atoms: N_17  and  N_51
   13  A    between atoms: C_18  and  C_46
   14  A    between atoms: C_18  and  N_51
   15  A    between atoms: C_19  and  C_46
   16  A    between atoms: S_20  and  C_35
   17  A    between atoms: S_20  and  C_41
   18  A    between atoms: C_26  and  C_37
   19  A    between atoms: C_41  and  C_49
   20  A    between atoms: C_49  and  N_53
                            x       y       z     vdW  Elec       q    Type
                         _______ _______ _______ _____ _____    ______ ____

>  <TORSDO>
F 20

$$$$
=
 OpenBabel11042417403D

 54 56  0  0  1  0  0  0  0  0999 V2000
  190.7090  177.0050  146.3760 C   0  0  0  0  0  2  0  0  0  0  0  0
  189.9350  175.0000  142.4120 N   0  0  0  0  0  0  0  0  0  0  0  0
  191.5340  176.4070  145.5200 C   0  0  0  0  0  0  0  0  0  0  0  0
  188.8590  174.8440  141.5970 C   0  0  0  0  0  0  0  0  0  0  0  0
  188.4130  176.8020  145.3680 C   0  0  0  0  0  3  0  0  0  0  0  0
  187.5140  176.0040  143.2270 C   0  0  0  0  0  0  0  0  0  0  0  0
  191.1210  175.7440  144.3220 N   0  0  0  0  0  0  0  0  0  0  0  0
  189.8810  175.6360  143.6150 C   0  0  0  0  0  0  0  0  0  0  0  0
  187.6290  175.3570  142.0000 C   0  0  0  0  0  3  0  0  0  0  0  0
  188.6420  176.1520  144.0670 C   0  0  0  0  0  0  0  0  0  0  0  0
  189.2590  177.1540  146.3240 C   0  0  0  0  0  3  0  0  0  0  0  0
  193.3560  176.6020  147.0140 O   0  0  0  0  0  0  0  0  0  0  0  0
  192.9750  176.4210  145.8260 C   0  0  0  0  0  0  0  0  0  0  0  0
  193.9410  176.2260  144.7870 N   0  0  0  0  0  2  0  0  0  0  0  0
  195.3660  176.0900  145.0520 C   0  0  0  0  0  2  0  0  0  0  0  0
  196.1060  175.7010  143.7830 C   0  0  0  0  0  2  0  0  0  0  0  0
  197.6530  174.8420  144.2040 S   0  0  0  0  0  0  0  0  0  0  0  0
  196.9110  173.7230  146.5160 N   0  0  0  0  0  2  0  0  0  0  0  0
  196.1230  172.5570  144.6130 N   0  0  0  0  0  2  0  0  0  0  0  0
  196.8120  173.6470  145.2300 C   0  0  0  0  0  0  0  0  0  0  0  0
  195.5890  170.5410  145.9590 C   0  0  0  0  0  0  0  0  0  0  0  0
  196.9340  170.2190  146.0920 O   0  0  0  0  0  0  0  0  0  0  0  0
  194.7210  169.7790  146.4610 O   0  0  0  0  0  1  0  0  0  0  0  0
  195.1890  171.7450  145.2810 N   0  0  0  0  0  0  0  0  0  0  0  0
  193.8180  172.2270  145.3890 C   0  0  0  0  0  2  0  0  0  0  0  0
  191.6030  171.9000  144.5810 O   0  0  0  0  0  1  0  0  0  0  0  0
  192.9300  171.5100  144.3890 C   0  0  1  0  0  3  0  0  0  0  0  0
  193.3560  171.8340  142.9640 C   0  0  0  0  0  2  0  0  0  0  0  0
  193.1340  173.3110  142.6510 C   0  0  0  0  0  2  0  0  0  0  0  0
  195.1470  173.1380  141.3070 C   0  0  0  0  0  0  0  0  0  0  0  0
  196.1740  172.5020  141.0410 O   0  0  0  0  0  0  0  0  0  0  0  0
  194.0620  173.8100  141.5850 C   0  0  0  0  0  0  0  0  0  0  0  0
  193.7240  175.0050  140.7510 C   0  0  0  0  0  2  0  0  0  0  0  0
  194.8200  175.8610  140.6230 O   0  0  0  0  0  1  0  0  0  0  0  0
  189.0000  174.1490  140.2960 C   0  0  0  0  0  0  0  0  0  0  0  0
  188.2900  174.6010  139.2480 C   0  0  0  0  0  3  0  0  0  0  0  0
  191.7040  170.8330  140.0470 C   0  0  0  0  0  0  0  0  0  0  0  0
  189.9190  172.9970  140.1860 C   0  0  0  0  0  0  0  0  0  0  0  0
  189.6950  171.8490  140.9570 C   0  0  0  0  0  3  0  0  0  0  0  0
  191.9320  171.9830  139.2840 C   0  0  0  0  0  3  0  0  0  0  0  0
  191.0460  173.0640  139.3560 C   0  0  0  0  0  3  0  0  0  0  0  0
  190.5790  170.7700  140.8850 C   0  0  0  0  0  3  0  0  0  0  0  0
  192.6230  169.7390  139.9550 N   0  0  0  0  0  2  0  0  0  0  0  0
  194.0640  169.9070  139.8160 C   0  0  0  0  0  2  0  0  0  0  0  0
  194.5170  169.3890  138.4940 C   0  0  0  0  0  0  0  0  0  0  0  0
  193.6800  169.1810  137.5780 O   0  0  0  0  0  0  0  0  0  0  0  0
  195.8610  169.1110  138.2810 O   0  0  0  0  0  1  0  0  0  0  0  0
  188.2300  174.0290  137.8900 C   0  0  0  0  0  0  0  0  0  0  0  0
  188.1880  172.7860  137.6960 O   0  0  0  0  0  0  0  0  0  0  0  0
  188.1970  174.9090  136.7730 N   0  0  0  0  0  1  0  0  0  0  0  0
  186.1710  176.5610  143.5910 C   0  0  0  0  0  2  0  0  0  0  0  0
  185.1830  177.6330  141.7030 O   0  0  0  0  0  0  0  0  0  0  0  0
  186.3560  179.0010  143.1210 O   0  0  0  0  0  1  0  0  0  0  0  0
  185.8610  177.7570  142.7570 C   0  0  0  0  0  0  0  0  0  0  0  0
  2  8  2  0  0  0  0
  3 13  1  0  0  0  0
  3  1  1  0  0  0  0
  4  9  2  0  0  0  0
  4  2  1  0  0  0  0
  5 11  2  0  0  0  0
  6 51  1  0  0  0  0
  6 10  2  0  0  0  0
  7  3  2  0  0  0  0
  8 10  1  0  0  0  0
  8  7  1  0  0  0  0
  9  6  1  0  0  0  0
 10  5  1  0  0  0  0
 11  1  1  0  0  0  0
 13 12  2  0  0  0  0
 14 15  1  0  0  0  0
 14 13  1  0  0  0  0
 16 17  1  0  0  0  0
 16 15  1  0  0  0  0
 17 20  1  0  0  0  0
 19 20  1  0  0  0  0
 19 24  1  0  0  0  0
 20 18  2  0  0  0  0
 21 22  2  0  0  0  0
 21 23  1  0  0  0  0
 24 25  1  0  0  0  0
 24 21  1  0  0  0  0
 27 26  1  6  0  0  0
 27 25  1  0  0  0  0
 28 27  1  0  0  0  0
 29 28  1  0  0  0  0
 30 32  2  0  0  0  0
 31 30  2  0  0  0  0
 32 29  1  0  0  0  0
 33 32  1  0  0  0  0
 34 33  1  0  0  0  0
 35  4  1  0  0  0  0
 36 35  2  0  0  0  0
 37 42  1  0  0  0  0
 38 35  1  0  0  0  0
 38 39  1  0  0  0  0
 40 41  1  0  0  0  0
 40 37  2  0  0  0  0
 41 38  2  0  0  0  0
 42 39  2  0  0  0  0
 43 37  1  0  0  0  0
 44 43  1  0  0  0  0
 45 44  1  0  0  0  0
 46 45  2  0  0  0  0
 47 45  1  0  0  0  0
 48 36  1  0  0  0  0
 49 48  2  0  0  0  0
 50 48  1  0  0  0  0
 52 54  2  0  0  0  0
 54 53  1  0  0  0  0
 54 51  1  0  0  0  0
M  END
>  <MODEL>
8

>  <REMARK>
 VINA RESULT:      -5.0      2.829      7.011
  Name = 
  20 active torsions:
  status: ('A' for Active; 'I' for Inactive)
    1  A    between atoms: C_2  and  C_27
    2  A    between atoms: C_2  and  C_54
    3  A    between atoms: C_4  and  C_48
    4  A    between atoms: C_5  and  C_52
    5  A    between atoms: C_6  and  C_50
    6  A    between atoms: C_8  and  N_13
    7  A    between atoms: C_9  and  C_25
    8  A    between atoms: C_12  and  C_25
    9  A    between atoms: N_13  and  C_52
   10  A    between atoms: C_16  and  C_19
   11  A    between atoms: C_16  and  C_37
   12  A    between atoms: N_17  and  N_51
   13  A    between atoms: C_18  and  C_46
   14  A    between atoms: C_18  and  N_51
   15  A    between atoms: C_19  and  C_46
   16  A    between atoms: S_20  and  C_35
   17  A    between atoms: S_20  and  C_41
   18  A    between atoms: C_26  and  C_37
   19  A    between atoms: C_41  and  C_49
   20  A    between atoms: C_49  and  N_53
                            x       y       z     vdW  Elec       q    Type
                         _______ _______ _______ _____ _____    ______ ____

>  <TORSDO>
F 20

$$$$
=
 OpenBabel11042417403D

 54 56  0  0  1  0  0  0  0  0999 V2000
  190.3120  172.6220  138.1620 C   0  0  0  0  0  3  0  0  0  0  0  0
  192.9690  173.1040  141.7720 N   0  0  0  0  0  0  0  0  0  0  0  0
  190.1330  173.2900  139.2980 C   0  0  0  0  0  0  0  0  0  0  0  0
  194.2350  172.7380  142.1010 C   0  0  0  0  0  0  0  0  0  0  0  0
  192.5680  171.5260  138.3590 C   0  0  0  0  0  3  0  0  0  0  0  0
  194.4180  171.6240  139.9710 C   0  0  0  0  0  0  0  0  0  0  0  0
  191.0510  173.2870  140.3950 N   0  0  0  0  0  2  0  0  0  0  0  0
  192.3760  172.7820  140.5890 C   0  0  0  0  0  0  0  0  0  0  0  0
  194.9790  171.9920  141.1900 C   0  0  0  0  0  3  0  0  0  0  0  0
  193.0950  172.0080  139.6470 C   0  0  0  0  0  0  0  0  0  0  0  0
  191.4210  171.7730  137.7430 C   0  0  0  0  0  3  0  0  0  0  0  0
  188.0630  174.1120  138.5040 O   0  0  0  0  0  0  0  0  0  0  0  0
  188.9030  174.0880  139.4450 C   0  0  0  0  0  0  0  0  0  0  0  0
  188.6550  174.8300  140.6440 N   0  0  0  0  0  2  0  0  0  0  0  0
  187.3980  175.5180  140.8990 C   0  0  0  0  0  2  0  0  0  0  0  0
  187.5630  177.0150  140.6950 C   0  0  0  0  0  2  0  0  0  0  0  0
  185.9340  177.8240  140.6930 S   0  0  0  0  0  0  0  0  0  0  0  0
  186.7710  179.0740  142.9040 N   0  0  0  0  0  2  0  0  0  0  0  0
  185.2610  177.3040  143.3400 N   0  0  0  0  0  2  0  0  0  0  0  0
  185.9950  178.1460  142.4490 C   0  0  0  0  0  0  0  0  0  0  0  0
  184.0700  178.6840  145.0260 C   0  0  0  0  0  0  0  0  0  0  0  0
  183.3130  179.3100  144.0430 O   0  0  0  0  0  0  0  0  0  0  0  0
  183.9240  179.0270  146.2280 O   0  0  0  0  0  1  0  0  0  0  0  0
  184.9900  177.6330  144.6800 N   0  0  0  0  0  0  0  0  0  0  0  0
  185.5640  176.7890  145.7200 C   0  0  0  0  0  2  0  0  0  0  0  0
  186.6680  177.5530  147.6860 O   0  0  0  0  0  1  0  0  0  0  0  0
  186.8040  177.4420  146.3020 C   0  0  1  0  0  3  0  0  0  0  0  0
  188.0440  176.6200  145.9760 C   0  0  0  0  0  2  0  0  0  0  0  0
  188.9260  177.3420  144.9610 C   0  0  0  0  0  2  0  0  0  0  0  0
  189.5640  175.1030  144.2810 C   0  0  0  0  0  0  0  0  0  0  0  0
  189.4460  173.8830  144.4580 O   0  0  0  0  0  0  0  0  0  0  0  0
  189.6880  176.3880  144.0920 C   0  0  0  0  0  0  0  0  0  0  0  0
  190.5080  176.8680  142.9370 C   0  0  0  0  0  2  0  0  0  0  0  0
  190.7210  178.2460  143.0030 O   0  0  0  0  0  1  0  0  0  0  0  0
  194.8150  173.1360  143.4050 C   0  0  0  0  0  0  0  0  0  0  0  0
  196.0030  172.6180  143.7620 C   0  0  0  0  0  3  0  0  0  0  0  0
  192.7610  175.9210  145.9340 C   0  0  0  0  0  0  0  0  0  0  0  0
  194.0840  174.0930  144.2610 C   0  0  0  0  0  0  0  0  0  0  0  0
  194.2560  175.4700  144.0740 C   0  0  0  0  0  3  0  0  0  0  0  0
  192.5970  174.5450  146.1270 C   0  0  0  0  0  3  0  0  0  0  0  0
  193.2580  173.6330  145.2980 C   0  0  0  0  0  3  0  0  0  0  0  0
  193.5950  176.3810  144.9020 C   0  0  0  0  0  3  0  0  0  0  0  0
  192.0730  176.8350  146.7940 N   0  0  0  0  0  2  0  0  0  0  0  0
  191.5120  176.4590  148.0860 C   0  0  0  0  0  2  0  0  0  0  0  0
  191.0070  177.6670  148.7990 C   0  0  0  0  0  0  0  0  0  0  0  0
  190.0750  178.3490  148.3010 O   0  0  0  0  0  0  0  0  0  0  0  0
  191.5830  178.0530  150.0030 O   0  0  0  0  0  1  0  0  0  0  0  0
  196.7290  172.8260  145.0290 C   0  0  0  0  0  0  0  0  0  0  0  0
  196.9390  173.9790  145.4910 O   0  0  0  0  0  0  0  0  0  0  0  0
  197.1820  171.6920  145.7580 N   0  0  0  0  0  1  0  0  0  0  0  0
  195.2780  170.8480  139.0200 C   0  0  0  0  0  2  0  0  0  0  0  0
  195.1120  172.1640  137.0370 O   0  0  0  0  0  0  0  0  0  0  0  0
  197.1830  172.1030  138.0180 O   0  0  0  0  0  1  0  0  0  0  0  0
  195.8410  171.7510  137.9760 C   0  0  0  0  0  0  0  0  0  0  0  0
  1  3  2  0  0  0  0
  2  4  1  0  0  0  0
  3 13  1  0  0  0  0
  3  7  1  0  0  0  0
  4 35  1  0  0  0  0
  5 10  1  0  0  0  0
  6  9  1  0  0  0  0
  7  8  1  0  0  0  0
  8  2  2  0  0  0  0
  9  4  2  0  0  0  0
 10  6  2  0  0  0  0
 10  8  1  0  0  0  0
 11  1  1  0  0  0  0
 11  5  2  0  0  0  0
 12 13  2  0  0  0  0
 13 14  1  0  0  0  0
 14 15  1  0  0  0  0
 16 15  1  0  0  0  0
 17 16  1  0  0  0  0
 17 20  1  0  0  0  0
 19 24  1  0  0  0  0
 20 18  2  0  0  0  0
 20 19  1  0  0  0  0
 21 23  1  0  0  0  0
 22 21  2  0  0  0  0
 24 21  1  0  0  0  0
 24 25  1  0  0  0  0
 25 27  1  0  0  0  0
 27 26  1  1  0  0  0
 28 27  1  0  0  0  0
 29 28  1  0  0  0  0
 30 31  2  0  0  0  0
 32 30  2  0  0  0  0
 32 29  1  0  0  0  0
 33 34  1  0  0  0  0
 33 32  1  0  0  0  0
 35 36  2  0  0  0  0
 35 38  1  0  0  0  0
 36 48  1  0  0  0  0
 37 40  1  0  0  0  0
 37 43  1  0  0  0  0
 38 41  1  0  0  0  0
 39 38  2  0  0  0  0
 39 42  1  0  0  0  0
 41 40  2  0  0  0  0
 42 37  2  0  0  0  0
 43 44  1  0  0  0  0
 44 45  1  0  0  0  0
 45 47  1  0  0  0  0
 46 45  2  0  0  0  0
 48 49  2  0  0  0  0
 48 50  1  0  0  0  0
 51  6  1  0  0  0  0
 52 54  2  0  0  0  0
 54 53  1  0  0  0  0
 54 51  1  0  0  0  0
M  END
>  <MODEL>
9

>  <REMARK>
 VINA RESULT:      -4.9      2.681      8.462
  Name = 
  20 active torsions:
  status: ('A' for Active; 'I' for Inactive)
    1  A    between atoms: C_2  and  C_27
    2  A    between atoms: C_2  and  C_54
    3  A    between atoms: C_4  and  C_48
    4  A    between atoms: C_5  and  C_52
    5  A    between atoms: C_6  and  C_50
    6  A    between atoms: C_8  and  N_13
    7  A    between atoms: C_9  and  C_25
    8  A    between atoms: C_12  and  C_25
    9  A    between atoms: N_13  and  C_52
   10  A    between atoms: C_16  and  C_19
   11  A    between atoms: C_16  and  C_37
   12  A    between atoms: N_17  and  N_51
   13  A    between atoms: C_18  and  C_46
   14  A    between atoms: C_18  and  N_51
   15  A    between atoms: C_19  and  C_46
   16  A    between atoms: S_20  and  C_35
   17  A    between atoms: S_20  and  C_41
   18  A    between atoms: C_26  and  C_37
   19  A    between atoms: C_41  and  C_49
   20  A    between atoms: C_49  and  N_53
                            x       y       z     vdW  Elec       q    Type
                         _______ _______ _______ _____ _____    ______ ____

>  <TORSDO>
F 20

$$$$
