=
 OpenBabel11042415553D

 50 54  0  0  1  0  0  0  0  0999 V2000
  194.1060  174.6330  145.1680 N   0  0  0  0  0  0  0  0  0  0  0  0
  191.3460  176.3700  147.1160 C   0  0  0  0  0  2  0  0  0  0  0  0
  191.2140  174.4660  145.2960 C   0  0  0  0  0  2  0  0  0  0  0  0
  189.8130  176.3860  146.9330 C   0  0  2  0  0  3  0  0  0  0  0  0
  193.3570  175.4790  146.0520 C   0  0  0  0  0  3  0  0  0  0  0  0
  189.2710  174.9910  146.7370 C   0  0  0  0  0  3  0  0  0  0  0  0
  189.9260  174.0950  145.9820 C   0  0  0  0  0  3  0  0  0  0  0  0
  192.0270  175.4000  146.1740 C   0  0  0  0  0  0  0  0  0  0  0  0
  189.4560  177.3190  145.7740 C   0  0  0  0  0  2  0  0  0  0  0  0
  188.0090  177.3500  145.5810 N   0  0  0  0  0  2  0  0  0  0  0  0
  188.7450  177.3540  143.2300 C   0  0  0  0  0  2  0  0  0  0  0  0
  188.0690  176.2170  142.4670 C   0  0  2  0  0  3  0  0  0  0  0  0
  186.3830  177.3700  143.7730 C   0  0  2  0  0  3  0  0  0  0  0  0
  187.7330  177.8860  144.2450 C   0  0  1  0  0  3  0  0  0  0  0  0
  186.6080  176.6340  142.4450 C   0  0  0  0  0  2  0  0  0  0  0  0
  185.3660  178.4370  143.7260 N   0  0  0  0  0  0  0  0  0  0  0  0
  184.5280  178.3210  142.5370 C   0  0  0  0  0  1  0  0  0  0  0  0
  184.5000  178.3020  144.8940 C   0  0  0  0  0  1  0  0  0  0  0  0
  188.5380  174.0310  142.2800 C   0  0  0  0  0  1  0  0  0  0  0  0
  188.1780  175.0250  143.2030 O   0  0  0  0  0  0  0  0  0  0  0  0
  196.1300  173.2300  145.3470 C   0  0  0  0  0  2  0  0  0  0  0  0
  196.6680  171.9900  146.0460 C   0  0  0  0  0  2  0  0  0  0  0  0
  194.5950  170.8200  145.2550 C   0  0  0  0  0  0  0  0  0  0  0  0
  194.6300  173.3340  145.6190 C   0  0  2  0  0  3  0  0  0  0  0  0
  193.9190  172.1330  144.9670 C   0  0  0  0  0  2  0  0  0  0  0  0
  195.8730  170.7650  145.6870 C   0  0  0  0  0  3  0  0  0  0  0  0
  193.1690  168.9420  142.4870 C   0  0  0  0  0  3  0  0  0  0  0  0
  193.8550  169.5940  144.9200 C   0  0  0  0  0  3  0  0  0  0  0  0
  193.5160  169.2740  143.6990 C   0  0  0  0  0  0  0  0  0  0  0  0
  191.7540  168.5610  142.2220 C   0  0  0  0  0  2  0  0  0  0  0  0
  191.2700  169.2340  140.9430 C   0  0  0  0  0  2  0  0  0  0  0  0
  190.1400  170.8600  142.2970 O   0  0  0  0  0  0  0  0  0  0  0  0
  190.6920  171.6100  140.1860 N   0  0  0  0  0  2  0  0  0  0  0  0
  190.7120  170.6090  141.2010 C   0  0  0  0  0  0  0  0  0  0  0  0
  189.4500  171.3730  135.8560 C   0  0  0  0  0  1  0  0  0  0  0  0
  191.4270  171.6050  138.9250 C   0  0  1  0  0  0  0  0  0  0  0  0
  190.7290  170.7390  137.8870 C   0  0  1  0  0  3  0  0  0  0  0  0
  191.3820  173.0050  138.3300 C   0  0  0  0  0  2  0  0  0  0  0  0
  190.7080  171.6290  136.6620 C   0  0  2  0  0  3  0  0  0  0  0  0
  190.7140  172.9770  137.0810 O   0  0  0  0  0  0  0  0  0  0  0  0
  191.4560  169.4370  137.5520 C   0  0  0  0  0  1  0  0  0  0  0  0
  192.7570  171.2310  139.1340 O   0  0  0  0  0  1  0  0  0  0  0  0
  196.4680  176.7680  143.3110 C   0  0  0  0  0  3  0  0  0  0  0  0
  196.0360  176.6000  141.9980 C   0  0  0  0  0  2  0  0  0  0  0  0
  194.7700  175.2950  144.0700 C   0  0  2  0  0  3  0  0  0  0  0  0
  195.8260  176.1170  144.3160 N   0  0  0  0  0  0  0  0  0  0  0  0
  194.3380  175.1200  142.7440 C   0  0  0  0  0  0  0  0  0  0  0  0
  194.9800  175.7820  141.7400 N   0  0  0  0  0  0  0  0  0  0  0  0
  192.1490  174.6530  141.7080 C   0  0  0  0  0  1  0  0  0  0  0  0
  193.2800  174.2550  142.4590 O   0  0  0  0  0  0  0  0  0  0  0  0
  1  5  1  0  0  0  0
  3  7  1  0  0  0  0
  3  8  1  0  0  0  0
  4  9  1  6  0  0  0
  4  2  1  0  0  0  0
  5  8  2  0  0  0  0
  6  4  1  0  0  0  0
  7  6  2  0  0  0  0
  8  2  1  0  0  0  0
 10  9  1  0  0  0  0
 11 14  1  0  0  0  0
 12 20  1  1  0  0  0
 12 11  1  0  0  0  0
 13 16  1  6  0  0  0
 13 14  1  0  0  0  0
 14 10  1  1  0  0  0
 15 12  1  0  0  0  0
 15 13  1  0  0  0  0
 16 18  1  0  0  0  0
 17 16  1  0  0  0  0
 19 20  1  0  0  0  0
 21 24  1  0  0  0  0
 21 22  1  0  0  0  0
 23 26  2  0  0  0  0
 24  1  1  6  0  0  0
 25 23  1  0  0  0  0
 25 24  1  0  0  0  0
 26 22  1  0  0  0  0
 27 29  2  0  0  0  0
 28 23  1  0  0  0  0
 29 28  2  0  0  0  0
 30 27  1  0  0  0  0
 31 34  1  0  0  0  0
 31 30  1  0  0  0  0
 33 34  1  0  0  0  0
 34 32  2  0  0  0  0
 36 42  1  1  0  0  0
 36 33  1  0  0  0  0
 37 41  1  6  0  0  0
 37 36  1  0  0  0  0
 38 36  1  0  0  0  0
 39 35  1  1  0  0  0
 39 40  1  0  0  0  0
 39 37  1  0  0  0  0
 40 38  1  0  0  0  0
 43 46  2  0  0  0  0
 44 43  1  0  0  0  0
 45 46  1  0  0  0  0
 45  1  1  1  0  0  0
 47 45  1  0  0  0  0
 48 44  1  0  0  0  0
 48 47  2  0  0  0  0
 49 50  1  0  0  0  0
 50 47  1  0  0  0  0
M  END
>  <MODEL>
1

>  <REMARK>
 VINA RESULT:      -7.3      0.000      0.000
  Name = 
  14 active torsions:
  status: ('A' for Active; 'I' for Inactive)
    1  A    between atoms: N_1  and  C_7
    2  A    between atoms: N_1  and  C_49
    3  A    between atoms: C_4  and  N_33
    4  A    between atoms: C_7  and  C_23
    5  A    between atoms: C_12  and  C_14
    6  A    between atoms: C_12  and  C_43
    7  A    between atoms: C_14  and  C_15
    8  A    between atoms: N_17  and  C_22
    9  A    between atoms: N_17  and  C_24
   10  A    between atoms: N_17  and  C_32
   11  A    between atoms: C_19  and  C_36
   12  A    between atoms: C_27  and  O_44
   13  A    between atoms: N_29  and  C_48
   14  A    between atoms: O_35  and  C_41
                            x       y       z     vdW  Elec       q    Type
                         _______ _______ _______ _____ _____    ______ ____

>  <TORSDO>
F 14

$$$$
=
 OpenBabel11042415553D

 50 54  0  0  1  0  0  0  0  0999 V2000
  193.9420  174.0840  144.8280 N   0  0  0  0  0  0  0  0  0  0  0  0
  191.5900  175.5680  147.4160 C   0  0  0  0  0  2  0  0  0  0  0  0
  191.0710  174.2040  145.2200 C   0  0  0  0  0  2  0  0  0  0  0  0
  190.0630  175.7950  147.4060 C   0  0  2  0  0  3  0  0  0  0  0  0
  193.3800  174.7580  145.9620 C   0  0  0  0  0  3  0  0  0  0  0  0
  189.3300  174.5590  146.9420 C   0  0  0  0  0  3  0  0  0  0  0  0
  189.8020  173.8150  145.9300 C   0  0  0  0  0  3  0  0  0  0  0  0
  192.0640  174.7960  146.2030 C   0  0  0  0  0  0  0  0  0  0  0  0
  189.7430  177.0200  146.5470 C   0  0  0  0  0  2  0  0  0  0  0  0
  188.3310  177.3670  146.6720 N   0  0  0  0  0  2  0  0  0  0  0  0
  186.1260  176.7840  145.7400 C   0  0  0  0  0  2  0  0  0  0  0  0
  185.4730  178.0200  145.1260 C   0  0  2  0  0  3  0  0  0  0  0  0
  187.7730  177.9140  144.3690 C   0  0  2  0  0  3  0  0  0  0  0  0
  187.6290  176.8860  145.4790 C   0  0  1  0  0  3  0  0  0  0  0  0
  186.3610  178.3240  143.9310 C   0  0  0  0  0  2  0  0  0  0  0  0
  188.6480  177.4380  143.2810 N   0  0  0  0  0  0  0  0  0  0  0  0
  188.5410  175.9930  143.1080 C   0  0  0  0  0  1  0  0  0  0  0  0
  188.2180  178.0660  142.0350 C   0  0  0  0  0  1  0  0  0  0  0  0
  184.9310  178.6660  147.2050 C   0  0  0  0  0  1  0  0  0  0  0  0
  185.5590  179.0960  146.0260 O   0  0  0  0  0  0  0  0  0  0  0  0
  195.1760  172.1250  145.6850 C   0  0  0  0  0  2  0  0  0  0  0  0
  195.0820  170.6100  145.8040 C   0  0  0  0  0  2  0  0  0  0  0  0
  194.5740  170.5920  143.3480 C   0  0  0  0  0  0  0  0  0  0  0  0
  194.0410  172.6160  144.7870 C   0  0  2  0  0  3  0  0  0  0  0  0
  194.2520  172.0610  143.3660 C   0  0  0  0  0  2  0  0  0  0  0  0
  195.0130  169.9520  144.4530 C   0  0  0  0  0  3  0  0  0  0  0  0
  193.1300  170.7750  140.0160 C   0  0  0  0  0  3  0  0  0  0  0  0
  194.5190  169.9060  142.0480 C   0  0  0  0  0  3  0  0  0  0  0  0
  193.8220  170.3480  141.0350 C   0  0  0  0  0  0  0  0  0  0  0  0
  192.2150  169.8290  139.3200 C   0  0  0  0  0  2  0  0  0  0  0  0
  190.7660  170.2110  139.6030 C   0  0  0  0  0  2  0  0  0  0  0  0
  189.7710  169.3770  137.5860 O   0  0  0  0  0  0  0  0  0  0  0  0
  189.5220  171.6500  137.8900 N   0  0  0  0  0  2  0  0  0  0  0  0
  189.9640  170.3710  138.3380 C   0  0  0  0  0  0  0  0  0  0  0  0
  191.0330  172.8390  141.9710 C   0  0  0  0  0  1  0  0  0  0  0  0
  189.4840  172.8920  138.6570 C   0  0  1  0  0  0  0  0  0  0  0  0
  189.3630  172.6120  140.1480 C   0  0  1  0  0  3  0  0  0  0  0  0
  190.8300  173.5890  138.5190 C   0  0  0  0  0  2  0  0  0  0  0  0
  190.4310  173.5020  140.7470 C   0  0  2  0  0  3  0  0  0  0  0  0
  191.4490  173.6980  139.7890 O   0  0  0  0  0  0  0  0  0  0  0  0
  188.0070  172.9720  140.7550 C   0  0  0  0  0  1  0  0  0  0  0  0
  188.4730  173.7310  138.1810 O   0  0  0  0  0  1  0  0  0  0  0  0
  197.0780  175.5880  143.6100 C   0  0  0  0  0  3  0  0  0  0  0  0
  196.6330  176.3450  142.5290 C   0  0  0  0  0  2  0  0  0  0  0  0
  194.8600  174.8540  144.0240 C   0  0  2  0  0  3  0  0  0  0  0  0
  196.1850  174.8650  144.3350 N   0  0  0  0  0  0  0  0  0  0  0  0
  194.4120  175.6130  142.9290 C   0  0  0  0  0  0  0  0  0  0  0  0
  195.3110  176.3440  142.2100 N   0  0  0  0  0  0  0  0  0  0  0  0
  192.2050  176.6990  142.7560 C   0  0  0  0  0  1  0  0  0  0  0  0
  193.0640  175.5920  142.5650 O   0  0  0  0  0  0  0  0  0  0  0  0
  1  5  1  0  0  0  0
  3  7  1  0  0  0  0
  3  8  1  0  0  0  0
  4  9  1  6  0  0  0
  4  2  1  0  0  0  0
  5  8  2  0  0  0  0
  6  4  1  0  0  0  0
  7  6  2  0  0  0  0
  8  2  1  0  0  0  0
  9 10  1  0  0  0  0
 12 11  1  0  0  0  0
 12 20  1  1  0  0  0
 13 16  1  6  0  0  0
 13 14  1  0  0  0  0
 14 11  1  0  0  0  0
 14 10  1  1  0  0  0
 15 13  1  0  0  0  0
 15 12  1  0  0  0  0
 17 16  1  0  0  0  0
 18 16  1  0  0  0  0
 20 19  1  0  0  0  0
 21 22  1  0  0  0  0
 23 25  1  0  0  0  0
 23 26  2  0  0  0  0
 24  1  1  6  0  0  0
 24 21  1  0  0  0  0
 25 24  1  0  0  0  0
 26 22  1  0  0  0  0
 27 29  2  0  0  0  0
 28 23  1  0  0  0  0
 29 28  2  0  0  0  0
 30 31  1  0  0  0  0
 30 27  1  0  0  0  0
 32 34  2  0  0  0  0
 33 34  1  0  0  0  0
 33 36  1  0  0  0  0
 34 31  1  0  0  0  0
 36 42  1  6  0  0  0
 36 37  1  0  0  0  0
 37 39  1  0  0  0  0
 37 41  1  1  0  0  0
 38 36  1  0  0  0  0
 38 40  1  0  0  0  0
 39 35  1  1  0  0  0
 40 39  1  0  0  0  0
 43 46  2  0  0  0  0
 44 43  1  0  0  0  0
 45 46  1  0  0  0  0
 45  1  1  1  0  0  0
 47 45  1  0  0  0  0
 48 44  1  0  0  0  0
 48 47  2  0  0  0  0
 50 49  1  0  0  0  0
 50 47  1  0  0  0  0
M  END
>  <MODEL>
2

>  <REMARK>
 VINA RESULT:      -7.2      1.801      2.998
  Name = 
  14 active torsions:
  status: ('A' for Active; 'I' for Inactive)
    1  A    between atoms: N_1  and  C_7
    2  A    between atoms: N_1  and  C_49
    3  A    between atoms: C_4  and  N_33
    4  A    between atoms: C_7  and  C_23
    5  A    between atoms: C_12  and  C_14
    6  A    between atoms: C_12  and  C_43
    7  A    between atoms: C_14  and  C_15
    8  A    between atoms: N_17  and  C_22
    9  A    between atoms: N_17  and  C_24
   10  A    between atoms: N_17  and  C_32
   11  A    between atoms: C_19  and  C_36
   12  A    between atoms: C_27  and  O_44
   13  A    between atoms: N_29  and  C_48
   14  A    between atoms: O_35  and  C_41
                            x       y       z     vdW  Elec       q    Type
                         _______ _______ _______ _____ _____    ______ ____

>  <TORSDO>
F 14

$$$$
=
 OpenBabel11042415553D

 50 54  0  0  1  0  0  0  0  0999 V2000
  193.1180  174.1330  143.4680 N   0  0  0  0  0  0  0  0  0  0  0  0
  196.7020  173.7800  142.2590 C   0  0  0  0  0  2  0  0  0  0  0  0
  194.9300  175.6810  141.8150 C   0  0  0  0  0  2  0  0  0  0  0  0
  197.5000  174.5350  141.1740 C   0  0  2  0  0  3  0  0  0  0  0  0
  194.4530  173.6770  143.2090 C   0  0  0  0  0  3  0  0  0  0  0  0
  197.3280  176.0290  141.3110 C   0  0  0  0  0  3  0  0  0  0  0  0
  196.1350  176.5620  141.6160 C   0  0  0  0  0  3  0  0  0  0  0  0
  195.3340  174.3840  142.4910 C   0  0  0  0  0  0  0  0  0  0  0  0
  197.0820  174.0230  139.7950 C   0  0  0  0  0  2  0  0  0  0  0  0
  197.2080  175.0870  138.8040 N   0  0  0  0  0  2  0  0  0  0  0  0
  195.6800  173.5700  137.6060 C   0  0  0  0  0  2  0  0  0  0  0  0
  194.4260  174.3260  137.1710 C   0  0  2  0  0  3  0  0  0  0  0  0
  196.3630  175.6650  136.5980 C   0  0  2  0  0  3  0  0  0  0  0  0
  196.8570  174.5380  137.4900 C   0  0  1  0  0  3  0  0  0  0  0  0
  194.9500  175.2960  136.1260 C   0  0  0  0  0  2  0  0  0  0  0  0
  197.3170  175.9760  135.5170 N   0  0  0  0  0  0  0  0  0  0  0  0
  197.7870  174.7620  134.8570 C   0  0  0  0  0  1  0  0  0  0  0  0
  196.6310  176.7870  134.5150 C   0  0  0  0  0  1  0  0  0  0  0  0
  193.0470  174.2140  138.9390 C   0  0  0  0  0  1  0  0  0  0  0  0
  193.9240  175.0690  138.2530 O   0  0  0  0  0  0  0  0  0  0  0  0
  193.9760  174.9740  145.6250 C   0  0  0  0  0  2  0  0  0  0  0  0
  193.7280  176.0480  146.6750 C   0  0  0  0  0  2  0  0  0  0  0  0
  191.3340  175.2980  146.6690 C   0  0  0  0  0  0  0  0  0  0  0  0
  192.8170  174.9850  144.6300 C   0  0  2  0  0  3  0  0  0  0  0  0
  191.5240  174.5770  145.3620 C   0  0  0  0  0  2  0  0  0  0  0  0
  192.3620  175.9140  147.2910 C   0  0  0  0  0  3  0  0  0  0  0  0
  187.8380  176.2280  146.3020 C   0  0  0  0  0  3  0  0  0  0  0  0
  190.0140  175.1950  147.3090 C   0  0  0  0  0  3  0  0  0  0  0  0
  188.9290  175.7140  146.7980 C   0  0  0  0  0  0  0  0  0  0  0  0
  186.9810  177.0770  147.1740 C   0  0  0  0  0  2  0  0  0  0  0  0
  186.3630  178.2030  146.3520 C   0  0  0  0  0  2  0  0  0  0  0  0
  184.1190  177.3670  146.4930 O   0  0  0  0  0  0  0  0  0  0  0  0
  184.8350  177.7870  144.3410 N   0  0  0  0  0  2  0  0  0  0  0  0
  185.0400  177.8060  145.7510 C   0  0  0  0  0  0  0  0  0  0  0  0
  187.4950  176.1230  141.0990 C   0  0  0  0  0  1  0  0  0  0  0  0
  185.6780  178.3960  143.3170 C   0  0  1  0  0  0  0  0  0  0  0  0
  186.9120  177.5480  143.0470 C   0  0  1  0  0  3  0  0  0  0  0  0
  184.9240  178.3830  141.9950 C   0  0  0  0  0  2  0  0  0  0  0  0
  186.9440  177.4670  141.5360 C   0  0  2  0  0  3  0  0  0  0  0  0
  185.6260  177.5990  141.0470 O   0  0  0  0  0  0  0  0  0  0  0  0
  188.2230  178.1550  143.5470 C   0  0  0  0  0  1  0  0  0  0  0  0
  185.9930  179.7140  143.6610 O   0  0  0  0  0  1  0  0  0  0  0  0
  190.1440  173.1640  141.5200 C   0  0  0  0  0  3  0  0  0  0  0  0
  189.9950  171.8250  141.8710 C   0  0  0  0  0  2  0  0  0  0  0  0
  192.0560  173.3280  142.9160 C   0  0  2  0  0  3  0  0  0  0  0  0
  191.1650  173.8860  142.0510 N   0  0  0  0  0  0  0  0  0  0  0  0
  191.9090  171.9750  143.2640 C   0  0  0  0  0  0  0  0  0  0  0  0
  190.8780  171.2560  142.7360 N   0  0  0  0  0  0  0  0  0  0  0  0
  192.8940  169.9650  144.3010 C   0  0  0  0  0  1  0  0  0  0  0  0
  192.8290  171.3670  144.1210 O   0  0  0  0  0  0  0  0  0  0  0  0
  2  8  1  0  0  0  0
  3  8  1  0  0  0  0
  4  9  1  6  0  0  0
  4  6  1  0  0  0  0
  4  2  1  0  0  0  0
  5  1  1  0  0  0  0
  6  7  2  0  0  0  0
  7  3  1  0  0  0  0
  8  5  2  0  0  0  0
 10  9  1  0  0  0  0
 12 11  1  0  0  0  0
 12 20  1  1  0  0  0
 13 16  1  6  0  0  0
 13 14  1  0  0  0  0
 14 11  1  0  0  0  0
 14 10  1  1  0  0  0
 15 13  1  0  0  0  0
 15 12  1  0  0  0  0
 17 16  1  0  0  0  0
 18 16  1  0  0  0  0
 20 19  1  0  0  0  0
 21 22  1  0  0  0  0
 22 26  1  0  0  0  0
 23 26  2  0  0  0  0
 23 28  1  0  0  0  0
 24  1  1  6  0  0  0
 24 25  1  0  0  0  0
 24 21  1  0  0  0  0
 25 23  1  0  0  0  0
 27 29  2  0  0  0  0
 27 30  1  0  0  0  0
 29 28  2  0  0  0  0
 31 30  1  0  0  0  0
 33 34  1  0  0  0  0
 34 31  1  0  0  0  0
 34 32  2  0  0  0  0
 36 42  1  1  0  0  0
 36 33  1  0  0  0  0
 37 36  1  0  0  0  0
 37 41  1  6  0  0  0
 38 36  1  0  0  0  0
 39 35  1  1  0  0  0
 39 37  1  0  0  0  0
 40 39  1  0  0  0  0
 40 38  1  0  0  0  0
 43 44  1  0  0  0  0
 43 46  2  0  0  0  0
 44 48  1  0  0  0  0
 45 47  1  0  0  0  0
 45  1  1  1  0  0  0
 46 45  1  0  0  0  0
 47 50  1  0  0  0  0
 48 47  2  0  0  0  0
 50 49  1  0  0  0  0
M  END
>  <MODEL>
3

>  <REMARK>
 VINA RESULT:      -6.7      3.156      8.798
  Name = 
  14 active torsions:
  status: ('A' for Active; 'I' for Inactive)
    1  A    between atoms: N_1  and  C_7
    2  A    between atoms: N_1  and  C_49
    3  A    between atoms: C_4  and  N_33
    4  A    between atoms: C_7  and  C_23
    5  A    between atoms: C_12  and  C_14
    6  A    between atoms: C_12  and  C_43
    7  A    between atoms: C_14  and  C_15
    8  A    between atoms: N_17  and  C_22
    9  A    between atoms: N_17  and  C_24
   10  A    between atoms: N_17  and  C_32
   11  A    between atoms: C_19  and  C_36
   12  A    between atoms: C_27  and  O_44
   13  A    between atoms: N_29  and  C_48
   14  A    between atoms: O_35  and  C_41
                            x       y       z     vdW  Elec       q    Type
                         _______ _______ _______ _____ _____    ______ ____

>  <TORSDO>
F 14

$$$$
=
 OpenBabel11042415553D

 50 54  0  0  1  0  0  0  0  0999 V2000
  193.2620  174.5480  143.4020 N   0  0  0  0  0  0  0  0  0  0  0  0
  190.9540  177.2160  144.8110 C   0  0  0  0  0  2  0  0  0  0  0  0
  191.5480  174.8150  145.7260 C   0  0  0  0  0  2  0  0  0  0  0  0
  189.8890  177.1680  145.9270 C   0  0  2  0  0  3  0  0  0  0  0  0
  192.5010  175.7430  143.6240 C   0  0  0  0  0  3  0  0  0  0  0  0
  190.4230  176.4870  147.1640 C   0  0  0  0  0  3  0  0  0  0  0  0
  191.2010  175.3970  147.0710 C   0  0  0  0  0  3  0  0  0  0  0  0
  191.7350  175.9240  144.7070 C   0  0  0  0  0  0  0  0  0  0  0  0
  188.6270  176.4920  145.3880 C   0  0  0  0  0  2  0  0  0  0  0  0
  187.8410  177.4440  144.6080 N   0  0  0  0  0  2  0  0  0  0  0  0
  185.8760  176.7760  145.9350 C   0  0  0  0  0  2  0  0  0  0  0  0
  184.9960  177.9920  146.2170 C   0  0  2  0  0  3  0  0  0  0  0  0
  185.5940  178.0090  143.8680 C   0  0  2  0  0  3  0  0  0  0  0  0
  186.4610  176.9530  144.5340 C   0  0  1  0  0  3  0  0  0  0  0  0
  184.4620  178.3600  144.8420 C   0  0  0  0  0  2  0  0  0  0  0  0
  185.1500  177.5950  142.5240 N   0  0  0  0  0  0  0  0  0  0  0  0
  183.8300  178.1350  142.2110 C   0  0  0  0  0  1  0  0  0  0  0  0
  186.0900  178.1270  141.5420 C   0  0  0  0  0  1  0  0  0  0  0  0
  186.4580  178.5700  147.8190 C   0  0  0  0  0  1  0  0  0  0  0  0
  185.7920  179.0530  146.6810 O   0  0  0  0  0  0  0  0  0  0  0  0
  192.8090  172.3360  144.4000 C   0  0  0  0  0  2  0  0  0  0  0  0
  191.9090  171.1170  144.2490 C   0  0  0  0  0  2  0  0  0  0  0  0
  192.5660  171.1090  141.8290 C   0  0  0  0  0  0  0  0  0  0  0  0
  192.5980  173.2510  143.1950 C   0  0  2  0  0  3  0  0  0  0  0  0
  193.0740  172.5220  141.9230 C   0  0  0  0  0  2  0  0  0  0  0  0
  192.0940  170.4550  142.9110 C   0  0  0  0  0  3  0  0  0  0  0  0
  193.2830  171.6540  138.3060 C   0  0  0  0  0  3  0  0  0  0  0  0
  192.7250  170.4210  140.5380 C   0  0  0  0  0  3  0  0  0  0  0  0
  193.0060  171.0460  139.4250 C   0  0  0  0  0  0  0  0  0  0  0  0
  192.4440  171.3760  137.1080 C   0  0  0  0  0  2  0  0  0  0  0  0
  191.0130  171.8370  137.3620 C   0  0  0  0  0  2  0  0  0  0  0  0
  191.4740  173.7220  135.9520 O   0  0  0  0  0  0  0  0  0  0  0  0
  189.8790  174.1230  137.5700 N   0  0  0  0  0  2  0  0  0  0  0  0
  190.7790  173.2490  136.8930 C   0  0  0  0  0  0  0  0  0  0  0  0
  189.2160  175.1980  141.9010 C   0  0  0  0  0  1  0  0  0  0  0  0
  188.8670  173.7580  138.5560 C   0  0  1  0  0  0  0  0  0  0  0  0
  189.4650  173.6790  139.9530 C   0  0  1  0  0  3  0  0  0  0  0  0
  187.8510  174.8870  138.6510 C   0  0  0  0  0  2  0  0  0  0  0  0
  188.4830  174.4750  140.7860 C   0  0  2  0  0  3  0  0  0  0  0  0
  187.8560  175.4310  139.9590 O   0  0  0  0  0  0  0  0  0  0  0  0
  189.5750  172.2630  140.5190 C   0  0  0  0  0  1  0  0  0  0  0  0
  188.2180  172.5790  138.1780 O   0  0  0  0  0  1  0  0  0  0  0  0
  196.0940  174.2530  145.7420 C   0  0  0  0  0  3  0  0  0  0  0  0
  197.1740  174.5860  144.9290 C   0  0  0  0  0  2  0  0  0  0  0  0
  194.6110  174.5520  143.9140 C   0  0  2  0  0  3  0  0  0  0  0  0
  194.8390  174.2470  145.2200 N   0  0  0  0  0  0  0  0  0  0  0  0
  195.7020  174.8810  143.0920 C   0  0  0  0  0  0  0  0  0  0  0  0
  196.9580  174.8950  143.6220 N   0  0  0  0  0  0  0  0  0  0  0  0
  196.4720  175.8180  140.9440 C   0  0  0  0  0  1  0  0  0  0  0  0
  195.5020  175.1630  141.7390 O   0  0  0  0  0  0  0  0  0  0  0  0
  1  5  1  0  0  0  0
  2  4  1  0  0  0  0
  3  7  1  0  0  0  0
  4  9  1  6  0  0  0
  4  6  1  0  0  0  0
  5  8  2  0  0  0  0
  7  6  2  0  0  0  0
  8  2  1  0  0  0  0
  8  3  1  0  0  0  0
 10  9  1  0  0  0  0
 11 12  1  0  0  0  0
 12 20  1  6  0  0  0
 13 16  1  6  0  0  0
 13 14  1  0  0  0  0
 13 15  1  0  0  0  0
 14 10  1  1  0  0  0
 14 11  1  0  0  0  0
 15 12  1  0  0  0  0
 17 16  1  0  0  0  0
 18 16  1  0  0  0  0
 20 19  1  0  0  0  0
 22 21  1  0  0  0  0
 23 25  1  0  0  0  0
 23 26  2  0  0  0  0
 24  1  1  1  0  0  0
 24 21  1  0  0  0  0
 25 24  1  0  0  0  0
 26 22  1  0  0  0  0
 27 29  2  0  0  0  0
 28 23  1  0  0  0  0
 29 28  2  0  0  0  0
 30 31  1  0  0  0  0
 30 27  1  0  0  0  0
 32 34  2  0  0  0  0
 33 36  1  0  0  0  0
 34 31  1  0  0  0  0
 34 33  1  0  0  0  0
 36 42  1  6  0  0  0
 36 38  1  0  0  0  0
 36 37  1  0  0  0  0
 37 41  1  1  0  0  0
 37 39  1  0  0  0  0
 38 40  1  0  0  0  0
 39 35  1  1  0  0  0
 40 39  1  0  0  0  0
 44 43  1  0  0  0  0
 45  1  1  1  0  0  0
 45 46  1  0  0  0  0
 46 43  2  0  0  0  0
 47 48  2  0  0  0  0
 47 45  1  0  0  0  0
 48 44  1  0  0  0  0
 49 50  1  0  0  0  0
 50 47  1  0  0  0  0
M  END
>  <MODEL>
4

>  <REMARK>
 VINA RESULT:      -6.7      2.061      3.913
  Name = 
  14 active torsions:
  status: ('A' for Active; 'I' for Inactive)
    1  A    between atoms: N_1  and  C_7
    2  A    between atoms: N_1  and  C_49
    3  A    between atoms: C_4  and  N_33
    4  A    between atoms: C_7  and  C_23
    5  A    between atoms: C_12  and  C_14
    6  A    between atoms: C_12  and  C_43
    7  A    between atoms: C_14  and  C_15
    8  A    between atoms: N_17  and  C_22
    9  A    between atoms: N_17  and  C_24
   10  A    between atoms: N_17  and  C_32
   11  A    between atoms: C_19  and  C_36
   12  A    between atoms: C_27  and  O_44
   13  A    between atoms: N_29  and  C_48
   14  A    between atoms: O_35  and  C_41
                            x       y       z     vdW  Elec       q    Type
                         _______ _______ _______ _____ _____    ______ ____

>  <TORSDO>
F 14

$$$$
=
 OpenBabel11042415553D

 50 54  0  0  1  0  0  0  0  0999 V2000
  192.0540  173.2030  142.2080 N   0  0  0  0  0  0  0  0  0  0  0  0
  192.4840  174.6470  145.6950 C   0  0  0  0  0  2  0  0  0  0  0  0
  192.7170  175.7930  143.3310 C   0  0  0  0  0  2  0  0  0  0  0  0
  193.0850  175.9820  146.1870 C   0  0  2  0  0  3  0  0  0  0  0  0
  192.1340  173.3930  143.6280 C   0  0  0  0  0  3  0  0  0  0  0  0
  192.5460  177.1490  145.3950 C   0  0  0  0  0  3  0  0  0  0  0  0
  192.3680  177.0590  144.0670 C   0  0  0  0  0  3  0  0  0  0  0  0
  192.3910  174.5820  144.1860 C   0  0  0  0  0  0  0  0  0  0  0  0
  194.6110  175.8950  146.1350 C   0  0  0  0  0  2  0  0  0  0  0  0
  195.0280  174.5180  145.8870 N   0  0  0  0  0  2  0  0  0  0  0  0
  197.1360  173.2570  145.6980 C   0  0  0  0  0  2  0  0  0  0  0  0
  197.0920  172.3440  144.4760 C   0  0  2  0  0  3  0  0  0  0  0  0
  196.3050  174.5400  143.8180 C   0  0  2  0  0  3  0  0  0  0  0  0
  196.3860  174.5390  145.3350 C   0  0  1  0  0  3  0  0  0  0  0  0
  197.0880  173.3210  143.3120 C   0  0  0  0  0  2  0  0  0  0  0  0
  196.7240  175.8300  143.2390 N   0  0  0  0  0  0  0  0  0  0  0  0
  197.9350  175.6850  142.4390 C   0  0  0  0  0  1  0  0  0  0  0  0
  195.6640  176.3070  142.3560 C   0  0  0  0  0  1  0  0  0  0  0  0
  196.2220  170.2860  144.2590 C   0  0  0  0  0  1  0  0  0  0  0  0
  195.8800  171.6330  144.4610 O   0  0  0  0  0  0  0  0  0  0  0  0
  190.9390  173.0070  140.0140 C   0  0  0  0  0  2  0  0  0  0  0  0
  189.6040  172.6460  139.3780 C   0  0  0  0  0  2  0  0  0  0  0  0
  188.5640  174.2610  140.9910 C   0  0  0  0  0  0  0  0  0  0  0  0
  190.7530  173.0910  141.5280 C   0  0  2  0  0  3  0  0  0  0  0  0
  189.7980  174.2560  141.8510 C   0  0  0  0  0  2  0  0  0  0  0  0
  188.5080  173.5720  139.8310 C   0  0  0  0  0  3  0  0  0  0  0  0
  187.4120  177.7080  140.8680 C   0  0  0  0  0  3  0  0  0  0  0  0
  187.4650  175.1510  141.3950 C   0  0  0  0  0  3  0  0  0  0  0  0
  187.4460  176.4300  141.1270 C   0  0  0  0  0  0  0  0  0  0  0  0
  187.1340  178.6600  141.9790 C   0  0  0  0  0  2  0  0  0  0  0  0
  185.7950  178.3220  142.6250 C   0  0  0  0  0  2  0  0  0  0  0  0
  185.0240  180.1880  143.9200 O   0  0  0  0  0  0  0  0  0  0  0  0
  186.1310  178.5800  145.1490 N   0  0  0  0  0  2  0  0  0  0  0  0
  185.5880  179.0600  143.9220 C   0  0  0  0  0  0  0  0  0  0  0  0
  189.6780  177.0580  147.4840 C   0  0  0  0  0  1  0  0  0  0  0  0
  186.6640  177.2490  145.4200 C   0  0  1  0  0  0  0  0  0  0  0  0
  188.1820  177.2750  145.5140 C   0  0  1  0  0  3  0  0  0  0  0  0
  186.2140  176.8170  146.8070 C   0  0  0  0  0  2  0  0  0  0  0  0
  188.4550  176.4970  146.7840 C   0  0  2  0  0  3  0  0  0  0  0  0
  187.3410  176.6230  147.6420 O   0  0  0  0  0  0  0  0  0  0  0  0
  188.9050  176.6040  144.3460 C   0  0  0  0  0  1  0  0  0  0  0  0
  186.1980  176.3330  144.4720 O   0  0  0  0  0  1  0  0  0  0  0  0
  195.1350  172.8330  140.2200 C   0  0  0  0  0  3  0  0  0  0  0  0
  195.3980  171.4710  140.3500 C   0  0  0  0  0  3  0  0  0  0  0  0
  193.2070  172.6000  141.5840 C   0  0  0  0  0  0  0  0  0  0  0  0
  194.0460  173.3660  140.8350 N   0  0  0  0  0  0  0  0  0  0  0  0
  193.4770  171.2280  141.7200 C   0  0  0  0  0  0  0  0  0  0  0  0
  194.5660  170.6960  141.0950 N   0  0  0  0  0  0  0  0  0  0  0  0
  191.6910  169.5450  141.9660 C   0  0  0  0  0  1  0  0  0  0  0  0
  192.6540  170.4260  142.5130 O   0  0  0  0  0  0  0  0  0  0  0  0
  1  5  1  0  0  0  0
  2  4  1  0  0  0  0
  3  7  1  0  0  0  0
  3  8  1  0  0  0  0
  4  9  1  6  0  0  0
  5  8  2  0  0  0  0
  6  4  1  0  0  0  0
  7  6  2  0  0  0  0
  8  2  1  0  0  0  0
 10  9  1  0  0  0  0
 12 20  1  1  0  0  0
 12 11  1  0  0  0  0
 13 16  1  6  0  0  0
 13 14  1  0  0  0  0
 14 11  1  0  0  0  0
 14 10  1  1  0  0  0
 15 13  1  0  0  0  0
 15 12  1  0  0  0  0
 17 16  1  0  0  0  0
 18 16  1  0  0  0  0
 19 20  1  0  0  0  0
 21 24  1  0  0  0  0
 22 26  1  0  0  0  0
 22 21  1  0  0  0  0
 23 28  1  0  0  0  0
 23 25  1  0  0  0  0
 24 25  1  0  0  0  0
 24  1  1  1  0  0  0
 26 23  2  0  0  0  0
 27 29  2  0  0  0  0
 27 30  1  0  0  0  0
 29 28  2  0  0  0  0
 30 31  1  0  0  0  0
 31 34  1  0  0  0  0
 32 34  2  0  0  0  0
 33 36  1  0  0  0  0
 34 33  1  0  0  0  0
 36 42  1  6  0  0  0
 36 37  1  0  0  0  0
 36 38  1  0  0  0  0
 37 41  1  6  0  0  0
 37 39  1  0  0  0  0
 38 40  1  0  0  0  0
 39 35  1  1  0  0  0
 39 40  1  0  0  0  0
 43 44  2  0  0  0  0
 43 46  1  0  0  0  0
 44 48  1  0  0  0  0
 45 47  1  0  0  0  0
 45  1  1  0  0  0  0
 46 45  2  0  0  0  0
 47 50  1  0  0  0  0
 48 47  2  0  0  0  0
 49 50  1  0  0  0  0
M  END
>  <MODEL>
5

>  <REMARK>
 VINA RESULT:      -6.7      2.339      8.544
  Name = 
  14 active torsions:
  status: ('A' for Active; 'I' for Inactive)
    1  A    between atoms: N_1  and  C_7
    2  A    between atoms: N_1  and  C_49
    3  A    between atoms: C_4  and  N_33
    4  A    between atoms: C_7  and  C_23
    5  A    between atoms: C_12  and  C_14
    6  A    between atoms: C_12  and  C_43
    7  A    between atoms: C_14  and  C_15
    8  A    between atoms: N_17  and  C_22
    9  A    between atoms: N_17  and  C_24
   10  A    between atoms: N_17  and  C_32
   11  A    between atoms: C_19  and  C_36
   12  A    between atoms: C_27  and  O_44
   13  A    between atoms: N_29  and  C_48
   14  A    between atoms: O_35  and  C_41
                            x       y       z     vdW  Elec       q    Type
                         _______ _______ _______ _____ _____    ______ ____

>  <TORSDO>
F 14

$$$$
=
 OpenBabel11042415553D

 50 54  0  0  1  0  0  0  0  0999 V2000
  191.1710  172.5260  140.1610 N   0  0  0  0  0  0  0  0  0  0  0  0
  194.5110  171.8690  141.8480 C   0  0  0  0  0  2  0  0  0  0  0  0
  192.0990  170.9760  142.4300 C   0  0  0  0  0  2  0  0  0  0  0  0
  194.8670  171.2260  143.2060 C   0  0  2  0  0  3  0  0  0  0  0  0
  192.5580  172.5120  140.5280 C   0  0  0  0  0  3  0  0  0  0  0  0
  194.1170  169.9320  143.4110 C   0  0  0  0  0  3  0  0  0  0  0  0
  192.8320  169.8120  143.0430 C   0  0  0  0  0  3  0  0  0  0  0  0
  193.0330  171.7740  141.5380 C   0  0  0  0  0  0  0  0  0  0  0  0
  194.6060  172.2360  144.3240 C   0  0  0  0  0  2  0  0  0  0  0  0
  194.4290  173.5720  143.7640 N   0  0  0  0  0  2  0  0  0  0  0  0
  196.7740  174.2560  144.0890 C   0  0  0  0  0  2  0  0  0  0  0  0
  197.1530  175.3290  143.0720 C   0  0  2  0  0  3  0  0  0  0  0  0
  195.0110  175.9170  144.0420 C   0  0  2  0  0  3  0  0  0  0  0  0
  195.3150  174.4950  144.4800 C   0  0  1  0  0  3  0  0  0  0  0  0
  196.3110  176.5220  143.4950 C   0  0  0  0  0  2  0  0  0  0  0  0
  194.3630  176.7020  145.1100 N   0  0  0  0  0  0  0  0  0  0  0  0
  192.9250  176.8180  144.8860 C   0  0  0  0  0  1  0  0  0  0  0  0
  194.5590  176.0060  146.3780 C   0  0  0  0  0  1  0  0  0  0  0  0
  196.9320  176.0440  140.9560 C   0  0  0  0  0  1  0  0  0  0  0  0
  196.7410  174.9300  141.7890 O   0  0  0  0  0  0  0  0  0  0  0  0
  188.7780  173.0620  140.4440 C   0  0  0  0  0  2  0  0  0  0  0  0
  187.7000  173.1980  141.5100 C   0  0  0  0  0  2  0  0  0  0  0  0
  189.3040  174.6840  142.7380 C   0  0  0  0  0  0  0  0  0  0  0  0
  190.1310  172.8960  141.1340 C   0  0  2  0  0  3  0  0  0  0  0  0
  190.4580  174.1850  141.9110 C   0  0  0  0  0  2  0  0  0  0  0  0
  188.0390  174.2730  142.5050 C   0  0  0  0  0  3  0  0  0  0  0  0
  188.5030  175.8180  146.0980 C   0  0  0  0  0  3  0  0  0  0  0  0
  189.5880  175.7360  143.7260 C   0  0  0  0  0  3  0  0  0  0  0  0
  189.0420  175.7700  144.9130 C   0  0  0  0  0  0  0  0  0  0  0  0
  187.8710  177.0880  146.5510 C   0  0  0  0  0  2  0  0  0  0  0  0
  187.1870  177.7730  145.3720 C   0  0  0  0  0  2  0  0  0  0  0  0
  185.2800  176.4230  145.9130 O   0  0  0  0  0  0  0  0  0  0  0  0
  185.2450  177.2930  143.7760 N   0  0  0  0  0  2  0  0  0  0  0  0
  185.8450  177.1640  145.0630 C   0  0  0  0  0  0  0  0  0  0  0  0
  186.6870  176.7460  139.5370 C   0  0  0  0  0  1  0  0  0  0  0  0
  185.6230  178.2180  142.7120 C   0  0  1  0  0  0  0  0  0  0  0  0
  186.7370  177.6390  141.8530 C   0  0  1  0  0  3  0  0  0  0  0  0
  184.4510  178.3610  141.7530 C   0  0  0  0  0  2  0  0  0  0  0  0
  186.2340  177.8740  140.4440 C   0  0  2  0  0  3  0  0  0  0  0  0
  184.8230  177.9020  140.4650 O   0  0  0  0  0  0  0  0  0  0  0  0
  188.0940  178.3230  142.0250 C   0  0  0  0  0  1  0  0  0  0  0  0
  185.9450  179.4700  143.2440 O   0  0  0  0  0  1  0  0  0  0  0  0
  190.1400  169.5470  138.2510 C   0  0  0  0  0  3  0  0  0  0  0  0
  190.1250  170.0340  136.9470 C   0  0  0  0  0  3  0  0  0  0  0  0
  190.8010  171.6810  139.0510 C   0  0  0  0  0  0  0  0  0  0  0  0
  190.4810  170.3780  139.2720 N   0  0  0  0  0  0  0  0  0  0  0  0
  190.7790  172.1740  137.7350 C   0  0  0  0  0  0  0  0  0  0  0  0
  190.4450  171.3350  136.7130 N   0  0  0  0  0  0  0  0  0  0  0  0
  190.5140  174.2240  136.3900 C   0  0  0  0  0  1  0  0  0  0  0  0
  191.0670  173.5170  137.4830 O   0  0  0  0  0  0  0  0  0  0  0  0
  1  5  1  0  0  0  0
  2  4  1  0  0  0  0
  3  7  1  0  0  0  0
  4  6  1  0  0  0  0
  4  9  1  1  0  0  0
  5  8  2  0  0  0  0
  7  6  2  0  0  0  0
  8  2  1  0  0  0  0
  8  3  1  0  0  0  0
 10  9  1  0  0  0  0
 11 14  1  0  0  0  0
 12 20  1  6  0  0  0
 12 15  1  0  0  0  0
 12 11  1  0  0  0  0
 13 14  1  0  0  0  0
 13 16  1  1  0  0  0
 14 10  1  6  0  0  0
 15 13  1  0  0  0  0
 16 18  1  0  0  0  0
 17 16  1  0  0  0  0
 19 20  1  0  0  0  0
 21 24  1  0  0  0  0
 21 22  1  0  0  0  0
 22 26  1  0  0  0  0
 23 28  1  0  0  0  0
 24  1  1  6  0  0  0
 24 25  1  0  0  0  0
 25 23  1  0  0  0  0
 26 23  2  0  0  0  0
 27 30  1  0  0  0  0
 28 29  2  0  0  0  0
 29 27  2  0  0  0  0
 31 30  1  0  0  0  0
 33 34  1  0  0  0  0
 34 31  1  0  0  0  0
 34 32  2  0  0  0  0
 36 42  1  1  0  0  0
 36 33  1  0  0  0  0
 37 41  1  6  0  0  0
 37 36  1  0  0  0  0
 38 36  1  0  0  0  0
 39 35  1  6  0  0  0
 39 40  1  0  0  0  0
 39 37  1  0  0  0  0
 40 38  1  0  0  0  0
 43 46  1  0  0  0  0
 44 43  2  0  0  0  0
 45 46  2  0  0  0  0
 45  1  1  0  0  0  0
 47 45  1  0  0  0  0
 48 44  1  0  0  0  0
 48 47  2  0  0  0  0
 49 50  1  0  0  0  0
 50 47  1  0  0  0  0
M  END
>  <MODEL>
6

>  <REMARK>
 VINA RESULT:      -6.6      2.082      8.420
  Name = 
  14 active torsions:
  status: ('A' for Active; 'I' for Inactive)
    1  A    between atoms: N_1  and  C_7
    2  A    between atoms: N_1  and  C_49
    3  A    between atoms: C_4  and  N_33
    4  A    between atoms: C_7  and  C_23
    5  A    between atoms: C_12  and  C_14
    6  A    between atoms: C_12  and  C_43
    7  A    between atoms: C_14  and  C_15
    8  A    between atoms: N_17  and  C_22
    9  A    between atoms: N_17  and  C_24
   10  A    between atoms: N_17  and  C_32
   11  A    between atoms: C_19  and  C_36
   12  A    between atoms: C_27  and  O_44
   13  A    between atoms: N_29  and  C_48
   14  A    between atoms: O_35  and  C_41
                            x       y       z     vdW  Elec       q    Type
                         _______ _______ _______ _____ _____    ______ ____

>  <TORSDO>
F 14

$$$$
=
 OpenBabel11042415553D

 50 54  0  0  1  0  0  0  0  0999 V2000
  194.6140  173.3390  143.9160 N   0  0  0  0  0  0  0  0  0  0  0  0
  195.2080  173.5280  140.1690 C   0  0  0  0  0  2  0  0  0  0  0  0
  192.9560  173.4360  141.5390 C   0  0  0  0  0  2  0  0  0  0  0  0
  194.2600  173.3220  138.9670 C   0  0  2  0  0  3  0  0  0  0  0  0
  195.2010  173.4050  142.6090 C   0  0  0  0  0  3  0  0  0  0  0  0
  192.9710  174.0860  139.1510 C   0  0  0  0  0  3  0  0  0  0  0  0
  192.3670  174.1450  140.3480 C   0  0  0  0  0  3  0  0  0  0  0  0
  194.4720  173.4980  141.4910 C   0  0  0  0  0  0  0  0  0  0  0  0
  194.0280  171.8240  138.7610 C   0  0  0  0  0  2  0  0  0  0  0  0
  192.9450  171.6100  137.8060 N   0  0  0  0  0  2  0  0  0  0  0  0
  191.4590  170.6460  139.5190 C   0  0  0  0  0  2  0  0  0  0  0  0
  190.0010  170.9290  139.1650 C   0  0  2  0  0  3  0  0  0  0  0  0
  191.1260  170.1230  137.1760 C   0  0  2  0  0  3  0  0  0  0  0  0
  192.2060  170.4080  138.2060 C   0  0  1  0  0  3  0  0  0  0  0  0
  189.7800  170.0990  137.9110 C   0  0  0  0  0  2  0  0  0  0  0  0
  191.4210  168.9160  136.3820 N   0  0  0  0  0  0  0  0  0  0  0  0
  191.9040  169.2620  135.0490 C   0  0  0  0  0  1  0  0  0  0  0  0
  192.4770  168.1660  137.0550 C   0  0  0  0  0  1  0  0  0  0  0  0
  188.6350  172.6940  139.4040 C   0  0  0  0  0  1  0  0  0  0  0  0
  189.8500  172.2850  138.8310 O   0  0  0  0  0  0  0  0  0  0  0  0
  195.2780  175.4040  145.0940 C   0  0  0  0  0  2  0  0  0  0  0  0
  194.7300  176.7470  145.5560 C   0  0  0  0  0  2  0  0  0  0  0  0
  192.8420  175.4600  146.5900 C   0  0  0  0  0  0  0  0  0  0  0  0
  194.1170  174.5490  144.5900 C   0  0  2  0  0  3  0  0  0  0  0  0
  193.1720  174.2440  145.7670 C   0  0  0  0  0  2  0  0  0  0  0  0
  193.5990  176.5770  146.5320 C   0  0  0  0  0  3  0  0  0  0  0  0
  189.3100  174.6570  146.9010 C   0  0  0  0  0  3  0  0  0  0  0  0
  191.7420  175.3400  147.5580 C   0  0  0  0  0  3  0  0  0  0  0  0
  190.5270  174.9960  147.2210 C   0  0  0  0  0  0  0  0  0  0  0  0
  188.1780  175.5010  147.3750 C   0  0  0  0  0  2  0  0  0  0  0  0
  188.0060  176.7010  146.4510 C   0  0  0  0  0  2  0  0  0  0  0  0
  185.6230  176.8000  146.7010 O   0  0  0  0  0  0  0  0  0  0  0  0
  186.3400  176.7740  144.5090 N   0  0  0  0  0  2  0  0  0  0  0  0
  186.6040  176.8040  145.9090 C   0  0  0  0  0  0  0  0  0  0  0  0
  190.2030  174.7190  143.4120 C   0  0  0  0  0  1  0  0  0  0  0  0
  187.3010  176.9450  143.4240 C   0  0  1  0  0  0  0  0  0  0  0  0
  188.7170  176.6490  143.8930 C   0  0  1  0  0  3  0  0  0  0  0  0
  187.0320  175.8860  142.3640 C   0  0  0  0  0  2  0  0  0  0  0  0
  189.2470  175.7310  142.8120 C   0  0  2  0  0  3  0  0  0  0  0  0
  188.1610  175.0410  142.2300 O   0  0  0  0  0  0  0  0  0  0  0  0
  189.6220  177.8760  144.0010 C   0  0  0  0  0  1  0  0  0  0  0  0
  187.1750  178.2160  142.8540 O   0  0  0  0  0  1  0  0  0  0  0  0
  196.6300  171.1810  146.1200 C   0  0  0  0  0  3  0  0  0  0  0  0
  195.8050  170.0680  146.2660 C   0  0  0  0  0  2  0  0  0  0  0  0
  195.0090  172.2150  144.7310 C   0  0  2  0  0  3  0  0  0  0  0  0
  196.2180  172.2250  145.3550 N   0  0  0  0  0  0  0  0  0  0  0  0
  194.1730  171.0950  144.8840 C   0  0  0  0  0  0  0  0  0  0  0  0
  194.5950  170.0460  145.6460 N   0  0  0  0  0  0  0  0  0  0  0  0
  192.5500  170.1230  143.3020 C   0  0  0  0  0  1  0  0  0  0  0  0
  192.9120  171.0740  144.2850 O   0  0  0  0  0  0  0  0  0  0  0  0
  2  8  1  0  0  0  0
  4  9  1  1  0  0  0
  4  6  1  0  0  0  0
  4  2  1  0  0  0  0
  5  1  1  0  0  0  0
  6  7  2  0  0  0  0
  7  3  1  0  0  0  0
  8  3  1  0  0  0  0
  8  5  2  0  0  0  0
 10  9  1  0  0  0  0
 12 20  1  6  0  0  0
 12 11  1  0  0  0  0
 13 16  1  1  0  0  0
 13 15  1  0  0  0  0
 13 14  1  0  0  0  0
 14 10  1  6  0  0  0
 14 11  1  0  0  0  0
 15 12  1  0  0  0  0
 16 18  1  0  0  0  0
 17 16  1  0  0  0  0
 20 19  1  0  0  0  0
 21 22  1  0  0  0  0
 22 26  1  0  0  0  0
 23 28  1  0  0  0  0
 24  1  1  1  0  0  0
 24 21  1  0  0  0  0
 24 25  1  0  0  0  0
 25 23  1  0  0  0  0
 26 23  2  0  0  0  0
 27 29  2  0  0  0  0
 27 30  1  0  0  0  0
 29 28  2  0  0  0  0
 31 30  1  0  0  0  0
 33 34  1  0  0  0  0
 34 31  1  0  0  0  0
 34 32  2  0  0  0  0
 36 42  1  6  0  0  0
 36 37  1  0  0  0  0
 36 33  1  0  0  0  0
 37 41  1  6  0  0  0
 38 36  1  0  0  0  0
 39 35  1  1  0  0  0
 39 37  1  0  0  0  0
 40 38  1  0  0  0  0
 40 39  1  0  0  0  0
 43 44  1  0  0  0  0
 45  1  1  6  0  0  0
 45 47  1  0  0  0  0
 45 46  1  0  0  0  0
 46 43  2  0  0  0  0
 47 48  2  0  0  0  0
 48 44  1  0  0  0  0
 49 50  1  0  0  0  0
 50 47  1  0  0  0  0
M  END
>  <MODEL>
7

>  <REMARK>
 VINA RESULT:      -6.6      2.141      7.850
  Name = 
  14 active torsions:
  status: ('A' for Active; 'I' for Inactive)
    1  A    between atoms: N_1  and  C_7
    2  A    between atoms: N_1  and  C_49
    3  A    between atoms: C_4  and  N_33
    4  A    between atoms: C_7  and  C_23
    5  A    between atoms: C_12  and  C_14
    6  A    between atoms: C_12  and  C_43
    7  A    between atoms: C_14  and  C_15
    8  A    between atoms: N_17  and  C_22
    9  A    between atoms: N_17  and  C_24
   10  A    between atoms: N_17  and  C_32
   11  A    between atoms: C_19  and  C_36
   12  A    between atoms: C_27  and  O_44
   13  A    between atoms: N_29  and  C_48
   14  A    between atoms: O_35  and  C_41
                            x       y       z     vdW  Elec       q    Type
                         _______ _______ _______ _____ _____    ______ ____

>  <TORSDO>
F 14

$$$$
=
 OpenBabel11042415553D

 50 54  0  0  1  0  0  0  0  0999 V2000
  194.9770  173.5070  142.1130 N   0  0  0  0  0  0  0  0  0  0  0  0
  191.3100  172.8380  141.3780 C   0  0  0  0  0  2  0  0  0  0  0  0
  193.2450  171.1810  142.0630 C   0  0  0  0  0  2  0  0  0  0  0  0
  190.5340  171.5250  141.1330 C   0  0  2  0  0  3  0  0  0  0  0  0
  193.5880  173.6280  141.7750 C   0  0  0  0  0  3  0  0  0  0  0  0
  190.8710  170.4890  142.1780 C   0  0  0  0  0  3  0  0  0  0  0  0
  192.1300  170.3330  142.6160 C   0  0  0  0  0  3  0  0  0  0  0  0
  192.7460  172.5880  141.7860 C   0  0  0  0  0  0  0  0  0  0  0  0
  190.8140  171.0350  139.7110 C   0  0  0  0  0  2  0  0  0  0  0  0
  190.1990  171.9330  138.7390 N   0  0  0  0  0  2  0  0  0  0  0  0
  189.5720  171.6250  136.3770 C   0  0  0  0  0  2  0  0  0  0  0  0
  189.6860  172.9500  135.6270 C   0  0  2  0  0  3  0  0  0  0  0  0
  191.6900  172.6480  136.9560 C   0  0  2  0  0  3  0  0  0  0  0  0
  190.7010  171.5860  137.4070 C   0  0  1  0  0  3  0  0  0  0  0  0
  191.1820  173.2210  135.6270 C   0  0  0  0  0  2  0  0  0  0  0  0
  193.0750  172.1400  136.9240 N   0  0  0  0  0  0  0  0  0  0  0  0
  193.7860  172.4600  138.1580 C   0  0  0  0  0  1  0  0  0  0  0  0
  193.0310  170.6870  136.8010 C   0  0  0  0  0  1  0  0  0  0  0  0
  188.9480  175.0650  135.4980 C   0  0  0  0  0  1  0  0  0  0  0  0
  189.0530  173.9650  136.3630 O   0  0  0  0  0  0  0  0  0  0  0  0
  195.9730  172.7780  144.2510 C   0  0  0  0  0  2  0  0  0  0  0  0
  196.7090  173.3110  145.4720 C   0  0  0  0  0  2  0  0  0  0  0  0
  194.8850  175.0240  145.6450 C   0  0  0  0  0  0  0  0  0  0  0  0
  195.4860  173.9610  143.4170 C   0  0  2  0  0  3  0  0  0  0  0  0
  194.4450  174.7530  144.2320 C   0  0  0  0  0  2  0  0  0  0  0  0
  195.8780  174.3160  146.2230 C   0  0  0  0  0  3  0  0  0  0  0  0
  191.6610  175.5670  147.2370 C   0  0  0  0  0  3  0  0  0  0  0  0
  194.1020  176.0000  146.4180 C   0  0  0  0  0  3  0  0  0  0  0  0
  192.8800  175.7750  146.8260 C   0  0  0  0  0  0  0  0  0  0  0  0
  190.6220  176.5960  146.9590 C   0  0  0  0  0  2  0  0  0  0  0  0
  189.9300  176.2880  145.6360 C   0  0  0  0  0  2  0  0  0  0  0  0
  191.5120  177.6550  144.4610 O   0  0  0  0  0  0  0  0  0  0  0  0
  189.3440  177.8540  143.6980 N   0  0  0  0  0  2  0  0  0  0  0  0
  190.3180  177.2590  144.5530 C   0  0  0  0  0  0  0  0  0  0  0  0
  185.3670  179.9080  144.2530 C   0  0  0  0  0  1  0  0  0  0  0  0
  187.9580  177.4350  143.5110 C   0  0  1  0  0  0  0  0  0  0  0  0
  187.0430  178.0980  144.5300 C   0  0  1  0  0  3  0  0  0  0  0  0
  187.4670  177.9650  142.1720 C   0  0  0  0  0  2  0  0  0  0  0  0
  185.9030  178.6120  143.6770 C   0  0  2  0  0  3  0  0  0  0  0  0
  186.3870  178.8580  142.3740 O   0  0  0  0  0  0  0  0  0  0  0  0
  186.4900  177.1540  145.5970 C   0  0  0  0  0  1  0  0  0  0  0  0
  187.8620  176.0410  143.5250 O   0  0  0  0  0  1  0  0  0  0  0  0
  197.3740  172.1790  139.6480 C   0  0  0  0  0  3  0  0  0  0  0  0
  197.6830  173.3170  138.9070 C   0  0  0  0  0  2  0  0  0  0  0  0
  195.8960  173.4500  141.0020 C   0  0  2  0  0  3  0  0  0  0  0  0
  196.4930  172.2700  140.6790 N   0  0  0  0  0  0  0  0  0  0  0  0
  196.2030  174.5960  140.2490 C   0  0  0  0  0  0  0  0  0  0  0  0
  197.0940  174.5020  139.2220 N   0  0  0  0  0  0  0  0  0  0  0  0
  196.1900  176.8200  141.3160 C   0  0  0  0  0  1  0  0  0  0  0  0
  195.5780  175.8120  140.5350 O   0  0  0  0  0  0  0  0  0  0  0  0
  2  8  1  0  0  0  0
  3  7  1  0  0  0  0
  4  9  1  6  0  0  0
  4  2  1  0  0  0  0
  4  6  1  0  0  0  0
  5  8  2  0  0  0  0
  5  1  1  0  0  0  0
  6  7  2  0  0  0  0
  8  3  1  0  0  0  0
 10  9  1  0  0  0  0
 11 14  1  0  0  0  0
 12 20  1  1  0  0  0
 12 11  1  0  0  0  0
 13 16  1  6  0  0  0
 13 14  1  0  0  0  0
 14 10  1  1  0  0  0
 15 12  1  0  0  0  0
 15 13  1  0  0  0  0
 16 17  1  0  0  0  0
 18 16  1  0  0  0  0
 19 20  1  0  0  0  0
 21 22  1  0  0  0  0
 22 26  1  0  0  0  0
 23 26  2  0  0  0  0
 23 28  1  0  0  0  0
 24  1  1  6  0  0  0
 24 25  1  0  0  0  0
 24 21  1  0  0  0  0
 25 23  1  0  0  0  0
 28 29  2  0  0  0  0
 29 27  2  0  0  0  0
 30 27  1  0  0  0  0
 31 30  1  0  0  0  0
 32 34  2  0  0  0  0
 33 34  1  0  0  0  0
 34 31  1  0  0  0  0
 36 42  1  1  0  0  0
 36 33  1  0  0  0  0
 36 37  1  0  0  0  0
 37 41  1  1  0  0  0
 38 40  1  0  0  0  0
 38 36  1  0  0  0  0
 39 35  1  1  0  0  0
 39 37  1  0  0  0  0
 40 39  1  0  0  0  0
 43 46  2  0  0  0  0
 44 48  1  0  0  0  0
 44 43  1  0  0  0  0
 45  1  1  1  0  0  0
 46 45  1  0  0  0  0
 47 50  1  0  0  0  0
 47 45  1  0  0  0  0
 48 47  2  0  0  0  0
 50 49  1  0  0  0  0
M  END
>  <MODEL>
8

>  <REMARK>
 VINA RESULT:      -6.6      2.301      7.634
  Name = 
  14 active torsions:
  status: ('A' for Active; 'I' for Inactive)
    1  A    between atoms: N_1  and  C_7
    2  A    between atoms: N_1  and  C_49
    3  A    between atoms: C_4  and  N_33
    4  A    between atoms: C_7  and  C_23
    5  A    between atoms: C_12  and  C_14
    6  A    between atoms: C_12  and  C_43
    7  A    between atoms: C_14  and  C_15
    8  A    between atoms: N_17  and  C_22
    9  A    between atoms: N_17  and  C_24
   10  A    between atoms: N_17  and  C_32
   11  A    between atoms: C_19  and  C_36
   12  A    between atoms: C_27  and  O_44
   13  A    between atoms: N_29  and  C_48
   14  A    between atoms: O_35  and  C_41
                            x       y       z     vdW  Elec       q    Type
                         _______ _______ _______ _____ _____    ______ ____

>  <TORSDO>
F 14

$$$$
=
 OpenBabel11042415553D

 50 54  0  0  1  0  0  0  0  0999 V2000
  192.2650  174.6300  143.6430 N   0  0  0  0  0  0  0  0  0  0  0  0
  191.8270  171.3830  141.7220 C   0  0  0  0  0  2  0  0  0  0  0  0
  192.8580  173.6890  140.9650 C   0  0  0  0  0  2  0  0  0  0  0  0
  191.9470  171.0550  140.2180 C   0  0  2  0  0  3  0  0  0  0  0  0
  191.9460  173.2900  143.2450 C   0  0  0  0  0  3  0  0  0  0  0  0
  193.2110  171.6350  139.6310 C   0  0  0  0  0  3  0  0  0  0  0  0
  193.6400  172.8570  139.9830 C   0  0  0  0  0  3  0  0  0  0  0  0
  192.2460  172.8030  142.0350 C   0  0  0  0  0  0  0  0  0  0  0  0
  190.6900  171.5440  139.4960 C   0  0  0  0  0  2  0  0  0  0  0  0
  191.0170  171.9390  138.1290 N   0  0  0  0  0  2  0  0  0  0  0  0
  191.6860  174.0950  137.1420 C   0  0  0  0  0  2  0  0  0  0  0  0
  191.1800  174.1930  135.7050 C   0  0  2  0  0  3  0  0  0  0  0  0
  189.3660  173.3990  137.1020 C   0  0  2  0  0  3  0  0  0  0  0  0
  190.6280  173.3400  137.9470 C   0  0  1  0  0  3  0  0  0  0  0  0
  189.6720  174.2650  135.8730 C   0  0  0  0  0  2  0  0  0  0  0  0
  188.1920  173.8280  137.8860 N   0  0  0  0  0  0  0  0  0  0  0  0
  188.5630  174.1620  139.2580 C   0  0  0  0  0  1  0  0  0  0  0  0
  187.6390  175.0310  137.2710 C   0  0  0  0  0  1  0  0  0  0  0  0
  192.8820  173.0330  134.8140 C   0  0  0  0  0  1  0  0  0  0  0  0
  191.4930  173.0110  135.0120 O   0  0  0  0  0  0  0  0  0  0  0  0
  191.5390  176.9480  144.0860 C   0  0  0  0  0  2  0  0  0  0  0  0
  190.9870  178.1830  143.3880 C   0  0  0  0  0  2  0  0  0  0  0  0
  189.2560  176.6680  142.3900 C   0  0  0  0  0  0  0  0  0  0  0  0
  191.5280  175.7820  143.0990 C   0  0  2  0  0  3  0  0  0  0  0  0
  190.0690  175.4500  142.7330 C   0  0  0  0  0  2  0  0  0  0  0  0
  189.6540  177.9070  142.7490 C   0  0  0  0  0  3  0  0  0  0  0  0
  186.1090  178.2940  141.5670 C   0  0  0  0  0  3  0  0  0  0  0  0
  187.9440  176.4470  141.7630 C   0  0  0  0  0  3  0  0  0  0  0  0
  187.0310  177.3780  141.6680 C   0  0  0  0  0  0  0  0  0  0  0  0
  184.7250  177.9770  142.0170 C   0  0  0  0  0  2  0  0  0  0  0  0
  184.7290  177.6470  143.5050 C   0  0  0  0  0  2  0  0  0  0  0  0
  183.9630  179.8870  143.8890 O   0  0  0  0  0  0  0  0  0  0  0  0
  185.1410  178.9790  145.6520 N   0  0  0  0  0  2  0  0  0  0  0  0
  184.5500  178.8740  144.3590 C   0  0  0  0  0  0  0  0  0  0  0  0
  189.3390  177.9080  146.9090 C   0  0  0  0  0  1  0  0  0  0  0  0
  185.7100  177.9000  146.4540 C   0  0  1  0  0  0  0  0  0  0  0  0
  187.0870  177.5050  145.9450 C   0  0  1  0  0  3  0  0  0  0  0  0
  185.9700  178.4240  147.8590 C   0  0  0  0  0  2  0  0  0  0  0  0
  187.9190  177.4700  147.2100 C   0  0  2  0  0  3  0  0  0  0  0  0
  187.3560  178.3620  148.1470 O   0  0  0  0  0  0  0  0  0  0  0  0
  187.1460  176.1370  145.2640 C   0  0  0  0  0  1  0  0  0  0  0  0
  184.8260  176.8190  146.5170 O   0  0  0  0  0  1  0  0  0  0  0  0
  195.8690  175.4030  143.6740 C   0  0  0  0  0  3  0  0  0  0  0  0
  196.1890  175.2250  145.0170 C   0  0  0  0  0  2  0  0  0  0  0  0
  193.6080  174.8440  144.1280 C   0  0  2  0  0  3  0  0  0  0  0  0
  194.5900  175.2050  143.2580 N   0  0  0  0  0  0  0  0  0  0  0  0
  193.9300  174.6720  145.4850 C   0  0  0  0  0  0  0  0  0  0  0  0
  195.2160  174.8630  145.8960 N   0  0  0  0  0  0  0  0  0  0  0  0
  192.2910  175.3020  147.2170 C   0  0  0  0  0  1  0  0  0  0  0  0
  192.9350  174.3380  146.4060 O   0  0  0  0  0  0  0  0  0  0  0  0
  2  8  1  0  0  0  0
  3  8  1  0  0  0  0
  4  9  1  6  0  0  0
  4  2  1  0  0  0  0
  5  1  1  0  0  0  0
  6  7  2  0  0  0  0
  6  4  1  0  0  0  0
  7  3  1  0  0  0  0
  8  5  2  0  0  0  0
 10  9  1  0  0  0  0
 11 14  1  0  0  0  0
 12 20  1  6  0  0  0
 12 15  1  0  0  0  0
 12 11  1  0  0  0  0
 13 16  1  1  0  0  0
 13 14  1  0  0  0  0
 14 10  1  6  0  0  0
 15 13  1  0  0  0  0
 16 17  1  0  0  0  0
 18 16  1  0  0  0  0
 19 20  1  0  0  0  0
 22 21  1  0  0  0  0
 23 25  1  0  0  0  0
 23 26  2  0  0  0  0
 24  1  1  1  0  0  0
 24 21  1  0  0  0  0
 25 24  1  0  0  0  0
 26 22  1  0  0  0  0
 27 29  2  0  0  0  0
 27 30  1  0  0  0  0
 28 23  1  0  0  0  0
 29 28  2  0  0  0  0
 30 31  1  0  0  0  0
 31 34  1  0  0  0  0
 32 34  2  0  0  0  0
 33 36  1  0  0  0  0
 34 33  1  0  0  0  0
 36 42  1  1  0  0  0
 36 38  1  0  0  0  0
 37 41  1  1  0  0  0
 37 36  1  0  0  0  0
 37 39  1  0  0  0  0
 38 40  1  0  0  0  0
 39 35  1  6  0  0  0
 39 40  1  0  0  0  0
 43 44  1  0  0  0  0
 44 48  1  0  0  0  0
 45  1  1  6  0  0  0
 45 47  1  0  0  0  0
 46 43  2  0  0  0  0
 46 45  1  0  0  0  0
 47 48  2  0  0  0  0
 47 50  1  0  0  0  0
 50 49  1  0  0  0  0
M  END
>  <MODEL>
9

>  <REMARK>
 VINA RESULT:      -6.6      2.552      8.587
  Name = 
  14 active torsions:
  status: ('A' for Active; 'I' for Inactive)
    1  A    between atoms: N_1  and  C_7
    2  A    between atoms: N_1  and  C_49
    3  A    between atoms: C_4  and  N_33
    4  A    between atoms: C_7  and  C_23
    5  A    between atoms: C_12  and  C_14
    6  A    between atoms: C_12  and  C_43
    7  A    between atoms: C_14  and  C_15
    8  A    between atoms: N_17  and  C_22
    9  A    between atoms: N_17  and  C_24
   10  A    between atoms: N_17  and  C_32
   11  A    between atoms: C_19  and  C_36
   12  A    between atoms: C_27  and  O_44
   13  A    between atoms: N_29  and  C_48
   14  A    between atoms: O_35  and  C_41
                            x       y       z     vdW  Elec       q    Type
                         _______ _______ _______ _____ _____    ______ ____

>  <TORSDO>
F 14

$$$$
