=
 OpenBabel11042417063D

 44 48  0  0  1  0  0  0  0  0999 V2000
  194.3140  175.6930  140.3560 C   0  0  0  0  0  2  0  0  0  0  0  0
  191.5430  173.4920  138.7690 C   0  0  0  0  0  3  0  0  0  0  0  0
  196.9720  176.8650  143.3750 O   0  0  0  0  0  0  0  0  0  0  0  0
  195.6850  175.2090  142.3470 N   0  0  0  0  0  2  0  0  0  0  0  0
  193.6340  171.8330  144.7120 C   0  0  0  0  0  0  0  0  0  0  0  0
  195.5890  174.8370  145.5880 C   0  0  0  0  0  2  0  0  0  0  0  0
  191.0720  176.0830  143.6540 C   0  0  1  0  0  3  0  0  0  0  0  0
  192.6040  175.3170  145.1990 C   0  0  0  0  0  2  0  0  0  0  0  0
  196.4830  175.7040  143.4250 C   0  0  0  0  0  0  0  0  0  0  0  0
  195.6620  175.8710  141.0490 C   0  0  1  0  0  3  0  0  0  0  0  0
  193.8950  174.2350  140.2450 C   0  0  1  0  0  3  0  0  0  0  0  0
  196.7960  175.3580  140.1770 C   0  0  0  0  0  1  0  0  0  0  0  0
  190.0780  172.9050  142.1780 C   0  0  0  0  0  2  0  0  0  0  0  0
  190.1100  173.7130  140.8790 C   0  0  0  0  0  2  0  0  0  0  0  0
  193.2590  174.0170  145.0980 N   0  0  0  0  0  0  0  0  0  0  0  0
  192.4480  175.8630  143.9130 O   0  0  0  0  0  0  0  0  0  0  0  0
  191.2320  172.6760  144.4050 C   0  0  0  0  0  2  0  0  0  0  0  0
  192.6800  172.8440  144.7550 C   0  0  0  0  0  0  0  0  0  0  0  0
  191.4580  173.7330  140.2140 C   0  0  0  0  0  0  0  0  0  0  0  0
  192.5540  174.0800  140.8960 C   0  0  0  0  0  3  0  0  0  0  0  0
  190.8770  173.6080  143.2660 C   0  0  2  0  0  3  0  0  0  0  0  0
  190.1760  174.8450  143.8010 C   0  0  0  0  0  2  0  0  0  0  0  0
  196.7590  174.8460  144.6130 C   0  0  0  0  0  2  0  0  0  0  0  0
  194.5810  173.7870  145.2290 C   0  0  0  0  0  0  0  0  0  0  0  0
  193.8920  173.8310  138.8690 O   0  0  0  0  0  0  0  0  0  0  0  0
  194.8480  172.4480  145.0060 C   0  0  0  0  0  0  0  0  0  0  0  0
  192.7220  173.5490  138.1430 C   0  0  0  0  0  0  0  0  0  0  0  0
  192.3410  171.9920  136.4210 F   0  0  0  0  0  0  0  0  0  0  0  0
  192.0330  174.1830  135.9760 F   0  0  0  0  0  0  0  0  0  0  0  0
  194.1150  173.3680  136.2450 F   0  0  0  0  0  0  0  0  0  0  0  0
  192.8040  173.2710  136.6750 C   0  0  0  0  0  0  0  0  0  0  0  0
  192.8150  170.3530  143.0480 O   0  0  0  0  0  0  0  0  0  0  0  0
  194.1790  170.0260  143.1200 C   0  0  0  0  0  2  0  0  0  0  0  0
  193.4030  170.4010  144.3270 C   0  0  1  0  0  3  0  0  0  0  0  0
  196.1280  171.8810  145.0500 O   0  0  0  0  0  0  0  0  0  0  0  0
  196.6860  171.2860  146.2120 C   0  0  0  0  0  2  0  0  0  0  0  0
  197.1560  169.8800  145.8930 C   0  0  0  0  0  2  0  0  0  0  0  0
  196.1010  168.9820  146.0510 O   0  0  0  0  0  1  0  0  0  0  0  0
  190.5120  177.2680  144.4340 C   0  0  0  0  0  2  0  0  0  0  0  0
  189.0740  177.5660  144.0270 C   0  0  0  0  0  2  0  0  0  0  0  0
  188.1480  177.6080  145.2390 C   0  0  0  0  0  2  0  0  0  0  0  0
  188.8210  177.0600  146.4910 C   0  0  0  0  0  2  0  0  0  0  0  0
  188.2040  175.7350  146.9160 C   0  0  0  0  0  2  0  0  0  0  0  0
  189.2890  174.7470  147.3040 C   0  0  0  0  0  1  0  0  0  0  0  0
  1 10  1  0  0  0  0
  2 19  1  0  0  0  0
  3  9  2  0  0  0  0
  4  9  1  0  0  0  0
  5 18  2  0  0  0  0
  5 26  1  0  0  0  0
  7 22  1  0  0  0  0
  7 16  1  0  0  0  0
  7 39  1  1  0  0  0
  9 23  1  0  0  0  0
 10 12  1  6  0  0  0
 10  4  1  0  0  0  0
 11  1  1  6  0  0  0
 11 20  1  0  0  0  0
 14 13  1  0  0  0  0
 15  8  1  0  0  0  0
 15 24  1  0  0  0  0
 16  8  1  0  0  0  0
 17 18  1  0  0  0  0
 18 15  1  0  0  0  0
 19 14  1  0  0  0  0
 19 20  2  0  0  0  0
 21 13  1  6  0  0  0
 21 22  1  0  0  0  0
 21 17  1  0  0  0  0
 23  6  1  0  0  0  0
 24  6  1  0  0  0  0
 25 11  1  0  0  0  0
 26 35  1  0  0  0  0
 26 24  2  0  0  0  0
 27  2  2  0  0  0  0
 27 25  1  0  0  0  0
 28 31  1  0  0  0  0
 29 31  1  0  0  0  0
 30 31  1  0  0  0  0
 31 27  1  0  0  0  0
 32 33  1  0  0  0  0
 32 34  1  0  0  0  0
 33 34  1  0  0  0  0
 34  5  1  6  0  0  0
 35 36  1  0  0  0  0
 37 38  1  0  0  0  0
 37 36  1  0  0  0  0
 40 39  1  0  0  0  0
 40 41  1  0  0  0  0
 41 42  1  0  0  0  0
 42 43  1  0  0  0  0
 43 44  1  0  0  0  0
M  END
>  <MODEL>
1

>  <REMARK>
 VINA RESULT:      -6.4      0.000      0.000
  Name = 
  10 active torsions:
  status: ('A' for Active; 'I' for Inactive)
    1  A    between atoms: C_1  and  C_34
    2  A    between atoms: C_7  and  C_39
    3  A    between atoms: O_9  and  C_34
    4  A    between atoms: O_9  and  C_42
    5  A    between atoms: C_11  and  C_20
    6  A    between atoms: C_14  and  C_15
    7  A    between atoms: C_15  and  C_17
    8  A    between atoms: C_17  and  C_19
    9  A    between atoms: C_19  and  C_39
   10  A    between atoms: C_43  and  C_44
                            x       y       z     vdW  Elec       q    Type
                         _______ _______ _______ _____ _____    ______ ____

>  <TORSDO>
F 10

$$$$
=
 OpenBabel11042417063D

 44 48  0  0  1  0  0  0  0  0999 V2000
  193.1150  174.4980  139.3120 C   0  0  0  0  0  2  0  0  0  0  0  0
  190.5380  171.6200  138.9630 C   0  0  0  0  0  3  0  0  0  0  0  0
  195.9050  176.8740  141.3430 O   0  0  0  0  0  0  0  0  0  0  0  0
  194.7700  174.8460  141.1070 N   0  0  0  0  0  2  0  0  0  0  0  0
  193.5450  172.2530  144.7080 C   0  0  0  0  0  0  0  0  0  0  0  0
  195.1160  175.5630  144.2720 C   0  0  0  0  0  2  0  0  0  0  0  0
  190.2650  175.6210  142.8000 C   0  0  1  0  0  3  0  0  0  0  0  0
  192.0670  175.5750  144.2390 C   0  0  0  0  0  2  0  0  0  0  0  0
  195.6060  175.7510  141.8320 C   0  0  0  0  0  0  0  0  0  0  0  0
  194.4930  175.0340  139.6880 C   0  0  1  0  0  3  0  0  0  0  0  0
  192.9100  173.0500  139.7330 C   0  0  1  0  0  3  0  0  0  0  0  0
  195.5790  174.3820  138.8490 C   0  0  0  0  0  1  0  0  0  0  0  0
  189.5930  172.0480  142.5750 C   0  0  0  0  0  2  0  0  0  0  0  0
  189.3480  172.3790  141.1010 C   0  0  0  0  0  2  0  0  0  0  0  0
  192.8950  174.3900  144.4460 N   0  0  0  0  0  0  0  0  0  0  0  0
  191.6790  175.6430  142.8890 O   0  0  0  0  0  0  0  0  0  0  0  0
  191.0240  172.6920  144.5440 C   0  0  0  0  0  2  0  0  0  0  0  0
  192.4620  173.1160  144.5860 C   0  0  0  0  0  0  0  0  0  0  0  0
  190.5900  172.3160  140.2550 C   0  0  0  0  0  0  0  0  0  0  0  0
  191.6940  172.9820  140.6080 C   0  0  0  0  0  3  0  0  0  0  0  0
  190.4000  173.1510  143.2430 C   0  0  2  0  0  3  0  0  0  0  0  0
  189.5900  174.4160  143.4700 C   0  0  0  0  0  2  0  0  0  0  0  0
  196.1460  175.3700  143.1680 C   0  0  0  0  0  2  0  0  0  0  0  0
  194.2420  174.3550  144.4270 C   0  0  0  0  0  0  0  0  0  0  0  0
  192.8040  172.2150  138.5730 O   0  0  0  0  0  0  0  0  0  0  0  0
  194.6790  173.0530  144.5950 C   0  0  0  0  0  0  0  0  0  0  0  0
  191.6120  171.5880  138.1700 C   0  0  0  0  0  0  0  0  0  0  0  0
  190.4370  170.0420  136.8430 F   0  0  0  0  0  0  0  0  0  0  0  0
  191.5050  171.7450  135.8170 F   0  0  0  0  0  0  0  0  0  0  0  0
  192.6860  170.0580  136.7280 F   0  0  0  0  0  0  0  0  0  0  0  0
  191.5600  170.8490  136.8700 C   0  0  0  0  0  0  0  0  0  0  0  0
  192.7010  170.2350  143.7900 O   0  0  0  0  0  0  0  0  0  0  0  0
  194.0920  170.0860  143.6570 C   0  0  0  0  0  2  0  0  0  0  0  0
  193.4890  170.7580  144.8340 C   0  0  1  0  0  3  0  0  0  0  0  0
  196.0260  172.6690  144.6070 O   0  0  0  0  0  0  0  0  0  0  0  0
  196.7300  172.3040  145.7850 C   0  0  0  0  0  2  0  0  0  0  0  0
  197.1770  170.8590  145.6890 C   0  0  0  0  0  2  0  0  0  0  0  0
  196.4740  170.0840  146.6110 O   0  0  0  0  0  1  0  0  0  0  0  0
  189.6290  176.9330  143.2490 C   0  0  0  0  0  2  0  0  0  0  0  0
  188.5130  176.6870  144.2560 C   0  0  0  0  0  2  0  0  0  0  0  0
  188.9380  177.0820  145.6680 C   0  0  0  0  0  2  0  0  0  0  0  0
  188.2330  176.2490  146.7300 C   0  0  0  0  0  2  0  0  0  0  0  0
  188.9970  174.9670  147.0260 C   0  0  0  0  0  2  0  0  0  0  0  0
  190.4090  175.2870  147.4830 C   0  0  0  0  0  1  0  0  0  0  0  0
  1 10  1  0  0  0  0
  2 19  1  0  0  0  0
  3  9  2  0  0  0  0
  4  9  1  0  0  0  0
  6 24  1  0  0  0  0
  7 16  1  0  0  0  0
  7 39  1  1  0  0  0
  7 22  1  0  0  0  0
  8 15  1  0  0  0  0
  9 23  1  0  0  0  0
 10 12  1  6  0  0  0
 10  4  1  0  0  0  0
 11  1  1  6  0  0  0
 11 20  1  0  0  0  0
 14 13  1  0  0  0  0
 15 18  1  0  0  0  0
 16  8  1  0  0  0  0
 17 18  1  0  0  0  0
 18  5  2  0  0  0  0
 19 20  2  0  0  0  0
 19 14  1  0  0  0  0
 21 13  1  1  0  0  0
 21 22  1  0  0  0  0
 21 17  1  0  0  0  0
 23  6  1  0  0  0  0
 24 15  1  0  0  0  0
 24 26  2  0  0  0  0
 25 11  1  0  0  0  0
 26 35  1  0  0  0  0
 26  5  1  0  0  0  0
 27 25  1  0  0  0  0
 27  2  2  0  0  0  0
 28 31  1  0  0  0  0
 29 31  1  0  0  0  0
 30 31  1  0  0  0  0
 31 27  1  0  0  0  0
 32 34  1  0  0  0  0
 33 32  1  0  0  0  0
 33 34  1  0  0  0  0
 34  5  1  6  0  0  0
 35 36  1  0  0  0  0
 37 36  1  0  0  0  0
 37 38  1  0  0  0  0
 39 40  1  0  0  0  0
 40 41  1  0  0  0  0
 41 42  1  0  0  0  0
 42 43  1  0  0  0  0
 43 44  1  0  0  0  0
M  END
>  <MODEL>
2

>  <REMARK>
 VINA RESULT:      -6.3      1.339      1.582
  Name = 
  10 active torsions:
  status: ('A' for Active; 'I' for Inactive)
    1  A    between atoms: C_1  and  C_34
    2  A    between atoms: C_7  and  C_39
    3  A    between atoms: O_9  and  C_34
    4  A    between atoms: O_9  and  C_42
    5  A    between atoms: C_11  and  C_20
    6  A    between atoms: C_14  and  C_15
    7  A    between atoms: C_15  and  C_17
    8  A    between atoms: C_17  and  C_19
    9  A    between atoms: C_19  and  C_39
   10  A    between atoms: C_43  and  C_44
                            x       y       z     vdW  Elec       q    Type
                         _______ _______ _______ _____ _____    ______ ____

>  <TORSDO>
F 10

$$$$
=
 OpenBabel11042417063D

 44 48  0  0  1  0  0  0  0  0999 V2000
  193.5360  175.0710  145.8040 C   0  0  0  0  0  2  0  0  0  0  0  0
  189.6870  174.6450  145.5810 C   0  0  0  0  0  3  0  0  0  0  0  0
  197.4640  174.9250  144.3560 O   0  0  0  0  0  0  0  0  0  0  0  0
  195.1700  175.1050  143.9580 N   0  0  0  0  0  2  0  0  0  0  0  0
  193.1510  173.3190  140.2250 C   0  0  0  0  0  0  0  0  0  0  0  0
  196.5610  173.2830  141.6350 C   0  0  0  0  0  2  0  0  0  0  0  0
  193.3520  170.6170  144.5150 C   0  0  1  0  0  3  0  0  0  0  0  0
  194.7030  171.1200  142.7140 C   0  0  0  0  0  2  0  0  0  0  0  0
  196.5190  174.9140  143.5230 C   0  0  0  0  0  0  0  0  0  0  0  0
  194.8630  175.6190  145.2870 C   0  0  1  0  0  3  0  0  0  0  0  0
  192.3840  175.3030  144.8370 C   0  0  1  0  0  3  0  0  0  0  0  0
  194.8580  177.1390  145.2740 C   0  0  0  0  0  1  0  0  0  0  0  0
  190.1580  171.7750  143.2030 C   0  0  0  0  0  2  0  0  0  0  0  0
  189.9680  172.2820  144.6340 C   0  0  0  0  0  2  0  0  0  0  0  0
  194.3410  172.0970  141.6910 N   0  0  0  0  0  0  0  0  0  0  0  0
  194.2510  171.5670  143.9680 O   0  0  0  0  0  0  0  0  0  0  0  0
  191.9170  171.4250  141.4350 C   0  0  0  0  0  2  0  0  0  0  0  0
  193.1280  172.2490  141.1130 C   0  0  0  0  0  0  0  0  0  0  0  0
  190.5100  173.6670  144.8590 C   0  0  0  0  0  0  0  0  0  0  0  0
  191.7640  173.9760  144.5170 C   0  0  0  0  0  3  0  0  0  0  0  0
  191.6290  171.5110  142.9190 C   0  0  2  0  0  3  0  0  0  0  0  0
  192.1500  170.2700  143.6250 C   0  0  0  0  0  2  0  0  0  0  0  0
  196.8220  174.7170  142.0770 C   0  0  0  0  0  2  0  0  0  0  0  0
  195.1320  173.0840  141.2270 C   0  0  0  0  0  0  0  0  0  0  0  0
  191.4480  176.2280  145.4050 O   0  0  0  0  0  0  0  0  0  0  0  0
  194.4340  173.8530  140.3130 C   0  0  0  0  0  0  0  0  0  0  0  0
  190.1600  175.8680  145.8360 C   0  0  0  0  0  0  0  0  0  0  0  0
  188.2140  176.2270  147.1070 F   0  0  0  0  0  0  0  0  0  0  0  0
  190.0290  177.4950  147.5420 F   0  0  0  0  0  0  0  0  0  0  0  0
  188.8500  177.8230  145.6520 F   0  0  0  0  0  0  0  0  0  0  0  0
  189.3020  176.8690  146.5450 C   0  0  0  0  0  0  0  0  0  0  0  0
  192.4360  174.1410  138.1180 O   0  0  0  0  0  0  0  0  0  0  0  0
  191.6890  172.9610  138.2680 C   0  0  0  0  0  2  0  0  0  0  0  0
  191.9960  173.8410  139.4220 C   0  0  1  0  0  3  0  0  0  0  0  0
  194.9640  174.9710  139.6550 O   0  0  0  0  0  0  0  0  0  0  0  0
  195.5870  174.9110  138.3810 C   0  0  0  0  0  2  0  0  0  0  0  0
  197.0340  175.3500  138.4980 C   0  0  0  0  0  2  0  0  0  0  0  0
  197.8660  174.2320  138.5290 O   0  0  0  0  0  1  0  0  0  0  0  0
  194.0600  169.3570  145.0040 C   0  0  0  0  0  2  0  0  0  0  0  0
  194.7850  169.6080  146.3200 C   0  0  0  0  0  2  0  0  0  0  0  0
  196.2970  169.6740  146.1210 C   0  0  0  0  0  2  0  0  0  0  0  0
  196.8120  171.1080  146.1250 C   0  0  0  0  0  2  0  0  0  0  0  0
  197.6500  171.3980  144.8890 C   0  0  0  0  0  2  0  0  0  0  0  0
  197.9410  170.1130  144.1340 C   0  0  0  0  0  1  0  0  0  0  0  0
  2 27  2  0  0  0  0
  4 10  1  0  0  0  0
  5 26  1  0  0  0  0
  5 18  2  0  0  0  0
  6 23  1  0  0  0  0
  7 39  1  6  0  0  0
  8 16  1  0  0  0  0
  9  4  1  0  0  0  0
  9  3  2  0  0  0  0
 10 12  1  6  0  0  0
 10  1  1  0  0  0  0
 11 20  1  1  0  0  0
 11 25  1  0  0  0  0
 11  1  1  0  0  0  0
 13 14  1  0  0  0  0
 14 19  1  0  0  0  0
 15  8  1  0  0  0  0
 16  7  1  0  0  0  0
 18 17  1  0  0  0  0
 18 15  1  0  0  0  0
 19  2  1  0  0  0  0
 20 19  2  0  0  0  0
 21 17  1  6  0  0  0
 21 13  1  0  0  0  0
 21 22  1  0  0  0  0
 22  7  1  0  0  0  0
 23  9  1  0  0  0  0
 24  6  1  0  0  0  0
 24 15  1  0  0  0  0
 25 27  1  0  0  0  0
 26 24  2  0  0  0  0
 27 31  1  0  0  0  0
 30 31  1  0  0  0  0
 31 28  1  0  0  0  0
 31 29  1  0  0  0  0
 32 33  1  0  0  0  0
 32 34  1  0  0  0  0
 33 34  1  0  0  0  0
 34  5  1  1  0  0  0
 35 26  1  0  0  0  0
 36 37  1  0  0  0  0
 36 35  1  0  0  0  0
 37 38  1  0  0  0  0
 39 40  1  0  0  0  0
 41 42  1  0  0  0  0
 41 40  1  0  0  0  0
 43 42  1  0  0  0  0
 44 43  1  0  0  0  0
M  END
>  <MODEL>
3

>  <REMARK>
 VINA RESULT:      -6.3      3.499      7.033
  Name = 
  10 active torsions:
  status: ('A' for Active; 'I' for Inactive)
    1  A    between atoms: C_1  and  C_34
    2  A    between atoms: C_7  and  C_39
    3  A    between atoms: O_9  and  C_34
    4  A    between atoms: O_9  and  C_42
    5  A    between atoms: C_11  and  C_20
    6  A    between atoms: C_14  and  C_15
    7  A    between atoms: C_15  and  C_17
    8  A    between atoms: C_17  and  C_19
    9  A    between atoms: C_19  and  C_39
   10  A    between atoms: C_43  and  C_44
                            x       y       z     vdW  Elec       q    Type
                         _______ _______ _______ _____ _____    ______ ____

>  <TORSDO>
F 10

$$$$
=
 OpenBabel11042417063D

 44 48  0  0  1  0  0  0  0  0999 V2000
  194.7320  176.5130  141.4050 C   0  0  0  0  0  2  0  0  0  0  0  0
  194.2580  174.3510  138.2190 C   0  0  0  0  0  3  0  0  0  0  0  0
  194.7040  177.2610  145.5260 O   0  0  0  0  0  0  0  0  0  0  0  0
  194.8660  175.7560  143.7480 N   0  0  0  0  0  2  0  0  0  0  0  0
  193.2060  171.4670  143.9660 C   0  0  0  0  0  0  0  0  0  0  0  0
  193.1620  174.4140  146.1870 C   0  0  0  0  0  2  0  0  0  0  0  0
  190.3320  175.1850  142.0520 C   0  0  1  0  0  3  0  0  0  0  0  0
  190.9300  174.3370  144.1120 C   0  0  0  0  0  2  0  0  0  0  0  0
  194.7140  176.0630  145.1360 C   0  0  0  0  0  0  0  0  0  0  0  0
  195.3210  176.7580  142.7910 C   0  0  1  0  0  3  0  0  0  0  0  0
  194.9870  175.1010  140.8960 C   0  0  1  0  0  3  0  0  0  0  0  0
  196.8390  176.7870  142.7420 C   0  0  0  0  0  1  0  0  0  0  0  0
  191.4960  172.4640  139.9290 C   0  0  0  0  0  2  0  0  0  0  0  0
  191.9410  173.6130  139.0220 C   0  0  0  0  0  2  0  0  0  0  0  0
  191.9420  173.3000  144.2860 N   0  0  0  0  0  0  0  0  0  0  0  0
  191.3170  175.1980  143.0710 O   0  0  0  0  0  0  0  0  0  0  0  0
  191.2460  171.8280  142.3530 C   0  0  0  0  0  2  0  0  0  0  0  0
  192.1000  172.1890  143.5310 C   0  0  0  0  0  0  0  0  0  0  0  0
  193.3230  174.1210  139.3270 C   0  0  0  0  0  0  0  0  0  0  0  0
  193.6650  174.4730  140.5700 C   0  0  0  0  0  3  0  0  0  0  0  0
  191.2660  172.9610  141.3490 C   0  0  2  0  0  3  0  0  0  0  0  0
  190.0050  173.7980  141.4800 C   0  0  0  0  0  2  0  0  0  0  0  0
  194.5800  174.9670  146.1380 C   0  0  0  0  0  2  0  0  0  0  0  0
  192.9590  173.3300  145.1700 C   0  0  0  0  0  0  0  0  0  0  0  0
  195.8740  175.1390  139.7710 O   0  0  0  0  0  0  0  0  0  0  0  0
  193.7550  172.2100  145.0070 C   0  0  0  0  0  0  0  0  0  0  0  0
  195.4760  174.8450  138.4560 C   0  0  0  0  0  0  0  0  0  0  0  0
  196.7590  173.8210  136.7700 F   0  0  0  0  0  0  0  0  0  0  0  0
  195.8590  175.8490  136.3530 F   0  0  0  0  0  0  0  0  0  0  0  0
  197.5890  175.6530  137.7810 F   0  0  0  0  0  0  0  0  0  0  0  0
  196.4340  175.0460  137.3230 C   0  0  0  0  0  0  0  0  0  0  0  0
  193.9850  169.2660  144.3850 O   0  0  0  0  0  0  0  0  0  0  0  0
  192.8380  169.0530  143.6030 C   0  0  0  0  0  2  0  0  0  0  0  0
  193.7440  170.2030  143.3610 C   0  0  1  0  0  3  0  0  0  0  0  0
  194.9060  171.9450  145.7600 O   0  0  0  0  0  0  0  0  0  0  0  0
  196.1900  171.7430  145.1890 C   0  0  0  0  0  2  0  0  0  0  0  0
  197.1760  172.7320  145.7810 C   0  0  0  0  0  2  0  0  0  0  0  0
  197.5530  173.6610  144.8120 O   0  0  0  0  0  1  0  0  0  0  0  0
  189.0640  175.9310  142.4550 C   0  0  0  0  0  2  0  0  0  0  0  0
  189.3760  177.3620  142.8750 C   0  0  0  0  0  2  0  0  0  0  0  0
  188.7500  177.6960  144.2260 C   0  0  0  0  0  2  0  0  0  0  0  0
  189.7240  177.4780  145.3770 C   0  0  0  0  0  2  0  0  0  0  0  0
  188.9880  177.1720  146.6730 C   0  0  0  0  0  2  0  0  0  0  0  0
  188.5910  175.7080  146.7240 C   0  0  0  0  0  1  0  0  0  0  0  0
  1 10  1  0  0  0  0
  2 27  2  0  0  0  0
  2 19  1  0  0  0  0
  4  9  1  0  0  0  0
  5 26  1  0  0  0  0
  7 39  1  1  0  0  0
  7 16  1  0  0  0  0
  8 15  1  0  0  0  0
  9  3  2  0  0  0  0
  9 23  1  0  0  0  0
 10 12  1  6  0  0  0
 10  4  1  0  0  0  0
 11 20  1  6  0  0  0
 11  1  1  0  0  0  0
 14 19  1  0  0  0  0
 14 13  1  0  0  0  0
 15 24  1  0  0  0  0
 16  8  1  0  0  0  0
 17 18  1  0  0  0  0
 18  5  2  0  0  0  0
 18 15  1  0  0  0  0
 19 20  2  0  0  0  0
 21 13  1  6  0  0  0
 21 22  1  0  0  0  0
 21 17  1  0  0  0  0
 22  7  1  0  0  0  0
 23  6  1  0  0  0  0
 24  6  1  0  0  0  0
 25 11  1  0  0  0  0
 26 24  2  0  0  0  0
 26 35  1  0  0  0  0
 27 25  1  0  0  0  0
 28 31  1  0  0  0  0
 29 31  1  0  0  0  0
 31 30  1  0  0  0  0
 31 27  1  0  0  0  0
 33 32  1  0  0  0  0
 34 33  1  0  0  0  0
 34  5  1  1  0  0  0
 34 32  1  0  0  0  0
 36 35  1  0  0  0  0
 36 37  1  0  0  0  0
 38 37  1  0  0  0  0
 39 40  1  0  0  0  0
 40 41  1  0  0  0  0
 41 42  1  0  0  0  0
 42 43  1  0  0  0  0
 43 44  1  0  0  0  0
M  END
>  <MODEL>
4

>  <REMARK>
 VINA RESULT:      -6.1      1.785      2.480
  Name = 
  10 active torsions:
  status: ('A' for Active; 'I' for Inactive)
    1  A    between atoms: C_1  and  C_34
    2  A    between atoms: C_7  and  C_39
    3  A    between atoms: O_9  and  C_34
    4  A    between atoms: O_9  and  C_42
    5  A    between atoms: C_11  and  C_20
    6  A    between atoms: C_14  and  C_15
    7  A    between atoms: C_15  and  C_17
    8  A    between atoms: C_17  and  C_19
    9  A    between atoms: C_19  and  C_39
   10  A    between atoms: C_43  and  C_44
                            x       y       z     vdW  Elec       q    Type
                         _______ _______ _______ _____ _____    ______ ____

>  <TORSDO>
F 10

$$$$
=
 OpenBabel11042417063D

 44 48  0  0  1  0  0  0  0  0999 V2000
  194.7910  172.1190  140.3540 C   0  0  0  0  0  2  0  0  0  0  0  0
  196.7370  175.4270  139.7900 C   0  0  0  0  0  3  0  0  0  0  0  0
  191.8060  169.7070  142.0330 O   0  0  0  0  0  0  0  0  0  0  0  0
  192.5780  171.8180  141.4000 N   0  0  0  0  0  2  0  0  0  0  0  0
  191.5770  175.6400  143.7630 C   0  0  0  0  0  0  0  0  0  0  0  0
  190.9400  172.0330  144.2140 C   0  0  0  0  0  2  0  0  0  0  0  0
  195.8630  173.1140  144.7590 C   0  0  1  0  0  3  0  0  0  0  0  0
  193.6210  173.0080  145.2900 C   0  0  0  0  0  2  0  0  0  0  0  0
  191.6610  170.9570  142.0800 C   0  0  0  0  0  0  0  0  0  0  0  0
  193.5010  171.3050  140.3940 C   0  0  1  0  0  3  0  0  0  0  0  0
  194.5430  173.6100  140.1740 C   0  0  1  0  0  3  0  0  0  0  0  0
  192.8310  171.2770  139.0310 C   0  0  0  0  0  1  0  0  0  0  0  0
  195.9760  176.4580  143.3220 C   0  0  0  0  0  2  0  0  0  0  0  0
  196.9190  175.7910  142.3190 C   0  0  0  0  0  2  0  0  0  0  0  0
  192.6120  173.8610  144.6700 N   0  0  0  0  0  0  0  0  0  0  0  0
  194.5900  172.6590  144.3330 O   0  0  0  0  0  0  0  0  0  0  0  0
  193.9260  176.0190  144.7180 C   0  0  0  0  0  2  0  0  0  0  0  0
  192.7200  175.1840  144.4110 C   0  0  0  0  0  0  0  0  0  0  0  0
  196.2120  175.1830  141.1390 C   0  0  0  0  0  0  0  0  0  0  0  0
  195.1930  174.3350  141.3140 C   0  0  0  0  0  3  0  0  0  0  0  0
  195.1420  175.4140  144.0490 C   0  0  2  0  0  3  0  0  0  0  0  0
  195.9510  174.6170  145.0580 C   0  0  0  0  0  2  0  0  0  0  0  0
  190.5150  171.5320  142.8410 C   0  0  0  0  0  2  0  0  0  0  0  0
  191.4370  173.4470  144.1540 C   0  0  0  0  0  0  0  0  0  0  0  0
  195.0320  174.0360  138.8960 O   0  0  0  0  0  0  0  0  0  0  0  0
  190.7670  174.5200  143.5930 C   0  0  0  0  0  0  0  0  0  0  0  0
  196.1570  174.8620  138.7280 C   0  0  0  0  0  0  0  0  0  0  0  0
  196.9490  173.9470  136.7110 F   0  0  0  0  0  0  0  0  0  0  0  0
  195.7400  175.8510  136.6250 F   0  0  0  0  0  0  0  0  0  0  0  0
  197.8430  175.8840  137.4310 F   0  0  0  0  0  0  0  0  0  0  0  0
  196.6790  175.1420  137.3540 C   0  0  0  0  0  0  0  0  0  0  0  0
  189.9610  177.3410  143.4140 O   0  0  0  0  0  0  0  0  0  0  0  0
  190.8360  177.9220  144.3460 C   0  0  0  0  0  2  0  0  0  0  0  0
  191.3270  177.0330  143.2640 C   0  0  1  0  0  3  0  0  0  0  0  0
  189.5230  174.4280  142.9580 O   0  0  0  0  0  0  0  0  0  0  0  0
  189.3480  174.5200  141.5520 C   0  0  0  0  0  2  0  0  0  0  0  0
  188.1120  175.3410  141.2420 C   0  0  0  0  0  2  0  0  0  0  0  0
  187.2400  175.3120  142.3310 O   0  0  0  0  0  1  0  0  0  0  0  0
  196.4250  172.2850  145.9100 C   0  0  0  0  0  2  0  0  0  0  0  0
  197.2440  171.1090  145.3950 C   0  0  0  0  0  2  0  0  0  0  0  0
  196.9530  169.8360  146.1840 C   0  0  0  0  0  2  0  0  0  0  0  0
  195.4830  169.7270  146.5680 C   0  0  0  0  0  2  0  0  0  0  0  0
  194.7800  168.6440  145.7630 C   0  0  0  0  0  2  0  0  0  0  0  0
  193.7140  169.2550  144.8720 C   0  0  0  0  0  1  0  0  0  0  0  0
  1 10  1  0  0  0  0
  2 19  1  0  0  0  0
  3  9  2  0  0  0  0
  4  9  1  0  0  0  0
  5 18  2  0  0  0  0
  7 22  1  0  0  0  0
  7 39  1  1  0  0  0
  9 23  1  0  0  0  0
 10 12  1  6  0  0  0
 10  4  1  0  0  0  0
 11  1  1  1  0  0  0
 11 20  1  0  0  0  0
 14 13  1  0  0  0  0
 15  8  1  0  0  0  0
 16  7  1  0  0  0  0
 16  8  1  0  0  0  0
 18 15  1  0  0  0  0
 18 17  1  0  0  0  0
 19 20  2  0  0  0  0
 19 14  1  0  0  0  0
 21 13  1  1  0  0  0
 21 17  1  0  0  0  0
 21 22  1  0  0  0  0
 23  6  1  0  0  0  0
 24  6  1  0  0  0  0
 24 15  1  0  0  0  0
 25 11  1  0  0  0  0
 26  5  1  0  0  0  0
 26 24  2  0  0  0  0
 27 25  1  0  0  0  0
 27  2  2  0  0  0  0
 28 31  1  0  0  0  0
 29 31  1  0  0  0  0
 31 30  1  0  0  0  0
 31 27  1  0  0  0  0
 32 33  1  0  0  0  0
 34 32  1  0  0  0  0
 34  5  1  1  0  0  0
 34 33  1  0  0  0  0
 35 26  1  0  0  0  0
 36 35  1  0  0  0  0
 37 36  1  0  0  0  0
 37 38  1  0  0  0  0
 40 39  1  0  0  0  0
 40 41  1  0  0  0  0
 41 42  1  0  0  0  0
 43 42  1  0  0  0  0
 44 43  1  0  0  0  0
M  END
>  <MODEL>
5

>  <REMARK>
 VINA RESULT:      -6.0      2.354      6.586
  Name = 
  10 active torsions:
  status: ('A' for Active; 'I' for Inactive)
    1  A    between atoms: C_1  and  C_34
    2  A    between atoms: C_7  and  C_39
    3  A    between atoms: O_9  and  C_34
    4  A    between atoms: O_9  and  C_42
    5  A    between atoms: C_11  and  C_20
    6  A    between atoms: C_14  and  C_15
    7  A    between atoms: C_15  and  C_17
    8  A    between atoms: C_17  and  C_19
    9  A    between atoms: C_19  and  C_39
   10  A    between atoms: C_43  and  C_44
                            x       y       z     vdW  Elec       q    Type
                         _______ _______ _______ _____ _____    ______ ____

>  <TORSDO>
F 10

$$$$
=
 OpenBabel11042417063D

 44 48  0  0  1  0  0  0  0  0999 V2000
  193.3340  172.5540  139.1040 C   0  0  0  0  0  2  0  0  0  0  0  0
  196.2740  174.7580  140.3460 C   0  0  0  0  0  3  0  0  0  0  0  0
  189.3680  171.2090  139.0160 O   0  0  0  0  0  0  0  0  0  0  0  0
  190.9200  172.8940  139.4710 N   0  0  0  0  0  2  0  0  0  0  0  0
  190.4040  175.8720  142.9440 C   0  0  0  0  0  0  0  0  0  0  0  0
  188.5730  172.9040  141.7390 C   0  0  0  0  0  2  0  0  0  0  0  0
  193.0950  171.6280  143.6460 C   0  0  1  0  0  3  0  0  0  0  0  0
  190.8890  172.3040  143.6300 C   0  0  0  0  0  2  0  0  0  0  0  0
  189.6090  172.3280  139.5420 C   0  0  0  0  0  0  0  0  0  0  0  0
  191.9240  172.3770  138.5490 C   0  0  1  0  0  3  0  0  0  0  0  0
  193.6350  173.9900  139.5060 C   0  0  1  0  0  3  0  0  0  0  0  0
  191.7840  173.0430  137.1910 C   0  0  0  0  0  1  0  0  0  0  0  0
  194.7140  174.8880  143.7610 C   0  0  0  0  0  2  0  0  0  0  0  0
  195.6880  174.2290  142.7820 C   0  0  0  0  0  2  0  0  0  0  0  0
  190.4660  173.6420  143.2270 N   0  0  0  0  0  0  0  0  0  0  0  0
  191.9680  171.8940  142.8270 O   0  0  0  0  0  0  0  0  0  0  0  0
  192.2830  174.9370  144.4160 C   0  0  0  0  0  2  0  0  0  0  0  0
  191.0580  174.8120  143.5610 C   0  0  0  0  0  0  0  0  0  0  0  0
  195.2740  174.3570  141.3420 C   0  0  0  0  0  0  0  0  0  0  0  0
  194.0480  173.9980  140.9470 C   0  0  0  0  0  3  0  0  0  0  0  0
  193.4040  174.1160  143.8140 C   0  0  2  0  0  3  0  0  0  0  0  0
  193.5340  172.7910  144.5460 C   0  0  0  0  0  2  0  0  0  0  0  0
  188.5080  173.0660  140.2270 C   0  0  0  0  0  2  0  0  0  0  0  0
  189.4710  173.9290  142.3640 C   0  0  0  0  0  0  0  0  0  0  0  0
  194.6360  174.5410  138.6400 O   0  0  0  0  0  0  0  0  0  0  0  0
  189.3970  175.2970  142.1720 C   0  0  0  0  0  0  0  0  0  0  0  0
  195.9460  174.8360  139.0530 C   0  0  0  0  0  0  0  0  0  0  0  0
  196.3480  176.0300  137.0660 F   0  0  0  0  0  0  0  0  0  0  0  0
  197.9400  176.0400  138.6660 F   0  0  0  0  0  0  0  0  0  0  0  0
  197.5600  174.1750  137.4620 F   0  0  0  0  0  0  0  0  0  0  0  0
  196.9640  175.2760  138.0490 C   0  0  0  0  0  0  0  0  0  0  0  0
  189.6150  178.0970  143.1840 O   0  0  0  0  0  0  0  0  0  0  0  0
  190.4080  177.9160  144.3290 C   0  0  0  0  0  2  0  0  0  0  0  0
  190.7810  177.3230  143.0220 C   0  0  1  0  0  3  0  0  0  0  0  0
  188.4800  175.9260  141.3220 O   0  0  0  0  0  0  0  0  0  0  0  0
  187.1800  176.3290  141.7260 C   0  0  0  0  0  2  0  0  0  0  0  0
  186.7900  177.6030  141.0010 C   0  0  0  0  0  2  0  0  0  0  0  0
  186.6870  177.3550  139.6320 O   0  0  0  0  0  1  0  0  0  0  0  0
  192.9460  170.3360  144.4430 C   0  0  0  0  0  2  0  0  0  0  0  0
  194.3020  169.6940  144.7090 C   0  0  0  0  0  2  0  0  0  0  0  0
  194.6140  169.6450  146.2020 C   0  0  0  0  0  2  0  0  0  0  0  0
  196.0560  170.0360  146.4980 C   0  0  0  0  0  2  0  0  0  0  0  0
  196.5770  171.0400  145.4790 C   0  0  0  0  0  2  0  0  0  0  0  0
  196.8150  172.3860  146.1390 C   0  0  0  0  0  1  0  0  0  0  0  0
  2 19  1  0  0  0  0
  3  9  2  0  0  0  0
  4  9  1  0  0  0  0
  5 18  2  0  0  0  0
  6 24  1  0  0  0  0
  7 39  1  1  0  0  0
  7 22  1  0  0  0  0
  9 23  1  0  0  0  0
 10 12  1  6  0  0  0
 10  1  1  0  0  0  0
 10  4  1  0  0  0  0
 11  1  1  6  0  0  0
 11 20  1  0  0  0  0
 14 13  1  0  0  0  0
 15 18  1  0  0  0  0
 15  8  1  0  0  0  0
 16  8  1  0  0  0  0
 16  7  1  0  0  0  0
 18 17  1  0  0  0  0
 19 14  1  0  0  0  0
 20 19  2  0  0  0  0
 21 13  1  1  0  0  0
 21 17  1  0  0  0  0
 21 22  1  0  0  0  0
 23  6  1  0  0  0  0
 24 15  1  0  0  0  0
 25 27  1  0  0  0  0
 25 11  1  0  0  0  0
 26 24  2  0  0  0  0
 26  5  1  0  0  0  0
 27  2  2  0  0  0  0
 28 31  1  0  0  0  0
 30 31  1  0  0  0  0
 31 29  1  0  0  0  0
 31 27  1  0  0  0  0
 32 33  1  0  0  0  0
 34  5  1  1  0  0  0
 34 32  1  0  0  0  0
 34 33  1  0  0  0  0
 35 36  1  0  0  0  0
 35 26  1  0  0  0  0
 37 36  1  0  0  0  0
 38 37  1  0  0  0  0
 39 40  1  0  0  0  0
 40 41  1  0  0  0  0
 41 42  1  0  0  0  0
 43 44  1  0  0  0  0
 43 42  1  0  0  0  0
M  END
>  <MODEL>
6

>  <REMARK>
 VINA RESULT:      -5.9      2.702      7.140
  Name = 
  10 active torsions:
  status: ('A' for Active; 'I' for Inactive)
    1  A    between atoms: C_1  and  C_34
    2  A    between atoms: C_7  and  C_39
    3  A    between atoms: O_9  and  C_34
    4  A    between atoms: O_9  and  C_42
    5  A    between atoms: C_11  and  C_20
    6  A    between atoms: C_14  and  C_15
    7  A    between atoms: C_15  and  C_17
    8  A    between atoms: C_17  and  C_19
    9  A    between atoms: C_19  and  C_39
   10  A    between atoms: C_43  and  C_44
                            x       y       z     vdW  Elec       q    Type
                         _______ _______ _______ _____ _____    ______ ____

>  <TORSDO>
F 10

$$$$
=
 OpenBabel11042417063D

 44 48  0  0  1  0  0  0  0  0999 V2000
  192.8630  174.3240  145.8170 C   0  0  0  0  0  2  0  0  0  0  0  0
  189.5740  174.8960  143.8410 C   0  0  0  0  0  3  0  0  0  0  0  0
  196.9480  173.4970  146.2360 O   0  0  0  0  0  0  0  0  0  0  0  0
  195.1710  174.3000  144.9500 N   0  0  0  0  0  2  0  0  0  0  0  0
  194.9810  173.7830  140.3800 C   0  0  0  0  0  0  0  0  0  0  0  0
  197.2590  172.6570  143.0550 C   0  0  0  0  0  2  0  0  0  0  0  0
  192.7490  170.3670  143.3950 C   0  0  1  0  0  3  0  0  0  0  0  0
  194.8510  170.8510  142.5760 C   0  0  0  0  0  2  0  0  0  0  0  0
  196.5260  173.8710  145.1090 C   0  0  0  0  0  0  0  0  0  0  0  0
  194.3330  174.6190  146.1000 C   0  0  1  0  0  3  0  0  0  0  0  0
  192.3570  175.0050  144.5530 C   0  0  1  0  0  3  0  0  0  0  0  0
  194.5300  176.0690  146.5090 C   0  0  0  0  0  1  0  0  0  0  0  0
  190.7560  172.4900  141.2090 C   0  0  0  0  0  2  0  0  0  0  0  0
  189.9700  172.7540  142.4940 C   0  0  0  0  0  2  0  0  0  0  0  0
  195.1520  172.0580  141.8130 N   0  0  0  0  0  0  0  0  0  0  0  0
  193.9140  171.1540  143.5790 O   0  0  0  0  0  0  0  0  0  0  0  0
  193.0860  172.0560  140.3570 C   0  0  0  0  0  2  0  0  0  0  0  0
  194.3970  172.6060  140.8330 C   0  0  0  0  0  0  0  0  0  0  0  0
  190.5090  173.8990  143.3060 C   0  0  0  0  0  0  0  0  0  0  0  0
  191.8020  173.9510  143.6420 C   0  0  0  0  0  3  0  0  0  0  0  0
  192.1350  171.9330  141.5290 C   0  0  2  0  0  3  0  0  0  0  0  0
  192.0880  170.4950  142.0150 C   0  0  0  0  0  2  0  0  0  0  0  0
  197.4570  173.8770  143.9450 C   0  0  0  0  0  2  0  0  0  0  0  0
  196.1890  172.8920  142.0310 C   0  0  0  0  0  0  0  0  0  0  0  0
  191.3910  176.0080  144.8920 O   0  0  0  0  0  0  0  0  0  0  0  0
  196.1210  173.9630  141.1590 C   0  0  0  0  0  0  0  0  0  0  0  0
  190.0200  175.8980  144.6040 C   0  0  0  0  0  0  0  0  0  0  0  0
  188.0280  176.3040  145.7880 F   0  0  0  0  0  0  0  0  0  0  0  0
  189.7150  177.7900  145.9840 F   0  0  0  0  0  0  0  0  0  0  0  0
  188.5430  177.6600  144.0660 F   0  0  0  0  0  0  0  0  0  0  0  0
  189.0640  176.9290  145.1180 C   0  0  0  0  0  0  0  0  0  0  0  0
  195.4620  175.0730  138.4480 O   0  0  0  0  0  0  0  0  0  0  0  0
  194.5370  174.1280  137.9750 C   0  0  0  0  0  2  0  0  0  0  0  0
  194.4300  174.7100  139.3350 C   0  0  1  0  0  3  0  0  0  0  0  0
  197.0390  175.0200  141.1340 O   0  0  0  0  0  0  0  0  0  0  0  0
  196.6720  176.3850  141.2570 C   0  0  0  0  0  2  0  0  0  0  0  0
  195.8440  176.5830  142.5110 C   0  0  0  0  0  2  0  0  0  0  0  0
  196.6260  177.1670  143.5070 O   0  0  0  0  0  1  0  0  0  0  0  0
  192.9670  168.9040  143.7720 C   0  0  0  0  0  2  0  0  0  0  0  0
  193.1190  168.7400  145.2780 C   0  0  0  0  0  2  0  0  0  0  0  0
  194.5600  168.4190  145.6630 C   0  0  0  0  0  2  0  0  0  0  0  0
  194.9990  169.1700  146.9130 C   0  0  0  0  0  2  0  0  0  0  0  0
  196.5140  169.2860  146.9850 C   0  0  0  0  0  2  0  0  0  0  0  0
  197.0470  170.0160  145.7640 C   0  0  0  0  0  1  0  0  0  0  0  0
  1 10  1  0  0  0  0
  2 27  2  0  0  0  0
  4  9  1  0  0  0  0
  4 10  1  0  0  0  0
  5 18  2  0  0  0  0
  5 26  1  0  0  0  0
  6 23  1  0  0  0  0
  7 16  1  0  0  0  0
  7 39  1  6  0  0  0
  8 16  1  0  0  0  0
  9  3  2  0  0  0  0
 10 12  1  6  0  0  0
 11 20  1  6  0  0  0
 11 25  1  0  0  0  0
 11  1  1  0  0  0  0
 13 21  1  0  0  0  0
 13 14  1  0  0  0  0
 14 19  1  0  0  0  0
 15 24  1  0  0  0  0
 15  8  1  0  0  0  0
 17 18  1  0  0  0  0
 18 15  1  0  0  0  0
 19 20  2  0  0  0  0
 19  2  1  0  0  0  0
 21 17  1  6  0  0  0
 21 22  1  0  0  0  0
 22  7  1  0  0  0  0
 23  9  1  0  0  0  0
 24  6  1  0  0  0  0
 26 24  2  0  0  0  0
 27 25  1  0  0  0  0
 27 31  1  0  0  0  0
 30 31  1  0  0  0  0
 31 28  1  0  0  0  0
 31 29  1  0  0  0  0
 32 34  1  0  0  0  0
 33 32  1  0  0  0  0
 33 34  1  0  0  0  0
 34  5  1  1  0  0  0
 35 26  1  0  0  0  0
 35 36  1  0  0  0  0
 36 37  1  0  0  0  0
 37 38  1  0  0  0  0
 39 40  1  0  0  0  0
 40 41  1  0  0  0  0
 41 42  1  0  0  0  0
 42 43  1  0  0  0  0
 44 43  1  0  0  0  0
M  END
>  <MODEL>
7

>  <REMARK>
 VINA RESULT:      -5.9      3.204      6.689
  Name = 
  10 active torsions:
  status: ('A' for Active; 'I' for Inactive)
    1  A    between atoms: C_1  and  C_34
    2  A    between atoms: C_7  and  C_39
    3  A    between atoms: O_9  and  C_34
    4  A    between atoms: O_9  and  C_42
    5  A    between atoms: C_11  and  C_20
    6  A    between atoms: C_14  and  C_15
    7  A    between atoms: C_15  and  C_17
    8  A    between atoms: C_17  and  C_19
    9  A    between atoms: C_19  and  C_39
   10  A    between atoms: C_43  and  C_44
                            x       y       z     vdW  Elec       q    Type
                         _______ _______ _______ _____ _____    ______ ____

>  <TORSDO>
F 10

$$$$
=
 OpenBabel11042417063D

 44 48  0  0  1  0  0  0  0  0999 V2000
  194.5870  172.8390  143.7890 C   0  0  0  0  0  2  0  0  0  0  0  0
  194.4390  176.5870  142.8020 C   0  0  0  0  0  3  0  0  0  0  0  0
  193.3480  168.8380  143.7090 O   0  0  0  0  0  0  0  0  0  0  0  0
  193.4800  170.9320  142.6840 N   0  0  0  0  0  2  0  0  0  0  0  0
  190.1460  172.5850  139.9740 C   0  0  0  0  0  0  0  0  0  0  0  0
  190.5820  169.5690  142.0540 C   0  0  0  0  0  2  0  0  0  0  0  0
  190.1740  173.7340  144.9160 C   0  0  1  0  0  3  0  0  0  0  0  0
  189.5100  172.0070  143.5370 C   0  0  0  0  0  2  0  0  0  0  0  0
  192.9710  169.5990  142.7790 C   0  0  0  0  0  0  0  0  0  0  0  0
  194.6540  171.3550  143.4390 C   0  0  1  0  0  3  0  0  0  0  0  0
  194.3590  173.7230  142.5720 C   0  0  1  0  0  3  0  0  0  0  0  0
  195.9210  171.0340  142.6650 C   0  0  0  0  0  1  0  0  0  0  0  0
  190.7120  176.3210  142.4100 C   0  0  0  0  0  2  0  0  0  0  0  0
  191.9240  176.6510  143.2830 C   0  0  0  0  0  2  0  0  0  0  0  0
  189.8090  171.9650  142.1090 N   0  0  0  0  0  0  0  0  0  0  0  0
  190.5990  172.5710  144.2260 O   0  0  0  0  0  0  0  0  0  0  0  0
  189.3160  174.3900  141.5950 C   0  0  0  0  0  2  0  0  0  0  0  0
  189.7290  172.9940  141.2360 C   0  0  0  0  0  0  0  0  0  0  0  0
  193.1600  175.8760  142.9160 C   0  0  0  0  0  0  0  0  0  0  0  0
  193.1270  174.5440  142.8110 C   0  0  0  0  0  3  0  0  0  0  0  0
  190.2120  174.9130  142.6970 C   0  0  2  0  0  3  0  0  0  0  0  0
  189.5080  174.8040  144.0390 C   0  0  0  0  0  2  0  0  0  0  0  0
  192.0000  169.0920  141.7670 C   0  0  0  0  0  2  0  0  0  0  0  0
  190.3190  170.9110  141.4400 C   0  0  0  0  0  0  0  0  0  0  0  0
  195.5200  174.5270  142.3280 O   0  0  0  0  0  0  0  0  0  0  0  0
  190.5310  171.2550  140.1170 C   0  0  0  0  0  0  0  0  0  0  0  0
  195.5600  175.9180  142.5230 C   0  0  0  0  0  0  0  0  0  0  0  0
  196.7920  177.4840  141.2720 F   0  0  0  0  0  0  0  0  0  0  0  0
  197.0960  177.4170  143.5070 F   0  0  0  0  0  0  0  0  0  0  0  0
  197.8950  175.7600  142.2090 F   0  0  0  0  0  0  0  0  0  0  0  0
  196.8550  176.6550  142.3770 C   0  0  0  0  0  0  0  0  0  0  0  0
  189.6950  172.7490  137.6500 O   0  0  0  0  0  0  0  0  0  0  0  0
  188.9130  173.7790  138.1980 C   0  0  0  0  0  2  0  0  0  0  0  0
  190.2500  173.4400  138.7450 C   0  0  1  0  0  3  0  0  0  0  0  0
  191.0680  170.3910  139.1540 O   0  0  0  0  0  0  0  0  0  0  0  0
  192.1880  170.7130  138.3440 C   0  0  0  0  0  2  0  0  0  0  0  0
  193.3620  171.1000  139.2230 C   0  0  0  0  0  2  0  0  0  0  0  0
  193.6930  172.4370  139.0080 O   0  0  0  0  0  1  0  0  0  0  0  0
  189.3210  173.4100  146.1390 C   0  0  0  0  0  2  0  0  0  0  0  0
  189.2360  174.6020  147.0830 C   0  0  0  0  0  2  0  0  0  0  0  0
  190.6120  174.9890  147.6180 C   0  0  0  0  0  2  0  0  0  0  0  0
  191.0400  176.3720  147.1470 C   0  0  0  0  0  2  0  0  0  0  0  0
  192.5300  176.4170  146.8440 C   0  0  0  0  0  2  0  0  0  0  0  0
  193.0440  175.0280  146.5120 C   0  0  0  0  0  1  0  0  0  0  0  0
  2 19  1  0  0  0  0
  4  9  1  0  0  0  0
  4 10  1  0  0  0  0
  5 26  1  0  0  0  0
  5 18  2  0  0  0  0
  7 39  1  1  0  0  0
  8 16  1  0  0  0  0
  9  3  2  0  0  0  0
 10 12  1  6  0  0  0
 10  1  1  0  0  0  0
 11 20  1  1  0  0  0
 11  1  1  0  0  0  0
 13 21  1  0  0  0  0
 13 14  1  0  0  0  0
 15  8  1  0  0  0  0
 16  7  1  0  0  0  0
 18 17  1  0  0  0  0
 18 15  1  0  0  0  0
 19 14  1  0  0  0  0
 20 19  2  0  0  0  0
 21 17  1  6  0  0  0
 21 22  1  0  0  0  0
 22  7  1  0  0  0  0
 23  6  1  0  0  0  0
 23  9  1  0  0  0  0
 24  6  1  0  0  0  0
 24 15  1  0  0  0  0
 25 27  1  0  0  0  0
 25 11  1  0  0  0  0
 26 24  2  0  0  0  0
 27  2  2  0  0  0  0
 28 31  1  0  0  0  0
 30 31  1  0  0  0  0
 31 27  1  0  0  0  0
 31 29  1  0  0  0  0
 32 33  1  0  0  0  0
 32 34  1  0  0  0  0
 33 34  1  0  0  0  0
 34  5  1  1  0  0  0
 35 26  1  0  0  0  0
 36 35  1  0  0  0  0
 36 37  1  0  0  0  0
 38 37  1  0  0  0  0
 39 40  1  0  0  0  0
 40 41  1  0  0  0  0
 42 41  1  0  0  0  0
 43 42  1  0  0  0  0
 44 43  1  0  0  0  0
M  END
>  <MODEL>
8

>  <REMARK>
 VINA RESULT:      -5.9      3.101      5.898
  Name = 
  10 active torsions:
  status: ('A' for Active; 'I' for Inactive)
    1  A    between atoms: C_1  and  C_34
    2  A    between atoms: C_7  and  C_39
    3  A    between atoms: O_9  and  C_34
    4  A    between atoms: O_9  and  C_42
    5  A    between atoms: C_11  and  C_20
    6  A    between atoms: C_14  and  C_15
    7  A    between atoms: C_15  and  C_17
    8  A    between atoms: C_17  and  C_19
    9  A    between atoms: C_19  and  C_39
   10  A    between atoms: C_43  and  C_44
                            x       y       z     vdW  Elec       q    Type
                         _______ _______ _______ _____ _____    ______ ____

>  <TORSDO>
F 10

$$$$
=
 OpenBabel11042417063D

 44 48  0  0  1  0  0  0  0  0999 V2000
  194.1880  172.3240  139.9450 C   0  0  0  0  0  2  0  0  0  0  0  0
  196.6010  175.3600  139.8700 C   0  0  0  0  0  3  0  0  0  0  0  0
  190.7320  170.2450  141.0780 O   0  0  0  0  0  0  0  0  0  0  0  0
  191.8430  172.2650  140.7050 N   0  0  0  0  0  2  0  0  0  0  0  0
  191.0630  176.0320  143.2350 C   0  0  0  0  0  0  0  0  0  0  0  0
  189.9130  172.5270  143.3240 C   0  0  0  0  0  2  0  0  0  0  0  0
  194.8300  172.8800  144.5070 C   0  0  1  0  0  3  0  0  0  0  0  0
  192.5450  173.0510  144.7710 C   0  0  0  0  0  2  0  0  0  0  0  0
  190.7450  171.4990  141.2070 C   0  0  0  0  0  0  0  0  0  0  0  0
  192.8080  171.6950  139.7730 C   0  0  1  0  0  3  0  0  0  0  0  0
  194.1590  173.8430  139.8570 C   0  0  1  0  0  3  0  0  0  0  0  0
  192.3130  171.8460  138.3450 C   0  0  0  0  0  1  0  0  0  0  0  0
  195.5510  176.2610  143.3630 C   0  0  0  0  0  2  0  0  0  0  0  0
  196.5160  175.5350  142.4230 C   0  0  0  0  0  2  0  0  0  0  0  0
  191.7380  174.0730  144.1100 N   0  0  0  0  0  0  0  0  0  0  0  0
  193.5700  172.6330  143.9050 O   0  0  0  0  0  0  0  0  0  0  0  0
  193.3060  176.0220  144.4780 C   0  0  0  0  0  2  0  0  0  0  0  0
  192.0480  175.3820  143.9710 C   0  0  0  0  0  0  0  0  0  0  0  0
  195.8860  175.1060  141.1270 C   0  0  0  0  0  0  0  0  0  0  0  0
  194.7530  174.3980  141.1170 C   0  0  0  0  0  3  0  0  0  0  0  0
  194.5060  175.2980  143.9050 C   0  0  2  0  0  3  0  0  0  0  0  0
  195.0740  174.3340  144.9340 C   0  0  0  0  0  2  0  0  0  0  0  0
  189.5980  172.1770  141.8760 C   0  0  0  0  0  2  0  0  0  0  0  0
  190.5930  173.8590  143.4330 C   0  0  0  0  0  0  0  0  0  0  0  0
  194.8530  174.2770  138.6800 O   0  0  0  0  0  0  0  0  0  0  0  0
  190.1420  175.0470  142.8870 C   0  0  0  0  0  0  0  0  0  0  0  0
  196.0870  174.9490  138.7070 C   0  0  0  0  0  0  0  0  0  0  0  0
  197.1770  174.0520  136.8250 F   0  0  0  0  0  0  0  0  0  0  0  0
  195.9820  175.9490  136.5710 F   0  0  0  0  0  0  0  0  0  0  0  0
  197.9410  175.9890  137.6800 F   0  0  0  0  0  0  0  0  0  0  0  0
  196.8060  175.2400  137.4270 C   0  0  0  0  0  0  0  0  0  0  0  0
  189.7560  177.9930  142.9640 O   0  0  0  0  0  0  0  0  0  0  0  0
  190.6840  178.3650  143.9500 C   0  0  0  0  0  2  0  0  0  0  0  0
  191.0590  177.4750  142.8240 C   0  0  1  0  0  3  0  0  0  0  0  0
  188.9840  175.1680  142.1090 O   0  0  0  0  0  0  0  0  0  0  0  0
  187.6760  175.2600  142.6530 C   0  0  0  0  0  2  0  0  0  0  0  0
  186.9120  176.3760  141.9690 C   0  0  0  0  0  2  0  0  0  0  0  0
  185.8950  176.8350  142.8050 O   0  0  0  0  0  1  0  0  0  0  0  0
  195.1330  171.9110  145.6460 C   0  0  0  0  0  2  0  0  0  0  0  0
  196.5670  172.0680  146.1360 C   0  0  0  0  0  2  0  0  0  0  0  0
  197.5700  171.8630  145.0040 C   0  0  0  0  0  2  0  0  0  0  0  0
  197.5180  170.4470  144.4450 C   0  0  0  0  0  2  0  0  0  0  0  0
  197.9400  170.4150  142.9830 C   0  0  0  0  0  2  0  0  0  0  0  0
  197.3770  171.6150  142.2430 C   0  0  0  0  0  1  0  0  0  0  0  0
  2 19  1  0  0  0  0
  3  9  2  0  0  0  0
  4  9  1  0  0  0  0
  5 18  2  0  0  0  0
  6 24  1  0  0  0  0
  7 22  1  0  0  0  0
  7 39  1  1  0  0  0
  9 23  1  0  0  0  0
 10 12  1  6  0  0  0
 10  1  1  0  0  0  0
 10  4  1  0  0  0  0
 11  1  1  1  0  0  0
 11 20  1  0  0  0  0
 14 13  1  0  0  0  0
 15  8  1  0  0  0  0
 16  7  1  0  0  0  0
 16  8  1  0  0  0  0
 18 15  1  0  0  0  0
 18 17  1  0  0  0  0
 19 14  1  0  0  0  0
 20 19  2  0  0  0  0
 21 13  1  1  0  0  0
 21 17  1  0  0  0  0
 21 22  1  0  0  0  0
 23  6  1  0  0  0  0
 24 15  1  0  0  0  0
 25 27  1  0  0  0  0
 25 11  1  0  0  0  0
 26  5  1  0  0  0  0
 26 24  2  0  0  0  0
 27  2  2  0  0  0  0
 28 31  1  0  0  0  0
 29 31  1  0  0  0  0
 31 30  1  0  0  0  0
 31 27  1  0  0  0  0
 32 33  1  0  0  0  0
 34 32  1  0  0  0  0
 34  5  1  1  0  0  0
 34 33  1  0  0  0  0
 35 36  1  0  0  0  0
 35 26  1  0  0  0  0
 37 36  1  0  0  0  0
 37 38  1  0  0  0  0
 39 40  1  0  0  0  0
 41 40  1  0  0  0  0
 42 41  1  0  0  0  0
 43 42  1  0  0  0  0
 44 43  1  0  0  0  0
M  END
>  <MODEL>
9

>  <REMARK>
 VINA RESULT:      -5.9      2.555      6.989
  Name = 
  10 active torsions:
  status: ('A' for Active; 'I' for Inactive)
    1  A    between atoms: C_1  and  C_34
    2  A    between atoms: C_7  and  C_39
    3  A    between atoms: O_9  and  C_34
    4  A    between atoms: O_9  and  C_42
    5  A    between atoms: C_11  and  C_20
    6  A    between atoms: C_14  and  C_15
    7  A    between atoms: C_15  and  C_17
    8  A    between atoms: C_17  and  C_19
    9  A    between atoms: C_19  and  C_39
   10  A    between atoms: C_43  and  C_44
                            x       y       z     vdW  Elec       q    Type
                         _______ _______ _______ _____ _____    ______ ____

>  <TORSDO>
F 10

$$$$
