=
 OpenBabel11042417473D

 25 28  0  0  1  0  0  0  0  0999 V2000
  186.0600  177.9480  141.8030 C   0  0  0  0  0  0  0  0  0  0  0  0
  183.6430  178.2880  142.0900 C   0  0  0  0  0  0  0  0  0  0  0  0
  186.2200  178.0890  143.1840 C   0  0  0  0  0  3  0  0  0  0  0  0
  184.7550  178.0470  141.2470 C   0  0  0  0  0  0  0  0  0  0  0  0
  185.1280  178.3260  144.0230 C   0  0  0  0  0  0  0  0  0  0  0  0
  184.5630  177.9040  139.8760 O   0  0  0  0  0  1  0  0  0  0  0  0
  183.8510  178.4230  143.4680 C   0  0  0  0  0  3  0  0  0  0  0  0
  186.8460  178.8810  148.4620 O   0  0  0  0  0  0  0  0  0  0  0  0
  184.2210  178.4590  146.4090 N   0  0  0  0  0  0  0  0  0  0  0  0
  186.0760  178.7240  147.4810 C   0  0  0  0  0  0  0  0  0  0  0  0
  186.4820  178.6340  146.0900 C   0  0  0  0  0  3  0  0  0  0  0  0
  184.6700  178.6060  147.5870 N   0  0  0  0  0  0  0  0  0  0  0  0
  185.3070  178.4730  145.4780 C   0  0  0  0  0  0  0  0  0  0  0  0
  187.3360  177.7070  141.0270 C   0  0  2  0  0  3  0  0  0  0  0  0
  188.2190  176.7150  141.7070 N   0  0  0  0  0  0  0  0  0  0  0  0
  189.7300  175.1550  142.8700 N   0  0  0  0  0  1  0  0  0  0  0  0
  188.5530  175.3920  142.1080 C   0  0  0  0  0  0  0  0  0  0  0  0
  188.4680  178.1890  141.6550 C   0  0  0  0  0  2  0  0  0  0  0  0
  187.8050  174.4310  141.7930 O   0  0  0  0  0  0  0  0  0  0  0  0
  180.4490  178.1650  140.1420 N   0  0  0  0  0  0  0  0  0  0  0  0
  179.8810  178.8480  141.1560 C   0  0  0  0  0  0  0  0  0  0  0  0
  180.9840  179.1740  142.3770 S   0  0  0  0  0  0  0  0  0  0  0  0
  181.7670  177.9150  140.3660 C   0  0  0  0  0  3  0  0  0  0  0  0
  178.1980  179.3280  141.1810 Cl  0  0  0  0  0  0  0  0  0  0  0  0
  182.2560  178.4060  141.5760 C   0  0  0  0  0  0  0  0  0  0  0  0
  1  3  1  0  0  0  0
  2  7  2  0  0  0  0
  3  5  2  0  0  0  0
  4  1  2  0  0  0  0
  4  2  1  0  0  0  0
  5 13  1  0  0  0  0
  6  4  1  0  0  0  0
  7  5  1  0  0  0  0
  9 12  2  0  0  0  0
 10 12  1  0  0  0  0
 10  8  2  0  0  0  0
 11 10  1  0  0  0  0
 13 11  2  0  0  0  0
 13  9  1  0  0  0  0
 14 18  1  0  0  0  0
 14 15  1  0  0  0  0
 14  1  1  1  0  0  0
 15 17  1  0  0  0  0
 17 16  1  0  0  0  0
 18 15  1  0  0  0  0
 19 17  2  0  0  0  0
 20 23  1  0  0  0  0
 20 21  2  0  0  0  0
 21 24  1  0  0  0  0
 21 22  1  0  0  0  0
 23 25  2  0  0  0  0
 25  2  1  0  0  0  0
 25 22  1  0  0  0  0
M  END
>  <MODEL>
1

>  <REMARK>
 VINA RESULT:      -7.3      0.000      0.000
  Name = 
  3 active torsions:
  status: ('A' for Active; 'I' for Inactive)
    1  A    between atoms: C_3  and  C_4
    2  A    between atoms: C_6  and  C_21
    3  A    between atoms: C_17  and  C_23
                            x       y       z     vdW  Elec       q    Type
                         _______ _______ _______ _____ _____    ______ ____

>  <TORSDO>
F 3

$$$$
=
 OpenBabel11042417473D

 25 28  0  0  1  0  0  0  0  0999 V2000
  188.4880  175.7480  145.1420 C   0  0  0  0  0  0  0  0  0  0  0  0
  189.4340  174.4200  143.3040 C   0  0  0  0  0  0  0  0  0  0  0  0
  187.6840  176.4160  144.2140 C   0  0  0  0  0  3  0  0  0  0  0  0
  189.3740  174.7360  144.6840 C   0  0  0  0  0  0  0  0  0  0  0  0
  187.7360  176.1090  142.8520 C   0  0  0  0  0  0  0  0  0  0  0  0
  190.1830  174.0480  145.5840 O   0  0  0  0  0  1  0  0  0  0  0  0
  188.6100  175.1150  142.4110 C   0  0  0  0  0  3  0  0  0  0  0  0
  184.2950  178.6080  140.6430 O   0  0  0  0  0  0  0  0  0  0  0  0
  187.2030  176.9320  140.4910 N   0  0  0  0  0  0  0  0  0  0  0  0
  185.3370  177.9450  140.8810 C   0  0  0  0  0  0  0  0  0  0  0  0
  185.7360  177.4300  142.1780 C   0  0  0  0  0  2  0  0  0  0  0  0
  186.2950  177.5940  139.9010 N   0  0  0  0  0  2  0  0  0  0  0  0
  186.8840  176.8190  141.8820 C   0  0  0  0  0  0  0  0  0  0  0  0
  188.3270  176.1990  146.5780 C   0  0  2  0  0  3  0  0  0  0  0  0
  187.2400  177.2100  146.7220 N   0  0  0  0  0  0  0  0  0  0  0  0
  185.5180  178.9570  146.9560 N   0  0  0  0  0  1  0  0  0  0  0  0
  185.8710  177.5950  146.7490 C   0  0  0  0  0  0  0  0  0  0  0  0
  188.7040  177.5090  146.7950 C   0  0  0  0  0  2  0  0  0  0  0  0
  184.9720  176.7310  146.5860 O   0  0  0  0  0  0  0  0  0  0  0  0
  192.2470  172.4270  141.8460 N   0  0  0  0  0  0  0  0  0  0  0  0
  191.4440  171.3480  141.9390 C   0  0  0  0  0  0  0  0  0  0  0  0
  189.9480  171.7440  142.5850 S   0  0  0  0  0  0  0  0  0  0  0  0
  191.6420  173.5580  142.2980 C   0  0  0  0  0  3  0  0  0  0  0  0
  191.9190  169.7380  141.4420 Cl  0  0  0  0  0  0  0  0  0  0  0  0
  190.3380  173.3780  142.7570 C   0  0  0  0  0  0  0  0  0  0  0  0
  2  4  2  0  0  0  0
  3  1  2  0  0  0  0
  4  1  1  0  0  0  0
  4  6  1  0  0  0  0
  5  3  1  0  0  0  0
  7  5  2  0  0  0  0
  7  2  1  0  0  0  0
  8 10  2  0  0  0  0
  9 13  2  0  0  0  0
 10 11  1  0  0  0  0
 12  9  1  0  0  0  0
 12 10  1  0  0  0  0
 13 11  1  0  0  0  0
 13  5  1  0  0  0  0
 14  1  1  6  0  0  0
 14 15  1  0  0  0  0
 14 18  1  0  0  0  0
 15 17  1  0  0  0  0
 15 18  1  0  0  0  0
 17 16  1  0  0  0  0
 19 17  2  0  0  0  0
 20 21  2  0  0  0  0
 20 23  1  0  0  0  0
 21 22  1  0  0  0  0
 22 25  1  0  0  0  0
 23 25  2  0  0  0  0
 24 21  1  0  0  0  0
 25  2  1  0  0  0  0
M  END
>  <MODEL>
2

>  <REMARK>
 VINA RESULT:      -7.0      4.853      8.260
  Name = 
  3 active torsions:
  status: ('A' for Active; 'I' for Inactive)
    1  A    between atoms: C_3  and  C_4
    2  A    between atoms: C_6  and  C_21
    3  A    between atoms: C_17  and  C_23
                            x       y       z     vdW  Elec       q    Type
                         _______ _______ _______ _____ _____    ______ ____

>  <TORSDO>
F 3

$$$$
=
 OpenBabel11042417473D

 25 28  0  0  1  0  0  0  0  0999 V2000
  188.6640  177.2230  146.4540 C   0  0  0  0  0  0  0  0  0  0  0  0
  190.8060  176.6400  145.4000 C   0  0  0  0  0  0  0  0  0  0  0  0
  188.0680  177.2170  145.1900 C   0  0  0  0  0  3  0  0  0  0  0  0
  190.0510  176.9300  146.5630 C   0  0  0  0  0  0  0  0  0  0  0  0
  188.8050  176.9300  144.0390 C   0  0  0  0  0  0  0  0  0  0  0  0
  190.6720  176.9230  147.8080 O   0  0  0  0  0  1  0  0  0  0  0  0
  190.1660  176.6450  144.1550 C   0  0  0  0  0  3  0  0  0  0  0  0
  186.2900  177.9410  140.0870 O   0  0  0  0  0  0  0  0  0  0  0  0
  188.3390  175.8700  141.7590 N   0  0  0  0  0  0  0  0  0  0  0  0
  187.0350  177.3760  140.9270 C   0  0  0  0  0  0  0  0  0  0  0  0
  187.3660  177.8860  142.2460 C   0  0  0  0  0  2  0  0  0  0  0  0
  187.6750  176.1330  140.7100 N   0  0  0  0  0  2  0  0  0  0  0  0
  188.1660  176.9250  142.7110 C   0  0  0  0  0  0  0  0  0  0  0  0
  187.7390  177.5630  147.6020 C   0  0  2  0  0  3  0  0  0  0  0  0
  186.3740  177.9260  147.1240 N   0  0  0  0  0  0  0  0  0  0  0  0
  184.1450  178.6270  146.3420 N   0  0  0  0  0  1  0  0  0  0  0  0
  185.1030  177.6030  146.5740 C   0  0  0  0  0  0  0  0  0  0  0  0
  187.3820  178.8960  147.6540 C   0  0  0  0  0  2  0  0  0  0  0  0
  184.8270  176.4090  146.2880 O   0  0  0  0  0  0  0  0  0  0  0  0
  194.5420  176.6120  145.1620 N   0  0  0  0  0  0  0  0  0  0  0  0
  194.5020  175.3810  145.7100 C   0  0  0  0  0  0  0  0  0  0  0  0
  192.9280  174.8970  146.0300 S   0  0  0  0  0  0  0  0  0  0  0  0
  193.3000  177.1470  145.0090 C   0  0  0  0  0  3  0  0  0  0  0  0
  195.9260  174.4180  146.0390 Cl  0  0  0  0  0  0  0  0  0  0  0  0
  192.2560  176.3290  145.4410 C   0  0  0  0  0  0  0  0  0  0  0  0
  1  4  1  0  0  0  0
  2 25  1  0  0  0  0
  2  4  2  0  0  0  0
  3  1  2  0  0  0  0
  4  6  1  0  0  0  0
  5  7  2  0  0  0  0
  5  3  1  0  0  0  0
  7  2  1  0  0  0  0
  8 10  2  0  0  0  0
  9 13  2  0  0  0  0
 10 11  1  0  0  0  0
 11 13  1  0  0  0  0
 12 10  1  0  0  0  0
 12  9  1  0  0  0  0
 13  5  1  0  0  0  0
 14  1  1  6  0  0  0
 14 18  1  0  0  0  0
 15 14  1  0  0  0  0
 15 18  1  0  0  0  0
 16 17  1  0  0  0  0
 17 15  1  0  0  0  0
 19 17  2  0  0  0  0
 20 21  2  0  0  0  0
 21 22  1  0  0  0  0
 21 24  1  0  0  0  0
 23 20  1  0  0  0  0
 23 25  2  0  0  0  0
 25 22  1  0  0  0  0
M  END
>  <MODEL>
3

>  <REMARK>
 VINA RESULT:      -7.0      5.623      9.171
  Name = 
  3 active torsions:
  status: ('A' for Active; 'I' for Inactive)
    1  A    between atoms: C_3  and  C_4
    2  A    between atoms: C_6  and  C_21
    3  A    between atoms: C_17  and  C_23
                            x       y       z     vdW  Elec       q    Type
                         _______ _______ _______ _____ _____    ______ ____

>  <TORSDO>
F 3

$$$$
=
 OpenBabel11042417473D

 25 28  0  0  1  0  0  0  0  0999 V2000
  187.3830  177.1330  141.7730 C   0  0  0  0  0  0  0  0  0  0  0  0
  188.5440  175.8870  143.5440 C   0  0  0  0  0  0  0  0  0  0  0  0
  187.6750  176.0950  140.8840 C   0  0  0  0  0  3  0  0  0  0  0  0
  187.8210  177.0290  143.1210 C   0  0  0  0  0  0  0  0  0  0  0  0
  188.3860  174.9640  141.2940 C   0  0  0  0  0  0  0  0  0  0  0  0
  187.5400  178.0430  144.0320 O   0  0  0  0  0  1  0  0  0  0  0  0
  188.8140  174.8710  142.6180 C   0  0  0  0  0  3  0  0  0  0  0  0
  189.9470  170.9780  139.1410 O   0  0  0  0  0  0  0  0  0  0  0  0
  188.2260  173.8590  138.9940 N   0  0  0  0  0  0  0  0  0  0  0  0
  189.3890  172.0800  139.3730 C   0  0  0  0  0  0  0  0  0  0  0  0
  189.4160  172.7940  140.6370 C   0  0  0  0  0  3  0  0  0  0  0  0
  188.6360  172.8050  138.4190 N   0  0  0  0  0  0  0  0  0  0  0  0
  188.6890  173.8750  140.3480 C   0  0  0  0  0  0  0  0  0  0  0  0
  186.6170  178.2950  141.1790 C   0  0  2  0  0  3  0  0  0  0  0  0
  185.1530  178.1850  141.4440 N   0  0  0  0  0  0  0  0  0  0  0  0
  182.7230  177.9640  141.7870 N   0  0  0  0  0  1  0  0  0  0  0  0
  184.0180  178.2480  142.3000 C   0  0  0  0  0  0  0  0  0  0  0  0
  185.8040  177.9420  140.1200 C   0  0  0  0  0  2  0  0  0  0  0  0
  184.1610  178.5500  143.5130 O   0  0  0  0  0  0  0  0  0  0  0  0
  188.9670  175.4450  147.2370 N   0  0  0  0  0  0  0  0  0  0  0  0
  190.2970  175.4520  147.0190 C   0  0  0  0  0  0  0  0  0  0  0  0
  190.6570  175.6380  145.3920 S   0  0  0  0  0  0  0  0  0  0  0  0
  188.2570  175.5910  146.0860 C   0  0  0  0  0  3  0  0  0  0  0  0
  191.4900  175.2850  148.2900 Cl  0  0  0  0  0  0  0  0  0  0  0  0
  189.0340  175.7150  144.9340 C   0  0  0  0  0  0  0  0  0  0  0  0
  1  4  1  0  0  0  0
  2 25  1  0  0  0  0
  3  5  1  0  0  0  0
  3  1  2  0  0  0  0
  4  2  2  0  0  0  0
  4  6  1  0  0  0  0
  5  7  2  0  0  0  0
  7  2  1  0  0  0  0
  8 10  2  0  0  0  0
  9 13  1  0  0  0  0
 10 11  1  0  0  0  0
 12  9  2  0  0  0  0
 12 10  1  0  0  0  0
 13 11  2  0  0  0  0
 13  5  1  0  0  0  0
 14 15  1  0  0  0  0
 14  1  1  1  0  0  0
 15 17  1  0  0  0  0
 16 17  1  0  0  0  0
 17 19  2  0  0  0  0
 18 14  1  0  0  0  0
 18 15  1  0  0  0  0
 21 20  2  0  0  0  0
 21 24  1  0  0  0  0
 22 21  1  0  0  0  0
 23 20  1  0  0  0  0
 25 22  1  0  0  0  0
 25 23  2  0  0  0  0
M  END
>  <MODEL>
4

>  <REMARK>
 VINA RESULT:      -6.8      4.859      8.295
  Name = 
  3 active torsions:
  status: ('A' for Active; 'I' for Inactive)
    1  A    between atoms: C_3  and  C_4
    2  A    between atoms: C_6  and  C_21
    3  A    between atoms: C_17  and  C_23
                            x       y       z     vdW  Elec       q    Type
                         _______ _______ _______ _____ _____    ______ ____

>  <TORSDO>
F 3

$$$$
=
 OpenBabel11042417473D

 25 28  0  0  1  0  0  0  0  0999 V2000
  187.5960  177.4000  142.6130 C   0  0  0  0  0  0  0  0  0  0  0  0
  188.7240  175.2880  142.0650 C   0  0  0  0  0  0  0  0  0  0  0  0
  188.1350  177.3280  143.8990 C   0  0  0  0  0  3  0  0  0  0  0  0
  187.8930  176.3690  141.6810 C   0  0  0  0  0  0  0  0  0  0  0  0
  188.9570  176.2660  144.2850 C   0  0  0  0  0  0  0  0  0  0  0  0
  187.3760  176.4160  140.3900 O   0  0  0  0  0  1  0  0  0  0  0  0
  189.2430  175.2570  143.3650 C   0  0  0  0  0  3  0  0  0  0  0  0
  191.1910  177.1210  148.4380 O   0  0  0  0  0  0  0  0  0  0  0  0
  189.3580  175.0700  146.5090 N   0  0  0  0  0  0  0  0  0  0  0  0
  190.5260  176.5790  147.5180 C   0  0  0  0  0  0  0  0  0  0  0  0
  190.2390  177.1650  146.2210 C   0  0  0  0  0  3  0  0  0  0  0  0
  189.9470  175.2910  147.6110 N   0  0  0  0  0  0  0  0  0  0  0  0
  189.5220  176.1990  145.6450 C   0  0  0  0  0  0  0  0  0  0  0  0
  186.7170  178.6040  142.3490 C   0  0  2  0  0  3  0  0  0  0  0  0
  185.6310  178.7290  143.3630 N   0  0  0  0  0  0  0  0  0  0  0  0
  183.7730  178.8890  144.9740 N   0  0  0  0  0  1  0  0  0  0  0  0
  185.1540  179.0280  144.6700 C   0  0  0  0  0  0  0  0  0  0  0  0
  185.4350  178.2790  141.9510 C   0  0  0  0  0  2  0  0  0  0  0  0
  185.9580  179.4120  145.5590 O   0  0  0  0  0  0  0  0  0  0  0  0
  188.7820  172.3490  139.7470 N   0  0  0  0  0  0  0  0  0  0  0  0
  190.1200  172.5030  139.6910 C   0  0  0  0  0  0  0  0  0  0  0  0
  190.6350  173.7900  140.6340 S   0  0  0  0  0  0  0  0  0  0  0  0
  188.1920  173.2730  140.5520 C   0  0  0  0  0  3  0  0  0  0  0  0
  191.1760  171.4770  138.7450 Cl  0  0  0  0  0  0  0  0  0  0  0  0
  189.0730  174.1770  141.1450 C   0  0  0  0  0  0  0  0  0  0  0  0
  1  3  1  0  0  0  0
  2  7  2  0  0  0  0
  3  5  2  0  0  0  0
  4  2  1  0  0  0  0
  4  1  2  0  0  0  0
  5 13  1  0  0  0  0
  6  4  1  0  0  0  0
  7  5  1  0  0  0  0
  9 12  2  0  0  0  0
 10 12  1  0  0  0  0
 10  8  2  0  0  0  0
 11 10  1  0  0  0  0
 13 11  2  0  0  0  0
 13  9  1  0  0  0  0
 14  1  1  1  0  0  0
 14 15  1  0  0  0  0
 15 17  1  0  0  0  0
 17 16  1  0  0  0  0
 17 19  2  0  0  0  0
 18 14  1  0  0  0  0
 18 15  1  0  0  0  0
 20 23  1  0  0  0  0
 21 20  2  0  0  0  0
 21 22  1  0  0  0  0
 22 25  1  0  0  0  0
 23 25  2  0  0  0  0
 24 21  1  0  0  0  0
 25  2  1  0  0  0  0
M  END
>  <MODEL>
5

>  <REMARK>
 VINA RESULT:      -6.7      4.755      6.868
  Name = 
  3 active torsions:
  status: ('A' for Active; 'I' for Inactive)
    1  A    between atoms: C_3  and  C_4
    2  A    between atoms: C_6  and  C_21
    3  A    between atoms: C_17  and  C_23
                            x       y       z     vdW  Elec       q    Type
                         _______ _______ _______ _____ _____    ______ ____

>  <TORSDO>
F 3

$$$$
=
 OpenBabel11042417473D

 25 28  0  0  1  0  0  0  0  0999 V2000
  188.9310  173.9580  141.9780 C   0  0  0  0  0  0  0  0  0  0  0  0
  189.8260  175.2850  143.8420 C   0  0  0  0  0  0  0  0  0  0  0  0
  187.8260  174.8120  141.9310 C   0  0  0  0  0  3  0  0  0  0  0  0
  189.9460  174.1960  142.9440 C   0  0  0  0  0  0  0  0  0  0  0  0
  187.7010  175.8900  142.8120 C   0  0  0  0  0  0  0  0  0  0  0  0
  191.0620  173.3670  143.0120 O   0  0  0  0  0  1  0  0  0  0  0  0
  188.7010  176.1150  143.7580 C   0  0  0  0  0  3  0  0  0  0  0  0
  183.9040  178.6460  143.7880 O   0  0  0  0  0  0  0  0  0  0  0  0
  186.0210  177.3320  141.5350 N   0  0  0  0  0  0  0  0  0  0  0  0
  184.8210  178.0280  143.1890 C   0  0  0  0  0  0  0  0  0  0  0  0
  185.8240  177.1840  143.8120 C   0  0  0  0  0  3  0  0  0  0  0  0
  185.0150  178.0640  141.7870 N   0  0  0  0  0  0  0  0  0  0  0  0
  186.5320  176.7850  142.7540 C   0  0  0  0  0  0  0  0  0  0  0  0
  188.9180  172.8310  140.9680 C   0  0  2  0  0  3  0  0  0  0  0  0
  189.6850  173.1820  139.7380 N   0  0  0  0  0  0  0  0  0  0  0  0
  190.8610  173.7880  137.6590 N   0  0  0  0  0  1  0  0  0  0  0  0
  190.8970  173.4160  139.0310 C   0  0  0  0  0  0  0  0  0  0  0  0
  188.1930  173.1140  139.8280 C   0  0  0  0  0  2  0  0  0  0  0  0
  192.0010  173.3000  139.6220 O   0  0  0  0  0  0  0  0  0  0  0  0
  191.9230  175.5640  146.9300 N   0  0  0  0  0  0  0  0  0  0  0  0
  192.7420  176.3670  146.2220 C   0  0  0  0  0  0  0  0  0  0  0  0
  192.1980  176.5740  144.6500 S   0  0  0  0  0  0  0  0  0  0  0  0
  190.8670  175.1270  146.1920 C   0  0  0  0  0  3  0  0  0  0  0  0
  194.1910  177.0970  146.8780 Cl  0  0  0  0  0  0  0  0  0  0  0  0
  190.8450  175.5900  144.8760 C   0  0  0  0  0  0  0  0  0  0  0  0
  1  4  1  0  0  0  0
  2 25  1  0  0  0  0
  3  1  2  0  0  0  0
  3  5  1  0  0  0  0
  4  6  1  0  0  0  0
  4  2  2  0  0  0  0
  5  7  2  0  0  0  0
  7  2  1  0  0  0  0
  9 12  2  0  0  0  0
  9 13  1  0  0  0  0
 10  8  2  0  0  0  0
 10 11  1  0  0  0  0
 12 10  1  0  0  0  0
 13  5  1  0  0  0  0
 13 11  2  0  0  0  0
 14  1  1  1  0  0  0
 15 18  1  0  0  0  0
 15 14  1  0  0  0  0
 16 17  1  0  0  0  0
 17 19  2  0  0  0  0
 17 15  1  0  0  0  0
 18 14  1  0  0  0  0
 21 24  1  0  0  0  0
 21 20  2  0  0  0  0
 22 25  1  0  0  0  0
 22 21  1  0  0  0  0
 23 20  1  0  0  0  0
 25 23  2  0  0  0  0
M  END
>  <MODEL>
6

>  <REMARK>
 VINA RESULT:      -6.7      5.286      7.897
  Name = 
  3 active torsions:
  status: ('A' for Active; 'I' for Inactive)
    1  A    between atoms: C_3  and  C_4
    2  A    between atoms: C_6  and  C_21
    3  A    between atoms: C_17  and  C_23
                            x       y       z     vdW  Elec       q    Type
                         _______ _______ _______ _____ _____    ______ ____

>  <TORSDO>
F 3

$$$$
=
 OpenBabel11042417473D

 25 28  0  0  1  0  0  0  0  0999 V2000
  191.3580  174.8810  145.5480 C   0  0  0  0  0  0  0  0  0  0  0  0
  189.1480  175.8450  145.0750 C   0  0  0  0  0  0  0  0  0  0  0  0
  191.2270  174.0830  144.4090 C   0  0  0  0  0  3  0  0  0  0  0  0
  190.3060  175.7750  145.8870 C   0  0  0  0  0  0  0  0  0  0  0  0
  190.0880  174.1470  143.6010 C   0  0  0  0  0  0  0  0  0  0  0  0
  190.4100  176.5880  147.0130 O   0  0  0  0  0  1  0  0  0  0  0  0
  189.0610  175.0270  143.9430 C   0  0  0  0  0  3  0  0  0  0  0  0
  188.9250  172.2390  139.3620 O   0  0  0  0  0  0  0  0  0  0  0  0
  190.6710  172.0720  142.2270 N   0  0  0  0  0  0  0  0  0  0  0  0
  189.4400  172.4380  140.4920 C   0  0  0  0  0  0  0  0  0  0  0  0
  189.1800  173.5760  141.3540 C   0  0  0  0  0  3  0  0  0  0  0  0
  190.3670  171.5620  141.1060 N   0  0  0  0  0  0  0  0  0  0  0  0
  189.9600  173.3010  142.4010 C   0  0  0  0  0  0  0  0  0  0  0  0
  192.6420  174.6900  146.3250 C   0  0  2  0  0  3  0  0  0  0  0  0
  193.8200  175.2340  145.5900 N   0  0  0  0  0  0  0  0  0  0  0  0
  195.7870  176.0370  144.3410 N   0  0  0  0  0  1  0  0  0  0  0  0
  194.6150  176.3070  145.0990 C   0  0  0  0  0  0  0  0  0  0  0  0
  193.5090  173.7800  145.7530 C   0  0  0  0  0  2  0  0  0  0  0  0
  194.2770  177.4960  145.3320 O   0  0  0  0  0  0  0  0  0  0  0  0
  186.5330  178.5240  145.1310 N   0  0  0  0  0  0  0  0  0  0  0  0
  186.0700  177.9570  146.2620 C   0  0  0  0  0  0  0  0  0  0  0  0
  186.9730  176.6110  146.6950 S   0  0  0  0  0  0  0  0  0  0  0  0
  187.6120  177.8640  144.6290 C   0  0  0  0  0  3  0  0  0  0  0  0
  184.6940  178.5620  147.1580 Cl  0  0  0  0  0  0  0  0  0  0  0  0
  188.0130  176.7540  145.3730 C   0  0  0  0  0  0  0  0  0  0  0  0
  1  4  1  0  0  0  0
  2 25  1  0  0  0  0
  2  4  2  0  0  0  0
  3  1  2  0  0  0  0
  4  6  1  0  0  0  0
  5  7  2  0  0  0  0
  5  3  1  0  0  0  0
  7  2  1  0  0  0  0
  8 10  2  0  0  0  0
  9 13  1  0  0  0  0
 10 12  1  0  0  0  0
 10 11  1  0  0  0  0
 11 13  2  0  0  0  0
 12  9  2  0  0  0  0
 13  5  1  0  0  0  0
 14  1  1  6  0  0  0
 15 18  1  0  0  0  0
 15 14  1  0  0  0  0
 16 17  1  0  0  0  0
 17 19  2  0  0  0  0
 17 15  1  0  0  0  0
 18 14  1  0  0  0  0
 20 21  2  0  0  0  0
 21 22  1  0  0  0  0
 21 24  1  0  0  0  0
 23 20  1  0  0  0  0
 23 25  2  0  0  0  0
 25 22  1  0  0  0  0
M  END
>  <MODEL>
7

>  <REMARK>
 VINA RESULT:      -6.7      4.860      8.069
  Name = 
  3 active torsions:
  status: ('A' for Active; 'I' for Inactive)
    1  A    between atoms: C_3  and  C_4
    2  A    between atoms: C_6  and  C_21
    3  A    between atoms: C_17  and  C_23
                            x       y       z     vdW  Elec       q    Type
                         _______ _______ _______ _____ _____    ______ ____

>  <TORSDO>
F 3

$$$$
=
 OpenBabel11042417473D

 25 28  0  0  1  0  0  0  0  0999 V2000
  190.3050  175.8750  145.4250 C   0  0  0  0  0  0  0  0  0  0  0  0
  188.6360  176.0320  143.6290 C   0  0  0  0  0  0  0  0  0  0  0  0
  190.6830  174.6240  144.9320 C   0  0  0  0  0  3  0  0  0  0  0  0
  189.2690  176.5910  144.7660 C   0  0  0  0  0  0  0  0  0  0  0  0
  190.0650  174.0660  143.8100 C   0  0  0  0  0  0  0  0  0  0  0  0
  188.8740  177.8430  145.2290 O   0  0  0  0  0  1  0  0  0  0  0  0
  189.0480  174.7750  143.1700 C   0  0  0  0  0  3  0  0  0  0  0  0
  192.1970  169.8540  142.9910 O   0  0  0  0  0  0  0  0  0  0  0  0
  189.8170  172.0900  142.2070 N   0  0  0  0  0  0  0  0  0  0  0  0
  191.4290  170.8460  142.9240 C   0  0  0  0  0  0  0  0  0  0  0  0
  191.4800  172.0180  143.7800 C   0  0  0  0  0  2  0  0  0  0  0  0
  190.3770  170.9730  141.9860 N   0  0  0  0  0  2  0  0  0  0  0  0
  190.4720  172.7460  143.2970 C   0  0  0  0  0  0  0  0  0  0  0  0
  191.0580  176.3400  146.6530 C   0  0  2  0  0  3  0  0  0  0  0  0
  192.5180  176.0510  146.5490 N   0  0  0  0  0  0  0  0  0  0  0  0
  194.9140  175.4870  146.4330 N   0  0  0  0  0  1  0  0  0  0  0  0
  193.8150  176.2870  146.0160 C   0  0  0  0  0  0  0  0  0  0  0  0
  191.5570  175.3070  147.4220 C   0  0  0  0  0  2  0  0  0  0  0  0
  193.9910  177.2030  145.1720 O   0  0  0  0  0  0  0  0  0  0  0  0
  186.4920  177.9450  141.2290 N   0  0  0  0  0  0  0  0  0  0  0  0
  185.4620  177.7140  142.0680 C   0  0  0  0  0  0  0  0  0  0  0  0
  185.9410  176.8240  143.4060 S   0  0  0  0  0  0  0  0  0  0  0  0
  187.6530  177.3990  141.6800 C   0  0  0  0  0  3  0  0  0  0  0  0
  183.8310  178.2810  141.7820 Cl  0  0  0  0  0  0  0  0  0  0  0  0
  187.5470  176.7230  142.8950 C   0  0  0  0  0  0  0  0  0  0  0  0
  2  4  1  0  0  0  0
  3  1  1  0  0  0  0
  4  6  1  0  0  0  0
  4  1  2  0  0  0  0
  5  3  2  0  0  0  0
  7  2  2  0  0  0  0
  7  5  1  0  0  0  0
  9 13  2  0  0  0  0
 10  8  2  0  0  0  0
 10 11  1  0  0  0  0
 12  9  1  0  0  0  0
 12 10  1  0  0  0  0
 13 11  1  0  0  0  0
 13  5  1  0  0  0  0
 14  1  1  6  0  0  0
 14 18  1  0  0  0  0
 15 14  1  0  0  0  0
 15 18  1  0  0  0  0
 17 16  1  0  0  0  0
 17 15  1  0  0  0  0
 19 17  2  0  0  0  0
 20 23  1  0  0  0  0
 20 21  2  0  0  0  0
 21 22  1  0  0  0  0
 23 25  2  0  0  0  0
 24 21  1  0  0  0  0
 25 22  1  0  0  0  0
 25  2  1  0  0  0  0
M  END
>  <MODEL>
8

>  <REMARK>
 VINA RESULT:      -6.7      4.465      7.364
  Name = 
  3 active torsions:
  status: ('A' for Active; 'I' for Inactive)
    1  A    between atoms: C_3  and  C_4
    2  A    between atoms: C_6  and  C_21
    3  A    between atoms: C_17  and  C_23
                            x       y       z     vdW  Elec       q    Type
                         _______ _______ _______ _____ _____    ______ ____

>  <TORSDO>
F 3

$$$$
=
 OpenBabel11042417473D

 25 28  0  0  1  0  0  0  0  0999 V2000
  188.1000  177.1830  142.6850 C   0  0  0  0  0  0  0  0  0  0  0  0
  190.0400  175.9370  143.5330 C   0  0  0  0  0  0  0  0  0  0  0  0
  187.9960  176.2620  141.6400 C   0  0  0  0  0  3  0  0  0  0  0  0
  189.1350  177.0200  143.6460 C   0  0  0  0  0  0  0  0  0  0  0  0
  188.8840  175.1900  141.5220 C   0  0  0  0  0  0  0  0  0  0  0  0
  189.2610  177.9170  144.7030 O   0  0  0  0  0  1  0  0  0  0  0  0
  189.8970  175.0380  142.4690 C   0  0  0  0  0  3  0  0  0  0  0  0
  189.0330  171.3310  138.6850 O   0  0  0  0  0  0  0  0  0  0  0  0
  188.1610  174.5410  139.1580 N   0  0  0  0  0  0  0  0  0  0  0  0
  188.8280  172.4880  139.1330 C   0  0  0  0  0  0  0  0  0  0  0  0
  189.1970  172.9620  140.4550 C   0  0  0  0  0  2  0  0  0  0  0  0
  188.1970  173.5220  138.4020 N   0  0  0  0  0  2  0  0  0  0  0  0
  188.7640  174.2240  140.4160 C   0  0  0  0  0  0  0  0  0  0  0  0
  187.0740  178.2950  142.6710 C   0  0  2  0  0  3  0  0  0  0  0  0
  186.1060  178.1690  143.7990 N   0  0  0  0  0  0  0  0  0  0  0  0
  184.4410  177.9150  145.5980 N   0  0  0  0  0  1  0  0  0  0  0  0
  185.7560  178.2530  145.1750 C   0  0  0  0  0  0  0  0  0  0  0  0
  185.7960  177.8680  142.3670 C   0  0  0  0  0  2  0  0  0  0  0  0
  186.6120  178.6230  146.0200 O   0  0  0  0  0  0  0  0  0  0  0  0
  192.2310  174.9840  146.4150 N   0  0  0  0  0  0  0  0  0  0  0  0
  193.2450  175.5780  145.7560 C   0  0  0  0  0  0  0  0  0  0  0  0
  192.7410  176.2140  144.2890 S   0  0  0  0  0  0  0  0  0  0  0  0
  191.0600  175.0510  145.7260 C   0  0  0  0  0  3  0  0  0  0  0  0
  194.8820  175.6660  146.3690 Cl  0  0  0  0  0  0  0  0  0  0  0  0
  191.1440  175.7090  144.4990 C   0  0  0  0  0  0  0  0  0  0  0  0
  1  4  1  0  0  0  0
  2  4  2  0  0  0  0
  2 25  1  0  0  0  0
  3  1  2  0  0  0  0
  4  6  1  0  0  0  0
  5  3  1  0  0  0  0
  5  7  2  0  0  0  0
  7  2  1  0  0  0  0
  8 10  2  0  0  0  0
  9 13  2  0  0  0  0
 10 11  1  0  0  0  0
 12 10  1  0  0  0  0
 12  9  1  0  0  0  0
 13 11  1  0  0  0  0
 13  5  1  0  0  0  0
 14  1  1  1  0  0  0
 14 15  1  0  0  0  0
 15 17  1  0  0  0  0
 17 16  1  0  0  0  0
 17 19  2  0  0  0  0
 18 14  1  0  0  0  0
 18 15  1  0  0  0  0
 21 24  1  0  0  0  0
 21 20  2  0  0  0  0
 22 25  1  0  0  0  0
 22 21  1  0  0  0  0
 23 20  1  0  0  0  0
 25 23  2  0  0  0  0
M  END
>  <MODEL>
9

>  <REMARK>
 VINA RESULT:      -6.7      5.355      9.019
  Name = 
  3 active torsions:
  status: ('A' for Active; 'I' for Inactive)
    1  A    between atoms: C_3  and  C_4
    2  A    between atoms: C_6  and  C_21
    3  A    between atoms: C_17  and  C_23
                            x       y       z     vdW  Elec       q    Type
                         _______ _______ _______ _____ _____    ______ ____

>  <TORSDO>
F 3

$$$$
