=
 OpenBabel11042414333D

 46 51  0  0  1  0  0  0  0  0999 V2000
  191.4420  173.7450  145.4130 N   0  0  0  0  0  0  0  0  0  0  0  0
  191.3300  176.1280  145.4280 C   0  0  0  0  0  3  0  0  0  0  0  0
  192.0540  174.9440  145.6160 C   0  0  0  0  0  0  0  0  0  0  0  0
  189.9990  176.0700  145.0060 C   0  0  0  0  0  0  0  0  0  0  0  0
  190.1440  173.6600  145.0190 C   0  0  0  0  0  3  0  0  0  0  0  0
  189.3980  174.8200  144.8160 C   0  0  0  0  0  3  0  0  0  0  0  0
  189.2500  177.3570  144.7870 C   0  0  2  0  0  3  0  0  0  0  0  0
  187.4450  177.4540  143.0270 N   0  0  0  0  0  0  0  0  0  0  0  0
  188.5470  177.0780  142.1420 C   0  0  0  0  0  2  0  0  0  0  0  0
  187.7660  177.1210  144.4290 C   0  0  2  0  0  3  0  0  0  0  0  0
  189.7340  178.0120  142.3610 C   0  0  0  0  0  2  0  0  0  0  0  0
  189.9460  178.3470  143.8400 C   0  0  0  0  0  2  0  0  0  0  0  0
  184.6830  178.2830  146.4130 C   0  0  0  0  0  2  0  0  0  0  0  0
  185.1850  178.4780  147.8300 C   0  0  0  0  0  2  0  0  0  0  0  0
  186.8140  177.3780  146.7590 C   0  0  1  0  0  0  0  0  0  0  0  0
  185.6440  177.2970  145.8200 C   0  0  2  0  0  3  0  0  0  0  0  0
  187.3960  176.1370  147.0280 O   0  0  0  0  0  1  0  0  0  0  0  0
  186.9350  177.9960  145.3750 C   0  0  2  0  0  3  0  0  0  0  0  0
  186.5670  178.2270  147.8520 O   0  0  0  0  0  0  0  0  0  0  0  0
  186.2970  176.6450  142.6320 C   0  0  0  0  0  2  0  0  0  0  0  0
  185.1070  177.5240  142.2570 C   0  0  0  0  0  2  0  0  0  0  0  0
  185.2470  178.1010  140.8520 C   0  0  0  0  0  2  0  0  0  0  0  0
  183.0610  178.1720  141.2510 C   0  0  0  0  0  1  0  0  0  0  0  0
  184.0010  178.1790  140.2140 O   0  0  0  0  0  0  0  0  0  0  0  0
  193.4640  174.9500  146.1320 C   0  0  2  0  0  3  0  0  0  0  0  0
  193.9010  176.2550  146.3800 O   0  0  0  0  0  1  0  0  0  0  0  0
  194.4800  174.1760  145.2960 C   0  0  0  0  0  2  0  0  0  0  0  0
  195.1490  175.0480  144.2430 C   0  0  0  0  0  2  0  0  0  0  0  0
  194.2920  175.6870  141.6510 S   0  0  0  0  0  0  0  0  0  0  0  0
  194.7070  173.3200  142.3950 C   0  0  0  0  0  3  0  0  0  0  0  0
  194.0990  174.4370  140.5410 C   0  0  0  0  0  0  0  0  0  0  0  0
  193.7470  174.6320  139.1710 N   0  0  0  0  0  2  0  0  0  0  0  0
  194.3540  173.2250  141.0830 N   0  0  0  0  0  0  0  0  0  0  0  0
  194.7150  174.6230  142.8840 C   0  0  0  0  0  0  0  0  0  0  0  0
  193.5950  173.5060  138.2570 C   0  0  0  0  0  2  0  0  0  0  0  0
  192.1290  173.2940  137.9410 C   0  0  0  0  0  2  0  0  0  0  0  0
  191.6540  171.9350  138.4580 C   0  0  0  0  0  2  0  0  0  0  0  0
  190.4730  172.0550  139.4340 C   0  0  2  0  0  0  0  0  0  0  0  0
  190.2370  173.5400  139.7860 C   0  0  2  0  0  3  0  0  0  0  0  0
  190.7490  171.3090  140.6130 O   0  0  0  0  0  0  0  0  0  0  0  0
  191.0380  172.2190  141.6590 C   0  0  0  0  0  2  0  0  0  0  0  0
  189.3510  171.4980  138.8080 O   0  0  0  0  0  1  0  0  0  0  0  0
  190.8570  174.5820  141.8270 O   0  0  0  0  0  0  0  0  0  0  0  0
  190.7060  173.5630  141.1700 C   0  0  0  0  0  0  0  0  0  0  0  0
  188.0900  173.4860  140.8590 O   0  0  0  0  0  1  0  0  0  0  0  0
  188.7750  173.9830  139.7500 C   0  0  0  0  0  2  0  0  0  0  0  0
  1  3  1  0  0  0  0
  2  3  2  0  0  0  0
  3 25  1  0  0  0  0
  4  2  1  0  0  0  0
  5  1  2  0  0  0  0
  6  4  2  0  0  0  0
  6  5  1  0  0  0  0
  7  4  1  6  0  0  0
  9 11  1  0  0  0  0
  9  8  1  0  0  0  0
 10  8  1  6  0  0  0
 10  7  1  0  0  0  0
 11 12  1  0  0  0  0
 12  7  1  0  0  0  0
 13 14  1  0  0  0  0
 14 19  1  0  0  0  0
 15 17  1  1  0  0  0
 15 19  1  0  0  0  0
 16 13  1  1  0  0  0
 16 15  1  0  0  0  0
 18 10  1  6  0  0  0
 18 16  1  0  0  0  0
 18 15  1  0  0  0  0
 20  8  1  0  0  0  0
 21 20  1  0  0  0  0
 22 21  1  0  0  0  0
 24 22  1  0  0  0  0
 24 23  1  0  0  0  0
 25 26  1  6  0  0  0
 27 25  1  0  0  0  0
 28 27  1  0  0  0  0
 29 34  1  0  0  0  0
 30 34  2  0  0  0  0
 31 33  2  0  0  0  0
 31 29  1  0  0  0  0
 32 31  1  0  0  0  0
 33 30  1  0  0  0  0
 34 28  1  0  0  0  0
 35 32  1  0  0  0  0
 36 35  1  0  0  0  0
 36 37  1  0  0  0  0
 37 38  1  0  0  0  0
 38 42  1  6  0  0  0
 38 39  1  0  0  0  0
 38 40  1  0  0  0  0
 39 46  1  1  0  0  0
 39 44  1  0  0  0  0
 40 41  1  0  0  0  0
 44 41  1  0  0  0  0
 44 43  2  0  0  0  0
 46 45  1  0  0  0  0
M  END
>  <MODEL>
1

>  <REMARK>
 VINA RESULT:      -6.8      0.000      0.000
  Name = 
  15 active torsions:
  status: ('A' for Active; 'I' for Inactive)
    1  A    between atoms: C_1  and  C_39
    2  A    between atoms: N_2  and  C_25
    3  A    between atoms: C_9  and  C_23
    4  A    between atoms: C_11  and  C_34
    5  A    between atoms: C_12  and  C_21
    6  A    between atoms: C_12  and  C_40
    7  A    between atoms: C_16  and  C_29
    8  A    between atoms: O_17  and  C_41
    9  A    between atoms: N_18  and  C_33
   10  A    between atoms: C_23  and  C_32
   11  A    between atoms: C_25  and  C_42
   12  A    between atoms: C_32  and  C_33
   13  A    between atoms: C_35  and  C_40
   14  A    between atoms: C_35  and  C_45
   15  A    between atoms: C_41  and  C_42
                            x       y       z     vdW  Elec       q    Type
                         _______ _______ _______ _____ _____    ______ ____

>  <TORSDO>
F 15

$$$$
=
 OpenBabel11042414333D

 46 51  0  0  1  0  0  0  0  0999 V2000
  189.6220  172.2540  143.7270 N   0  0  0  0  0  0  0  0  0  0  0  0
  189.2210  174.5570  143.2510 C   0  0  0  0  0  3  0  0  0  0  0  0
  189.3090  173.2260  142.8270 C   0  0  0  0  0  0  0  0  0  0  0  0
  189.4230  174.8730  144.5980 C   0  0  0  0  0  0  0  0  0  0  0  0
  189.8420  172.5360  145.0390 C   0  0  0  0  0  3  0  0  0  0  0  0
  189.7530  173.8500  145.4960 C   0  0  0  0  0  3  0  0  0  0  0  0
  189.2980  176.3080  145.0340 C   0  0  2  0  0  3  0  0  0  0  0  0
  189.1570  178.1240  143.2870 N   0  0  0  0  0  0  0  0  0  0  0  0
  190.4550  177.5810  142.8860 C   0  0  0  0  0  2  0  0  0  0  0  0
  188.4030  177.1360  144.0840 C   0  0  2  0  0  3  0  0  0  0  0  0
  191.3740  177.4770  144.1010 C   0  0  0  0  0  2  0  0  0  0  0  0
  190.6340  176.9970  145.3520 C   0  0  0  0  0  2  0  0  0  0  0  0
  185.4750  179.4800  144.9360 C   0  0  0  0  0  2  0  0  0  0  0  0
  184.5280  178.6320  145.7610 C   0  0  0  0  0  2  0  0  0  0  0  0
  185.9990  177.2000  144.8720 C   0  0  1  0  0  0  0  0  0  0  0  0
  186.2450  178.4810  144.1260 C   0  0  2  0  0  3  0  0  0  0  0  0
  185.7990  176.1000  144.0330 O   0  0  0  0  0  1  0  0  0  0  0  0
  187.3700  177.8530  144.9590 C   0  0  2  0  0  3  0  0  0  0  0  0
  185.1070  177.3660  145.9450 O   0  0  0  0  0  0  0  0  0  0  0  0
  188.4090  178.3650  142.0590 C   0  0  0  0  0  2  0  0  0  0  0  0
  188.0620  177.0530  141.3600 C   0  0  0  0  0  2  0  0  0  0  0  0
  186.8790  177.2110  140.4100 C   0  0  0  0  0  2  0  0  0  0  0  0
  184.9200  178.2610  140.3410 C   0  0  0  0  0  1  0  0  0  0  0  0
  185.6830  177.3860  141.1220 O   0  0  0  0  0  0  0  0  0  0  0  0
  189.1660  172.8430  141.3820 C   0  0  2  0  0  3  0  0  0  0  0  0
  187.8290  172.9020  140.9780 O   0  0  0  0  0  1  0  0  0  0  0  0
  189.8080  171.5180  140.9790 C   0  0  0  0  0  2  0  0  0  0  0  0
  190.6740  171.6480  139.7340 C   0  0  0  0  0  2  0  0  0  0  0  0
  192.9680  172.3680  141.1750 S   0  0  0  0  0  0  0  0  0  0  0  0
  192.1050  173.7220  139.2390 C   0  0  0  0  0  3  0  0  0  0  0  0
  193.8240  173.7330  140.6880 C   0  0  0  0  0  0  0  0  0  0  0  0
  195.0490  174.1620  141.2830 N   0  0  0  0  0  2  0  0  0  0  0  0
  193.2410  174.3570  139.6400 N   0  0  0  0  0  0  0  0  0  0  0  0
  191.7930  172.5940  139.9930 C   0  0  0  0  0  0  0  0  0  0  0  0
  195.7450  175.3550  140.8140 C   0  0  0  0  0  2  0  0  0  0  0  0
  196.0550  176.2640  141.9860 C   0  0  0  0  0  2  0  0  0  0  0  0
  194.9410  176.1960  143.0320 C   0  0  0  0  0  2  0  0  0  0  0  0
  195.4520  175.7480  144.4100 C   0  0  2  0  0  0  0  0  0  0  0  0
  194.6000  174.5650  144.9220 C   0  0  2  0  0  3  0  0  0  0  0  0
  195.3790  176.8360  145.3250 O   0  0  0  0  0  0  0  0  0  0  0  0
  194.3060  176.5970  146.2170 C   0  0  0  0  0  2  0  0  0  0  0  0
  196.7940  175.3800  144.2630 O   0  0  0  0  0  1  0  0  0  0  0  0
  192.9200  174.7030  146.5920 O   0  0  0  0  0  0  0  0  0  0  0  0
  193.8510  175.2190  145.9910 C   0  0  0  0  0  0  0  0  0  0  0  0
  194.6670  172.2230  145.4440 O   0  0  0  0  0  1  0  0  0  0  0  0
  195.4030  173.4070  145.5130 C   0  0  0  0  0  2  0  0  0  0  0  0
  1  5  1  0  0  0  0
  2  4  2  0  0  0  0
  3  2  1  0  0  0  0
  3  1  2  0  0  0  0
  4  6  1  0  0  0  0
  5  6  2  0  0  0  0
  7  4  1  6  0  0  0
  7 12  1  0  0  0  0
  9  8  1  0  0  0  0
  9 11  1  0  0  0  0
 10  8  1  1  0  0  0
 10  7  1  0  0  0  0
 11 12  1  0  0  0  0
 13 14  1  0  0  0  0
 14 19  1  0  0  0  0
 15 17  1  6  0  0  0
 15 18  1  0  0  0  0
 15 19  1  0  0  0  0
 16 15  1  0  0  0  0
 16 13  1  1  0  0  0
 16 18  1  0  0  0  0
 18 10  1  6  0  0  0
 20  8  1  0  0  0  0
 21 20  1  0  0  0  0
 22 24  1  0  0  0  0
 22 21  1  0  0  0  0
 23 24  1  0  0  0  0
 25 26  1  1  0  0  0
 25  3  1  0  0  0  0
 27 25  1  0  0  0  0
 28 34  1  0  0  0  0
 28 27  1  0  0  0  0
 30 33  1  0  0  0  0
 30 34  2  0  0  0  0
 31 29  1  0  0  0  0
 31 32  1  0  0  0  0
 33 31  2  0  0  0  0
 34 29  1  0  0  0  0
 35 32  1  0  0  0  0
 35 36  1  0  0  0  0
 36 37  1  0  0  0  0
 37 38  1  0  0  0  0
 38 42  1  6  0  0  0
 38 39  1  0  0  0  0
 38 40  1  0  0  0  0
 39 46  1  1  0  0  0
 39 44  1  0  0  0  0
 40 41  1  0  0  0  0
 44 41  1  0  0  0  0
 44 43  2  0  0  0  0
 45 46  1  0  0  0  0
M  END
>  <MODEL>
2

>  <REMARK>
 VINA RESULT:      -6.7      1.785      4.800
  Name = 
  15 active torsions:
  status: ('A' for Active; 'I' for Inactive)
    1  A    between atoms: C_1  and  C_39
    2  A    between atoms: N_2  and  C_25
    3  A    between atoms: C_9  and  C_23
    4  A    between atoms: C_11  and  C_34
    5  A    between atoms: C_12  and  C_21
    6  A    between atoms: C_12  and  C_40
    7  A    between atoms: C_16  and  C_29
    8  A    between atoms: O_17  and  C_41
    9  A    between atoms: N_18  and  C_33
   10  A    between atoms: C_23  and  C_32
   11  A    between atoms: C_25  and  C_42
   12  A    between atoms: C_32  and  C_33
   13  A    between atoms: C_35  and  C_40
   14  A    between atoms: C_35  and  C_45
   15  A    between atoms: C_41  and  C_42
                            x       y       z     vdW  Elec       q    Type
                         _______ _______ _______ _____ _____    ______ ____

>  <TORSDO>
F 15

$$$$
=
 OpenBabel11042414333D

 46 51  0  0  1  0  0  0  0  0999 V2000
  186.5790  177.4950  147.7140 N   0  0  0  0  0  0  0  0  0  0  0  0
  187.5530  176.9590  145.6030 C   0  0  0  0  0  3  0  0  0  0  0  0
  187.6900  177.2590  146.9630 C   0  0  0  0  0  0  0  0  0  0  0  0
  186.2780  176.8720  145.0350 C   0  0  0  0  0  0  0  0  0  0  0  0
  185.3290  177.4350  147.1820 C   0  0  0  0  0  3  0  0  0  0  0  0
  185.1570  177.1290  145.8330 C   0  0  0  0  0  3  0  0  0  0  0  0
  186.1560  176.5230  143.5760 C   0  0  2  0  0  3  0  0  0  0  0  0
  187.6690  177.6530  141.9020 N   0  0  0  0  0  0  0  0  0  0  0  0
  187.0390  178.8640  142.4300 C   0  0  0  0  0  2  0  0  0  0  0  0
  187.5210  176.5320  142.8520 C   0  0  2  0  0  3  0  0  0  0  0  0
  185.5200  178.7120  142.4120 C   0  0  0  0  0  2  0  0  0  0  0  0
  185.0710  177.3060  142.8210 C   0  0  0  0  0  2  0  0  0  0  0  0
  189.0500  173.8820  140.5220 C   0  0  0  0  0  2  0  0  0  0  0  0
  189.0540  172.6050  141.3380 C   0  0  0  0  0  2  0  0  0  0  0  0
  188.6060  174.2470  142.7910 C   0  0  1  0  0  0  0  0  0  0  0  0
  189.0510  174.9710  141.5510 C   0  0  2  0  0  3  0  0  0  0  0  0
  189.2890  174.6490  143.9420 O   0  0  0  0  0  1  0  0  0  0  0  0
  187.6380  175.1990  142.1050 C   0  0  2  0  0  3  0  0  0  0  0  0
  188.4510  172.8670  142.5800 O   0  0  0  0  0  0  0  0  0  0  0  0
  189.0930  177.9440  141.7790 C   0  0  0  0  0  2  0  0  0  0  0  0
  189.7550  178.0410  143.1510 C   0  0  0  0  0  2  0  0  0  0  0  0
  191.2770  178.0550  143.0470 C   0  0  0  0  0  2  0  0  0  0  0  0
  192.3450  176.1410  142.6740 C   0  0  0  0  0  1  0  0  0  0  0  0
  191.8350  176.9470  143.6990 O   0  0  0  0  0  0  0  0  0  0  0  0
  189.0360  177.4290  147.6060 C   0  0  2  0  0  3  0  0  0  0  0  0
  189.2430  178.7570  147.9920 O   0  0  0  0  0  1  0  0  0  0  0  0
  190.2240  176.8930  146.8110 C   0  0  0  0  0  2  0  0  0  0  0  0
  190.7440  175.5740  147.3660 C   0  0  0  0  0  2  0  0  0  0  0  0
  192.4830  174.0600  145.7720 S   0  0  0  0  0  0  0  0  0  0  0  0
  193.2380  176.0940  147.0440 C   0  0  0  0  0  3  0  0  0  0  0  0
  194.0810  174.5660  145.6260 C   0  0  0  0  0  0  0  0  0  0  0  0
  195.0470  173.9340  144.7850 N   0  0  0  0  0  2  0  0  0  0  0  0
  194.3400  175.6680  146.3660 N   0  0  0  0  0  0  0  0  0  0  0  0
  192.1090  175.3060  146.8380 C   0  0  0  0  0  0  0  0  0  0  0  0
  196.4180  174.4230  144.7010 C   0  0  0  0  0  2  0  0  0  0  0  0
  197.3860  173.2630  144.8140 C   0  0  0  0  0  2  0  0  0  0  0  0
  196.9440  172.2960  145.9150 C   0  0  0  0  0  2  0  0  0  0  0  0
  196.6100  170.8980  145.3730 C   0  0  2  0  0  0  0  0  0  0  0  0
  195.2060  170.4730  145.8600 C   0  0  2  0  0  3  0  0  0  0  0  0
  197.5870  169.9650  145.8200 O   0  0  0  0  0  0  0  0  0  0  0  0
  197.0030  169.1530  146.8220 C   0  0  0  0  0  2  0  0  0  0  0  0
  196.6620  170.9630  143.9760 O   0  0  0  0  0  1  0  0  0  0  0  0
  194.7690  168.9160  147.5980 O   0  0  0  0  0  0  0  0  0  0  0  0
  195.5620  169.4410  146.8310 C   0  0  0  0  0  0  0  0  0  0  0  0
  193.2220  170.6860  144.5260 O   0  0  0  0  0  1  0  0  0  0  0  0
  194.3140  169.8560  144.7840 C   0  0  0  0  0  2  0  0  0  0  0  0
  2  3  1  0  0  0  0
  3 25  1  0  0  0  0
  3  1  2  0  0  0  0
  4  2  2  0  0  0  0
  4  6  1  0  0  0  0
  5  1  1  0  0  0  0
  6  5  2  0  0  0  0
  7  4  1  1  0  0  0
  8  9  1  0  0  0  0
 10  8  1  6  0  0  0
 10  7  1  0  0  0  0
 11  9  1  0  0  0  0
 11 12  1  0  0  0  0
 12  7  1  0  0  0  0
 13 14  1  0  0  0  0
 14 19  1  0  0  0  0
 15 17  1  1  0  0  0
 16 13  1  6  0  0  0
 16 18  1  0  0  0  0
 16 15  1  0  0  0  0
 18 15  1  0  0  0  0
 18 10  1  1  0  0  0
 19 15  1  0  0  0  0
 20  8  1  0  0  0  0
 20 21  1  0  0  0  0
 22 21  1  0  0  0  0
 22 24  1  0  0  0  0
 23 24  1  0  0  0  0
 25 26  1  6  0  0  0
 27 28  1  0  0  0  0
 27 25  1  0  0  0  0
 29 34  1  0  0  0  0
 31 29  1  0  0  0  0
 31 33  2  0  0  0  0
 32 31  1  0  0  0  0
 33 30  1  0  0  0  0
 34 30  2  0  0  0  0
 34 28  1  0  0  0  0
 35 32  1  0  0  0  0
 35 36  1  0  0  0  0
 36 37  1  0  0  0  0
 38 42  1  6  0  0  0
 38 40  1  0  0  0  0
 38 39  1  0  0  0  0
 38 37  1  0  0  0  0
 39 46  1  6  0  0  0
 39 44  1  0  0  0  0
 40 41  1  0  0  0  0
 41 44  1  0  0  0  0
 44 43  2  0  0  0  0
 45 46  1  0  0  0  0
M  END
>  <MODEL>
3

>  <REMARK>
 VINA RESULT:      -6.7      3.180      6.490
  Name = 
  15 active torsions:
  status: ('A' for Active; 'I' for Inactive)
    1  A    between atoms: C_1  and  C_39
    2  A    between atoms: N_2  and  C_25
    3  A    between atoms: C_9  and  C_23
    4  A    between atoms: C_11  and  C_34
    5  A    between atoms: C_12  and  C_21
    6  A    between atoms: C_12  and  C_40
    7  A    between atoms: C_16  and  C_29
    8  A    between atoms: O_17  and  C_41
    9  A    between atoms: N_18  and  C_33
   10  A    between atoms: C_23  and  C_32
   11  A    between atoms: C_25  and  C_42
   12  A    between atoms: C_32  and  C_33
   13  A    between atoms: C_35  and  C_40
   14  A    between atoms: C_35  and  C_45
   15  A    between atoms: C_41  and  C_42
                            x       y       z     vdW  Elec       q    Type
                         _______ _______ _______ _____ _____    ______ ____

>  <TORSDO>
F 15

$$$$
=
 OpenBabel11042414333D

 46 51  0  0  1  0  0  0  0  0999 V2000
  192.2340  175.5190  146.0500 N   0  0  0  0  0  0  0  0  0  0  0  0
  193.6250  174.1780  144.6510 C   0  0  0  0  0  3  0  0  0  0  0  0
  192.3520  174.5690  145.0820 C   0  0  0  0  0  0  0  0  0  0  0  0
  194.7610  174.7870  145.1930 C   0  0  0  0  0  0  0  0  0  0  0  0
  193.3220  176.1140  146.6060 C   0  0  0  0  0  3  0  0  0  0  0  0
  194.6030  175.7540  146.1930 C   0  0  0  0  0  3  0  0  0  0  0  0
  196.1170  174.3670  144.6940 C   0  0  2  0  0  3  0  0  0  0  0  0
  196.4270  172.0440  143.7590 N   0  0  0  0  0  0  0  0  0  0  0  0
  195.9710  171.6480  145.0920 C   0  0  0  0  0  2  0  0  0  0  0  0
  196.0310  173.4350  143.4650 C   0  0  2  0  0  3  0  0  0  0  0  0
  196.7840  172.3770  146.1580 C   0  0  0  0  0  2  0  0  0  0  0  0
  197.0610  173.8360  145.7840 C   0  0  0  0  0  2  0  0  0  0  0  0
  197.5550  173.9480  139.9710 C   0  0  0  0  0  2  0  0  0  0  0  0
  197.5300  175.4470  139.7540 C   0  0  0  0  0  2  0  0  0  0  0  0
  196.2510  175.0780  141.5530 C   0  0  1  0  0  0  0  0  0  0  0  0
  196.4670  173.7080  140.9740 C   0  0  2  0  0  3  0  0  0  0  0  0
  194.9050  175.3750  141.7830 O   0  0  0  0  0  1  0  0  0  0  0  0
  196.9550  174.0250  142.3940 C   0  0  2  0  0  3  0  0  0  0  0  0
  197.0300  176.0580  140.9160 O   0  0  0  0  0  0  0  0  0  0  0  0
  195.7390  171.1770  142.8090 C   0  0  0  0  0  2  0  0  0  0  0  0
  194.2590  171.0470  143.1560 C   0  0  0  0  0  2  0  0  0  0  0  0
  193.3730  171.1710  141.9190 C   0  0  0  0  0  2  0  0  0  0  0  0
  192.7520  172.4820  140.2350 C   0  0  0  0  0  1  0  0  0  0  0  0
  193.1950  172.5150  141.5620 O   0  0  0  0  0  0  0  0  0  0  0  0
  191.1050  173.9000  144.5800 C   0  0  2  0  0  3  0  0  0  0  0  0
  191.1520  172.5200  144.8000 O   0  0  0  0  0  1  0  0  0  0  0  0
  190.7150  174.2170  143.1380 C   0  0  0  0  0  2  0  0  0  0  0  0
  191.0290  175.6570  142.7560 C   0  0  0  0  0  2  0  0  0  0  0  0
  188.4050  175.6470  141.7710 S   0  0  0  0  0  0  0  0  0  0  0  0
  189.4910  177.7130  142.7080 C   0  0  0  0  0  3  0  0  0  0  0  0
  187.5110  177.0690  141.8590 C   0  0  0  0  0  0  0  0  0  0  0  0
  186.1420  177.1790  141.4690 N   0  0  0  0  0  2  0  0  0  0  0  0
  188.2250  178.0920  142.3810 N   0  0  0  0  0  0  0  0  0  0  0  0
  189.7710  176.3790  142.4250 C   0  0  0  0  0  0  0  0  0  0  0  0
  185.4210  178.4430  141.5710 C   0  0  0  0  0  2  0  0  0  0  0  0
  184.5590  178.4440  142.8170 C   0  0  0  0  0  2  0  0  0  0  0  0
  185.3090  179.0740  143.9920 C   0  0  0  0  0  2  0  0  0  0  0  0
  185.2680  178.2000  145.2550 C   0  0  2  0  0  0  0  0  0  0  0  0
  186.3430  178.6800  146.2550 C   0  0  2  0  0  3  0  0  0  0  0  0
  185.4980  176.8400  144.9040 O   0  0  0  0  0  0  0  0  0  0  0  0
  186.8030  176.4850  145.3240 C   0  0  0  0  0  2  0  0  0  0  0  0
  183.9840  178.3070  145.8010 O   0  0  0  0  0  1  0  0  0  0  0  0
  188.4160  177.5990  146.6680 O   0  0  0  0  0  0  0  0  0  0  0  0
  187.3050  177.5840  146.1600 C   0  0  0  0  0  0  0  0  0  0  0  0
  186.6480  179.7200  148.3970 O   0  0  0  0  0  1  0  0  0  0  0  0
  185.8650  178.7970  147.7020 C   0  0  0  0  0  2  0  0  0  0  0  0
  1  5  1  0  0  0  0
  2  3  1  0  0  0  0
  2  4  2  0  0  0  0
  3  1  2  0  0  0  0
  4  6  1  0  0  0  0
  6  5  2  0  0  0  0
  7  4  1  1  0  0  0
  7 12  1  0  0  0  0
  8  9  1  0  0  0  0
  9 11  1  0  0  0  0
 10  8  1  1  0  0  0
 10  7  1  0  0  0  0
 12 11  1  0  0  0  0
 14 13  1  0  0  0  0
 14 19  1  0  0  0  0
 15 17  1  1  0  0  0
 15 18  1  0  0  0  0
 16 13  1  6  0  0  0
 16 15  1  0  0  0  0
 16 18  1  0  0  0  0
 18 10  1  1  0  0  0
 19 15  1  0  0  0  0
 20 21  1  0  0  0  0
 20  8  1  0  0  0  0
 22 21  1  0  0  0  0
 23 24  1  0  0  0  0
 24 22  1  0  0  0  0
 25 26  1  6  0  0  0
 25  3  1  0  0  0  0
 27 25  1  0  0  0  0
 28 27  1  0  0  0  0
 29 31  1  0  0  0  0
 29 34  1  0  0  0  0
 31 33  2  0  0  0  0
 32 35  1  0  0  0  0
 32 31  1  0  0  0  0
 33 30  1  0  0  0  0
 34 30  2  0  0  0  0
 34 28  1  0  0  0  0
 35 36  1  0  0  0  0
 36 37  1  0  0  0  0
 37 38  1  0  0  0  0
 38 42  1  1  0  0  0
 38 39  1  0  0  0  0
 39 46  1  1  0  0  0
 40 38  1  0  0  0  0
 40 41  1  0  0  0  0
 41 44  1  0  0  0  0
 44 39  1  0  0  0  0
 44 43  2  0  0  0  0
 46 45  1  0  0  0  0
M  END
>  <MODEL>
4

>  <REMARK>
 VINA RESULT:      -6.5      2.631      8.992
  Name = 
  15 active torsions:
  status: ('A' for Active; 'I' for Inactive)
    1  A    between atoms: C_1  and  C_39
    2  A    between atoms: N_2  and  C_25
    3  A    between atoms: C_9  and  C_23
    4  A    between atoms: C_11  and  C_34
    5  A    between atoms: C_12  and  C_21
    6  A    between atoms: C_12  and  C_40
    7  A    between atoms: C_16  and  C_29
    8  A    between atoms: O_17  and  C_41
    9  A    between atoms: N_18  and  C_33
   10  A    between atoms: C_23  and  C_32
   11  A    between atoms: C_25  and  C_42
   12  A    between atoms: C_32  and  C_33
   13  A    between atoms: C_35  and  C_40
   14  A    between atoms: C_35  and  C_45
   15  A    between atoms: C_41  and  C_42
                            x       y       z     vdW  Elec       q    Type
                         _______ _______ _______ _____ _____    ______ ____

>  <TORSDO>
F 15

$$$$
=
 OpenBabel11042414333D

 46 51  0  0  1  0  0  0  0  0999 V2000
  190.4840  173.3150  144.9440 N   0  0  0  0  0  0  0  0  0  0  0  0
  189.2650  174.9730  143.7370 C   0  0  0  0  0  3  0  0  0  0  0  0
  189.7580  173.6670  143.8480 C   0  0  0  0  0  0  0  0  0  0  0  0
  189.4940  175.8930  144.7640 C   0  0  0  0  0  0  0  0  0  0  0  0
  190.7360  174.1960  145.9490 C   0  0  0  0  0  3  0  0  0  0  0  0
  190.2520  175.5000  145.8740 C   0  0  0  0  0  3  0  0  0  0  0  0
  188.9310  177.2820  144.6330 C   0  0  2  0  0  3  0  0  0  0  0  0
  187.3400  177.8000  142.7440 N   0  0  0  0  0  0  0  0  0  0  0  0
  188.4740  177.3770  141.9210 C   0  0  0  0  0  2  0  0  0  0  0  0
  187.4740  177.2820  144.1200 C   0  0  2  0  0  3  0  0  0  0  0  0
  189.7360  178.1200  142.3520 C   0  0  0  0  0  2  0  0  0  0  0  0
  189.8340  178.2670  143.8730 C   0  0  0  0  0  2  0  0  0  0  0  0
  184.3890  178.5350  146.0450 C   0  0  0  0  0  2  0  0  0  0  0  0
  184.8380  178.6060  147.4910 C   0  0  0  0  0  2  0  0  0  0  0  0
  186.4360  177.4620  146.4200 C   0  0  1  0  0  0  0  0  0  0  0  0
  185.3070  177.5220  145.4300 C   0  0  2  0  0  3  0  0  0  0  0  0
  186.9190  176.1680  146.6320 O   0  0  0  0  0  1  0  0  0  0  0  0
  186.6620  178.1530  145.0850 C   0  0  2  0  0  3  0  0  0  0  0  0
  186.1970  178.2570  147.5540 O   0  0  0  0  0  0  0  0  0  0  0  0
  186.1510  177.1940  142.1560 C   0  0  0  0  0  2  0  0  0  0  0  0
  185.3760  178.2050  141.3160 C   0  0  0  0  0  2  0  0  0  0  0  0
  183.8930  178.2240  141.6740 C   0  0  0  0  0  2  0  0  0  0  0  0
  181.7920  178.2650  140.9490 C   0  0  0  0  0  1  0  0  0  0  0  0
  183.1000  177.9760  140.5450 O   0  0  0  0  0  0  0  0  0  0  0  0
  189.5960  172.6620  142.7440 C   0  0  2  0  0  3  0  0  0  0  0  0
  188.2590  172.2750  142.6110 O   0  0  0  0  0  1  0  0  0  0  0  0
  190.5190  171.4480  142.8120 C   0  0  0  0  0  2  0  0  0  0  0  0
  191.0370  171.0370  141.4410 C   0  0  0  0  0  2  0  0  0  0  0  0
  193.7120  171.6260  142.0380 S   0  0  0  0  0  0  0  0  0  0  0  0
  192.5370  172.5650  140.0220 C   0  0  0  0  0  3  0  0  0  0  0  0
  194.5730  172.6070  140.9750 C   0  0  0  0  0  0  0  0  0  0  0  0
  195.9590  172.9170  141.1180 N   0  0  0  0  0  2  0  0  0  0  0  0
  193.8120  173.0370  139.9430 N   0  0  0  0  0  0  0  0  0  0  0  0
  192.2980  171.7670  141.1370 C   0  0  0  0  0  0  0  0  0  0  0  0
  196.6500  173.7730  140.1600 C   0  0  0  0  0  2  0  0  0  0  0  0
  197.3970  174.8680  140.8950 C   0  0  0  0  0  2  0  0  0  0  0  0
  197.0260  174.8740  142.3790 C   0  0  0  0  0  2  0  0  0  0  0  0
  196.1430  176.0710  142.7620 C   0  0  2  0  0  0  0  0  0  0  0  0
  195.0520  175.6160  143.7560 C   0  0  2  0  0  3  0  0  0  0  0  0
  195.5440  176.6180  141.5930 O   0  0  0  0  0  0  0  0  0  0  0  0
  194.1730  176.2660  141.5880 C   0  0  0  0  0  2  0  0  0  0  0  0
  196.9740  177.0430  143.3320 O   0  0  0  0  0  1  0  0  0  0  0  0
  192.7680  175.2590  143.2180 O   0  0  0  0  0  0  0  0  0  0  0  0
  193.8690  175.6840  142.9020 C   0  0  0  0  0  0  0  0  0  0  0  0
  195.0080  175.8310  146.1470 O   0  0  0  0  0  1  0  0  0  0  0  0
  194.8520  176.5410  144.9560 C   0  0  0  0  0  2  0  0  0  0  0  0
  1  5  1  0  0  0  0
  2  3  1  0  0  0  0
  2  4  2  0  0  0  0
  3  1  2  0  0  0  0
  4  6  1  0  0  0  0
  6  5  2  0  0  0  0
  7  4  1  6  0  0  0
  9 11  1  0  0  0  0
  9  8  1  0  0  0  0
 10  8  1  6  0  0  0
 10  7  1  0  0  0  0
 11 12  1  0  0  0  0
 12  7  1  0  0  0  0
 13 14  1  0  0  0  0
 14 19  1  0  0  0  0
 15 17  1  1  0  0  0
 15 19  1  0  0  0  0
 16 13  1  1  0  0  0
 16 15  1  0  0  0  0
 18 10  1  6  0  0  0
 18 16  1  0  0  0  0
 18 15  1  0  0  0  0
 20  8  1  0  0  0  0
 21 22  1  0  0  0  0
 21 20  1  0  0  0  0
 24 23  1  0  0  0  0
 24 22  1  0  0  0  0
 25 26  1  1  0  0  0
 25 27  1  0  0  0  0
 25  3  1  0  0  0  0
 28 27  1  0  0  0  0
 30 34  2  0  0  0  0
 31 32  1  0  0  0  0
 31 29  1  0  0  0  0
 33 30  1  0  0  0  0
 33 31  2  0  0  0  0
 34 28  1  0  0  0  0
 34 29  1  0  0  0  0
 35 36  1  0  0  0  0
 35 32  1  0  0  0  0
 36 37  1  0  0  0  0
 37 38  1  0  0  0  0
 38 42  1  1  0  0  0
 38 39  1  0  0  0  0
 39 46  1  1  0  0  0
 40 38  1  0  0  0  0
 41 40  1  0  0  0  0
 41 44  1  0  0  0  0
 44 43  2  0  0  0  0
 44 39  1  0  0  0  0
 46 45  1  0  0  0  0
M  END
>  <MODEL>
5

>  <REMARK>
 VINA RESULT:      -6.4      1.779      4.248
  Name = 
  15 active torsions:
  status: ('A' for Active; 'I' for Inactive)
    1  A    between atoms: C_1  and  C_39
    2  A    between atoms: N_2  and  C_25
    3  A    between atoms: C_9  and  C_23
    4  A    between atoms: C_11  and  C_34
    5  A    between atoms: C_12  and  C_21
    6  A    between atoms: C_12  and  C_40
    7  A    between atoms: C_16  and  C_29
    8  A    between atoms: O_17  and  C_41
    9  A    between atoms: N_18  and  C_33
   10  A    between atoms: C_23  and  C_32
   11  A    between atoms: C_25  and  C_42
   12  A    between atoms: C_32  and  C_33
   13  A    between atoms: C_35  and  C_40
   14  A    between atoms: C_35  and  C_45
   15  A    between atoms: C_41  and  C_42
                            x       y       z     vdW  Elec       q    Type
                         _______ _______ _______ _____ _____    ______ ____

>  <TORSDO>
F 15

$$$$
=
 OpenBabel11042414333D

 46 51  0  0  1  0  0  0  0  0999 V2000
  188.0900  172.7260  140.4970 N   0  0  0  0  0  0  0  0  0  0  0  0
  188.9400  174.9520  140.5970 C   0  0  0  0  0  3  0  0  0  0  0  0
  188.8160  173.7280  139.9300 C   0  0  0  0  0  0  0  0  0  0  0  0
  188.2930  175.1470  141.8210 C   0  0  0  0  0  0  0  0  0  0  0  0
  187.4660  172.8820  141.6950 C   0  0  0  0  0  3  0  0  0  0  0  0
  187.5620  174.0920  142.3800 C   0  0  0  0  0  3  0  0  0  0  0  0
  188.4200  176.4810  142.5050 C   0  0  2  0  0  3  0  0  0  0  0  0
  186.5550  177.2870  144.0010 N   0  0  0  0  0  0  0  0  0  0  0  0
  185.7660  177.1540  142.7760 C   0  0  0  0  0  2  0  0  0  0  0  0
  187.7890  176.4820  143.9160 C   0  0  2  0  0  3  0  0  0  0  0  0
  186.4630  177.8770  141.6260 C   0  0  0  0  0  2  0  0  0  0  0  0
  187.9820  177.6810  141.6510 C   0  0  0  0  0  2  0  0  0  0  0  0
  189.5960  177.0910  147.2560 C   0  0  0  0  0  2  0  0  0  0  0  0
  191.0530  176.7910  146.9680 C   0  0  0  0  0  2  0  0  0  0  0  0
  189.9190  176.0180  145.2010 C   0  0  1  0  0  0  0  0  0  0  0  0
  188.8520  176.3040  146.2190 C   0  0  2  0  0  3  0  0  0  0  0  0
  189.8430  174.7280  144.6670 O   0  0  0  0  0  1  0  0  0  0  0  0
  188.8440  177.0430  144.8750 C   0  0  2  0  0  3  0  0  0  0  0  0
  191.1840  176.4780  145.6040 O   0  0  0  0  0  0  0  0  0  0  0  0
  185.7420  176.7380  145.0810 C   0  0  0  0  0  2  0  0  0  0  0  0
  184.8660  177.8170  145.7130 C   0  0  0  0  0  2  0  0  0  0  0  0
  185.6600  179.0810  146.0260 C   0  0  0  0  0  2  0  0  0  0  0  0
  186.5770  178.6920  148.0140 C   0  0  0  0  0  1  0  0  0  0  0  0
  185.5580  179.4150  147.3840 O   0  0  0  0  0  0  0  0  0  0  0  0
  189.5440  173.4460  138.6470 C   0  0  2  0  0  3  0  0  0  0  0  0
  188.6750  172.9310  137.6810 O   0  0  0  0  0  1  0  0  0  0  0  0
  190.8020  172.5910  138.7720 C   0  0  0  0  0  2  0  0  0  0  0  0
  192.0100  173.4000  139.2240 C   0  0  0  0  0  2  0  0  0  0  0  0
  191.5910  172.6010  141.8780 S   0  0  0  0  0  0  0  0  0  0  0  0
  193.8190  172.3750  140.7320 C   0  0  0  0  0  3  0  0  0  0  0  0
  192.8700  171.8980  142.7140 C   0  0  0  0  0  0  0  0  0  0  0  0
  192.7680  171.3750  144.0390 N   0  0  0  0  0  2  0  0  0  0  0  0
  194.0000  171.8460  141.9740 N   0  0  0  0  0  0  0  0  0  0  0  0
  192.5320  172.8560  140.5070 C   0  0  0  0  0  0  0  0  0  0  0  0
  193.9160  170.7760  144.7110 C   0  0  0  0  0  2  0  0  0  0  0  0
  194.5520  171.7860  145.6430 C   0  0  0  0  0  2  0  0  0  0  0  0
  195.8900  172.2710  145.0840 C   0  0  0  0  0  2  0  0  0  0  0  0
  196.0090  173.8030  145.0810 C   0  0  2  0  0  0  0  0  0  0  0  0
  194.6040  174.4350  145.2010 C   0  0  2  0  0  3  0  0  0  0  0  0
  196.6390  174.2330  143.8800 O   0  0  0  0  0  0  0  0  0  0  0  0
  195.6570  174.8220  143.0470 C   0  0  0  0  0  2  0  0  0  0  0  0
  196.8210  174.1650  146.1630 O   0  0  0  0  0  1  0  0  0  0  0  0
  193.3890  175.4280  143.4200 O   0  0  0  0  0  0  0  0  0  0  0  0
  194.4350  174.9670  143.8510 C   0  0  0  0  0  0  0  0  0  0  0  0
  194.9370  176.7740  145.6230 O   0  0  0  0  0  1  0  0  0  0  0  0
  194.5010  175.5820  146.2040 C   0  0  0  0  0  2  0  0  0  0  0  0
  1  5  1  0  0  0  0
  2  4  2  0  0  0  0
  3  1  2  0  0  0  0
  3  2  1  0  0  0  0
  4  6  1  0  0  0  0
  5  6  2  0  0  0  0
  7  4  1  6  0  0  0
  7 10  1  0  0  0  0
  8 20  1  0  0  0  0
  9  8  1  0  0  0  0
 10  8  1  6  0  0  0
 11 12  1  0  0  0  0
 11  9  1  0  0  0  0
 12  7  1  0  0  0  0
 14 13  1  0  0  0  0
 15 17  1  6  0  0  0
 15 19  1  0  0  0  0
 15 16  1  0  0  0  0
 16 13  1  1  0  0  0
 18 10  1  6  0  0  0
 18 15  1  0  0  0  0
 18 16  1  0  0  0  0
 19 14  1  0  0  0  0
 20 21  1  0  0  0  0
 21 22  1  0  0  0  0
 22 24  1  0  0  0  0
 24 23  1  0  0  0  0
 25 26  1  6  0  0  0
 25 27  1  0  0  0  0
 25  3  1  0  0  0  0
 27 28  1  0  0  0  0
 28 34  1  0  0  0  0
 29 31  1  0  0  0  0
 30 33  1  0  0  0  0
 31 32  1  0  0  0  0
 32 35  1  0  0  0  0
 33 31  2  0  0  0  0
 34 30  2  0  0  0  0
 34 29  1  0  0  0  0
 35 36  1  0  0  0  0
 37 36  1  0  0  0  0
 38 37  1  0  0  0  0
 38 39  1  0  0  0  0
 38 42  1  1  0  0  0
 39 46  1  1  0  0  0
 40 38  1  0  0  0  0
 41 44  1  0  0  0  0
 41 40  1  0  0  0  0
 43 44  2  0  0  0  0
 44 39  1  0  0  0  0
 45 46  1  0  0  0  0
M  END
>  <MODEL>
6

>  <REMARK>
 VINA RESULT:      -6.3      2.267      5.792
  Name = 
  15 active torsions:
  status: ('A' for Active; 'I' for Inactive)
    1  A    between atoms: C_1  and  C_39
    2  A    between atoms: N_2  and  C_25
    3  A    between atoms: C_9  and  C_23
    4  A    between atoms: C_11  and  C_34
    5  A    between atoms: C_12  and  C_21
    6  A    between atoms: C_12  and  C_40
    7  A    between atoms: C_16  and  C_29
    8  A    between atoms: O_17  and  C_41
    9  A    between atoms: N_18  and  C_33
   10  A    between atoms: C_23  and  C_32
   11  A    between atoms: C_25  and  C_42
   12  A    between atoms: C_32  and  C_33
   13  A    between atoms: C_35  and  C_40
   14  A    between atoms: C_35  and  C_45
   15  A    between atoms: C_41  and  C_42
                            x       y       z     vdW  Elec       q    Type
                         _______ _______ _______ _____ _____    ______ ____

>  <TORSDO>
F 15

$$$$
=
 OpenBabel11042414333D

 46 51  0  0  1  0  0  0  0  0999 V2000
  188.5440  172.8370  140.8200 N   0  0  0  0  0  0  0  0  0  0  0  0
  189.7970  174.8530  141.0570 C   0  0  0  0  0  3  0  0  0  0  0  0
  189.5120  173.6750  140.3560 C   0  0  0  0  0  0  0  0  0  0  0  0
  189.0680  175.1740  142.2050 C   0  0  0  0  0  0  0  0  0  0  0  0
  187.8320  173.1160  141.9440 C   0  0  0  0  0  3  0  0  0  0  0  0
  188.0860  174.2860  142.6590 C   0  0  0  0  0  3  0  0  0  0  0  0
  189.3770  176.4580  142.9250 C   0  0  2  0  0  3  0  0  0  0  0  0
  187.6930  177.4010  144.5510 N   0  0  0  0  0  0  0  0  0  0  0  0
  186.8300  177.4020  143.3690 C   0  0  0  0  0  2  0  0  0  0  0  0
  188.8250  176.4720  144.3690 C   0  0  2  0  0  3  0  0  0  0  0  0
  187.5410  178.0900  142.2070 C   0  0  0  0  0  2  0  0  0  0  0  0
  189.0280  177.7320  142.1380 C   0  0  0  0  0  2  0  0  0  0  0  0
  190.8210  176.8270  147.6370 C   0  0  0  0  0  2  0  0  0  0  0  0
  192.2090  176.3170  147.3010 C   0  0  0  0  0  2  0  0  0  0  0  0
  190.9100  175.7090  145.5820 C   0  0  1  0  0  0  0  0  0  0  0  0
  189.9340  176.1520  146.6350 C   0  0  2  0  0  3  0  0  0  0  0  0
  190.6290  174.4410  145.0650 O   0  0  0  0  0  1  0  0  0  0  0  0
  189.9850  176.8780  145.2840 C   0  0  2  0  0  3  0  0  0  0  0  0
  192.2420  175.9820  145.9370 O   0  0  0  0  0  0  0  0  0  0  0  0
  186.8830  176.9000  145.6570 C   0  0  0  0  0  2  0  0  0  0  0  0
  186.1200  178.0340  146.3370 C   0  0  0  0  0  2  0  0  0  0  0  0
  184.6380  177.7080  146.4900 C   0  0  0  0  0  2  0  0  0  0  0  0
  184.0670  179.0420  144.8060 C   0  0  0  0  0  1  0  0  0  0  0  0
  183.8430  178.8170  146.1690 O   0  0  0  0  0  0  0  0  0  0  0  0
  190.3100  173.2520  139.1570 C   0  0  2  0  0  3  0  0  0  0  0  0
  189.4750  172.7610  138.1480 O   0  0  0  0  0  1  0  0  0  0  0  0
  191.4670  172.2950  139.4320 C   0  0  0  0  0  2  0  0  0  0  0  0
  192.6160  172.4770  138.4510 C   0  0  0  0  0  2  0  0  0  0  0  0
  195.0310  172.4140  139.8720 S   0  0  0  0  0  0  0  0  0  0  0  0
  193.9630  174.5610  139.1130 C   0  0  0  0  0  3  0  0  0  0  0  0
  195.8160  173.8700  140.1820 C   0  0  0  0  0  0  0  0  0  0  0  0
  197.0880  173.9720  140.8230 N   0  0  0  0  0  2  0  0  0  0  0  0
  195.1240  174.9350  139.7180 N   0  0  0  0  0  0  0  0  0  0  0  0
  193.7420  173.1870  139.1160 C   0  0  0  0  0  0  0  0  0  0  0  0
  197.7170  175.2650  141.0630 C   0  0  0  0  0  2  0  0  0  0  0  0
  197.5240  175.6720  142.5090 C   0  0  0  0  0  2  0  0  0  0  0  0
  196.3070  176.5880  142.6550 C   0  0  0  0  0  2  0  0  0  0  0  0
  195.3270  176.1000  143.7330 C   0  0  2  0  0  0  0  0  0  0  0  0
  195.7630  174.7090  144.2430 C   0  0  2  0  0  3  0  0  0  0  0  0
  194.0130  176.0340  143.1900 O   0  0  0  0  0  0  0  0  0  0  0  0
  193.6780  174.6710  143.0000 C   0  0  0  0  0  2  0  0  0  0  0  0
  195.3340  177.0440  144.7670 O   0  0  0  0  0  1  0  0  0  0  0  0
  194.7370  172.6490  143.6600 O   0  0  0  0  0  0  0  0  0  0  0  0
  194.7210  173.8710  143.6560 C   0  0  0  0  0  0  0  0  0  0  0  0
  196.7230  173.6470  146.1700 O   0  0  0  0  0  1  0  0  0  0  0  0
  195.7360  174.5450  145.7620 C   0  0  0  0  0  2  0  0  0  0  0  0
  1  5  1  0  0  0  0
  2  4  2  0  0  0  0
  3  1  2  0  0  0  0
  3  2  1  0  0  0  0
  4  6  1  0  0  0  0
  5  6  2  0  0  0  0
  7  4  1  6  0  0  0
  7 10  1  0  0  0  0
  8 20  1  0  0  0  0
  9  8  1  0  0  0  0
 10  8  1  6  0  0  0
 11  9  1  0  0  0  0
 12 11  1  0  0  0  0
 12  7  1  0  0  0  0
 14 13  1  0  0  0  0
 15 17  1  6  0  0  0
 15 19  1  0  0  0  0
 15 16  1  0  0  0  0
 16 13  1  1  0  0  0
 18 10  1  6  0  0  0
 18 15  1  0  0  0  0
 18 16  1  0  0  0  0
 19 14  1  0  0  0  0
 20 21  1  0  0  0  0
 21 22  1  0  0  0  0
 23 24  1  0  0  0  0
 24 22  1  0  0  0  0
 25 26  1  6  0  0  0
 25 27  1  0  0  0  0
 25  3  1  0  0  0  0
 28 34  1  0  0  0  0
 28 27  1  0  0  0  0
 29 31  1  0  0  0  0
 30 34  2  0  0  0  0
 30 33  1  0  0  0  0
 31 32  1  0  0  0  0
 32 35  1  0  0  0  0
 33 31  2  0  0  0  0
 34 29  1  0  0  0  0
 35 36  1  0  0  0  0
 36 37  1  0  0  0  0
 37 38  1  0  0  0  0
 38 39  1  0  0  0  0
 38 42  1  1  0  0  0
 39 46  1  1  0  0  0
 40 38  1  0  0  0  0
 41 40  1  0  0  0  0
 41 44  1  0  0  0  0
 44 43  2  0  0  0  0
 44 39  1  0  0  0  0
 46 45  1  0  0  0  0
M  END
>  <MODEL>
7

>  <REMARK>
 VINA RESULT:      -6.3      2.234      5.563
  Name = 
  15 active torsions:
  status: ('A' for Active; 'I' for Inactive)
    1  A    between atoms: C_1  and  C_39
    2  A    between atoms: N_2  and  C_25
    3  A    between atoms: C_9  and  C_23
    4  A    between atoms: C_11  and  C_34
    5  A    between atoms: C_12  and  C_21
    6  A    between atoms: C_12  and  C_40
    7  A    between atoms: C_16  and  C_29
    8  A    between atoms: O_17  and  C_41
    9  A    between atoms: N_18  and  C_33
   10  A    between atoms: C_23  and  C_32
   11  A    between atoms: C_25  and  C_42
   12  A    between atoms: C_32  and  C_33
   13  A    between atoms: C_35  and  C_40
   14  A    between atoms: C_35  and  C_45
   15  A    between atoms: C_41  and  C_42
                            x       y       z     vdW  Elec       q    Type
                         _______ _______ _______ _____ _____    ______ ____

>  <TORSDO>
F 15

$$$$
=
 OpenBabel11042414333D

 46 51  0  0  1  0  0  0  0  0999 V2000
  187.6220  176.2860  147.1640 N   0  0  0  0  0  0  0  0  0  0  0  0
  188.4310  176.7490  144.9680 C   0  0  0  0  0  3  0  0  0  0  0  0
  187.5620  177.0340  146.0280 C   0  0  0  0  0  0  0  0  0  0  0  0
  189.3730  175.7240  145.0960 C   0  0  0  0  0  0  0  0  0  0  0  0
  188.5160  175.2710  147.3070 C   0  0  0  0  0  3  0  0  0  0  0  0
  189.4010  174.9690  146.2740 C   0  0  0  0  0  3  0  0  0  0  0  0
  190.3130  175.4550  143.9520 C   0  0  2  0  0  3  0  0  0  0  0  0
  192.7640  175.0880  144.4260 N   0  0  0  0  0  0  0  0  0  0  0  0
  192.6620  176.4290  145.0030 C   0  0  0  0  0  2  0  0  0  0  0  0
  191.4320  174.4590  144.3320 C   0  0  2  0  0  3  0  0  0  0  0  0
  192.0020  177.3770  144.0050 C   0  0  0  0  0  2  0  0  0  0  0  0
  190.8440  176.7160  143.2520 C   0  0  0  0  0  2  0  0  0  0  0  0
  192.2820  171.0880  142.6870 C   0  0  0  0  0  2  0  0  0  0  0  0
  190.9520  170.5470  142.2040 C   0  0  0  0  0  2  0  0  0  0  0  0
  190.4500  172.2620  143.5510 C   0  0  1  0  0  0  0  0  0  0  0  0
  191.9120  172.0180  143.8030 C   0  0  2  0  0  3  0  0  0  0  0  0
  189.6860  172.3000  144.7210 O   0  0  0  0  0  1  0  0  0  0  0  0
  191.4450  173.3720  143.2520 C   0  0  2  0  0  3  0  0  0  0  0  0
  189.9560  171.4980  142.4800 O   0  0  0  0  0  0  0  0  0  0  0  0
  193.5630  174.2950  145.3540 C   0  0  0  0  0  2  0  0  0  0  0  0
  194.8110  175.0560  145.7940 C   0  0  0  0  0  2  0  0  0  0  0  0
  196.0480  174.1630  145.8000 C   0  0  0  0  0  2  0  0  0  0  0  0
  196.6720  172.0340  145.6510 C   0  0  0  0  0  1  0  0  0  0  0  0
  195.8190  172.9840  145.0770 O   0  0  0  0  0  0  0  0  0  0  0  0
  186.4910  178.0800  145.9160 C   0  0  2  0  0  3  0  0  0  0  0  0
  185.7410  178.1560  147.0930 O   0  0  0  0  0  1  0  0  0  0  0  0
  185.5870  177.9760  144.6900 C   0  0  0  0  0  2  0  0  0  0  0  0
  185.8480  179.0860  143.6820 C   0  0  0  0  0  2  0  0  0  0  0  0
  187.4320  177.9030  141.6940 S   0  0  0  0  0  0  0  0  0  0  0  0
  184.9590  178.2730  141.4140 C   0  0  0  0  0  3  0  0  0  0  0  0
  186.6830  177.3780  140.2820 C   0  0  0  0  0  0  0  0  0  0  0  0
  187.3580  176.6890  139.2280 N   0  0  0  0  0  2  0  0  0  0  0  0
  185.3580  177.6450  140.2730 N   0  0  0  0  0  0  0  0  0  0  0  0
  185.9910  178.5080  142.3180 C   0  0  0  0  0  0  0  0  0  0  0  0
  186.6520  176.2570  138.0270 C   0  0  0  0  0  2  0  0  0  0  0  0
  187.5330  175.3290  137.2170 C   0  0  0  0  0  2  0  0  0  0  0  0
  188.1010  174.2150  138.1000 C   0  0  0  0  0  2  0  0  0  0  0  0
  189.4540  173.6930  137.5930 C   0  0  2  0  0  0  0  0  0  0  0  0
  189.3140  172.2160  137.1630 C   0  0  2  0  0  3  0  0  0  0  0  0
  190.4290  173.8130  138.6220 O   0  0  0  0  0  0  0  0  0  0  0  0
  190.7020  172.5200  139.1310 C   0  0  0  0  0  2  0  0  0  0  0  0
  189.8420  174.4990  136.5170 O   0  0  0  0  0  1  0  0  0  0  0  0
  190.0780  170.3440  138.4070 O   0  0  0  0  0  0  0  0  0  0  0  0
  190.0500  171.5540  138.2370 C   0  0  0  0  0  0  0  0  0  0  0  0
  188.9980  171.5470  134.8790 O   0  0  0  0  0  1  0  0  0  0  0  0
  189.9700  171.8730  135.8260 C   0  0  0  0  0  2  0  0  0  0  0  0
  1  5  1  0  0  0  0
  2  4  2  0  0  0  0
  2  3  1  0  0  0  0
  3  1  2  0  0  0  0
  4  6  1  0  0  0  0
  6  5  2  0  0  0  0
  7 10  1  0  0  0  0
  7  4  1  1  0  0  0
  8  9  1  0  0  0  0
  8 20  1  0  0  0  0
 10  8  1  6  0  0  0
 11  9  1  0  0  0  0
 12  7  1  0  0  0  0
 12 11  1  0  0  0  0
 14 19  1  0  0  0  0
 14 13  1  0  0  0  0
 15 16  1  0  0  0  0
 15 17  1  1  0  0  0
 16 13  1  6  0  0  0
 18 15  1  0  0  0  0
 18 16  1  0  0  0  0
 18 10  1  1  0  0  0
 19 15  1  0  0  0  0
 20 21  1  0  0  0  0
 21 22  1  0  0  0  0
 24 23  1  0  0  0  0
 24 22  1  0  0  0  0
 25  3  1  0  0  0  0
 25 26  1  1  0  0  0
 27 25  1  0  0  0  0
 28 27  1  0  0  0  0
 29 34  1  0  0  0  0
 30 34  2  0  0  0  0
 31 29  1  0  0  0  0
 32 31  1  0  0  0  0
 33 31  2  0  0  0  0
 33 30  1  0  0  0  0
 34 28  1  0  0  0  0
 35 32  1  0  0  0  0
 36 35  1  0  0  0  0
 36 37  1  0  0  0  0
 38 42  1  6  0  0  0
 38 37  1  0  0  0  0
 38 40  1  0  0  0  0
 39 46  1  6  0  0  0
 39 38  1  0  0  0  0
 39 44  1  0  0  0  0
 40 41  1  0  0  0  0
 44 43  2  0  0  0  0
 44 41  1  0  0  0  0
 45 46  1  0  0  0  0
M  END
>  <MODEL>
8

>  <REMARK>
 VINA RESULT:      -6.2      2.675      7.402
  Name = 
  15 active torsions:
  status: ('A' for Active; 'I' for Inactive)
    1  A    between atoms: C_1  and  C_39
    2  A    between atoms: N_2  and  C_25
    3  A    between atoms: C_9  and  C_23
    4  A    between atoms: C_11  and  C_34
    5  A    between atoms: C_12  and  C_21
    6  A    between atoms: C_12  and  C_40
    7  A    between atoms: C_16  and  C_29
    8  A    between atoms: O_17  and  C_41
    9  A    between atoms: N_18  and  C_33
   10  A    between atoms: C_23  and  C_32
   11  A    between atoms: C_25  and  C_42
   12  A    between atoms: C_32  and  C_33
   13  A    between atoms: C_35  and  C_40
   14  A    between atoms: C_35  and  C_45
   15  A    between atoms: C_41  and  C_42
                            x       y       z     vdW  Elec       q    Type
                         _______ _______ _______ _____ _____    ______ ____

>  <TORSDO>
F 15

$$$$
=
 OpenBabel11042414333D

 46 51  0  0  1  0  0  0  0  0999 V2000
  192.6990  168.8090  143.6560 N   0  0  0  0  0  0  0  0  0  0  0  0
  193.1400  171.1340  143.9540 C   0  0  0  0  0  3  0  0  0  0  0  0
  192.3830  170.1050  143.3820 C   0  0  0  0  0  0  0  0  0  0  0  0
  194.1900  170.8260  144.8240 C   0  0  0  0  0  0  0  0  0  0  0  0
  193.7260  168.4810  144.4840 C   0  0  0  0  0  3  0  0  0  0  0  0
  194.4930  169.4830  145.0770 C   0  0  0  0  0  3  0  0  0  0  0  0
  194.9720  171.9510  145.4460 C   0  0  2  0  0  3  0  0  0  0  0  0
  196.0500  173.6790  143.9560 N   0  0  0  0  0  0  0  0  0  0  0  0
  196.7390  172.5090  143.4110 C   0  0  0  0  0  2  0  0  0  0  0  0
  194.8200  173.2760  144.6650 C   0  0  2  0  0  3  0  0  0  0  0  0
  197.3540  171.6920  144.5440 C   0  0  0  0  0  2  0  0  0  0  0  0
  196.4360  171.6090  145.7670 C   0  0  0  0  0  2  0  0  0  0  0  0
  193.6710  176.7160  145.9460 C   0  0  0  0  0  2  0  0  0  0  0  0
  192.5370  176.4130  146.9050 C   0  0  0  0  0  2  0  0  0  0  0  0
  192.9230  174.5020  145.8050 C   0  0  1  0  0  0  0  0  0  0  0  0
  193.6990  175.5290  145.0300 C   0  0  2  0  0  3  0  0  0  0  0  0
  192.0740  173.7300  145.0060 O   0  0  0  0  0  1  0  0  0  0  0  0
  194.4310  174.3510  145.6850 C   0  0  2  0  0  3  0  0  0  0  0  0
  192.3940  175.0180  147.0000 O   0  0  0  0  0  0  0  0  0  0  0  0
  195.6550  174.4990  142.8150 C   0  0  0  0  0  2  0  0  0  0  0  0
  194.6390  173.7690  141.9410 C   0  0  0  0  0  2  0  0  0  0  0  0
  194.9510  173.9270  140.4560 C   0  0  0  0  0  2  0  0  0  0  0  0
  193.2780  174.4490  139.0880 C   0  0  0  0  0  1  0  0  0  0  0  0
  194.2590  175.0160  139.9100 O   0  0  0  0  0  0  0  0  0  0  0  0
  191.2900  170.3800  142.3910 C   0  0  2  0  0  3  0  0  0  0  0  0
  190.8510  169.1980  141.7880 O   0  0  0  0  0  1  0  0  0  0  0  0
  191.5920  171.4540  141.3490 C   0  0  0  0  0  2  0  0  0  0  0  0
  190.5600  171.4840  140.2310 C   0  0  0  0  0  2  0  0  0  0  0  0
  189.4790  173.5520  141.7840 S   0  0  0  0  0  0  0  0  0  0  0  0
  189.1140  173.3920  139.3010 C   0  0  0  0  0  3  0  0  0  0  0  0
  188.5950  174.7560  141.0100 C   0  0  0  0  0  0  0  0  0  0  0  0
  188.0600  175.9050  141.6700 N   0  0  0  0  0  2  0  0  0  0  0  0
  188.4810  174.5350  139.6810 N   0  0  0  0  0  0  0  0  0  0  0  0
  189.7190  172.7060  140.3500 C   0  0  0  0  0  0  0  0  0  0  0  0
  187.3020  176.9150  140.9420 C   0  0  0  0  0  2  0  0  0  0  0  0
  186.0830  177.3210  141.7440 C   0  0  0  0  0  2  0  0  0  0  0  0
  186.1260  176.7050  143.1440 C   0  0  0  0  0  2  0  0  0  0  0  0
  186.4850  177.7310  144.2290 C   0  0  2  0  0  0  0  0  0  0  0  0
  185.9790  177.2350  145.6020 C   0  0  2  0  0  3  0  0  0  0  0  0
  185.8970  178.9870  143.9150 O   0  0  0  0  0  0  0  0  0  0  0  0
  184.8090  179.2030  144.7950 C   0  0  0  0  0  2  0  0  0  0  0  0
  187.8770  177.8780  144.2270 O   0  0  0  0  0  1  0  0  0  0  0  0
  184.0610  178.0530  146.7360 O   0  0  0  0  0  0  0  0  0  0  0  0
  184.8720  178.1610  145.8280 C   0  0  0  0  0  0  0  0  0  0  0  0
  187.6490  176.1650  146.9540 O   0  0  0  0  0  1  0  0  0  0  0  0
  186.9840  177.3730  146.7440 C   0  0  0  0  0  2  0  0  0  0  0  0
  1  5  1  0  0  0  0
  2  4  2  0  0  0  0
  3  1  2  0  0  0  0
  3  2  1  0  0  0  0
  4  6  1  0  0  0  0
  5  6  2  0  0  0  0
  7  4  1  6  0  0  0
  7 12  1  0  0  0  0
  9  8  1  0  0  0  0
  9 11  1  0  0  0  0
 10  8  1  1  0  0  0
 10  7  1  0  0  0  0
 11 12  1  0  0  0  0
 13 14  1  0  0  0  0
 14 19  1  0  0  0  0
 15 17  1  6  0  0  0
 15 19  1  0  0  0  0
 16 18  1  0  0  0  0
 16 15  1  0  0  0  0
 16 13  1  1  0  0  0
 18 10  1  6  0  0  0
 18 15  1  0  0  0  0
 20  8  1  0  0  0  0
 21 20  1  0  0  0  0
 22 21  1  0  0  0  0
 23 24  1  0  0  0  0
 24 22  1  0  0  0  0
 25 26  1  6  0  0  0
 25  3  1  0  0  0  0
 27 25  1  0  0  0  0
 28 34  1  0  0  0  0
 28 27  1  0  0  0  0
 30 33  1  0  0  0  0
 30 34  2  0  0  0  0
 31 32  1  0  0  0  0
 31 29  1  0  0  0  0
 33 31  2  0  0  0  0
 34 29  1  0  0  0  0
 35 32  1  0  0  0  0
 35 36  1  0  0  0  0
 36 37  1  0  0  0  0
 37 38  1  0  0  0  0
 38 42  1  1  0  0  0
 38 39  1  0  0  0  0
 39 44  1  0  0  0  0
 39 46  1  1  0  0  0
 40 38  1  0  0  0  0
 40 41  1  0  0  0  0
 41 44  1  0  0  0  0
 44 43  2  0  0  0  0
 46 45  1  0  0  0  0
M  END
>  <MODEL>
9

>  <REMARK>
 VINA RESULT:      -6.2      2.628      8.022
  Name = 
  15 active torsions:
  status: ('A' for Active; 'I' for Inactive)
    1  A    between atoms: C_1  and  C_39
    2  A    between atoms: N_2  and  C_25
    3  A    between atoms: C_9  and  C_23
    4  A    between atoms: C_11  and  C_34
    5  A    between atoms: C_12  and  C_21
    6  A    between atoms: C_12  and  C_40
    7  A    between atoms: C_16  and  C_29
    8  A    between atoms: O_17  and  C_41
    9  A    between atoms: N_18  and  C_33
   10  A    between atoms: C_23  and  C_32
   11  A    between atoms: C_25  and  C_42
   12  A    between atoms: C_32  and  C_33
   13  A    between atoms: C_35  and  C_40
   14  A    between atoms: C_35  and  C_45
   15  A    between atoms: C_41  and  C_42
                            x       y       z     vdW  Elec       q    Type
                         _______ _______ _______ _____ _____    ______ ____

>  <TORSDO>
F 15

$$$$
