=
 OpenBabel11042416013D

 43 46  0  0  1  0  0  0  0  0999 V2000
  193.2070  174.2370  143.0720 C   0  0  2  0  0  3  0  0  0  0  0  0
  195.2270  173.3750  142.1680 N   0  0  0  0  0  0  0  0  0  0  0  0
  191.3120  172.9020  141.8930 C   0  0  0  0  0  2  0  0  0  0  0  0
  189.2830  174.7710  143.0250 C   0  0  0  0  0  2  0  0  0  0  0  0
  188.5910  173.7390  141.1920 C   0  0  0  0  0  2  0  0  0  0  0  0
  190.8740  175.2990  145.7030 C   0  0  1  0  0  3  0  0  0  0  0  0
  189.6150  173.4120  140.1040 C   0  0  0  0  0  2  0  0  0  0  0  0
  195.2260  173.6600  144.6130 C   0  0  2  0  0  3  0  0  0  0  0  0
  193.9880  173.5290  142.0710 N   0  0  0  0  0  0  0  0  0  0  0  0
  193.7680  173.9810  144.4510 C   0  0  0  0  0  0  0  0  0  0  0  0
  190.2630  177.2070  144.2680 O   0  0  0  0  0  1  0  0  0  0  0  0
  196.3540  175.6070  143.0750 Cl  0  0  0  0  0  0  0  0  0  0  0  0
  195.9880  173.8770  143.2980 C   0  0  2  0  0  3  0  0  0  0  0  0
  191.6930  173.8900  143.0110 C   0  0  2  0  0  3  0  0  0  0  0  0
  191.0250  176.0370  144.3450 C   0  0  2  0  0  3  0  0  0  0  0  0
  190.7650  175.1370  143.1190 C   0  0  2  0  0  3  0  0  0  0  0  0
  192.2220  174.9700  146.2710 C   0  0  0  0  0  3  0  0  0  0  0  0
  191.0590  173.6080  140.5670 C   0  0  0  0  0  2  0  0  0  0  0  0
  188.8230  175.0070  141.7260 O   0  0  0  0  0  0  0  0  0  0  0  0
  193.0850  174.4390  145.4570 C   0  0  0  0  0  0  0  0  0  0  0  0
  195.4220  172.2700  145.1420 C   0  0  0  0  0  0  0  0  0  0  0  0
  194.5820  170.0510  145.6510 C   0  0  0  0  0  3  0  0  0  0  0  0
  196.8800  170.6190  146.1540 C   0  0  0  0  0  3  0  0  0  0  0  0
  195.8390  169.6860  146.1570 C   0  0  0  0  0  0  0  0  0  0  0  0
  196.6730  171.9060  145.6500 C   0  0  0  0  0  3  0  0  0  0  0  0
  194.3740  171.3370  145.1480 C   0  0  0  0  0  3  0  0  0  0  0  0
  196.3470  168.1660  148.0410 C   0  0  0  0  0  1  0  0  0  0  0  0
  196.0800  168.4080  146.6660 O   0  0  0  0  0  0  0  0  0  0  0  0
  190.0510  176.0450  146.7500 C   0  0  0  0  0  2  0  0  0  0  0  0
  188.6830  175.4070  146.9370 C   0  0  0  0  0  2  0  0  0  0  0  0
  187.5980  176.4680  146.9820 C   0  0  0  0  0  2  0  0  0  0  0  0
  187.4100  177.0510  145.5960 C   0  0  0  0  0  2  0  0  0  0  0  0
  186.4030  178.1910  145.6290 C   0  0  2  0  0  3  0  0  0  0  0  0
  186.0370  178.4110  146.9570 O   0  0  0  0  0  1  0  0  0  0  0  0
  185.3430  176.6260  144.1410 O   0  0  0  0  0  1  0  0  0  0  0  0
  185.1640  177.8600  144.7770 C   0  0  2  0  0  3  0  0  0  0  0  0
  184.8310  178.9430  143.7300 C   0  0  0  0  0  0  0  0  0  0  0  0
  185.3350  180.1750  144.1600 O   0  0  0  0  0  1  0  0  0  0  0  0
  183.4470  179.0550  143.5750 O   0  0  0  0  0  1  0  0  0  0  0  0
  185.4370  178.5800  142.3910 C   0  0  0  0  0  0  0  0  0  0  0  0
  184.6790  178.3500  141.4110 O   0  0  0  0  0  0  0  0  0  0  0  0
  187.4120  177.9360  141.0300 C   0  0  0  0  0  1  0  0  0  0  0  0
  186.8210  178.5030  142.1910 O   0  0  0  0  0  0  0  0  0  0  0  0
  1  9  1  6  0  0  0
  1 10  1  0  0  0  0
  2 13  1  0  0  0  0
  5 19  1  0  0  0  0
  6 17  1  0  0  0  0
  6 29  1  1  0  0  0
  7 18  1  0  0  0  0
  7  5  1  0  0  0  0
  8 21  1  6  0  0  0
  9  2  2  0  0  0  0
 10  8  1  0  0  0  0
 10 20  2  0  0  0  0
 13 12  1  6  0  0  0
 13  8  1  0  0  0  0
 14  3  1  6  0  0  0
 14  1  1  0  0  0  0
 14 16  1  0  0  0  0
 15 11  1  1  0  0  0
 15  6  1  0  0  0  0
 16  4  1  1  0  0  0
 16 15  1  0  0  0  0
 18  3  1  0  0  0  0
 19  4  1  0  0  0  0
 20 17  2  0  0  0  0
 21 26  2  0  0  0  0
 21 25  1  0  0  0  0
 22 24  2  0  0  0  0
 23 24  1  0  0  0  0
 24 28  1  0  0  0  0
 25 23  2  0  0  0  0
 26 22  1  0  0  0  0
 28 27  1  0  0  0  0
 29 30  1  0  0  0  0
 30 31  1  0  0  0  0
 32 33  1  0  0  0  0
 32 31  1  0  0  0  0
 33 34  1  1  0  0  0
 36 35  1  6  0  0  0
 36 33  1  0  0  0  0
 37 38  1  0  0  0  0
 37 36  1  0  0  0  0
 39 37  1  0  0  0  0
 40 37  1  0  0  0  0
 41 40  2  0  0  0  0
 42 43  1  0  0  0  0
 43 40  1  0  0  0  0
M  END
>  <MODEL>
1

>  <REMARK>
 VINA RESULT:      -7.6      0.000      0.000
  Name = 
  11 active torsions:
  status: ('A' for Active; 'I' for Inactive)
    1  A    between atoms: C_1  and  C_25
    2  A    between atoms: C_1  and  C_39
    3  A    between atoms: C_2  and  C_16
    4  A    between atoms: C_2  and  O_18
    5  A    between atoms: C_4  and  C_14
    6  A    between atoms: C_11  and  C_30
    7  A    between atoms: C_16  and  C_39
    8  A    between atoms: C_22  and  O_32
    9  A    between atoms: C_25  and  C_27
   10  A    between atoms: C_27  and  C_41
   11  A    between atoms: C_30  and  C_41
                            x       y       z     vdW  Elec       q    Type
                         _______ _______ _______ _____ _____    ______ ____

>  <TORSDO>
F 11

$$$$
=
 OpenBabel11042416013D

 43 46  0  0  1  0  0  0  0  0999 V2000
  193.3950  173.5710  145.1070 C   0  0  2  0  0  3  0  0  0  0  0  0
  195.6950  173.7160  145.6820 N   0  0  0  0  0  0  0  0  0  0  0  0
  192.4150  175.9230  145.6260 C   0  0  0  0  0  2  0  0  0  0  0  0
  189.6550  174.8690  145.2240 C   0  0  0  0  0  2  0  0  0  0  0  0
  189.7200  176.6760  146.5030 C   0  0  0  0  0  2  0  0  0  0  0  0
  190.4890  172.7830  143.0030 C   0  0  1  0  0  3  0  0  0  0  0  0
  190.9290  176.8830  147.4180 C   0  0  0  0  0  2  0  0  0  0  0  0
  195.2340  172.6130  143.5310 C   0  0  2  0  0  3  0  0  0  0  0  0
  194.5320  174.1680  145.7890 N   0  0  0  0  0  0  0  0  0  0  0  0
  193.8130  173.0450  143.7540 C   0  0  0  0  0  0  0  0  0  0  0  0
  189.3450  171.9860  145.0340 O   0  0  0  0  0  1  0  0  0  0  0  0
  195.6480  171.0580  145.7310 Cl  0  0  0  0  0  0  0  0  0  0  0  0
  196.0110  172.5670  144.8540 C   0  0  2  0  0  3  0  0  0  0  0  0
  192.1890  174.5430  144.9820 C   0  0  2  0  0  3  0  0  0  0  0  0
  190.5070  172.5900  144.5430 C   0  0  2  0  0  3  0  0  0  0  0  0
  190.8200  173.8830  145.3250 C   0  0  2  0  0  3  0  0  0  0  0  0
  191.7580  172.2610  142.3970 C   0  0  0  0  0  3  0  0  0  0  0  0
  192.0780  175.9230  147.1120 C   0  0  0  0  0  2  0  0  0  0  0  0
  189.3250  175.3380  146.5000 O   0  0  0  0  0  0  0  0  0  0  0  0
  192.8680  172.6100  142.9760 C   0  0  0  0  0  0  0  0  0  0  0  0
  195.9150  173.4860  142.5200 C   0  0  0  0  0  0  0  0  0  0  0  0
  196.0730  175.5510  141.2550 C   0  0  0  0  0  3  0  0  0  0  0  0
  197.7110  173.8010  140.9220 C   0  0  0  0  0  3  0  0  0  0  0  0
  197.2230  175.0740  140.6080 C   0  0  0  0  0  0  0  0  0  0  0  0
  197.0600  173.0100  141.8720 C   0  0  0  0  0  3  0  0  0  0  0  0
  195.4210  174.7600  142.2040 C   0  0  0  0  0  3  0  0  0  0  0  0
  197.9410  175.4910  138.2790 C   0  0  0  0  0  1  0  0  0  0  0  0
  197.8990  175.8390  139.6560 O   0  0  0  0  0  0  0  0  0  0  0  0
  189.2930  172.1570  142.2910 C   0  0  0  0  0  2  0  0  0  0  0  0
  188.2540  173.2060  141.9250 C   0  0  0  0  0  2  0  0  0  0  0  0
  188.9040  174.5660  141.7460 C   0  0  0  0  0  2  0  0  0  0  0  0
  187.8830  175.5410  141.1980 C   0  0  0  0  0  2  0  0  0  0  0  0
  187.9200  176.8470  141.9780 C   0  0  2  0  0  3  0  0  0  0  0  0
  189.2180  177.0320  142.4570 O   0  0  0  0  0  1  0  0  0  0  0  0
  186.1410  175.6600  143.0790 O   0  0  0  0  0  1  0  0  0  0  0  0
  186.9150  176.8240  143.1440 C   0  0  2  0  0  3  0  0  0  0  0  0
  185.9950  178.0620  143.1870 C   0  0  0  0  0  0  0  0  0  0  0  0
  184.6780  177.6690  142.9270 O   0  0  0  0  0  1  0  0  0  0  0  0
  186.3860  178.9880  142.2180 O   0  0  0  0  0  1  0  0  0  0  0  0
  186.0740  178.7260  144.5460 C   0  0  0  0  0  0  0  0  0  0  0  0
  185.7270  179.9310  144.6660 O   0  0  0  0  0  0  0  0  0  0  0  0
  185.6200  177.4320  146.6160 C   0  0  0  0  0  1  0  0  0  0  0  0
  186.5070  178.0430  145.6890 O   0  0  0  0  0  0  0  0  0  0  0  0
  1 10  1  6  0  0  0
  1  9  1  0  0  0  0
  2  9  2  0  0  0  0
  3 18  1  0  0  0  0
  4 19  1  0  0  0  0
  5  7  1  0  0  0  0
  6 29  1  6  0  0  0
  6 15  1  0  0  0  0
  8 21  1  6  0  0  0
  8 10  1  0  0  0  0
  8 13  1  0  0  0  0
 13  2  1  0  0  0  0
 13 12  1  1  0  0  0
 14  1  1  0  0  0  0
 14 16  1  0  0  0  0
 14  3  1  1  0  0  0
 15 11  1  1  0  0  0
 15 16  1  0  0  0  0
 16  4  1  6  0  0  0
 17 20  2  0  0  0  0
 17  6  1  0  0  0  0
 18  7  1  0  0  0  0
 19  5  1  0  0  0  0
 20 10  2  0  0  0  0
 22 26  2  0  0  0  0
 23 25  1  0  0  0  0
 24 23  2  0  0  0  0
 24 22  1  0  0  0  0
 25 21  2  0  0  0  0
 26 21  1  0  0  0  0
 27 28  1  0  0  0  0
 28 24  1  0  0  0  0
 30 29  1  0  0  0  0
 31 30  1  0  0  0  0
 32 31  1  0  0  0  0
 32 33  1  0  0  0  0
 33 34  1  1  0  0  0
 33 36  1  0  0  0  0
 36 35  1  6  0  0  0
 36 37  1  0  0  0  0
 37 40  1  0  0  0  0
 38 37  1  0  0  0  0
 39 37  1  0  0  0  0
 40 41  2  0  0  0  0
 40 43  1  0  0  0  0
 43 42  1  0  0  0  0
M  END
>  <MODEL>
2

>  <REMARK>
 VINA RESULT:      -7.4      2.610      5.049
  Name = 
  11 active torsions:
  status: ('A' for Active; 'I' for Inactive)
    1  A    between atoms: C_1  and  C_25
    2  A    between atoms: C_1  and  C_39
    3  A    between atoms: C_2  and  C_16
    4  A    between atoms: C_2  and  O_18
    5  A    between atoms: C_4  and  C_14
    6  A    between atoms: C_11  and  C_30
    7  A    between atoms: C_16  and  C_39
    8  A    between atoms: C_22  and  O_32
    9  A    between atoms: C_25  and  C_27
   10  A    between atoms: C_27  and  C_41
   11  A    between atoms: C_30  and  C_41
                            x       y       z     vdW  Elec       q    Type
                         _______ _______ _______ _____ _____    ______ ____

>  <TORSDO>
F 11

$$$$
=
 OpenBabel11042416013D

 43 46  0  0  1  0  0  0  0  0999 V2000
  192.5860  173.2580  142.6090 C   0  0  2  0  0  3  0  0  0  0  0  0
  192.8350  171.6450  140.8840 N   0  0  0  0  0  0  0  0  0  0  0  0
  194.4100  175.0490  142.1330 C   0  0  0  0  0  2  0  0  0  0  0  0
  193.8800  176.3040  144.7860 C   0  0  0  0  0  2  0  0  0  0  0  0
  195.9050  176.7410  144.0030 C   0  0  0  0  0  2  0  0  0  0  0  0
  190.7990  175.6060  144.7970 C   0  0  1  0  0  3  0  0  0  0  0  0
  196.6170  175.6710  143.1740 C   0  0  0  0  0  2  0  0  0  0  0  0
  190.5120  172.3140  141.3480 C   0  0  2  0  0  3  0  0  0  0  0  0
  193.3220  172.5860  141.5510 N   0  0  0  0  0  0  0  0  0  0  0  0
  191.1200  173.3450  142.2540 C   0  0  0  0  0  0  0  0  0  0  0  0
  192.2190  174.8210  146.6520 O   0  0  0  0  0  1  0  0  0  0  0  0
  191.4570  170.0190  142.4750 Cl  0  0  0  0  0  0  0  0  0  0  0  0
  191.4860  171.1530  141.1000 C   0  0  2  0  0  3  0  0  0  0  0  0
  193.1640  174.6610  142.9490 C   0  0  2  0  0  3  0  0  0  0  0  0
  191.9770  174.7170  145.2780 C   0  0  2  0  0  3  0  0  0  0  0  0
  193.2800  174.9310  144.4790 C   0  0  2  0  0  3  0  0  0  0  0  0
  189.8440  174.8020  143.9660 C   0  0  0  0  0  3  0  0  0  0  0  0
  195.6940  174.5240  142.7630 C   0  0  0  0  0  2  0  0  0  0  0  0
  195.2390  176.1660  145.0860 O   0  0  0  0  0  0  0  0  0  0  0  0
  190.3650  174.0450  143.0460 C   0  0  0  0  0  0  0  0  0  0  0  0
  190.0460  172.9270  140.0610 C   0  0  0  0  0  0  0  0  0  0  0  0
  190.4670  173.7130  137.8040 C   0  0  0  0  0  3  0  0  0  0  0  0
  188.2470  173.8870  138.7500 C   0  0  0  0  0  3  0  0  0  0  0  0
  189.1220  174.0920  137.6790 C   0  0  0  0  0  0  0  0  0  0  0  0
  188.7060  173.3090  139.9360 C   0  0  0  0  0  3  0  0  0  0  0  0
  190.9270  173.1350  138.9900 C   0  0  0  0  0  3  0  0  0  0  0  0
  187.5360  175.5790  136.4990 C   0  0  0  0  0  1  0  0  0  0  0  0
  188.6300  174.6710  136.5070 O   0  0  0  0  0  0  0  0  0  0  0  0
  190.0300  176.3100  145.9120 C   0  0  0  0  0  2  0  0  0  0  0  0
  188.8410  175.4820  146.3740 C   0  0  0  0  0  2  0  0  0  0  0  0
  187.6380  176.3700  146.6380 C   0  0  0  0  0  2  0  0  0  0  0  0
  187.3220  177.1690  145.3900 C   0  0  0  0  0  2  0  0  0  0  0  0
  185.8260  177.4290  145.2880 C   0  0  2  0  0  3  0  0  0  0  0  0
  185.1850  176.6780  146.2730 O   0  0  0  0  0  1  0  0  0  0  0  0
  186.2180  176.2280  143.2400 O   0  0  0  0  0  1  0  0  0  0  0  0
  185.2940  177.0520  143.8940 C   0  0  2  0  0  3  0  0  0  0  0  0
  184.9670  178.2740  143.0100 C   0  0  0  0  0  0  0  0  0  0  0  0
  184.9320  179.4240  143.8040 O   0  0  0  0  0  1  0  0  0  0  0  0
  183.7190  178.1100  142.4030 O   0  0  0  0  0  1  0  0  0  0  0  0
  186.0110  178.4290  141.9250 C   0  0  0  0  0  0  0  0  0  0  0  0
  187.1740  178.8020  142.2350 O   0  0  0  0  0  0  0  0  0  0  0  0
  186.5590  177.3320  139.7670 C   0  0  0  0  0  1  0  0  0  0  0  0
  185.7390  178.1600  140.5780 O   0  0  0  0  0  0  0  0  0  0  0  0
  1  9  1  6  0  0  0
  1 14  1  0  0  0  0
  2 13  1  0  0  0  0
  2  9  2  0  0  0  0
  3 18  1  0  0  0  0
  4 19  1  0  0  0  0
  5 19  1  0  0  0  0
  6 15  1  0  0  0  0
  6 29  1  1  0  0  0
  7  5  1  0  0  0  0
  8 21  1  6  0  0  0
  8 10  1  0  0  0  0
 10  1  1  0  0  0  0
 10 20  2  0  0  0  0
 13  8  1  0  0  0  0
 13 12  1  1  0  0  0
 14  3  1  6  0  0  0
 14 16  1  0  0  0  0
 15 11  1  1  0  0  0
 16  4  1  6  0  0  0
 16 15  1  0  0  0  0
 17  6  1  0  0  0  0
 18  7  1  0  0  0  0
 20 17  2  0  0  0  0
 22 26  1  0  0  0  0
 23 25  2  0  0  0  0
 24 22  2  0  0  0  0
 24 23  1  0  0  0  0
 25 21  1  0  0  0  0
 26 21  2  0  0  0  0
 27 28  1  0  0  0  0
 28 24  1  0  0  0  0
 29 30  1  0  0  0  0
 30 31  1  0  0  0  0
 32 31  1  0  0  0  0
 33 32  1  0  0  0  0
 33 34  1  1  0  0  0
 36 35  1  6  0  0  0
 36 33  1  0  0  0  0
 37 38  1  0  0  0  0
 37 36  1  0  0  0  0
 39 37  1  0  0  0  0
 40 41  2  0  0  0  0
 40 37  1  0  0  0  0
 42 43  1  0  0  0  0
 43 40  1  0  0  0  0
M  END
>  <MODEL>
3

>  <REMARK>
 VINA RESULT:      -7.3      2.954      5.957
  Name = 
  11 active torsions:
  status: ('A' for Active; 'I' for Inactive)
    1  A    between atoms: C_1  and  C_25
    2  A    between atoms: C_1  and  C_39
    3  A    between atoms: C_2  and  C_16
    4  A    between atoms: C_2  and  O_18
    5  A    between atoms: C_4  and  C_14
    6  A    between atoms: C_11  and  C_30
    7  A    between atoms: C_16  and  C_39
    8  A    between atoms: C_22  and  O_32
    9  A    between atoms: C_25  and  C_27
   10  A    between atoms: C_27  and  C_41
   11  A    between atoms: C_30  and  C_41
                            x       y       z     vdW  Elec       q    Type
                         _______ _______ _______ _____ _____    ______ ____

>  <TORSDO>
F 11

$$$$
=
 OpenBabel11042416013D

 43 46  0  0  1  0  0  0  0  0999 V2000
  193.0220  173.2830  144.2770 C   0  0  2  0  0  3  0  0  0  0  0  0
  194.0720  171.7540  142.7930 N   0  0  0  0  0  0  0  0  0  0  0  0
  194.1640  175.5720  143.8130 C   0  0  0  0  0  2  0  0  0  0  0  0
  192.8380  176.7300  146.2200 C   0  0  0  0  0  2  0  0  0  0  0  0
  194.6810  177.8100  145.6360 C   0  0  0  0  0  2  0  0  0  0  0  0
  190.2240  174.9760  145.9500 C   0  0  1  0  0  3  0  0  0  0  0  0
  195.8350  177.0130  145.0270 C   0  0  0  0  0  2  0  0  0  0  0  0
  191.6200  171.5750  142.8990 C   0  0  2  0  0  3  0  0  0  0  0  0
  194.0960  172.8500  143.3980 N   0  0  0  0  0  0  0  0  0  0  0  0
  191.6890  172.8140  143.7440 C   0  0  0  0  0  0  0  0  0  0  0  0
  191.5290  174.8800  148.0380 O   0  0  0  0  0  1  0  0  0  0  0  0
  193.1170  169.8540  144.3900 Cl  0  0  0  0  0  0  0  0  0  0  0  0
  192.9600  170.8270  142.9050 C   0  0  2  0  0  3  0  0  0  0  0  0
  193.0210  174.8190  144.5170 C   0  0  2  0  0  3  0  0  0  0  0  0
  191.5500  174.6030  146.6670 C   0  0  2  0  0  3  0  0  0  0  0  0
  192.8030  175.2150  146.0080 C   0  0  2  0  0  3  0  0  0  0  0  0
  189.7440  173.8280  145.1120 C   0  0  0  0  0  3  0  0  0  0  0  0
  195.4390  175.5860  144.6470 C   0  0  0  0  0  2  0  0  0  0  0  0
  194.0980  177.1090  146.6920 O   0  0  0  0  0  0  0  0  0  0  0  0
  190.6270  173.2480  144.3550 C   0  0  0  0  0  0  0  0  0  0  0  0
  191.1700  171.8920  141.5040 C   0  0  0  0  0  0  0  0  0  0  0  0
  189.9570  171.3250  139.4810 C   0  0  0  0  0  3  0  0  0  0  0  0
  191.1840  173.4070  139.6110 C   0  0  0  0  0  3  0  0  0  0  0  0
  190.3690  172.5290  138.8890 C   0  0  0  0  0  0  0  0  0  0  0  0
  191.5840  173.0900  140.9120 C   0  0  0  0  0  3  0  0  0  0  0  0
  190.3570  171.0080  140.7810 C   0  0  0  0  0  3  0  0  0  0  0  0
  190.9240  173.1510  136.5610 C   0  0  0  0  0  1  0  0  0  0  0  0
  189.9850  172.8770  137.5920 O   0  0  0  0  0  0  0  0  0  0  0  0
  189.1000  175.4310  146.8760 C   0  0  0  0  0  2  0  0  0  0  0  0
  188.7700  176.9010  146.6660 C   0  0  0  0  0  2  0  0  0  0  0  0
  187.2870  177.1530  146.8740 C   0  0  0  0  0  2  0  0  0  0  0  0
  186.5510  176.9150  145.5710 C   0  0  0  0  0  2  0  0  0  0  0  0
  186.9840  177.9290  144.5220 C   0  0  2  0  0  3  0  0  0  0  0  0
  186.2280  179.0880  144.6970 O   0  0  0  0  0  1  0  0  0  0  0  0
  186.1040  176.1510  143.1600 O   0  0  0  0  0  1  0  0  0  0  0  0
  186.7900  177.3700  143.1010 C   0  0  2  0  0  3  0  0  0  0  0  0
  188.1110  177.1880  142.3260 C   0  0  0  0  0  0  0  0  0  0  0  0
  189.1140  176.7760  143.2100 O   0  0  0  0  0  1  0  0  0  0  0  0
  188.4990  178.3960  141.7410 O   0  0  0  0  0  1  0  0  0  0  0  0
  187.9380  176.1580  141.2300 C   0  0  0  0  0  0  0  0  0  0  0  0
  187.2200  176.4320  140.2310 O   0  0  0  0  0  0  0  0  0  0  0  0
  187.9380  173.7420  141.8010 C   0  0  0  0  0  1  0  0  0  0  0  0
  188.5610  174.9040  141.2750 O   0  0  0  0  0  0  0  0  0  0  0  0
  1  9  1  6  0  0  0
  1 14  1  0  0  0  0
  2 13  1  0  0  0  0
  2  9  2  0  0  0  0
  3 18  1  0  0  0  0
  4 19  1  0  0  0  0
  5 19  1  0  0  0  0
  6 15  1  0  0  0  0
  6 29  1  1  0  0  0
  7  5  1  0  0  0  0
  8 21  1  6  0  0  0
  8 13  1  0  0  0  0
  8 10  1  0  0  0  0
 10  1  1  0  0  0  0
 10 20  2  0  0  0  0
 13 12  1  1  0  0  0
 14  3  1  1  0  0  0
 14 16  1  0  0  0  0
 15 11  1  1  0  0  0
 16  4  1  6  0  0  0
 16 15  1  0  0  0  0
 17  6  1  0  0  0  0
 18  7  1  0  0  0  0
 20 17  2  0  0  0  0
 22 26  1  0  0  0  0
 23 25  2  0  0  0  0
 24 22  2  0  0  0  0
 24 23  1  0  0  0  0
 25 21  1  0  0  0  0
 26 21  2  0  0  0  0
 27 28  1  0  0  0  0
 28 24  1  0  0  0  0
 30 31  1  0  0  0  0
 30 29  1  0  0  0  0
 32 31  1  0  0  0  0
 33 34  1  6  0  0  0
 33 32  1  0  0  0  0
 36 35  1  1  0  0  0
 36 33  1  0  0  0  0
 37 36  1  0  0  0  0
 37 38  1  0  0  0  0
 39 37  1  0  0  0  0
 40 43  1  0  0  0  0
 40 37  1  0  0  0  0
 41 40  2  0  0  0  0
 43 42  1  0  0  0  0
M  END
>  <MODEL>
4

>  <REMARK>
 VINA RESULT:      -7.1      2.798      5.465
  Name = 
  11 active torsions:
  status: ('A' for Active; 'I' for Inactive)
    1  A    between atoms: C_1  and  C_25
    2  A    between atoms: C_1  and  C_39
    3  A    between atoms: C_2  and  C_16
    4  A    between atoms: C_2  and  O_18
    5  A    between atoms: C_4  and  C_14
    6  A    between atoms: C_11  and  C_30
    7  A    between atoms: C_16  and  C_39
    8  A    between atoms: C_22  and  O_32
    9  A    between atoms: C_25  and  C_27
   10  A    between atoms: C_27  and  C_41
   11  A    between atoms: C_30  and  C_41
                            x       y       z     vdW  Elec       q    Type
                         _______ _______ _______ _____ _____    ______ ____

>  <TORSDO>
F 11

$$$$
=
 OpenBabel11042416013D

 43 46  0  0  1  0  0  0  0  0999 V2000
  193.6510  173.0660  142.5140 C   0  0  2  0  0  3  0  0  0  0  0  0
  193.3740  171.3570  140.8870 N   0  0  0  0  0  0  0  0  0  0  0  0
  195.0550  174.9080  141.3310 C   0  0  0  0  0  2  0  0  0  0  0  0
  195.4280  176.3060  143.9380 C   0  0  0  0  0  2  0  0  0  0  0  0
  197.0020  176.7890  142.4570 C   0  0  0  0  0  2  0  0  0  0  0  0
  192.6120  175.4630  145.0960 C   0  0  1  0  0  3  0  0  0  0  0  0
  197.4400  175.7030  141.4730 C   0  0  0  0  0  2  0  0  0  0  0  0
  191.3330  171.9420  142.1310 C   0  0  2  0  0  3  0  0  0  0  0  0
  194.0020  172.3630  141.2900 N   0  0  0  0  0  0  0  0  0  0  0  0
  192.1530  173.0590  142.7100 C   0  0  0  0  0  0  0  0  0  0  0  0
  194.6540  174.8700  146.3420 O   0  0  0  0  0  1  0  0  0  0  0  0
  192.7750  169.7740  142.9390 Cl  0  0  0  0  0  0  0  0  0  0  0  0
  192.2300  170.8160  141.5990 C   0  0  2  0  0  3  0  0  0  0  0  0
  194.2150  174.5140  142.5600 C   0  0  2  0  0  3  0  0  0  0  0  0
  193.9430  174.6650  145.1560 C   0  0  2  0  0  3  0  0  0  0  0  0
  194.8540  174.8890  143.9310 C   0  0  2  0  0  3  0  0  0  0  0  0
  191.4800  174.5610  144.7030 C   0  0  0  0  0  3  0  0  0  0  0  0
  196.5120  174.4880  141.4760 C   0  0  0  0  0  2  0  0  0  0  0  0
  196.8100  176.2540  143.7320 O   0  0  0  0  0  0  0  0  0  0  0  0
  191.6870  173.7710  143.6910 C   0  0  0  0  0  0  0  0  0  0  0  0
  190.3940  172.4470  141.0760 C   0  0  0  0  0  0  0  0  0  0  0  0
  188.1630  173.0140  140.3110 C   0  0  0  0  0  3  0  0  0  0  0  0
  190.0550  173.2840  138.8270 C   0  0  0  0  0  3  0  0  0  0  0  0
  188.6800  173.3860  139.0610 C   0  0  0  0  0  0  0  0  0  0  0  0
  190.9090  172.8150  139.8290 C   0  0  0  0  0  3  0  0  0  0  0  0
  189.0160  172.5450  141.3130 C   0  0  0  0  0  3  0  0  0  0  0  0
  188.2400  174.9150  137.1670 C   0  0  0  0  0  1  0  0  0  0  0  0
  187.8550  173.8600  138.0380 O   0  0  0  0  0  0  0  0  0  0  0  0
  192.2490  176.2000  146.3820 C   0  0  0  0  0  2  0  0  0  0  0  0
  190.7900  175.9820  146.7530 C   0  0  0  0  0  2  0  0  0  0  0  0
  190.0370  177.3000  146.7680 C   0  0  0  0  0  2  0  0  0  0  0  0
  188.7700  177.1620  145.9490 C   0  0  0  0  0  2  0  0  0  0  0  0
  189.0730  177.3270  144.4670 C   0  0  2  0  0  3  0  0  0  0  0  0
  190.0950  178.2680  144.3330 O   0  0  0  0  0  1  0  0  0  0  0  0
  186.8910  178.3330  144.5800 O   0  0  0  0  0  1  0  0  0  0  0  0
  187.8220  177.7790  143.6930 C   0  0  2  0  0  3  0  0  0  0  0  0
  187.1590  176.6470  142.8810 C   0  0  0  0  0  0  0  0  0  0  0  0
  185.9630  176.2700  143.5010 O   0  0  0  0  0  1  0  0  0  0  0  0
  188.0040  175.5350  142.8240 O   0  0  0  0  0  1  0  0  0  0  0  0
  186.8800  177.1110  141.4670 C   0  0  0  0  0  0  0  0  0  0  0  0
  187.3030  176.4270  140.4970 O   0  0  0  0  0  0  0  0  0  0  0  0
  184.8920  178.2690  140.5350 C   0  0  0  0  0  1  0  0  0  0  0  0
  186.1510  178.2750  141.1900 O   0  0  0  0  0  0  0  0  0  0  0  0
  1  9  1  6  0  0  0
  1 14  1  0  0  0  0
  1 10  1  0  0  0  0
  2  9  2  0  0  0  0
  2 13  1  0  0  0  0
  3 18  1  0  0  0  0
  5 19  1  0  0  0  0
  6 15  1  0  0  0  0
  6 29  1  1  0  0  0
  7 18  1  0  0  0  0
  7  5  1  0  0  0  0
  8 21  1  6  0  0  0
  8 10  1  0  0  0  0
 10 20  2  0  0  0  0
 13  8  1  0  0  0  0
 13 12  1  1  0  0  0
 14  3  1  6  0  0  0
 14 16  1  0  0  0  0
 15 11  1  1  0  0  0
 16  4  1  6  0  0  0
 16 15  1  0  0  0  0
 17  6  1  0  0  0  0
 19  4  1  0  0  0  0
 20 17  2  0  0  0  0
 21 26  1  0  0  0  0
 22 26  2  0  0  0  0
 23 24  2  0  0  0  0
 23 25  1  0  0  0  0
 24 22  1  0  0  0  0
 25 21  2  0  0  0  0
 27 28  1  0  0  0  0
 28 24  1  0  0  0  0
 29 30  1  0  0  0  0
 30 31  1  0  0  0  0
 32 31  1  0  0  0  0
 33 34  1  1  0  0  0
 33 32  1  0  0  0  0
 36 33  1  0  0  0  0
 36 35  1  1  0  0  0
 37 38  1  0  0  0  0
 37 36  1  0  0  0  0
 39 37  1  0  0  0  0
 40 37  1  0  0  0  0
 41 40  2  0  0  0  0
 42 43  1  0  0  0  0
 43 40  1  0  0  0  0
M  END
>  <MODEL>
5

>  <REMARK>
 VINA RESULT:      -6.8      2.908      5.929
  Name = 
  11 active torsions:
  status: ('A' for Active; 'I' for Inactive)
    1  A    between atoms: C_1  and  C_25
    2  A    between atoms: C_1  and  C_39
    3  A    between atoms: C_2  and  C_16
    4  A    between atoms: C_2  and  O_18
    5  A    between atoms: C_4  and  C_14
    6  A    between atoms: C_11  and  C_30
    7  A    between atoms: C_16  and  C_39
    8  A    between atoms: C_22  and  O_32
    9  A    between atoms: C_25  and  C_27
   10  A    between atoms: C_27  and  C_41
   11  A    between atoms: C_30  and  C_41
                            x       y       z     vdW  Elec       q    Type
                         _______ _______ _______ _____ _____    ______ ____

>  <TORSDO>
F 11

$$$$
=
 OpenBabel11042416013D

 43 46  0  0  1  0  0  0  0  0999 V2000
  192.7720  173.4350  144.0360 C   0  0  2  0  0  3  0  0  0  0  0  0
  193.4960  171.9200  142.3550 N   0  0  0  0  0  0  0  0  0  0  0  0
  194.0080  175.6640  143.5190 C   0  0  0  0  0  2  0  0  0  0  0  0
  193.1080  176.7770  146.1360 C   0  0  0  0  0  2  0  0  0  0  0  0
  194.9300  177.7600  145.3500 C   0  0  0  0  0  2  0  0  0  0  0  0
  190.3590  175.2200  146.1540 C   0  0  1  0  0  3  0  0  0  0  0  0
  195.9290  176.9210  144.5520 C   0  0  0  0  0  2  0  0  0  0  0  0
  191.0740  171.9020  142.7920 C   0  0  2  0  0  3  0  0  0  0  0  0
  193.6830  172.9790  142.9980 N   0  0  0  0  0  0  0  0  0  0  0  0
  191.3480  173.0870  143.6730 C   0  0  0  0  0  0  0  0  0  0  0  0
  191.9240  174.9240  148.0340 O   0  0  0  0  0  1  0  0  0  0  0  0
  192.6270  170.0060  143.9840 Cl  0  0  0  0  0  0  0  0  0  0  0  0
  192.3430  171.0660  142.5790 C   0  0  2  0  0  3  0  0  0  0  0  0
  192.9170  174.9520  144.3410 C   0  0  2  0  0  3  0  0  0  0  0  0
  191.7390  174.7200  146.6630 C   0  0  2  0  0  3  0  0  0  0  0  0
  192.9330  175.2820  145.8640 C   0  0  2  0  0  3  0  0  0  0  0  0
  189.6870  174.1540  145.3410 C   0  0  0  0  0  3  0  0  0  0  0  0
  195.3810  175.5470  144.1680 C   0  0  0  0  0  2  0  0  0  0  0  0
  194.4460  177.0440  146.4450 O   0  0  0  0  0  0  0  0  0  0  0  0
  190.4140  173.5570  144.4430 C   0  0  0  0  0  0  0  0  0  0  0  0
  190.4640  172.3230  141.4880 C   0  0  0  0  0  0  0  0  0  0  0  0
  189.3760  173.9780  140.0850 C   0  0  0  0  0  3  0  0  0  0  0  0
  189.8400  171.7690  139.2120 C   0  0  0  0  0  3  0  0  0  0  0  0
  189.3230  173.0550  139.0290 C   0  0  0  0  0  0  0  0  0  0  0  0
  190.4070  171.4030  140.4360 C   0  0  0  0  0  3  0  0  0  0  0  0
  189.9430  173.6130  141.3090 C   0  0  0  0  0  3  0  0  0  0  0  0
  189.4120  173.1120  136.5580 C   0  0  0  0  0  1  0  0  0  0  0  0
  188.7650  173.3880  137.7930 O   0  0  0  0  0  0  0  0  0  0  0  0
  189.4080  175.6990  147.2460 C   0  0  0  0  0  2  0  0  0  0  0  0
  188.5270  176.8370  146.7540 C   0  0  0  0  0  2  0  0  0  0  0  0
  187.0700  176.4110  146.7150 C   0  0  0  0  0  2  0  0  0  0  0  0
  186.2400  177.3900  147.5200 C   0  0  0  0  0  2  0  0  0  0  0  0
  186.1050  178.7110  146.7780 C   0  0  2  0  0  3  0  0  0  0  0  0
  186.2240  179.7460  147.7050 O   0  0  0  0  0  1  0  0  0  0  0  0
  184.0680  177.5840  146.1710 O   0  0  0  0  0  1  0  0  0  0  0  0
  184.7540  178.7980  146.0450 C   0  0  2  0  0  3  0  0  0  0  0  0
  184.8860  179.1710  144.5540 C   0  0  0  0  0  0  0  0  0  0  0  0
  185.3140  180.4980  144.4440 O   0  0  0  0  0  1  0  0  0  0  0  0
  183.6510  179.0430  143.9130 O   0  0  0  0  0  1  0  0  0  0  0  0
  185.8780  178.2530  143.8710 C   0  0  0  0  0  0  0  0  0  0  0  0
  187.0980  178.5680  143.8480 O   0  0  0  0  0  0  0  0  0  0  0  0
  186.3490  175.9200  143.1650 C   0  0  0  0  0  1  0  0  0  0  0  0
  185.4930  177.0480  143.2700 O   0  0  0  0  0  0  0  0  0  0  0  0
  1  9  1  6  0  0  0
  1 14  1  0  0  0  0
  2 13  1  0  0  0  0
  2  9  2  0  0  0  0
  3 18  1  0  0  0  0
  4 19  1  0  0  0  0
  5 19  1  0  0  0  0
  6 15  1  0  0  0  0
  6 29  1  1  0  0  0
  7  5  1  0  0  0  0
  8 21  1  6  0  0  0
  8 10  1  0  0  0  0
 10  1  1  0  0  0  0
 10 20  2  0  0  0  0
 13  8  1  0  0  0  0
 13 12  1  1  0  0  0
 14  3  1  1  0  0  0
 14 16  1  0  0  0  0
 15 11  1  1  0  0  0
 16  4  1  6  0  0  0
 16 15  1  0  0  0  0
 17  6  1  0  0  0  0
 18  7  1  0  0  0  0
 20 17  2  0  0  0  0
 22 26  2  0  0  0  0
 23 25  1  0  0  0  0
 24 23  2  0  0  0  0
 24 22  1  0  0  0  0
 25 21  2  0  0  0  0
 26 21  1  0  0  0  0
 27 28  1  0  0  0  0
 28 24  1  0  0  0  0
 30 29  1  0  0  0  0
 31 30  1  0  0  0  0
 31 32  1  0  0  0  0
 33 32  1  0  0  0  0
 33 34  1  1  0  0  0
 36 35  1  6  0  0  0
 36 33  1  0  0  0  0
 37 36  1  0  0  0  0
 38 37  1  0  0  0  0
 39 37  1  0  0  0  0
 40 37  1  0  0  0  0
 41 40  2  0  0  0  0
 42 43  1  0  0  0  0
 43 40  1  0  0  0  0
M  END
>  <MODEL>
6

>  <REMARK>
 VINA RESULT:      -6.7      2.923      5.478
  Name = 
  11 active torsions:
  status: ('A' for Active; 'I' for Inactive)
    1  A    between atoms: C_1  and  C_25
    2  A    between atoms: C_1  and  C_39
    3  A    between atoms: C_2  and  C_16
    4  A    between atoms: C_2  and  O_18
    5  A    between atoms: C_4  and  C_14
    6  A    between atoms: C_11  and  C_30
    7  A    between atoms: C_16  and  C_39
    8  A    between atoms: C_22  and  O_32
    9  A    between atoms: C_25  and  C_27
   10  A    between atoms: C_27  and  C_41
   11  A    between atoms: C_30  and  C_41
                            x       y       z     vdW  Elec       q    Type
                         _______ _______ _______ _____ _____    ______ ____

>  <TORSDO>
F 11

$$$$
=
 OpenBabel11042416013D

 43 46  0  0  1  0  0  0  0  0999 V2000
  194.6600  174.8150  144.6830 C   0  0  2  0  0  3  0  0  0  0  0  0
  194.4210  176.0180  146.7170 N   0  0  0  0  0  0  0  0  0  0  0  0
  194.6870  172.3090  145.3770 C   0  0  0  0  0  2  0  0  0  0  0  0
  195.5080  171.5460  142.6130 C   0  0  0  0  0  2  0  0  0  0  0  0
  196.0670  170.0390  144.1360 C   0  0  0  0  0  2  0  0  0  0  0  0
  193.9130  173.8840  141.2090 C   0  0  1  0  0  3  0  0  0  0  0  0
  196.4510  170.5190  145.5360 C   0  0  0  0  0  2  0  0  0  0  0  0
  192.9790  176.7950  144.8800 C   0  0  2  0  0  3  0  0  0  0  0  0
  194.7340  174.9580  146.1280 N   0  0  0  0  0  0  0  0  0  0  0  0
  193.4810  175.5880  144.1400 C   0  0  0  0  0  0  0  0  0  0  0  0
  196.3400  173.6860  140.8330 O   0  0  0  0  0  1  0  0  0  0  0  0
  195.3160  178.1170  145.3500 Cl  0  0  0  0  0  0  0  0  0  0  0  0
  193.9420  177.1910  146.0080 C   0  0  2  0  0  3  0  0  0  0  0  0
  194.6120  173.3290  144.2260 C   0  0  2  0  0  3  0  0  0  0  0  0
  195.3520  173.9300  141.7920 C   0  0  2  0  0  3  0  0  0  0  0  0
  195.5500  173.0200  143.0210 C   0  0  2  0  0  3  0  0  0  0  0  0
  193.1430  175.1020  141.6240 C   0  0  0  0  0  3  0  0  0  0  0  0
  196.1250  171.9940  145.7700 C   0  0  0  0  0  2  0  0  0  0  0  0
  196.6070  170.8760  143.1590 O   0  0  0  0  0  0  0  0  0  0  0  0
  193.2110  175.4370  142.8780 C   0  0  0  0  0  0  0  0  0  0  0  0
  191.5870  176.5780  145.3920 C   0  0  0  0  0  0  0  0  0  0  0  0
  189.2780  177.2820  145.6370 C   0  0  0  0  0  3  0  0  0  0  0  0
  190.0220  175.2080  146.6370 C   0  0  0  0  0  3  0  0  0  0  0  0
  189.0000  176.1300  146.3880 C   0  0  0  0  0  0  0  0  0  0  0  0
  191.3100  175.4310  146.1440 C   0  0  0  0  0  3  0  0  0  0  0  0
  190.5650  177.5060  145.1430 C   0  0  0  0  0  3  0  0  0  0  0  0
  186.6470  176.7940  146.7610 C   0  0  0  0  0  1  0  0  0  0  0  0
  187.7230  175.8750  146.8940 O   0  0  0  0  0  0  0  0  0  0  0  0
  193.8400  173.7310  139.6920 C   0  0  0  0  0  2  0  0  0  0  0  0
  193.1560  172.4310  139.2980 C   0  0  0  0  0  2  0  0  0  0  0  0
  191.9750  172.7010  138.3840 C   0  0  0  0  0  2  0  0  0  0  0  0
  190.8920  173.4200  139.1630 C   0  0  0  0  0  2  0  0  0  0  0  0
  189.9990  172.4190  139.8810 C   0  0  2  0  0  3  0  0  0  0  0  0
  189.8090  171.3220  139.0410 O   0  0  0  0  0  1  0  0  0  0  0  0
  188.5870  174.3630  139.7640 O   0  0  0  0  0  1  0  0  0  0  0  0
  188.6460  173.0530  140.2530 C   0  0  2  0  0  3  0  0  0  0  0  0
  188.3600  173.0470  141.7690 C   0  0  0  0  0  0  0  0  0  0  0  0
  189.2770  172.2080  142.4110 O   0  0  0  0  0  1  0  0  0  0  0  0
  187.0700  172.5720  142.0150 O   0  0  0  0  0  1  0  0  0  0  0  0
  188.4700  174.4500  142.3270 C   0  0  0  0  0  0  0  0  0  0  0  0
  189.6010  174.8980  142.6570 O   0  0  0  0  0  0  0  0  0  0  0  0
  187.3420  176.6480  142.0820 C   0  0  0  0  0  1  0  0  0  0  0  0
  187.3560  175.2850  142.4800 O   0  0  0  0  0  0  0  0  0  0  0  0
  1 10  1  1  0  0  0
  1  9  1  0  0  0  0
  3 18  1  0  0  0  0
  4 19  1  0  0  0  0
  5  7  1  0  0  0  0
  6 29  1  6  0  0  0
  6 17  1  0  0  0  0
  6 15  1  0  0  0  0
  7 18  1  0  0  0  0
  8 21  1  1  0  0  0
  8 13  1  0  0  0  0
  9  2  2  0  0  0  0
 10  8  1  0  0  0  0
 13 12  1  6  0  0  0
 13  2  1  0  0  0  0
 14  1  1  0  0  0  0
 14  3  1  1  0  0  0
 15 11  1  6  0  0  0
 15 16  1  0  0  0  0
 16  4  1  6  0  0  0
 16 14  1  0  0  0  0
 17 20  2  0  0  0  0
 19  5  1  0  0  0  0
 20 10  2  0  0  0  0
 21 25  1  0  0  0  0
 22 24  2  0  0  0  0
 24 23  1  0  0  0  0
 24 28  1  0  0  0  0
 25 23  2  0  0  0  0
 26 21  2  0  0  0  0
 26 22  1  0  0  0  0
 27 28  1  0  0  0  0
 30 29  1  0  0  0  0
 31 32  1  0  0  0  0
 31 30  1  0  0  0  0
 32 33  1  0  0  0  0
 33 34  1  6  0  0  0
 33 36  1  0  0  0  0
 36 35  1  1  0  0  0
 36 37  1  0  0  0  0
 37 39  1  0  0  0  0
 37 40  1  0  0  0  0
 37 38  1  0  0  0  0
 40 43  1  0  0  0  0
 40 41  2  0  0  0  0
 42 43  1  0  0  0  0
M  END
>  <MODEL>
7

>  <REMARK>
 VINA RESULT:      -6.7      2.545      7.189
  Name = 
  11 active torsions:
  status: ('A' for Active; 'I' for Inactive)
    1  A    between atoms: C_1  and  C_25
    2  A    between atoms: C_1  and  C_39
    3  A    between atoms: C_2  and  C_16
    4  A    between atoms: C_2  and  O_18
    5  A    between atoms: C_4  and  C_14
    6  A    between atoms: C_11  and  C_30
    7  A    between atoms: C_16  and  C_39
    8  A    between atoms: C_22  and  O_32
    9  A    between atoms: C_25  and  C_27
   10  A    between atoms: C_27  and  C_41
   11  A    between atoms: C_30  and  C_41
                            x       y       z     vdW  Elec       q    Type
                         _______ _______ _______ _____ _____    ______ ____

>  <TORSDO>
F 11

$$$$
=
 OpenBabel11042416013D

 43 46  0  0  1  0  0  0  0  0999 V2000
  192.8260  173.0330  141.3070 C   0  0  2  0  0  3  0  0  0  0  0  0
  192.7090  171.9280  139.2070 N   0  0  0  0  0  0  0  0  0  0  0  0
  194.3420  175.1050  140.9000 C   0  0  0  0  0  2  0  0  0  0  0  0
  194.4560  175.6060  143.8380 C   0  0  0  0  0  2  0  0  0  0  0  0
  196.1700  176.4760  142.7380 C   0  0  0  0  0  2  0  0  0  0  0  0
  191.5380  174.5350  144.4020 C   0  0  1  0  0  3  0  0  0  0  0  0
  196.7020  175.7380  141.5080 C   0  0  0  0  0  2  0  0  0  0  0  0
  190.5550  172.1610  140.3750 C   0  0  2  0  0  3  0  0  0  0  0  0
  193.2950  172.7360  139.9640 N   0  0  0  0  0  0  0  0  0  0  0  0
  191.3160  173.0130  141.3500 C   0  0  0  0  0  0  0  0  0  0  0  0
  193.4450  173.5170  145.5850 O   0  0  0  0  0  1  0  0  0  0  0  0
  191.9070  169.8040  140.5920 Cl  0  0  0  0  0  0  0  0  0  0  0  0
  191.4990  171.2290  139.6030 C   0  0  2  0  0  3  0  0  0  0  0  0
  193.3840  174.3750  141.8580 C   0  0  2  0  0  3  0  0  0  0  0  0
  192.8560  173.7150  144.3330 C   0  0  2  0  0  3  0  0  0  0  0  0
  193.8840  174.2810  143.3310 C   0  0  2  0  0  3  0  0  0  0  0  0
  190.4500  173.8380  143.6410 C   0  0  0  0  0  3  0  0  0  0  0  0
  195.7770  174.6140  141.0410 C   0  0  0  0  0  2  0  0  0  0  0  0
  195.8520  175.5760  143.7560 O   0  0  0  0  0  0  0  0  0  0  0  0
  190.7550  173.3980  142.4570 C   0  0  0  0  0  0  0  0  0  0  0  0
  189.7270  173.0000  139.4490 C   0  0  0  0  0  0  0  0  0  0  0  0
  188.0000  174.6590  139.0540 C   0  0  0  0  0  3  0  0  0  0  0  0
  189.1540  173.6450  137.1840 C   0  0  0  0  0  3  0  0  0  0  0  0
  188.1930  174.5390  137.6700 C   0  0  0  0  0  0  0  0  0  0  0  0
  189.9160  172.8780  138.0680 C   0  0  0  0  0  3  0  0  0  0  0  0
  188.7620  173.8920  139.9390 C   0  0  0  0  0  3  0  0  0  0  0  0
  186.3040  176.0420  137.1350 C   0  0  0  0  0  1  0  0  0  0  0  0
  187.4500  175.2910  136.7580 O   0  0  0  0  0  0  0  0  0  0  0  0
  191.0500  174.8450  145.8150 C   0  0  0  0  0  2  0  0  0  0  0  0
  189.6340  174.3360  146.0360 C   0  0  0  0  0  2  0  0  0  0  0  0
  188.9640  175.0880  147.1720 C   0  0  0  0  0  2  0  0  0  0  0  0
  188.9740  176.5720  146.8640 C   0  0  0  0  0  2  0  0  0  0  0  0
  187.9050  176.9090  145.8340 C   0  0  2  0  0  3  0  0  0  0  0  0
  188.5420  177.3380  144.6690 O   0  0  0  0  0  1  0  0  0  0  0  0
  187.0520  178.0810  147.7550 O   0  0  0  0  0  1  0  0  0  0  0  0
  186.9560  178.0010  146.3600 C   0  0  2  0  0  3  0  0  0  0  0  0
  185.4840  177.7860  145.9500 C   0  0  0  0  0  0  0  0  0  0  0  0
  184.6480  178.4050  146.8850 O   0  0  0  0  0  1  0  0  0  0  0  0
  185.1870  176.4210  145.9180 O   0  0  0  0  0  1  0  0  0  0  0  0
  185.2340  178.3650  144.5740 C   0  0  0  0  0  0  0  0  0  0  0  0
  185.4150  179.5970  144.3800 O   0  0  0  0  0  0  0  0  0  0  0  0
  185.6850  177.1790  142.4400 C   0  0  0  0  0  1  0  0  0  0  0  0
  184.8190  177.5760  143.4940 O   0  0  0  0  0  0  0  0  0  0  0  0
  1  9  1  6  0  0  0
  1 10  1  0  0  0  0
  1 14  1  0  0  0  0
  2 13  1  0  0  0  0
  2  9  2  0  0  0  0
  3 18  1  0  0  0  0
  5 19  1  0  0  0  0
  6 29  1  1  0  0  0
  7  5  1  0  0  0  0
  8 21  1  6  0  0  0
  8 10  1  0  0  0  0
 10 20  2  0  0  0  0
 13  8  1  0  0  0  0
 13 12  1  1  0  0  0
 14  3  1  6  0  0  0
 14 16  1  0  0  0  0
 15  6  1  0  0  0  0
 15 11  1  1  0  0  0
 16  4  1  1  0  0  0
 16 15  1  0  0  0  0
 17  6  1  0  0  0  0
 18  7  1  0  0  0  0
 19  4  1  0  0  0  0
 20 17  2  0  0  0  0
 21 26  1  0  0  0  0
 22 26  2  0  0  0  0
 23 24  2  0  0  0  0
 23 25  1  0  0  0  0
 24 22  1  0  0  0  0
 25 21  2  0  0  0  0
 28 27  1  0  0  0  0
 28 24  1  0  0  0  0
 29 30  1  0  0  0  0
 30 31  1  0  0  0  0
 32 31  1  0  0  0  0
 33 34  1  6  0  0  0
 33 36  1  0  0  0  0
 33 32  1  0  0  0  0
 36 35  1  1  0  0  0
 37 36  1  0  0  0  0
 37 38  1  0  0  0  0
 39 37  1  0  0  0  0
 40 37  1  0  0  0  0
 41 40  2  0  0  0  0
 42 43  1  0  0  0  0
 43 40  1  0  0  0  0
M  END
>  <MODEL>
8

>  <REMARK>
 VINA RESULT:      -6.7      2.868      6.424
  Name = 
  11 active torsions:
  status: ('A' for Active; 'I' for Inactive)
    1  A    between atoms: C_1  and  C_25
    2  A    between atoms: C_1  and  C_39
    3  A    between atoms: C_2  and  C_16
    4  A    between atoms: C_2  and  O_18
    5  A    between atoms: C_4  and  C_14
    6  A    between atoms: C_11  and  C_30
    7  A    between atoms: C_16  and  C_39
    8  A    between atoms: C_22  and  O_32
    9  A    between atoms: C_25  and  C_27
   10  A    between atoms: C_27  and  C_41
   11  A    between atoms: C_30  and  C_41
                            x       y       z     vdW  Elec       q    Type
                         _______ _______ _______ _____ _____    ______ ____

>  <TORSDO>
F 11

$$$$
=
 OpenBabel11042416013D

 43 46  0  0  1  0  0  0  0  0999 V2000
  192.7730  173.0570  142.0040 C   0  0  2  0  0  3  0  0  0  0  0  0
  192.9690  171.5670  140.1650 N   0  0  0  0  0  0  0  0  0  0  0  0
  194.5390  174.9150  141.5630 C   0  0  0  0  0  2  0  0  0  0  0  0
  194.1140  175.9810  144.3150 C   0  0  0  0  0  2  0  0  0  0  0  0
  196.0910  176.5120  143.4700 C   0  0  0  0  0  2  0  0  0  0  0  0
  191.0510  175.2170  144.4250 C   0  0  1  0  0  3  0  0  0  0  0  0
  196.7810  175.5150  142.5380 C   0  0  0  0  0  2  0  0  0  0  0  0
  190.6590  172.1530  140.7810 C   0  0  2  0  0  3  0  0  0  0  0  0
  193.4690  172.4730  140.8700 N   0  0  0  0  0  0  0  0  0  0  0  0
  191.2910  173.1360  141.7250 C   0  0  0  0  0  0  0  0  0  0  0  0
  192.5730  174.3440  146.1550 O   0  0  0  0  0  1  0  0  0  0  0  0
  191.7000  169.8100  141.7080 Cl  0  0  0  0  0  0  0  0  0  0  0  0
  191.6410  171.0330  140.4120 C   0  0  2  0  0  3  0  0  0  0  0  0
  193.3410  174.4470  142.4090 C   0  0  2  0  0  3  0  0  0  0  0  0
  192.2680  174.3240  144.7900 C   0  0  2  0  0  3  0  0  0  0  0  0
  193.5260  174.6180  143.9470 C   0  0  2  0  0  3  0  0  0  0  0  0
  190.0720  174.4490  143.5880 C   0  0  0  0  0  3  0  0  0  0  0  0
  195.8610  174.3770  142.0960 C   0  0  0  0  0  2  0  0  0  0  0  0
  195.4880  175.8530  144.5420 O   0  0  0  0  0  0  0  0  0  0  0  0
  190.5620  173.7650  142.5970 C   0  0  0  0  0  0  0  0  0  0  0  0
  190.1190  172.8400  139.5620 C   0  0  0  0  0  0  0  0  0  0  0  0
  188.2690  173.7110  138.2570 C   0  0  0  0  0  3  0  0  0  0  0  0
  190.5300  173.8780  137.4100 C   0  0  0  0  0  3  0  0  0  0  0  0
  189.1610  174.1170  137.2520 C   0  0  0  0  0  0  0  0  0  0  0  0
  191.0080  173.2410  138.5590 C   0  0  0  0  0  3  0  0  0  0  0  0
  188.7460  173.0750  139.4050 C   0  0  0  0  0  3  0  0  0  0  0  0
  187.6710  175.7200  136.1000 C   0  0  0  0  0  1  0  0  0  0  0  0
  188.7170  174.7570  136.0940 O   0  0  0  0  0  0  0  0  0  0  0  0
  190.3240  175.8300  145.6190 C   0  0  0  0  0  2  0  0  0  0  0  0
  190.4340  177.3470  145.6160 C   0  0  0  0  0  2  0  0  0  0  0  0
  189.9430  177.9180  144.2980 C   0  0  0  0  0  2  0  0  0  0  0  0
  188.4300  177.8440  144.2530 C   0  0  0  0  0  2  0  0  0  0  0  0
  187.9500  177.6210  142.8260 C   0  0  2  0  0  3  0  0  0  0  0  0
  188.9650  178.0210  141.9570 O   0  0  0  0  0  1  0  0  0  0  0  0
  186.6570  179.5940  143.2970 O   0  0  0  0  0  1  0  0  0  0  0  0
  186.6600  178.4120  142.5470 C   0  0  2  0  0  3  0  0  0  0  0  0
  185.3730  177.6110  142.8320 C   0  0  0  0  0  0  0  0  0  0  0  0
  185.6960  176.2620  143.0090 O   0  0  0  0  0  1  0  0  0  0  0  0
  184.4870  177.7220  141.7570 O   0  0  0  0  0  1  0  0  0  0  0  0
  184.6890  178.1430  144.0740 C   0  0  0  0  0  0  0  0  0  0  0  0
  183.6790  178.8850  143.9540 O   0  0  0  0  0  0  0  0  0  0  0  0
  184.3150  177.9500  146.5210 C   0  0  0  0  0  1  0  0  0  0  0  0
  185.1310  177.8270  145.3650 O   0  0  0  0  0  0  0  0  0  0  0  0
  1  9  1  6  0  0  0
  1 14  1  0  0  0  0
  2 13  1  0  0  0  0
  2  9  2  0  0  0  0
  3 18  1  0  0  0  0
  4 19  1  0  0  0  0
  5 19  1  0  0  0  0
  6 15  1  0  0  0  0
  6 29  1  1  0  0  0
  7  5  1  0  0  0  0
  8 21  1  6  0  0  0
  8 10  1  0  0  0  0
 10  1  1  0  0  0  0
 10 20  2  0  0  0  0
 13  8  1  0  0  0  0
 13 12  1  1  0  0  0
 14  3  1  6  0  0  0
 14 16  1  0  0  0  0
 15 11  1  1  0  0  0
 16  4  1  6  0  0  0
 16 15  1  0  0  0  0
 17  6  1  0  0  0  0
 18  7  1  0  0  0  0
 20 17  2  0  0  0  0
 22 26  2  0  0  0  0
 23 25  1  0  0  0  0
 24 23  2  0  0  0  0
 24 22  1  0  0  0  0
 25 21  2  0  0  0  0
 26 21  1  0  0  0  0
 28 27  1  0  0  0  0
 28 24  1  0  0  0  0
 30 29  1  0  0  0  0
 31 30  1  0  0  0  0
 32 31  1  0  0  0  0
 33 34  1  6  0  0  0
 33 32  1  0  0  0  0
 36 33  1  0  0  0  0
 36 37  1  0  0  0  0
 36 35  1  1  0  0  0
 37 38  1  0  0  0  0
 37 40  1  0  0  0  0
 39 37  1  0  0  0  0
 40 43  1  0  0  0  0
 41 40  2  0  0  0  0
 43 42  1  0  0  0  0
M  END
>  <MODEL>
9

>  <REMARK>
 VINA RESULT:      -6.7      3.021      6.341
  Name = 
  11 active torsions:
  status: ('A' for Active; 'I' for Inactive)
    1  A    between atoms: C_1  and  C_25
    2  A    between atoms: C_1  and  C_39
    3  A    between atoms: C_2  and  C_16
    4  A    between atoms: C_2  and  O_18
    5  A    between atoms: C_4  and  C_14
    6  A    between atoms: C_11  and  C_30
    7  A    between atoms: C_16  and  C_39
    8  A    between atoms: C_22  and  O_32
    9  A    between atoms: C_25  and  C_27
   10  A    between atoms: C_27  and  C_41
   11  A    between atoms: C_30  and  C_41
                            x       y       z     vdW  Elec       q    Type
                         _______ _______ _______ _____ _____    ______ ____

>  <TORSDO>
F 11

$$$$
