=
 OpenBabel11042413493D

 25 29  0  0  1  0  0  0  0  0999 V2000
  191.0520  175.3600  144.4600 N   0  0  0  0  0  0  0  0  0  0  0  0
  189.5960  177.7730  144.5050 C   0  0  0  0  0  2  0  0  0  0  0  0
  191.6650  176.4080  144.0160 C   0  0  0  0  0  0  0  0  0  0  0  0
  191.0800  177.7950  144.1540 C   0  0  0  0  0  2  0  0  0  0  0  0
  189.6870  175.3740  144.9490 C   0  0  0  0  0  2  0  0  0  0  0  0
  189.3330  176.7230  145.5820 C   0  0  2  0  0  3  0  0  0  0  0  0
  187.9280  176.7470  146.0120 N   0  0  2  0  0  0  0  0  0  0  0  0
  184.4880  178.5500  144.2090 C   0  0  0  0  0  0  0  0  0  0  0  0
  184.8430  177.7980  145.4630 C   0  0  2  0  0  3  0  0  0  0  0  0
  187.1140  177.2580  144.9200 C   0  0  1  0  0  3  0  0  0  0  0  0
  185.9100  177.1490  142.7570 C   0  0  0  0  0  3  0  0  0  0  0  0
  185.4170  178.7160  146.5780 C   0  0  0  0  0  2  0  0  0  0  0  0
  186.3380  177.9770  147.5850 C   0  0  0  0  0  2  0  0  0  0  0  0
  186.4830  176.3380  143.8930 C   0  0  2  0  0  3  0  0  0  0  0  0
  185.7610  176.6060  145.2000 C   0  0  2  0  0  3  0  0  0  0  0  0
  185.0230  178.1430  142.8990 C   0  0  0  0  0  3  0  0  0  0  0  0
  187.7910  177.7810  147.0650 C   0  0  0  0  0  2  0  0  0  0  0  0
  183.6890  179.5220  144.2700 O   0  0  0  0  0  0  0  0  0  0  0  0
  193.0800  176.2770  143.5540 C   0  0  0  0  0  2  0  0  0  0  0  0
  194.4240  177.2550  146.0210 O   0  0  0  0  0  0  0  0  0  0  0  0
  194.3580  174.1720  144.3220 C   0  0  0  0  0  3  0  0  0  0  0  0
  195.4300  175.1680  146.1830 O   0  0  0  0  0  0  0  0  0  0  0  0
  195.3590  173.9350  145.4730 C   0  0  0  0  0  3  0  0  0  0  0  0
  193.8620  175.5240  144.5230 N   0  0  0  0  0  0  0  0  0  0  0  0
  194.5640  176.0700  145.6160 C   0  0  0  0  0  0  0  0  0  0  0  0
  1  5  1  0  0  0  0
  3  4  1  0  0  0  0
  3  1  2  0  0  0  0
  4  2  1  0  0  0  0
  5  6  1  0  0  0  0
  6  2  1  6  0  0  0
  6  7  1  0  0  0  0
  7 17  1  1  0  0  0
  8 18  2  0  0  0  0
  8  9  1  0  0  0  0
  9 12  1  1  0  0  0
 10 15  1  0  0  0  0
 10  7  1  0  0  0  0
 11 16  2  0  0  0  0
 11 14  1  0  0  0  0
 12 13  1  0  0  0  0
 14 10  1  0  0  0  0
 14 15  1  0  0  0  0
 15  9  1  0  0  0  0
 16  8  1  0  0  0  0
 17 13  1  0  0  0  0
 19  3  1  0  0  0  0
 19 24  1  0  0  0  0
 21 24  1  0  0  0  0
 21 23  2  0  0  0  0
 23 22  1  0  0  0  0
 24 25  1  0  0  0  0
 25 20  2  0  0  0  0
 25 22  1  0  0  0  0
M  END
>  <MODEL>
1

>  <REMARK>
 VINA RESULT:      -7.4      0.000      0.000
  Name = 
  3 active torsions:
  status: ('A' for Active; 'I' for Inactive)
    1  A    between atoms: N_1  and  C_24
    2  A    between atoms: C_16  and  C_19
    3  A    between atoms: N_18  and  C_19
                            x       y       z     vdW  Elec       q    Type
                         _______ _______ _______ _____ _____    ______ ____

>  <TORSDO>
F 3

$$$$
=
 OpenBabel11042413493D

 25 29  0  0  1  0  0  0  0  0999 V2000
  190.2980  175.5210  146.5280 N   0  0  0  0  0  0  0  0  0  0  0  0
  189.5250  177.4460  144.6200 C   0  0  0  0  0  2  0  0  0  0  0  0
  191.2190  176.3370  146.1300 C   0  0  0  0  0  0  0  0  0  0  0  0
  190.9070  177.5320  145.2590 C   0  0  0  0  0  2  0  0  0  0  0  0
  188.9340  175.5470  146.0350 C   0  0  0  0  0  2  0  0  0  0  0  0
  188.5050  176.9660  145.6500 C   0  0  2  0  0  3  0  0  0  0  0  0
  187.1470  176.9680  145.0900 N   0  0  2  0  0  0  0  0  0  0  0  0
  185.7630  177.8120  141.1260 C   0  0  0  0  0  0  0  0  0  0  0  0
  185.1880  177.4930  142.4800 C   0  0  2  0  0  3  0  0  0  0  0  0
  187.2390  177.0560  143.6410 C   0  0  1  0  0  3  0  0  0  0  0  0
  187.6250  176.2060  141.3460 C   0  0  0  0  0  3  0  0  0  0  0  0
  185.0400  178.7470  143.3860 C   0  0  0  0  0  2  0  0  0  0  0  0
  185.0620  178.4280  144.9050 C   0  0  0  0  0  2  0  0  0  0  0  0
  187.2870  175.8200  142.7650 C   0  0  2  0  0  3  0  0  0  0  0  0
  185.9440  176.3760  143.1980 C   0  0  2  0  0  3  0  0  0  0  0  0
  186.9480  177.1020  140.6160 C   0  0  0  0  0  3  0  0  0  0  0  0
  186.4960  178.2410  145.4780 C   0  0  0  0  0  2  0  0  0  0  0  0
  185.2020  178.6720  140.3980 O   0  0  0  0  0  0  0  0  0  0  0  0
  192.5870  176.2280  146.7220 C   0  0  0  0  0  2  0  0  0  0  0  0
  194.8750  177.8980  145.8150 O   0  0  0  0  0  0  0  0  0  0  0  0
  193.4520  174.8760  144.7030 C   0  0  0  0  0  3  0  0  0  0  0  0
  195.1530  176.3950  144.0660 O   0  0  0  0  0  0  0  0  0  0  0  0
  194.5570  175.1660  143.6640 C   0  0  0  0  0  3  0  0  0  0  0  0
  193.5670  175.9420  145.6850 N   0  0  0  0  0  0  0  0  0  0  0  0
  194.5650  176.8270  145.2300 C   0  0  0  0  0  0  0  0  0  0  0  0
  2  4  1  0  0  0  0
  3  1  2  0  0  0  0
  3 19  1  0  0  0  0
  4  3  1  0  0  0  0
  5  1  1  0  0  0  0
  6  2  1  6  0  0  0
  6  5  1  0  0  0  0
  7 17  1  1  0  0  0
  7  6  1  0  0  0  0
  8  9  1  0  0  0  0
  9 15  1  0  0  0  0
  9 12  1  1  0  0  0
 10  7  1  0  0  0  0
 11 14  1  0  0  0  0
 12 13  1  0  0  0  0
 13 17  1  0  0  0  0
 14 15  1  0  0  0  0
 14 10  1  0  0  0  0
 15 10  1  0  0  0  0
 16  8  1  0  0  0  0
 16 11  2  0  0  0  0
 18  8  2  0  0  0  0
 21 24  1  0  0  0  0
 22 25  1  0  0  0  0
 23 22  1  0  0  0  0
 23 21  2  0  0  0  0
 24 19  1  0  0  0  0
 25 24  1  0  0  0  0
 25 20  2  0  0  0  0
M  END
>  <MODEL>
2

>  <REMARK>
 VINA RESULT:      -7.3      1.683      2.259
  Name = 
  3 active torsions:
  status: ('A' for Active; 'I' for Inactive)
    1  A    between atoms: N_1  and  C_24
    2  A    between atoms: C_16  and  C_19
    3  A    between atoms: N_18  and  C_19
                            x       y       z     vdW  Elec       q    Type
                         _______ _______ _______ _____ _____    ______ ____

>  <TORSDO>
F 3

$$$$
=
 OpenBabel11042413493D

 25 29  0  0  1  0  0  0  0  0999 V2000
  191.4730  176.9610  145.4310 N   0  0  0  0  0  0  0  0  0  0  0  0
  189.8060  175.5320  147.2000 C   0  0  0  0  0  2  0  0  0  0  0  0
  192.0670  176.1910  146.2840 C   0  0  0  0  0  0  0  0  0  0  0  0
  191.3010  175.2290  147.1620 C   0  0  0  0  0  2  0  0  0  0  0  0
  190.0330  177.1220  145.3620 C   0  0  0  0  0  2  0  0  0  0  0  0
  189.3050  175.8460  145.7920 C   0  0  2  0  0  3  0  0  0  0  0  0
  187.8490  176.0450  145.7820 N   0  0  2  0  0  0  0  0  0  0  0  0
  185.4550  179.0530  143.8970 C   0  0  0  0  0  0  0  0  0  0  0  0
  185.2730  177.8790  144.8200 C   0  0  2  0  0  3  0  0  0  0  0  0
  187.5210  177.0470  144.7820 C   0  0  1  0  0  3  0  0  0  0  0  0
  187.1320  177.9110  142.4920 C   0  0  0  0  0  3  0  0  0  0  0  0
  185.5210  178.2370  146.3130 C   0  0  0  0  0  2  0  0  0  0  0  0
  185.9550  177.0270  147.1830 C   0  0  0  0  0  2  0  0  0  0  0  0
  187.1890  176.6720  143.3510 C   0  0  2  0  0  3  0  0  0  0  0  0
  186.0930  176.6610  144.3990 C   0  0  2  0  0  3  0  0  0  0  0  0
  186.3630  178.9790  142.7400 C   0  0  0  0  0  3  0  0  0  0  0  0
  187.4680  176.6880  147.0620 C   0  0  0  0  0  2  0  0  0  0  0  0
  184.7920  180.1060  144.0910 O   0  0  0  0  0  0  0  0  0  0  0  0
  193.5570  176.0900  146.2510 C   0  0  0  0  0  2  0  0  0  0  0  0
  193.8430  173.1810  145.6970 O   0  0  0  0  0  0  0  0  0  0  0  0
  194.6310  176.1070  143.9050 C   0  0  0  0  0  3  0  0  0  0  0  0
  194.8800  173.7610  143.7020 O   0  0  0  0  0  0  0  0  0  0  0  0
  195.1640  174.9710  143.0060 C   0  0  0  0  0  3  0  0  0  0  0  0
  193.9930  175.4350  145.0260 N   0  0  0  0  0  0  0  0  0  0  0  0
  194.2090  174.0520  144.8650 C   0  0  0  0  0  0  0  0  0  0  0  0
  1  3  2  0  0  0  0
  3  4  1  0  0  0  0
  4  2  1  0  0  0  0
  5  1  1  0  0  0  0
  6  5  1  1  0  0  0
  6  2  1  0  0  0  0
  7  6  1  0  0  0  0
  7 17  1  1  0  0  0
  8 18  2  0  0  0  0
  8  9  1  0  0  0  0
  9 12  1  1  0  0  0
 10  7  1  0  0  0  0
 11 16  2  0  0  0  0
 11 14  1  0  0  0  0
 12 13  1  0  0  0  0
 14 15  1  0  0  0  0
 14 10  1  0  0  0  0
 15 10  1  0  0  0  0
 15  9  1  0  0  0  0
 16  8  1  0  0  0  0
 17 13  1  0  0  0  0
 19  3  1  0  0  0  0
 21 24  1  0  0  0  0
 22 25  1  0  0  0  0
 23 22  1  0  0  0  0
 23 21  2  0  0  0  0
 24 19  1  0  0  0  0
 25 24  1  0  0  0  0
 25 20  2  0  0  0  0
M  END
>  <MODEL>
3

>  <REMARK>
 VINA RESULT:      -7.3      1.526      2.038
  Name = 
  3 active torsions:
  status: ('A' for Active; 'I' for Inactive)
    1  A    between atoms: N_1  and  C_24
    2  A    between atoms: C_16  and  C_19
    3  A    between atoms: N_18  and  C_19
                            x       y       z     vdW  Elec       q    Type
                         _______ _______ _______ _____ _____    ______ ____

>  <TORSDO>
F 3

$$$$
=
 OpenBabel11042413493D

 25 29  0  0  1  0  0  0  0  0999 V2000
  182.4650  178.6650  142.7250 N   0  0  0  0  0  0  0  0  0  0  0  0
  185.2030  178.5910  142.0580 C   0  0  0  0  0  2  0  0  0  0  0  0
  182.7470  178.4550  141.4810 C   0  0  0  0  0  0  0  0  0  0  0  0
  184.1620  178.2030  141.0130 C   0  0  0  0  0  2  0  0  0  0  0  0
  183.4680  178.8730  143.7520 C   0  0  0  0  0  2  0  0  0  0  0  0
  184.7580  178.1100  143.4370 C   0  0  2  0  0  3  0  0  0  0  0  0
  185.7870  178.3820  144.4500 N   0  0  2  0  0  0  0  0  0  0  0  0
  188.7480  175.8190  146.1800 C   0  0  0  0  0  0  0  0  0  0  0  0
  188.2470  177.2300  146.3320 C   0  0  2  0  0  3  0  0  0  0  0  0
  186.7070  177.2570  144.4960 C   0  0  1  0  0  3  0  0  0  0  0  0
  188.5850  175.8400  143.7180 C   0  0  0  0  0  3  0  0  0  0  0  0
  187.0080  177.3360  147.2640 C   0  0  0  0  0  2  0  0  0  0  0  0
  186.1110  178.5690  146.9740 C   0  0  0  0  0  2  0  0  0  0  0  0
  187.9630  177.2130  143.6480 C   0  0  2  0  0  3  0  0  0  0  0  0
  187.9930  177.9160  144.9910 C   0  0  2  0  0  3  0  0  0  0  0  0
  188.9290  175.2140  144.8510 C   0  0  0  0  0  3  0  0  0  0  0  0
  185.1360  178.3590  145.7800 C   0  0  0  0  0  2  0  0  0  0  0  0
  189.0560  175.1540  147.2050 O   0  0  0  0  0  0  0  0  0  0  0  0
  181.6300  178.2360  140.5130 C   0  0  0  0  0  2  0  0  0  0  0  0
  179.2150  177.3110  141.9830 O   0  0  0  0  0  0  0  0  0  0  0  0
  180.1280  180.3320  140.4240 C   0  0  0  0  0  3  0  0  0  0  0  0
  178.2580  179.3740  141.5150 O   0  0  0  0  0  0  0  0  0  0  0  0
  178.6780  180.5830  140.8890 C   0  0  0  0  0  3  0  0  0  0  0  0
  180.4580  179.0020  140.9100 N   0  0  0  0  0  0  0  0  0  0  0  0
  179.2980  178.4760  141.5120 C   0  0  0  0  0  0  0  0  0  0  0  0
  1  5  1  0  0  0  0
  3  1  2  0  0  0  0
  4  3  1  0  0  0  0
  4  2  1  0  0  0  0
  6  2  1  6  0  0  0
  6  5  1  0  0  0  0
  6  7  1  0  0  0  0
  7 10  1  0  0  0  0
  7 17  1  1  0  0  0
  8  9  1  0  0  0  0
  8 18  2  0  0  0  0
  9 12  1  1  0  0  0
 10 15  1  0  0  0  0
 11 16  2  0  0  0  0
 13 12  1  0  0  0  0
 14 11  1  0  0  0  0
 14 10  1  0  0  0  0
 14 15  1  0  0  0  0
 15  9  1  0  0  0  0
 16  8  1  0  0  0  0
 17 13  1  0  0  0  0
 19 24  1  0  0  0  0
 19  3  1  0  0  0  0
 21 23  2  0  0  0  0
 21 24  1  0  0  0  0
 23 22  1  0  0  0  0
 24 25  1  0  0  0  0
 25 22  1  0  0  0  0
 25 20  2  0  0  0  0
M  END
>  <MODEL>
4

>  <REMARK>
 VINA RESULT:      -7.1      4.022      9.587
  Name = 
  3 active torsions:
  status: ('A' for Active; 'I' for Inactive)
    1  A    between atoms: N_1  and  C_24
    2  A    between atoms: C_16  and  C_19
    3  A    between atoms: N_18  and  C_19
                            x       y       z     vdW  Elec       q    Type
                         _______ _______ _______ _____ _____    ______ ____

>  <TORSDO>
F 3

$$$$
=
 OpenBabel11042413493D

 25 29  0  0  1  0  0  0  0  0999 V2000
  188.9990  177.3880  144.9120 N   0  0  0  0  0  0  0  0  0  0  0  0
  189.1450  175.0570  146.4920 C   0  0  0  0  0  2  0  0  0  0  0  0
  187.9620  177.1190  145.6360 C   0  0  0  0  0  0  0  0  0  0  0  0
  187.9700  176.0150  146.6670 C   0  0  0  0  0  2  0  0  0  0  0  0
  190.1880  176.5560  144.8720 C   0  0  0  0  0  2  0  0  0  0  0  0
  190.4200  175.8480  146.2090 C   0  0  2  0  0  3  0  0  0  0  0  0
  191.5870  174.9580  146.1340 N   0  0  2  0  0  0  0  0  0  0  0  0
  195.3950  175.5000  144.2520 C   0  0  0  0  0  0  0  0  0  0  0  0
  194.6440  174.4290  144.9950 C   0  0  2  0  0  3  0  0  0  0  0  0
  192.7170  175.7110  145.6150 C   0  0  1  0  0  3  0  0  0  0  0  0
  194.6010  177.3190  145.7200 C   0  0  0  0  0  3  0  0  0  0  0  0
  193.6970  173.6050  144.0790 C   0  0  0  0  0  2  0  0  0  0  0  0
  192.5010  172.9630  144.8310 C   0  0  0  0  0  2  0  0  0  0  0  0
  193.6880  176.4320  146.5310 C   0  0  2  0  0  3  0  0  0  0  0  0
  193.9050  174.9630  146.2200 C   0  0  2  0  0  3  0  0  0  0  0  0
  195.3590  176.9040  144.6970 C   0  0  0  0  0  3  0  0  0  0  0  0
  191.3250  173.9500  145.0800 C   0  0  0  0  0  2  0  0  0  0  0  0
  196.0990  175.1900  143.2550 O   0  0  0  0  0  0  0  0  0  0  0  0
  186.8000  178.0580  145.6110 C   0  0  0  0  0  2  0  0  0  0  0  0
  185.5750  180.3720  144.1980 O   0  0  0  0  0  0  0  0  0  0  0  0
  185.8780  176.9390  143.4770 C   0  0  0  0  0  3  0  0  0  0  0  0
  184.8630  178.8760  142.5700 O   0  0  0  0  0  0  0  0  0  0  0  0
  185.0270  177.4850  142.3110 C   0  0  0  0  0  3  0  0  0  0  0  0
  186.2130  178.1040  144.2800 N   0  0  0  0  0  0  0  0  0  0  0  0
  185.5520  179.2100  143.7110 C   0  0  0  0  0  0  0  0  0  0  0  0
  1  3  2  0  0  0  0
  2  4  1  0  0  0  0
  3  4  1  0  0  0  0
  5  1  1  0  0  0  0
  6  5  1  6  0  0  0
  6  2  1  0  0  0  0
  7 17  1  6  0  0  0
  7  6  1  0  0  0  0
  8 16  1  0  0  0  0
  8  9  1  0  0  0  0
  9 12  1  6  0  0  0
  9 15  1  0  0  0  0
 10  7  1  0  0  0  0
 10 15  1  0  0  0  0
 10 14  1  0  0  0  0
 11 14  1  0  0  0  0
 12 13  1  0  0  0  0
 13 17  1  0  0  0  0
 15 14  1  0  0  0  0
 16 11  2  0  0  0  0
 18  8  2  0  0  0  0
 19  3  1  0  0  0  0
 21 24  1  0  0  0  0
 22 25  1  0  0  0  0
 23 22  1  0  0  0  0
 23 21  2  0  0  0  0
 24 19  1  0  0  0  0
 25 20  2  0  0  0  0
 25 24  1  0  0  0  0
M  END
>  <MODEL>
5

>  <REMARK>
 VINA RESULT:      -7.1      1.820      8.233
  Name = 
  3 active torsions:
  status: ('A' for Active; 'I' for Inactive)
    1  A    between atoms: N_1  and  C_24
    2  A    between atoms: C_16  and  C_19
    3  A    between atoms: N_18  and  C_19
                            x       y       z     vdW  Elec       q    Type
                         _______ _______ _______ _____ _____    ______ ____

>  <TORSDO>
F 3

$$$$
=
 OpenBabel11042413493D

 25 29  0  0  1  0  0  0  0  0999 V2000
  188.5170  175.2860  147.0460 N   0  0  0  0  0  0  0  0  0  0  0  0
  190.1060  176.7420  145.2290 C   0  0  0  0  0  2  0  0  0  0  0  0
  188.0590  176.4380  146.6790 C   0  0  0  0  0  0  0  0  0  0  0  0
  188.7050  177.2400  145.5730 C   0  0  0  0  0  2  0  0  0  0  0  0
  189.7800  174.7400  146.5870 C   0  0  0  0  0  2  0  0  0  0  0  0
  190.1140  175.2160  145.1710 C   0  0  2  0  0  3  0  0  0  0  0  0
  191.4260  174.7110  144.7440 N   0  0  2  0  0  0  0  0  0  0  0  0
  195.2540  176.6260  144.6370 C   0  0  0  0  0  0  0  0  0  0  0  0
  194.6360  175.3130  144.2400 C   0  0  2  0  0  3  0  0  0  0  0  0
  192.4480  175.6610  145.1530 C   0  0  1  0  0  3  0  0  0  0  0  0
  193.9780  176.7890  146.7430 C   0  0  0  0  0  3  0  0  0  0  0  0
  193.9660  175.3570  142.8380 C   0  0  0  0  0  2  0  0  0  0  0  0
  192.8330  174.3130  142.6530 C   0  0  0  0  0  2  0  0  0  0  0  0
  193.1600  175.5470  146.4870 C   0  0  2  0  0  3  0  0  0  0  0  0
  193.6780  174.7650  145.2950 C   0  0  2  0  0  3  0  0  0  0  0  0
  194.9090  177.2750  145.9130 C   0  0  0  0  0  3  0  0  0  0  0  0
  191.4740  174.7600  143.2640 C   0  0  0  0  0  2  0  0  0  0  0  0
  196.1110  177.1630  143.8860 O   0  0  0  0  0  0  0  0  0  0  0  0
  186.7350  176.8910  147.2040 C   0  0  0  0  0  2  0  0  0  0  0  0
  185.9090  179.7440  147.3720 O   0  0  0  0  0  0  0  0  0  0  0  0
  185.3870  177.1740  145.0230 C   0  0  0  0  0  3  0  0  0  0  0  0
  184.7330  179.4190  145.3960 O   0  0  0  0  0  0  0  0  0  0  0  0
  184.5640  178.3550  144.4650 C   0  0  0  0  0  3  0  0  0  0  0  0
  186.0440  177.6980  146.2090 N   0  0  0  0  0  0  0  0  0  0  0  0
  185.5860  179.0170  146.3950 C   0  0  0  0  0  0  0  0  0  0  0  0
  2  4  1  0  0  0  0
  3  1  2  0  0  0  0
  3 19  1  0  0  0  0
  4  3  1  0  0  0  0
  5  1  1  0  0  0  0
  6  2  1  1  0  0  0
  6  5  1  0  0  0  0
  7 17  1  6  0  0  0
  7 10  1  0  0  0  0
  7  6  1  0  0  0  0
  8 16  1  0  0  0  0
  9 12  1  6  0  0  0
  9  8  1  0  0  0  0
  9 15  1  0  0  0  0
 10 15  1  0  0  0  0
 10 14  1  0  0  0  0
 13 12  1  0  0  0  0
 13 17  1  0  0  0  0
 14 11  1  0  0  0  0
 15 14  1  0  0  0  0
 16 11  2  0  0  0  0
 18  8  2  0  0  0  0
 21 24  1  0  0  0  0
 22 25  1  0  0  0  0
 23 21  2  0  0  0  0
 23 22  1  0  0  0  0
 24 25  1  0  0  0  0
 24 19  1  0  0  0  0
 25 20  2  0  0  0  0
M  END
>  <MODEL>
6

>  <REMARK>
 VINA RESULT:      -7.0      1.635      8.141
  Name = 
  3 active torsions:
  status: ('A' for Active; 'I' for Inactive)
    1  A    between atoms: N_1  and  C_24
    2  A    between atoms: C_16  and  C_19
    3  A    between atoms: N_18  and  C_19
                            x       y       z     vdW  Elec       q    Type
                         _______ _______ _______ _____ _____    ______ ____

>  <TORSDO>
F 3

$$$$
=
 OpenBabel11042413493D

 25 29  0  0  1  0  0  0  0  0999 V2000
  189.1550  177.7820  142.8890 N   0  0  0  0  0  0  0  0  0  0  0  0
  188.5820  175.0270  143.0690 C   0  0  0  0  0  2  0  0  0  0  0  0
  187.9430  177.4280  142.6080 C   0  0  0  0  0  0  0  0  0  0  0  0
  187.4470  176.0200  142.8440 C   0  0  0  0  0  2  0  0  0  0  0  0
  190.1990  176.8460  143.2640 C   0  0  0  0  0  2  0  0  0  0  0  0
  189.6250  175.6350  144.0050 C   0  0  2  0  0  3  0  0  0  0  0  0
  190.6820  174.6640  144.3190 N   0  0  2  0  0  0  0  0  0  0  0  0
  194.7200  175.2570  145.6140 C   0  0  0  0  0  0  0  0  0  0  0  0
  193.8130  174.1200  145.2260 C   0  0  2  0  0  3  0  0  0  0  0  0
  191.7800  175.3630  144.9670 C   0  0  1  0  0  3  0  0  0  0  0  0
  192.9590  176.4720  146.8440 C   0  0  0  0  0  3  0  0  0  0  0  0
  193.7640  173.8820  143.6900 C   0  0  0  0  0  2  0  0  0  0  0  0
  192.4540  173.2060  143.2040 C   0  0  0  0  0  2  0  0  0  0  0  0
  191.8610  175.5040  146.4750 C   0  0  2  0  0  3  0  0  0  0  0  0
  192.4090  174.2550  145.8110 C   0  0  2  0  0  3  0  0  0  0  0  0
  194.2360  176.3650  146.4530 C   0  0  0  0  0  3  0  0  0  0  0  0
  191.2690  174.1990  143.0410 C   0  0  0  0  0  2  0  0  0  0  0  0
  195.9260  175.2440  145.2500 O   0  0  0  0  0  0  0  0  0  0  0  0
  186.9470  178.4820  142.2510 C   0  0  0  0  0  2  0  0  0  0  0  0
  184.0400  177.9810  141.8640 O   0  0  0  0  0  0  0  0  0  0  0  0
  185.9990  179.0840  144.5730 C   0  0  0  0  0  3  0  0  0  0  0  0
  183.7190  178.7430  144.0350 O   0  0  0  0  0  0  0  0  0  0  0  0
  184.5530  179.1670  145.1080 C   0  0  0  0  0  3  0  0  0  0  0  0
  185.8780  178.5240  143.2370 N   0  0  0  0  0  0  0  0  0  0  0  0
  184.5020  178.3810  142.9660 C   0  0  0  0  0  0  0  0  0  0  0  0
  1  5  1  0  0  0  0
  3  4  1  0  0  0  0
  3  1  2  0  0  0  0
  4  2  1  0  0  0  0
  5  6  1  0  0  0  0
  6  2  1  6  0  0  0
  6  7  1  0  0  0  0
  7 17  1  6  0  0  0
  7 10  1  0  0  0  0
  8 16  1  0  0  0  0
  9 12  1  6  0  0  0
  9  8  1  0  0  0  0
  9 15  1  0  0  0  0
 10 15  1  0  0  0  0
 10 14  1  0  0  0  0
 13 12  1  0  0  0  0
 14 11  1  0  0  0  0
 15 14  1  0  0  0  0
 16 11  2  0  0  0  0
 17 13  1  0  0  0  0
 18  8  2  0  0  0  0
 19  3  1  0  0  0  0
 19 24  1  0  0  0  0
 20 25  2  0  0  0  0
 21 23  2  0  0  0  0
 22 23  1  0  0  0  0
 24 21  1  0  0  0  0
 25 24  1  0  0  0  0
 25 22  1  0  0  0  0
M  END
>  <MODEL>
7

>  <REMARK>
 VINA RESULT:      -6.8      1.975      8.279
  Name = 
  3 active torsions:
  status: ('A' for Active; 'I' for Inactive)
    1  A    between atoms: N_1  and  C_24
    2  A    between atoms: C_16  and  C_19
    3  A    between atoms: N_18  and  C_19
                            x       y       z     vdW  Elec       q    Type
                         _______ _______ _______ _____ _____    ______ ____

>  <TORSDO>
F 3

$$$$
=
 OpenBabel11042413493D

 25 29  0  0  1  0  0  0  0  0999 V2000
  191.1410  175.3450  143.3160 N   0  0  0  0  0  0  0  0  0  0  0  0
  189.8110  177.6730  144.1890 C   0  0  0  0  0  2  0  0  0  0  0  0
  191.8200  176.4450  143.2720 C   0  0  0  0  0  0  0  0  0  0  0  0
  191.3050  177.7280  143.8810 C   0  0  0  0  0  2  0  0  0  0  0  0
  189.7640  175.2690  143.7670 C   0  0  0  0  0  2  0  0  0  0  0  0
  189.4630  176.3310  144.8280 C   0  0  2  0  0  3  0  0  0  0  0  0
  188.0490  176.2870  145.2260 N   0  0  2  0  0  0  0  0  0  0  0  0
  184.7640  178.8090  144.1410 C   0  0  0  0  0  0  0  0  0  0  0  0
  185.0410  177.6450  145.0540 C   0  0  2  0  0  3  0  0  0  0  0  0
  187.2960  177.1950  144.3770 C   0  0  1  0  0  3  0  0  0  0  0  0
  186.1520  177.9230  142.3030 C   0  0  0  0  0  3  0  0  0  0  0  0
  185.6290  178.0780  146.4260 C   0  0  0  0  0  2  0  0  0  0  0  0
  186.4810  176.9790  147.1170 C   0  0  0  0  0  2  0  0  0  0  0  0
  186.6480  176.7330  143.0870 C   0  0  2  0  0  3  0  0  0  0  0  0
  185.9020  176.5680  144.3970 C   0  0  2  0  0  3  0  0  0  0  0  0
  185.3150  178.8560  142.7770 C   0  0  0  0  0  3  0  0  0  0  0  0
  187.9360  176.8920  146.5740 C   0  0  0  0  0  2  0  0  0  0  0  0
  184.0150  179.7430  144.5340 O   0  0  0  0  0  0  0  0  0  0  0  0
  193.2390  176.4000  142.8070 C   0  0  0  0  0  2  0  0  0  0  0  0
  194.4170  173.6760  143.0100 O   0  0  0  0  0  0  0  0  0  0  0  0
  194.3340  176.4760  145.1410 C   0  0  0  0  0  3  0  0  0  0  0  0
  195.0930  174.2340  145.1610 O   0  0  0  0  0  0  0  0  0  0  0  0
  195.0500  175.3970  145.9810 C   0  0  0  0  0  3  0  0  0  0  0  0
  194.0980  175.8560  143.8480 N   0  0  0  0  0  0  0  0  0  0  0  0
  194.5350  174.5190  143.9380 C   0  0  0  0  0  0  0  0  0  0  0  0
  1  5  1  0  0  0  0
  2  6  1  0  0  0  0
  3  1  2  0  0  0  0
  3  4  1  0  0  0  0
  4  2  1  0  0  0  0
  6  5  1  6  0  0  0
  6  7  1  0  0  0  0
  7 17  1  1  0  0  0
  8 18  2  0  0  0  0
  8  9  1  0  0  0  0
  9 12  1  1  0  0  0
 10 15  1  0  0  0  0
 10  7  1  0  0  0  0
 11 16  2  0  0  0  0
 11 14  1  0  0  0  0
 12 13  1  0  0  0  0
 14 10  1  0  0  0  0
 14 15  1  0  0  0  0
 15  9  1  0  0  0  0
 16  8  1  0  0  0  0
 17 13  1  0  0  0  0
 19  3  1  0  0  0  0
 19 24  1  0  0  0  0
 20 25  2  0  0  0  0
 21 23  2  0  0  0  0
 22 23  1  0  0  0  0
 24 25  1  0  0  0  0
 24 21  1  0  0  0  0
 25 22  1  0  0  0  0
M  END
>  <MODEL>
8

>  <REMARK>
 VINA RESULT:      -6.8      1.095      1.424
  Name = 
  3 active torsions:
  status: ('A' for Active; 'I' for Inactive)
    1  A    between atoms: N_1  and  C_24
    2  A    between atoms: C_16  and  C_19
    3  A    between atoms: N_18  and  C_19
                            x       y       z     vdW  Elec       q    Type
                         _______ _______ _______ _____ _____    ______ ____

>  <TORSDO>
F 3

$$$$
=
 OpenBabel11042413493D

 25 29  0  0  1  0  0  0  0  0999 V2000
  188.2570  173.4640  141.7160 N   0  0  0  0  0  0  0  0  0  0  0  0
  189.9350  175.2550  143.1040 C   0  0  0  0  0  2  0  0  0  0  0  0
  189.4100  173.0050  142.0810 C   0  0  0  0  0  0  0  0  0  0  0  0
  190.3300  173.7860  142.9900 C   0  0  0  0  0  2  0  0  0  0  0  0
  187.8160  174.8220  141.9720 C   0  0  0  0  0  2  0  0  0  0  0  0
  188.4210  175.3730  143.2660 C   0  0  2  0  0  3  0  0  0  0  0  0
  188.0210  176.7710  143.4780 N   0  0  2  0  0  0  0  0  0  0  0  0
  184.8380  178.4420  145.8050 C   0  0  0  0  0  0  0  0  0  0  0  0
  185.9120  178.9080  144.8580 C   0  0  2  0  0  3  0  0  0  0  0  0
  187.0510  176.8210  144.5600 C   0  0  1  0  0  3  0  0  0  0  0  0
  186.2960  176.7910  146.9200 C   0  0  0  0  0  3  0  0  0  0  0  0
  185.4930  178.7970  143.3650 C   0  0  0  0  0  2  0  0  0  0  0  0
  186.6910  178.6580  142.3890 C   0  0  0  0  0  2  0  0  0  0  0  0
  187.4710  177.0260  146.0020 C   0  0  2  0  0  3  0  0  0  0  0  0
  187.2580  178.2320  145.1090 C   0  0  2  0  0  3  0  0  0  0  0  0
  185.1160  177.4200  146.8270 C   0  0  0  0  0  3  0  0  0  0  0  0
  187.2460  177.2080  142.2920 C   0  0  0  0  0  2  0  0  0  0  0  0
  183.6920  178.9610  145.7510 O   0  0  0  0  0  0  0  0  0  0  0  0
  189.7500  171.5820  141.7790 C   0  0  0  0  0  2  0  0  0  0  0  0
  189.0800  171.7370  138.8850 O   0  0  0  0  0  0  0  0  0  0  0  0
  192.0300  171.0720  140.6860 C   0  0  0  0  0  3  0  0  0  0  0  0
  191.2750  171.1230  138.4430 O   0  0  0  0  0  0  0  0  0  0  0  0
  192.4480  170.8780  139.2130 C   0  0  0  0  0  3  0  0  0  0  0  0
  190.6430  171.5060  140.6330 N   0  0  0  0  0  0  0  0  0  0  0  0
  190.2470  171.4790  139.2810 C   0  0  0  0  0  0  0  0  0  0  0  0
  1  5  1  0  0  0  0
  1  3  2  0  0  0  0
  2  6  1  0  0  0  0
  3  4  1  0  0  0  0
  4  2  1  0  0  0  0
  6  5  1  6  0  0  0
  6  7  1  0  0  0  0
  7 17  1  6  0  0  0
  7 10  1  0  0  0  0
  8 16  1  0  0  0  0
  9 12  1  6  0  0  0
  9 15  1  0  0  0  0
  9  8  1  0  0  0  0
 10 15  1  0  0  0  0
 10 14  1  0  0  0  0
 13 12  1  0  0  0  0
 14 11  1  0  0  0  0
 15 14  1  0  0  0  0
 16 11  2  0  0  0  0
 17 13  1  0  0  0  0
 18  8  2  0  0  0  0
 19  3  1  0  0  0  0
 20 25  2  0  0  0  0
 22 23  1  0  0  0  0
 22 25  1  0  0  0  0
 23 21  2  0  0  0  0
 24 21  1  0  0  0  0
 24 19  1  0  0  0  0
 25 24  1  0  0  0  0
M  END
>  <MODEL>
9

>  <REMARK>
 VINA RESULT:      -6.8      4.238      5.112
  Name = 
  3 active torsions:
  status: ('A' for Active; 'I' for Inactive)
    1  A    between atoms: N_1  and  C_24
    2  A    between atoms: C_16  and  C_19
    3  A    between atoms: N_18  and  C_19
                            x       y       z     vdW  Elec       q    Type
                         _______ _______ _______ _____ _____    ______ ____

>  <TORSDO>
F 3

$$$$
