=
 OpenBabel11042417153D

 31 35  0  0  1  0  0  0  0  0999 V2000
  188.9230  175.8360  145.0530 C   0  0  0  0  0  3  0  0  0  0  0  0
  193.7510  176.0210  146.3540 C   0  0  0  0  0  2  0  0  0  0  0  0
  193.2740  176.0580  144.0830 C   0  0  0  0  0  0  0  0  0  0  0  0
  191.2740  176.2240  145.5450 C   0  0  0  0  0  0  0  0  0  0  0  0
  192.7240  176.0790  145.2810 C   0  0  0  0  0  0  0  0  0  0  0  0
  195.6210  174.6150  145.8920 O   0  0  0  0  0  1  0  0  0  0  0  0
  191.5390  175.0890  142.6670 C   0  0  0  0  0  0  0  0  0  0  0  0
  195.0760  175.8680  145.6130 C   0  0  1  0  0  3  0  0  0  0  0  0
  190.5480  174.9400  143.4990 N   0  0  0  0  0  0  0  0  0  0  0  0
  188.5490  176.4900  146.2270 C   0  0  0  0  0  0  0  0  0  0  0  0
  194.7500  175.9590  144.1260 C   0  0  0  0  0  2  0  0  0  0  0  0
  189.5430  177.0040  147.0670 C   0  0  0  0  0  3  0  0  0  0  0  0
  190.2660  175.7070  144.6830 C   0  0  0  0  0  0  0  0  0  0  0  0
  190.8890  176.8650  146.7310 C   0  0  0  0  0  3  0  0  0  0  0  0
  192.5090  176.2170  142.8200 C   0  0  0  0  0  2  0  0  0  0  0  0
  186.2230  177.5630  146.0240 C   0  0  0  0  0  0  0  0  0  0  0  0
  186.5630  178.4680  145.1720 N   0  0  0  0  0  0  0  0  0  0  0  0
  184.5060  177.5530  146.5410 S   0  0  0  0  0  0  0  0  0  0  0  0
  184.1780  178.9820  145.4540 C   0  0  0  0  0  2  0  0  0  0  0  0
  185.4750  179.2960  144.8080 C   0  0  0  0  0  0  0  0  0  0  0  0
  185.6090  180.2390  143.9860 O   0  0  0  0  0  0  0  0  0  0  0  0
  187.1540  176.6030  146.5410 N   0  0  0  0  0  2  0  0  0  0  0  0
  191.7850  173.6090  138.4830 C   0  0  0  0  0  0  0  0  0  0  0  0
  191.6860  174.1610  141.5250 C   0  0  0  0  0  0  0  0  0  0  0  0
  192.7180  174.2670  140.6880 C   0  0  0  0  0  3  0  0  0  0  0  0
  190.5110  173.6080  138.7690 N   0  0  0  0  0  0  0  0  0  0  0  0
  189.9280  173.4040  140.0380 N   0  0  0  0  0  2  0  0  0  0  0  0
  192.8530  173.3490  139.5160 C   0  0  0  0  0  2  0  0  0  0  0  0
  190.6580  173.1040  141.2640 C   0  0  0  0  0  2  0  0  0  0  0  0
  192.1540  173.8430  137.1560 O   0  0  0  0  0  0  0  0  0  0  0  0
  192.5710  175.1190  136.6900 C   0  0  0  0  0  1  0  0  0  0  0  0
  1 10  1  0  0  0  0
  3 11  1  0  0  0  0
  3  5  2  0  0  0  0
  4 14  2  0  0  0  0
  5  4  1  0  0  0  0
  5  2  1  0  0  0  0
  7 15  1  0  0  0  0
  7  9  2  0  0  0  0
  8  6  1  6  0  0  0
  8  2  1  0  0  0  0
  9 13  1  0  0  0  0
 10 22  1  0  0  0  0
 10 12  2  0  0  0  0
 11  8  1  0  0  0  0
 13  1  2  0  0  0  0
 13  4  1  0  0  0  0
 14 12  1  0  0  0  0
 15  3  1  0  0  0  0
 16 22  1  0  0  0  0
 16 18  1  0  0  0  0
 17 16  2  0  0  0  0
 19 18  1  0  0  0  0
 20 17  1  0  0  0  0
 20 19  1  0  0  0  0
 21 20  2  0  0  0  0
 23 26  2  0  0  0  0
 23 28  1  0  0  0  0
 24  7  1  0  0  0  0
 25 24  2  0  0  0  0
 26 27  1  0  0  0  0
 27 29  1  0  0  0  0
 28 25  1  0  0  0  0
 29 24  1  0  0  0  0
 30 23  1  0  0  0  0
 31 30  1  0  0  0  0
M  END
>  <MODEL>
1

>  <REMARK>
 VINA RESULT:      -7.7      0.000      0.000
  Name = 
  3 active torsions:
  status: ('A' for Active; 'I' for Inactive)
    1  A    between atoms: C_3  and  O_19
    2  A    between atoms: C_4  and  C_15
    3  A    between atoms: C_21  and  N_26
                            x       y       z     vdW  Elec       q    Type
                         _______ _______ _______ _____ _____    ______ ____

>  <TORSDO>
F 3

$$$$
=
 OpenBabel11042417153D

 31 35  0  0  1  0  0  0  0  0999 V2000
  189.3840  175.6640  143.9770 C   0  0  0  0  0  3  0  0  0  0  0  0
  187.4990  178.0790  147.9330 C   0  0  0  0  0  2  0  0  0  0  0  0
  186.0100  177.5000  146.2500 C   0  0  0  0  0  0  0  0  0  0  0  0
  188.2910  176.5650  145.9550 C   0  0  0  0  0  0  0  0  0  0  0  0
  187.2610  177.3720  146.6470 C   0  0  0  0  0  0  0  0  0  0  0  0
  186.3410  180.1490  148.1820 O   0  0  0  0  0  1  0  0  0  0  0  0
  186.1480  177.2750  143.8240 C   0  0  0  0  0  0  0  0  0  0  0  0
  186.1730  178.7660  148.2480 C   0  0  1  0  0  3  0  0  0  0  0  0
  187.4130  177.0250  143.6360 N   0  0  0  0  0  0  0  0  0  0  0  0
  190.3750  175.0790  144.7670 C   0  0  0  0  0  0  0  0  0  0  0  0
  185.1910  178.3220  147.1690 C   0  0  0  0  0  2  0  0  0  0  0  0
  190.3270  175.2460  146.1550 C   0  0  0  0  0  3  0  0  0  0  0  0
  188.3310  176.3910  144.5430 C   0  0  0  0  0  0  0  0  0  0  0  0
  189.3000  175.9870  146.7390 C   0  0  0  0  0  3  0  0  0  0  0  0
  185.4470  176.8100  145.0610 C   0  0  0  0  0  2  0  0  0  0  0  0
  192.8070  174.6810  144.0400 C   0  0  0  0  0  0  0  0  0  0  0  0
  193.2860  175.7550  144.5670 N   0  0  0  0  0  0  0  0  0  0  0  0
  193.9720  173.6190  143.1850 S   0  0  0  0  0  0  0  0  0  0  0  0
  195.3180  174.7860  143.5860 C   0  0  0  0  0  2  0  0  0  0  0  0
  194.6780  175.8820  144.3540 C   0  0  0  0  0  0  0  0  0  0  0  0
  195.3270  176.8660  144.7930 O   0  0  0  0  0  0  0  0  0  0  0  0
  191.4190  174.3330  144.1250 N   0  0  0  0  0  2  0  0  0  0  0  0
  183.2050  178.0320  140.5790 C   0  0  0  0  0  0  0  0  0  0  0  0
  185.3770  177.9870  142.7830 C   0  0  0  0  0  0  0  0  0  0  0  0
  184.0600  178.1610  142.9070 C   0  0  0  0  0  3  0  0  0  0  0  0
  184.2690  177.5770  139.9740 N   0  0  0  0  0  0  0  0  0  0  0  0
  185.6110  177.7390  140.3830 N   0  0  0  0  0  2  0  0  0  0  0  0
  183.2740  178.8550  141.8410 C   0  0  0  0  0  2  0  0  0  0  0  0
  186.0530  178.4960  141.5470 C   0  0  0  0  0  2  0  0  0  0  0  0
  181.9620  177.7490  140.0090 O   0  0  0  0  0  0  0  0  0  0  0  0
  180.7510  178.3210  140.4870 C   0  0  0  0  0  1  0  0  0  0  0  0
  1 13  2  0  0  0  0
  1 10  1  0  0  0  0
  2  8  1  0  0  0  0
  3  5  2  0  0  0  0
  3 11  1  0  0  0  0
  4  5  1  0  0  0  0
  4 14  2  0  0  0  0
  5  2  1  0  0  0  0
  7 15  1  0  0  0  0
  8  6  1  6  0  0  0
  9  7  2  0  0  0  0
  9 13  1  0  0  0  0
 10 12  2  0  0  0  0
 11  8  1  0  0  0  0
 12 14  1  0  0  0  0
 13  4  1  0  0  0  0
 15  3  1  0  0  0  0
 16 22  1  0  0  0  0
 16 17  2  0  0  0  0
 18 19  1  0  0  0  0
 18 16  1  0  0  0  0
 19 20  1  0  0  0  0
 20 17  1  0  0  0  0
 20 21  2  0  0  0  0
 22 10  1  0  0  0  0
 23 28  1  0  0  0  0
 24 25  2  0  0  0  0
 24  7  1  0  0  0  0
 26 27  1  0  0  0  0
 26 23  2  0  0  0  0
 27 29  1  0  0  0  0
 28 25  1  0  0  0  0
 29 24  1  0  0  0  0
 30 31  1  0  0  0  0
 30 23  1  0  0  0  0
M  END
>  <MODEL>
2

>  <REMARK>
 VINA RESULT:      -7.6      3.874      8.053
  Name = 
  3 active torsions:
  status: ('A' for Active; 'I' for Inactive)
    1  A    between atoms: C_3  and  O_19
    2  A    between atoms: C_4  and  C_15
    3  A    between atoms: C_21  and  N_26
                            x       y       z     vdW  Elec       q    Type
                         _______ _______ _______ _____ _____    ______ ____

>  <TORSDO>
F 3

$$$$
=
 OpenBabel11042417153D

 31 35  0  0  1  0  0  0  0  0999 V2000
  188.8970  175.6820  145.2180 C   0  0  0  0  0  3  0  0  0  0  0  0
  193.7260  176.2260  146.4140 C   0  0  0  0  0  2  0  0  0  0  0  0
  193.2320  175.8840  144.1710 C   0  0  0  0  0  0  0  0  0  0  0  0
  191.2380  176.2180  145.6130 C   0  0  0  0  0  0  0  0  0  0  0  0
  192.6900  176.0790  145.3580 C   0  0  0  0  0  0  0  0  0  0  0  0
  195.6390  174.8240  146.1580 O   0  0  0  0  0  1  0  0  0  0  0  0
  191.5200  174.6470  142.9500 C   0  0  0  0  0  0  0  0  0  0  0  0
  195.0500  175.9970  145.6900 C   0  0  1  0  0  3  0  0  0  0  0  0
  190.5400  174.6010  143.8070 N   0  0  0  0  0  0  0  0  0  0  0  0
  188.5110  176.5030  146.2780 C   0  0  0  0  0  0  0  0  0  0  0  0
  194.7110  175.8400  144.2110 C   0  0  0  0  0  2  0  0  0  0  0  0
  189.4930  177.1760  147.0130 C   0  0  0  0  0  3  0  0  0  0  0  0
  190.2420  175.5380  144.8570 C   0  0  0  0  0  0  0  0  0  0  0  0
  190.8400  177.0270  146.6860 C   0  0  0  0  0  3  0  0  0  0  0  0
  192.4530  175.8150  142.9090 C   0  0  0  0  0  2  0  0  0  0  0  0
  186.1880  177.5800  146.0640 C   0  0  0  0  0  0  0  0  0  0  0  0
  186.5320  178.4820  145.2090 N   0  0  0  0  0  0  0  0  0  0  0  0
  184.4690  177.5760  146.5760 S   0  0  0  0  0  0  0  0  0  0  0  0
  184.1480  179.0030  145.4820 C   0  0  0  0  0  2  0  0  0  0  0  0
  185.4480  179.3110  144.8400 C   0  0  0  0  0  0  0  0  0  0  0  0
  185.5860  180.2510  144.0150 O   0  0  0  0  0  0  0  0  0  0  0  0
  187.1150  176.6200  146.5870 N   0  0  0  0  0  2  0  0  0  0  0  0
  190.5410  171.6270  139.8370 C   0  0  0  0  0  0  0  0  0  0  0  0
  191.6890  173.5540  141.9690 C   0  0  0  0  0  0  0  0  0  0  0  0
  191.4900  173.7670  140.6670 C   0  0  0  0  0  3  0  0  0  0  0  0
  190.2890  171.0370  140.9740 N   0  0  0  0  0  0  0  0  0  0  0  0
  190.9380  171.2620  142.2070 N   0  0  0  0  0  2  0  0  0  0  0  0
  191.6330  172.6560  139.6770 C   0  0  0  0  0  2  0  0  0  0  0  0
  192.0550  172.1740  142.4200 C   0  0  0  0  0  2  0  0  0  0  0  0
  189.7710  171.2650  138.7310 O   0  0  0  0  0  0  0  0  0  0  0  0
  189.7870  169.9540  138.1800 C   0  0  0  0  0  1  0  0  0  0  0  0
  1 10  1  0  0  0  0
  3 11  1  0  0  0  0
  3  5  2  0  0  0  0
  4 14  2  0  0  0  0
  5  4  1  0  0  0  0
  5  2  1  0  0  0  0
  7  9  2  0  0  0  0
  8  6  1  1  0  0  0
  8  2  1  0  0  0  0
  9 13  1  0  0  0  0
 10 22  1  0  0  0  0
 10 12  2  0  0  0  0
 11  8  1  0  0  0  0
 13  1  2  0  0  0  0
 13  4  1  0  0  0  0
 14 12  1  0  0  0  0
 15  7  1  0  0  0  0
 15  3  1  0  0  0  0
 16 18  1  0  0  0  0
 16 22  1  0  0  0  0
 17 16  2  0  0  0  0
 19 18  1  0  0  0  0
 20 17  1  0  0  0  0
 20 19  1  0  0  0  0
 21 20  2  0  0  0  0
 23 26  2  0  0  0  0
 24 29  1  0  0  0  0
 24  7  1  0  0  0  0
 25 24  2  0  0  0  0
 26 27  1  0  0  0  0
 27 29  1  0  0  0  0
 28 23  1  0  0  0  0
 28 25  1  0  0  0  0
 30 23  1  0  0  0  0
 31 30  1  0  0  0  0
M  END
>  <MODEL>
3

>  <REMARK>
 VINA RESULT:      -7.6      1.416      1.706
  Name = 
  3 active torsions:
  status: ('A' for Active; 'I' for Inactive)
    1  A    between atoms: C_3  and  O_19
    2  A    between atoms: C_4  and  C_15
    3  A    between atoms: C_21  and  N_26
                            x       y       z     vdW  Elec       q    Type
                         _______ _______ _______ _____ _____    ______ ____

>  <TORSDO>
F 3

$$$$
=
 OpenBabel11042417153D

 31 35  0  0  1  0  0  0  0  0999 V2000
  189.9990  172.3610  142.5410 C   0  0  0  0  0  3  0  0  0  0  0  0
  193.0320  174.5180  145.8850 C   0  0  0  0  0  2  0  0  0  0  0  0
  190.7770  175.0550  146.0140 C   0  0  0  0  0  0  0  0  0  0  0  0
  191.3020  173.2460  144.3960 C   0  0  0  0  0  0  0  0  0  0  0  0
  191.6490  174.2820  145.3960 C   0  0  0  0  0  0  0  0  0  0  0  0
  193.5530  176.7910  146.3890 O   0  0  0  0  0  1  0  0  0  0  0  0
  188.9630  175.2880  144.3990 C   0  0  0  0  0  0  0  0  0  0  0  0
  192.8980  175.6650  146.8840 C   0  0  1  0  0  3  0  0  0  0  0  0
  189.3560  174.5210  143.4220 N   0  0  0  0  0  0  0  0  0  0  0  0
  190.8210  171.2350  142.4750 C   0  0  0  0  0  0  0  0  0  0  0  0
  191.4060  175.9580  147.0040 C   0  0  0  0  0  2  0  0  0  0  0  0
  191.8930  171.1210  143.3670 C   0  0  0  0  0  3  0  0  0  0  0  0
  190.2060  173.3630  143.4960 C   0  0  0  0  0  0  0  0  0  0  0  0
  192.1320  172.1200  144.3100 C   0  0  0  0  0  3  0  0  0  0  0  0
  189.3080  174.9640  145.8180 C   0  0  0  0  0  2  0  0  0  0  0  0
  190.9040  170.2700  140.0960 C   0  0  0  0  0  0  0  0  0  0  0  0
  191.5520  171.2530  139.5700 N   0  0  0  0  0  0  0  0  0  0  0  0
  190.4660  168.9220  138.9980 S   0  0  0  0  0  0  0  0  0  0  0  0
  191.2690  169.7980  137.6120 C   0  0  0  0  0  2  0  0  0  0  0  0
  191.7910  171.0600  138.1900 C   0  0  0  0  0  0  0  0  0  0  0  0
  192.4100  171.9120  137.5010 O   0  0  0  0  0  0  0  0  0  0  0  0
  190.5460  170.2360  141.4830 N   0  0  0  0  0  2  0  0  0  0  0  0
  185.4030  177.9420  144.1890 C   0  0  0  0  0  0  0  0  0  0  0  0
  188.1240  176.4710  144.1130 C   0  0  0  0  0  0  0  0  0  0  0  0
  187.5820  177.1790  145.1050 C   0  0  0  0  0  3  0  0  0  0  0  0
  185.3400  177.2040  143.1140 N   0  0  0  0  0  0  0  0  0  0  0  0
  186.4270  176.6630  142.3930 N   0  0  0  0  0  2  0  0  0  0  0  0
  186.7090  178.3590  144.8170 C   0  0  0  0  0  2  0  0  0  0  0  0
  187.8360  176.8790  142.7010 C   0  0  0  0  0  2  0  0  0  0  0  0
  184.2000  178.3670  144.7560 O   0  0  0  0  0  0  0  0  0  0  0  0
  184.0660  178.6650  146.1400 C   0  0  0  0  0  1  0  0  0  0  0  0
  1 13  1  0  0  0  0
  2  8  1  0  0  0  0
  3 11  1  0  0  0  0
  4  5  1  0  0  0  0
  5  2  1  0  0  0  0
  5  3  2  0  0  0  0
  7 15  1  0  0  0  0
  8  6  1  6  0  0  0
  8 11  1  0  0  0  0
  9 13  1  0  0  0  0
  9  7  2  0  0  0  0
 10  1  2  0  0  0  0
 10 12  1  0  0  0  0
 12 14  2  0  0  0  0
 13  4  2  0  0  0  0
 14  4  1  0  0  0  0
 15  3  1  0  0  0  0
 16 22  1  0  0  0  0
 17 16  2  0  0  0  0
 18 16  1  0  0  0  0
 19 20  1  0  0  0  0
 19 18  1  0  0  0  0
 20 17  1  0  0  0  0
 21 20  2  0  0  0  0
 22 10  1  0  0  0  0
 23 30  1  0  0  0  0
 23 28  1  0  0  0  0
 24  7  1  0  0  0  0
 24 25  2  0  0  0  0
 26 23  2  0  0  0  0
 27 29  1  0  0  0  0
 27 26  1  0  0  0  0
 28 25  1  0  0  0  0
 29 24  1  0  0  0  0
 30 31  1  0  0  0  0
M  END
>  <MODEL>
4

>  <REMARK>
 VINA RESULT:      -7.4      3.319      7.850
  Name = 
  3 active torsions:
  status: ('A' for Active; 'I' for Inactive)
    1  A    between atoms: C_3  and  O_19
    2  A    between atoms: C_4  and  C_15
    3  A    between atoms: C_21  and  N_26
                            x       y       z     vdW  Elec       q    Type
                         _______ _______ _______ _____ _____    ______ ____

>  <TORSDO>
F 3

$$$$
=
 OpenBabel11042417153D

 31 35  0  0  1  0  0  0  0  0999 V2000
  193.7420  176.2780  142.1320 C   0  0  0  0  0  3  0  0  0  0  0  0
  192.2440  176.3210  146.9070 C   0  0  0  0  0  2  0  0  0  0  0  0
  190.7230  175.5400  145.3370 C   0  0  0  0  0  0  0  0  0  0  0  0
  192.9930  175.9710  144.4270 C   0  0  0  0  0  0  0  0  0  0  0  0
  191.9660  175.9510  145.4940 C   0  0  0  0  0  0  0  0  0  0  0  0
  190.4460  177.4000  148.0430 O   0  0  0  0  0  1  0  0  0  0  0  0
  190.2360  176.0510  143.0010 C   0  0  0  0  0  0  0  0  0  0  0  0
  190.9050  176.1540  147.6200 C   0  0  1  0  0  3  0  0  0  0  0  0
  191.3740  176.5190  142.5720 N   0  0  0  0  0  0  0  0  0  0  0  0
  195.0680  176.0780  142.5180 C   0  0  0  0  0  0  0  0  0  0  0  0
  189.9380  175.5790  146.5910 C   0  0  0  0  0  2  0  0  0  0  0  0
  195.3560  175.8340  143.8650 C   0  0  0  0  0  3  0  0  0  0  0  0
  192.6930  176.2120  143.0570 C   0  0  0  0  0  0  0  0  0  0  0  0
  194.3300  175.7880  144.8070 C   0  0  0  0  0  3  0  0  0  0  0  0
  190.1870  174.9970  144.0620 C   0  0  0  0  0  2  0  0  0  0  0  0
  196.6370  175.0540  140.7600 C   0  0  0  0  0  0  0  0  0  0  0  0
  196.2290  173.8390  140.9010 N   0  0  0  0  0  0  0  0  0  0  0  0
  197.9310  175.3280  139.5490 S   0  0  0  0  0  0  0  0  0  0  0  0
  197.9390  173.5430  139.1640 C   0  0  0  0  0  2  0  0  0  0  0  0
  196.9090  172.9420  140.0450 C   0  0  0  0  0  0  0  0  0  0  0  0
  196.6500  171.7120  140.0380 O   0  0  0  0  0  0  0  0  0  0  0  0
  196.0950  176.1430  141.5180 N   0  0  0  0  0  2  0  0  0  0  0  0
  186.2650  178.0110  142.6170 C   0  0  0  0  0  0  0  0  0  0  0  0
  188.9720  176.5290  142.4020 C   0  0  0  0  0  0  0  0  0  0  0  0
  188.7200  177.8330  142.2880 C   0  0  0  0  0  3  0  0  0  0  0  0
  186.0090  176.8080  143.0540 N   0  0  0  0  0  0  0  0  0  0  0  0
  186.7530  175.6370  142.7960 N   0  0  0  0  0  2  0  0  0  0  0  0
  187.4300  178.3180  141.7090 C   0  0  0  0  0  2  0  0  0  0  0  0
  187.9310  175.5560  141.9410 C   0  0  0  0  0  2  0  0  0  0  0  0
  185.4030  179.0400  143.0010 O   0  0  0  0  0  0  0  0  0  0  0  0
  185.5460  179.7450  144.2270 C   0  0  0  0  0  1  0  0  0  0  0  0
  1 10  2  0  0  0  0
  1 13  1  0  0  0  0
  2  8  1  0  0  0  0
  3  5  2  0  0  0  0
  3 11  1  0  0  0  0
  4 14  1  0  0  0  0
  4  5  1  0  0  0  0
  5  2  1  0  0  0  0
  7 15  1  0  0  0  0
  8  6  1  6  0  0  0
  9  7  2  0  0  0  0
  9 13  1  0  0  0  0
 10 12  1  0  0  0  0
 11  8  1  0  0  0  0
 12 14  2  0  0  0  0
 13  4  2  0  0  0  0
 15  3  1  0  0  0  0
 16 17  2  0  0  0  0
 16 22  1  0  0  0  0
 18 16  1  0  0  0  0
 19 18  1  0  0  0  0
 19 20  1  0  0  0  0
 20 17  1  0  0  0  0
 21 20  2  0  0  0  0
 22 10  1  0  0  0  0
 23 30  1  0  0  0  0
 23 26  2  0  0  0  0
 24  7  1  0  0  0  0
 25 24  2  0  0  0  0
 27 26  1  0  0  0  0
 28 25  1  0  0  0  0
 28 23  1  0  0  0  0
 29 24  1  0  0  0  0
 29 27  1  0  0  0  0
 30 31  1  0  0  0  0
M  END
>  <MODEL>
5

>  <REMARK>
 VINA RESULT:      -7.3      4.154      8.129
  Name = 
  3 active torsions:
  status: ('A' for Active; 'I' for Inactive)
    1  A    between atoms: C_3  and  O_19
    2  A    between atoms: C_4  and  C_15
    3  A    between atoms: C_21  and  N_26
                            x       y       z     vdW  Elec       q    Type
                         _______ _______ _______ _____ _____    ______ ____

>  <TORSDO>
F 3

$$$$
=
 OpenBabel11042417153D

 31 35  0  0  1  0  0  0  0  0999 V2000
  189.2880  177.1640  143.0470 C   0  0  0  0  0  3  0  0  0  0  0  0
  190.4130  173.1240  140.3180 C   0  0  0  0  0  2  0  0  0  0  0  0
  191.5900  173.4140  142.2980 C   0  0  0  0  0  0  0  0  0  0  0  0
  189.7270  175.0240  141.9770 C   0  0  0  0  0  0  0  0  0  0  0  0
  190.6010  173.9000  141.5720 C   0  0  0  0  0  0  0  0  0  0  0  0
  192.4240  172.3570  139.2900 O   0  0  0  0  0  1  0  0  0  0  0  0
  192.3680  175.3410  143.5770 C   0  0  0  0  0  0  0  0  0  0  0  0
  191.5370  172.0900  140.3310 C   0  0  1  0  0  3  0  0  0  0  0  0
  191.5310  176.2730  143.2190 N   0  0  0  0  0  0  0  0  0  0  0  0
  187.9700  177.1460  142.5870 C   0  0  0  0  0  0  0  0  0  0  0  0
  192.2560  172.2530  141.6660 C   0  0  0  0  0  2  0  0  0  0  0  0
  187.5340  176.0670  141.8110 C   0  0  0  0  0  3  0  0  0  0  0  0
  190.1730  176.1150  142.7730 C   0  0  0  0  0  0  0  0  0  0  0  0
  188.4060  175.0230  141.5050 C   0  0  0  0  0  3  0  0  0  0  0  0
  191.9400  173.9090  143.6540 C   0  0  0  0  0  2  0  0  0  0  0  0
  186.1940  178.3310  144.0160 C   0  0  0  0  0  0  0  0  0  0  0  0
  186.0500  177.3800  144.8730 N   0  0  0  0  0  0  0  0  0  0  0  0
  185.1870  179.7940  144.2650 S   0  0  0  0  0  0  0  0  0  0  0  0
  184.4490  179.0240  145.7470 C   0  0  0  0  0  2  0  0  0  0  0  0
  185.0940  177.6940  145.8670 C   0  0  0  0  0  0  0  0  0  0  0  0
  184.8140  176.8900  146.7930 O   0  0  0  0  0  0  0  0  0  0  0  0
  187.1090  178.2450  142.9160 N   0  0  0  0  0  2  0  0  0  0  0  0
  196.6640  174.9130  144.6390 C   0  0  0  0  0  0  0  0  0  0  0  0
  193.7490  175.7010  143.9610 C   0  0  0  0  0  0  0  0  0  0  0  0
  194.7700  175.4730  143.1330 C   0  0  0  0  0  3  0  0  0  0  0  0
  196.0190  174.7610  145.7640 N   0  0  0  0  0  0  0  0  0  0  0  0
  194.7900  175.3550  146.1230 N   0  0  0  0  0  2  0  0  0  0  0  0
  196.1710  175.8110  143.5310 C   0  0  0  0  0  2  0  0  0  0  0  0
  194.0360  176.2980  145.3040 C   0  0  0  0  0  2  0  0  0  0  0  0
  197.8660  174.2210  144.4800 O   0  0  0  0  0  0  0  0  0  0  0  0
  197.9410  172.9410  143.8650 C   0  0  0  0  0  1  0  0  0  0  0  0
  2  8  1  0  0  0  0
  2  5  1  0  0  0  0
  3 15  1  0  0  0  0
  4 13  2  0  0  0  0
  5  4  1  0  0  0  0
  5  3  2  0  0  0  0
  7 15  1  0  0  0  0
  7 24  1  0  0  0  0
  8  6  1  6  0  0  0
  8 11  1  0  0  0  0
  9  7  2  0  0  0  0
 10 22  1  0  0  0  0
 10  1  2  0  0  0  0
 11  3  1  0  0  0  0
 12 10  1  0  0  0  0
 13  1  1  0  0  0  0
 13  9  1  0  0  0  0
 14 12  2  0  0  0  0
 14  4  1  0  0  0  0
 16 18  1  0  0  0  0
 16 17  2  0  0  0  0
 17 20  1  0  0  0  0
 18 19  1  0  0  0  0
 19 20  1  0  0  0  0
 20 21  2  0  0  0  0
 22 16  1  0  0  0  0
 23 26  2  0  0  0  0
 24 29  1  0  0  0  0
 25 28  1  0  0  0  0
 25 24  2  0  0  0  0
 26 27  1  0  0  0  0
 28 23  1  0  0  0  0
 29 27  1  0  0  0  0
 30 23  1  0  0  0  0
 31 30  1  0  0  0  0
M  END
>  <MODEL>
6

>  <REMARK>
 VINA RESULT:      -7.2      2.587      5.339
  Name = 
  3 active torsions:
  status: ('A' for Active; 'I' for Inactive)
    1  A    between atoms: C_3  and  O_19
    2  A    between atoms: C_4  and  C_15
    3  A    between atoms: C_21  and  N_26
                            x       y       z     vdW  Elec       q    Type
                         _______ _______ _______ _____ _____    ______ ____

>  <TORSDO>
F 3

$$$$
=
 OpenBabel11042417153D

 31 35  0  0  1  0  0  0  0  0999 V2000
  189.1640  176.3080  143.5160 C   0  0  0  0  0  3  0  0  0  0  0  0
  189.8340  172.0500  140.9740 C   0  0  0  0  0  2  0  0  0  0  0  0
  190.8670  172.2080  143.0470 C   0  0  0  0  0  0  0  0  0  0  0  0
  189.3320  174.0900  142.5290 C   0  0  0  0  0  0  0  0  0  0  0  0
  190.0390  172.8250  142.2260 C   0  0  0  0  0  0  0  0  0  0  0  0
  191.7710  170.9310  140.1470 O   0  0  0  0  0  1  0  0  0  0  0  0
  191.8400  174.0230  144.3570 C   0  0  0  0  0  0  0  0  0  0  0  0
  190.7640  170.8470  141.1080 C   0  0  1  0  0  3  0  0  0  0  0  0
  191.2040  175.0670  143.9070 N   0  0  0  0  0  0  0  0  0  0  0  0
  187.9070  176.4910  142.9390 C   0  0  0  0  0  0  0  0  0  0  0  0
  191.3830  170.9340  142.4990 C   0  0  0  0  0  2  0  0  0  0  0  0
  187.3660  175.4730  142.1460 C   0  0  0  0  0  3  0  0  0  0  0  0
  189.8830  175.1190  143.3430 C   0  0  0  0  0  0  0  0  0  0  0  0
  188.0750  174.2910  141.9400 C   0  0  0  0  0  3  0  0  0  0  0  0
  191.1750  172.6840  144.4200 C   0  0  0  0  0  2  0  0  0  0  0  0
  186.2480  178.0020  144.1900 C   0  0  0  0  0  0  0  0  0  0  0  0
  185.8870  177.1210  145.0590 N   0  0  0  0  0  0  0  0  0  0  0  0
  185.4780  179.6170  144.3180 S   0  0  0  0  0  0  0  0  0  0  0  0
  184.5170  179.0360  145.7580 C   0  0  0  0  0  2  0  0  0  0  0  0
  184.9250  177.6260  145.9650 C   0  0  0  0  0  0  0  0  0  0  0  0
  184.4500  176.9140  146.8880 O   0  0  0  0  0  0  0  0  0  0  0  0
  187.2150  177.7260  143.1690 N   0  0  0  0  0  2  0  0  0  0  0  0
  196.2210  174.7810  144.3960 C   0  0  0  0  0  0  0  0  0  0  0  0
  193.2240  174.1640  144.8580 C   0  0  0  0  0  0  0  0  0  0  0  0
  193.8420  175.3450  144.8340 C   0  0  0  0  0  3  0  0  0  0  0  0
  196.0970  173.5230  144.0680 N   0  0  0  0  0  0  0  0  0  0  0  0
  195.0690  172.6410  144.4670 N   0  0  0  0  0  2  0  0  0  0  0  0
  195.2520  175.4840  145.3130 C   0  0  0  0  0  2  0  0  0  0  0  0
  193.9740  172.9730  145.3710 C   0  0  0  0  0  2  0  0  0  0  0  0
  197.3120  175.4820  143.8800 O   0  0  0  0  0  0  0  0  0  0  0  0
  197.1710  176.6900  143.1440 C   0  0  0  0  0  1  0  0  0  0  0  0
  2  8  1  0  0  0  0
  2  5  1  0  0  0  0
  3 15  1  0  0  0  0
  4 13  2  0  0  0  0
  5  4  1  0  0  0  0
  5  3  2  0  0  0  0
  7 15  1  0  0  0  0
  7 24  1  0  0  0  0
  8  6  1  6  0  0  0
  8 11  1  0  0  0  0
  9  7  2  0  0  0  0
 10 22  1  0  0  0  0
 10  1  2  0  0  0  0
 11  3  1  0  0  0  0
 12 10  1  0  0  0  0
 13  1  1  0  0  0  0
 13  9  1  0  0  0  0
 14 12  2  0  0  0  0
 14  4  1  0  0  0  0
 16 18  1  0  0  0  0
 16 17  2  0  0  0  0
 17 20  1  0  0  0  0
 18 19  1  0  0  0  0
 19 20  1  0  0  0  0
 20 21  2  0  0  0  0
 22 16  1  0  0  0  0
 23 28  1  0  0  0  0
 24 29  1  0  0  0  0
 25 24  2  0  0  0  0
 25 28  1  0  0  0  0
 26 23  2  0  0  0  0
 26 27  1  0  0  0  0
 27 29  1  0  0  0  0
 30 23  1  0  0  0  0
 31 30  1  0  0  0  0
M  END
>  <MODEL>
7

>  <REMARK>
 VINA RESULT:      -7.2      2.885      5.262
  Name = 
  3 active torsions:
  status: ('A' for Active; 'I' for Inactive)
    1  A    between atoms: C_3  and  O_19
    2  A    between atoms: C_4  and  C_15
    3  A    between atoms: C_21  and  N_26
                            x       y       z     vdW  Elec       q    Type
                         _______ _______ _______ _____ _____    ______ ____

>  <TORSDO>
F 3

$$$$
=
 OpenBabel11042417153D

 31 35  0  0  1  0  0  0  0  0999 V2000
  190.4620  173.0460  142.3870 C   0  0  0  0  0  3  0  0  0  0  0  0
  194.3560  174.9190  144.9110 C   0  0  0  0  0  2  0  0  0  0  0  0
  192.2740  175.0770  145.9260 C   0  0  0  0  0  0  0  0  0  0  0  0
  192.2900  173.7270  143.8420 C   0  0  0  0  0  0  0  0  0  0  0  0
  192.9080  174.5810  144.8810 C   0  0  0  0  0  0  0  0  0  0  0  0
  194.8710  177.0970  145.7360 O   0  0  0  0  0  1  0  0  0  0  0  0
  189.9840  175.3550  145.1320 C   0  0  0  0  0  0  0  0  0  0  0  0
  194.5190  175.8100  146.1400 C   0  0  1  0  0  3  0  0  0  0  0  0
  190.0420  174.8670  143.9250 N   0  0  0  0  0  0  0  0  0  0  0  0
  191.2770  172.0910  141.7770 C   0  0  0  0  0  0  0  0  0  0  0  0
  193.1590  175.8480  146.8270 C   0  0  0  0  0  2  0  0  0  0  0  0
  192.6050  171.9620  142.1960 C   0  0  0  0  0  3  0  0  0  0  0  0
  190.9360  173.8570  143.4250 C   0  0  0  0  0  0  0  0  0  0  0  0
  193.1060  172.7760  143.2110 C   0  0  0  0  0  3  0  0  0  0  0  0
  190.8450  174.8090  146.2270 C   0  0  0  0  0  2  0  0  0  0  0  0
  190.4850  171.6670  139.3700 C   0  0  0  0  0  0  0  0  0  0  0  0
  190.7610  172.8440  138.9240 N   0  0  0  0  0  0  0  0  0  0  0  0
  189.7780  170.5100  138.1960 S   0  0  0  0  0  0  0  0  0  0  0  0
  189.8580  171.7920  136.8980 C   0  0  0  0  0  2  0  0  0  0  0  0
  190.4390  172.9870  137.5550 C   0  0  0  0  0  0  0  0  0  0  0  0
  190.6360  174.0670  136.9390 O   0  0  0  0  0  0  0  0  0  0  0  0
  190.7260  171.2810  140.7300 N   0  0  0  0  0  2  0  0  0  0  0  0
  186.1340  177.5440  145.5220 C   0  0  0  0  0  0  0  0  0  0  0  0
  189.0210  176.4330  145.4420 C   0  0  0  0  0  0  0  0  0  0  0  0
  188.0830  176.2640  146.3760 C   0  0  0  0  0  3  0  0  0  0  0  0
  186.5350  177.7780  144.3020 N   0  0  0  0  0  0  0  0  0  0  0  0
  187.8700  177.8520  143.8490 N   0  0  0  0  0  2  0  0  0  0  0  0
  187.0910  177.3430  146.6710 C   0  0  0  0  0  2  0  0  0  0  0  0
  189.0550  177.7270  144.6880 C   0  0  0  0  0  2  0  0  0  0  0  0
  184.7580  177.5010  145.7580 O   0  0  0  0  0  0  0  0  0  0  0  0
  183.9670  178.6730  145.9000 C   0  0  0  0  0  1  0  0  0  0  0  0
  1 13  1  0  0  0  0
  2  8  1  0  0  0  0
  3 15  1  0  0  0  0
  3 11  1  0  0  0  0
  4  5  1  0  0  0  0
  5  2  1  0  0  0  0
  5  3  2  0  0  0  0
  7 24  1  0  0  0  0
  7 15  1  0  0  0  0
  8  6  1  6  0  0  0
  8 11  1  0  0  0  0
  9  7  2  0  0  0  0
 10 12  1  0  0  0  0
 10  1  2  0  0  0  0
 12 14  2  0  0  0  0
 13  4  2  0  0  0  0
 13  9  1  0  0  0  0
 14  4  1  0  0  0  0
 16 22  1  0  0  0  0
 17 16  2  0  0  0  0
 18 16  1  0  0  0  0
 19 20  1  0  0  0  0
 19 18  1  0  0  0  0
 20 17  1  0  0  0  0
 21 20  2  0  0  0  0
 22 10  1  0  0  0  0
 23 30  1  0  0  0  0
 23 28  1  0  0  0  0
 24 25  2  0  0  0  0
 25 28  1  0  0  0  0
 26 23  2  0  0  0  0
 27 26  1  0  0  0  0
 27 29  1  0  0  0  0
 29 24  1  0  0  0  0
 30 31  1  0  0  0  0
M  END
>  <MODEL>
8

>  <REMARK>
 VINA RESULT:      -7.2      2.815      7.524
  Name = 
  3 active torsions:
  status: ('A' for Active; 'I' for Inactive)
    1  A    between atoms: C_3  and  O_19
    2  A    between atoms: C_4  and  C_15
    3  A    between atoms: C_21  and  N_26
                            x       y       z     vdW  Elec       q    Type
                         _______ _______ _______ _____ _____    ______ ____

>  <TORSDO>
F 3

$$$$
=
 OpenBabel11042417153D

 31 35  0  0  1  0  0  0  0  0999 V2000
  187.3880  176.6830  140.9450 C   0  0  0  0  0  3  0  0  0  0  0  0
  184.4430  178.2960  144.6550 C   0  0  0  0  0  2  0  0  0  0  0  0
  186.7260  178.2400  145.0750 C   0  0  0  0  0  0  0  0  0  0  0  0
  186.1130  177.7550  142.7180 C   0  0  0  0  0  0  0  0  0  0  0  0
  185.8170  178.0640  144.1360 C   0  0  0  0  0  0  0  0  0  0  0  0
  184.0620  177.5360  146.8840 O   0  0  0  0  0  1  0  0  0  0  0  0
  188.5790  176.8240  144.3580 C   0  0  0  0  0  0  0  0  0  0  0  0
  184.6350  178.5700  146.1440 C   0  0  1  0  0  3  0  0  0  0  0  0
  188.1540  176.3600  143.2170 N   0  0  0  0  0  0  0  0  0  0  0  0
  186.4960  177.1640  139.9860 C   0  0  0  0  0  0  0  0  0  0  0  0
  186.1400  178.5940  146.3880 C   0  0  0  0  0  2  0  0  0  0  0  0
  185.4040  177.9350  140.3980 C   0  0  0  0  0  3  0  0  0  0  0  0
  187.2300  176.9770  142.3040 C   0  0  0  0  0  0  0  0  0  0  0  0
  185.2130  178.2200  141.7490 C   0  0  0  0  0  3  0  0  0  0  0  0
  188.1900  178.1900  144.8280 C   0  0  0  0  0  2  0  0  0  0  0  0
  187.4350  175.7090  138.0880 C   0  0  0  0  0  0  0  0  0  0  0  0
  187.9680  174.8170  138.8490 N   0  0  0  0  0  0  0  0  0  0  0  0
  187.6230  175.4720  136.3200 S   0  0  0  0  0  0  0  0  0  0  0  0
  188.5640  173.9380  136.6340 C   0  0  0  0  0  2  0  0  0  0  0  0
  188.6150  173.7990  138.1090 C   0  0  0  0  0  0  0  0  0  0  0  0
  189.1950  172.8380  138.6760 O   0  0  0  0  0  0  0  0  0  0  0  0
  186.7220  176.8390  138.6070 N   0  0  0  0  0  2  0  0  0  0  0  0
  192.3520  175.2510  146.1060 C   0  0  0  0  0  0  0  0  0  0  0  0
  189.4980  176.0130  145.1850 C   0  0  0  0  0  0  0  0  0  0  0  0
  190.2560  176.5820  146.1230 C   0  0  0  0  0  3  0  0  0  0  0  0
  192.1740  174.5640  145.0100 N   0  0  0  0  0  0  0  0  0  0  0  0
  190.9390  174.2210  144.4170 N   0  0  0  0  0  2  0  0  0  0  0  0
  191.2070  175.7680  146.9400 C   0  0  0  0  0  2  0  0  0  0  0  0
  189.6240  174.5370  144.9610 C   0  0  0  0  0  2  0  0  0  0  0  0
  193.6650  175.4910  146.5160 O   0  0  0  0  0  0  0  0  0  0  0  0
  194.2460  176.7890  146.5130 C   0  0  0  0  0  1  0  0  0  0  0  0
  1 13  1  0  0  0  0
  2  8  1  0  0  0  0
  3 11  1  0  0  0  0
  4  5  1  0  0  0  0
  5  2  1  0  0  0  0
  5  3  2  0  0  0  0
  7 15  1  0  0  0  0
  7 24  1  0  0  0  0
  8 11  1  0  0  0  0
  8  6  1  1  0  0  0
  9  7  2  0  0  0  0
 10 12  1  0  0  0  0
 10  1  2  0  0  0  0
 12 14  2  0  0  0  0
 13  4  2  0  0  0  0
 13  9  1  0  0  0  0
 14  4  1  0  0  0  0
 15  3  1  0  0  0  0
 16 22  1  0  0  0  0
 16 17  2  0  0  0  0
 18 19  1  0  0  0  0
 18 16  1  0  0  0  0
 19 20  1  0  0  0  0
 20 21  2  0  0  0  0
 20 17  1  0  0  0  0
 22 10  1  0  0  0  0
 23 30  1  0  0  0  0
 23 28  1  0  0  0  0
 24 25  2  0  0  0  0
 25 28  1  0  0  0  0
 26 23  2  0  0  0  0
 27 29  1  0  0  0  0
 27 26  1  0  0  0  0
 29 24  1  0  0  0  0
 31 30  1  0  0  0  0
M  END
>  <MODEL>
9

>  <REMARK>
 VINA RESULT:      -7.2      3.440      7.829
  Name = 
  3 active torsions:
  status: ('A' for Active; 'I' for Inactive)
    1  A    between atoms: C_3  and  O_19
    2  A    between atoms: C_4  and  C_15
    3  A    between atoms: C_21  and  N_26
                            x       y       z     vdW  Elec       q    Type
                         _______ _______ _______ _____ _____    ______ ____

>  <TORSDO>
F 3

$$$$
