=
 OpenBabel11042417513D

 57 64  0  0  1  0  0  0  0  0999 V2000
  186.3280  177.0620  145.1310 C   0  0  0  0  0  0  0  0  0  0  0  0
  190.3550  174.5360  142.6770 C   0  0  0  0  0  0  0  0  0  0  0  0
  184.7500  178.1510  146.1910 C   0  0  0  0  0  0  0  0  0  0  0  0
  185.6660  177.6040  147.2010 C   0  0  0  0  0  3  0  0  0  0  0  0
  186.4300  176.9140  142.7310 C   0  0  0  0  0  0  0  0  0  0  0  0
  189.1360  175.2690  144.6070 C   0  0  0  0  0  0  0  0  0  0  0  0
  184.6380  178.1080  143.7900 N   0  0  0  0  0  0  0  0  0  0  0  0
  189.4050  175.1110  141.8150 C   0  0  0  0  0  3  0  0  0  0  0  0
  186.6320  176.9390  146.5550 C   0  0  0  0  0  3  0  0  0  0  0  0
  185.2280  177.6690  142.6300 C   0  0  0  0  0  0  0  0  0  0  0  0
  187.2030  176.4480  141.7420 C   0  0  0  0  0  3  0  0  0  0  0  0
  190.1980  174.6240  144.0370 N   0  0  0  0  0  0  0  0  0  0  0  0
  185.1850  177.8030  145.0000 C   0  0  0  0  0  0  0  0  0  0  0  0
  183.6170  178.9130  146.4450 O   0  0  0  0  0  1  0  0  0  0  0  0
  186.9660  176.6070  143.9820 C   0  0  0  0  0  0  0  0  0  0  0  0
  188.1940  175.8590  143.7610 C   0  0  0  0  0  0  0  0  0  0  0  0
  188.3280  175.7720  142.3970 C   0  0  0  0  0  0  0  0  0  0  0  0
  192.1170  174.2930  141.0640 N   0  0  0  0  0  0  0  0  0  0  0  0
  191.5030  173.8330  142.1040 C   0  0  0  0  0  3  0  0  0  0  0  0
  195.3860  172.8240  138.7420 C   0  0  0  0  0  0  0  0  0  0  0  0
  197.9410  173.9490  139.0510 C   0  0  0  0  0  3  0  0  0  0  0  0
  193.7760  171.8160  137.2910 O   0  0  0  0  0  1  0  0  0  0  0  0
  196.8520  174.4880  139.7430 C   0  0  0  0  0  3  0  0  0  0  0  0
  194.4320  174.5600  140.3370 C   0  0  0  0  0  2  0  0  0  0  0  0
  195.5810  173.9220  139.6100 C   0  0  0  0  0  0  0  0  0  0  0  0
  193.2630  173.5910  140.5100 C   0  0  2  0  0  3  0  0  0  0  0  0
  197.7600  172.8430  138.2190 C   0  0  0  0  0  3  0  0  0  0  0  0
  192.8950  173.0090  139.1550 C   0  0  0  0  0  2  0  0  0  0  0  0
  196.4900  172.2790  138.0700 C   0  0  0  0  0  3  0  0  0  0  0  0
  194.0390  172.1470  138.6210 C   0  0  2  0  0  3  0  0  0  0  0  0
  185.4080  177.9990  139.9260 S   0  0  0  0  0  0  0  0  0  0  0  0
  184.5820  178.0160  141.3430 C   0  0  0  0  0  0  0  0  0  0  0  0
  183.1670  178.1810  141.2980 N   0  0  0  0  0  0  0  0  0  0  0  0
  181.8840  178.4130  140.5710 C   0  0  0  0  0  2  0  0  0  0  0  0
  181.8230  178.2590  141.9400 C   0  0  0  0  0  2  0  0  0  0  0  0
  188.9790  175.3050  146.0230 N   0  0  0  0  0  2  0  0  0  0  0  0
  189.7570  176.1840  146.8800 C   0  0  0  0  0  2  0  0  0  0  0  0
  190.7440  175.3630  147.6910 C   0  0  0  0  0  2  0  0  0  0  0  0
  192.1650  175.6990  147.2660 C   0  0  0  0  0  2  0  0  0  0  0  0
  192.6930  174.6640  146.2890 C   0  0  0  0  0  2  0  0  0  0  0  0
  193.6890  175.7230  143.8500 O   0  0  0  0  0  0  0  0  0  0  0  0
  194.5300  175.4240  144.7430 C   0  0  0  0  0  0  0  0  0  0  0  0
  194.0980  174.9170  146.0050 N   0  0  0  0  0  2  0  0  0  0  0  0
  195.9990  175.6510  144.5050 C   0  0  1  0  0  3  0  0  0  0  0  0
  197.1490  173.5600  145.3070 C   0  0  0  0  0  2  0  0  0  0  0  0
  195.9370  173.5700  143.2030 N   0  0  0  0  0  2  0  0  0  0  0  0
  197.2270  171.6310  144.0290 C   0  0  1  0  0  3  0  0  0  0  0  0
  196.6990  172.3910  142.8010 C   0  0  0  0  0  2  0  0  0  0  0  0
  197.9410  172.4520  144.9360 O   0  0  0  0  0  0  0  0  0  0  0  0
  196.7690  174.3900  144.0790 C   0  0  1  0  0  3  0  0  0  0  0  0
  196.2220  170.6910  144.7070 C   0  0  0  0  0  2  0  0  0  0  0  0
  196.0280  169.1440  146.7000 C   0  0  0  0  0  0  0  0  0  0  0  0
  196.6650  168.5210  147.8910 C   0  0  0  0  0  1  0  0  0  0  0  0
  196.7930  170.0140  145.8650 N   0  0  0  0  0  2  0  0  0  0  0  0
  194.8200  168.9000  146.4400 O   0  0  0  0  0  0  0  0  0  0  0  0
  197.4030  176.5590  142.9260 C   0  0  0  0  0  1  0  0  0  0  0  0
  196.2530  176.7870  143.6990 O   0  0  0  0  0  0  0  0  0  0  0  0
  1  9  1  0  0  0  0
  2 12  1  0  0  0  0
  3 14  1  0  0  0  0
  3  4  1  0  0  0  0
  5 15  1  0  0  0  0
  6 36  1  0  0  0  0
  7 13  1  0  0  0  0
  8 17  1  0  0  0  0
  8  2  2  0  0  0  0
  9  4  2  0  0  0  0
 10  5  1  0  0  0  0
 10  7  2  0  0  0  0
 11 17  1  0  0  0  0
 11  5  2  0  0  0  0
 12  6  2  0  0  0  0
 13  1  1  0  0  0  0
 13  3  2  0  0  0  0
 15  1  2  0  0  0  0
 16 15  1  0  0  0  0
 16  6  1  0  0  0  0
 17 16  2  0  0  0  0
 18 19  2  0  0  0  0
 19  2  1  0  0  0  0
 20 25  1  0  0  0  0
 21 23  1  0  0  0  0
 24 26  1  0  0  0  0
 25 23  2  0  0  0  0
 25 24  1  0  0  0  0
 26 18  1  6  0  0  0
 27 21  2  0  0  0  0
 28 26  1  0  0  0  0
 29 27  1  0  0  0  0
 29 20  2  0  0  0  0
 30 22  1  6  0  0  0
 30 20  1  0  0  0  0
 30 28  1  0  0  0  0
 31 32  2  0  0  0  0
 32 10  1  0  0  0  0
 33 32  1  0  0  0  0
 33 35  1  0  0  0  0
 34 33  1  0  0  0  0
 34 35  1  0  0  0  0
 36 37  1  0  0  0  0
 37 38  1  0  0  0  0
 39 38  1  0  0  0  0
 40 39  1  0  0  0  0
 41 42  2  0  0  0  0
 42 43  1  0  0  0  0
 43 40  1  0  0  0  0
 44 57  1  6  0  0  0
 44 42  1  0  0  0  0
 46 50  1  0  0  0  0
 47 51  1  1  0  0  0
 47 49  1  0  0  0  0
 48 46  1  0  0  0  0
 48 47  1  0  0  0  0
 49 45  1  0  0  0  0
 50 44  1  1  0  0  0
 50 45  1  0  0  0  0
 51 54  1  0  0  0  0
 52 53  1  0  0  0  0
 54 52  1  0  0  0  0
 55 52  2  0  0  0  0
 56 57  1  0  0  0  0
M  END
>  <MODEL>
1

>  <REMARK>
 VINA RESULT:      -8.0      0.000      0.000
  Name = 
  15 active torsions:
  status: ('A' for Active; 'I' for Inactive)
    1  A    between atoms: C_7  and  C_46
    2  A    between atoms: C_11  and  C_24
    3  A    between atoms: N_13  and  C_50
    4  A    between atoms: C_15  and  C_28
    5  A    between atoms: C_15  and  N_47
    6  A    between atoms: C_16  and  N_21
    7  A    between atoms: C_17  and  C_27
    8  A    between atoms: C_17  and  C_28
    9  A    between atoms: C_22  and  N_36
   10  A    between atoms: C_22  and  C_43
   11  A    between atoms: C_24  and  O_34
   12  A    between atoms: C_24  and  C_57
   13  A    between atoms: C_26  and  N_47
   14  A    between atoms: C_27  and  N_38
   15  A    between atoms: C_33  and  C_50
                            x       y       z     vdW  Elec       q    Type
                         _______ _______ _______ _____ _____    ______ ____

>  <TORSDO>
F 15

$$$$
=
 OpenBabel11042417513D

 57 64  0  0  1  0  0  0  0  0999 V2000
  186.4040  176.9810  145.1050 C   0  0  0  0  0  0  0  0  0  0  0  0
  190.5440  174.4750  142.8260 C   0  0  0  0  0  0  0  0  0  0  0  0
  184.7770  178.0630  146.0960 C   0  0  0  0  0  0  0  0  0  0  0  0
  185.6560  177.5280  147.1450 C   0  0  0  0  0  3  0  0  0  0  0  0
  186.6030  176.8220  142.7120 C   0  0  0  0  0  0  0  0  0  0  0  0
  189.2440  175.2070  144.7020 C   0  0  0  0  0  0  0  0  0  0  0  0
  184.7610  178.0070  143.6930 N   0  0  0  0  0  0  0  0  0  0  0  0
  189.6250  175.0380  141.9250 C   0  0  0  0  0  3  0  0  0  0  0  0
  186.6530  176.8680  146.5410 C   0  0  0  0  0  3  0  0  0  0  0  0
  185.3990  177.5670  142.5600 C   0  0  0  0  0  0  0  0  0  0  0  0
  187.4180  176.3580  141.7570 C   0  0  0  0  0  3  0  0  0  0  0  0
  190.3330  174.5680  144.1780 N   0  0  0  0  0  0  0  0  0  0  0  0
  185.2620  177.7120  144.9250 C   0  0  0  0  0  0  0  0  0  0  0  0
  183.6290  178.8180  146.3010 O   0  0  0  0  0  1  0  0  0  0  0  0
  187.0910  176.5260  143.9850 C   0  0  0  0  0  0  0  0  0  0  0  0
  188.3320  175.7860  143.8170 C   0  0  0  0  0  0  0  0  0  0  0  0
  188.5200  175.6940  142.4590 C   0  0  0  0  0  0  0  0  0  0  0  0
  192.5630  173.2040  143.0970 N   0  0  0  0  0  0  0  0  0  0  0  0
  191.7190  173.7770  142.3030 C   0  0  0  0  0  3  0  0  0  0  0  0
  195.4490  170.4020  141.6620 C   0  0  0  0  0  0  0  0  0  0  0  0
  195.4610  169.6680  138.9510 C   0  0  0  0  0  3  0  0  0  0  0  0
  195.8210  169.7680  143.9370 O   0  0  0  0  0  1  0  0  0  0  0  0
  194.4630  170.5140  139.4410 C   0  0  0  0  0  3  0  0  0  0  0  0
  193.3430  171.7750  141.2770 C   0  0  0  0  0  2  0  0  0  0  0  0
  194.4600  170.9000  140.7850 C   0  0  0  0  0  0  0  0  0  0  0  0
  193.7210  172.5050  142.5660 C   0  0  2  0  0  3  0  0  0  0  0  0
  196.4610  169.2000  139.8070 C   0  0  0  0  0  3  0  0  0  0  0  0
  194.2140  171.4900  143.5850 C   0  0  0  0  0  2  0  0  0  0  0  0
  196.4580  169.5700  141.1550 C   0  0  0  0  0  3  0  0  0  0  0  0
  195.5140  170.8470  143.1070 C   0  0  2  0  0  3  0  0  0  0  0  0
  185.6890  177.9050  139.8660 S   0  0  0  0  0  0  0  0  0  0  0  0
  184.8020  177.9030  141.2460 C   0  0  0  0  0  0  0  0  0  0  0  0
  183.3880  178.0400  141.1400 N   0  0  0  0  0  0  0  0  0  0  0  0
  182.0960  177.9050  140.4040 C   0  0  0  0  0  2  0  0  0  0  0  0
  182.0530  178.4310  141.6790 C   0  0  0  0  0  2  0  0  0  0  0  0
  189.0310  175.2490  146.1110 N   0  0  0  0  0  2  0  0  0  0  0  0
  189.7920  176.1140  146.9980 C   0  0  0  0  0  2  0  0  0  0  0  0
  190.9770  175.3500  147.5610 C   0  0  0  0  0  2  0  0  0  0  0  0
  192.2370  176.1930  147.4400 C   0  0  0  0  0  2  0  0  0  0  0  0
  192.5070  176.5530  145.9910 C   0  0  0  0  0  2  0  0  0  0  0  0
  195.1650  177.2790  145.3030 O   0  0  0  0  0  0  0  0  0  0  0  0
  194.8080  176.0890  145.0770 C   0  0  0  0  0  0  0  0  0  0  0  0
  193.4970  175.6470  145.4280 N   0  0  0  0  0  2  0  0  0  0  0  0
  195.7820  175.1070  144.4850 C   0  0  1  0  0  3  0  0  0  0  0  0
  197.0140  174.3410  142.4260 C   0  0  0  0  0  2  0  0  0  0  0  0
  195.2880  176.0420  142.2690 N   0  0  0  0  0  2  0  0  0  0  0  0
  196.6670  175.3110  140.3530 C   0  0  1  0  0  3  0  0  0  0  0  0
  195.8650  176.4560  140.9930 C   0  0  0  0  0  2  0  0  0  0  0  0
  197.6310  174.7440  141.2230 O   0  0  0  0  0  0  0  0  0  0  0  0
  196.3570  175.5340  143.1240 C   0  0  1  0  0  3  0  0  0  0  0  0
  195.8400  174.2720  139.5860 C   0  0  0  0  0  2  0  0  0  0  0  0
  195.9510  173.1110  137.3400 C   0  0  0  0  0  0  0  0  0  0  0  0
  196.7760  172.4730  136.2800 C   0  0  0  0  0  1  0  0  0  0  0  0
  196.5890  173.6700  138.4900 N   0  0  0  0  0  2  0  0  0  0  0  0
  194.6980  173.1520  137.2160 O   0  0  0  0  0  0  0  0  0  0  0  0
  196.4220  173.3860  145.8700 C   0  0  0  0  0  1  0  0  0  0  0  0
  196.7550  174.6730  145.4170 O   0  0  0  0  0  0  0  0  0  0  0  0
  1  9  1  0  0  0  0
  2 12  1  0  0  0  0
  3 14  1  0  0  0  0
  3  4  1  0  0  0  0
  5 15  1  0  0  0  0
  6 36  1  0  0  0  0
  7 13  1  0  0  0  0
  8 17  1  0  0  0  0
  8  2  2  0  0  0  0
  9  4  2  0  0  0  0
 10  5  1  0  0  0  0
 10  7  2  0  0  0  0
 11 17  1  0  0  0  0
 11  5  2  0  0  0  0
 12  6  2  0  0  0  0
 13  1  1  0  0  0  0
 13  3  2  0  0  0  0
 15  1  2  0  0  0  0
 16 15  1  0  0  0  0
 16  6  1  0  0  0  0
 17 16  2  0  0  0  0
 19  2  1  0  0  0  0
 19 18  2  0  0  0  0
 20 30  1  0  0  0  0
 21 23  2  0  0  0  0
 21 27  1  0  0  0  0
 23 25  1  0  0  0  0
 24 26  1  0  0  0  0
 25 24  1  0  0  0  0
 25 20  2  0  0  0  0
 26 18  1  1  0  0  0
 26 28  1  0  0  0  0
 27 29  2  0  0  0  0
 29 20  1  0  0  0  0
 30 28  1  0  0  0  0
 30 22  1  1  0  0  0
 31 32  2  0  0  0  0
 32 10  1  0  0  0  0
 33 32  1  0  0  0  0
 33 35  1  0  0  0  0
 34 33  1  0  0  0  0
 34 35  1  0  0  0  0
 36 37  1  0  0  0  0
 37 38  1  0  0  0  0
 39 38  1  0  0  0  0
 40 39  1  0  0  0  0
 42 41  2  0  0  0  0
 42 43  1  0  0  0  0
 43 40  1  0  0  0  0
 44 42  1  1  0  0  0
 44 57  1  0  0  0  0
 45 50  1  0  0  0  0
 46 50  1  0  0  0  0
 47 51  1  1  0  0  0
 47 48  1  0  0  0  0
 47 49  1  0  0  0  0
 48 46  1  0  0  0  0
 49 45  1  0  0  0  0
 50 44  1  1  0  0  0
 52 54  1  0  0  0  0
 53 52  1  0  0  0  0
 54 51  1  0  0  0  0
 55 52  2  0  0  0  0
 57 56  1  0  0  0  0
M  END
>  <MODEL>
2

>  <REMARK>
 VINA RESULT:      -7.9      1.750      3.791
  Name = 
  15 active torsions:
  status: ('A' for Active; 'I' for Inactive)
    1  A    between atoms: C_7  and  C_46
    2  A    between atoms: C_11  and  C_24
    3  A    between atoms: N_13  and  C_50
    4  A    between atoms: C_15  and  C_28
    5  A    between atoms: C_15  and  N_47
    6  A    between atoms: C_16  and  N_21
    7  A    between atoms: C_17  and  C_27
    8  A    between atoms: C_17  and  C_28
    9  A    between atoms: C_22  and  N_36
   10  A    between atoms: C_22  and  C_43
   11  A    between atoms: C_24  and  O_34
   12  A    between atoms: C_24  and  C_57
   13  A    between atoms: C_26  and  N_47
   14  A    between atoms: C_27  and  N_38
   15  A    between atoms: C_33  and  C_50
                            x       y       z     vdW  Elec       q    Type
                         _______ _______ _______ _____ _____    ______ ____

>  <TORSDO>
F 15

$$$$
=
 OpenBabel11042417513D

 57 64  0  0  1  0  0  0  0  0999 V2000
  187.3870  176.3750  141.7730 C   0  0  0  0  0  0  0  0  0  0  0  0
  191.1500  172.7380  142.8830 C   0  0  0  0  0  0  0  0  0  0  0  0
  185.7930  177.7900  141.2650 C   0  0  0  0  0  0  0  0  0  0  0  0
  186.2280  177.1460  140.0170 C   0  0  0  0  0  3  0  0  0  0  0  0
  188.1510  176.0180  144.0260 C   0  0  0  0  0  0  0  0  0  0  0  0
  189.7420  173.9900  141.4000 C   0  0  0  0  0  0  0  0  0  0  0  0
  186.4180  177.6170  143.5800 N   0  0  0  0  0  0  0  0  0  0  0  0
  190.6450  173.4270  143.9990 C   0  0  0  0  0  3  0  0  0  0  0  0
  187.2000  176.2800  140.3260 C   0  0  0  0  0  3  0  0  0  0  0  0
  187.2370  177.0030  144.4960 C   0  0  0  0  0  0  0  0  0  0  0  0
  188.9850  175.2530  144.7410 C   0  0  0  0  0  3  0  0  0  0  0  0
  190.6950  173.0350  141.6230 N   0  0  0  0  0  0  0  0  0  0  0  0
  186.5040  177.3010  142.2570 C   0  0  0  0  0  0  0  0  0  0  0  0
  184.7950  178.7490  141.3830 O   0  0  0  0  0  1  0  0  0  0  0  0
  188.2270  175.7190  142.6660 C   0  0  0  0  0  0  0  0  0  0  0  0
  189.2200  174.6690  142.5030 C   0  0  0  0  0  0  0  0  0  0  0  0
  189.6710  174.3940  143.7710 C   0  0  0  0  0  0  0  0  0  0  0  0
  192.8860  171.6810  144.1590 N   0  0  0  0  0  0  0  0  0  0  0  0
  192.1750  171.7130  143.0810 C   0  0  0  0  0  3  0  0  0  0  0  0
  196.4140  169.3710  144.8400 C   0  0  0  0  0  0  0  0  0  0  0  0
  197.1300  168.6470  147.4580 C   0  0  0  0  0  3  0  0  0  0  0  0
  197.1200  169.9810  142.6400 O   0  0  0  0  0  1  0  0  0  0  0  0
  196.0260  169.4780  147.2400 C   0  0  0  0  0  3  0  0  0  0  0  0
  194.4870  170.7580  145.7540 C   0  0  0  0  0  2  0  0  0  0  0  0
  195.6520  169.8280  145.9400 C   0  0  0  0  0  0  0  0  0  0  0  0
  193.8950  170.6520  144.3500 C   0  0  2  0  0  3  0  0  0  0  0  0
  197.8660  168.1660  146.3730 C   0  0  0  0  0  3  0  0  0  0  0  0
  195.0050  170.8330  143.3270 C   0  0  0  0  0  2  0  0  0  0  0  0
  197.5060  168.5210  145.0700 C   0  0  0  0  0  3  0  0  0  0  0  0
  196.0020  169.6790  143.4170 C   0  0  2  0  0  3  0  0  0  0  0  0
  188.4250  177.6130  146.8770 S   0  0  0  0  0  0  0  0  0  0  0  0
  187.1120  177.3960  145.9190 C   0  0  0  0  0  0  0  0  0  0  0  0
  185.8360  177.7840  146.4230 N   0  0  0  0  0  0  0  0  0  0  0  0
  184.7730  178.7950  146.6970 C   0  0  0  0  0  2  0  0  0  0  0  0
  184.5330  177.4940  147.0880 C   0  0  0  0  0  2  0  0  0  0  0  0
  189.3220  174.3060  140.0750 N   0  0  0  0  0  2  0  0  0  0  0  0
  189.0620  173.2900  139.0680 C   0  0  0  0  0  2  0  0  0  0  0  0
  190.0730  173.4160  137.9420 C   0  0  0  0  0  2  0  0  0  0  0  0
  191.1070  172.3060  138.0520 C   0  0  0  0  0  2  0  0  0  0  0  0
  192.3060  172.5960  137.1680 C   0  0  0  0  0  2  0  0  0  0  0  0
  193.4110  175.1900  137.4990 O   0  0  0  0  0  0  0  0  0  0  0  0
  193.9870  174.2320  138.0850 C   0  0  0  0  0  0  0  0  0  0  0  0
  193.4670  172.9060  137.9880 N   0  0  0  0  0  2  0  0  0  0  0  0
  195.2010  174.4860  138.9380 C   0  0  1  0  0  3  0  0  0  0  0  0
  193.7780  174.9540  140.9620 C   0  0  0  0  0  2  0  0  0  0  0  0
  196.1410  175.5140  140.9610 N   0  0  0  0  0  2  0  0  0  0  0  0
  194.6080  176.0540  142.8220 C   0  0  1  0  0  3  0  0  0  0  0  0
  195.8830  176.4450  142.0560 C   0  0  0  0  0  2  0  0  0  0  0  0
  193.4790  175.8800  141.9850 O   0  0  0  0  0  0  0  0  0  0  0  0
  194.9530  175.4460  140.1140 C   0  0  1  0  0  3  0  0  0  0  0  0
  194.7790  174.9460  143.8690 C   0  0  0  0  0  2  0  0  0  0  0  0
  193.8650  175.2210  146.2120 C   0  0  0  0  0  0  0  0  0  0  0  0
  192.7090  175.1320  147.1430 C   0  0  0  0  0  1  0  0  0  0  0  0
  193.6820  174.9190  144.8280 N   0  0  0  0  0  2  0  0  0  0  0  0
  194.9950  175.5630  146.6520 O   0  0  0  0  0  0  0  0  0  0  0  0
  196.9320  173.0750  138.3920 C   0  0  0  0  0  1  0  0  0  0  0  0
  195.8780  173.2950  139.2930 O   0  0  0  0  0  0  0  0  0  0  0  0
  1 13  1  0  0  0  0
  1 15  1  0  0  0  0
  2 19  1  0  0  0  0
  2  8  2  0  0  0  0
  3 14  1  0  0  0  0
  3 13  1  0  0  0  0
  4  9  1  0  0  0  0
  4  3  2  0  0  0  0
  5 10  2  0  0  0  0
  5 11  1  0  0  0  0
  6 12  2  0  0  0  0
  6 16  1  0  0  0  0
  7 10  1  0  0  0  0
  9  1  2  0  0  0  0
 10 32  1  0  0  0  0
 12  2  1  0  0  0  0
 13  7  2  0  0  0  0
 15  5  1  0  0  0  0
 16 15  2  0  0  0  0
 16 17  1  0  0  0  0
 17  8  1  0  0  0  0
 17 11  2  0  0  0  0
 19 18  2  0  0  0  0
 20 29  2  0  0  0  0
 20 25  1  0  0  0  0
 23 21  1  0  0  0  0
 24 25  1  0  0  0  0
 25 23  2  0  0  0  0
 26 18  1  6  0  0  0
 26 24  1  0  0  0  0
 27 21  2  0  0  0  0
 28 30  1  0  0  0  0
 28 26  1  0  0  0  0
 29 27  1  0  0  0  0
 30 22  1  6  0  0  0
 30 20  1  0  0  0  0
 32 33  1  0  0  0  0
 32 31  2  0  0  0  0
 33 34  1  0  0  0  0
 33 35  1  0  0  0  0
 34 35  1  0  0  0  0
 36  6  1  0  0  0  0
 37 36  1  0  0  0  0
 38 39  1  0  0  0  0
 38 37  1  0  0  0  0
 40 43  1  0  0  0  0
 40 39  1  0  0  0  0
 41 42  2  0  0  0  0
 43 42  1  0  0  0  0
 44 42  1  1  0  0  0
 44 57  1  0  0  0  0
 45 49  1  0  0  0  0
 46 48  1  0  0  0  0
 47 51  1  6  0  0  0
 48 47  1  0  0  0  0
 49 47  1  0  0  0  0
 50 44  1  6  0  0  0
 50 46  1  0  0  0  0
 50 45  1  0  0  0  0
 51 54  1  0  0  0  0
 52 55  2  0  0  0  0
 52 53  1  0  0  0  0
 54 52  1  0  0  0  0
 56 57  1  0  0  0  0
M  END
>  <MODEL>
3

>  <REMARK>
 VINA RESULT:      -7.5      2.445      6.028
  Name = 
  15 active torsions:
  status: ('A' for Active; 'I' for Inactive)
    1  A    between atoms: C_7  and  C_46
    2  A    between atoms: C_11  and  C_24
    3  A    between atoms: N_13  and  C_50
    4  A    between atoms: C_15  and  C_28
    5  A    between atoms: C_15  and  N_47
    6  A    between atoms: C_16  and  N_21
    7  A    between atoms: C_17  and  C_27
    8  A    between atoms: C_17  and  C_28
    9  A    between atoms: C_22  and  N_36
   10  A    between atoms: C_22  and  C_43
   11  A    between atoms: C_24  and  O_34
   12  A    between atoms: C_24  and  C_57
   13  A    between atoms: C_26  and  N_47
   14  A    between atoms: C_27  and  N_38
   15  A    between atoms: C_33  and  C_50
                            x       y       z     vdW  Elec       q    Type
                         _______ _______ _______ _____ _____    ______ ____

>  <TORSDO>
F 15

$$$$
=
 OpenBabel11042417513D

 57 64  0  0  1  0  0  0  0  0999 V2000
  194.5920  172.4640  138.7960 C   0  0  0  0  0  0  0  0  0  0  0  0
  190.9130  174.8810  141.8340 C   0  0  0  0  0  0  0  0  0  0  0  0
  196.1490  171.4430  137.6400 C   0  0  0  0  0  0  0  0  0  0  0  0
  196.8200  172.3280  138.6020 C   0  0  0  0  0  3  0  0  0  0  0  0
  192.2430  172.0670  138.4620 C   0  0  0  0  0  0  0  0  0  0  0  0
  193.1580  174.4540  141.1110 C   0  0  0  0  0  0  0  0  0  0  0  0
  193.8620  170.9170  137.1170 N   0  0  0  0  0  0  0  0  0  0  0  0
  190.3970  173.9990  140.8700 C   0  0  0  0  0  3  0  0  0  0  0  0
  195.8710  172.9510  139.3110 C   0  0  0  0  0  3  0  0  0  0  0  0
  192.5430  171.1530  137.4140 C   0  0  0  0  0  0  0  0  0  0  0  0
  191.0440  172.3940  138.9610 C   0  0  0  0  0  3  0  0  0  0  0  0
  192.2650  175.0880  141.9290 N   0  0  0  0  0  0  0  0  0  0  0  0
  194.8490  171.5640  137.7980 C   0  0  0  0  0  0  0  0  0  0  0  0
  196.7760  170.6130  136.7210 O   0  0  0  0  0  1  0  0  0  0  0  0
  193.2700  172.7250  139.1390 C   0  0  0  0  0  0  0  0  0  0  0  0
  192.6580  173.5620  140.1590 C   0  0  0  0  0  0  0  0  0  0  0  0
  191.3060  173.3490  140.0420 C   0  0  0  0  0  0  0  0  0  0  0  0
  189.6430  176.8080  142.4970 N   0  0  0  0  0  0  0  0  0  0  0  0
  189.9890  175.5840  142.7250 C   0  0  0  0  0  3  0  0  0  0  0  0
  186.3520  178.1360  144.8740 C   0  0  0  0  0  0  0  0  0  0  0  0
  186.0670  177.2110  147.5110 C   0  0  0  0  0  3  0  0  0  0  0  0
  185.3000  178.8440  142.8480 O   0  0  0  0  0  1  0  0  0  0  0  0
  187.0900  176.7090  146.7020 C   0  0  0  0  0  3  0  0  0  0  0  0
  188.3370  176.5780  144.5460 C   0  0  0  0  0  2  0  0  0  0  0  0
  187.2520  177.1770  145.3940 C   0  0  0  0  0  0  0  0  0  0  0  0
  188.7160  177.4930  143.3820 C   0  0  2  0  0  3  0  0  0  0  0  0
  185.1960  178.1820  147.0120 C   0  0  0  0  0  3  0  0  0  0  0  0
  187.4590  177.8650  142.6130 C   0  0  0  0  0  2  0  0  0  0  0  0
  185.3420  178.6470  145.7020 C   0  0  0  0  0  3  0  0  0  0  0  0
  186.5340  178.7110  143.4870 C   0  0  2  0  0  3  0  0  0  0  0  0
  191.1330  168.8660  136.9290 S   0  0  0  0  0  0  0  0  0  0  0  0
  191.5110  170.4340  136.6310 C   0  0  0  0  0  0  0  0  0  0  0  0
  190.6880  171.1670  135.7270 N   0  0  0  0  0  0  0  0  0  0  0  0
  189.3610  171.6110  135.2080 C   0  0  0  0  0  2  0  0  0  0  0  0
  190.4870  172.0810  134.5650 C   0  0  0  0  0  2  0  0  0  0  0  0
  194.5540  174.7240  141.2050 N   0  0  0  0  0  2  0  0  0  0  0  0
  195.4440  173.9750  142.0770 C   0  0  0  0  0  2  0  0  0  0  0  0
  196.5070  174.9030  142.6390 C   0  0  0  0  0  2  0  0  0  0  0  0
  195.9900  176.3330  142.6450 C   0  0  0  0  0  2  0  0  0  0  0  0
  195.5910  176.7560  144.0470 C   0  0  0  0  0  2  0  0  0  0  0  0
  195.1040  175.3650  146.4740 O   0  0  0  0  0  0  0  0  0  0  0  0
  194.1590  175.4290  145.6390 C   0  0  0  0  0  0  0  0  0  0  0  0
  194.3240  176.1400  144.4120 N   0  0  0  0  0  2  0  0  0  0  0  0
  192.8280  174.8020  145.9530 C   0  0  1  0  0  3  0  0  0  0  0  0
  191.6880  172.9400  144.7000 C   0  0  0  0  0  2  0  0  0  0  0  0
  194.0600  172.8160  145.2010 N   0  0  0  0  0  2  0  0  0  0  0  0
  192.7960  170.9950  144.1100 C   0  0  1  0  0  3  0  0  0  0  0  0
  193.9890  171.3710  145.0050 C   0  0  0  0  0  2  0  0  0  0  0  0
  191.5660  171.5410  144.5520 O   0  0  0  0  0  0  0  0  0  0  0  0
  192.7770  173.2830  145.7180 C   0  0  1  0  0  3  0  0  0  0  0  0
  193.0310  171.1380  142.6010 C   0  0  0  0  0  2  0  0  0  0  0  0
  191.2580  169.6910  141.5220 C   0  0  0  0  0  0  0  0  0  0  0  0
  190.9050  168.4370  140.8040 C   0  0  0  0  0  1  0  0  0  0  0  0
  192.6200  169.9510  141.8630 N   0  0  0  0  0  2  0  0  0  0  0  0
  190.3510  170.5130  141.8230 O   0  0  0  0  0  0  0  0  0  0  0  0
  190.9170  175.3520  147.1090 C   0  0  0  0  0  1  0  0  0  0  0  0
  192.3120  175.2140  147.2050 O   0  0  0  0  0  0  0  0  0  0  0  0
  1 15  2  0  0  0  0
  1  9  1  0  0  0  0
  2 12  1  0  0  0  0
  2 19  1  0  0  0  0
  3 13  2  0  0  0  0
  3  4  1  0  0  0  0
  4  9  2  0  0  0  0
  5 11  2  0  0  0  0
  5 15  1  0  0  0  0
  6 36  1  0  0  0  0
  6 12  2  0  0  0  0
  7 10  2  0  0  0  0
  7 13  1  0  0  0  0
  8  2  2  0  0  0  0
 10  5  1  0  0  0  0
 11 17  1  0  0  0  0
 13  1  1  0  0  0  0
 14  3  1  0  0  0  0
 15 16  1  0  0  0  0
 16  6  1  0  0  0  0
 17 16  2  0  0  0  0
 17  8  1  0  0  0  0
 18 19  2  0  0  0  0
 20 25  2  0  0  0  0
 20 29  1  0  0  0  0
 23 21  2  0  0  0  0
 24 25  1  0  0  0  0
 25 23  1  0  0  0  0
 26 18  1  6  0  0  0
 26 24  1  0  0  0  0
 27 21  1  0  0  0  0
 28 26  1  0  0  0  0
 28 30  1  0  0  0  0
 29 27  2  0  0  0  0
 30 22  1  6  0  0  0
 30 20  1  0  0  0  0
 32 31  2  0  0  0  0
 32 10  1  0  0  0  0
 33 32  1  0  0  0  0
 34 33  1  0  0  0  0
 35 34  1  0  0  0  0
 35 33  1  0  0  0  0
 36 37  1  0  0  0  0
 37 38  1  0  0  0  0
 38 39  1  0  0  0  0
 39 40  1  0  0  0  0
 40 43  1  0  0  0  0
 42 41  2  0  0  0  0
 43 42  1  0  0  0  0
 44 42  1  1  0  0  0
 44 57  1  0  0  0  0
 45 50  1  0  0  0  0
 46 50  1  0  0  0  0
 47 51  1  6  0  0  0
 47 49  1  0  0  0  0
 47 48  1  0  0  0  0
 48 46  1  0  0  0  0
 49 45  1  0  0  0  0
 50 44  1  6  0  0  0
 52 55  2  0  0  0  0
 52 54  1  0  0  0  0
 53 52  1  0  0  0  0
 54 51  1  0  0  0  0
 56 57  1  0  0  0  0
M  END
>  <MODEL>
4

>  <REMARK>
 VINA RESULT:      -7.5      3.097      9.227
  Name = 
  15 active torsions:
  status: ('A' for Active; 'I' for Inactive)
    1  A    between atoms: C_7  and  C_46
    2  A    between atoms: C_11  and  C_24
    3  A    between atoms: N_13  and  C_50
    4  A    between atoms: C_15  and  C_28
    5  A    between atoms: C_15  and  N_47
    6  A    between atoms: C_16  and  N_21
    7  A    between atoms: C_17  and  C_27
    8  A    between atoms: C_17  and  C_28
    9  A    between atoms: C_22  and  N_36
   10  A    between atoms: C_22  and  C_43
   11  A    between atoms: C_24  and  O_34
   12  A    between atoms: C_24  and  C_57
   13  A    between atoms: C_26  and  N_47
   14  A    between atoms: C_27  and  N_38
   15  A    between atoms: C_33  and  C_50
                            x       y       z     vdW  Elec       q    Type
                         _______ _______ _______ _____ _____    ______ ____

>  <TORSDO>
F 15

$$$$
=
 OpenBabel11042417513D

 57 64  0  0  1  0  0  0  0  0999 V2000
  195.3750  171.9320  142.0370 C   0  0  0  0  0  0  0  0  0  0  0  0
  191.5190  175.3510  143.4690 C   0  0  0  0  0  0  0  0  0  0  0  0
  196.8820  170.4560  141.4440 C   0  0  0  0  0  0  0  0  0  0  0  0
  196.1210  169.8860  142.5650 C   0  0  0  0  0  3  0  0  0  0  0  0
  195.1090  174.0480  140.9250 C   0  0  0  0  0  0  0  0  0  0  0  0
  192.7810  173.3240  143.6820 C   0  0  0  0  0  0  0  0  0  0  0  0
  196.8140  172.5180  140.2120 N   0  0  0  0  0  0  0  0  0  0  0  0
  192.3210  175.7790  142.3980 C   0  0  0  0  0  3  0  0  0  0  0  0
  195.1980  170.7860  142.9270 C   0  0  0  0  0  3  0  0  0  0  0  0
  196.1970  173.7350  140.0620 C   0  0  0  0  0  0  0  0  0  0  0  0
  194.3270  175.1350  140.9130 C   0  0  0  0  0  3  0  0  0  0  0  0
  191.7670  174.1490  144.0820 N   0  0  0  0  0  0  0  0  0  0  0  0
  196.4030  171.6510  141.1790 C   0  0  0  0  0  0  0  0  0  0  0  0
  197.9270  169.8370  140.7700 O   0  0  0  0  0  1  0  0  0  0  0  0
  194.7130  173.1480  141.9140 C   0  0  0  0  0  0  0  0  0  0  0  0
  193.5750  173.7300  142.6070 C   0  0  0  0  0  0  0  0  0  0  0  0
  193.3490  174.9360  141.9880 C   0  0  0  0  0  0  0  0  0  0  0  0
  189.4500  176.5250  143.1450 N   0  0  0  0  0  0  0  0  0  0  0  0
  190.4270  176.2090  143.9300 C   0  0  0  0  0  3  0  0  0  0  0  0
  185.7350  178.2960  144.2880 C   0  0  0  0  0  0  0  0  0  0  0  0
  184.7220  177.8790  146.8740 C   0  0  0  0  0  3  0  0  0  0  0  0
  185.2890  178.6250  141.9630 O   0  0  0  0  0  1  0  0  0  0  0  0
  185.8900  177.2280  146.4680 C   0  0  0  0  0  3  0  0  0  0  0  0
  187.6450  176.6900  144.7810 C   0  0  0  0  0  2  0  0  0  0  0  0
  186.4130  177.4440  145.1900 C   0  0  0  0  0  0  0  0  0  0  0  0
  188.3650  177.3700  143.6170 C   0  0  2  0  0  3  0  0  0  0  0  0
  184.0680  178.7480  145.9980 C   0  0  0  0  0  3  0  0  0  0  0  0
  187.3750  177.6020  142.4870 C   0  0  0  0  0  2  0  0  0  0  0  0
  184.5760  178.9600  144.7130 C   0  0  0  0  0  3  0  0  0  0  0  0
  186.3040  178.6030  142.9200 C   0  0  2  0  0  3  0  0  0  0  0  0
  197.9410  175.6790  139.2660 S   0  0  0  0  0  0  0  0  0  0  0  0
  196.6940  174.6460  139.0040 C   0  0  0  0  0  0  0  0  0  0  0  0
  196.2130  174.4910  137.6720 N   0  0  0  0  0  0  0  0  0  0  0  0
  195.6250  173.6850  136.5620 C   0  0  0  0  0  2  0  0  0  0  0  0
  195.9100  175.0100  136.3060 C   0  0  0  0  0  2  0  0  0  0  0  0
  193.0400  172.1010  144.3670 N   0  0  0  0  0  2  0  0  0  0  0  0
  192.2410  170.9030  144.1710 C   0  0  0  0  0  2  0  0  0  0  0  0
  191.3240  171.0920  142.9760 C   0  0  0  0  0  2  0  0  0  0  0  0
  191.6750  170.0830  141.8930 C   0  0  0  0  0  2  0  0  0  0  0  0
  190.6740  170.1440  140.7550 C   0  0  0  0  0  2  0  0  0  0  0  0
  190.0080  169.1660  138.1740 O   0  0  0  0  0  0  0  0  0  0  0  0
  190.9740  169.9750  138.2600 C   0  0  0  0  0  0  0  0  0  0  0  0
  191.3420  170.5310  139.5210 N   0  0  0  0  0  2  0  0  0  0  0  0
  191.7130  170.4050  137.0210 C   0  0  1  0  0  3  0  0  0  0  0  0
  189.9110  171.8270  135.9890 C   0  0  0  0  0  2  0  0  0  0  0  0
  191.4370  172.7690  137.6260 N   0  0  0  0  0  2  0  0  0  0  0  0
  189.7240  174.0920  136.4330 C   0  0  1  0  0  3  0  0  0  0  0  0
  191.0990  174.0970  137.1230 C   0  0  0  0  0  2  0  0  0  0  0  0
  189.5960  173.0900  135.4400 O   0  0  0  0  0  0  0  0  0  0  0  0
  191.3440  171.8130  136.5260 C   0  0  1  0  0  3  0  0  0  0  0  0
  188.5140  174.1920  137.3700 C   0  0  0  0  0  2  0  0  0  0  0  0
  188.6530  173.3180  139.7410 C   0  0  0  0  0  0  0  0  0  0  0  0
  189.0440  173.5460  141.1580 C   0  0  0  0  0  1  0  0  0  0  0  0
  188.9080  174.3320  138.7670 N   0  0  0  0  0  2  0  0  0  0  0  0
  188.1010  172.2350  139.4130 O   0  0  0  0  0  0  0  0  0  0  0  0
  193.4260  169.0240  136.3520 C   0  0  0  0  0  1  0  0  0  0  0  0
  193.1060  170.1650  137.1060 O   0  0  0  0  0  0  0  0  0  0  0  0
  1  9  1  0  0  0  0
  2 19  1  0  0  0  0
  2 12  1  0  0  0  0
  3  4  1  0  0  0  0
  4  9  2  0  0  0  0
  5 15  1  0  0  0  0
  6 12  2  0  0  0  0
  6 36  1  0  0  0  0
  7 13  1  0  0  0  0
  8  2  2  0  0  0  0
 10  7  2  0  0  0  0
 10  5  1  0  0  0  0
 11  5  2  0  0  0  0
 11 17  1  0  0  0  0
 13  3  2  0  0  0  0
 13  1  1  0  0  0  0
 14  3  1  0  0  0  0
 15  1  2  0  0  0  0
 15 16  1  0  0  0  0
 16  6  1  0  0  0  0
 17  8  1  0  0  0  0
 17 16  2  0  0  0  0
 18 19  2  0  0  0  0
 20 29  2  0  0  0  0
 20 25  1  0  0  0  0
 23 21  1  0  0  0  0
 24 25  1  0  0  0  0
 25 23  2  0  0  0  0
 26 18  1  6  0  0  0
 26 24  1  0  0  0  0
 27 21  2  0  0  0  0
 28 30  1  0  0  0  0
 28 26  1  0  0  0  0
 29 27  1  0  0  0  0
 30 22  1  6  0  0  0
 30 20  1  0  0  0  0
 32 31  2  0  0  0  0
 32 10  1  0  0  0  0
 33 32  1  0  0  0  0
 34 33  1  0  0  0  0
 35 34  1  0  0  0  0
 35 33  1  0  0  0  0
 37 36  1  0  0  0  0
 38 37  1  0  0  0  0
 39 38  1  0  0  0  0
 40 39  1  0  0  0  0
 41 42  2  0  0  0  0
 42 43  1  0  0  0  0
 43 40  1  0  0  0  0
 44 57  1  1  0  0  0
 44 42  1  0  0  0  0
 45 50  1  0  0  0  0
 47 48  1  0  0  0  0
 47 51  1  1  0  0  0
 48 46  1  0  0  0  0
 49 45  1  0  0  0  0
 49 47  1  0  0  0  0
 50 44  1  1  0  0  0
 50 46  1  0  0  0  0
 51 54  1  0  0  0  0
 52 53  1  0  0  0  0
 54 52  1  0  0  0  0
 55 52  2  0  0  0  0
 56 57  1  0  0  0  0
M  END
>  <MODEL>
5

>  <REMARK>
 VINA RESULT:      -7.3      3.742     10.688
  Name = 
  15 active torsions:
  status: ('A' for Active; 'I' for Inactive)
    1  A    between atoms: C_7  and  C_46
    2  A    between atoms: C_11  and  C_24
    3  A    between atoms: N_13  and  C_50
    4  A    between atoms: C_15  and  C_28
    5  A    between atoms: C_15  and  N_47
    6  A    between atoms: C_16  and  N_21
    7  A    between atoms: C_17  and  C_27
    8  A    between atoms: C_17  and  C_28
    9  A    between atoms: C_22  and  N_36
   10  A    between atoms: C_22  and  C_43
   11  A    between atoms: C_24  and  O_34
   12  A    between atoms: C_24  and  C_57
   13  A    between atoms: C_26  and  N_47
   14  A    between atoms: C_27  and  N_38
   15  A    between atoms: C_33  and  C_50
                            x       y       z     vdW  Elec       q    Type
                         _______ _______ _______ _____ _____    ______ ____

>  <TORSDO>
F 15

$$$$
=
 OpenBabel11042417513D

 57 64  0  0  1  0  0  0  0  0999 V2000
  195.1610  171.6260  144.6130 C   0  0  0  0  0  0  0  0  0  0  0  0
  190.7800  174.6860  144.8550 C   0  0  0  0  0  0  0  0  0  0  0  0
  196.9540  170.3670  144.6190 C   0  0  0  0  0  0  0  0  0  0  0  0
  197.1940  171.4830  145.5440 C   0  0  0  0  0  3  0  0  0  0  0  0
  193.2080  171.1160  143.3030 C   0  0  0  0  0  0  0  0  0  0  0  0
  193.0420  174.1240  145.4160 C   0  0  0  0  0  0  0  0  0  0  0  0
  195.1300  169.6830  143.2100 N   0  0  0  0  0  0  0  0  0  0  0  0
  190.6790  173.5750  144.0020 C   0  0  0  0  0  3  0  0  0  0  0  0
  196.0980  172.2530  145.5430 C   0  0  0  0  0  3  0  0  0  0  0  0
  193.8590  169.9650  142.7750 C   0  0  0  0  0  0  0  0  0  0  0  0
  191.9590  171.5400  143.0750 C   0  0  0  0  0  3  0  0  0  0  0  0
  191.9470  174.9350  145.5320 N   0  0  0  0  0  0  0  0  0  0  0  0
  195.7510  170.5020  144.1040 C   0  0  0  0  0  0  0  0  0  0  0  0
  197.8420  169.3370  144.3370 O   0  0  0  0  0  1  0  0  0  0  0  0
  193.8680  171.9440  144.2110 C   0  0  0  0  0  0  0  0  0  0  0  0
  192.9480  173.0070  144.5830 C   0  0  0  0  0  0  0  0  0  0  0  0
  191.7910  172.7480  143.8890 C   0  0  0  0  0  0  0  0  0  0  0  0
  189.5060  176.6330  144.2620 N   0  0  0  0  0  0  0  0  0  0  0  0
  189.6310  175.5810  145.0020 C   0  0  0  0  0  3  0  0  0  0  0  0
  185.6580  178.4810  144.3800 C   0  0  0  0  0  0  0  0  0  0  0  0
  184.0570  178.2390  146.6760 C   0  0  0  0  0  3  0  0  0  0  0  0
  185.7750  178.6530  141.9990 O   0  0  0  0  0  1  0  0  0  0  0  0
  185.2780  177.5610  146.6000 C   0  0  0  0  0  3  0  0  0  0  0  0
  187.3710  176.9090  145.4120 C   0  0  0  0  0  2  0  0  0  0  0  0
  186.0890  177.6910  145.4690 C   0  0  0  0  0  0  0  0  0  0  0  0
  188.3560  177.5090  144.4090 C   0  0  2  0  0  3  0  0  0  0  0  0
  183.6420  179.0480  145.6160 C   0  0  0  0  0  3  0  0  0  0  0  0
  187.6620  177.6660  143.0650 C   0  0  0  0  0  2  0  0  0  0  0  0
  184.4420  179.1730  144.4760 C   0  0  0  0  0  3  0  0  0  0  0  0
  186.5370  178.6940  143.1670 C   0  0  2  0  0  3  0  0  0  0  0  0
  191.9010  168.1680  142.1490 S   0  0  0  0  0  0  0  0  0  0  0  0
  193.2380  169.0490  141.7900 C   0  0  0  0  0  0  0  0  0  0  0  0
  193.6880  169.0730  140.4380 N   0  0  0  0  0  0  0  0  0  0  0  0
  194.4090  168.4820  139.2730 C   0  0  0  0  0  2  0  0  0  0  0  0
  193.8060  169.7090  139.0940 C   0  0  0  0  0  2  0  0  0  0  0  0
  194.2550  174.4340  146.0980 N   0  0  0  0  0  2  0  0  0  0  0  0
  194.6520  175.7950  146.4200 C   0  0  0  0  0  2  0  0  0  0  0  0
  195.0050  176.5390  145.1440 C   0  0  0  0  0  2  0  0  0  0  0  0
  195.8170  175.6360  144.2300 C   0  0  0  0  0  2  0  0  0  0  0  0
  195.8370  176.1800  142.8140 C   0  0  0  0  0  2  0  0  0  0  0  0
  196.8950  176.3630  140.1850 O   0  0  0  0  0  0  0  0  0  0  0  0
  196.4010  175.2560  140.5390 C   0  0  0  0  0  0  0  0  0  0  0  0
  195.8810  175.0840  141.8570 N   0  0  0  0  0  2  0  0  0  0  0  0
  196.4050  174.0870  139.5910 C   0  0  1  0  0  3  0  0  0  0  0  0
  195.3130  172.9380  137.6360 C   0  0  0  0  0  2  0  0  0  0  0  0
  194.1920  174.7670  138.7740 N   0  0  0  0  0  2  0  0  0  0  0  0
  193.2950  173.6560  136.7570 C   0  0  1  0  0  3  0  0  0  0  0  0
  193.3630  174.9500  137.5860 C   0  0  0  0  0  2  0  0  0  0  0  0
  194.5680  173.1160  136.4500 O   0  0  0  0  0  0  0  0  0  0  0  0
  195.5030  174.2720  138.3610 C   0  0  1  0  0  3  0  0  0  0  0  0
  192.2810  172.6130  137.2430 C   0  0  0  0  0  2  0  0  0  0  0  0
  190.3550  173.2150  138.7700 C   0  0  0  0  0  0  0  0  0  0  0  0
  188.9890  173.7820  138.9290 C   0  0  0  0  0  1  0  0  0  0  0  0
  190.9640  173.1910  137.4780 N   0  0  0  0  0  2  0  0  0  0  0  0
  190.9620  172.7600  139.7760 O   0  0  0  0  0  0  0  0  0  0  0  0
  197.8870  173.6140  137.8970 C   0  0  0  0  0  1  0  0  0  0  0  0
  197.7120  173.6320  139.2910 O   0  0  0  0  0  0  0  0  0  0  0  0
  1  9  1  0  0  0  0
  2 19  1  0  0  0  0
  2 12  1  0  0  0  0
  3  4  1  0  0  0  0
  5 15  1  0  0  0  0
  6 12  2  0  0  0  0
  6 36  1  0  0  0  0
  7 13  1  0  0  0  0
  8  2  2  0  0  0  0
  9  4  2  0  0  0  0
 10  7  2  0  0  0  0
 10  5  1  0  0  0  0
 11  5  2  0  0  0  0
 11 17  1  0  0  0  0
 13  1  1  0  0  0  0
 13  3  2  0  0  0  0
 14  3  1  0  0  0  0
 15 16  1  0  0  0  0
 15  1  2  0  0  0  0
 16  6  1  0  0  0  0
 17  8  1  0  0  0  0
 17 16  2  0  0  0  0
 18 19  2  0  0  0  0
 20 29  2  0  0  0  0
 20 25  1  0  0  0  0
 23 21  1  0  0  0  0
 24 25  1  0  0  0  0
 25 23  2  0  0  0  0
 26 18  1  6  0  0  0
 26 24  1  0  0  0  0
 27 21  2  0  0  0  0
 28 30  1  0  0  0  0
 28 26  1  0  0  0  0
 29 27  1  0  0  0  0
 30 22  1  6  0  0  0
 30 20  1  0  0  0  0
 32 31  2  0  0  0  0
 32 10  1  0  0  0  0
 33 32  1  0  0  0  0
 34 33  1  0  0  0  0
 35 34  1  0  0  0  0
 35 33  1  0  0  0  0
 36 37  1  0  0  0  0
 38 37  1  0  0  0  0
 39 38  1  0  0  0  0
 40 39  1  0  0  0  0
 41 42  2  0  0  0  0
 42 43  1  0  0  0  0
 43 40  1  0  0  0  0
 44 57  1  6  0  0  0
 44 42  1  0  0  0  0
 45 50  1  0  0  0  0
 47 51  1  1  0  0  0
 47 48  1  0  0  0  0
 48 46  1  0  0  0  0
 49 47  1  0  0  0  0
 49 45  1  0  0  0  0
 50 46  1  0  0  0  0
 50 44  1  1  0  0  0
 51 54  1  0  0  0  0
 52 53  1  0  0  0  0
 52 55  2  0  0  0  0
 54 52  1  0  0  0  0
 56 57  1  0  0  0  0
M  END
>  <MODEL>
6

>  <REMARK>
 VINA RESULT:      -7.1      3.007      9.886
  Name = 
  15 active torsions:
  status: ('A' for Active; 'I' for Inactive)
    1  A    between atoms: C_7  and  C_46
    2  A    between atoms: C_11  and  C_24
    3  A    between atoms: N_13  and  C_50
    4  A    between atoms: C_15  and  C_28
    5  A    between atoms: C_15  and  N_47
    6  A    between atoms: C_16  and  N_21
    7  A    between atoms: C_17  and  C_27
    8  A    between atoms: C_17  and  C_28
    9  A    between atoms: C_22  and  N_36
   10  A    between atoms: C_22  and  C_43
   11  A    between atoms: C_24  and  O_34
   12  A    between atoms: C_24  and  C_57
   13  A    between atoms: C_26  and  N_47
   14  A    between atoms: C_27  and  N_38
   15  A    between atoms: C_33  and  C_50
                            x       y       z     vdW  Elec       q    Type
                         _______ _______ _______ _____ _____    ______ ____

>  <TORSDO>
F 15

$$$$
=
 OpenBabel11042417513D

 57 64  0  0  1  0  0  0  0  0999 V2000
  190.1230  176.3420  145.8800 C   0  0  0  0  0  0  0  0  0  0  0  0
  189.6260  173.5890  141.3210 C   0  0  0  0  0  0  0  0  0  0  0  0
  190.4150  177.5140  147.7090 C   0  0  0  0  0  0  0  0  0  0  0  0
  191.6740  176.8090  147.4280 C   0  0  0  0  0  3  0  0  0  0  0  0
  188.0620  176.3470  144.6390 C   0  0  0  0  0  0  0  0  0  0  0  0
  190.8100  174.3110  143.2760 C   0  0  0  0  0  0  0  0  0  0  0  0
  188.2620  177.6430  146.6470 N   0  0  0  0  0  0  0  0  0  0  0  0
  188.4850  174.3150  141.7010 C   0  0  0  0  0  3  0  0  0  0  0  0
  191.4980  176.0950  146.3100 C   0  0  0  0  0  3  0  0  0  0  0  0
  187.4830  177.2250  145.5970 C   0  0  0  0  0  0  0  0  0  0  0  0
  187.5170  175.8720  143.5120 C   0  0  0  0  0  3  0  0  0  0  0  0
  190.7480  173.6010  142.1100 N   0  0  0  0  0  0  0  0  0  0  0  0
  189.5450  177.2040  146.7720 C   0  0  0  0  0  0  0  0  0  0  0  0
  190.1800  178.3690  148.7770 O   0  0  0  0  0  1  0  0  0  0  0  0
  189.3760  175.9030  144.7930 C   0  0  0  0  0  0  0  0  0  0  0  0
  189.6870  175.0500  143.6570 C   0  0  0  0  0  0  0  0  0  0  0  0
  188.5500  175.0420  142.8850 C   0  0  0  0  0  0  0  0  0  0  0  0
  190.5320  171.9640  139.8040 N   0  0  0  0  0  0  0  0  0  0  0  0
  189.5980  172.8120  140.0810 C   0  0  0  0  0  3  0  0  0  0  0  0
  191.0850  170.2450  135.9330 C   0  0  0  0  0  0  0  0  0  0  0  0
  192.9400  168.1660  135.5760 C   0  0  0  0  0  3  0  0  0  0  0  0
  190.0020  172.1730  135.0290 O   0  0  0  0  0  1  0  0  0  0  0  0
  192.8220  168.7910  136.8220 C   0  0  0  0  0  3  0  0  0  0  0  0
  191.8270  170.4860  138.3550 C   0  0  0  0  0  2  0  0  0  0  0  0
  191.8890  169.8130  137.0130 C   0  0  0  0  0  0  0  0  0  0  0  0
  190.4880  171.1900  138.5750 C   0  0  2  0  0  3  0  0  0  0  0  0
  192.1250  168.5660  134.5160 C   0  0  0  0  0  3  0  0  0  0  0  0
  190.2140  172.1150  137.4000 C   0  0  0  0  0  2  0  0  0  0  0  0
  191.1970  169.5960  134.6950 C   0  0  0  0  0  3  0  0  0  0  0  0
  190.0220  171.3040  136.1200 C   0  0  2  0  0  3  0  0  0  0  0  0
  184.9950  177.4240  146.7040 S   0  0  0  0  0  0  0  0  0  0  0  0
  186.0890  177.7220  145.5190 C   0  0  0  0  0  0  0  0  0  0  0  0
  185.7370  178.6430  144.4900 N   0  0  0  0  0  0  0  0  0  0  0  0
  185.5840  180.0240  143.9440 C   0  0  0  0  0  2  0  0  0  0  0  0
  185.2320  178.9710  143.1250 C   0  0  0  0  0  2  0  0  0  0  0  0
  191.9750  174.2680  144.0970 N   0  0  0  0  0  2  0  0  0  0  0  0
  193.3170  174.4500  143.5690 C   0  0  0  0  0  2  0  0  0  0  0  0
  193.7320  175.9020  143.7210 C   0  0  0  0  0  2  0  0  0  0  0  0
  195.1940  176.0630  143.3320 C   0  0  0  0  0  2  0  0  0  0  0  0
  195.3370  176.2230  141.8290 C   0  0  0  0  0  2  0  0  0  0  0  0
  193.9420  174.5170  140.0380 O   0  0  0  0  0  0  0  0  0  0  0  0
  195.1110  174.1780  140.3750 C   0  0  0  0  0  0  0  0  0  0  0  0
  195.8820  175.0050  141.2470 N   0  0  0  0  0  2  0  0  0  0  0  0
  195.7260  172.9240  139.8170 C   0  0  1  0  0  3  0  0  0  0  0  0
  195.7650  170.4070  139.8830 C   0  0  0  0  0  2  0  0  0  0  0  0
  194.3660  171.6590  141.4230 N   0  0  0  0  0  2  0  0  0  0  0  0
  194.3830  169.1920  141.2870 C   0  0  1  0  0  3  0  0  0  0  0  0
  193.5680  170.4520  141.6200 C   0  0  0  0  0  2  0  0  0  0  0  0
  194.9900  169.2350  140.0080 O   0  0  0  0  0  0  0  0  0  0  0  0
  194.8950  171.6530  140.0610 C   0  0  1  0  0  3  0  0  0  0  0  0
  195.3180  168.6970  142.3980 C   0  0  0  0  0  2  0  0  0  0  0  0
  195.5490  169.6120  144.7460 C   0  0  0  0  0  0  0  0  0  0  0  0
  194.9560  169.8140  146.0950 C   0  0  0  0  0  1  0  0  0  0  0  0
  194.7850  168.9630  143.7280 N   0  0  0  0  0  2  0  0  0  0  0  0
  196.7200  170.0150  144.5140 O   0  0  0  0  0  0  0  0  0  0  0  0
  197.5630  173.2570  138.4730 C   0  0  0  0  0  1  0  0  0  0  0  0
  196.1690  173.0800  138.4810 O   0  0  0  0  0  0  0  0  0  0  0  0
  1  9  1  0  0  0  0
  1 13  1  0  0  0  0
  2  8  2  0  0  0  0
  2 12  1  0  0  0  0
  3 14  1  0  0  0  0
  4  3  1  0  0  0  0
  5 15  1  0  0  0  0
  5 10  1  0  0  0  0
  6 16  1  0  0  0  0
  6 36  1  0  0  0  0
  7 13  1  0  0  0  0
  8 17  1  0  0  0  0
  9  4  2  0  0  0  0
 10  7  2  0  0  0  0
 11  5  2  0  0  0  0
 12  6  2  0  0  0  0
 13  3  2  0  0  0  0
 15  1  2  0  0  0  0
 16 15  1  0  0  0  0
 17 11  1  0  0  0  0
 17 16  2  0  0  0  0
 18 19  2  0  0  0  0
 19  2  1  0  0  0  0
 20 30  1  0  0  0  0
 20 25  1  0  0  0  0
 21 23  1  0  0  0  0
 23 25  2  0  0  0  0
 24 26  1  0  0  0  0
 25 24  1  0  0  0  0
 26 18  1  1  0  0  0
 27 29  1  0  0  0  0
 27 21  2  0  0  0  0
 28 26  1  0  0  0  0
 29 20  2  0  0  0  0
 30 22  1  6  0  0  0
 30 28  1  0  0  0  0
 32 10  1  0  0  0  0
 32 31  2  0  0  0  0
 33 32  1  0  0  0  0
 34 33  1  0  0  0  0
 35 34  1  0  0  0  0
 35 33  1  0  0  0  0
 37 38  1  0  0  0  0
 37 36  1  0  0  0  0
 39 38  1  0  0  0  0
 40 39  1  0  0  0  0
 41 42  2  0  0  0  0
 42 43  1  0  0  0  0
 43 40  1  0  0  0  0
 44 57  1  6  0  0  0
 44 42  1  0  0  0  0
 45 49  1  0  0  0  0
 45 50  1  0  0  0  0
 46 48  1  0  0  0  0
 47 48  1  0  0  0  0
 47 51  1  1  0  0  0
 49 47  1  0  0  0  0
 50 44  1  1  0  0  0
 50 46  1  0  0  0  0
 51 54  1  0  0  0  0
 52 53  1  0  0  0  0
 54 52  1  0  0  0  0
 55 52  2  0  0  0  0
 56 57  1  0  0  0  0
M  END
>  <MODEL>
7

>  <REMARK>
 VINA RESULT:      -7.0      2.946      4.749
  Name = 
  15 active torsions:
  status: ('A' for Active; 'I' for Inactive)
    1  A    between atoms: C_7  and  C_46
    2  A    between atoms: C_11  and  C_24
    3  A    between atoms: N_13  and  C_50
    4  A    between atoms: C_15  and  C_28
    5  A    between atoms: C_15  and  N_47
    6  A    between atoms: C_16  and  N_21
    7  A    between atoms: C_17  and  C_27
    8  A    between atoms: C_17  and  C_28
    9  A    between atoms: C_22  and  N_36
   10  A    between atoms: C_22  and  C_43
   11  A    between atoms: C_24  and  O_34
   12  A    between atoms: C_24  and  C_57
   13  A    between atoms: C_26  and  N_47
   14  A    between atoms: C_27  and  N_38
   15  A    between atoms: C_33  and  C_50
                            x       y       z     vdW  Elec       q    Type
                         _______ _______ _______ _____ _____    ______ ____

>  <TORSDO>
F 15

$$$$
=
 OpenBabel11042417513D

 57 64  0  0  1  0  0  0  0  0999 V2000
  189.8660  176.2940  145.9990 C   0  0  0  0  0  0  0  0  0  0  0  0
  189.6930  173.2480  141.6050 C   0  0  0  0  0  0  0  0  0  0  0  0
  190.0310  177.5770  147.7670 C   0  0  0  0  0  0  0  0  0  0  0  0
  191.2650  176.7840  147.6790 C   0  0  0  0  0  3  0  0  0  0  0  0
  187.9570  176.3240  144.5350 C   0  0  0  0  0  0  0  0  0  0  0  0
  190.7000  174.0430  143.6300 C   0  0  0  0  0  0  0  0  0  0  0  0
  188.0190  177.7500  146.4630 N   0  0  0  0  0  0  0  0  0  0  0  0
  188.5660  174.0630  141.8050 C   0  0  0  0  0  3  0  0  0  0  0  0
  191.1670  176.0010  146.5970 C   0  0  0  0  0  3  0  0  0  0  0  0
  187.3340  177.3010  145.3610 C   0  0  0  0  0  0  0  0  0  0  0  0
  187.5080  175.8000  143.3870 C   0  0  0  0  0  3  0  0  0  0  0  0
  190.7210  173.2550  142.5140 N   0  0  0  0  0  0  0  0  0  0  0  0
  189.2500  177.2490  146.7610 C   0  0  0  0  0  0  0  0  0  0  0  0
  189.7360  178.5200  148.7430 O   0  0  0  0  0  1  0  0  0  0  0  0
  189.2150  175.8190  144.8660 C   0  0  0  0  0  0  0  0  0  0  0  0
  189.5920  174.8700  143.8310 C   0  0  0  0  0  0  0  0  0  0  0  0
  188.5480  174.8690  142.9380 C   0  0  0  0  0  0  0  0  0  0  0  0
  190.6880  171.5080  140.2840 N   0  0  0  0  0  0  0  0  0  0  0  0
  189.7500  172.3860  140.4240 C   0  0  0  0  0  3  0  0  0  0  0  0
  191.2720  169.6810  136.4670 C   0  0  0  0  0  0  0  0  0  0  0  0
  193.5870  168.1660  135.9800 C   0  0  0  0  0  3  0  0  0  0  0  0
  189.5970  171.1570  135.6130 O   0  0  0  0  0  1  0  0  0  0  0  0
  193.4360  168.8380  137.1970 C   0  0  0  0  0  3  0  0  0  0  0  0
  192.1780  170.3220  138.7570 C   0  0  0  0  0  2  0  0  0  0  0  0
  192.2790  169.5800  137.4550 C   0  0  0  0  0  0  0  0  0  0  0  0
  190.7280  170.6490  139.1120 C   0  0  2  0  0  3  0  0  0  0  0  0
  192.5800  168.2360  135.0150 C   0  0  0  0  0  3  0  0  0  0  0  0
  190.0770  171.3610  137.9370 C   0  0  0  0  0  2  0  0  0  0  0  0
  191.4260  168.9850  135.2600 C   0  0  0  0  0  3  0  0  0  0  0  0
  189.9810  170.4220  136.7360 C   0  0  2  0  0  3  0  0  0  0  0  0
  185.0350  178.4380  146.2980 S   0  0  0  0  0  0  0  0  0  0  0  0
  185.9920  177.8690  145.0930 C   0  0  0  0  0  0  0  0  0  0  0  0
  185.5950  178.1070  143.7450 N   0  0  0  0  0  0  0  0  0  0  0  0
  185.8690  178.5250  142.3390 C   0  0  0  0  0  2  0  0  0  0  0  0
  184.5830  178.1350  142.6490 C   0  0  0  0  0  2  0  0  0  0  0  0
  191.7630  173.9940  144.5780 N   0  0  0  0  0  2  0  0  0  0  0  0
  193.1450  173.7450  144.2000 C   0  0  0  0  0  2  0  0  0  0  0  0
  194.0310  173.8120  145.4310 C   0  0  0  0  0  2  0  0  0  0  0  0
  195.0550  172.6890  145.3900 C   0  0  0  0  0  2  0  0  0  0  0  0
  196.4670  173.2450  145.4360 C   0  0  0  0  0  2  0  0  0  0  0  0
  196.4600  175.4790  143.6840 O   0  0  0  0  0  0  0  0  0  0  0  0
  196.9780  174.4080  143.2610 C   0  0  0  0  0  0  0  0  0  0  0  0
  197.0440  173.2550  144.1000 N   0  0  0  0  0  2  0  0  0  0  0  0
  197.5810  174.3510  141.8830 C   0  0  1  0  0  3  0  0  0  0  0  0
  197.4120  172.0840  140.8000 C   0  0  0  0  0  2  0  0  0  0  0  0
  195.4080  173.3510  141.3280 N   0  0  0  0  0  2  0  0  0  0  0  0
  195.3840  171.1870  140.1350 C   0  0  1  0  0  3  0  0  0  0  0  0
  194.6830  172.5370  140.3560 C   0  0  0  0  0  2  0  0  0  0  0  0
  196.7580  171.3110  139.8170 O   0  0  0  0  0  0  0  0  0  0  0  0
  196.7950  173.4820  140.8880 C   0  0  1  0  0  3  0  0  0  0  0  0
  195.0880  170.1090  141.1860 C   0  0  0  0  0  2  0  0  0  0  0  0
  193.6270  169.9760  143.2470 C   0  0  0  0  0  0  0  0  0  0  0  0
  192.3040  170.2110  143.8840 C   0  0  0  0  0  1  0  0  0  0  0  0
  193.8310  170.3480  141.8830 N   0  0  0  0  0  2  0  0  0  0  0  0
  194.5560  169.4510  143.9170 O   0  0  0  0  0  0  0  0  0  0  0  0
  197.4000  175.7890  140.0980 C   0  0  0  0  0  1  0  0  0  0  0  0
  197.9320  175.6300  141.3880 O   0  0  0  0  0  0  0  0  0  0  0  0
  1  9  1  0  0  0  0
  1 13  1  0  0  0  0
  2  8  2  0  0  0  0
  2 12  1  0  0  0  0
  3 14  1  0  0  0  0
  4  3  1  0  0  0  0
  5 15  1  0  0  0  0
  5 10  1  0  0  0  0
  6 16  1  0  0  0  0
  6 36  1  0  0  0  0
  7 13  1  0  0  0  0
  8 17  1  0  0  0  0
  9  4  2  0  0  0  0
 10  7  2  0  0  0  0
 11  5  2  0  0  0  0
 12  6  2  0  0  0  0
 13  3  2  0  0  0  0
 15  1  2  0  0  0  0
 16 15  1  0  0  0  0
 17 11  1  0  0  0  0
 17 16  2  0  0  0  0
 18 19  2  0  0  0  0
 19  2  1  0  0  0  0
 20 30  1  0  0  0  0
 20 25  1  0  0  0  0
 21 23  1  0  0  0  0
 23 25  2  0  0  0  0
 24 26  1  0  0  0  0
 25 24  1  0  0  0  0
 26 18  1  1  0  0  0
 27 29  1  0  0  0  0
 27 21  2  0  0  0  0
 28 26  1  0  0  0  0
 29 20  2  0  0  0  0
 30 22  1  6  0  0  0
 30 28  1  0  0  0  0
 32 10  1  0  0  0  0
 32 31  2  0  0  0  0
 33 32  1  0  0  0  0
 34 35  1  0  0  0  0
 34 33  1  0  0  0  0
 35 33  1  0  0  0  0
 37 36  1  0  0  0  0
 37 38  1  0  0  0  0
 39 38  1  0  0  0  0
 39 40  1  0  0  0  0
 42 41  2  0  0  0  0
 42 43  1  0  0  0  0
 43 40  1  0  0  0  0
 44 57  1  6  0  0  0
 44 42  1  0  0  0  0
 45 50  1  0  0  0  0
 47 48  1  0  0  0  0
 47 51  1  1  0  0  0
 48 46  1  0  0  0  0
 49 47  1  0  0  0  0
 49 45  1  0  0  0  0
 50 46  1  0  0  0  0
 50 44  1  1  0  0  0
 51 54  1  0  0  0  0
 52 53  1  0  0  0  0
 52 55  2  0  0  0  0
 54 52  1  0  0  0  0
 56 57  1  0  0  0  0
M  END
>  <MODEL>
8

>  <REMARK>
 VINA RESULT:      -6.9      2.855      4.333
  Name = 
  15 active torsions:
  status: ('A' for Active; 'I' for Inactive)
    1  A    between atoms: C_7  and  C_46
    2  A    between atoms: C_11  and  C_24
    3  A    between atoms: N_13  and  C_50
    4  A    between atoms: C_15  and  C_28
    5  A    between atoms: C_15  and  N_47
    6  A    between atoms: C_16  and  N_21
    7  A    between atoms: C_17  and  C_27
    8  A    between atoms: C_17  and  C_28
    9  A    between atoms: C_22  and  N_36
   10  A    between atoms: C_22  and  C_43
   11  A    between atoms: C_24  and  O_34
   12  A    between atoms: C_24  and  C_57
   13  A    between atoms: C_26  and  N_47
   14  A    between atoms: C_27  and  N_38
   15  A    between atoms: C_33  and  C_50
                            x       y       z     vdW  Elec       q    Type
                         _______ _______ _______ _____ _____    ______ ____

>  <TORSDO>
F 15

$$$$
=
 OpenBabel11042417513D

 57 64  0  0  1  0  0  0  0  0999 V2000
  186.2770  177.1340  142.5400 C   0  0  0  0  0  0  0  0  0  0  0  0
  190.5490  174.4040  144.2470 C   0  0  0  0  0  0  0  0  0  0  0  0
  184.4990  178.1680  141.7860 C   0  0  0  0  0  0  0  0  0  0  0  0
  185.2170  177.6190  140.6270 C   0  0  0  0  0  3  0  0  0  0  0  0
  186.8020  176.9750  144.8830 C   0  0  0  0  0  0  0  0  0  0  0  0
  189.1110  175.3060  142.5540 C   0  0  0  0  0  0  0  0  0  0  0  0
  184.8430  178.1600  144.1640 N   0  0  0  0  0  0  0  0  0  0  0  0
  189.7700  174.9800  145.2640 C   0  0  0  0  0  3  0  0  0  0  0  0
  186.3030  176.9850  141.0860 C   0  0  0  0  0  3  0  0  0  0  0  0
  185.6470  177.7470  145.1970 C   0  0  0  0  0  0  0  0  0  0  0  0
  187.6800  176.4160  145.7250 C   0  0  0  0  0  3  0  0  0  0  0  0
  190.2070  174.5810  142.9300 N   0  0  0  0  0  0  0  0  0  0  0  0
  185.1640  177.8550  142.8760 C   0  0  0  0  0  0  0  0  0  0  0  0
  183.3140  178.8910  141.7420 O   0  0  0  0  0  1  0  0  0  0  0  0
  187.1140  176.6840  143.5550 C   0  0  0  0  0  0  0  0  0  0  0  0
  188.3200  175.8700  143.5570 C   0  0  0  0  0  0  0  0  0  0  0  0
  188.6510  175.7130  144.8810 C   0  0  0  0  0  0  0  0  0  0  0  0
  192.7460  173.5400  143.8110 N   0  0  0  0  0  0  0  0  0  0  0  0
  191.7330  173.6250  144.6090 C   0  0  0  0  0  3  0  0  0  0  0  0
  195.9080  171.4400  145.7690 C   0  0  0  0  0  0  0  0  0  0  0  0
  195.6040  168.7190  146.3970 C   0  0  0  0  0  3  0  0  0  0  0  0
  196.8250  173.5670  146.3570 O   0  0  0  0  0  1  0  0  0  0  0  0
  194.5380  169.4300  145.8380 C   0  0  0  0  0  3  0  0  0  0  0  0
  193.5010  171.5160  144.9480 C   0  0  0  0  0  2  0  0  0  0  0  0
  194.6860  170.7800  145.5050 C   0  0  0  0  0  0  0  0  0  0  0  0
  193.9220  172.7720  144.1860 C   0  0  2  0  0  3  0  0  0  0  0  0
  196.8240  169.3580  146.6280 C   0  0  0  0  0  3  0  0  0  0  0  0
  194.8180  173.6180  145.0770 C   0  0  0  0  0  2  0  0  0  0  0  0
  196.9770  170.7110  146.3090 C   0  0  0  0  0  3  0  0  0  0  0  0
  196.1250  172.8810  145.3640 C   0  0  2  0  0  3  0  0  0  0  0  0
  183.9310  177.4900  147.3050 S   0  0  0  0  0  0  0  0  0  0  0  0
  185.2600  178.1200  146.5780 C   0  0  0  0  0  0  0  0  0  0  0  0
  186.1600  178.8920  147.3680 N   0  0  0  0  0  0  0  0  0  0  0  0
  187.4490  179.0880  148.0950 C   0  0  0  0  0  2  0  0  0  0  0  0
  186.5420  180.1280  148.1110 C   0  0  0  0  0  2  0  0  0  0  0  0
  188.8090  175.5100  141.1760 N   0  0  0  0  0  2  0  0  0  0  0  0
  189.1750  174.5570  140.1400 C   0  0  0  0  0  2  0  0  0  0  0  0
  188.3410  173.2970  140.2890 C   0  0  0  0  0  2  0  0  0  0  0  0
  188.8480  172.2290  139.3330 C   0  0  0  0  0  2  0  0  0  0  0  0
  190.0300  172.7410  138.5300 C   0  0  0  0  0  2  0  0  0  0  0  0
  192.0540  172.9440  140.5100 O   0  0  0  0  0  0  0  0  0  0  0  0
  192.1560  172.0100  139.6660 C   0  0  0  0  0  0  0  0  0  0  0  0
  191.1570  171.8290  138.6630 N   0  0  0  0  0  2  0  0  0  0  0  0
  193.3050  171.0420  139.7430 C   0  0  1  0  0  3  0  0  0  0  0  0
  194.5550  172.7990  138.4430 C   0  0  0  0  0  2  0  0  0  0  0  0
  195.2200  172.2380  140.7100 N   0  0  0  0  0  2  0  0  0  0  0  0
  196.4500  173.8330  139.2790 C   0  0  1  0  0  3  0  0  0  0  0  0
  196.5310  172.8150  140.4290 C   0  0  0  0  0  2  0  0  0  0  0  0
  195.8250  173.3200  138.1160 O   0  0  0  0  0  0  0  0  0  0  0  0
  194.6800  171.6750  139.4750 C   0  0  1  0  0  3  0  0  0  0  0  0
  195.9700  175.2360  139.6710 C   0  0  0  0  0  2  0  0  0  0  0  0
  195.9010  176.2600  141.9840 C   0  0  0  0  0  0  0  0  0  0  0  0
  196.6400  176.7840  143.1640 C   0  0  0  0  0  1  0  0  0  0  0  0
  196.6280  175.7280  140.8750 N   0  0  0  0  0  2  0  0  0  0  0  0
  194.6420  176.2890  141.9740 O   0  0  0  0  0  0  0  0  0  0  0  0
  193.0070  168.8980  140.5200 C   0  0  0  0  0  1  0  0  0  0  0  0
  193.2560  170.2270  140.9000 O   0  0  0  0  0  0  0  0  0  0  0  0
  1 13  1  0  0  0  0
  1 15  1  0  0  0  0
  2 19  1  0  0  0  0
  2  8  2  0  0  0  0
  3 13  1  0  0  0  0
  4  9  1  0  0  0  0
  4  3  2  0  0  0  0
  5 10  2  0  0  0  0
  5 11  1  0  0  0  0
  6 12  2  0  0  0  0
  6 16  1  0  0  0  0
  7 10  1  0  0  0  0
  9  1  2  0  0  0  0
 10 32  1  0  0  0  0
 12  2  1  0  0  0  0
 13  7  2  0  0  0  0
 14  3  1  0  0  0  0
 15 16  2  0  0  0  0
 15  5  1  0  0  0  0
 16 17  1  0  0  0  0
 17  8  1  0  0  0  0
 17 11  2  0  0  0  0
 18 19  2  0  0  0  0
 20 29  1  0  0  0  0
 21 27  1  0  0  0  0
 23 21  2  0  0  0  0
 24 25  1  0  0  0  0
 25 20  2  0  0  0  0
 25 23  1  0  0  0  0
 26 18  1  1  0  0  0
 26 24  1  0  0  0  0
 26 28  1  0  0  0  0
 28 30  1  0  0  0  0
 29 27  2  0  0  0  0
 30 20  1  0  0  0  0
 30 22  1  1  0  0  0
 32 31  2  0  0  0  0
 32 33  1  0  0  0  0
 33 34  1  0  0  0  0
 33 35  1  0  0  0  0
 34 35  1  0  0  0  0
 36  6  1  0  0  0  0
 37 38  1  0  0  0  0
 37 36  1  0  0  0  0
 39 38  1  0  0  0  0
 40 43  1  0  0  0  0
 40 39  1  0  0  0  0
 42 41  2  0  0  0  0
 43 42  1  0  0  0  0
 44 42  1  1  0  0  0
 44 57  1  0  0  0  0
 45 50  1  0  0  0  0
 47 51  1  1  0  0  0
 47 48  1  0  0  0  0
 48 46  1  0  0  0  0
 49 45  1  0  0  0  0
 49 47  1  0  0  0  0
 50 44  1  1  0  0  0
 50 46  1  0  0  0  0
 51 54  1  0  0  0  0
 52 53  1  0  0  0  0
 54 52  1  0  0  0  0
 55 52  2  0  0  0  0
 56 57  1  0  0  0  0
M  END
>  <MODEL>
9

>  <REMARK>
 VINA RESULT:      -6.8      2.372      6.301
  Name = 
  15 active torsions:
  status: ('A' for Active; 'I' for Inactive)
    1  A    between atoms: C_7  and  C_46
    2  A    between atoms: C_11  and  C_24
    3  A    between atoms: N_13  and  C_50
    4  A    between atoms: C_15  and  C_28
    5  A    between atoms: C_15  and  N_47
    6  A    between atoms: C_16  and  N_21
    7  A    between atoms: C_17  and  C_27
    8  A    between atoms: C_17  and  C_28
    9  A    between atoms: C_22  and  N_36
   10  A    between atoms: C_22  and  C_43
   11  A    between atoms: C_24  and  O_34
   12  A    between atoms: C_24  and  C_57
   13  A    between atoms: C_26  and  N_47
   14  A    between atoms: C_27  and  N_38
   15  A    between atoms: C_33  and  C_50
                            x       y       z     vdW  Elec       q    Type
                         _______ _______ _______ _____ _____    ______ ____

>  <TORSDO>
F 15

$$$$
