=
 OpenBabel11042416563D

 35 38  0  0  1  0  0  0  0  0999 V2000
  191.6550  176.7660  142.8400 O   0  0  0  0  0  0  0  0  0  0  0  0
  190.3940  174.8860  143.6860 C   0  0  1  0  0  3  0  0  0  0  0  0
  190.3140  177.0270  145.6860 S   0  0  0  0  0  0  0  0  0  0  0  0
  190.0640  174.3320  146.0770 N   0  0  0  0  0  2  0  0  0  0  0  0
  190.5070  175.9780  142.6280 C   0  0  1  0  0  3  0  0  0  0  0  0
  189.1040  176.4500  146.9310 C   0  0  2  0  0  3  0  0  0  0  0  0
  188.7250  174.3150  147.9870 O   0  0  0  0  0  0  0  0  0  0  0  0
  191.7700  174.8650  144.3220 C   0  0  1  0  0  3  0  0  0  0  0  0
  189.2690  174.9700  147.0590 C   0  0  0  0  0  0  0  0  0  0  0  0
  192.5070  176.0350  143.6910 C   0  0  1  0  0  3  0  0  0  0  0  0
  190.5700  175.3020  145.1380 C   0  0  1  0  0  0  0  0  0  0  0  0
  185.8530  176.8900  145.1240 N   0  0  0  0  0  0  0  0  0  0  0  0
  187.7200  176.8020  146.4840 C   0  0  0  0  0  0  0  0  0  0  0  0
  185.5110  177.7540  146.1030 C   0  0  0  0  0  0  0  0  0  0  0  0
  186.7180  177.9040  147.2620 S   0  0  0  0  0  0  0  0  0  0  0  0
  184.2170  178.4850  146.1340 C   0  0  0  0  0  1  0  0  0  0  0  0
  187.0880  176.3560  145.3240 C   0  0  0  0  0  3  0  0  0  0  0  0
  188.0700  175.0390  141.5600 O   0  0  0  0  0  0  0  0  0  0  0  0
  189.2860  176.7910  142.5200 N   0  0  0  0  0  0  0  0  0  0  0  0
  188.1410  176.2730  141.8030 C   0  0  0  0  0  0  0  0  0  0  0  0
  189.2600  178.1280  143.1020 C   0  0  0  0  0  1  0  0  0  0  0  0
  187.0290  177.1330  141.3330 C   0  0  0  0  0  0  0  0  0  0  0  0
  187.2470  177.9720  140.4190 O   0  0  0  0  0  0  0  0  0  0  0  0
  185.6670  177.1000  141.9580 C   0  0  0  0  0  2  0  0  0  0  0  0
  184.2330  178.0060  140.1810 N   0  0  0  0  0  1  0  0  0  0  0  0
  184.7710  178.2560  141.5090 C   0  0  1  0  0  3  0  0  0  0  0  0
  182.4130  178.2810  141.8920 O   0  0  0  0  0  1  0  0  0  0  0  0
  183.6470  178.5120  142.5010 C   0  0  0  0  0  2  0  0  0  0  0  0
  193.7060  175.5560  142.9410 C   0  0  0  0  0  0  0  0  0  0  0  0
  194.9680  176.2120  143.1100 N   0  0  0  0  0  2  0  0  0  0  0  0
  193.5890  174.5840  142.1480 O   0  0  0  0  0  0  0  0  0  0  0  0
  196.0870  176.2060  140.9640 C   0  0  0  0  0  1  0  0  0  0  0  0
  196.3780  174.4430  142.5230 O   0  0  0  0  0  1  0  0  0  0  0  0
  196.1960  175.8230  142.4250 C   0  0  0  0  0  0  0  0  0  0  0  0
  197.3870  176.5400  143.0320 C   0  0  0  0  0  1  0  0  0  0  0  0
  1 10  1  0  0  0  0
  2  8  1  0  0  0  0
  2 11  1  0  0  0  0
  3  6  1  0  0  0  0
  4  9  1  0  0  0  0
  5  1  1  0  0  0  0
  5  2  1  0  0  0  0
  6  9  1  0  0  0  0
  8 11  1  0  0  0  0
  9  7  2  0  0  0  0
 10  8  1  0  0  0  0
 11  3  1  0  0  0  0
 11  4  1  0  0  0  0
 12 17  1  0  0  0  0
 12 14  2  0  0  0  0
 13  6  1  0  0  0  0
 13 15  1  0  0  0  0
 14 16  1  0  0  0  0
 14 15  1  0  0  0  0
 17 13  2  0  0  0  0
 18 20  2  0  0  0  0
 19  5  1  0  0  0  0
 19 21  1  0  0  0  0
 20 19  1  0  0  0  0
 22 20  1  0  0  0  0
 22 24  1  0  0  0  0
 23 22  2  0  0  0  0
 25 26  1  0  0  0  0
 26 24  1  0  0  0  0
 26 28  1  0  0  0  0
 27 28  1  0  0  0  0
 29 30  1  0  0  0  0
 29 10  1  0  0  0  0
 31 29  2  0  0  0  0
 32 34  1  0  0  0  0
 34 33  1  0  0  0  0
 34 35  1  0  0  0  0
 34 30  1  0  0  0  0
M  END
>  <MODEL>
1

>  <REMARK>
 VINA RESULT:      -7.2      0.000      0.000
  Name = 
  8 active torsions:
  status: ('A' for Active; 'I' for Inactive)
    1  A    between atoms: N_4  and  C_11
    2  A    between atoms: C_10  and  CA_30
    3  A    between atoms: C_12  and  C_19
    4  A    between atoms: C_12  and  C_29
    5  A    between atoms: C_14  and  C_15
    6  A    between atoms: C_20  and  C_22
    7  A    between atoms: N_23  and  C_26
    8  A    between atoms: C_29  and  CA_30
                            x       y       z     vdW  Elec       q    Type
                         _______ _______ _______ _____ _____    ______ ____

>  <TORSDO>
F 8

$$$$
=
 OpenBabel11042416563D

 35 38  0  0  1  0  0  0  0  0999 V2000
  188.0800  175.7750  144.1030 O   0  0  0  0  0  0  0  0  0  0  0  0
  190.1710  176.9880  144.0970 C   0  0  1  0  0  3  0  0  0  0  0  0
  190.5150  174.5620  145.7040 S   0  0  0  0  0  0  0  0  0  0  0  0
  191.8770  176.9270  145.8910 N   0  0  0  0  0  2  0  0  0  0  0  0
  189.1380  176.2150  143.2840 C   0  0  1  0  0  3  0  0  0  0  0  0
  192.3100  174.4930  146.0560 C   0  0  2  0  0  3  0  0  0  0  0  0
  193.9200  176.1620  146.7190 O   0  0  0  0  0  0  0  0  0  0  0  0
  189.4480  177.2860  145.3960 C   0  0  1  0  0  3  0  0  0  0  0  0
  192.7790  175.8980  146.2550 C   0  0  0  0  0  0  0  0  0  0  0  0
  188.1290  176.5380  145.2860 C   0  0  1  0  0  3  0  0  0  0  0  0
  190.6470  176.3600  145.3960 C   0  0  1  0  0  0  0  0  0  0  0  0
  193.6310  172.2000  143.4050 N   0  0  0  0  0  0  0  0  0  0  0  0
  193.0190  173.8460  144.9070 C   0  0  0  0  0  0  0  0  0  0  0  0
  194.5170  173.1750  143.1090 C   0  0  0  0  0  0  0  0  0  0  0  0
  194.3110  174.5300  144.0790 S   0  0  0  0  0  0  0  0  0  0  0  0
  195.5530  173.0450  142.0500 C   0  0  0  0  0  1  0  0  0  0  0  0
  192.7930  172.5630  144.4130 C   0  0  0  0  0  3  0  0  0  0  0  0
  187.6560  174.1310  142.0920 O   0  0  0  0  0  0  0  0  0  0  0  0
  189.7350  175.1180  142.5070 N   0  0  0  0  0  0  0  0  0  0  0  0
  188.9110  174.0080  142.0830 C   0  0  0  0  0  0  0  0  0  0  0  0
  191.1630  175.1430  142.2100 C   0  0  0  0  0  1  0  0  0  0  0  0
  189.4730  172.7140  141.6300 C   0  0  0  0  0  0  0  0  0  0  0  0
  189.9500  171.9200  142.4840 O   0  0  0  0  0  0  0  0  0  0  0  0
  189.5700  172.3410  140.1810 C   0  0  0  0  0  2  0  0  0  0  0  0
  190.9990  173.4940  138.5500 N   0  0  0  0  0  1  0  0  0  0  0  0
  189.7300  173.5500  139.2580 C   0  0  1  0  0  3  0  0  0  0  0  0
  187.8040  174.7860  138.5720 O   0  0  0  0  0  1  0  0  0  0  0  0
  188.5750  173.6610  138.2750 C   0  0  0  0  0  2  0  0  0  0  0  0
  186.9810  177.4910  145.3390 C   0  0  0  0  0  0  0  0  0  0  0  0
  186.0990  177.6140  144.2160 N   0  0  0  0  0  2  0  0  0  0  0  0
  186.8080  178.1920  146.3710 O   0  0  0  0  0  0  0  0  0  0  0  0
  185.4480  179.9430  144.0980 C   0  0  0  0  0  1  0  0  0  0  0  0
  184.1740  178.3570  145.3150 O   0  0  0  0  0  1  0  0  0  0  0  0
  184.9520  178.5140  144.1670 C   0  0  0  0  0  0  0  0  0  0  0  0
  184.1100  178.2270  142.9380 C   0  0  0  0  0  1  0  0  0  0  0  0
  1 10  1  0  0  0  0
  2 11  1  0  0  0  0
  2  8  1  0  0  0  0
  3  6  1  0  0  0  0
  4  9  1  0  0  0  0
  5  2  1  0  0  0  0
  5  1  1  0  0  0  0
  6  9  1  0  0  0  0
  9  7  2  0  0  0  0
 10 29  1  0  0  0  0
 10  8  1  0  0  0  0
 11  8  1  0  0  0  0
 11  3  1  0  0  0  0
 11  4  1  0  0  0  0
 12 17  1  0  0  0  0
 13  6  1  0  0  0  0
 14 12  2  0  0  0  0
 14 15  1  0  0  0  0
 15 13  1  0  0  0  0
 16 14  1  0  0  0  0
 17 13  2  0  0  0  0
 19  5  1  0  0  0  0
 20 18  2  0  0  0  0
 20 19  1  0  0  0  0
 21 19  1  0  0  0  0
 22 20  1  0  0  0  0
 22 23  2  0  0  0  0
 24 22  1  0  0  0  0
 25 26  1  0  0  0  0
 26 24  1  0  0  0  0
 28 27  1  0  0  0  0
 28 26  1  0  0  0  0
 29 31  2  0  0  0  0
 30 29  1  0  0  0  0
 32 34  1  0  0  0  0
 34 30  1  0  0  0  0
 34 33  1  0  0  0  0
 35 34  1  0  0  0  0
M  END
>  <MODEL>
2

>  <REMARK>
 VINA RESULT:      -7.0      2.982      7.343
  Name = 
  8 active torsions:
  status: ('A' for Active; 'I' for Inactive)
    1  A    between atoms: N_4  and  C_11
    2  A    between atoms: C_10  and  CA_30
    3  A    between atoms: C_12  and  C_19
    4  A    between atoms: C_12  and  C_29
    5  A    between atoms: C_14  and  C_15
    6  A    between atoms: C_20  and  C_22
    7  A    between atoms: N_23  and  C_26
    8  A    between atoms: C_29  and  CA_30
                            x       y       z     vdW  Elec       q    Type
                         _______ _______ _______ _____ _____    ______ ____

>  <TORSDO>
F 8

$$$$
=
 OpenBabel11042416563D

 35 38  0  0  1  0  0  0  0  0999 V2000
  189.6230  177.0780  143.4940 O   0  0  0  0  0  0  0  0  0  0  0  0
  189.1060  174.8330  144.2240 C   0  0  1  0  0  3  0  0  0  0  0  0
  190.9050  174.6630  141.9180 S   0  0  0  0  0  0  0  0  0  0  0  0
  189.0780  172.8200  142.7830 N   0  0  0  0  0  2  0  0  0  0  0  0
  189.7730  176.1640  144.5540 C   0  0  1  0  0  3  0  0  0  0  0  0
  191.3590  172.8930  141.8170 C   0  0  2  0  0  3  0  0  0  0  0  0
  190.0850  170.8560  142.0270 O   0  0  0  0  0  0  0  0  0  0  0  0
  188.2290  175.1630  143.0320 C   0  0  1  0  0  3  0  0  0  0  0  0
  190.1510  172.1010  142.2020 C   0  0  0  0  0  0  0  0  0  0  0  0
  188.5750  176.6020  142.6820 C   0  0  1  0  0  3  0  0  0  0  0  0
  189.4050  174.2220  142.8650 C   0  0  1  0  0  0  0  0  0  0  0  0
  194.6860  172.3660  143.4530 N   0  0  0  0  0  0  0  0  0  0  0  0
  192.5020  172.6160  142.7430 C   0  0  0  0  0  0  0  0  0  0  0  0
  194.0040  171.9140  144.5260 C   0  0  0  0  0  0  0  0  0  0  0  0
  192.3420  171.9700  144.2860 S   0  0  0  0  0  0  0  0  0  0  0  0
  194.6610  171.4200  145.7660 C   0  0  0  0  0  1  0  0  0  0  0  0
  193.8560  172.7550  142.4490 C   0  0  0  0  0  3  0  0  0  0  0  0
  191.7820  178.0880  144.0790 O   0  0  0  0  0  0  0  0  0  0  0  0
  191.1780  176.0080  144.9600 N   0  0  0  0  0  0  0  0  0  0  0  0
  192.1630  176.9700  144.5200 C   0  0  0  0  0  0  0  0  0  0  0  0
  191.5680  174.8570  145.7670 C   0  0  0  0  0  1  0  0  0  0  0  0
  193.6210  176.7080  144.5640 C   0  0  0  0  0  0  0  0  0  0  0  0
  194.2940  177.1480  145.5350 O   0  0  0  0  0  0  0  0  0  0  0  0
  194.3470  176.0040  143.4580 C   0  0  0  0  0  2  0  0  0  0  0  0
  196.6040  175.2460  144.0620 N   0  0  0  0  0  1  0  0  0  0  0  0
  195.8450  176.3130  143.4280 C   0  0  1  0  0  3  0  0  0  0  0  0
  195.2700  176.8960  141.1840 O   0  0  0  0  0  1  0  0  0  0  0  0
  196.3410  176.5510  142.0100 C   0  0  0  0  0  2  0  0  0  0  0  0
  187.3730  177.4770  142.8160 C   0  0  0  0  0  0  0  0  0  0  0  0
  186.5450  177.3860  143.9820 N   0  0  0  0  0  2  0  0  0  0  0  0
  187.0880  178.2800  141.8880 O   0  0  0  0  0  0  0  0  0  0  0  0
  184.7580  177.8310  145.5530 C   0  0  0  0  0  1  0  0  0  0  0  0
  184.4090  177.9390  143.2110 O   0  0  0  0  0  1  0  0  0  0  0  0
  185.3520  178.1930  144.2080 C   0  0  0  0  0  0  0  0  0  0  0  0
  185.7070  179.6680  144.2100 C   0  0  0  0  0  1  0  0  0  0  0  0
  1  5  1  0  0  0  0
  2  5  1  0  0  0  0
  3 11  1  0  0  0  0
  4 11  1  0  0  0  0
  5 19  1  0  0  0  0
  6  3  1  0  0  0  0
  6  9  1  0  0  0  0
  6 13  1  0  0  0  0
  7  9  2  0  0  0  0
  8  2  1  0  0  0  0
  9  4  1  0  0  0  0
 10 29  1  0  0  0  0
 10  8  1  0  0  0  0
 10  1  1  0  0  0  0
 11  8  1  0  0  0  0
 11  2  1  0  0  0  0
 12 14  2  0  0  0  0
 13 15  1  0  0  0  0
 14 16  1  0  0  0  0
 15 14  1  0  0  0  0
 17 13  2  0  0  0  0
 17 12  1  0  0  0  0
 18 20  2  0  0  0  0
 19 21  1  0  0  0  0
 20 22  1  0  0  0  0
 20 19  1  0  0  0  0
 22 23  2  0  0  0  0
 24 22  1  0  0  0  0
 26 24  1  0  0  0  0
 26 25  1  0  0  0  0
 27 28  1  0  0  0  0
 28 26  1  0  0  0  0
 29 30  1  0  0  0  0
 30 34  1  0  0  0  0
 31 29  2  0  0  0  0
 33 34  1  0  0  0  0
 34 35  1  0  0  0  0
 34 32  1  0  0  0  0
M  END
>  <MODEL>
3

>  <REMARK>
 VINA RESULT:      -6.8      2.718      8.394
  Name = 
  8 active torsions:
  status: ('A' for Active; 'I' for Inactive)
    1  A    between atoms: N_4  and  C_11
    2  A    between atoms: C_10  and  CA_30
    3  A    between atoms: C_12  and  C_19
    4  A    between atoms: C_12  and  C_29
    5  A    between atoms: C_14  and  C_15
    6  A    between atoms: C_20  and  C_22
    7  A    between atoms: N_23  and  C_26
    8  A    between atoms: C_29  and  CA_30
                            x       y       z     vdW  Elec       q    Type
                         _______ _______ _______ _____ _____    ______ ____

>  <TORSDO>
F 8

$$$$
=
 OpenBabel11042416563D

 35 38  0  0  1  0  0  0  0  0999 V2000
  189.8480  177.3010  144.5650 O   0  0  0  0  0  0  0  0  0  0  0  0
  190.2470  175.0270  145.2820 C   0  0  1  0  0  3  0  0  0  0  0  0
  190.2080  175.0790  142.3520 S   0  0  0  0  0  0  0  0  0  0  0  0
  189.6270  172.9890  144.0190 N   0  0  0  0  0  2  0  0  0  0  0  0
  190.7640  176.4600  145.2280 C   0  0  1  0  0  3  0  0  0  0  0  0
  190.7580  173.4060  141.8540 C   0  0  2  0  0  3  0  0  0  0  0  0
  190.2200  171.1940  142.6520 O   0  0  0  0  0  0  0  0  0  0  0  0
  188.7800  175.1660  144.9230 C   0  0  1  0  0  3  0  0  0  0  0  0
  190.1920  172.4380  142.8440 C   0  0  0  0  0  0  0  0  0  0  0  0
  188.6100  176.6290  144.5470 C   0  0  1  0  0  3  0  0  0  0  0  0
  189.7170  174.4280  143.9890 C   0  0  1  0  0  0  0  0  0  0  0  0
  194.4050  173.4100  141.0030 N   0  0  0  0  0  0  0  0  0  0  0  0
  192.2540  173.3540  141.8450 C   0  0  0  0  0  0  0  0  0  0  0  0
  194.6260  173.0150  142.2750 C   0  0  0  0  0  0  0  0  0  0  0  0
  193.1980  172.8740  143.1490 S   0  0  0  0  0  0  0  0  0  0  0  0
  195.9810  172.7350  142.8210 C   0  0  0  0  0  1  0  0  0  0  0  0
  193.0820  173.5960  140.7510 C   0  0  0  0  0  3  0  0  0  0  0  0
  193.1110  175.6810  146.5880 O   0  0  0  0  0  0  0  0  0  0  0  0
  192.1170  176.5530  144.6580 N   0  0  0  0  0  0  0  0  0  0  0  0
  193.2670  176.2900  145.4950 C   0  0  0  0  0  0  0  0  0  0  0  0
  192.2830  176.9510  143.2650 C   0  0  0  0  0  1  0  0  0  0  0  0
  194.6420  176.7030  145.1280 C   0  0  0  0  0  0  0  0  0  0  0  0
  195.0360  177.8600  145.4330 O   0  0  0  0  0  0  0  0  0  0  0  0
  195.5620  175.8250  144.3350 C   0  0  0  0  0  2  0  0  0  0  0  0
  197.7460  176.0490  143.2320 N   0  0  0  0  0  1  0  0  0  0  0  0
  196.4020  176.5970  143.3150 C   0  0  1  0  0  3  0  0  0  0  0  0
  196.6090  176.0600  140.9970 O   0  0  0  0  0  1  0  0  0  0  0  0
  195.7450  176.6110  141.9440 C   0  0  0  0  0  2  0  0  0  0  0  0
  187.6420  177.2980  145.4660 C   0  0  0  0  0  0  0  0  0  0  0  0
  186.3990  177.7980  144.9590 N   0  0  0  0  0  2  0  0  0  0  0  0
  187.9380  177.4290  146.6830 O   0  0  0  0  0  0  0  0  0  0  0  0
  184.4200  179.1900  144.8590 C   0  0  0  0  0  1  0  0  0  0  0  0
  185.9960  179.3930  146.6190 O   0  0  0  0  0  1  0  0  0  0  0  0
  185.3880  178.4660  145.7710 C   0  0  0  0  0  0  0  0  0  0  0  0
  184.6200  177.4500  146.5950 C   0  0  0  0  0  1  0  0  0  0  0  0
  1  5  1  0  0  0  0
  3 11  1  0  0  0  0
  5  2  1  0  0  0  0
  6  3  1  0  0  0  0
  6  9  1  0  0  0  0
  7  9  2  0  0  0  0
  8  2  1  0  0  0  0
  9  4  1  0  0  0  0
 10  1  1  0  0  0  0
 10  8  1  0  0  0  0
 10 29  1  0  0  0  0
 11  4  1  0  0  0  0
 11  8  1  0  0  0  0
 11  2  1  0  0  0  0
 12 14  2  0  0  0  0
 13  6  1  0  0  0  0
 13 15  1  0  0  0  0
 14 16  1  0  0  0  0
 14 15  1  0  0  0  0
 17 12  1  0  0  0  0
 17 13  2  0  0  0  0
 19  5  1  0  0  0  0
 19 20  1  0  0  0  0
 20 18  2  0  0  0  0
 21 19  1  0  0  0  0
 22 23  2  0  0  0  0
 22 20  1  0  0  0  0
 24 22  1  0  0  0  0
 25 26  1  0  0  0  0
 26 24  1  0  0  0  0
 27 28  1  0  0  0  0
 28 26  1  0  0  0  0
 29 31  2  0  0  0  0
 30 29  1  0  0  0  0
 30 34  1  0  0  0  0
 32 34  1  0  0  0  0
 34 35  1  0  0  0  0
 34 33  1  0  0  0  0
M  END
>  <MODEL>
4

>  <REMARK>
 VINA RESULT:      -6.8      3.017      8.711
  Name = 
  8 active torsions:
  status: ('A' for Active; 'I' for Inactive)
    1  A    between atoms: N_4  and  C_11
    2  A    between atoms: C_10  and  CA_30
    3  A    between atoms: C_12  and  C_19
    4  A    between atoms: C_12  and  C_29
    5  A    between atoms: C_14  and  C_15
    6  A    between atoms: C_20  and  C_22
    7  A    between atoms: N_23  and  C_26
    8  A    between atoms: C_29  and  CA_30
                            x       y       z     vdW  Elec       q    Type
                         _______ _______ _______ _____ _____    ______ ____

>  <TORSDO>
F 8

$$$$
=
 OpenBabel11042416563D

 35 38  0  0  1  0  0  0  0  0999 V2000
  185.5830  177.2440  141.8480 O   0  0  0  0  0  0  0  0  0  0  0  0
  186.2250  179.0270  143.3480 C   0  0  1  0  0  3  0  0  0  0  0  0
  186.1740  176.5180  144.8620 S   0  0  0  0  0  0  0  0  0  0  0  0
  185.8250  179.0670  145.7910 N   0  0  0  0  0  2  0  0  0  0  0  0
  186.5860  178.1940  142.1220 C   0  0  1  0  0  3  0  0  0  0  0  0
  186.9000  176.9460  146.4870 C   0  0  2  0  0  3  0  0  0  0  0  0
  186.6050  178.8200  147.9760 O   0  0  0  0  0  0  0  0  0  0  0  0
  184.7520  178.7360  143.5530 C   0  0  1  0  0  3  0  0  0  0  0  0
  186.4440  178.3280  146.8280 C   0  0  0  0  0  0  0  0  0  0  0  0
  184.4240  177.6550  142.5350 C   0  0  1  0  0  3  0  0  0  0  0  0
  185.7600  178.2780  144.5860 C   0  0  1  0  0  0  0  0  0  0  0  0
  190.5350  177.3770  145.6940 N   0  0  0  0  0  0  0  0  0  0  0  0
  188.3920  176.8760  146.4010 C   0  0  0  0  0  0  0  0  0  0  0  0
  190.7560  176.2930  146.4680 C   0  0  0  0  0  0  0  0  0  0  0  0
  189.3340  175.6890  147.1270 S   0  0  0  0  0  0  0  0  0  0  0  0
  192.1050  175.7110  146.6940 C   0  0  0  0  0  1  0  0  0  0  0  0
  189.2160  177.7070  145.6450 C   0  0  0  0  0  3  0  0  0  0  0  0
  187.1330  175.4840  141.5590 O   0  0  0  0  0  0  0  0  0  0  0  0
  187.9190  177.5830  142.2250 N   0  0  0  0  0  0  0  0  0  0  0  0
  188.0660  176.1520  142.0810 C   0  0  0  0  0  0  0  0  0  0  0  0
  189.0740  178.4260  142.5130 C   0  0  0  0  0  1  0  0  0  0  0  0
  189.2750  175.4180  142.5210 C   0  0  0  0  0  0  0  0  0  0  0  0
  190.3370  175.5290  141.8530 O   0  0  0  0  0  0  0  0  0  0  0  0
  189.2680  174.4810  143.6920 C   0  0  0  0  0  2  0  0  0  0  0  0
  190.9360  172.9630  144.6650 N   0  0  0  0  0  1  0  0  0  0  0  0
  190.1420  173.2440  143.4790 C   0  0  1  0  0  3  0  0  0  0  0  0
  188.7530  172.2200  141.8280 O   0  0  0  0  0  1  0  0  0  0  0  0
  189.3130  172.0300  143.0920 C   0  0  0  0  0  2  0  0  0  0  0  0
  183.3920  178.1400  141.5710 C   0  0  0  0  0  0  0  0  0  0  0  0
  182.0000  177.9600  141.8600 N   0  0  0  0  0  2  0  0  0  0  0  0
  183.7590  178.6900  140.4990 O   0  0  0  0  0  0  0  0  0  0  0  0
  179.5960  177.9390  141.5710 C   0  0  0  0  0  1  0  0  0  0  0  0
  181.0720  177.8320  139.7180 O   0  0  0  0  0  1  0  0  0  0  0  0
  180.9160  178.3950  140.9860 C   0  0  0  0  0  0  0  0  0  0  0  0
  180.9060  179.9080  140.8730 C   0  0  0  0  0  1  0  0  0  0  0  0
  1  5  1  0  0  0  0
  1 10  1  0  0  0  0
  2  8  1  0  0  0  0
  2 11  1  0  0  0  0
  3  6  1  0  0  0  0
  4  9  1  0  0  0  0
  5 19  1  0  0  0  0
  5  2  1  0  0  0  0
  6  9  1  0  0  0  0
  8 11  1  0  0  0  0
  9  7  2  0  0  0  0
 10  8  1  0  0  0  0
 11  3  1  0  0  0  0
 11  4  1  0  0  0  0
 12 14  2  0  0  0  0
 13  6  1  0  0  0  0
 13 15  1  0  0  0  0
 14 16  1  0  0  0  0
 14 15  1  0  0  0  0
 17 12  1  0  0  0  0
 17 13  2  0  0  0  0
 18 20  2  0  0  0  0
 19 21  1  0  0  0  0
 20 19  1  0  0  0  0
 20 22  1  0  0  0  0
 22 24  1  0  0  0  0
 23 22  2  0  0  0  0
 26 24  1  0  0  0  0
 26 25  1  0  0  0  0
 27 28  1  0  0  0  0
 28 26  1  0  0  0  0
 29 30  1  0  0  0  0
 29 10  1  0  0  0  0
 31 29  2  0  0  0  0
 33 34  1  0  0  0  0
 34 32  1  0  0  0  0
 34 30  1  0  0  0  0
 35 34  1  0  0  0  0
M  END
>  <MODEL>
5

>  <REMARK>
 VINA RESULT:      -6.8      3.093      8.151
  Name = 
  8 active torsions:
  status: ('A' for Active; 'I' for Inactive)
    1  A    between atoms: N_4  and  C_11
    2  A    between atoms: C_10  and  CA_30
    3  A    between atoms: C_12  and  C_19
    4  A    between atoms: C_12  and  C_29
    5  A    between atoms: C_14  and  C_15
    6  A    between atoms: C_20  and  C_22
    7  A    between atoms: N_23  and  C_26
    8  A    between atoms: C_29  and  CA_30
                            x       y       z     vdW  Elec       q    Type
                         _______ _______ _______ _____ _____    ______ ____

>  <TORSDO>
F 8

$$$$
=
 OpenBabel11042416563D

 35 38  0  0  1  0  0  0  0  0999 V2000
  188.9300  176.9280  144.3550 O   0  0  0  0  0  0  0  0  0  0  0  0
  188.5390  174.8540  143.1760 C   0  0  1  0  0  3  0  0  0  0  0  0
  191.2580  175.7630  142.5710 S   0  0  0  0  0  0  0  0  0  0  0  0
  189.6240  174.1760  141.0560 N   0  0  0  0  0  2  0  0  0  0  0  0
  188.6850  175.5510  144.5240 C   0  0  1  0  0  3  0  0  0  0  0  0
  192.0190  174.3680  141.6630 C   0  0  2  0  0  3  0  0  0  0  0  0
  191.2190  172.9180  139.9090 O   0  0  0  0  0  0  0  0  0  0  0  0
  188.3500  176.0020  142.2030 C   0  0  1  0  0  3  0  0  0  0  0  0
  190.9540  173.7610  140.8060 C   0  0  0  0  0  0  0  0  0  0  0  0
  188.5520  177.2560  143.0380 C   0  0  1  0  0  3  0  0  0  0  0  0
  189.5960  175.1450  142.1240 C   0  0  1  0  0  0  0  0  0  0  0  0
  192.5520  171.6910  144.2280 N   0  0  0  0  0  0  0  0  0  0  0  0
  192.5580  173.3700  142.6400 C   0  0  0  0  0  0  0  0  0  0  0  0
  193.8540  172.0490  144.2230 C   0  0  0  0  0  0  0  0  0  0  0  0
  194.1610  173.2940  143.1370 S   0  0  0  0  0  0  0  0  0  0  0  0
  194.8810  171.4120  145.0880 C   0  0  0  0  0  1  0  0  0  0  0  0
  191.8180  172.4280  143.3510 C   0  0  0  0  0  3  0  0  0  0  0  0
  190.2610  176.9300  146.4160 O   0  0  0  0  0  0  0  0  0  0  0  0
  189.6870  174.9090  145.3880 N   0  0  0  0  0  0  0  0  0  0  0  0
  190.5620  175.7250  146.2010 C   0  0  0  0  0  0  0  0  0  0  0  0
  189.8140  173.4560  145.3820 C   0  0  0  0  0  1  0  0  0  0  0  0
  191.8120  175.2090  146.8060 C   0  0  0  0  0  0  0  0  0  0  0  0
  191.9000  175.1310  148.0600 O   0  0  0  0  0  0  0  0  0  0  0  0
  193.0130  174.8450  145.9860 C   0  0  0  0  0  2  0  0  0  0  0  0
  195.4510  174.9760  146.2530 N   0  0  0  0  0  1  0  0  0  0  0  0
  194.2190  175.7480  146.2500 C   0  0  1  0  0  3  0  0  0  0  0  0
  194.9040  177.9970  145.8250 O   0  0  0  0  0  1  0  0  0  0  0  0
  194.3020  176.8820  145.2400 C   0  0  0  0  0  2  0  0  0  0  0  0
  187.3120  178.0870  143.0440 C   0  0  0  0  0  0  0  0  0  0  0  0
  186.5150  178.1780  144.2320 N   0  0  0  0  0  2  0  0  0  0  0  0
  186.9680  178.6900  141.9930 O   0  0  0  0  0  0  0  0  0  0  0  0
  184.2460  178.3760  143.4110 C   0  0  0  0  0  1  0  0  0  0  0  0
  185.5340  180.2840  143.9750 O   0  0  0  0  0  1  0  0  0  0  0  0
  185.2880  178.9600  144.3410 C   0  0  0  0  0  0  0  0  0  0  0  0
  184.7590  178.9140  145.7620 C   0  0  0  0  0  1  0  0  0  0  0  0
  1  5  1  0  0  0  0
  2  5  1  0  0  0  0
  4 11  1  0  0  0  0
  5 19  1  0  0  0  0
  6  3  1  0  0  0  0
  6 13  1  0  0  0  0
  7  9  2  0  0  0  0
  8 10  1  0  0  0  0
  8  2  1  0  0  0  0
  9  4  1  0  0  0  0
  9  6  1  0  0  0  0
 10 29  1  0  0  0  0
 10  1  1  0  0  0  0
 11  8  1  0  0  0  0
 11  3  1  0  0  0  0
 11  2  1  0  0  0  0
 13 15  1  0  0  0  0
 13 17  2  0  0  0  0
 14 12  2  0  0  0  0
 14 16  1  0  0  0  0
 15 14  1  0  0  0  0
 17 12  1  0  0  0  0
 19 20  1  0  0  0  0
 20 18  2  0  0  0  0
 20 22  1  0  0  0  0
 21 19  1  0  0  0  0
 22 23  2  0  0  0  0
 24 26  1  0  0  0  0
 24 22  1  0  0  0  0
 26 25  1  0  0  0  0
 28 27  1  0  0  0  0
 28 26  1  0  0  0  0
 29 30  1  0  0  0  0
 30 34  1  0  0  0  0
 31 29  2  0  0  0  0
 32 34  1  0  0  0  0
 33 34  1  0  0  0  0
 34 35  1  0  0  0  0
M  END
>  <MODEL>
6

>  <REMARK>
 VINA RESULT:      -6.8      2.943      8.427
  Name = 
  8 active torsions:
  status: ('A' for Active; 'I' for Inactive)
    1  A    between atoms: N_4  and  C_11
    2  A    between atoms: C_10  and  CA_30
    3  A    between atoms: C_12  and  C_19
    4  A    between atoms: C_12  and  C_29
    5  A    between atoms: C_14  and  C_15
    6  A    between atoms: C_20  and  C_22
    7  A    between atoms: N_23  and  C_26
    8  A    between atoms: C_29  and  CA_30
                            x       y       z     vdW  Elec       q    Type
                         _______ _______ _______ _____ _____    ______ ____

>  <TORSDO>
F 8

$$$$
=
 OpenBabel11042416563D

 35 38  0  0  1  0  0  0  0  0999 V2000
  188.5270  175.6420  143.3290 O   0  0  0  0  0  0  0  0  0  0  0  0
  190.6590  176.7780  143.2660 C   0  0  1  0  0  3  0  0  0  0  0  0
  190.7180  174.8210  145.4470 S   0  0  0  0  0  0  0  0  0  0  0  0
  192.1590  177.1340  145.2040 N   0  0  0  0  0  2  0  0  0  0  0  0
  189.6850  175.8460  142.5540 C   0  0  1  0  0  3  0  0  0  0  0  0
  192.4600  174.8100  146.0090 C   0  0  2  0  0  3  0  0  0  0  0  0
  194.0640  176.5620  146.4240 O   0  0  0  0  0  0  0  0  0  0  0  0
  189.8160  177.4010  144.3610 C   0  0  1  0  0  3  0  0  0  0  0  0
  192.9690  176.2120  145.9110 C   0  0  0  0  0  0  0  0  0  0  0  0
  188.4830  176.6730  144.2870 C   0  0  1  0  0  3  0  0  0  0  0  0
  190.9640  176.4830  144.7260 C   0  0  1  0  0  0  0  0  0  0  0  0
  193.9520  171.9080  144.1690 N   0  0  0  0  0  0  0  0  0  0  0  0
  193.2590  173.8860  145.1430 C   0  0  0  0  0  0  0  0  0  0  0  0
  194.9090  172.7620  143.7480 C   0  0  0  0  0  0  0  0  0  0  0  0
  194.6620  174.3200  144.3280 S   0  0  0  0  0  0  0  0  0  0  0  0
  196.0450  172.3550  142.8800 C   0  0  0  0  0  1  0  0  0  0  0  0
  193.0280  172.5250  144.9540 C   0  0  0  0  0  3  0  0  0  0  0  0
  188.2500  173.4910  141.9560 O   0  0  0  0  0  0  0  0  0  0  0  0
  190.3110  174.5790  142.1430 N   0  0  0  0  0  0  0  0  0  0  0  0
  189.5040  173.3850  142.0260 C   0  0  0  0  0  0  0  0  0  0  0  0
  191.7490  174.5360  141.9010 C   0  0  0  0  0  1  0  0  0  0  0  0
  190.0850  172.0220  141.9800 C   0  0  0  0  0  0  0  0  0  0  0  0
  190.3940  171.4510  143.0600 O   0  0  0  0  0  0  0  0  0  0  0  0
  190.3930  171.3210  140.6910 C   0  0  0  0  0  2  0  0  0  0  0  0
  191.6610  172.2470  138.8030 N   0  0  0  0  0  1  0  0  0  0  0  0
  190.3740  172.2540  139.4790 C   0  0  1  0  0  3  0  0  0  0  0  0
  188.1010  172.6000  138.8300 O   0  0  0  0  0  1  0  0  0  0  0  0
  189.2590  171.8910  138.5100 C   0  0  0  0  0  2  0  0  0  0  0  0
  187.3800  177.6290  143.9730 C   0  0  0  0  0  0  0  0  0  0  0  0
  186.2790  177.7760  144.8770 N   0  0  0  0  0  2  0  0  0  0  0  0
  187.4220  178.2880  142.9000 O   0  0  0  0  0  0  0  0  0  0  0  0
  184.3710  178.2150  143.4530 C   0  0  0  0  0  1  0  0  0  0  0  0
  185.6200  179.9750  144.4340 O   0  0  0  0  0  1  0  0  0  0  0  0
  185.1530  178.6790  144.6630 C   0  0  0  0  0  0  0  0  0  0  0  0
  184.2370  178.6740  145.8720 C   0  0  0  0  0  1  0  0  0  0  0  0
  1 10  1  0  0  0  0
  2  8  1  0  0  0  0
  2 11  1  0  0  0  0
  3  6  1  0  0  0  0
  4  9  1  0  0  0  0
  5  2  1  0  0  0  0
  5  1  1  0  0  0  0
  8 11  1  0  0  0  0
  9  6  1  0  0  0  0
  9  7  2  0  0  0  0
 10  8  1  0  0  0  0
 11  4  1  0  0  0  0
 11  3  1  0  0  0  0
 12 17  1  0  0  0  0
 13  6  1  0  0  0  0
 14 12  2  0  0  0  0
 14 15  1  0  0  0  0
 15 13  1  0  0  0  0
 16 14  1  0  0  0  0
 17 13  2  0  0  0  0
 18 20  2  0  0  0  0
 19  5  1  0  0  0  0
 20 19  1  0  0  0  0
 21 19  1  0  0  0  0
 22 20  1  0  0  0  0
 22 23  2  0  0  0  0
 24 22  1  0  0  0  0
 25 26  1  0  0  0  0
 26 24  1  0  0  0  0
 28 27  1  0  0  0  0
 28 26  1  0  0  0  0
 29 10  1  0  0  0  0
 29 30  1  0  0  0  0
 31 29  2  0  0  0  0
 32 34  1  0  0  0  0
 33 34  1  0  0  0  0
 34 30  1  0  0  0  0
 34 35  1  0  0  0  0
M  END
>  <MODEL>
7

>  <REMARK>
 VINA RESULT:      -6.8      3.189      7.597
  Name = 
  8 active torsions:
  status: ('A' for Active; 'I' for Inactive)
    1  A    between atoms: N_4  and  C_11
    2  A    between atoms: C_10  and  CA_30
    3  A    between atoms: C_12  and  C_19
    4  A    between atoms: C_12  and  C_29
    5  A    between atoms: C_14  and  C_15
    6  A    between atoms: C_20  and  C_22
    7  A    between atoms: N_23  and  C_26
    8  A    between atoms: C_29  and  CA_30
                            x       y       z     vdW  Elec       q    Type
                         _______ _______ _______ _____ _____    ______ ____

>  <TORSDO>
F 8

$$$$
=
 OpenBabel11042416563D

 35 38  0  0  1  0  0  0  0  0999 V2000
  188.8730  174.8710  145.4930 O   0  0  0  0  0  0  0  0  0  0  0  0
  190.3910  176.2940  144.2640 C   0  0  1  0  0  3  0  0  0  0  0  0
  191.8910  174.9810  146.4120 S   0  0  0  0  0  0  0  0  0  0  0  0
  192.4240  177.3660  145.1840 N   0  0  0  0  0  2  0  0  0  0  0  0
  189.4890  175.0650  144.2420 C   0  0  1  0  0  3  0  0  0  0  0  0
  193.6400  175.4000  146.0750 C   0  0  2  0  0  3  0  0  0  0  0  0
  194.7440  177.4420  145.4210 O   0  0  0  0  0  0  0  0  0  0  0  0
  189.9670  177.0210  145.5240 C   0  0  1  0  0  3  0  0  0  0  0  0
  193.6700  176.7980  145.5460 C   0  0  0  0  0  0  0  0  0  0  0  0
  188.9750  176.0870  146.1970 C   0  0  1  0  0  3  0  0  0  0  0  0
  191.3570  176.4280  145.4290 C   0  0  1  0  0  0  0  0  0  0  0  0
  195.2210  172.5270  144.2650 N   0  0  0  0  0  0  0  0  0  0  0  0
  194.2020  174.4350  145.0780 C   0  0  0  0  0  0  0  0  0  0  0  0
  195.1390  173.2820  143.1490 C   0  0  0  0  0  0  0  0  0  0  0  0
  194.4300  174.7750  143.4480 S   0  0  0  0  0  0  0  0  0  0  0  0
  195.6320  172.8330  141.8200 C   0  0  0  0  0  1  0  0  0  0  0  0
  194.7050  173.1650  145.3500 C   0  0  0  0  0  3  0  0  0  0  0  0
  190.8010  174.8650  141.7510 O   0  0  0  0  0  0  0  0  0  0  0  0
  190.1860  173.8590  143.7710 N   0  0  0  0  0  0  0  0  0  0  0  0
  190.6790  173.7990  142.4130 C   0  0  0  0  0  0  0  0  0  0  0  0
  190.3350  172.7200  144.6700 C   0  0  0  0  0  1  0  0  0  0  0  0
  191.0560  172.5290  141.7480 C   0  0  0  0  0  0  0  0  0  0  0  0
  192.2680  172.1870  141.7220 O   0  0  0  0  0  0  0  0  0  0  0  0
  190.0590  171.6670  141.0340 C   0  0  0  0  0  2  0  0  0  0  0  0
  189.9200  171.0910  138.6500 N   0  0  0  0  0  1  0  0  0  0  0  0
  189.7400  172.1590  139.6210 C   0  0  1  0  0  3  0  0  0  0  0  0
  188.3940  174.1120  139.3360 O   0  0  0  0  0  1  0  0  0  0  0  0
  188.3340  172.7320  139.5310 C   0  0  0  0  0  2  0  0  0  0  0  0
  187.6360  176.7370  146.3090 C   0  0  0  0  0  0  0  0  0  0  0  0
  187.2380  177.7300  145.3560 N   0  0  0  0  0  2  0  0  0  0  0  0
  186.8710  176.4160  147.2570 O   0  0  0  0  0  0  0  0  0  0  0  0
  185.8250  179.1800  146.6840 C   0  0  0  0  0  1  0  0  0  0  0  0
  184.9130  177.5010  145.2790 O   0  0  0  0  0  1  0  0  0  0  0  0
  185.9550  178.4240  145.3780 C   0  0  0  0  0  0  0  0  0  0  0  0
  185.8720  179.4120  144.2290 C   0  0  0  0  0  1  0  0  0  0  0  0
  1 10  1  0  0  0  0
  2 11  1  0  0  0  0
  2  8  1  0  0  0  0
  4 11  1  0  0  0  0
  4  9  1  0  0  0  0
  5  2  1  0  0  0  0
  5  1  1  0  0  0  0
  6  3  1  0  0  0  0
  7  9  2  0  0  0  0
  8 10  1  0  0  0  0
  9  6  1  0  0  0  0
 10 29  1  0  0  0  0
 11  8  1  0  0  0  0
 11  3  1  0  0  0  0
 12 17  1  0  0  0  0
 13 17  2  0  0  0  0
 13  6  1  0  0  0  0
 14 15  1  0  0  0  0
 14 12  2  0  0  0  0
 15 13  1  0  0  0  0
 16 14  1  0  0  0  0
 18 20  2  0  0  0  0
 19  5  1  0  0  0  0
 19 21  1  0  0  0  0
 20 19  1  0  0  0  0
 22 20  1  0  0  0  0
 23 22  2  0  0  0  0
 24 22  1  0  0  0  0
 25 26  1  0  0  0  0
 26 24  1  0  0  0  0
 27 28  1  0  0  0  0
 28 26  1  0  0  0  0
 29 31  2  0  0  0  0
 30 34  1  0  0  0  0
 30 29  1  0  0  0  0
 33 34  1  0  0  0  0
 34 32  1  0  0  0  0
 35 34  1  0  0  0  0
M  END
>  <MODEL>
8

>  <REMARK>
 VINA RESULT:      -6.7      3.074      7.602
  Name = 
  8 active torsions:
  status: ('A' for Active; 'I' for Inactive)
    1  A    between atoms: N_4  and  C_11
    2  A    between atoms: C_10  and  CA_30
    3  A    between atoms: C_12  and  C_19
    4  A    between atoms: C_12  and  C_29
    5  A    between atoms: C_14  and  C_15
    6  A    between atoms: C_20  and  C_22
    7  A    between atoms: N_23  and  C_26
    8  A    between atoms: C_29  and  CA_30
                            x       y       z     vdW  Elec       q    Type
                         _______ _______ _______ _____ _____    ______ ____

>  <TORSDO>
F 8

$$$$
=
 OpenBabel11042416563D

 35 38  0  0  1  0  0  0  0  0999 V2000
  188.4750  175.8410  144.7710 O   0  0  0  0  0  0  0  0  0  0  0  0
  190.3540  177.3400  145.0200 C   0  0  1  0  0  3  0  0  0  0  0  0
  191.2480  174.6240  145.6610 S   0  0  0  0  0  0  0  0  0  0  0  0
  192.2760  177.0010  146.5430 N   0  0  0  0  0  2  0  0  0  0  0  0
  189.3410  176.7050  144.0740 C   0  0  1  0  0  3  0  0  0  0  0  0
  193.0650  174.7640  145.8260 C   0  0  2  0  0  3  0  0  0  0  0  0
  194.4980  176.3840  146.8950 O   0  0  0  0  0  0  0  0  0  0  0  0
  189.7770  177.0640  146.3940 C   0  0  1  0  0  3  0  0  0  0  0  0
  193.3540  176.0870  146.4600 C   0  0  0  0  0  0  0  0  0  0  0  0
  188.5730  176.1710  146.1370 C   0  0  1  0  0  3  0  0  0  0  0  0
  191.0830  176.4170  145.9820 C   0  0  1  0  0  0  0  0  0  0  0  0
  194.4170  173.7080  142.4960 N   0  0  0  0  0  0  0  0  0  0  0  0
  193.6990  174.6650  144.4730 C   0  0  0  0  0  0  0  0  0  0  0  0
  194.9780  174.9340  142.4190 C   0  0  0  0  0  0  0  0  0  0  0  0
  194.6260  175.8750  143.7650 S   0  0  0  0  0  0  0  0  0  0  0  0
  195.8150  175.3800  141.2740 C   0  0  0  0  0  1  0  0  0  0  0  0
  193.7040  173.5460  143.6430 C   0  0  0  0  0  3  0  0  0  0  0  0
  188.0330  174.8620  142.3830 O   0  0  0  0  0  0  0  0  0  0  0  0
  189.9770  176.0460  142.9230 N   0  0  0  0  0  0  0  0  0  0  0  0
  189.2770  174.9910  142.2230 C   0  0  0  0  0  0  0  0  0  0  0  0
  191.3250  176.4370  142.5270 C   0  0  0  0  0  1  0  0  0  0  0  0
  189.9570  174.0410  141.3120 C   0  0  0  0  0  0  0  0  0  0  0  0
  189.7040  174.0860  140.0790 O   0  0  0  0  0  0  0  0  0  0  0  0
  190.8800  172.9690  141.8090 C   0  0  0  0  0  2  0  0  0  0  0  0
  190.5090  170.5550  141.5450 N   0  0  0  0  0  1  0  0  0  0  0  0
  190.1440  171.7300  142.3200 C   0  0  1  0  0  3  0  0  0  0  0  0
  189.3160  171.9430  144.5510 O   0  0  0  0  0  1  0  0  0  0  0  0
  190.4030  171.4940  143.8000 C   0  0  0  0  0  2  0  0  0  0  0  0
  187.3200  176.8340  146.6050 C   0  0  0  0  0  0  0  0  0  0  0  0
  186.7840  177.9480  145.8800 N   0  0  0  0  0  2  0  0  0  0  0  0
  186.7520  176.4140  147.6480 O   0  0  0  0  0  0  0  0  0  0  0  0
  185.2140  179.6400  145.1510 C   0  0  0  0  0  1  0  0  0  0  0  0
  185.7790  179.3710  147.4380 O   0  0  0  0  0  1  0  0  0  0  0  0
  185.5690  178.6640  146.2530 C   0  0  0  0  0  0  0  0  0  0  0  0
  184.4200  177.6910  146.4360 C   0  0  0  0  0  1  0  0  0  0  0  0
  1 10  1  0  0  0  0
  2 11  1  0  0  0  0
  2  8  1  0  0  0  0
  3  6  1  0  0  0  0
  3 11  1  0  0  0  0
  5  1  1  0  0  0  0
  5  2  1  0  0  0  0
  6  9  1  0  0  0  0
  9  4  1  0  0  0  0
  9  7  2  0  0  0  0
 10  8  1  0  0  0  0
 10 29  1  0  0  0  0
 11  8  1  0  0  0  0
 11  4  1  0  0  0  0
 12 17  1  0  0  0  0
 13  6  1  0  0  0  0
 14 12  2  0  0  0  0
 14 15  1  0  0  0  0
 15 13  1  0  0  0  0
 16 14  1  0  0  0  0
 17 13  2  0  0  0  0
 19  5  1  0  0  0  0
 20 18  2  0  0  0  0
 20 19  1  0  0  0  0
 21 19  1  0  0  0  0
 22 24  1  0  0  0  0
 22 20  1  0  0  0  0
 23 22  2  0  0  0  0
 24 26  1  0  0  0  0
 25 26  1  0  0  0  0
 26 28  1  0  0  0  0
 28 27  1  0  0  0  0
 29 31  2  0  0  0  0
 30 34  1  0  0  0  0
 30 29  1  0  0  0  0
 32 34  1  0  0  0  0
 34 35  1  0  0  0  0
 34 33  1  0  0  0  0
M  END
>  <MODEL>
9

>  <REMARK>
 VINA RESULT:      -6.6      3.031      7.562
  Name = 
  8 active torsions:
  status: ('A' for Active; 'I' for Inactive)
    1  A    between atoms: N_4  and  C_11
    2  A    between atoms: C_10  and  CA_30
    3  A    between atoms: C_12  and  C_19
    4  A    between atoms: C_12  and  C_29
    5  A    between atoms: C_14  and  C_15
    6  A    between atoms: C_20  and  C_22
    7  A    between atoms: N_23  and  C_26
    8  A    between atoms: C_29  and  CA_30
                            x       y       z     vdW  Elec       q    Type
                         _______ _______ _______ _____ _____    ______ ____

>  <TORSDO>
F 8

$$$$
