=
 OpenBabel11042417183D

 63 67  0  0  1  0  0  0  0  0999 V2000
  185.2040  177.9110  142.5210 C   0  0  2  0  0  3  0  0  0  0  0  0
  187.0920  177.8880  144.1280 C   0  0  0  0  0  0  0  0  0  0  0  0
  187.2600  177.7000  141.6170 C   0  0  0  0  0  2  0  0  0  0  0  0
  187.3180  177.4800  146.5860 C   0  0  0  0  0  3  0  0  0  0  0  0
  188.0190  177.8960  142.9320 C   0  0  2  0  0  3  0  0  0  0  0  0
  185.7440  177.9090  143.9450 C   0  0  0  0  0  0  0  0  0  0  0  0
  184.7460  177.8850  145.0460 C   0  0  0  0  0  3  0  0  0  0  0  0
  184.9080  177.3220  146.2450 C   0  0  0  0  0  3  0  0  0  0  0  0
  186.1120  178.5030  141.6160 O   0  0  0  0  0  0  0  0  0  0  0  0
  186.1390  176.5750  146.6300 C   0  0  0  0  0  2  0  0  0  0  0  0
  187.7410  178.0400  145.4510 C   0  0  0  0  0  3  0  0  0  0  0  0
  182.9000  178.2770  141.4690 C   0  0  0  0  0  0  0  0  0  0  0  0
  183.0970  177.3770  140.6080 O   0  0  0  0  0  0  0  0  0  0  0  0
  181.6600  178.9830  141.5020 N   0  0  0  0  0  2  0  0  0  0  0  0
  183.9110  178.5950  142.4280 N   0  0  0  0  0  2  0  0  0  0  0  0
  180.5630  178.6570  140.6060 C   0  0  0  0  0  2  0  0  0  0  0  0
  179.7120  179.8810  140.3260 C   0  0  0  0  0  2  0  0  0  0  0  0
  178.5550  179.5370  139.3870 C   0  0  0  0  0  2  0  0  0  0  0  0
  178.4650  178.0400  139.0780 C   0  0  1  0  0  3  0  0  0  0  0  0
  177.6920  177.3200  140.1770 C   0  0  0  0  0  1  0  0  0  0  0  0
  177.6950  178.9530  136.9720 O   0  0  0  0  0  1  0  0  0  0  0  0
  177.8460  177.7650  137.6950 C   0  0  1  0  0  3  0  0  0  0  0  0
  178.6140  176.7460  136.8480 C   0  0  2  0  0  3  0  0  0  0  0  0
  178.7090  177.1570  135.5130 O   0  0  0  0  0  0  0  0  0  0  0  0
  178.0260  176.1810  134.7870 C   0  0  0  0  0  1  0  0  0  0  0  0
  178.0660  175.3200  136.9590 C   0  0  0  0  0  2  0  0  0  0  0  0
  178.7250  174.6060  137.9650 O   0  0  0  0  0  0  0  0  0  0  0  0
  179.7900  171.3410  137.1500 C   0  0  0  0  0  2  0  0  0  0  0  0
  178.8770  173.2810  136.1010 O   0  0  0  0  0  0  0  0  0  0  0  0
  179.3220  171.9670  135.8530 C   0  0  0  0  0  2  0  0  0  0  0  0
  179.7160  172.4580  138.1450 C   0  0  0  0  0  2  0  0  0  0  0  0
  179.5180  173.6790  137.2870 C   0  0  2  0  0  3  0  0  0  0  0  0
  189.1380  176.8630  143.0800 C   0  0  0  0  0  2  0  0  0  0  0  0
  190.4320  177.4930  143.5740 C   0  0  0  0  0  2  0  0  0  0  0  0
  191.7670  175.6870  144.7990 C   0  0  0  0  0  0  0  0  0  0  0  0
  193.5990  175.6460  142.6460 C   0  0  0  0  0  0  0  0  0  0  0  0
  191.5560  176.5060  143.6680 C   0  0  0  0  0  0  0  0  0  0  0  0
  192.4780  176.4900  142.6200 C   0  0  0  0  0  3  0  0  0  0  0  0
  192.8800  174.8320  144.8220 C   0  0  0  0  0  3  0  0  0  0  0  0
  193.7860  174.8150  143.7590 C   0  0  0  0  0  3  0  0  0  0  0  0
  189.2020  174.9570  147.5040 O   0  0  0  0  0  1  0  0  0  0  0  0
  189.9420  174.7480  146.3540 C   0  0  0  0  0  0  0  0  0  0  0  0
  190.8610  175.7570  145.9130 N   0  0  0  0  0  2  0  0  0  0  0  0
  189.8270  173.6560  145.7360 O   0  0  0  0  0  0  0  0  0  0  0  0
  194.4820  174.9740  140.3500 C   0  0  0  0  0  0  0  0  0  0  0  0
  194.5740  175.7210  141.5840 N   0  0  0  0  0  0  0  0  0  0  0  0
  195.1140  175.3720  139.3320 O   0  0  0  0  0  0  0  0  0  0  0  0
  195.7140  176.6190  141.7580 C   0  0  0  0  0  2  0  0  0  0  0  0
  196.8520  175.8850  142.1010 O   0  0  0  0  0  1  0  0  0  0  0  0
  193.6830  173.7160  140.2340 C   0  0  0  0  0  2  0  0  0  0  0  0
  192.3510  173.9830  139.5550 C   0  0  0  0  0  2  0  0  0  0  0  0
  191.2910  173.0870  140.1930 C   0  0  1  0  0  3  0  0  0  0  0  0
  190.4530  172.9850  142.5720 C   0  0  0  0  0  1  0  0  0  0  0  0
  189.0730  174.0460  140.8460 C   0  0  0  0  0  1  0  0  0  0  0  0
  190.5010  173.8090  141.2970 C   0  0  0  0  0  3  0  0  0  0  0  0
  190.7390  172.9010  137.8530 O   0  0  0  0  0  1  0  0  0  0  0  0
  190.3620  172.4770  139.1320 C   0  0  1  0  0  3  0  0  0  0  0  0
  190.3270  170.9460  139.2040 C   0  0  2  0  0  3  0  0  0  0  0  0
  192.1160  168.2000  137.9770 N   0  0  0  0  0  1  0  0  0  0  0  0
  192.6370  170.2640  139.0400 N   0  0  0  0  0  2  0  0  0  0  0  0
  191.5270  170.4160  139.9650 C   0  0  0  0  0  2  0  0  0  0  0  0
  192.1060  169.6460  137.8340 C   0  0  2  0  0  3  0  0  0  0  0  0
  190.4080  170.2260  137.5400 S   0  0  0  0  0  0  0  0  0  0  0  0
  1 15  1  1  0  0  0
  1  6  1  0  0  0  0
  2 11  1  0  0  0  0
  3  5  1  0  0  0  0
  4 10  1  0  0  0  0
  5 33  1  1  0  0  0
  5  2  1  0  0  0  0
  6  2  2  0  0  0  0
  6  7  1  0  0  0  0
  7  8  2  0  0  0  0
  8 10  1  0  0  0  0
  9  3  1  0  0  0  0
  9  1  1  0  0  0  0
 11  4  2  0  0  0  0
 12 14  1  0  0  0  0
 12 15  1  0  0  0  0
 13 12  2  0  0  0  0
 16 14  1  0  0  0  0
 17 16  1  0  0  0  0
 18 17  1  0  0  0  0
 19 18  1  0  0  0  0
 19 20  1  1  0  0  0
 22 21  1  6  0  0  0
 22 19  1  0  0  0  0
 23 26  1  6  0  0  0
 23 22  1  0  0  0  0
 24 23  1  0  0  0  0
 25 24  1  0  0  0  0
 26 27  1  0  0  0  0
 28 31  1  0  0  0  0
 29 32  1  0  0  0  0
 30 29  1  0  0  0  0
 30 28  1  0  0  0  0
 32 27  1  1  0  0  0
 32 31  1  0  0  0  0
 33 34  1  0  0  0  0
 34 37  1  0  0  0  0
 35 39  1  0  0  0  0
 35 43  1  0  0  0  0
 36 40  1  0  0  0  0
 37 35  2  0  0  0  0
 38 36  2  0  0  0  0
 38 37  1  0  0  0  0
 40 39  2  0  0  0  0
 42 41  1  0  0  0  0
 43 42  1  0  0  0  0
 44 42  2  0  0  0  0
 45 46  1  0  0  0  0
 46 48  1  0  0  0  0
 46 36  1  0  0  0  0
 47 45  2  0  0  0  0
 48 49  1  0  0  0  0
 50 45  1  0  0  0  0
 51 50  1  0  0  0  0
 52 51  1  6  0  0  0
 52 55  1  0  0  0  0
 54 55  1  0  0  0  0
 55 53  1  0  0  0  0
 57 56  1  6  0  0  0
 57 52  1  0  0  0  0
 58 57  1  6  0  0  0
 58 61  1  0  0  0  0
 60 61  1  0  0  0  0
 62 59  1  1  0  0  0
 62 60  1  0  0  0  0
 63 62  1  0  0  0  0
 63 58  1  0  0  0  0
M  END
>  <MODEL>
1

>  <REMARK>
 VINA RESULT:      -7.0      0.000      0.000
  Name = 
  23 active torsions:
  status: ('A' for Active; 'I' for Inactive)
    1  A    between atoms: C_1  and  N_60
    2  A    between atoms: C_2  and  C_22
    3  A    between atoms: C_2  and  C_49
    4  A    between atoms: O_3  and  C_10
    5  A    between atoms: C_6  and  C_43
    6  A    between atoms: C_6  and  C_63
    7  A    between atoms: C_9  and  N_56
    8  A    between atoms: C_10  and  C_26
    9  A    between atoms: C_10  and  C_34
   10  A    between atoms: C_11  and  N_50
   11  A    between atoms: C_12  and  C_14
   12  A    between atoms: C_12  and  C_34
   13  A    between atoms: C_14  and  C_53
   14  A    between atoms: C_15  and  N_50
   15  A    between atoms: C_16  and  N_47
   16  A    between atoms: C_16  and  C_53
   17  A    between atoms: C_21  and  C_49
   18  A    between atoms: C_24  and  C_58
   19  A    between atoms: C_26  and  O_30
   20  A    between atoms: C_29  and  C_43
   21  A    between atoms: O_30  and  C_46
   22  A    between atoms: C_31  and  C_63
   23  A    between atoms: C_58  and  C_63
                            x       y       z     vdW  Elec       q    Type
                         _______ _______ _______ _____ _____    ______ ____

>  <TORSDO>
F 23

$$$$
=
 OpenBabel11042417183D

 63 67  0  0  1  0  0  0  0  0999 V2000
  190.0720  174.2560  146.2250 C   0  0  2  0  0  3  0  0  0  0  0  0
  192.0220  174.9070  144.8370 C   0  0  0  0  0  0  0  0  0  0  0  0
  190.4780  172.9510  144.4310 C   0  0  0  0  0  2  0  0  0  0  0  0
  194.0450  176.3340  145.1870 C   0  0  0  0  0  3  0  0  0  0  0  0
  191.6020  173.8240  143.8660 C   0  0  2  0  0  3  0  0  0  0  0  0
  191.2900  175.1320  145.9620 C   0  0  0  0  0  0  0  0  0  0  0  0
  191.6210  176.1560  146.9880 C   0  0  0  0  0  3  0  0  0  0  0  0
  192.8410  176.6020  147.2920 C   0  0  0  0  0  3  0  0  0  0  0  0
  189.5080  173.7670  145.0270 O   0  0  0  0  0  0  0  0  0  0  0  0
  194.0800  176.0740  146.6510 C   0  0  0  0  0  2  0  0  0  0  0  0
  193.1280  175.7840  144.3890 C   0  0  0  0  0  3  0  0  0  0  0  0
  188.2680  176.0540  146.4810 C   0  0  0  0  0  0  0  0  0  0  0  0
  188.4650  176.4850  145.3120 O   0  0  0  0  0  0  0  0  0  0  0  0
  187.2620  176.6410  147.3060 N   0  0  0  0  0  2  0  0  0  0  0  0
  189.0440  174.9660  146.9910 N   0  0  0  0  0  2  0  0  0  0  0  0
  186.3890  177.6960  146.8220 C   0  0  0  0  0  2  0  0  0  0  0  0
  185.5040  177.1930  145.6970 C   0  0  0  0  0  2  0  0  0  0  0  0
  184.5690  178.2970  145.2020 C   0  0  0  0  0  2  0  0  0  0  0  0
  184.9710  178.8430  143.8280 C   0  0  1  0  0  3  0  0  0  0  0  0
  186.3260  179.5360  143.9100 C   0  0  0  0  0  1  0  0  0  0  0  0
  183.7040  177.6110  142.1720 O   0  0  0  0  0  1  0  0  0  0  0  0
  184.9740  177.7490  142.7440 C   0  0  1  0  0  3  0  0  0  0  0  0
  186.0120  177.9570  141.6370 C   0  0  2  0  0  3  0  0  0  0  0  0
  185.4020  178.1740  140.3960 O   0  0  0  0  0  0  0  0  0  0  0  0
  186.1820  177.4650  139.4830 C   0  0  0  0  0  1  0  0  0  0  0  0
  187.0570  176.8400  141.5610 C   0  0  0  0  0  2  0  0  0  0  0  0
  186.7490  175.8030  142.4460 O   0  0  0  0  0  0  0  0  0  0  0  0
  188.5640  173.0930  141.0970 C   0  0  0  0  0  2  0  0  0  0  0  0
  188.7920  175.4380  141.4730 O   0  0  0  0  0  0  0  0  0  0  0  0
  189.4550  174.3090  140.9530 C   0  0  0  0  0  2  0  0  0  0  0  0
  187.3870  173.5880  141.8790 C   0  0  0  0  0  2  0  0  0  0  0  0
  187.8400  174.9360  142.3770 C   0  0  2  0  0  3  0  0  0  0  0  0
  192.7940  172.9690  143.4280 C   0  0  0  0  0  2  0  0  0  0  0  0
  193.5260  172.3620  144.6160 C   0  0  0  0  0  2  0  0  0  0  0  0
  195.8900  171.5830  145.2100 C   0  0  0  0  0  0  0  0  0  0  0  0
  196.9230  173.5150  143.4240 C   0  0  0  0  0  0  0  0  0  0  0  0
  195.0150  172.3980  144.4570 C   0  0  0  0  0  0  0  0  0  0  0  0
  195.5390  173.3600  143.5920 C   0  0  0  0  0  3  0  0  0  0  0  0
  197.2740  171.7260  145.0330 C   0  0  0  0  0  3  0  0  0  0  0  0
  197.7850  172.6830  144.1520 C   0  0  0  0  0  3  0  0  0  0  0  0
  194.6130  168.4810  146.9920 O   0  0  0  0  0  1  0  0  0  0  0  0
  195.0450  169.2610  145.9340 C   0  0  0  0  0  0  0  0  0  0  0  0
  195.3540  170.6430  146.1570 N   0  0  0  0  0  2  0  0  0  0  0  0
  195.2000  168.7330  144.8000 O   0  0  0  0  0  0  0  0  0  0  0  0
  197.4390  174.5300  141.1420 C   0  0  0  0  0  0  0  0  0  0  0  0
  197.4270  174.5780  142.5870 N   0  0  0  0  0  0  0  0  0  0  0  0
  197.5050  175.6060  140.4830 O   0  0  0  0  0  0  0  0  0  0  0  0
  197.9390  175.7830  143.2370 C   0  0  0  0  0  2  0  0  0  0  0  0
  197.0110  176.8190  143.1200 O   0  0  0  0  0  1  0  0  0  0  0  0
  197.4070  173.2430  140.3830 C   0  0  0  0  0  2  0  0  0  0  0  0
  195.9840  172.8760  140.0020 C   0  0  0  0  0  2  0  0  0  0  0  0
  196.0290  171.9490  138.7880 C   0  0  1  0  0  3  0  0  0  0  0  0
  193.6660  171.5890  139.5990 C   0  0  0  0  0  1  0  0  0  0  0  0
  195.0290  169.6600  138.9450 C   0  0  0  0  0  1  0  0  0  0  0  0
  194.7450  171.1180  138.6390 C   0  0  0  0  0  3  0  0  0  0  0  0
  196.1200  171.9300  136.3790 O   0  0  0  0  0  1  0  0  0  0  0  0
  196.3600  172.7250  137.5040 C   0  0  1  0  0  3  0  0  0  0  0  0
  195.5830  174.0430  137.4070 C   0  0  2  0  0  3  0  0  0  0  0  0
  195.2660  176.7720  135.2400 N   0  0  0  0  0  1  0  0  0  0  0  0
  195.2600  174.4010  135.0420 N   0  0  0  0  0  2  0  0  0  0  0  0
  194.5870  173.9970  136.2650 C   0  0  0  0  0  2  0  0  0  0  0  0
  196.0690  175.5670  135.3650 C   0  0  2  0  0  3  0  0  0  0  0  0
  196.7090  175.4240  137.0600 S   0  0  0  0  0  0  0  0  0  0  0  0
  1 15  1  6  0  0  0
  2  6  2  0  0  0  0
  3  9  1  0  0  0  0
  4 10  1  0  0  0  0
  5 33  1  1  0  0  0
  5  3  1  0  0  0  0
  5  2  1  0  0  0  0
  6  1  1  0  0  0  0
  6  7  1  0  0  0  0
  7  8  2  0  0  0  0
  9  1  1  0  0  0  0
 10  8  1  0  0  0  0
 11  2  1  0  0  0  0
 11  4  2  0  0  0  0
 12 15  1  0  0  0  0
 12 14  1  0  0  0  0
 13 12  2  0  0  0  0
 16 14  1  0  0  0  0
 17 16  1  0  0  0  0
 18 17  1  0  0  0  0
 19 20  1  1  0  0  0
 19 18  1  0  0  0  0
 22 21  1  6  0  0  0
 22 19  1  0  0  0  0
 23 26  1  6  0  0  0
 23 22  1  0  0  0  0
 24 23  1  0  0  0  0
 25 24  1  0  0  0  0
 26 27  1  0  0  0  0
 28 31  1  0  0  0  0
 29 32  1  0  0  0  0
 30 28  1  0  0  0  0
 30 29  1  0  0  0  0
 31 32  1  0  0  0  0
 32 27  1  6  0  0  0
 33 34  1  0  0  0  0
 35 43  1  0  0  0  0
 36 38  2  0  0  0  0
 36 40  1  0  0  0  0
 37 34  1  0  0  0  0
 37 35  2  0  0  0  0
 38 37  1  0  0  0  0
 39 35  1  0  0  0  0
 40 39  2  0  0  0  0
 42 43  1  0  0  0  0
 42 41  1  0  0  0  0
 44 42  2  0  0  0  0
 45 46  1  0  0  0  0
 46 48  1  0  0  0  0
 46 36  1  0  0  0  0
 47 45  2  0  0  0  0
 49 48  1  0  0  0  0
 50 45  1  0  0  0  0
 51 50  1  0  0  0  0
 52 51  1  1  0  0  0
 55 52  1  0  0  0  0
 55 54  1  0  0  0  0
 55 53  1  0  0  0  0
 57 56  1  6  0  0  0
 57 52  1  0  0  0  0
 58 57  1  6  0  0  0
 60 62  1  0  0  0  0
 60 61  1  0  0  0  0
 61 58  1  0  0  0  0
 62 59  1  1  0  0  0
 62 63  1  0  0  0  0
 63 58  1  0  0  0  0
M  END
>  <MODEL>
2

>  <REMARK>
 VINA RESULT:      -6.5      4.992      7.211
  Name = 
  23 active torsions:
  status: ('A' for Active; 'I' for Inactive)
    1  A    between atoms: C_1  and  N_60
    2  A    between atoms: C_2  and  C_22
    3  A    between atoms: C_2  and  C_49
    4  A    between atoms: O_3  and  C_10
    5  A    between atoms: C_6  and  C_43
    6  A    between atoms: C_6  and  C_63
    7  A    between atoms: C_9  and  N_56
    8  A    between atoms: C_10  and  C_26
    9  A    between atoms: C_10  and  C_34
   10  A    between atoms: C_11  and  N_50
   11  A    between atoms: C_12  and  C_14
   12  A    between atoms: C_12  and  C_34
   13  A    between atoms: C_14  and  C_53
   14  A    between atoms: C_15  and  N_50
   15  A    between atoms: C_16  and  N_47
   16  A    between atoms: C_16  and  C_53
   17  A    between atoms: C_21  and  C_49
   18  A    between atoms: C_24  and  C_58
   19  A    between atoms: C_26  and  O_30
   20  A    between atoms: C_29  and  C_43
   21  A    between atoms: O_30  and  C_46
   22  A    between atoms: C_31  and  C_63
   23  A    between atoms: C_58  and  C_63
                            x       y       z     vdW  Elec       q    Type
                         _______ _______ _______ _____ _____    ______ ____

>  <TORSDO>
F 23

$$$$
=
 OpenBabel11042417183D

 63 67  0  0  1  0  0  0  0  0999 V2000
  190.1240  174.5490  146.3610 C   0  0  2  0  0  3  0  0  0  0  0  0
  192.0260  175.1580  144.8900 C   0  0  0  0  0  0  0  0  0  0  0  0
  190.3870  173.2750  144.5180 C   0  0  0  0  0  2  0  0  0  0  0  0
  194.1210  176.4960  145.1690 C   0  0  0  0  0  3  0  0  0  0  0  0
  191.5160  174.1170  143.9170 C   0  0  2  0  0  3  0  0  0  0  0  0
  191.3610  175.3830  146.0560 C   0  0  0  0  0  0  0  0  0  0  0  0
  191.7850  176.3660  147.0870 C   0  0  0  0  0  3  0  0  0  0  0  0
  193.0360  176.7560  147.3380 C   0  0  0  0  0  3  0  0  0  0  0  0
  189.4810  174.1130  145.1810 O   0  0  0  0  0  0  0  0  0  0  0  0
  194.2180  176.1980  146.6230 C   0  0  0  0  0  2  0  0  0  0  0  0
  193.1430  176.0020  144.4070 C   0  0  0  0  0  3  0  0  0  0  0  0
  188.5650  176.5240  146.8280 C   0  0  0  0  0  0  0  0  0  0  0  0
  188.8710  177.0840  145.7400 O   0  0  0  0  0  0  0  0  0  0  0  0
  187.6090  177.1220  147.7030 N   0  0  0  0  0  2  0  0  0  0  0  0
  189.1650  175.2790  147.1940 N   0  0  0  0  0  2  0  0  0  0  0  0
  186.9070  178.3460  147.3560 C   0  0  0  0  0  2  0  0  0  0  0  0
  185.4100  178.1810  147.5420 C   0  0  0  0  0  2  0  0  0  0  0  0
  184.6370  179.0530  146.5520 C   0  0  0  0  0  2  0  0  0  0  0  0
  184.2010  178.2860  145.2990 C   0  0  1  0  0  3  0  0  0  0  0  0
  183.1420  179.0760  144.5390 C   0  0  0  0  0  1  0  0  0  0  0  0
  185.6350  176.5580  144.3940 O   0  0  0  0  0  1  0  0  0  0  0  0
  185.3910  177.9350  144.3860 C   0  0  1  0  0  3  0  0  0  0  0  0
  185.2450  178.4190  142.9400 C   0  0  2  0  0  3  0  0  0  0  0  0
  184.4820  177.5290  142.1760 O   0  0  0  0  0  0  0  0  0  0  0  0
  184.0110  178.2870  141.1040 C   0  0  0  0  0  1  0  0  0  0  0  0
  186.5810  178.7390  142.2640 C   0  0  0  0  0  2  0  0  0  0  0  0
  186.6630  178.1370  141.0050 O   0  0  0  0  0  0  0  0  0  0  0  0
  189.5130  176.7530  142.5600 C   0  0  0  0  0  2  0  0  0  0  0  0
  187.6560  176.0830  141.2190 O   0  0  0  0  0  0  0  0  0  0  0  0
  188.8120  175.6030  141.8660 C   0  0  0  0  0  2  0  0  0  0  0  0
  188.7420  177.9640  142.1360 C   0  0  0  0  0  2  0  0  0  0  0  0
  187.8800  177.4540  141.0110 C   0  0  2  0  0  3  0  0  0  0  0  0
  192.6480  173.2280  143.3990 C   0  0  0  0  0  2  0  0  0  0  0  0
  193.3710  172.5100  144.5300 C   0  0  0  0  0  2  0  0  0  0  0  0
  195.6830  171.5200  145.0010 C   0  0  0  0  0  0  0  0  0  0  0  0
  196.8030  173.4180  143.2310 C   0  0  0  0  0  0  0  0  0  0  0  0
  194.8500  172.4280  144.3090 C   0  0  0  0  0  0  0  0  0  0  0  0
  195.4190  173.3720  143.4510 C   0  0  0  0  0  3  0  0  0  0  0  0
  197.0660  171.5550  144.7710 C   0  0  0  0  0  3  0  0  0  0  0  0
  197.6200  172.4940  143.8980 C   0  0  0  0  0  3  0  0  0  0  0  0
  194.3880  168.4400  146.8080 O   0  0  0  0  0  1  0  0  0  0  0  0
  194.8750  169.1950  145.7550 C   0  0  0  0  0  0  0  0  0  0  0  0
  195.1080  170.5970  145.9420 N   0  0  0  0  0  2  0  0  0  0  0  0
  195.1460  168.6280  144.6630 O   0  0  0  0  0  0  0  0  0  0  0  0
  197.3650  174.4330  140.9590 C   0  0  0  0  0  0  0  0  0  0  0  0
  197.3610  174.4620  142.4050 N   0  0  0  0  0  0  0  0  0  0  0  0
  197.4870  175.5120  140.3140 O   0  0  0  0  0  0  0  0  0  0  0  0
  197.9410  175.6290  143.0680 C   0  0  0  0  0  2  0  0  0  0  0  0
  196.9370  176.3710  143.6930 O   0  0  0  0  0  1  0  0  0  0  0  0
  197.2600  173.1590  140.1850 C   0  0  0  0  0  2  0  0  0  0  0  0
  196.1690  173.2550  139.1330 C   0  0  0  0  0  2  0  0  0  0  0  0
  195.1810  172.1090  139.3510 C   0  0  1  0  0  3  0  0  0  0  0  0
  196.2070  169.8060  139.4670 C   0  0  0  0  0  1  0  0  0  0  0  0
  194.6840  170.5440  141.2400 C   0  0  0  0  0  1  0  0  0  0  0  0
  195.7480  171.0130  140.2670 C   0  0  0  0  0  3  0  0  0  0  0  0
  193.9020  173.9960  140.1390 O   0  0  0  0  0  1  0  0  0  0  0  0
  193.8250  172.6280  139.8530 C   0  0  1  0  0  3  0  0  0  0  0  0
  192.6930  172.3490  138.8580 C   0  0  2  0  0  3  0  0  0  0  0  0
  189.2520  171.7140  138.8760 N   0  0  0  0  0  1  0  0  0  0  0  0
  190.7210  173.2940  139.8800 N   0  0  0  0  0  2  0  0  0  0  0  0
  191.7050  173.5000  138.8310 C   0  0  0  0  0  2  0  0  0  0  0  0
  190.3320  171.8930  139.8320 C   0  0  2  0  0  3  0  0  0  0  0  0
  191.7580  170.8730  139.3490 S   0  0  0  0  0  0  0  0  0  0  0  0
  1 15  1  6  0  0  0
  2  6  2  0  0  0  0
  3  9  1  0  0  0  0
  4 10  1  0  0  0  0
  5 33  1  1  0  0  0
  5  3  1  0  0  0  0
  5  2  1  0  0  0  0
  6  1  1  0  0  0  0
  6  7  1  0  0  0  0
  7  8  2  0  0  0  0
  9  1  1  0  0  0  0
 10  8  1  0  0  0  0
 11  2  1  0  0  0  0
 11  4  2  0  0  0  0
 12 15  1  0  0  0  0
 12 14  1  0  0  0  0
 13 12  2  0  0  0  0
 16 17  1  0  0  0  0
 16 14  1  0  0  0  0
 18 17  1  0  0  0  0
 19 20  1  6  0  0  0
 19 18  1  0  0  0  0
 22 21  1  6  0  0  0
 22 19  1  0  0  0  0
 23 26  1  6  0  0  0
 23 22  1  0  0  0  0
 24 23  1  0  0  0  0
 25 24  1  0  0  0  0
 27 26  1  0  0  0  0
 29 30  1  0  0  0  0
 30 28  1  0  0  0  0
 31 28  1  0  0  0  0
 32 27  1  1  0  0  0
 32 29  1  0  0  0  0
 32 31  1  0  0  0  0
 33 34  1  0  0  0  0
 35 43  1  0  0  0  0
 36 38  2  0  0  0  0
 36 40  1  0  0  0  0
 37 34  1  0  0  0  0
 37 35  2  0  0  0  0
 38 37  1  0  0  0  0
 39 35  1  0  0  0  0
 40 39  2  0  0  0  0
 42 43  1  0  0  0  0
 42 41  1  0  0  0  0
 44 42  2  0  0  0  0
 45 46  1  0  0  0  0
 46 48  1  0  0  0  0
 46 36  1  0  0  0  0
 47 45  2  0  0  0  0
 48 49  1  0  0  0  0
 50 45  1  0  0  0  0
 51 50  1  0  0  0  0
 52 51  1  1  0  0  0
 52 57  1  0  0  0  0
 52 55  1  0  0  0  0
 53 55  1  0  0  0  0
 55 54  1  0  0  0  0
 57 56  1  6  0  0  0
 58 63  1  0  0  0  0
 58 57  1  1  0  0  0
 61 58  1  0  0  0  0
 61 60  1  0  0  0  0
 62 59  1  6  0  0  0
 62 60  1  0  0  0  0
 63 62  1  0  0  0  0
M  END
>  <MODEL>
3

>  <REMARK>
 VINA RESULT:      -6.3      4.485      7.117
  Name = 
  23 active torsions:
  status: ('A' for Active; 'I' for Inactive)
    1  A    between atoms: C_1  and  N_60
    2  A    between atoms: C_2  and  C_22
    3  A    between atoms: C_2  and  C_49
    4  A    between atoms: O_3  and  C_10
    5  A    between atoms: C_6  and  C_43
    6  A    between atoms: C_6  and  C_63
    7  A    between atoms: C_9  and  N_56
    8  A    between atoms: C_10  and  C_26
    9  A    between atoms: C_10  and  C_34
   10  A    between atoms: C_11  and  N_50
   11  A    between atoms: C_12  and  C_14
   12  A    between atoms: C_12  and  C_34
   13  A    between atoms: C_14  and  C_53
   14  A    between atoms: C_15  and  N_50
   15  A    between atoms: C_16  and  N_47
   16  A    between atoms: C_16  and  C_53
   17  A    between atoms: C_21  and  C_49
   18  A    between atoms: C_24  and  C_58
   19  A    between atoms: C_26  and  O_30
   20  A    between atoms: C_29  and  C_43
   21  A    between atoms: O_30  and  C_46
   22  A    between atoms: C_31  and  C_63
   23  A    between atoms: C_58  and  C_63
                            x       y       z     vdW  Elec       q    Type
                         _______ _______ _______ _____ _____    ______ ____

>  <TORSDO>
F 23

$$$$
=
 OpenBabel11042417183D

 63 67  0  0  1  0  0  0  0  0999 V2000
  190.0750  174.3670  146.0970 C   0  0  2  0  0  3  0  0  0  0  0  0
  192.0280  175.1340  144.7770 C   0  0  0  0  0  0  0  0  0  0  0  0
  190.5240  173.1830  144.2300 C   0  0  0  0  0  2  0  0  0  0  0  0
  194.0230  176.5700  145.2400 C   0  0  0  0  0  3  0  0  0  0  0  0
  191.6390  174.1070  143.7350 C   0  0  2  0  0  3  0  0  0  0  0  0
  191.2800  175.2770  145.9040 C   0  0  0  0  0  0  0  0  0  0  0  0
  191.5820  176.2400  146.9960 C   0  0  0  0  0  3  0  0  0  0  0  0
  192.7910  176.6860  147.3420 C   0  0  0  0  0  3  0  0  0  0  0  0
  189.5330  173.9440  144.8630 O   0  0  0  0  0  0  0  0  0  0  0  0
  194.0460  176.2200  146.6850 C   0  0  0  0  0  2  0  0  0  0  0  0
  193.1250  176.0560  144.3980 C   0  0  0  0  0  3  0  0  0  0  0  0
  188.2250  176.1020  146.4340 C   0  0  0  0  0  0  0  0  0  0  0  0
  188.4140  176.5970  145.2900 O   0  0  0  0  0  0  0  0  0  0  0  0
  187.2010  176.6210  147.2830 N   0  0  0  0  0  2  0  0  0  0  0  0
  189.0260  175.0100  146.8930 N   0  0  0  0  0  2  0  0  0  0  0  0
  186.3020  177.6770  146.8490 C   0  0  0  0  0  2  0  0  0  0  0  0
  185.4330  177.2080  145.6970 C   0  0  0  0  0  2  0  0  0  0  0  0
  184.4900  178.3210  145.2370 C   0  0  0  0  0  2  0  0  0  0  0  0
  184.8680  178.8900  143.8660 C   0  0  1  0  0  3  0  0  0  0  0  0
  186.2590  179.5110  143.9180 C   0  0  0  0  0  1  0  0  0  0  0  0
  183.4770  177.7700  142.2300 O   0  0  0  0  0  1  0  0  0  0  0  0
  184.7750  177.8340  142.7500 C   0  0  1  0  0  3  0  0  0  0  0  0
  185.7730  178.0330  141.6040 C   0  0  2  0  0  3  0  0  0  0  0  0
  185.1190  178.2380  140.3840 O   0  0  0  0  0  0  0  0  0  0  0  0
  185.9510  177.6560  139.4280 C   0  0  0  0  0  1  0  0  0  0  0  0
  186.8170  176.9170  141.5010 C   0  0  0  0  0  2  0  0  0  0  0  0
  186.5960  175.9310  142.4680 O   0  0  0  0  0  0  0  0  0  0  0  0
  188.3500  173.1650  141.1530 C   0  0  0  0  0  2  0  0  0  0  0  0
  188.5630  175.5330  141.3610 O   0  0  0  0  0  0  0  0  0  0  0  0
  189.2050  174.3820  140.8630 C   0  0  0  0  0  2  0  0  0  0  0  0
  187.2290  173.6940  141.9930 C   0  0  0  0  0  2  0  0  0  0  0  0
  187.6940  175.0770  142.3670 C   0  0  2  0  0  3  0  0  0  0  0  0
  192.8500  173.3020  143.2600 C   0  0  0  0  0  2  0  0  0  0  0  0
  193.5680  172.6190  144.4150 C   0  0  0  0  0  2  0  0  0  0  0  0
  195.9050  171.7370  144.9710 C   0  0  0  0  0  0  0  0  0  0  0  0
  196.9950  173.6410  143.1880 C   0  0  0  0  0  0  0  0  0  0  0  0
  195.0550  172.5940  144.2360 C   0  0  0  0  0  0  0  0  0  0  0  0
  195.6090  173.5430  143.3730 C   0  0  0  0  0  3  0  0  0  0  0  0
  197.2920  171.8250  144.7770 C   0  0  0  0  0  3  0  0  0  0  0  0
  197.8310  172.7670  143.8990 C   0  0  0  0  0  3  0  0  0  0  0  0
  194.5370  168.6700  146.7460 O   0  0  0  0  0  1  0  0  0  0  0  0
  194.9910  169.4400  145.6890 C   0  0  0  0  0  0  0  0  0  0  0  0
  195.3430  170.8110  145.9160 N   0  0  0  0  0  2  0  0  0  0  0  0
  195.1270  168.9110  144.5540 O   0  0  0  0  0  0  0  0  0  0  0  0
  197.7590  174.5550  140.9330 C   0  0  0  0  0  0  0  0  0  0  0  0
  197.5320  174.6900  142.3550 N   0  0  0  0  0  0  0  0  0  0  0  0
  197.8370  175.5900  140.2130 O   0  0  0  0  0  0  0  0  0  0  0  0
  197.8490  175.9730  142.9800 C   0  0  0  0  0  2  0  0  0  0  0  0
  196.9830  176.9610  142.5080 O   0  0  0  0  0  1  0  0  0  0  0  0
  197.9380  173.2250  140.2750 C   0  0  0  0  0  2  0  0  0  0  0  0
  196.6500  172.7760  139.6070 C   0  0  0  0  0  2  0  0  0  0  0  0
  196.0940  173.9420  138.7900 C   0  0  1  0  0  3  0  0  0  0  0  0
  197.1530  172.5320  136.9850 C   0  0  0  0  0  1  0  0  0  0  0  0
  197.4830  174.9600  136.9740 C   0  0  0  0  0  1  0  0  0  0  0  0
  196.4930  173.8610  137.3080 C   0  0  0  0  0  3  0  0  0  0  0  0
  194.1210  175.2790  138.4210 O   0  0  0  0  0  1  0  0  0  0  0  0
  194.5730  174.0720  138.9660 C   0  0  1  0  0  3  0  0  0  0  0  0
  193.8150  172.8880  138.3560 C   0  0  2  0  0  3  0  0  0  0  0  0
  190.5670  172.0610  137.3530 N   0  0  0  0  0  1  0  0  0  0  0  0
  192.0580  173.8880  137.0370 N   0  0  0  0  0  2  0  0  0  0  0  0
  193.3450  173.2170  136.9520 C   0  0  0  0  0  2  0  0  0  0  0  0
  191.2580  173.1570  138.0090 C   0  0  2  0  0  3  0  0  0  0  0  0
  192.3300  172.5090  139.3270 S   0  0  0  0  0  0  0  0  0  0  0  0
  1 15  1  6  0  0  0
  2  6  2  0  0  0  0
  3  9  1  0  0  0  0
  4 10  1  0  0  0  0
  5 33  1  1  0  0  0
  5  3  1  0  0  0  0
  5  2  1  0  0  0  0
  6  1  1  0  0  0  0
  6  7  1  0  0  0  0
  7  8  2  0  0  0  0
  9  1  1  0  0  0  0
 10  8  1  0  0  0  0
 11  2  1  0  0  0  0
 11  4  2  0  0  0  0
 12 15  1  0  0  0  0
 12 14  1  0  0  0  0
 13 12  2  0  0  0  0
 16 14  1  0  0  0  0
 17 16  1  0  0  0  0
 18 17  1  0  0  0  0
 19 20  1  1  0  0  0
 19 18  1  0  0  0  0
 22 21  1  6  0  0  0
 22 19  1  0  0  0  0
 23 26  1  6  0  0  0
 23 22  1  0  0  0  0
 24 23  1  0  0  0  0
 25 24  1  0  0  0  0
 26 27  1  0  0  0  0
 28 31  1  0  0  0  0
 29 32  1  0  0  0  0
 30 28  1  0  0  0  0
 30 29  1  0  0  0  0
 31 32  1  0  0  0  0
 32 27  1  6  0  0  0
 33 34  1  0  0  0  0
 35 43  1  0  0  0  0
 36 38  2  0  0  0  0
 36 40  1  0  0  0  0
 37 34  1  0  0  0  0
 37 35  2  0  0  0  0
 38 37  1  0  0  0  0
 39 35  1  0  0  0  0
 40 39  2  0  0  0  0
 42 43  1  0  0  0  0
 42 41  1  0  0  0  0
 44 42  2  0  0  0  0
 45 46  1  0  0  0  0
 46 48  1  0  0  0  0
 46 36  1  0  0  0  0
 47 45  2  0  0  0  0
 49 48  1  0  0  0  0
 50 45  1  0  0  0  0
 51 50  1  0  0  0  0
 52 57  1  0  0  0  0
 52 51  1  1  0  0  0
 53 55  1  0  0  0  0
 54 55  1  0  0  0  0
 55 52  1  0  0  0  0
 57 56  1  6  0  0  0
 58 57  1  1  0  0  0
 58 63  1  0  0  0  0
 60 62  1  0  0  0  0
 61 60  1  0  0  0  0
 61 58  1  0  0  0  0
 62 59  1  6  0  0  0
 62 63  1  0  0  0  0
M  END
>  <MODEL>
4

>  <REMARK>
 VINA RESULT:      -6.3      4.686      6.945
  Name = 
  23 active torsions:
  status: ('A' for Active; 'I' for Inactive)
    1  A    between atoms: C_1  and  N_60
    2  A    between atoms: C_2  and  C_22
    3  A    between atoms: C_2  and  C_49
    4  A    between atoms: O_3  and  C_10
    5  A    between atoms: C_6  and  C_43
    6  A    between atoms: C_6  and  C_63
    7  A    between atoms: C_9  and  N_56
    8  A    between atoms: C_10  and  C_26
    9  A    between atoms: C_10  and  C_34
   10  A    between atoms: C_11  and  N_50
   11  A    between atoms: C_12  and  C_14
   12  A    between atoms: C_12  and  C_34
   13  A    between atoms: C_14  and  C_53
   14  A    between atoms: C_15  and  N_50
   15  A    between atoms: C_16  and  N_47
   16  A    between atoms: C_16  and  C_53
   17  A    between atoms: C_21  and  C_49
   18  A    between atoms: C_24  and  C_58
   19  A    between atoms: C_26  and  O_30
   20  A    between atoms: C_29  and  C_43
   21  A    between atoms: O_30  and  C_46
   22  A    between atoms: C_31  and  C_63
   23  A    between atoms: C_58  and  C_63
                            x       y       z     vdW  Elec       q    Type
                         _______ _______ _______ _____ _____    ______ ____

>  <TORSDO>
F 23

$$$$
=
 OpenBabel11042417183D

 63 67  0  0  1  0  0  0  0  0999 V2000
  193.3580  174.5850  143.9010 C   0  0  2  0  0  3  0  0  0  0  0  0
  195.4960  175.4870  143.0260 C   0  0  0  0  0  0  0  0  0  0  0  0
  193.3140  175.3180  141.7680 C   0  0  0  0  0  2  0  0  0  0  0  0
  197.8990  175.3090  143.6990 C   0  0  0  0  0  3  0  0  0  0  0  0
  194.7370  175.8840  141.7780 C   0  0  2  0  0  3  0  0  0  0  0  0
  194.8450  174.8780  144.0540 C   0  0  0  0  0  0  0  0  0  0  0  0
  195.4960  174.4320  145.3140 C   0  0  0  0  0  3  0  0  0  0  0  0
  196.7660  174.0470  145.4520 C   0  0  0  0  0  3  0  0  0  0  0  0
  192.7300  175.5000  143.0280 O   0  0  0  0  0  0  0  0  0  0  0  0
  197.7170  173.9640  144.3070 C   0  0  0  0  0  2  0  0  0  0  0  0
  196.8960  175.9640  143.1110 C   0  0  0  0  0  3  0  0  0  0  0  0
  192.4840  175.7570  146.0020 C   0  0  0  0  0  0  0  0  0  0  0  0
  192.9590  176.8670  145.6380 O   0  0  0  0  0  0  0  0  0  0  0  0
  191.7520  175.6520  147.2230 N   0  0  0  0  0  2  0  0  0  0  0  0
  192.6650  174.5930  145.1920 N   0  0  0  0  0  2  0  0  0  0  0  0
  191.4680  176.8100  148.0530 C   0  0  0  0  0  2  0  0  0  0  0  0
  190.1340  177.4300  147.6770 C   0  0  0  0  0  2  0  0  0  0  0  0
  189.3300  176.4890  146.7780 C   0  0  0  0  0  2  0  0  0  0  0  0
  188.5290  177.2340  145.7050 C   0  0  1  0  0  3  0  0  0  0  0  0
  188.8630  176.6870  144.3220 C   0  0  0  0  0  1  0  0  0  0  0  0
  186.7350  176.4710  147.1410 O   0  0  0  0  0  1  0  0  0  0  0  0
  187.0130  177.1820  145.9690 C   0  0  1  0  0  3  0  0  0  0  0  0
  186.3330  178.5540  146.0320 C   0  0  2  0  0  3  0  0  0  0  0  0
  185.2880  178.5660  146.9630 O   0  0  0  0  0  0  0  0  0  0  0  0
  184.1240  178.4950  146.1960 C   0  0  0  0  0  1  0  0  0  0  0  0
  185.8760  179.0740  144.6660 C   0  0  0  0  0  2  0  0  0  0  0  0
  185.8120  178.0380  143.7300 O   0  0  0  0  0  0  0  0  0  0  0  0
  184.9870  178.1340  140.2990 C   0  0  0  0  0  2  0  0  0  0  0  0
  183.9240  178.1670  142.4360 O   0  0  0  0  0  0  0  0  0  0  0  0
  183.6730  178.2020  141.0500 C   0  0  0  0  0  2  0  0  0  0  0  0
  186.0290  178.2050  141.3720 C   0  0  0  0  0  2  0  0  0  0  0  0
  185.2470  178.6160  142.5920 C   0  0  2  0  0  3  0  0  0  0  0  0
  195.4950  175.4890  140.5100 C   0  0  0  0  0  2  0  0  0  0  0  0
  196.4840  174.3610  140.7650 C   0  0  0  0  0  2  0  0  0  0  0  0
  195.9660  172.5570  139.0260 C   0  0  0  0  0  0  0  0  0  0  0  0
  194.7330  171.0220  141.0550 C   0  0  0  0  0  0  0  0  0  0  0  0
  195.9500  173.0210  140.3600 C   0  0  0  0  0  0  0  0  0  0  0  0
  195.3210  172.2610  141.3490 C   0  0  0  0  0  3  0  0  0  0  0  0
  195.3910  171.3120  138.7320 C   0  0  0  0  0  3  0  0  0  0  0  0
  194.7790  170.5550  139.7340 C   0  0  0  0  0  3  0  0  0  0  0  0
  197.7030  173.8550  135.9070 O   0  0  0  0  0  0  0  0  0  0  0  0
  197.2910  172.9300  136.8500 C   0  0  0  0  0  0  0  0  0  0  0  0
  196.5460  173.3720  137.9920 N   0  0  0  0  0  2  0  0  0  0  0  0
  197.5410  171.7080  136.6670 O   0  0  0  0  0  1  0  0  0  0  0  0
  192.6450  169.8740  141.9630 C   0  0  0  0  0  0  0  0  0  0  0  0
  194.0180  170.3080  142.0860 N   0  0  0  0  0  0  0  0  0  0  0  0
  192.2190  168.9360  142.6940 O   0  0  0  0  0  0  0  0  0  0  0  0
  194.7300  169.9880  143.3220 C   0  0  0  0  0  2  0  0  0  0  0  0
  195.8580  169.2160  143.0370 O   0  0  0  0  0  1  0  0  0  0  0  0
  191.6840  170.5170  141.0150 C   0  0  0  0  0  2  0  0  0  0  0  0
  191.2130  171.8570  141.5510 C   0  0  0  0  0  2  0  0  0  0  0  0
  189.8090  172.1310  141.0100 C   0  0  1  0  0  3  0  0  0  0  0  0
  188.3120  173.8180  142.1410 C   0  0  0  0  0  1  0  0  0  0  0  0
  189.4170  172.0890  143.4810 C   0  0  0  0  0  1  0  0  0  0  0  0
  188.7880  172.3760  142.1320 C   0  0  0  0  0  3  0  0  0  0  0  0
  191.1320  173.6680  139.7050 O   0  0  0  0  0  1  0  0  0  0  0  0
  189.8190  173.2760  139.9850 C   0  0  1  0  0  3  0  0  0  0  0  0
  189.0800  172.9040  138.6940 C   0  0  2  0  0  3  0  0  0  0  0  0
  189.8140  171.8710  135.4320 N   0  0  0  0  0  1  0  0  0  0  0  0
  190.4840  171.2530  137.6300 N   0  0  0  0  0  2  0  0  0  0  0  0
  189.2530  171.4290  138.3820 C   0  0  0  0  0  2  0  0  0  0  0  0
  190.5240  172.3030  136.6240 C   0  0  2  0  0  3  0  0  0  0  0  0
  189.7620  173.8170  137.2820 S   0  0  0  0  0  0  0  0  0  0  0  0
  1  6  1  0  0  0  0
  1 15  1  1  0  0  0
  2 11  1  0  0  0  0
  2  6  2  0  0  0  0
  3  5  1  0  0  0  0
  3  9  1  0  0  0  0
  4 10  1  0  0  0  0
  5 33  1  6  0  0  0
  5  2  1  0  0  0  0
  6  7  1  0  0  0  0
  7  8  2  0  0  0  0
  9  1  1  0  0  0  0
 10  8  1  0  0  0  0
 11  4  2  0  0  0  0
 12 14  1  0  0  0  0
 13 12  2  0  0  0  0
 14 16  1  0  0  0  0
 15 12  1  0  0  0  0
 17 16  1  0  0  0  0
 18 17  1  0  0  0  0
 19 20  1  6  0  0  0
 19 22  1  0  0  0  0
 19 18  1  0  0  0  0
 22 23  1  0  0  0  0
 22 21  1  1  0  0  0
 23 26  1  6  0  0  0
 23 24  1  0  0  0  0
 25 24  1  0  0  0  0
 27 26  1  0  0  0  0
 28 30  1  0  0  0  0
 28 31  1  0  0  0  0
 29 32  1  0  0  0  0
 30 29  1  0  0  0  0
 31 32  1  0  0  0  0
 32 27  1  1  0  0  0
 33 34  1  0  0  0  0
 35 37  1  0  0  0  0
 36 38  1  0  0  0  0
 36 46  1  0  0  0  0
 37 34  1  0  0  0  0
 37 38  2  0  0  0  0
 39 35  2  0  0  0  0
 39 40  1  0  0  0  0
 40 36  2  0  0  0  0
 41 42  2  0  0  0  0
 42 43  1  0  0  0  0
 43 35  1  0  0  0  0
 44 42  1  0  0  0  0
 45 46  1  0  0  0  0
 45 47  2  0  0  0  0
 46 48  1  0  0  0  0
 49 48  1  0  0  0  0
 50 51  1  0  0  0  0
 50 45  1  0  0  0  0
 52 51  1  1  0  0  0
 52 55  1  0  0  0  0
 55 53  1  0  0  0  0
 55 54  1  0  0  0  0
 57 56  1  6  0  0  0
 57 52  1  0  0  0  0
 58 57  1  1  0  0  0
 60 61  1  0  0  0  0
 61 58  1  0  0  0  0
 62 59  1  6  0  0  0
 62 63  1  0  0  0  0
 62 60  1  0  0  0  0
 63 58  1  0  0  0  0
M  END
>  <MODEL>
5

>  <REMARK>
 VINA RESULT:      -5.9      4.663      9.029
  Name = 
  23 active torsions:
  status: ('A' for Active; 'I' for Inactive)
    1  A    between atoms: C_1  and  N_60
    2  A    between atoms: C_2  and  C_22
    3  A    between atoms: C_2  and  C_49
    4  A    between atoms: O_3  and  C_10
    5  A    between atoms: C_6  and  C_43
    6  A    between atoms: C_6  and  C_63
    7  A    between atoms: C_9  and  N_56
    8  A    between atoms: C_10  and  C_26
    9  A    between atoms: C_10  and  C_34
   10  A    between atoms: C_11  and  N_50
   11  A    between atoms: C_12  and  C_14
   12  A    between atoms: C_12  and  C_34
   13  A    between atoms: C_14  and  C_53
   14  A    between atoms: C_15  and  N_50
   15  A    between atoms: C_16  and  N_47
   16  A    between atoms: C_16  and  C_53
   17  A    between atoms: C_21  and  C_49
   18  A    between atoms: C_24  and  C_58
   19  A    between atoms: C_26  and  O_30
   20  A    between atoms: C_29  and  C_43
   21  A    between atoms: O_30  and  C_46
   22  A    between atoms: C_31  and  C_63
   23  A    between atoms: C_58  and  C_63
                            x       y       z     vdW  Elec       q    Type
                         _______ _______ _______ _____ _____    ______ ____

>  <TORSDO>
F 23

$$$$
=
 OpenBabel11042417183D

 63 67  0  0  1  0  0  0  0  0999 V2000
  188.7220  175.4200  141.5280 C   0  0  2  0  0  3  0  0  0  0  0  0
  189.2100  173.0140  141.1740 C   0  0  0  0  0  0  0  0  0  0  0  0
  189.3750  174.2710  143.3560 C   0  0  0  0  0  2  0  0  0  0  0  0
  189.7130  171.5850  139.1830 C   0  0  0  0  0  3  0  0  0  0  0  0
  189.3860  172.9010  142.6730 C   0  0  2  0  0  3  0  0  0  0  0  0
  188.8790  174.2100  140.6160 C   0  0  0  0  0  0  0  0  0  0  0  0
  188.7000  174.4360  139.1570 C   0  0  0  0  0  3  0  0  0  0  0  0
  189.3110  173.7700  138.1760 C   0  0  0  0  0  3  0  0  0  0  0  0
  188.3320  175.0470  142.8320 O   0  0  0  0  0  0  0  0  0  0  0  0
  190.3270  172.7080  138.4260 C   0  0  0  0  0  2  0  0  0  0  0  0
  189.2380  171.7390  140.4210 C   0  0  0  0  0  3  0  0  0  0  0  0
  186.5690  176.7960  141.6680 C   0  0  0  0  0  0  0  0  0  0  0  0
  186.2690  176.3000  142.7880 O   0  0  0  0  0  0  0  0  0  0  0  0
  185.7280  177.7800  141.0670 N   0  0  0  0  0  2  0  0  0  0  0  0
  187.7610  176.3870  140.9920 N   0  0  0  0  0  2  0  0  0  0  0  0
  184.5450  178.2950  141.7360 C   0  0  0  0  0  2  0  0  0  0  0  0
  184.6560  178.1230  143.2390 C   0  0  0  0  0  2  0  0  0  0  0  0
  185.2800  179.3610  143.8860 C   0  0  0  0  0  2  0  0  0  0  0  0
  184.9240  179.4990  145.3690 C   0  0  1  0  0  3  0  0  0  0  0  0
  183.6930  178.6620  145.6970 C   0  0  0  0  0  1  0  0  0  0  0  0
  185.7460  179.2630  147.6350 O   0  0  0  0  0  1  0  0  0  0  0  0
  186.1040  179.1310  146.2880 C   0  0  1  0  0  3  0  0  0  0  0  0
  186.6820  177.7330  146.0500 C   0  0  2  0  0  3  0  0  0  0  0  0
  186.3140  176.8450  147.0680 O   0  0  0  0  0  0  0  0  0  0  0  0
  187.4230  176.0160  147.2380 C   0  0  0  0  0  1  0  0  0  0  0  0
  188.1960  177.7280  145.8180 C   0  0  0  0  0  2  0  0  0  0  0  0
  188.4950  177.7240  144.4530 O   0  0  0  0  0  0  0  0  0  0  0  0
  191.9280  176.9060  144.5060 C   0  0  0  0  0  2  0  0  0  0  0  0
  190.3060  177.8900  143.0580 O   0  0  0  0  0  0  0  0  0  0  0  0
  191.6670  177.5360  143.1530 C   0  0  0  0  0  2  0  0  0  0  0  0
  190.6330  177.0600  145.2410 C   0  0  0  0  0  2  0  0  0  0  0  0
  189.8560  178.0240  144.3830 C   0  0  2  0  0  3  0  0  0  0  0  0
  190.6490  172.1170  143.0330 C   0  0  0  0  0  2  0  0  0  0  0  0
  191.8510  173.0310  143.2230 C   0  0  0  0  0  2  0  0  0  0  0  0
  194.1870  172.6120  144.1810 C   0  0  0  0  0  0  0  0  0  0  0  0
  194.5440  170.5510  142.2790 C   0  0  0  0  0  0  0  0  0  0  0  0
  193.1440  172.2780  143.2880 C   0  0  0  0  0  0  0  0  0  0  0  0
  193.3410  171.2700  142.3410 C   0  0  0  0  0  3  0  0  0  0  0  0
  195.3860  171.8850  144.1300 C   0  0  0  0  0  3  0  0  0  0  0  0
  195.5630  170.8690  143.1880 C   0  0  0  0  0  3  0  0  0  0  0  0
  194.6610  175.6360  146.4310 O   0  0  0  0  0  1  0  0  0  0  0  0
  195.0250  174.5850  145.6070 C   0  0  0  0  0  0  0  0  0  0  0  0
  194.0150  173.6990  145.1060 N   0  0  0  0  0  2  0  0  0  0  0  0
  196.2340  174.4500  145.2760 O   0  0  0  0  0  0  0  0  0  0  0  0
  195.6740  169.7430  140.1400 C   0  0  0  0  0  0  0  0  0  0  0  0
  194.7410  169.5770  141.2320 N   0  0  0  0  0  0  0  0  0  0  0  0
  196.0860  168.7270  139.5120 O   0  0  0  0  0  0  0  0  0  0  0  0
  193.9640  168.3400  141.2870 C   0  0  0  0  0  2  0  0  0  0  0  0
  192.6620  168.6130  141.7110 O   0  0  0  0  0  1  0  0  0  0  0  0
  196.1560  171.0870  139.6970 C   0  0  0  0  0  2  0  0  0  0  0  0
  195.0330  171.8750  139.0450 C   0  0  0  0  0  2  0  0  0  0  0  0
  195.4780  173.3300  138.9040 C   0  0  1  0  0  3  0  0  0  0  0  0
  194.0700  173.7870  136.8600 C   0  0  0  0  0  1  0  0  0  0  0  0
  196.3350  172.8890  136.5940 C   0  0  0  0  0  1  0  0  0  0  0  0
  195.4730  173.8040  137.4420 C   0  0  0  0  0  3  0  0  0  0  0  0
  193.3510  173.7650  139.9530 O   0  0  0  0  0  1  0  0  0  0  0  0
  194.6530  174.2570  139.8090 C   0  0  1  0  0  3  0  0  0  0  0  0
  195.3060  174.4610  141.1810 C   0  0  2  0  0  3  0  0  0  0  0  0
  196.9960  176.9550  142.9610 N   0  0  0  0  0  1  0  0  0  0  0  0
  195.0010  176.8040  141.6720 N   0  0  0  0  0  2  0  0  0  0  0  0
  194.5280  175.4700  142.0020 C   0  0  0  0  0  2  0  0  0  0  0  0
  196.4550  176.7440  141.6290 C   0  0  2  0  0  3  0  0  0  0  0  0
  196.9860  175.1230  140.9970 S   0  0  0  0  0  0  0  0  0  0  0  0
  1 15  1  6  0  0  0
  1  9  1  0  0  0  0
  2  5  1  0  0  0  0
  4 11  2  0  0  0  0
  5 33  1  6  0  0  0
  5  3  1  0  0  0  0
  6  2  2  0  0  0  0
  6  1  1  0  0  0  0
  7  6  1  0  0  0  0
  8 10  1  0  0  0  0
  8  7  2  0  0  0  0
  9  3  1  0  0  0  0
 10  4  1  0  0  0  0
 11  2  1  0  0  0  0
 12 13  2  0  0  0  0
 14 12  1  0  0  0  0
 14 16  1  0  0  0  0
 15 12  1  0  0  0  0
 16 17  1  0  0  0  0
 17 18  1  0  0  0  0
 18 19  1  0  0  0  0
 19 20  1  1  0  0  0
 19 22  1  0  0  0  0
 22 21  1  1  0  0  0
 23 26  1  1  0  0  0
 23 22  1  0  0  0  0
 23 24  1  0  0  0  0
 24 25  1  0  0  0  0
 27 26  1  0  0  0  0
 28 31  1  0  0  0  0
 29 30  1  0  0  0  0
 29 32  1  0  0  0  0
 30 28  1  0  0  0  0
 32 27  1  6  0  0  0
 32 31  1  0  0  0  0
 33 34  1  0  0  0  0
 34 37  1  0  0  0  0
 35 43  1  0  0  0  0
 36 38  2  0  0  0  0
 36 40  1  0  0  0  0
 37 35  2  0  0  0  0
 38 37  1  0  0  0  0
 39 35  1  0  0  0  0
 40 39  2  0  0  0  0
 42 41  1  0  0  0  0
 43 42  1  0  0  0  0
 44 42  2  0  0  0  0
 45 46  1  0  0  0  0
 46 48  1  0  0  0  0
 46 36  1  0  0  0  0
 47 45  2  0  0  0  0
 48 49  1  0  0  0  0
 50 45  1  0  0  0  0
 51 50  1  0  0  0  0
 52 51  1  6  0  0  0
 52 57  1  0  0  0  0
 53 55  1  0  0  0  0
 54 55  1  0  0  0  0
 55 52  1  0  0  0  0
 57 56  1  1  0  0  0
 58 57  1  6  0  0  0
 58 61  1  0  0  0  0
 60 61  1  0  0  0  0
 62 60  1  0  0  0  0
 62 59  1  1  0  0  0
 63 58  1  0  0  0  0
 63 62  1  0  0  0  0
M  END
>  <MODEL>
6

>  <REMARK>
 VINA RESULT:      -5.6      4.933      8.356
  Name = 
  23 active torsions:
  status: ('A' for Active; 'I' for Inactive)
    1  A    between atoms: C_1  and  N_60
    2  A    between atoms: C_2  and  C_22
    3  A    between atoms: C_2  and  C_49
    4  A    between atoms: O_3  and  C_10
    5  A    between atoms: C_6  and  C_43
    6  A    between atoms: C_6  and  C_63
    7  A    between atoms: C_9  and  N_56
    8  A    between atoms: C_10  and  C_26
    9  A    between atoms: C_10  and  C_34
   10  A    between atoms: C_11  and  N_50
   11  A    between atoms: C_12  and  C_14
   12  A    between atoms: C_12  and  C_34
   13  A    between atoms: C_14  and  C_53
   14  A    between atoms: C_15  and  N_50
   15  A    between atoms: C_16  and  N_47
   16  A    between atoms: C_16  and  C_53
   17  A    between atoms: C_21  and  C_49
   18  A    between atoms: C_24  and  C_58
   19  A    between atoms: C_26  and  O_30
   20  A    between atoms: C_29  and  C_43
   21  A    between atoms: O_30  and  C_46
   22  A    between atoms: C_31  and  C_63
   23  A    between atoms: C_58  and  C_63
                            x       y       z     vdW  Elec       q    Type
                         _______ _______ _______ _____ _____    ______ ____

>  <TORSDO>
F 23

$$$$
=
 OpenBabel11042417183D

 63 67  0  0  1  0  0  0  0  0999 V2000
  193.5310  174.2680  143.4710 C   0  0  2  0  0  3  0  0  0  0  0  0
  195.3760  175.6260  142.5210 C   0  0  0  0  0  0  0  0  0  0  0  0
  193.2480  174.9530  141.3410 C   0  0  0  0  0  2  0  0  0  0  0  0
  197.7770  176.0060  143.1080 C   0  0  0  0  0  3  0  0  0  0  0  0
  194.5040  175.8290  141.3000 C   0  0  2  0  0  3  0  0  0  0  0  0
  194.9160  174.8930  143.5710 C   0  0  0  0  0  0  0  0  0  0  0  0
  195.6950  174.6180  144.8080 C   0  0  0  0  0  3  0  0  0  0  0  0
  197.0230  174.5340  144.9000 C   0  0  0  0  0  3  0  0  0  0  0  0
  192.6810  175.0080  142.6210 O   0  0  0  0  0  0  0  0  0  0  0  0
  197.9280  174.6600  143.7230 C   0  0  0  0  0  2  0  0  0  0  0  0
  196.6320  176.4100  142.5550 C   0  0  0  0  0  3  0  0  0  0  0  0
  192.5810  175.2250  145.6470 C   0  0  0  0  0  0  0  0  0  0  0  0
  192.8680  176.4060  145.3090 O   0  0  0  0  0  0  0  0  0  0  0  0
  191.9240  174.9710  146.8880 N   0  0  0  0  0  2  0  0  0  0  0  0
  192.8990  174.1290  144.7860 N   0  0  0  0  0  2  0  0  0  0  0  0
  191.5040  176.0450  147.7720 C   0  0  0  0  0  2  0  0  0  0  0  0
  190.0260  176.3410  147.5990 C   0  0  0  0  0  2  0  0  0  0  0  0
  189.4090  175.4310  146.5350 C   0  0  0  0  0  2  0  0  0  0  0  0
  188.8050  176.2120  145.3640 C   0  0  1  0  0  3  0  0  0  0  0  0
  189.2260  177.6760  145.4330 C   0  0  0  0  0  1  0  0  0  0  0  0
  189.2490  174.2020  144.0900 O   0  0  0  0  0  1  0  0  0  0  0  0
  189.1690  175.5960  144.0010 C   0  0  1  0  0  3  0  0  0  0  0  0
  188.2240  175.9800  142.8580 C   0  0  2  0  0  3  0  0  0  0  0  0
  188.9320  176.4140  141.7310 O   0  0  0  0  0  0  0  0  0  0  0  0
  188.7820  177.8010  141.7250 C   0  0  0  0  0  1  0  0  0  0  0  0
  187.1460  176.9880  143.2680 C   0  0  0  0  0  2  0  0  0  0  0  0
  185.9340  176.3460  143.5370 O   0  0  0  0  0  0  0  0  0  0  0  0
  185.3830  178.1710  146.5070 C   0  0  0  0  0  2  0  0  0  0  0  0
  185.7280  178.5380  144.1750 O   0  0  0  0  0  0  0  0  0  0  0  0
  185.5040  179.1970  145.4000 C   0  0  0  0  0  2  0  0  0  0  0  0
  185.4090  176.8540  145.7950 C   0  0  0  0  0  2  0  0  0  0  0  0
  185.2290  177.2350  144.3490 C   0  0  2  0  0  3  0  0  0  0  0  0
  195.2880  175.6060  140.0060 C   0  0  0  0  0  2  0  0  0  0  0  0
  196.6960  175.0940  140.2740 C   0  0  0  0  0  2  0  0  0  0  0  0
  197.1460  173.1790  138.6390 C   0  0  0  0  0  0  0  0  0  0  0  0
  196.6620  171.3420  140.7320 C   0  0  0  0  0  0  0  0  0  0  0  0
  196.8560  173.6430  139.9410 C   0  0  0  0  0  0  0  0  0  0  0  0
  196.6010  172.7240  140.9620 C   0  0  0  0  0  3  0  0  0  0  0  0
  197.2210  171.7960  138.4100 C   0  0  0  0  0  3  0  0  0  0  0  0
  196.9790  170.8890  139.4440 C   0  0  0  0  0  3  0  0  0  0  0  0
  196.6890  175.5940  135.7420 O   0  0  0  0  0  0  0  0  0  0  0  0
  196.3420  174.6200  136.6630 C   0  0  0  0  0  0  0  0  0  0  0  0
  197.3340  174.1210  137.5690 N   0  0  0  0  0  2  0  0  0  0  0  0
  195.1480  174.2200  136.7180 O   0  0  0  0  0  1  0  0  0  0  0  0
  194.9520  170.0210  142.0870 C   0  0  0  0  0  0  0  0  0  0  0  0
  196.3080  170.4260  141.7900 N   0  0  0  0  0  0  0  0  0  0  0  0
  194.7460  168.9490  142.7230 O   0  0  0  0  0  0  0  0  0  0  0  0
  197.3840  169.8590  142.6000 C   0  0  0  0  0  2  0  0  0  0  0  0
  197.9410  168.7560  141.9500 O   0  0  0  0  0  1  0  0  0  0  0  0
  193.7670  170.8420  141.6920 C   0  0  0  0  0  2  0  0  0  0  0  0
  192.7680  170.0070  140.9110 C   0  0  0  0  0  2  0  0  0  0  0  0
  192.3350  170.7960  139.6750 C   0  0  1  0  0  3  0  0  0  0  0  0
  191.4310  169.4170  137.7650 C   0  0  0  0  0  1  0  0  0  0  0  0
  193.6790  168.9630  138.6280 C   0  0  0  0  0  1  0  0  0  0  0  0
  192.6680  170.0620  138.3670 C   0  0  0  0  0  3  0  0  0  0  0  0
  190.3210  170.8400  140.9990 O   0  0  0  0  0  1  0  0  0  0  0  0
  190.8510  171.1850  139.7510 C   0  0  1  0  0  3  0  0  0  0  0  0
  190.6260  172.6740  139.4630 C   0  0  2  0  0  3  0  0  0  0  0  0
  188.0040  174.8440  138.6550 N   0  0  0  0  0  1  0  0  0  0  0  0
  188.3930  173.1300  140.2590 N   0  0  0  0  0  2  0  0  0  0  0  0
  189.8030  173.3150  140.5630 C   0  0  0  0  0  2  0  0  0  0  0  0
  188.2200  173.4200  138.8430 C   0  0  2  0  0  3  0  0  0  0  0  0
  189.6970  172.8940  137.9210 S   0  0  0  0  0  0  0  0  0  0  0  0
  1  6  1  0  0  0  0
  1 15  1  1  0  0  0
  2 11  1  0  0  0  0
  2  6  2  0  0  0  0
  3  9  1  0  0  0  0
  4 10  1  0  0  0  0
  5 33  1  6  0  0  0
  5  3  1  0  0  0  0
  5  2  1  0  0  0  0
  6  7  1  0  0  0  0
  7  8  2  0  0  0  0
  9  1  1  0  0  0  0
 10  8  1  0  0  0  0
 11  4  2  0  0  0  0
 12 14  1  0  0  0  0
 13 12  2  0  0  0  0
 14 16  1  0  0  0  0
 15 12  1  0  0  0  0
 17 16  1  0  0  0  0
 18 17  1  0  0  0  0
 19 20  1  6  0  0  0
 19 18  1  0  0  0  0
 22 21  1  1  0  0  0
 22 19  1  0  0  0  0
 23 26  1  1  0  0  0
 23 22  1  0  0  0  0
 24 23  1  0  0  0  0
 25 24  1  0  0  0  0
 26 27  1  0  0  0  0
 29 32  1  0  0  0  0
 29 30  1  0  0  0  0
 30 28  1  0  0  0  0
 31 28  1  0  0  0  0
 32 27  1  6  0  0  0
 32 31  1  0  0  0  0
 33 34  1  0  0  0  0
 35 37  1  0  0  0  0
 36 38  1  0  0  0  0
 36 46  1  0  0  0  0
 37 34  1  0  0  0  0
 37 38  2  0  0  0  0
 39 35  2  0  0  0  0
 39 40  1  0  0  0  0
 40 36  2  0  0  0  0
 41 42  2  0  0  0  0
 42 44  1  0  0  0  0
 42 43  1  0  0  0  0
 43 35  1  0  0  0  0
 45 47  2  0  0  0  0
 46 45  1  0  0  0  0
 46 48  1  0  0  0  0
 49 48  1  0  0  0  0
 50 45  1  0  0  0  0
 51 50  1  0  0  0  0
 52 57  1  0  0  0  0
 52 51  1  1  0  0  0
 53 55  1  0  0  0  0
 55 54  1  0  0  0  0
 55 52  1  0  0  0  0
 57 56  1  1  0  0  0
 58 57  1  1  0  0  0
 58 61  1  0  0  0  0
 60 61  1  0  0  0  0
 62 59  1  1  0  0  0
 62 60  1  0  0  0  0
 63 62  1  0  0  0  0
 63 58  1  0  0  0  0
M  END
>  <MODEL>
7

>  <REMARK>
 VINA RESULT:      -5.6      5.435      9.429
  Name = 
  23 active torsions:
  status: ('A' for Active; 'I' for Inactive)
    1  A    between atoms: C_1  and  N_60
    2  A    between atoms: C_2  and  C_22
    3  A    between atoms: C_2  and  C_49
    4  A    between atoms: O_3  and  C_10
    5  A    between atoms: C_6  and  C_43
    6  A    between atoms: C_6  and  C_63
    7  A    between atoms: C_9  and  N_56
    8  A    between atoms: C_10  and  C_26
    9  A    between atoms: C_10  and  C_34
   10  A    between atoms: C_11  and  N_50
   11  A    between atoms: C_12  and  C_14
   12  A    between atoms: C_12  and  C_34
   13  A    between atoms: C_14  and  C_53
   14  A    between atoms: C_15  and  N_50
   15  A    between atoms: C_16  and  N_47
   16  A    between atoms: C_16  and  C_53
   17  A    between atoms: C_21  and  C_49
   18  A    between atoms: C_24  and  C_58
   19  A    between atoms: C_26  and  O_30
   20  A    between atoms: C_29  and  C_43
   21  A    between atoms: O_30  and  C_46
   22  A    between atoms: C_31  and  C_63
   23  A    between atoms: C_58  and  C_63
                            x       y       z     vdW  Elec       q    Type
                         _______ _______ _______ _____ _____    ______ ____

>  <TORSDO>
F 23

$$$$
=
 OpenBabel11042417183D

 63 67  0  0  1  0  0  0  0  0999 V2000
  190.2330  174.1710  146.2510 C   0  0  2  0  0  3  0  0  0  0  0  0
  192.0700  174.9250  144.7650 C   0  0  0  0  0  0  0  0  0  0  0  0
  190.6810  172.8350  144.4890 C   0  0  0  0  0  2  0  0  0  0  0  0
  193.9790  176.5260  144.9840 C   0  0  0  0  0  3  0  0  0  0  0  0
  191.7070  173.7740  143.8500 C   0  0  2  0  0  3  0  0  0  0  0  0
  191.3630  175.1330  145.9090 C   0  0  0  0  0  0  0  0  0  0  0  0
  191.6450  176.2190  146.8840 C   0  0  0  0  0  3  0  0  0  0  0  0
  192.8340  176.7750  147.1230 C   0  0  0  0  0  3  0  0  0  0  0  0
  189.6680  173.5910  145.0940 O   0  0  0  0  0  0  0  0  0  0  0  0
  194.0880  176.3270  146.4540 C   0  0  0  0  0  2  0  0  0  0  0  0
  193.0820  175.8710  144.2430 C   0  0  0  0  0  3  0  0  0  0  0  0
  188.3670  175.8980  146.5470 C   0  0  0  0  0  0  0  0  0  0  0  0
  188.5530  176.3670  145.3920 O   0  0  0  0  0  0  0  0  0  0  0  0
  187.3380  176.4260  147.3830 N   0  0  0  0  0  2  0  0  0  0  0  0
  189.1780  174.8230  147.0310 N   0  0  0  0  0  2  0  0  0  0  0  0
  186.4300  177.4640  146.9240 C   0  0  0  0  0  2  0  0  0  0  0  0
  185.5890  176.9710  145.7620 C   0  0  0  0  0  2  0  0  0  0  0  0
  184.4060  177.9070  145.5090 C   0  0  0  0  0  2  0  0  0  0  0  0
  184.5870  178.7680  144.2550 C   0  0  1  0  0  3  0  0  0  0  0  0
  185.7470  179.7390  144.4440 C   0  0  0  0  0  1  0  0  0  0  0  0
  183.6190  177.9160  142.2050 O   0  0  0  0  0  1  0  0  0  0  0  0
  184.7800  177.9160  142.9860 C   0  0  1  0  0  3  0  0  0  0  0  0
  185.9750  178.3290  142.1210 C   0  0  2  0  0  3  0  0  0  0  0  0
  185.5760  178.6690  140.8230 O   0  0  0  0  0  0  0  0  0  0  0  0
  185.9330  177.5710  140.0390 C   0  0  0  0  0  1  0  0  0  0  0  0
  187.1070  177.2970  142.1090 C   0  0  0  0  0  2  0  0  0  0  0  0
  186.7120  176.1110  142.7360 O   0  0  0  0  0  0  0  0  0  0  0  0
  188.6400  173.6760  141.0580 C   0  0  0  0  0  2  0  0  0  0  0  0
  188.8360  175.9010  141.8990 O   0  0  0  0  0  0  0  0  0  0  0  0
  189.5430  174.8790  141.2340 C   0  0  0  0  0  2  0  0  0  0  0  0
  187.3970  174.0350  141.8120 C   0  0  0  0  0  2  0  0  0  0  0  0
  187.8040  175.2520  142.5990 C   0  0  2  0  0  3  0  0  0  0  0  0
  192.9490  173.0040  143.3960 C   0  0  0  0  0  2  0  0  0  0  0  0
  193.6970  172.3870  144.5700 C   0  0  0  0  0  2  0  0  0  0  0  0
  196.0870  171.7360  145.2080 C   0  0  0  0  0  0  0  0  0  0  0  0
  197.0500  173.6630  143.3780 C   0  0  0  0  0  0  0  0  0  0  0  0
  195.1840  172.4880  144.4240 C   0  0  0  0  0  0  0  0  0  0  0  0
  195.6730  173.4490  143.5370 C   0  0  0  0  0  3  0  0  0  0  0  0
  197.4650  171.9380  145.0410 C   0  0  0  0  0  3  0  0  0  0  0  0
  197.9410  172.8920  144.1380 C   0  0  0  0  0  3  0  0  0  0  0  0
  195.5930  168.8150  147.5870 O   0  0  0  0  0  1  0  0  0  0  0  0
  196.1760  169.5530  146.5710 C   0  0  0  0  0  0  0  0  0  0  0  0
  195.5850  170.7990  146.1760 N   0  0  0  0  0  2  0  0  0  0  0  0
  197.2410  169.1390  146.0400 O   0  0  0  0  0  0  0  0  0  0  0  0
  197.5670  174.6280  141.0750 C   0  0  0  0  0  0  0  0  0  0  0  0
  197.5130  174.7240  142.5160 N   0  0  0  0  0  0  0  0  0  0  0  0
  197.5880  175.6830  140.3800 O   0  0  0  0  0  0  0  0  0  0  0  0
  197.9370  175.9790  143.1350 C   0  0  0  0  0  2  0  0  0  0  0  0
  196.9600  176.9580  142.9470 O   0  0  0  0  0  1  0  0  0  0  0  0
  197.6300  173.3160  140.3620 C   0  0  0  0  0  2  0  0  0  0  0  0
  196.2350  172.8010  140.0540 C   0  0  0  0  0  2  0  0  0  0  0  0
  196.3580  171.4250  139.4000 C   0  0  1  0  0  3  0  0  0  0  0  0
  196.6940  168.9810  139.9300 C   0  0  0  0  0  1  0  0  0  0  0  0
  194.5560  170.0530  140.4650 C   0  0  0  0  0  1  0  0  0  0  0  0
  196.0530  170.2820  140.3810 C   0  0  0  0  0  3  0  0  0  0  0  0
  195.5580  172.5330  137.4130 O   0  0  0  0  0  1  0  0  0  0  0  0
  195.5000  171.3320  138.1290 C   0  0  1  0  0  3  0  0  0  0  0  0
  195.9090  170.1530  137.2380 C   0  0  2  0  0  3  0  0  0  0  0  0
  194.5920  168.2300  134.6290 N   0  0  0  0  0  1  0  0  0  0  0  0
  194.7890  170.5460  135.1360 N   0  0  0  0  0  2  0  0  0  0  0  0
  196.0810  170.6020  135.8000 C   0  0  0  0  0  2  0  0  0  0  0  0
  194.1630  169.2910  135.5240 C   0  0  2  0  0  3  0  0  0  0  0  0
  194.6190  168.8770  137.2340 S   0  0  0  0  0  0  0  0  0  0  0  0
  1 15  1  6  0  0  0
  2  6  2  0  0  0  0
  3  9  1  0  0  0  0
  4 10  1  0  0  0  0
  5 33  1  1  0  0  0
  5  3  1  0  0  0  0
  5  2  1  0  0  0  0
  6  1  1  0  0  0  0
  6  7  1  0  0  0  0
  7  8  2  0  0  0  0
  9  1  1  0  0  0  0
 10  8  1  0  0  0  0
 11  2  1  0  0  0  0
 11  4  2  0  0  0  0
 12 15  1  0  0  0  0
 12 14  1  0  0  0  0
 13 12  2  0  0  0  0
 16 14  1  0  0  0  0
 17 16  1  0  0  0  0
 18 17  1  0  0  0  0
 19 20  1  1  0  0  0
 19 18  1  0  0  0  0
 22 21  1  6  0  0  0
 22 19  1  0  0  0  0
 23 26  1  6  0  0  0
 23 22  1  0  0  0  0
 24 23  1  0  0  0  0
 25 24  1  0  0  0  0
 26 27  1  0  0  0  0
 28 30  1  0  0  0  0
 28 31  1  0  0  0  0
 29 32  1  0  0  0  0
 30 29  1  0  0  0  0
 31 32  1  0  0  0  0
 32 27  1  6  0  0  0
 33 34  1  0  0  0  0
 35 43  1  0  0  0  0
 36 38  2  0  0  0  0
 36 40  1  0  0  0  0
 37 34  1  0  0  0  0
 37 35  2  0  0  0  0
 38 37  1  0  0  0  0
 39 35  1  0  0  0  0
 40 39  2  0  0  0  0
 42 41  1  0  0  0  0
 43 42  1  0  0  0  0
 44 42  2  0  0  0  0
 45 46  1  0  0  0  0
 46 48  1  0  0  0  0
 46 36  1  0  0  0  0
 47 45  2  0  0  0  0
 49 48  1  0  0  0  0
 50 45  1  0  0  0  0
 51 50  1  0  0  0  0
 52 51  1  1  0  0  0
 52 55  1  0  0  0  0
 53 55  1  0  0  0  0
 55 54  1  0  0  0  0
 57 56  1  6  0  0  0
 57 52  1  0  0  0  0
 58 57  1  1  0  0  0
 60 62  1  0  0  0  0
 60 61  1  0  0  0  0
 61 58  1  0  0  0  0
 62 59  1  6  0  0  0
 62 63  1  0  0  0  0
 63 58  1  0  0  0  0
M  END
>  <MODEL>
8

>  <REMARK>
 VINA RESULT:      -5.5      4.845      7.154
  Name = 
  23 active torsions:
  status: ('A' for Active; 'I' for Inactive)
    1  A    between atoms: C_1  and  N_60
    2  A    between atoms: C_2  and  C_22
    3  A    between atoms: C_2  and  C_49
    4  A    between atoms: O_3  and  C_10
    5  A    between atoms: C_6  and  C_43
    6  A    between atoms: C_6  and  C_63
    7  A    between atoms: C_9  and  N_56
    8  A    between atoms: C_10  and  C_26
    9  A    between atoms: C_10  and  C_34
   10  A    between atoms: C_11  and  N_50
   11  A    between atoms: C_12  and  C_14
   12  A    between atoms: C_12  and  C_34
   13  A    between atoms: C_14  and  C_53
   14  A    between atoms: C_15  and  N_50
   15  A    between atoms: C_16  and  N_47
   16  A    between atoms: C_16  and  C_53
   17  A    between atoms: C_21  and  C_49
   18  A    between atoms: C_24  and  C_58
   19  A    between atoms: C_26  and  O_30
   20  A    between atoms: C_29  and  C_43
   21  A    between atoms: O_30  and  C_46
   22  A    between atoms: C_31  and  C_63
   23  A    between atoms: C_58  and  C_63
                            x       y       z     vdW  Elec       q    Type
                         _______ _______ _______ _____ _____    ______ ____

>  <TORSDO>
F 23

$$$$
=
 OpenBabel11042417183D

 63 67  0  0  1  0  0  0  0  0999 V2000
  189.8660  172.8630  139.0690 C   0  0  2  0  0  3  0  0  0  0  0  0
  190.1290  171.2910  137.1690 C   0  0  0  0  0  0  0  0  0  0  0  0
  190.4690  170.7580  139.6130 C   0  0  0  0  0  2  0  0  0  0  0  0
  190.4440  171.5360  134.7010 C   0  0  0  0  0  3  0  0  0  0  0  0
  190.3380  170.1970  138.1950 C   0  0  2  0  0  3  0  0  0  0  0  0
  189.8880  172.5670  137.5760 C   0  0  0  0  0  0  0  0  0  0  0  0
  189.6860  173.7170  136.6550 C   0  0  0  0  0  3  0  0  0  0  0  0
  190.2060  173.8500  135.4340 C   0  0  0  0  0  3  0  0  0  0  0  0
  189.4840  171.7310  139.8230 O   0  0  0  0  0  0  0  0  0  0  0  0
  191.1320  172.8480  134.8330 C   0  0  0  0  0  2  0  0  0  0  0  0
  190.0220  170.8450  135.7610 C   0  0  0  0  0  3  0  0  0  0  0  0
  188.8720  174.5800  140.6860 C   0  0  0  0  0  0  0  0  0  0  0  0
  189.5450  174.1300  141.6530 O   0  0  0  0  0  0  0  0  0  0  0  0
  188.0040  175.6970  140.8710 N   0  0  0  0  0  2  0  0  0  0  0  0
  188.9780  173.9830  139.3910 N   0  0  0  0  0  2  0  0  0  0  0  0
  187.9080  176.3970  142.1410 C   0  0  0  0  0  2  0  0  0  0  0  0
  187.7740  177.8930  141.9240 C   0  0  0  0  0  2  0  0  0  0  0  0
  186.3020  178.3060  141.8660 C   0  0  0  0  0  2  0  0  0  0  0  0
  185.5800  178.1190  143.2040 C   0  0  1  0  0  3  0  0  0  0  0  0
  185.3810  176.6360  143.4940 C   0  0  0  0  0  1  0  0  0  0  0  0
  185.9200  180.1550  144.4710 O   0  0  0  0  0  1  0  0  0  0  0  0
  186.3130  178.8160  144.3650 C   0  0  1  0  0  3  0  0  0  0  0  0
  186.1490  178.1280  145.7240 C   0  0  2  0  0  3  0  0  0  0  0  0
  185.5360  178.9730  146.6560 O   0  0  0  0  0  0  0  0  0  0  0  0
  186.1150  178.6370  147.8800 C   0  0  0  0  0  1  0  0  0  0  0  0
  187.4500  177.5350  146.2720 C   0  0  0  0  0  2  0  0  0  0  0  0
  187.9280  176.5170  145.4410 O   0  0  0  0  0  0  0  0  0  0  0  0
  190.6170  176.7870  147.7120 C   0  0  0  0  0  2  0  0  0  0  0  0
  189.3020  175.1170  146.6260 O   0  0  0  0  0  0  0  0  0  0  0  0
  190.3700  175.3040  147.5250 C   0  0  0  0  0  2  0  0  0  0  0  0
  189.6950  177.4400  146.7290 C   0  0  0  0  0  2  0  0  0  0  0  0
  189.2390  176.2950  145.8620 C   0  0  2  0  0  3  0  0  0  0  0  0
  191.5380  169.3160  137.8400 C   0  0  0  0  0  2  0  0  0  0  0  0
  192.8270  170.1190  137.7490 C   0  0  0  0  0  2  0  0  0  0  0  0
  194.9880  168.8940  138.3610 C   0  0  0  0  0  0  0  0  0  0  0  0
  194.5040  169.4970  141.0800 C   0  0  0  0  0  0  0  0  0  0  0  0
  193.8620  169.6630  138.7300 C   0  0  0  0  0  0  0  0  0  0  0  0
  193.6260  169.9380  140.0790 C   0  0  0  0  0  3  0  0  0  0  0  0
  195.8760  168.4640  139.3590 C   0  0  0  0  0  3  0  0  0  0  0  0
  195.6350  168.7590  140.7020 C   0  0  0  0  0  3  0  0  0  0  0  0
  196.0460  168.7830  134.7140 O   0  0  0  0  0  0  0  0  0  0  0  0
  195.8660  169.3180  135.9780 C   0  0  0  0  0  0  0  0  0  0  0  0
  195.1940  168.5450  136.9810 N   0  0  0  0  0  2  0  0  0  0  0  0
  196.3340  170.4580  136.2380 O   0  0  0  0  0  1  0  0  0  0  0  0
  194.5450  170.9220  143.1950 C   0  0  0  0  0  0  0  0  0  0  0  0
  194.1790  169.7270  142.4670 N   0  0  0  0  0  0  0  0  0  0  0  0
  193.9070  171.2370  144.2380 O   0  0  0  0  0  0  0  0  0  0  0  0
  193.4190  168.7000  143.1770 C   0  0  0  0  0  2  0  0  0  0  0  0
  194.1880  168.1670  144.2130 O   0  0  0  0  0  1  0  0  0  0  0  0
  195.6820  171.7970  142.7750 C   0  0  0  0  0  2  0  0  0  0  0  0
  195.2500  172.7530  141.6780 C   0  0  0  0  0  2  0  0  0  0  0  0
  195.2690  174.1760  142.2370 C   0  0  1  0  0  3  0  0  0  0  0  0
  195.8840  176.5860  141.8090 C   0  0  0  0  0  1  0  0  0  0  0  0
  195.4750  175.0860  139.9150 C   0  0  0  0  0  1  0  0  0  0  0  0
  196.0270  175.1530  141.3250 C   0  0  0  0  0  3  0  0  0  0  0  0
  192.9030  173.9150  141.8500 O   0  0  0  0  0  1  0  0  0  0  0  0
  193.8490  174.6720  142.5500 C   0  0  1  0  0  3  0  0  0  0  0  0
  193.5470  174.6530  144.0530 C   0  0  2  0  0  3  0  0  0  0  0  0
  194.0220  176.6740  146.8700 N   0  0  0  0  0  1  0  0  0  0  0  0
  193.2210  176.9700  144.6490 N   0  0  0  0  0  2  0  0  0  0  0  0
  192.5260  175.7160  144.4090 C   0  0  0  0  0  2  0  0  0  0  0  0
  194.3870  176.6620  145.4640 C   0  0  2  0  0  3  0  0  0  0  0  0
  195.0430  175.0280  145.0110 S   0  0  0  0  0  0  0  0  0  0  0  0
  1 15  1  6  0  0  0
  1  9  1  0  0  0  0
  2  6  2  0  0  0  0
  2  5  1  0  0  0  0
  3  9  1  0  0  0  0
  4 10  1  0  0  0  0
  4 11  2  0  0  0  0
  5 33  1  6  0  0  0
  5  3  1  0  0  0  0
  6  1  1  0  0  0  0
  7  6  1  0  0  0  0
  8  7  2  0  0  0  0
 10  8  1  0  0  0  0
 11  2  1  0  0  0  0
 12 14  1  0  0  0  0
 12 13  2  0  0  0  0
 14 16  1  0  0  0  0
 15 12  1  0  0  0  0
 17 16  1  0  0  0  0
 18 17  1  0  0  0  0
 18 19  1  0  0  0  0
 19 20  1  1  0  0  0
 19 22  1  0  0  0  0
 22 21  1  1  0  0  0
 22 23  1  0  0  0  0
 23 26  1  1  0  0  0
 23 24  1  0  0  0  0
 24 25  1  0  0  0  0
 27 26  1  0  0  0  0
 29 30  1  0  0  0  0
 30 28  1  0  0  0  0
 31 28  1  0  0  0  0
 32 27  1  1  0  0  0
 32 29  1  0  0  0  0
 32 31  1  0  0  0  0
 34 33  1  0  0  0  0
 34 37  1  0  0  0  0
 35 37  2  0  0  0  0
 35 39  1  0  0  0  0
 36 46  1  0  0  0  0
 37 38  1  0  0  0  0
 38 36  2  0  0  0  0
 39 40  2  0  0  0  0
 40 36  1  0  0  0  0
 41 42  2  0  0  0  0
 42 44  1  0  0  0  0
 42 43  1  0  0  0  0
 43 35  1  0  0  0  0
 45 47  2  0  0  0  0
 46 48  1  0  0  0  0
 46 45  1  0  0  0  0
 48 49  1  0  0  0  0
 50 45  1  0  0  0  0
 51 50  1  0  0  0  0
 52 51  1  6  0  0  0
 52 57  1  0  0  0  0
 54 55  1  0  0  0  0
 55 53  1  0  0  0  0
 55 52  1  0  0  0  0
 57 56  1  6  0  0  0
 58 57  1  6  0  0  0
 58 61  1  0  0  0  0
 58 63  1  0  0  0  0
 60 62  1  0  0  0  0
 61 60  1  0  0  0  0
 62 59  1  1  0  0  0
 63 62  1  0  0  0  0
M  END
>  <MODEL>
9

>  <REMARK>
 VINA RESULT:      -5.5      5.574     10.026
  Name = 
  23 active torsions:
  status: ('A' for Active; 'I' for Inactive)
    1  A    between atoms: C_1  and  N_60
    2  A    between atoms: C_2  and  C_22
    3  A    between atoms: C_2  and  C_49
    4  A    between atoms: O_3  and  C_10
    5  A    between atoms: C_6  and  C_43
    6  A    between atoms: C_6  and  C_63
    7  A    between atoms: C_9  and  N_56
    8  A    between atoms: C_10  and  C_26
    9  A    between atoms: C_10  and  C_34
   10  A    between atoms: C_11  and  N_50
   11  A    between atoms: C_12  and  C_14
   12  A    between atoms: C_12  and  C_34
   13  A    between atoms: C_14  and  C_53
   14  A    between atoms: C_15  and  N_50
   15  A    between atoms: C_16  and  N_47
   16  A    between atoms: C_16  and  C_53
   17  A    between atoms: C_21  and  C_49
   18  A    between atoms: C_24  and  C_58
   19  A    between atoms: C_26  and  O_30
   20  A    between atoms: C_29  and  C_43
   21  A    between atoms: O_30  and  C_46
   22  A    between atoms: C_31  and  C_63
   23  A    between atoms: C_58  and  C_63
                            x       y       z     vdW  Elec       q    Type
                         _______ _______ _______ _____ _____    ______ ____

>  <TORSDO>
F 23

$$$$
