=
 OpenBabel11042415313D

 47 52  0  0  1  0  0  0  0  0999 V2000
  190.5480  172.2470  140.9980 C   0  0  2  0  0  3  0  0  0  0  0  0
  192.1760  174.5270  143.3060 C   0  0  0  0  0  2  0  0  0  0  0  0
  191.1850  173.3660  143.3000 C   0  0  2  0  0  0  0  0  0  0  0  0
  184.5880  178.0620  143.1600 C   0  0  0  0  0  3  0  0  0  0  0  0
  191.7560  175.6620  144.2440 C   0  0  1  0  0  3  0  0  0  0  0  0
  188.2240  173.0680  139.5660 O   0  0  0  0  0  0  0  0  0  0  0  0
  185.4390  177.8580  144.1630 C   0  0  1  0  0  3  0  0  0  0  0  0
  187.0750  176.9710  141.6750 C   0  0  0  0  0  0  0  0  0  0  0  0
  192.9230  176.4560  144.8340 C   0  0  2  0  0  3  0  0  0  0  0  0
  191.2990  178.1660  144.1170 C   0  0  0  0  0  2  0  0  0  0  0  0
  184.9410  178.1070  141.7820 N   0  0  0  0  0  0  0  0  0  0  0  0
  187.9100  176.0050  140.9000 C   0  0  0  0  0  2  0  0  0  0  0  0
  189.3140  177.7630  145.3580 O   0  0  0  0  0  0  0  0  0  0  0  0
  185.9240  177.3080  141.1760 N   0  0  0  0  0  0  0  0  0  0  0  0
  188.4340  173.5990  140.6900 C   0  0  0  0  0  0  0  0  0  0  0  0
  187.4530  174.5910  141.2120 C   0  0  0  0  0  2  0  0  0  0  0  0
  189.6080  173.2640  141.4440 N   0  0  0  0  0  0  0  0  0  0  0  0
  189.8420  173.8330  142.7600 C   0  0  0  0  0  2  0  0  0  0  0  0
  192.1630  176.9980  143.6340 C   0  0  2  0  0  3  0  0  0  0  0  0
  186.8960  177.8390  143.9980 C   0  0  0  0  0  3  0  0  0  0  0  0
  187.6350  177.5070  142.9360 C   0  0  0  0  0  0  0  0  0  0  0  0
  189.8400  177.8470  144.2170 C   0  0  0  0  0  0  0  0  0  0  0  0
  191.0020  172.8150  144.7040 C   0  0  0  0  0  1  0  0  0  0  0  0
  189.0690  177.6040  143.0270 N   0  0  0  0  0  2  0  0  0  0  0  0
  191.8570  172.0420  142.2450 S   0  0  0  0  0  0  0  0  0  0  0  0
  183.9460  178.5500  145.8800 O   0  0  0  0  0  0  0  0  0  0  0  0
  184.9140  177.8150  145.5420 C   0  0  0  0  0  0  0  0  0  0  0  0
  185.4840  176.9360  146.4690 O   0  0  0  0  0  0  0  0  0  0  0  0
  186.1100  177.3970  147.6570 C   0  0  0  0  0  1  0  0  0  0  0  0
  191.1060  172.5490  139.6750 N   0  0  0  0  0  2  0  0  0  0  0  0
  192.5510  172.7470  139.7520 C   0  0  0  0  0  2  0  0  0  0  0  0
  192.9040  174.1380  139.2530 C   0  0  0  0  0  2  0  0  0  0  0  0
  194.3400  174.3630  139.3660 N   0  0  0  0  0  2  0  0  0  0  0  0
  194.6180  174.7330  140.7430 C   0  0  2  0  0  3  0  0  0  0  0  0
  194.5680  176.1210  140.8660 O   0  0  0  0  0  1  0  0  0  0  0  0
  195.8690  173.1400  142.1760 C   0  0  0  0  0  2  0  0  0  0  0  0
  196.0000  174.2360  141.1300 C   0  0  0  0  0  3  0  0  0  0  0  0
  196.1310  172.7820  140.7320 C   0  0  0  0  0  2  0  0  0  0  0  0
  194.2230  175.9490  144.4160 N   0  0  0  0  0  2  0  0  0  0  0  0
  194.9790  175.6990  145.6380 C   0  0  0  0  0  2  0  0  0  0  0  0
  197.2070  172.6850  145.8200 N   0  0  0  0  0  0  0  0  0  0  0  0
  195.4400  174.2830  145.6780 C   0  0  0  0  0  0  0  0  0  0  0  0
  196.7980  173.9820  145.7920 C   0  0  0  0  0  3  0  0  0  0  0  0
  196.3210  171.6590  145.7420 C   0  0  0  0  0  0  0  0  0  0  0  0
  194.5140  173.2430  145.6060 C   0  0  0  0  0  3  0  0  0  0  0  0
  196.8080  170.2550  145.7680 C   0  0  0  0  0  1  0  0  0  0  0  0
  194.9550  171.9210  145.6360 C   0  0  0  0  0  3  0  0  0  0  0  0
  1 30  1  6  0  0  0
  1 17  1  0  0  0  0
  1 25  1  0  0  0  0
  3  2  1  0  0  0  0
  3 23  1  1  0  0  0
  4  7  1  0  0  0  0
  5  2  1  6  0  0  0
  5  9  1  0  0  0  0
  6 15  2  0  0  0  0
  7 27  1  1  0  0  0
  8 21  1  0  0  0  0
  9 39  1  6  0  0  0
 10 22  1  0  0  0  0
 11  4  2  0  0  0  0
 12 16  1  0  0  0  0
 12  8  1  0  0  0  0
 14  8  2  0  0  0  0
 14 11  1  0  0  0  0
 15 16  1  0  0  0  0
 15 17  1  0  0  0  0
 17 18  1  0  0  0  0
 18  3  1  0  0  0  0
 19 10  1  1  0  0  0
 19  5  1  0  0  0  0
 19  9  1  0  0  0  0
 20  7  1  0  0  0  0
 21 24  1  0  0  0  0
 21 20  2  0  0  0  0
 22 13  2  0  0  0  0
 24 22  1  0  0  0  0
 25  3  1  0  0  0  0
 27 26  2  0  0  0  0
 27 28  1  0  0  0  0
 28 29  1  0  0  0  0
 30 31  1  0  0  0  0
 32 33  1  0  0  0  0
 32 31  1  0  0  0  0
 33 34  1  0  0  0  0
 34 35  1  6  0  0  0
 34 37  1  0  0  0  0
 37 36  1  0  0  0  0
 38 37  1  0  0  0  0
 38 36  1  0  0  0  0
 39 40  1  0  0  0  0
 40 42  1  0  0  0  0
 42 43  2  0  0  0  0
 43 41  1  0  0  0  0
 44 46  1  0  0  0  0
 44 41  2  0  0  0  0
 45 47  2  0  0  0  0
 45 42  1  0  0  0  0
 47 44  1  0  0  0  0
M  END
>  <MODEL>
1

>  <REMARK>
 VINA RESULT:      -7.5      0.000      0.000
  Name = 
  11 active torsions:
  status: ('A' for Active; 'I' for Inactive)
    1  A    between atoms: C_2  and  N_24
    2  A    between atoms: C_5  and  N_21
    3  A    between atoms: C_5  and  C_40
    4  A    between atoms: C_7  and  C_42
    5  A    between atoms: C_10  and  C_36
    6  A    between atoms: C_12  and  N_21
    7  A    between atoms: C_12  and  C_43
    8  A    between atoms: C_16  and  N_31
    9  A    between atoms: N_24  and  C_43
   10  A    between atoms: O_25  and  C_36
   11  A    between atoms: N_31  and  C_42
                            x       y       z     vdW  Elec       q    Type
                         _______ _______ _______ _____ _____    ______ ____

>  <TORSDO>
F 11

$$$$
=
 OpenBabel11042415313D

 47 52  0  0  1  0  0  0  0  0999 V2000
  190.3350  172.0530  141.2990 C   0  0  2  0  0  3  0  0  0  0  0  0
  192.1760  174.4130  143.3530 C   0  0  0  0  0  2  0  0  0  0  0  0
  191.1160  173.3210  143.4760 C   0  0  2  0  0  0  0  0  0  0  0  0
  184.8170  178.3980  143.1190 C   0  0  0  0  0  3  0  0  0  0  0  0
  191.8580  175.6470  144.2010 C   0  0  1  0  0  3  0  0  0  0  0  0
  188.0180  172.8970  139.8690 O   0  0  0  0  0  0  0  0  0  0  0  0
  185.6870  178.2260  144.1110 C   0  0  1  0  0  3  0  0  0  0  0  0
  187.1810  177.0290  141.6640 C   0  0  0  0  0  0  0  0  0  0  0  0
  193.0910  176.4120  144.6860 C   0  0  2  0  0  3  0  0  0  0  0  0
  191.5510  178.1560  143.8710 C   0  0  0  0  0  2  0  0  0  0  0  0
  185.1250  178.3040  141.7330 N   0  0  0  0  0  0  0  0  0  0  0  0
  187.9280  175.9500  140.9520 C   0  0  0  0  0  2  0  0  0  0  0  0
  189.5880  177.9860  145.1980 O   0  0  0  0  0  0  0  0  0  0  0  0
  186.0360  177.3950  141.1700 N   0  0  0  0  0  0  0  0  0  0  0  0
  188.2980  173.5060  140.9360 C   0  0  0  0  0  0  0  0  0  0  0  0
  187.3970  174.5990  141.3980 C   0  0  0  0  0  2  0  0  0  0  0  0
  189.4740  173.1620  141.6830 N   0  0  0  0  0  0  0  0  0  0  0  0
  189.7870  173.8250  142.9370 C   0  0  0  0  0  2  0  0  0  0  0  0
  192.3250  176.8980  143.4660 C   0  0  2  0  0  3  0  0  0  0  0  0
  187.1350  178.1000  143.9070 C   0  0  0  0  0  3  0  0  0  0  0  0
  187.8150  177.6330  142.8570 C   0  0  0  0  0  0  0  0  0  0  0  0
  190.0790  177.9390  144.0390 C   0  0  0  0  0  0  0  0  0  0  0  0
  190.9480  172.9030  144.9280 C   0  0  0  0  0  1  0  0  0  0  0  0
  189.2540  177.6460  142.8980 N   0  0  0  0  0  2  0  0  0  0  0  0
  191.6710  171.8720  142.5210 S   0  0  0  0  0  0  0  0  0  0  0  0
  183.9730  178.4170  145.7480 O   0  0  0  0  0  0  0  0  0  0  0  0
  185.2080  178.3330  145.5030 C   0  0  0  0  0  0  0  0  0  0  0  0
  186.1320  178.3190  146.5540 O   0  0  0  0  0  0  0  0  0  0  0  0
  186.0060  177.4310  147.6550 C   0  0  0  0  0  1  0  0  0  0  0  0
  190.8650  172.2060  139.9400 N   0  0  0  0  0  2  0  0  0  0  0  0
  191.8220  173.3080  139.8750 C   0  0  0  0  0  2  0  0  0  0  0  0
  192.0830  173.6720  138.4230 C   0  0  0  0  0  2  0  0  0  0  0  0
  191.8150  172.5260  137.5620 N   0  0  0  0  0  2  0  0  0  0  0  0
  191.0320  172.9990  136.4340 C   0  0  2  0  0  3  0  0  0  0  0  0
  190.9040  174.3860  136.5120 O   0  0  0  0  0  1  0  0  0  0  0  0
  189.4110  171.6110  135.1680 C   0  0  0  0  0  2  0  0  0  0  0  0
  189.6560  172.3570  136.4700 C   0  0  0  0  0  3  0  0  0  0  0  0
  189.8110  170.8530  136.4110 C   0  0  0  0  0  2  0  0  0  0  0  0
  194.3430  175.7900  144.2770 N   0  0  0  0  0  2  0  0  0  0  0  0
  195.0970  175.5410  145.5000 C   0  0  0  0  0  2  0  0  0  0  0  0
  194.8240  171.8010  145.6510 N   0  0  0  0  0  0  0  0  0  0  0  0
  195.4630  174.1010  145.5950 C   0  0  0  0  0  0  0  0  0  0  0  0
  194.4770  173.1140  145.5560 C   0  0  0  0  0  3  0  0  0  0  0  0
  196.1190  171.4170  145.7800 C   0  0  0  0  0  0  0  0  0  0  0  0
  196.8010  173.7250  145.7180 C   0  0  0  0  0  3  0  0  0  0  0  0
  196.4570  169.9740  145.8900 C   0  0  0  0  0  1  0  0  0  0  0  0
  197.1340  172.3740  145.8140 C   0  0  0  0  0  3  0  0  0  0  0  0
  1 30  1  6  0  0  0
  1 17  1  0  0  0  0
  1 25  1  0  0  0  0
  2  3  1  0  0  0  0
  3 23  1  1  0  0  0
  4  7  1  0  0  0  0
  5  2  1  6  0  0  0
  5  9  1  0  0  0  0
  6 15  2  0  0  0  0
  7 27  1  1  0  0  0
  8 21  1  0  0  0  0
  9 39  1  6  0  0  0
 10 22  1  0  0  0  0
 11  4  2  0  0  0  0
 12 16  1  0  0  0  0
 12  8  1  0  0  0  0
 14  8  2  0  0  0  0
 14 11  1  0  0  0  0
 15 16  1  0  0  0  0
 15 17  1  0  0  0  0
 17 18  1  0  0  0  0
 18  3  1  0  0  0  0
 19 10  1  1  0  0  0
 19  5  1  0  0  0  0
 19  9  1  0  0  0  0
 20  7  1  0  0  0  0
 21 24  1  0  0  0  0
 21 20  2  0  0  0  0
 22 13  2  0  0  0  0
 24 22  1  0  0  0  0
 25  3  1  0  0  0  0
 27 26  2  0  0  0  0
 27 28  1  0  0  0  0
 28 29  1  0  0  0  0
 31 30  1  0  0  0  0
 32 31  1  0  0  0  0
 33 32  1  0  0  0  0
 34 37  1  0  0  0  0
 34 35  1  1  0  0  0
 34 33  1  0  0  0  0
 36 38  1  0  0  0  0
 36 37  1  0  0  0  0
 38 37  1  0  0  0  0
 39 40  1  0  0  0  0
 40 42  1  0  0  0  0
 41 44  1  0  0  0  0
 42 45  2  0  0  0  0
 43 42  1  0  0  0  0
 43 41  2  0  0  0  0
 44 47  2  0  0  0  0
 44 46  1  0  0  0  0
 45 47  1  0  0  0  0
M  END
>  <MODEL>
2

>  <REMARK>
 VINA RESULT:      -7.1      1.645      2.670
  Name = 
  11 active torsions:
  status: ('A' for Active; 'I' for Inactive)
    1  A    between atoms: C_2  and  N_24
    2  A    between atoms: C_5  and  N_21
    3  A    between atoms: C_5  and  C_40
    4  A    between atoms: C_7  and  C_42
    5  A    between atoms: C_10  and  C_36
    6  A    between atoms: C_12  and  N_21
    7  A    between atoms: C_12  and  C_43
    8  A    between atoms: C_16  and  N_31
    9  A    between atoms: N_24  and  C_43
   10  A    between atoms: O_25  and  C_36
   11  A    between atoms: N_31  and  C_42
                            x       y       z     vdW  Elec       q    Type
                         _______ _______ _______ _____ _____    ______ ____

>  <TORSDO>
F 11

$$$$
=
 OpenBabel11042415313D

 47 52  0  0  1  0  0  0  0  0999 V2000
  190.1080  172.4730  141.1060 C   0  0  2  0  0  3  0  0  0  0  0  0
  191.5830  173.6940  144.1900 C   0  0  0  0  0  2  0  0  0  0  0  0
  190.4060  172.8560  143.6990 C   0  0  2  0  0  0  0  0  0  0  0  0
  185.1190  178.9900  143.6830 C   0  0  0  0  0  3  0  0  0  0  0  0
  191.1960  174.6630  145.3110 C   0  0  1  0  0  3  0  0  0  0  0  0
  188.3980  174.1550  139.5670 O   0  0  0  0  0  0  0  0  0  0  0  0
  185.6530  178.3600  144.7260 C   0  0  1  0  0  3  0  0  0  0  0  0
  187.6080  177.6570  142.4150 C   0  0  0  0  0  0  0  0  0  0  0  0
  192.3300  174.9820  146.2870 C   0  0  2  0  0  3  0  0  0  0  0  0
  191.3000  177.1650  145.7860 C   0  0  0  0  0  2  0  0  0  0  0  0
  185.7850  179.2470  142.4510 N   0  0  0  0  0  0  0  0  0  0  0  0
  188.3860  176.7060  141.5660 C   0  0  0  0  0  2  0  0  0  0  0  0
  189.0420  177.0180  146.5070 O   0  0  0  0  0  0  0  0  0  0  0  0
  186.6980  178.3780  141.8330 N   0  0  0  0  0  0  0  0  0  0  0  0
  188.4440  174.3530  140.8100 C   0  0  0  0  0  0  0  0  0  0  0  0
  187.5920  175.4220  141.4010 C   0  0  0  0  0  2  0  0  0  0  0  0
  189.3170  173.5710  141.6390 N   0  0  0  0  0  0  0  0  0  0  0  0
  189.3490  173.7570  143.0790 C   0  0  0  0  0  2  0  0  0  0  0  0
  191.9970  175.9510  145.1640 C   0  0  2  0  0  3  0  0  0  0  0  0
  187.0740  178.0060  144.8180 C   0  0  0  0  0  3  0  0  0  0  0  0
  187.9560  177.7400  143.8520 C   0  0  0  0  0  0  0  0  0  0  0  0
  189.8240  177.2150  145.5400 C   0  0  0  0  0  0  0  0  0  0  0  0
  189.7930  172.0730  144.8480 C   0  0  0  0  0  1  0  0  0  0  0  0
  189.3180  177.4450  144.2130 N   0  0  0  0  0  2  0  0  0  0  0  0
  191.0220  171.6710  142.4600 S   0  0  0  0  0  0  0  0  0  0  0  0
  183.7230  178.7510  146.0590 O   0  0  0  0  0  0  0  0  0  0  0  0
  184.8250  178.1480  145.9280 C   0  0  0  0  0  0  0  0  0  0  0  0
  185.2570  177.2580  146.9170 O   0  0  0  0  0  0  0  0  0  0  0  0
  185.9150  177.7010  148.0950 C   0  0  0  0  0  1  0  0  0  0  0  0
  191.0080  172.9070  140.0320 N   0  0  0  0  0  2  0  0  0  0  0  0
  192.3650  172.4150  140.2580 C   0  0  0  0  0  2  0  0  0  0  0  0
  192.8940  171.7750  138.9860 C   0  0  0  0  0  2  0  0  0  0  0  0
  191.8900  170.8840  138.4160 N   0  0  0  0  0  2  0  0  0  0  0  0
  192.0090  170.9570  136.9700 C   0  0  2  0  0  3  0  0  0  0  0  0
  193.2720  171.4430  136.6360 O   0  0  0  0  0  1  0  0  0  0  0  0
  189.9590  171.0900  135.5800 C   0  0  0  0  0  2  0  0  0  0  0  0
  190.9420  171.8870  136.4220 C   0  0  0  0  0  3  0  0  0  0  0  0
  189.5980  171.4890  136.9910 C   0  0  0  0  0  2  0  0  0  0  0  0
  193.5610  174.2650  145.9810 N   0  0  0  0  0  2  0  0  0  0  0  0
  194.6400  175.2410  146.0790 C   0  0  0  0  0  2  0  0  0  0  0  0
  196.4540  176.5260  143.0550 N   0  0  0  0  0  0  0  0  0  0  0  0
  195.4150  175.2810  144.8070 C   0  0  0  0  0  0  0  0  0  0  0  0
  195.7520  176.5020  144.2210 C   0  0  0  0  0  3  0  0  0  0  0  0
  196.8440  175.3810  142.4380 C   0  0  0  0  0  0  0  0  0  0  0  0
  195.8150  174.0950  144.1940 C   0  0  0  0  0  3  0  0  0  0  0  0
  197.6020  175.4480  141.1620 C   0  0  0  0  0  1  0  0  0  0  0  0
  196.5340  174.1420  142.9990 C   0  0  0  0  0  3  0  0  0  0  0  0
  1 30  1  6  0  0  0
  1 17  1  0  0  0  0
  1 25  1  0  0  0  0
  3  2  1  0  0  0  0
  3 23  1  1  0  0  0
  4  7  1  0  0  0  0
  5  2  1  6  0  0  0
  5  9  1  0  0  0  0
  6 15  2  0  0  0  0
  7 20  1  0  0  0  0
  7 27  1  1  0  0  0
  8 21  1  0  0  0  0
  9 39  1  6  0  0  0
 11  4  2  0  0  0  0
 12  8  1  0  0  0  0
 14  8  2  0  0  0  0
 14 11  1  0  0  0  0
 15 16  1  0  0  0  0
 15 17  1  0  0  0  0
 16 12  1  0  0  0  0
 17 18  1  0  0  0  0
 18  3  1  0  0  0  0
 19  5  1  0  0  0  0
 19 10  1  1  0  0  0
 19  9  1  0  0  0  0
 21 24  1  0  0  0  0
 21 20  2  0  0  0  0
 22 10  1  0  0  0  0
 22 13  2  0  0  0  0
 24 22  1  0  0  0  0
 25  3  1  0  0  0  0
 27 26  2  0  0  0  0
 27 28  1  0  0  0  0
 28 29  1  0  0  0  0
 30 31  1  0  0  0  0
 32 31  1  0  0  0  0
 33 32  1  0  0  0  0
 34 35  1  1  0  0  0
 34 33  1  0  0  0  0
 36 37  1  0  0  0  0
 36 38  1  0  0  0  0
 37 34  1  0  0  0  0
 37 38  1  0  0  0  0
 39 40  1  0  0  0  0
 41 43  1  0  0  0  0
 42 40  1  0  0  0  0
 43 42  2  0  0  0  0
 44 47  1  0  0  0  0
 44 41  2  0  0  0  0
 45 42  1  0  0  0  0
 46 44  1  0  0  0  0
 47 45  2  0  0  0  0
M  END
>  <MODEL>
3

>  <REMARK>
 VINA RESULT:      -6.9      1.965      3.165
  Name = 
  11 active torsions:
  status: ('A' for Active; 'I' for Inactive)
    1  A    between atoms: C_2  and  N_24
    2  A    between atoms: C_5  and  N_21
    3  A    between atoms: C_5  and  C_40
    4  A    between atoms: C_7  and  C_42
    5  A    between atoms: C_10  and  C_36
    6  A    between atoms: C_12  and  N_21
    7  A    between atoms: C_12  and  C_43
    8  A    between atoms: C_16  and  N_31
    9  A    between atoms: N_24  and  C_43
   10  A    between atoms: O_25  and  C_36
   11  A    between atoms: N_31  and  C_42
                            x       y       z     vdW  Elec       q    Type
                         _______ _______ _______ _____ _____    ______ ____

>  <TORSDO>
F 11

$$$$
=
 OpenBabel11042415313D

 47 52  0  0  1  0  0  0  0  0999 V2000
  190.2850  171.9720  141.3890 C   0  0  2  0  0  3  0  0  0  0  0  0
  192.1760  174.3890  143.3280 C   0  0  0  0  0  2  0  0  0  0  0  0
  191.1190  173.3030  143.5090 C   0  0  2  0  0  0  0  0  0  0  0  0
  184.8180  178.3780  143.1490 C   0  0  0  0  0  3  0  0  0  0  0  0
  191.8800  175.6490  144.1460 C   0  0  1  0  0  3  0  0  0  0  0  0
  187.9350  172.7770  139.9900 O   0  0  0  0  0  0  0  0  0  0  0  0
  185.7110  178.2350  144.1250 C   0  0  1  0  0  3  0  0  0  0  0  0
  187.1450  176.9630  141.6800 C   0  0  0  0  0  0  0  0  0  0  0  0
  193.1240  176.4260  144.5790 C   0  0  2  0  0  3  0  0  0  0  0  0
  191.5670  178.1470  143.7480 C   0  0  0  0  0  2  0  0  0  0  0  0
  185.0930  178.2420  141.7590 N   0  0  0  0  0  0  0  0  0  0  0  0
  187.8750  175.8610  140.9830 C   0  0  0  0  0  2  0  0  0  0  0  0
  189.6370  178.0210  145.1260 O   0  0  0  0  0  0  0  0  0  0  0  0
  185.9900  177.3160  141.2030 N   0  0  0  0  0  0  0  0  0  0  0  0
  188.2410  173.4170  141.0310 C   0  0  0  0  0  0  0  0  0  0  0  0
  187.3530  174.5250  141.4810 C   0  0  0  0  0  2  0  0  0  0  0  0
  189.4350  173.0940  141.7600 N   0  0  0  0  0  0  0  0  0  0  0  0
  189.7770  173.7930  142.9860 C   0  0  0  0  0  2  0  0  0  0  0  0
  192.3310  176.8760  143.3630 C   0  0  2  0  0  3  0  0  0  0  0  0
  187.1530  178.1000  143.8910 C   0  0  0  0  0  3  0  0  0  0  0  0
  187.8080  177.6010  142.8390 C   0  0  0  0  0  0  0  0  0  0  0  0
  190.0990  177.9380  143.9580 C   0  0  0  0  0  0  0  0  0  0  0  0
  190.9840  172.9290  144.9750 C   0  0  0  0  0  1  0  0  0  0  0  0
  189.2480  177.6120  142.8460 N   0  0  0  0  0  2  0  0  0  0  0  0
  191.6490  171.8260  142.5840 S   0  0  0  0  0  0  0  0  0  0  0  0
  184.0480  178.5920  145.7880 O   0  0  0  0  0  0  0  0  0  0  0  0
  185.2660  178.3840  145.5240 C   0  0  0  0  0  0  0  0  0  0  0  0
  186.1970  178.2720  146.5610 O   0  0  0  0  0  0  0  0  0  0  0  0
  186.1240  177.2380  147.5310 C   0  0  0  0  0  1  0  0  0  0  0  0
  190.7820  172.0840  140.0140 N   0  0  0  0  0  2  0  0  0  0  0  0
  192.2370  171.9640  139.9750 C   0  0  0  0  0  2  0  0  0  0  0  0
  192.7730  172.6420  138.7250 C   0  0  0  0  0  2  0  0  0  0  0  0
  192.1390  173.9440  138.5490 N   0  0  0  0  0  2  0  0  0  0  0  0
  191.7000  174.0340  137.1680 C   0  0  2  0  0  3  0  0  0  0  0  0
  191.3110  172.7710  136.7240 O   0  0  0  0  0  1  0  0  0  0  0  0
  192.4670  175.9020  135.7250 C   0  0  0  0  0  2  0  0  0  0  0  0
  192.8420  174.5480  136.3080 C   0  0  0  0  0  3  0  0  0  0  0  0
  193.3880  175.8190  136.9200 C   0  0  0  0  0  2  0  0  0  0  0  0
  194.3660  175.7900  144.1590 N   0  0  0  0  0  2  0  0  0  0  0  0
  195.1730  175.6290  145.3620 C   0  0  0  0  0  2  0  0  0  0  0  0
  197.2240  172.5380  145.9290 N   0  0  0  0  0  0  0  0  0  0  0  0
  195.5570  174.2010  145.5380 C   0  0  0  0  0  0  0  0  0  0  0  0
  196.8850  173.8470  145.7770 C   0  0  0  0  0  3  0  0  0  0  0  0
  196.2950  171.5510  145.8580 C   0  0  0  0  0  0  0  0  0  0  0  0
  194.5860  173.2020  145.4720 C   0  0  0  0  0  3  0  0  0  0  0  0
  196.7050  170.1320  146.0210 C   0  0  0  0  0  1  0  0  0  0  0  0
  194.9550  171.8660  145.6300 C   0  0  0  0  0  3  0  0  0  0  0  0
  1 30  1  6  0  0  0
  1 17  1  0  0  0  0
  1 25  1  0  0  0  0
  2  3  1  0  0  0  0
  3 23  1  1  0  0  0
  4  7  1  0  0  0  0
  5  2  1  6  0  0  0
  5  9  1  0  0  0  0
  6 15  2  0  0  0  0
  7 27  1  1  0  0  0
  8 21  1  0  0  0  0
  9 39  1  6  0  0  0
 10 22  1  0  0  0  0
 11  4  2  0  0  0  0
 12 16  1  0  0  0  0
 12  8  1  0  0  0  0
 14  8  2  0  0  0  0
 14 11  1  0  0  0  0
 15 16  1  0  0  0  0
 15 17  1  0  0  0  0
 17 18  1  0  0  0  0
 18  3  1  0  0  0  0
 19 10  1  1  0  0  0
 19  5  1  0  0  0  0
 19  9  1  0  0  0  0
 20  7  1  0  0  0  0
 21 24  1  0  0  0  0
 21 20  2  0  0  0  0
 22 13  2  0  0  0  0
 24 22  1  0  0  0  0
 25  3  1  0  0  0  0
 27 26  2  0  0  0  0
 27 28  1  0  0  0  0
 28 29  1  0  0  0  0
 31 30  1  0  0  0  0
 32 31  1  0  0  0  0
 33 32  1  0  0  0  0
 34 35  1  6  0  0  0
 34 33  1  0  0  0  0
 36 37  1  0  0  0  0
 36 38  1  0  0  0  0
 37 38  1  0  0  0  0
 37 34  1  0  0  0  0
 39 40  1  0  0  0  0
 40 42  1  0  0  0  0
 42 43  1  0  0  0  0
 43 41  2  0  0  0  0
 44 41  1  0  0  0  0
 44 46  1  0  0  0  0
 45 42  2  0  0  0  0
 45 47  1  0  0  0  0
 47 44  2  0  0  0  0
M  END
>  <MODEL>
4

>  <REMARK>
 VINA RESULT:      -6.9      1.552      2.073
  Name = 
  11 active torsions:
  status: ('A' for Active; 'I' for Inactive)
    1  A    between atoms: C_2  and  N_24
    2  A    between atoms: C_5  and  N_21
    3  A    between atoms: C_5  and  C_40
    4  A    between atoms: C_7  and  C_42
    5  A    between atoms: C_10  and  C_36
    6  A    between atoms: C_12  and  N_21
    7  A    between atoms: C_12  and  C_43
    8  A    between atoms: C_16  and  N_31
    9  A    between atoms: N_24  and  C_43
   10  A    between atoms: O_25  and  C_36
   11  A    between atoms: N_31  and  C_42
                            x       y       z     vdW  Elec       q    Type
                         _______ _______ _______ _____ _____    ______ ____

>  <TORSDO>
F 11

$$$$
=
 OpenBabel11042415313D

 47 52  0  0  1  0  0  0  0  0999 V2000
  189.9290  172.1810  141.3010 C   0  0  2  0  0  3  0  0  0  0  0  0
  191.4940  173.6290  144.2390 C   0  0  0  0  0  2  0  0  0  0  0  0
  190.3040  172.7570  143.8480 C   0  0  2  0  0  0  0  0  0  0  0  0
  185.0040  178.8720  143.5350 C   0  0  0  0  0  3  0  0  0  0  0  0
  191.1380  174.6790  145.2960 C   0  0  1  0  0  3  0  0  0  0  0  0
  188.1690  173.7440  139.6930 O   0  0  0  0  0  0  0  0  0  0  0  0
  185.5720  178.3210  144.6050 C   0  0  1  0  0  3  0  0  0  0  0  0
  187.4570  177.4480  142.2960 C   0  0  0  0  0  0  0  0  0  0  0  0
  192.3010  175.0700  146.2110 C   0  0  2  0  0  3  0  0  0  0  0  0
  191.2510  177.2090  145.5790 C   0  0  0  0  0  2  0  0  0  0  0  0
  185.6320  179.0360  142.2670 N   0  0  0  0  0  0  0  0  0  0  0  0
  188.2110  176.4360  141.4970 C   0  0  0  0  0  2  0  0  0  0  0  0
  189.0160  177.1160  146.3780 O   0  0  0  0  0  0  0  0  0  0  0  0
  186.5280  178.1230  141.6880 N   0  0  0  0  0  0  0  0  0  0  0  0
  188.2520  174.0340  140.9170 C   0  0  0  0  0  0  0  0  0  0  0  0
  187.4150  175.1430  141.4520 C   0  0  0  0  0  2  0  0  0  0  0  0
  189.1520  173.3160  141.7750 N   0  0  0  0  0  0  0  0  0  0  0  0
  189.2270  173.6090  143.1950 C   0  0  0  0  0  2  0  0  0  0  0  0
  191.9320  175.9520  145.0290 C   0  0  2  0  0  3  0  0  0  0  0  0
  186.9950  177.9750  144.6810 C   0  0  0  0  0  3  0  0  0  0  0  0
  187.8480  177.6380  143.7100 C   0  0  0  0  0  0  0  0  0  0  0  0
  189.7680  177.2400  145.3750 C   0  0  0  0  0  0  0  0  0  0  0  0
  189.7280  172.0620  145.0700 C   0  0  0  0  0  1  0  0  0  0  0  0
  189.2220  177.3710  144.0520 N   0  0  0  0  0  2  0  0  0  0  0  0
  190.8850  171.4830  142.6830 S   0  0  0  0  0  0  0  0  0  0  0  0
  183.7090  178.8530  145.9850 O   0  0  0  0  0  0  0  0  0  0  0  0
  184.7800  178.2000  145.8450 C   0  0  0  0  0  0  0  0  0  0  0  0
  185.2140  177.3390  146.8590 O   0  0  0  0  0  0  0  0  0  0  0  0
  185.8540  177.8190  148.0320 C   0  0  0  0  0  1  0  0  0  0  0  0
  190.7950  172.5340  140.1710 N   0  0  0  0  0  2  0  0  0  0  0  0
  192.0960  171.8800  140.2860 C   0  0  0  0  0  2  0  0  0  0  0  0
  193.1630  172.7480  139.6420 C   0  0  0  0  0  2  0  0  0  0  0  0
  194.4600  172.4900  140.2570 N   0  0  0  0  0  2  0  0  0  0  0  0
  194.2500  172.3830  141.6910 C   0  0  2  0  0  3  0  0  0  0  0  0
  194.2660  173.6580  142.2550 O   0  0  0  0  0  1  0  0  0  0  0  0
  194.8680  170.9300  143.6050 C   0  0  0  0  0  2  0  0  0  0  0  0
  195.3570  171.5410  142.3010 C   0  0  0  0  0  3  0  0  0  0  0  0
  194.9110  170.0960  142.3470 C   0  0  0  0  0  2  0  0  0  0  0  0
  193.5240  174.3320  145.9220 N   0  0  0  0  0  2  0  0  0  0  0  0
  194.6270  175.2550  146.1620 C   0  0  0  0  0  2  0  0  0  0  0  0
  196.0510  176.3670  142.8730 N   0  0  0  0  0  0  0  0  0  0  0  0
  195.4970  175.3420  144.9570 C   0  0  0  0  0  0  0  0  0  0  0  0
  195.2530  176.3020  143.9730 C   0  0  0  0  0  3  0  0  0  0  0  0
  197.0950  175.5160  142.7020 C   0  0  0  0  0  0  0  0  0  0  0  0
  196.5710  174.4650  144.8030 C   0  0  0  0  0  3  0  0  0  0  0  0
  197.9380  175.6130  141.4830 C   0  0  0  0  0  1  0  0  0  0  0  0
  197.3760  174.5490  143.6680 C   0  0  0  0  0  3  0  0  0  0  0  0
  1 30  1  6  0  0  0
  1 17  1  0  0  0  0
  1 25  1  0  0  0  0
  3  2  1  0  0  0  0
  3 23  1  1  0  0  0
  4  7  1  0  0  0  0
  5  2  1  6  0  0  0
  5  9  1  0  0  0  0
  6 15  2  0  0  0  0
  7 20  1  0  0  0  0
  7 27  1  1  0  0  0
  8 21  1  0  0  0  0
  9 39  1  6  0  0  0
 11  4  2  0  0  0  0
 12  8  1  0  0  0  0
 14 11  1  0  0  0  0
 14  8  2  0  0  0  0
 15 16  1  0  0  0  0
 15 17  1  0  0  0  0
 16 12  1  0  0  0  0
 17 18  1  0  0  0  0
 18  3  1  0  0  0  0
 19  5  1  0  0  0  0
 19 10  1  1  0  0  0
 19  9  1  0  0  0  0
 21 24  1  0  0  0  0
 21 20  2  0  0  0  0
 22 10  1  0  0  0  0
 22 13  2  0  0  0  0
 24 22  1  0  0  0  0
 25  3  1  0  0  0  0
 27 26  2  0  0  0  0
 27 28  1  0  0  0  0
 28 29  1  0  0  0  0
 30 31  1  0  0  0  0
 32 33  1  0  0  0  0
 32 31  1  0  0  0  0
 33 34  1  0  0  0  0
 34 35  1  1  0  0  0
 34 37  1  0  0  0  0
 37 38  1  0  0  0  0
 37 36  1  0  0  0  0
 38 36  1  0  0  0  0
 39 40  1  0  0  0  0
 41 43  1  0  0  0  0
 42 40  1  0  0  0  0
 43 42  2  0  0  0  0
 44 41  2  0  0  0  0
 44 47  1  0  0  0  0
 45 42  1  0  0  0  0
 46 44  1  0  0  0  0
 47 45  2  0  0  0  0
M  END
>  <MODEL>
5

>  <REMARK>
 VINA RESULT:      -6.7      1.557      2.185
  Name = 
  11 active torsions:
  status: ('A' for Active; 'I' for Inactive)
    1  A    between atoms: C_2  and  N_24
    2  A    between atoms: C_5  and  N_21
    3  A    between atoms: C_5  and  C_40
    4  A    between atoms: C_7  and  C_42
    5  A    between atoms: C_10  and  C_36
    6  A    between atoms: C_12  and  N_21
    7  A    between atoms: C_12  and  C_43
    8  A    between atoms: C_16  and  N_31
    9  A    between atoms: N_24  and  C_43
   10  A    between atoms: O_25  and  C_36
   11  A    between atoms: N_31  and  C_42
                            x       y       z     vdW  Elec       q    Type
                         _______ _______ _______ _____ _____    ______ ____

>  <TORSDO>
F 11

$$$$
=
 OpenBabel11042415313D

 47 52  0  0  1  0  0  0  0  0999 V2000
  190.2950  171.8190  141.3140 C   0  0  2  0  0  3  0  0  0  0  0  0
  191.9940  173.9980  143.6690 C   0  0  0  0  0  2  0  0  0  0  0  0
  190.8930  172.9410  143.6250 C   0  0  2  0  0  0  0  0  0  0  0  0
  184.8260  178.2600  142.9330 C   0  0  0  0  0  3  0  0  0  0  0  0
  191.6320  175.1970  144.5490 C   0  0  1  0  0  3  0  0  0  0  0  0
  188.1620  172.8220  139.7110 O   0  0  0  0  0  0  0  0  0  0  0  0
  185.5870  178.0040  143.9940 C   0  0  1  0  0  3  0  0  0  0  0  0
  187.2800  176.8830  141.6430 C   0  0  0  0  0  0  0  0  0  0  0  0
  192.8330  175.8890  145.1960 C   0  0  2  0  0  3  0  0  0  0  0  0
  191.4390  177.7290  144.3310 C   0  0  0  0  0  2  0  0  0  0  0  0
  185.2700  178.2280  141.5800 N   0  0  0  0  0  0  0  0  0  0  0  0
  188.0610  175.8160  140.9490 C   0  0  0  0  0  2  0  0  0  0  0  0
  189.3490  177.5630  145.4460 O   0  0  0  0  0  0  0  0  0  0  0  0
  186.2030  177.3170  141.0600 N   0  0  0  0  0  0  0  0  0  0  0  0
  188.3520  173.3640  140.8330 C   0  0  0  0  0  0  0  0  0  0  0  0
  187.4450  174.4640  141.2640 C   0  0  0  0  0  2  0  0  0  0  0  0
  189.4360  172.9380  141.6720 N   0  0  0  0  0  0  0  0  0  0  0  0
  189.6410  173.5220  142.9860 C   0  0  0  0  0  2  0  0  0  0  0  0
  192.2100  176.4660  143.9350 C   0  0  2  0  0  3  0  0  0  0  0  0
  187.0420  177.8350  143.9270 C   0  0  0  0  0  3  0  0  0  0  0  0
  187.8100  177.4000  142.9250 C   0  0  0  0  0  0  0  0  0  0  0  0
  189.9510  177.5590  144.3410 C   0  0  0  0  0  0  0  0  0  0  0  0
  190.5670  172.4540  145.0270 C   0  0  0  0  0  1  0  0  0  0  0  0
  189.2370  177.3560  143.1090 N   0  0  0  0  0  2  0  0  0  0  0  0
  191.4950  171.5250  142.6500 S   0  0  0  0  0  0  0  0  0  0  0  0
  184.2300  179.0230  145.6620 O   0  0  0  0  0  0  0  0  0  0  0  0
  184.9740  178.0560  145.3360 C   0  0  0  0  0  0  0  0  0  0  0  0
  185.2040  177.0130  146.2400 O   0  0  0  0  0  0  0  0  0  0  0  0
  185.9480  177.2030  147.4340 C   0  0  0  0  0  1  0  0  0  0  0  0
  190.9640  172.0240  140.0240 N   0  0  0  0  0  2  0  0  0  0  0  0
  192.3600  172.4090  140.2170 C   0  0  0  0  0  2  0  0  0  0  0  0
  192.6580  173.6650  139.4140 C   0  0  0  0  0  2  0  0  0  0  0  0
  192.6200  173.3690  137.9860 N   0  0  0  0  0  2  0  0  0  0  0  0
  191.8300  174.4060  137.3450 C   0  0  2  0  0  3  0  0  0  0  0  0
  190.5470  173.9190  137.0950 O   0  0  0  0  0  1  0  0  0  0  0  0
  192.6950  176.3120  136.0130 C   0  0  0  0  0  2  0  0  0  0  0  0
  192.4890  174.8060  136.0370 C   0  0  0  0  0  3  0  0  0  0  0  0
  193.8520  175.3940  136.3290 C   0  0  0  0  0  2  0  0  0  0  0  0
  194.1000  175.2430  144.8780 N   0  0  0  0  0  2  0  0  0  0  0  0
  194.9630  176.2800  144.3250 C   0  0  0  0  0  2  0  0  0  0  0  0
  196.5370  176.3950  140.9200 N   0  0  0  0  0  0  0  0  0  0  0  0
  195.4880  175.8590  142.9970 C   0  0  0  0  0  0  0  0  0  0  0  0
  196.0670  176.7910  142.1340 C   0  0  0  0  0  3  0  0  0  0  0  0
  196.4620  175.1000  140.5180 C   0  0  0  0  0  0  0  0  0  0  0  0
  195.4120  174.5220  142.6060 C   0  0  0  0  0  3  0  0  0  0  0  0
  196.9790  174.7090  139.1820 C   0  0  0  0  0  1  0  0  0  0  0  0
  195.9000  174.1380  141.3570 C   0  0  0  0  0  3  0  0  0  0  0  0
  1 30  1  6  0  0  0
  1 17  1  0  0  0  0
  1 25  1  0  0  0  0
  3  2  1  0  0  0  0
  3 23  1  1  0  0  0
  4  7  1  0  0  0  0
  5  2  1  6  0  0  0
  5  9  1  0  0  0  0
  6 15  2  0  0  0  0
  7 27  1  1  0  0  0
  8 21  1  0  0  0  0
  9 39  1  6  0  0  0
 10 22  1  0  0  0  0
 11  4  2  0  0  0  0
 12 16  1  0  0  0  0
 12  8  1  0  0  0  0
 14 11  1  0  0  0  0
 14  8  2  0  0  0  0
 15 16  1  0  0  0  0
 15 17  1  0  0  0  0
 17 18  1  0  0  0  0
 18  3  1  0  0  0  0
 19 10  1  1  0  0  0
 19  5  1  0  0  0  0
 19  9  1  0  0  0  0
 20  7  1  0  0  0  0
 21 24  1  0  0  0  0
 21 20  2  0  0  0  0
 22 13  2  0  0  0  0
 24 22  1  0  0  0  0
 25  3  1  0  0  0  0
 27 26  2  0  0  0  0
 27 28  1  0  0  0  0
 28 29  1  0  0  0  0
 30 31  1  0  0  0  0
 32 31  1  0  0  0  0
 33 32  1  0  0  0  0
 34 35  1  6  0  0  0
 34 33  1  0  0  0  0
 36 37  1  0  0  0  0
 36 38  1  0  0  0  0
 37 38  1  0  0  0  0
 37 34  1  0  0  0  0
 40 39  1  0  0  0  0
 41 43  1  0  0  0  0
 42 40  1  0  0  0  0
 43 42  2  0  0  0  0
 44 41  2  0  0  0  0
 44 47  1  0  0  0  0
 45 42  1  0  0  0  0
 46 44  1  0  0  0  0
 47 45  2  0  0  0  0
M  END
>  <MODEL>
6

>  <REMARK>
 VINA RESULT:      -6.6      1.881      2.939
  Name = 
  11 active torsions:
  status: ('A' for Active; 'I' for Inactive)
    1  A    between atoms: C_2  and  N_24
    2  A    between atoms: C_5  and  N_21
    3  A    between atoms: C_5  and  C_40
    4  A    between atoms: C_7  and  C_42
    5  A    between atoms: C_10  and  C_36
    6  A    between atoms: C_12  and  N_21
    7  A    between atoms: C_12  and  C_43
    8  A    between atoms: C_16  and  N_31
    9  A    between atoms: N_24  and  C_43
   10  A    between atoms: O_25  and  C_36
   11  A    between atoms: N_31  and  C_42
                            x       y       z     vdW  Elec       q    Type
                         _______ _______ _______ _____ _____    ______ ____

>  <TORSDO>
F 11

$$$$
=
 OpenBabel11042415313D

 47 52  0  0  1  0  0  0  0  0999 V2000
  190.0670  171.9360  141.2420 C   0  0  2  0  0  3  0  0  0  0  0  0
  191.6600  173.6190  144.0370 C   0  0  0  0  0  2  0  0  0  0  0  0
  190.4960  172.6780  143.7370 C   0  0  2  0  0  0  0  0  0  0  0  0
  184.9410  178.5500  143.2390 C   0  0  0  0  0  3  0  0  0  0  0  0
  191.2940  174.7150  145.0410 C   0  0  1  0  0  3  0  0  0  0  0  0
  188.1960  173.3290  139.6030 O   0  0  0  0  0  0  0  0  0  0  0  0
  185.5630  178.0880  144.3210 C   0  0  1  0  0  3  0  0  0  0  0  0
  187.4110  177.1520  142.0060 C   0  0  0  0  0  0  0  0  0  0  0  0
  192.4660  175.2060  145.8930 C   0  0  2  0  0  3  0  0  0  0  0  0
  191.3100  177.2600  145.1720 C   0  0  0  0  0  2  0  0  0  0  0  0
  185.5230  178.6630  141.9450 N   0  0  0  0  0  0  0  0  0  0  0  0
  188.1820  176.1250  141.2430 C   0  0  0  0  0  2  0  0  0  0  0  0
  189.1060  177.1270  146.0470 O   0  0  0  0  0  0  0  0  0  0  0  0
  186.4380  177.7530  141.3910 N   0  0  0  0  0  0  0  0  0  0  0  0
  188.3050  173.6950  140.8050 C   0  0  0  0  0  0  0  0  0  0  0  0
  187.4390  174.8010  141.3010 C   0  0  0  0  0  2  0  0  0  0  0  0
  189.2590  173.0660  141.6730 N   0  0  0  0  0  0  0  0  0  0  0  0
  189.3650  173.4470  143.0710 C   0  0  0  0  0  2  0  0  0  0  0  0
  192.0250  176.0000  144.6740 C   0  0  2  0  0  3  0  0  0  0  0  0
  187.0010  177.8030  144.3700 C   0  0  0  0  0  3  0  0  0  0  0  0
  187.8380  177.4420  143.3930 C   0  0  0  0  0  0  0  0  0  0  0  0
  189.8220  177.2210  145.0150 C   0  0  0  0  0  0  0  0  0  0  0  0
  189.9860  172.0350  145.0160 C   0  0  0  0  0  1  0  0  0  0  0  0
  189.2310  177.2500  143.7040 N   0  0  0  0  0  2  0  0  0  0  0  0
  191.0930  171.3600  142.6300 S   0  0  0  0  0  0  0  0  0  0  0  0
  183.8320  178.7730  145.8010 O   0  0  0  0  0  0  0  0  0  0  0  0
  184.8160  178.0100  145.5910 C   0  0  0  0  0  0  0  0  0  0  0  0
  185.1910  177.0690  146.5560 O   0  0  0  0  0  0  0  0  0  0  0  0
  185.9420  177.4280  147.7060 C   0  0  0  0  0  1  0  0  0  0  0  0
  190.8830  172.2550  140.0650 N   0  0  0  0  0  2  0  0  0  0  0  0
  192.2640  172.5360  140.4490 C   0  0  0  0  0  2  0  0  0  0  0  0
  192.6600  173.9170  139.9520 C   0  0  0  0  0  2  0  0  0  0  0  0
  193.3030  173.8160  138.6470 N   0  0  0  0  0  2  0  0  0  0  0  0
  194.7360  173.9260  138.8550 C   0  0  2  0  0  3  0  0  0  0  0  0
  195.2220  175.0250  138.1480 O   0  0  0  0  0  1  0  0  0  0  0  0
  196.8540  172.6320  138.8590 C   0  0  0  0  0  2  0  0  0  0  0  0
  195.4170  172.6610  138.3620 C   0  0  0  0  0  3  0  0  0  0  0  0
  195.7960  171.8080  139.5530 C   0  0  0  0  0  2  0  0  0  0  0  0
  193.7090  174.5010  145.6080 N   0  0  0  0  0  2  0  0  0  0  0  0
  194.7680  175.5030  145.6450 C   0  0  0  0  0  2  0  0  0  0  0  0
  196.7560  176.7140  142.7020 N   0  0  0  0  0  0  0  0  0  0  0  0
  195.4990  175.5270  144.3470 C   0  0  0  0  0  0  0  0  0  0  0  0
  196.0970  176.7030  143.8920 C   0  0  0  0  0  3  0  0  0  0  0  0
  196.8540  175.5990  141.9330 C   0  0  0  0  0  0  0  0  0  0  0  0
  195.5970  174.3690  143.5770 C   0  0  0  0  0  3  0  0  0  0  0  0
  197.5750  175.6540  140.6360 C   0  0  0  0  0  1  0  0  0  0  0  0
  196.2770  174.4030  142.3600 C   0  0  0  0  0  3  0  0  0  0  0  0
  1 30  1  6  0  0  0
  1 17  1  0  0  0  0
  1 25  1  0  0  0  0
  3  2  1  0  0  0  0
  3 23  1  1  0  0  0
  4  7  1  0  0  0  0
  5  2  1  6  0  0  0
  5  9  1  0  0  0  0
  6 15  2  0  0  0  0
  7 20  1  0  0  0  0
  7 27  1  1  0  0  0
  8 21  1  0  0  0  0
  9 39  1  6  0  0  0
 11  4  2  0  0  0  0
 12 16  1  0  0  0  0
 12  8  1  0  0  0  0
 14 11  1  0  0  0  0
 14  8  2  0  0  0  0
 15 16  1  0  0  0  0
 15 17  1  0  0  0  0
 17 18  1  0  0  0  0
 18  3  1  0  0  0  0
 19  5  1  0  0  0  0
 19 10  1  1  0  0  0
 19  9  1  0  0  0  0
 21 24  1  0  0  0  0
 21 20  2  0  0  0  0
 22 10  1  0  0  0  0
 22 13  2  0  0  0  0
 24 22  1  0  0  0  0
 25  3  1  0  0  0  0
 27 26  2  0  0  0  0
 27 28  1  0  0  0  0
 28 29  1  0  0  0  0
 30 31  1  0  0  0  0
 32 31  1  0  0  0  0
 33 34  1  0  0  0  0
 33 32  1  0  0  0  0
 34 35  1  6  0  0  0
 36 38  1  0  0  0  0
 37 34  1  0  0  0  0
 37 36  1  0  0  0  0
 37 38  1  0  0  0  0
 39 40  1  0  0  0  0
 41 43  1  0  0  0  0
 42 40  1  0  0  0  0
 43 42  2  0  0  0  0
 44 47  1  0  0  0  0
 44 41  2  0  0  0  0
 45 42  1  0  0  0  0
 46 44  1  0  0  0  0
 47 45  2  0  0  0  0
M  END
>  <MODEL>
7

>  <REMARK>
 VINA RESULT:      -6.6      1.588      2.159
  Name = 
  11 active torsions:
  status: ('A' for Active; 'I' for Inactive)
    1  A    between atoms: C_2  and  N_24
    2  A    between atoms: C_5  and  N_21
    3  A    between atoms: C_5  and  C_40
    4  A    between atoms: C_7  and  C_42
    5  A    between atoms: C_10  and  C_36
    6  A    between atoms: C_12  and  N_21
    7  A    between atoms: C_12  and  C_43
    8  A    between atoms: C_16  and  N_31
    9  A    between atoms: N_24  and  C_43
   10  A    between atoms: O_25  and  C_36
   11  A    between atoms: N_31  and  C_42
                            x       y       z     vdW  Elec       q    Type
                         _______ _______ _______ _____ _____    ______ ____

>  <TORSDO>
F 11

$$$$
=
 OpenBabel11042415313D

 47 52  0  0  1  0  0  0  0  0999 V2000
  195.9560  175.6600  144.4700 C   0  0  2  0  0  3  0  0  0  0  0  0
  194.2720  174.0090  141.7090 C   0  0  0  0  0  2  0  0  0  0  0  0
  194.6630  175.4060  142.1840 C   0  0  2  0  0  0  0  0  0  0  0  0
  187.5460  176.9800  145.7120 C   0  0  0  0  0  3  0  0  0  0  0  0
  192.8540  173.9530  141.1330 C   0  0  1  0  0  3  0  0  0  0  0  0
  194.5510  176.2030  146.8910 O   0  0  0  0  0  0  0  0  0  0  0  0
  187.8280  176.9030  144.4140 C   0  0  0  0  0  0  0  0  0  0  0  0
  190.1950  175.3810  145.7290 C   0  0  0  0  0  0  0  0  0  0  0  0
  192.6540  172.8850  140.0570 C   0  0  2  0  0  3  0  0  0  0  0  0
  190.6890  172.6690  141.5290 C   0  0  0  0  0  2  0  0  0  0  0  0
  188.1440  176.1840  146.7300 N   0  0  0  0  0  2  0  0  0  0  0  0
  191.6460  175.1100  145.9600 C   0  0  0  0  0  2  0  0  0  0  0  0
  189.5560  174.7550  141.4390 O   0  0  0  0  0  0  0  0  0  0  0  0
  189.4870  175.7730  146.7440 N   0  0  0  0  0  0  0  0  0  0  0  0
  193.8800  176.1580  145.8250 C   0  0  0  0  0  0  0  0  0  0  0  0
  192.4150  176.4170  145.8860 C   0  0  0  0  0  2  0  0  0  0  0  0
  194.5160  175.8460  144.5770 N   0  0  0  0  0  0  0  0  0  0  0  0
  193.7650  175.8350  143.3340 C   0  0  0  0  0  2  0  0  0  0  0  0
  192.2190  172.6140  141.4880 C   0  0  2  0  0  3  0  0  0  0  0  0
  188.6650  175.8510  143.8270 C   0  0  0  0  0  3  0  0  0  0  0  0
  189.6590  175.1440  144.3690 C   0  0  0  0  0  0  0  0  0  0  0  0
  190.1380  173.9070  142.1660 C   0  0  0  0  0  0  0  0  0  0  0  0
  194.5430  176.4080  141.0480 C   0  0  0  0  0  1  0  0  0  0  0  0
  190.3100  174.1340  143.5750 N   0  0  0  0  0  2  0  0  0  0  0  0
  196.4000  175.3610  142.7310 S   0  0  0  0  0  0  0  0  0  0  0  0
  187.6920  178.1680  142.4050 O   0  0  0  0  0  0  0  0  0  0  0  0
  187.1370  177.8160  143.4820 C   0  0  0  0  0  0  0  0  0  0  0  0
  185.8520  178.2740  143.7900 O   0  0  0  0  0  0  0  0  0  0  0  0
  185.5630  179.6540  143.9520 C   0  0  0  0  0  1  0  0  0  0  0  0
  196.4420  174.5850  145.3420 N   0  0  0  0  0  2  0  0  0  0  0  0
  197.6200  173.9410  144.7680 C   0  0  0  0  0  2  0  0  0  0  0  0
  197.4720  172.4310  144.8590 C   0  0  0  0  0  2  0  0  0  0  0  0
  196.5920  172.0790  145.9680 N   0  0  0  0  0  2  0  0  0  0  0  0
  195.7490  170.9810  145.5250 C   0  0  2  0  0  3  0  0  0  0  0  0
  196.5540  169.9450  145.0520 O   0  0  0  0  0  1  0  0  0  0  0  0
  193.4450  170.8740  144.6110 C   0  0  0  0  0  2  0  0  0  0  0  0
  194.8330  171.4640  144.4150 C   0  0  0  0  0  3  0  0  0  0  0  0
  193.7260  172.3020  145.0160 C   0  0  0  0  0  2  0  0  0  0  0  0
  193.8730  172.1460  139.7560 N   0  0  0  0  0  2  0  0  0  0  0  0
  193.9260  172.0130  138.3050 C   0  0  0  0  0  2  0  0  0  0  0  0
  194.9570  174.7760  135.9840 N   0  0  0  0  0  0  0  0  0  0  0  0
  194.6810  173.1510  137.7110 C   0  0  0  0  0  0  0  0  0  0  0  0
  194.2550  173.7410  136.5200 C   0  0  0  0  0  3  0  0  0  0  0  0
  196.0750  175.2610  136.5820 C   0  0  0  0  0  0  0  0  0  0  0  0
  195.8220  173.6420  138.3460 C   0  0  0  0  0  3  0  0  0  0  0  0
  196.8190  176.3870  135.9610 C   0  0  0  0  0  1  0  0  0  0  0  0
  196.5270  174.7040  137.7790 C   0  0  0  0  0  3  0  0  0  0  0  0
  1 17  1  0  0  0  0
  1 30  1  1  0  0  0
  2  3  1  0  0  0  0
  3 23  1  6  0  0  0
  3 25  1  0  0  0  0
  3 18  1  0  0  0  0
  4 11  1  0  0  0  0
  5 19  1  0  0  0  0
  5  2  1  1  0  0  0
  7  4  2  0  0  0  0
  8 12  1  0  0  0  0
  8 14  2  0  0  0  0
  9 39  1  1  0  0  0
  9  5  1  0  0  0  0
  9 19  1  0  0  0  0
 10 22  1  0  0  0  0
 11 14  1  0  0  0  0
 13 22  2  0  0  0  0
 15 16  1  0  0  0  0
 15  6  2  0  0  0  0
 16 12  1  0  0  0  0
 17 15  1  0  0  0  0
 18 17  1  0  0  0  0
 19 10  1  6  0  0  0
 20 21  2  0  0  0  0
 20  7  1  0  0  0  0
 21  8  1  0  0  0  0
 22 24  1  0  0  0  0
 24 21  1  0  0  0  0
 25  1  1  0  0  0  0
 26 27  2  0  0  0  0
 27 28  1  0  0  0  0
 27  7  1  0  0  0  0
 28 29  1  0  0  0  0
 31 32  1  0  0  0  0
 31 30  1  0  0  0  0
 32 33  1  0  0  0  0
 34 35  1  6  0  0  0
 34 33  1  0  0  0  0
 36 38  1  0  0  0  0
 37 36  1  0  0  0  0
 37 38  1  0  0  0  0
 37 34  1  0  0  0  0
 40 39  1  0  0  0  0
 41 43  2  0  0  0  0
 41 44  1  0  0  0  0
 42 40  1  0  0  0  0
 42 45  2  0  0  0  0
 43 42  1  0  0  0  0
 44 47  2  0  0  0  0
 46 44  1  0  0  0  0
 47 45  1  0  0  0  0
M  END
>  <MODEL>
8

>  <REMARK>
 VINA RESULT:      -6.5      2.784      6.464
  Name = 
  11 active torsions:
  status: ('A' for Active; 'I' for Inactive)
    1  A    between atoms: C_2  and  N_24
    2  A    between atoms: C_5  and  N_21
    3  A    between atoms: C_5  and  C_40
    4  A    between atoms: C_7  and  C_42
    5  A    between atoms: C_10  and  C_36
    6  A    between atoms: C_12  and  N_21
    7  A    between atoms: C_12  and  C_43
    8  A    between atoms: C_16  and  N_31
    9  A    between atoms: N_24  and  C_43
   10  A    between atoms: O_25  and  C_36
   11  A    between atoms: N_31  and  C_42
                            x       y       z     vdW  Elec       q    Type
                         _______ _______ _______ _____ _____    ______ ____

>  <TORSDO>
F 11

$$$$
=
 OpenBabel11042415313D

 47 52  0  0  1  0  0  0  0  0999 V2000
  190.9280  175.3280  146.9940 C   0  0  2  0  0  3  0  0  0  0  0  0
  189.5850  174.2790  143.7880 C   0  0  0  0  0  2  0  0  0  0  0  0
  190.1500  173.6900  145.0780 C   0  0  2  0  0  0  0  0  0  0  0  0
  197.7070  172.9340  142.2680 C   0  0  0  0  0  3  0  0  0  0  0  0
  190.1020  173.5680  142.5340 C   0  0  1  0  0  3  0  0  0  0  0  0
  193.6560  176.1250  147.2160 O   0  0  0  0  0  0  0  0  0  0  0  0
  196.6280  172.2270  141.9430 C   0  0  0  0  0  0  0  0  0  0  0  0
  195.4190  174.7980  143.1990 C   0  0  0  0  0  0  0  0  0  0  0  0
  189.1280  173.5850  141.3550 C   0  0  2  0  0  3  0  0  0  0  0  0
  191.3150  174.1630  140.3730 C   0  0  0  0  0  2  0  0  0  0  0  0
  197.7120  174.3200  142.5930 N   0  0  0  0  0  2  0  0  0  0  0  0
  194.5320  175.5300  144.1530 C   0  0  0  0  0  2  0  0  0  0  0  0
  192.7410  172.3090  140.7840 O   0  0  0  0  0  0  0  0  0  0  0  0
  196.7000  174.9830  143.3060 N   0  0  0  0  0  0  0  0  0  0  0  0
  193.3640  175.2900  146.3180 C   0  0  0  0  0  0  0  0  0  0  0  0
  194.4520  174.7520  145.4550 C   0  0  0  0  0  2  0  0  0  0  0  0
  192.0030  174.8790  146.1220 N   0  0  0  0  0  0  0  0  0  0  0  0
  191.6580  173.8840  145.1220 C   0  0  0  0  0  2  0  0  0  0  0  0
  190.2720  174.5850  141.4120 C   0  0  2  0  0  3  0  0  0  0  0  0
  195.3120  172.8250  141.6900 C   0  0  0  0  0  3  0  0  0  0  0  0
  194.7730  173.9470  142.1740 C   0  0  0  0  0  0  0  0  0  0  0  0
  192.5440  173.5400  140.9590 C   0  0  0  0  0  0  0  0  0  0  0  0
  189.8280  172.2070  145.1730 C   0  0  0  0  0  1  0  0  0  0  0  0
  193.4560  174.3320  141.7380 N   0  0  0  0  0  2  0  0  0  0  0  0
  189.3690  174.5390  146.4880 S   0  0  0  0  0  0  0  0  0  0  0  0
  196.8090  170.3750  140.4610 O   0  0  0  0  0  0  0  0  0  0  0  0
  196.7820  170.7880  141.6540 C   0  0  0  0  0  0  0  0  0  0  0  0
  196.9180  169.8820  142.7110 O   0  0  0  0  0  0  0  0  0  0  0  0
  195.8890  169.6800  143.6680 C   0  0  0  0  0  1  0  0  0  0  0  0
  190.8090  176.7900  147.0180 N   0  0  0  0  0  2  0  0  0  0  0  0
  189.6810  177.2350  146.2050 C   0  0  0  0  0  2  0  0  0  0  0  0
  188.7740  178.1280  147.0350 C   0  0  0  0  0  2  0  0  0  0  0  0
  187.4770  177.4880  147.2260 N   0  0  0  0  0  2  0  0  0  0  0  0
  186.4880  178.5410  147.3760 C   0  0  2  0  0  3  0  0  0  0  0  0
  186.8340  179.3480  148.4580 O   0  0  0  0  0  1  0  0  0  0  0  0
  184.1830  178.3060  146.4870 C   0  0  0  0  0  2  0  0  0  0  0  0
  185.1230  177.9200  147.6180 C   0  0  0  0  0  3  0  0  0  0  0  0
  184.8230  176.9370  146.5080 C   0  0  0  0  0  2  0  0  0  0  0  0
  187.8680  174.2460  141.6670 N   0  0  0  0  0  2  0  0  0  0  0  0
  187.8220  175.4520  140.8490 C   0  0  0  0  0  2  0  0  0  0  0  0
  185.8890  178.5460  141.7270 N   0  0  0  0  0  0  0  0  0  0  0  0
  187.2400  176.5810  141.6260 C   0  0  0  0  0  0  0  0  0  0  0  0
  186.4090  177.5150  141.0070 C   0  0  0  0  0  3  0  0  0  0  0  0
  186.1560  178.6940  143.0500 C   0  0  0  0  0  0  0  0  0  0  0  0
  187.5180  176.7100  142.9870 C   0  0  0  0  0  3  0  0  0  0  0  0
  185.5760  179.8380  143.8000 C   0  0  0  0  0  1  0  0  0  0  0  0
  186.9750  177.7740  143.7060 C   0  0  0  0  0  3  0  0  0  0  0  0
  1 30  1  6  0  0  0
  2  3  1  0  0  0  0
  3 18  1  0  0  0  0
  3 23  1  1  0  0  0
  3 25  1  0  0  0  0
  4 11  1  0  0  0  0
  5  2  1  1  0  0  0
  7  4  2  0  0  0  0
  8 14  2  0  0  0  0
  8 12  1  0  0  0  0
  9 19  1  0  0  0  0
  9 39  1  1  0  0  0
  9  5  1  0  0  0  0
 10 22  1  0  0  0  0
 11 14  1  0  0  0  0
 12 16  1  0  0  0  0
 13 22  2  0  0  0  0
 15  6  2  0  0  0  0
 16 15  1  0  0  0  0
 17 15  1  0  0  0  0
 17  1  1  0  0  0  0
 18 17  1  0  0  0  0
 19 10  1  6  0  0  0
 19  5  1  0  0  0  0
 20  7  1  0  0  0  0
 20 21  2  0  0  0  0
 21  8  1  0  0  0  0
 22 24  1  0  0  0  0
 24 21  1  0  0  0  0
 25  1  1  0  0  0  0
 26 27  2  0  0  0  0
 27  7  1  0  0  0  0
 27 28  1  0  0  0  0
 28 29  1  0  0  0  0
 31 30  1  0  0  0  0
 31 32  1  0  0  0  0
 32 33  1  0  0  0  0
 33 34  1  0  0  0  0
 34 37  1  0  0  0  0
 34 35  1  1  0  0  0
 36 38  1  0  0  0  0
 36 37  1  0  0  0  0
 38 37  1  0  0  0  0
 40 42  1  0  0  0  0
 40 39  1  0  0  0  0
 41 44  1  0  0  0  0
 42 45  2  0  0  0  0
 43 42  1  0  0  0  0
 43 41  2  0  0  0  0
 44 47  2  0  0  0  0
 44 46  1  0  0  0  0
 45 47  1  0  0  0  0
M  END
>  <MODEL>
9

>  <REMARK>
 VINA RESULT:      -6.5      2.663      9.888
  Name = 
  11 active torsions:
  status: ('A' for Active; 'I' for Inactive)
    1  A    between atoms: C_2  and  N_24
    2  A    between atoms: C_5  and  N_21
    3  A    between atoms: C_5  and  C_40
    4  A    between atoms: C_7  and  C_42
    5  A    between atoms: C_10  and  C_36
    6  A    between atoms: C_12  and  N_21
    7  A    between atoms: C_12  and  C_43
    8  A    between atoms: C_16  and  N_31
    9  A    between atoms: N_24  and  C_43
   10  A    between atoms: O_25  and  C_36
   11  A    between atoms: N_31  and  C_42
                            x       y       z     vdW  Elec       q    Type
                         _______ _______ _______ _____ _____    ______ ____

>  <TORSDO>
F 11

$$$$
