=
 OpenBabel11042415453D

 59 64  0  0  1  0  0  0  0  0999 V2000
  193.8010  170.8070  137.6800 C   0  0  0  0  0  3  0  0  0  0  0  0
  193.9050  170.2480  140.0100 C   0  0  0  0  0  0  0  0  0  0  0  0
  192.5330  170.2060  140.0760 C   0  0  0  0  0  0  0  0  0  0  0  0
  190.8110  169.9270  142.0950 C   0  0  0  0  0  2  0  0  0  0  0  0
  192.3960  170.7570  137.7390 C   0  0  0  0  0  3  0  0  0  0  0  0
  191.3420  168.6040  141.5680 C   0  0  0  0  0  2  0  0  0  0  0  0
  194.5690  170.5490  138.8240 C   0  0  0  0  0  3  0  0  0  0  0  0
  191.7370  170.4670  138.9500 C   0  0  0  0  0  0  0  0  0  0  0  0
  192.1890  169.8510  141.4750 C   0  0  0  0  0  0  0  0  0  0  0  0
  194.5320  169.9440  141.2510 N   0  0  0  0  0  2  0  0  0  0  0  0
  193.4950  169.7000  142.2580 C   0  0  1  0  0  3  0  0  0  0  0  0
  193.6600  171.5720  144.1580 C   0  0  0  0  0  0  0  0  0  0  0  0
  193.5950  170.7220  143.3050 C   0  0  0  0  0  0  0  0  0  0  0  0
  193.7220  172.6140  145.1890 C   0  0  2  0  0  3  0  0  0  0  0  0
  193.2370  173.9630  144.6550 C   0  0  0  0  0  2  0  0  0  0  0  0
  193.2420  175.0470  145.7270 C   0  0  0  0  0  2  0  0  0  0  0  0
  192.1720  174.7620  146.7750 C   0  0  0  0  0  2  0  0  0  0  0  0
  190.0770  173.8770  145.9530 O   0  0  0  0  0  1  0  0  0  0  0  0
  190.7480  175.0570  146.2860 C   0  0  1  0  0  3  0  0  0  0  0  0
  189.9030  175.9070  147.2420 C   0  0  1  0  0  3  0  0  0  0  0  0
  190.4490  177.1800  147.4310 O   0  0  0  0  0  1  0  0  0  0  0  0
  188.4410  175.9980  146.8220 C   0  0  0  0  0  2  0  0  0  0  0  0
  188.0140  177.3510  146.7520 O   0  0  0  0  0  0  0  0  0  0  0  0
  186.6720  178.6520  148.1030 O   0  0  0  0  0  0  0  0  0  0  0  0
  185.5350  177.1190  146.6990 C   0  0  0  0  0  1  0  0  0  0  0  0
  186.7670  177.7570  147.2270 C   0  0  0  0  0  0  0  0  0  0  0  0
  195.1200  172.7140  145.7780 C   0  0  0  0  0  2  0  0  0  0  0  0
  196.1460  172.8780  144.6730 C   0  0  0  0  0  2  0  0  0  0  0  0
  196.9940  174.1160  144.9100 C   0  0  0  0  0  2  0  0  0  0  0  0
  197.2500  174.8300  143.5930 C   0  0  0  0  0  2  0  0  0  0  0  0
  196.1040  175.7690  143.2570 C   0  0  0  0  0  2  0  0  0  0  0  0
  194.2530  175.8010  141.6060 C   0  0  0  0  0  3  0  0  0  0  0  0
  195.3260  175.2240  142.1580 N   0  0  0  0  0  0  0  0  0  0  0  0
  195.5320  174.0350  141.5680 C   0  0  0  0  0  3  0  0  0  0  0  0
  194.5680  173.8480  140.5980 C   0  0  0  0  0  3  0  0  0  0  0  0
  193.7560  174.9690  140.6210 C   0  0  0  0  0  3  0  0  0  0  0  0
  190.2440  170.3130  139.0030 C   0  0  0  0  0  2  0  0  0  0  0  0
  189.5830  171.4870  138.6240 O   0  0  0  0  0  0  0  0  0  0  0  0
  190.0960  173.6510  139.5270 C   0  0  0  0  0  0  0  0  0  0  0  0
  189.5470  172.2730  139.7810 C   0  0  1  0  0  3  0  0  0  0  0  0
  188.0430  173.2740  141.5100 C   0  0  0  0  0  2  0  0  0  0  0  0
  188.1150  172.3450  140.3050 C   0  0  0  0  0  2  0  0  0  0  0  0
  191.0650  173.8130  138.7350 O   0  0  0  0  0  0  0  0  0  0  0  0
  188.3750  174.7030  141.0810 C   0  0  2  0  0  3  0  0  0  0  0  0
  189.6100  174.7600  140.2890 N   0  0  0  0  0  2  0  0  0  0  0  0
  189.6990  176.3360  142.3740 C   0  0  1  0  0  3  0  0  0  0  0  0
  187.2290  176.4510  142.3410 C   0  0  1  0  0  3  0  0  0  0  0  0
  188.4260  175.5880  142.2560 N   0  0  1  0  0  0  0  0  0  0  0  0
  189.5430  177.5420  143.2520 C   0  0  0  0  0  0  0  0  0  0  0  0
  187.2050  177.0800  143.6060 O   0  0  0  0  0  0  0  0  0  0  0  0
  190.5290  178.2820  143.5070 O   0  0  0  0  0  0  0  0  0  0  0  0
  188.2680  177.9110  143.6900 O   0  0  0  0  0  0  0  0  0  0  0  0
  190.7920  175.4300  142.9380 C   0  0  0  0  0  1  0  0  0  0  0  0
  187.0790  177.4490  141.1640 C   0  0  1  0  0  3  0  0  0  0  0  0
  186.7050  176.6980  139.8980 C   0  0  0  0  0  1  0  0  0  0  0  0
  186.0060  178.5040  141.4290 C   0  0  0  0  0  2  0  0  0  0  0  0
  184.6390  177.8600  141.6230 C   0  0  0  0  0  3  0  0  0  0  0  0
  183.6930  178.3020  140.5230 C   0  0  0  0  0  1  0  0  0  0  0  0
  184.0720  178.2980  142.9600 C   0  0  0  0  0  1  0  0  0  0  0  0
  1  5  2  0  0  0  0
  1  7  1  0  0  0  0
  2  3  1  0  0  0  0
  2 10  1  0  0  0  0
  3  9  1  0  0  0  0
  5  8  1  0  0  0  0
  6  4  1  0  0  0  0
  7  2  2  0  0  0  0
  8 37  1  0  0  0  0
  8  3  2  0  0  0  0
  9  6  1  0  0  0  0
  9  4  1  0  0  0  0
  9 11  1  0  0  0  0
 10 11  1  0  0  0  0
 11 13  1  1  0  0  0
 13 12  3  0  0  0  0
 14 12  1  6  0  0  0
 14 27  1  0  0  0  0
 15 14  1  0  0  0  0
 15 16  1  0  0  0  0
 16 17  1  0  0  0  0
 19 18  1  1  0  0  0
 19 17  1  0  0  0  0
 19 20  1  0  0  0  0
 20 21  1  6  0  0  0
 22 20  1  0  0  0  0
 23 22  1  0  0  0  0
 23 26  1  0  0  0  0
 25 26  1  0  0  0  0
 26 24  2  0  0  0  0
 28 29  1  0  0  0  0
 28 27  1  0  0  0  0
 30 29  1  0  0  0  0
 31 30  1  0  0  0  0
 32 33  1  0  0  0  0
 33 31  1  0  0  0  0
 34 33  1  0  0  0  0
 35 36  1  0  0  0  0
 35 34  2  0  0  0  0
 36 32  2  0  0  0  0
 38 37  1  0  0  0  0
 39 40  1  0  0  0  0
 39 45  1  0  0  0  0
 40 38  1  6  0  0  0
 40 42  1  0  0  0  0
 42 41  1  0  0  0  0
 43 39  2  0  0  0  0
 44 41  1  1  0  0  0
 45 44  1  0  0  0  0
 46 53  1  1  0  0  0
 46 49  1  0  0  0  0
 47 54  1  6  0  0  0
 47 50  1  0  0  0  0
 48 44  1  6  0  0  0
 48 47  1  0  0  0  0
 48 46  1  0  0  0  0
 49 51  2  0  0  0  0
 49 52  1  0  0  0  0
 50 52  1  0  0  0  0
 54 55  1  6  0  0  0
 54 56  1  0  0  0  0
 56 57  1  0  0  0  0
 57 59  1  0  0  0  0
 58 57  1  0  0  0  0
M  END
>  <MODEL>
1

>  <REMARK>
 VINA RESULT:      -5.5      0.000      0.000
  Name = 
  23 active torsions:
  status: ('A' for Active; 'I' for Inactive)
    1  A    between atoms: C_3  and  C_30
    2  A    between atoms: C_3  and  C_40
    3  A    between atoms: C_6  and  C_26
    4  A    between atoms: C_6  and  O_46
    5  A    between atoms: C_8  and  C_40
    6  A    between atoms: C_8  and  C_42
    7  A    between atoms: C_9  and  O_46
    8  A    between atoms: C_14  and  C_22
    9  A    between atoms: C_15  and  C_27
   10  A    between atoms: C_15  and  O_49
   11  A    between atoms: N_16  and  C_31
   12  A    between atoms: C_22  and  C_47
   13  A    between atoms: C_25  and  C_47
   14  A    between atoms: C_27  and  C_53
   15  A    between atoms: C_30  and  N_33
   16  A    between atoms: C_35  and  C_36
   17  A    between atoms: C_35  and  C_41
   18  A    between atoms: C_36  and  C_53
   19  A    between atoms: C_41  and  C_44
   20  A    between atoms: C_42  and  C_44
   21  A    between atoms: C_44  and  C_50
   22  A    between atoms: C_45  and  C_51
   23  A    between atoms: O_49  and  C_57
                            x       y       z     vdW  Elec       q    Type
                         _______ _______ _______ _____ _____    ______ ____

>  <TORSDO>
F 23

$$$$
=
 OpenBabel11042415453D

 59 64  0  0  1  0  0  0  0  0999 V2000
  192.2860  171.8100  139.0360 C   0  0  0  0  0  3  0  0  0  0  0  0
  192.2930  171.5470  141.4190 C   0  0  0  0  0  0  0  0  0  0  0  0
  191.1010  172.2240  141.5120 C   0  0  0  0  0  0  0  0  0  0  0  0
  189.6580  173.1000  143.5780 C   0  0  0  0  0  2  0  0  0  0  0  0
  191.0600  172.4960  139.1240 C   0  0  0  0  0  3  0  0  0  0  0  0
  189.3970  171.6420  143.2360 C   0  0  0  0  0  2  0  0  0  0  0  0
  192.9130  171.3270  140.1920 C   0  0  0  0  0  3  0  0  0  0  0  0
  190.4530  172.7250  140.3740 C   0  0  0  0  0  0  0  0  0  0  0  0
  190.7480  172.2570  142.9540 C   0  0  0  0  0  0  0  0  0  0  0  0
  192.7850  171.1070  142.6800 N   0  0  0  0  0  2  0  0  0  0  0  0
  191.8600  171.5470  143.7280 C   0  0  1  0  0  3  0  0  0  0  0  0
  193.1150  173.2710  145.3390 C   0  0  0  0  0  0  0  0  0  0  0  0
  192.5530  172.4850  144.6180 C   0  0  0  0  0  0  0  0  0  0  0  0
  193.7880  174.2440  146.2080 C   0  0  2  0  0  3  0  0  0  0  0  0
  192.7880  175.1920  146.8710 C   0  0  0  0  0  2  0  0  0  0  0  0
  191.4410  175.2070  146.1580 C   0  0  0  0  0  2  0  0  0  0  0  0
  190.9770  176.6410  145.9310 C   0  0  0  0  0  2  0  0  0  0  0  0
  189.8930  178.0310  144.2760 O   0  0  0  0  0  1  0  0  0  0  0  0
  190.8250  177.0040  144.4490 C   0  0  1  0  0  3  0  0  0  0  0  0
  192.1370  177.3410  143.7310 C   0  0  1  0  0  3  0  0  0  0  0  0
  193.1390  177.7240  144.6270 O   0  0  0  0  0  1  0  0  0  0  0  0
  192.6210  176.2180  142.8210 C   0  0  0  0  0  2  0  0  0  0  0  0
  193.6280  176.6800  141.9310 O   0  0  0  0  0  0  0  0  0  0  0  0
  195.7870  176.3170  141.2080 O   0  0  0  0  0  0  0  0  0  0  0  0
  194.4060  174.3950  141.3190 C   0  0  0  0  0  1  0  0  0  0  0  0
  194.6550  175.8500  141.4830 C   0  0  0  0  0  0  0  0  0  0  0  0
  194.8600  175.0040  145.4430 C   0  0  0  0  0  2  0  0  0  0  0  0
  195.7330  174.0400  144.6630 C   0  0  0  0  0  2  0  0  0  0  0  0
  197.0230  173.7580  145.4140 C   0  0  0  0  0  2  0  0  0  0  0  0
  196.9540  172.3900  146.0710 C   0  0  0  0  0  2  0  0  0  0  0  0
  196.2090  171.4050  145.1860 C   0  0  0  0  0  2  0  0  0  0  0  0
  196.4890  169.6460  146.9130 C   0  0  0  0  0  3  0  0  0  0  0  0
  195.7650  170.2700  145.9770 N   0  0  0  0  0  0  0  0  0  0  0  0
  194.5850  169.6420  145.8500 C   0  0  0  0  0  3  0  0  0  0  0  0
  194.5450  168.5880  146.7400 C   0  0  0  0  0  3  0  0  0  0  0  0
  195.7530  168.5910  147.4170 C   0  0  0  0  0  3  0  0  0  0  0  0
  189.0980  173.3670  140.4720 C   0  0  0  0  0  2  0  0  0  0  0  0
  188.8950  174.3140  139.4620 O   0  0  0  0  0  0  0  0  0  0  0  0
  187.2220  176.0360  139.4620 C   0  0  0  0  0  0  0  0  0  0  0  0
  188.4450  175.4620  140.1250 C   0  0  1  0  0  3  0  0  0  0  0  0
  187.5850  176.3430  142.3020 C   0  0  0  0  0  2  0  0  0  0  0  0
  188.1660  175.1290  141.5890 C   0  0  0  0  0  2  0  0  0  0  0  0
  187.1020  175.9960  138.2070 O   0  0  0  0  0  0  0  0  0  0  0  0
  186.2180  176.6850  141.7110 C   0  0  2  0  0  3  0  0  0  0  0  0
  186.2600  176.7500  140.2440 N   0  0  0  0  0  2  0  0  0  0  0  0
  184.2220  178.0160  142.2910 C   0  0  1  0  0  3  0  0  0  0  0  0
  186.2880  178.1740  143.6430 C   0  0  1  0  0  3  0  0  0  0  0  0
  185.7010  177.9260  142.3090 N   0  0  1  0  0  0  0  0  0  0  0  0
  183.7250  179.0070  143.3030 C   0  0  0  0  0  0  0  0  0  0  0  0
  185.9650  179.4880  144.0490 O   0  0  0  0  0  0  0  0  0  0  0  0
  182.4950  179.2530  143.4070 O   0  0  0  0  0  0  0  0  0  0  0  0
  184.6250  179.5670  144.2130 O   0  0  0  0  0  0  0  0  0  0  0  0
  183.7350  178.4160  140.9000 C   0  0  0  0  0  1  0  0  0  0  0  0
  185.9280  177.1040  144.7050 C   0  0  1  0  0  3  0  0  0  0  0  0
  187.1960  176.4440  145.2190 C   0  0  0  0  0  1  0  0  0  0  0  0
  185.1800  177.6970  145.8970 C   0  0  0  0  0  2  0  0  0  0  0  0
  186.1150  177.9170  147.0790 C   0  0  0  0  0  3  0  0  0  0  0  0
  185.7230  177.0120  148.2310 C   0  0  0  0  0  1  0  0  0  0  0  0
  186.0080  179.3600  147.5330 C   0  0  0  0  0  1  0  0  0  0  0  0
  1  5  2  0  0  0  0
  1  7  1  0  0  0  0
  2  3  1  0  0  0  0
  2 10  1  0  0  0  0
  3  9  1  0  0  0  0
  5  8  1  0  0  0  0
  6  4  1  0  0  0  0
  7  2  2  0  0  0  0
  8 37  1  0  0  0  0
  8  3  2  0  0  0  0
  9  6  1  0  0  0  0
  9  4  1  0  0  0  0
  9 11  1  0  0  0  0
 10 11  1  0  0  0  0
 11 13  1  1  0  0  0
 13 12  3  0  0  0  0
 14 12  1  6  0  0  0
 14 15  1  0  0  0  0
 16 15  1  0  0  0  0
 17 16  1  0  0  0  0
 19 18  1  1  0  0  0
 19 17  1  0  0  0  0
 20 19  1  0  0  0  0
 20 21  1  1  0  0  0
 22 20  1  0  0  0  0
 23 22  1  0  0  0  0
 24 26  2  0  0  0  0
 25 26  1  0  0  0  0
 26 23  1  0  0  0  0
 27 14  1  0  0  0  0
 28 29  1  0  0  0  0
 28 27  1  0  0  0  0
 29 30  1  0  0  0  0
 31 33  1  0  0  0  0
 31 30  1  0  0  0  0
 32 36  2  0  0  0  0
 33 32  1  0  0  0  0
 34 33  1  0  0  0  0
 34 35  2  0  0  0  0
 35 36  1  0  0  0  0
 38 37  1  0  0  0  0
 39 40  1  0  0  0  0
 39 45  1  0  0  0  0
 40 38  1  6  0  0  0
 40 42  1  0  0  0  0
 42 41  1  0  0  0  0
 43 39  2  0  0  0  0
 44 41  1  1  0  0  0
 45 44  1  0  0  0  0
 46 53  1  6  0  0  0
 46 48  1  0  0  0  0
 46 49  1  0  0  0  0
 47 50  1  0  0  0  0
 47 54  1  1  0  0  0
 48 44  1  1  0  0  0
 48 47  1  0  0  0  0
 49 51  2  0  0  0  0
 49 52  1  0  0  0  0
 50 52  1  0  0  0  0
 54 55  1  1  0  0  0
 54 56  1  0  0  0  0
 56 57  1  0  0  0  0
 57 59  1  0  0  0  0
 57 58  1  0  0  0  0
M  END
>  <MODEL>
2

>  <REMARK>
 VINA RESULT:      -5.1      2.405      5.060
  Name = 
  23 active torsions:
  status: ('A' for Active; 'I' for Inactive)
    1  A    between atoms: C_3  and  C_30
    2  A    between atoms: C_3  and  C_40
    3  A    between atoms: C_6  and  C_26
    4  A    between atoms: C_6  and  O_46
    5  A    between atoms: C_8  and  C_40
    6  A    between atoms: C_8  and  C_42
    7  A    between atoms: C_9  and  O_46
    8  A    between atoms: C_14  and  C_22
    9  A    between atoms: C_15  and  C_27
   10  A    between atoms: C_15  and  O_49
   11  A    between atoms: N_16  and  C_31
   12  A    between atoms: C_22  and  C_47
   13  A    between atoms: C_25  and  C_47
   14  A    between atoms: C_27  and  C_53
   15  A    between atoms: C_30  and  N_33
   16  A    between atoms: C_35  and  C_36
   17  A    between atoms: C_35  and  C_41
   18  A    between atoms: C_36  and  C_53
   19  A    between atoms: C_41  and  C_44
   20  A    between atoms: C_42  and  C_44
   21  A    between atoms: C_44  and  C_50
   22  A    between atoms: C_45  and  C_51
   23  A    between atoms: O_49  and  C_57
                            x       y       z     vdW  Elec       q    Type
                         _______ _______ _______ _____ _____    ______ ____

>  <TORSDO>
F 23

$$$$
=
 OpenBabel11042415453D

 59 64  0  0  1  0  0  0  0  0999 V2000
  187.3930  176.1990  134.9150 C   0  0  0  0  0  3  0  0  0  0  0  0
  188.8230  174.5420  135.8950 C   0  0  0  0  0  0  0  0  0  0  0  0
  188.3490  174.8530  137.1470 C   0  0  0  0  0  0  0  0  0  0  0  0
  189.0470  174.0850  139.6050 C   0  0  0  0  0  2  0  0  0  0  0  0
  186.8970  176.5150  136.1930 C   0  0  0  0  0  3  0  0  0  0  0  0
  188.0960  173.1190  138.9180 C   0  0  0  0  0  2  0  0  0  0  0  0
  188.3660  175.2020  134.7580 C   0  0  0  0  0  3  0  0  0  0  0  0
  187.3820  175.8510  137.3370 C   0  0  0  0  0  0  0  0  0  0  0  0
  189.0490  173.9540  138.0980 C   0  0  0  0  0  0  0  0  0  0  0  0
  189.7900  173.4970  135.9080 N   0  0  0  0  0  2  0  0  0  0  0  0
  190.0130  173.0780  137.2950 C   0  0  1  0  0  3  0  0  0  0  0  0
  192.5520  173.6000  137.9460 C   0  0  0  0  0  0  0  0  0  0  0  0
  191.4040  173.3620  137.6630 C   0  0  0  0  0  0  0  0  0  0  0  0
  193.9520  173.8950  138.2710 C   0  0  2  0  0  3  0  0  0  0  0  0
  194.7270  172.6250  138.6260 C   0  0  0  0  0  2  0  0  0  0  0  0
  193.8400  171.3860  138.6320 C   0  0  0  0  0  2  0  0  0  0  0  0
  193.7600  170.7980  140.0370 C   0  0  0  0  0  2  0  0  0  0  0  0
  193.0400  168.6960  139.0840 O   0  0  0  0  0  1  0  0  0  0  0  0
  192.8240  169.5870  140.1380 C   0  0  1  0  0  3  0  0  0  0  0  0
  192.8670  168.8530  141.4840 C   0  0  1  0  0  3  0  0  0  0  0  0
  194.1520  168.8380  142.0310 O   0  0  0  0  0  1  0  0  0  0  0  0
  191.8540  169.3920  142.4860 C   0  0  0  0  0  2  0  0  0  0  0  0
  190.7300  169.9540  141.8240 O   0  0  0  0  0  0  0  0  0  0  0  0
  190.7120  172.1380  141.0820 O   0  0  0  0  0  0  0  0  0  0  0  0
  189.6430  171.7520  143.1610 C   0  0  0  0  0  1  0  0  0  0  0  0
  190.3890  171.2990  141.9600 C   0  0  0  0  0  0  0  0  0  0  0  0
  194.0460  174.9380  139.3740 C   0  0  0  0  0  2  0  0  0  0  0  0
  193.1060  174.5870  140.5110 C   0  0  0  0  0  2  0  0  0  0  0  0
  193.8190  174.6980  141.8480 C   0  0  0  0  0  2  0  0  0  0  0  0
  193.4180  173.5410  142.7480 C   0  0  0  0  0  2  0  0  0  0  0  0
  192.5050  174.0190  143.8650 C   0  0  0  0  0  2  0  0  0  0  0  0
  192.9750  176.1130  145.1090 C   0  0  0  0  0  3  0  0  0  0  0  0
  193.2560  174.8430  144.7970 N   0  0  0  0  0  0  0  0  0  0  0  0
  194.3740  174.4740  145.4420 C   0  0  0  0  0  3  0  0  0  0  0  0
  194.8200  175.5360  146.2020 C   0  0  0  0  0  3  0  0  0  0  0  0
  193.9320  176.5770  145.9920 C   0  0  0  0  0  3  0  0  0  0  0  0
  186.7890  176.1100  138.6930 C   0  0  0  0  0  2  0  0  0  0  0  0
  185.8890  177.1810  138.6740 O   0  0  0  0  0  0  0  0  0  0  0  0
  184.7880  177.8000  140.7150 C   0  0  0  0  0  0  0  0  0  0  0  0
  186.0580  177.8190  139.9080 C   0  0  1  0  0  3  0  0  0  0  0  0
  187.3340  177.7750  142.0590 C   0  0  0  0  0  2  0  0  0  0  0  0
  187.2000  177.1540  140.6750 C   0  0  0  0  0  2  0  0  0  0  0  0
  183.6690  177.9130  140.1420 O   0  0  0  0  0  0  0  0  0  0  0  0
  186.0830  177.4740  142.8840 C   0  0  2  0  0  3  0  0  0  0  0  0
  184.8540  177.7930  142.1440 N   0  0  0  0  0  2  0  0  0  0  0  0
  184.9070  178.0440  144.9770 C   0  0  1  0  0  3  0  0  0  0  0  0
  187.3680  177.8050  144.9320 C   0  0  1  0  0  3  0  0  0  0  0  0
  186.1480  178.1690  144.1790 N   0  0  1  0  0  0  0  0  0  0  0  0
  185.1620  178.3210  146.4300 C   0  0  0  0  0  0  0  0  0  0  0  0
  187.5100  178.6840  146.0280 O   0  0  0  0  0  0  0  0  0  0  0  0
  184.2170  178.3050  147.2610 O   0  0  0  0  0  0  0  0  0  0  0  0
  186.4770  178.4790  146.8770 O   0  0  0  0  0  0  0  0  0  0  0  0
  183.8430  179.0060  144.4510 C   0  0  0  0  0  1  0  0  0  0  0  0
  187.4430  176.3100  145.3370 C   0  0  1  0  0  3  0  0  0  0  0  0
  188.2510  175.5390  144.3080 C   0  0  0  0  0  1  0  0  0  0  0  0
  188.0950  176.1110  146.7040 C   0  0  0  0  0  2  0  0  0  0  0  0
  189.6120  176.0350  146.5840 C   0  0  0  0  0  3  0  0  0  0  0  0
  190.1200  174.7470  147.2020 C   0  0  0  0  0  1  0  0  0  0  0  0
  190.2270  177.2070  147.3220 C   0  0  0  0  0  1  0  0  0  0  0  0
  1  5  1  0  0  0  0
  2 10  1  0  0  0  0
  2  3  2  0  0  0  0
  3  8  1  0  0  0  0
  3  9  1  0  0  0  0
  5  8  2  0  0  0  0
  6  4  1  0  0  0  0
  7  1  2  0  0  0  0
  7  2  1  0  0  0  0
  8 37  1  0  0  0  0
  9  6  1  0  0  0  0
  9  4  1  0  0  0  0
 10 11  1  0  0  0  0
 11 13  1  1  0  0  0
 11  9  1  0  0  0  0
 13 12  3  0  0  0  0
 14 12  1  1  0  0  0
 14 15  1  0  0  0  0
 14 27  1  0  0  0  0
 15 16  1  0  0  0  0
 16 17  1  0  0  0  0
 17 19  1  0  0  0  0
 19 18  1  6  0  0  0
 19 20  1  0  0  0  0
 20 21  1  1  0  0  0
 20 22  1  0  0  0  0
 23 26  1  0  0  0  0
 23 22  1  0  0  0  0
 24 26  2  0  0  0  0
 26 25  1  0  0  0  0
 27 28  1  0  0  0  0
 28 29  1  0  0  0  0
 29 30  1  0  0  0  0
 30 31  1  0  0  0  0
 31 33  1  0  0  0  0
 32 36  2  0  0  0  0
 33 32  1  0  0  0  0
 33 34  1  0  0  0  0
 34 35  2  0  0  0  0
 36 35  1  0  0  0  0
 38 37  1  0  0  0  0
 39 45  1  0  0  0  0
 40 38  1  6  0  0  0
 40 42  1  0  0  0  0
 40 39  1  0  0  0  0
 42 41  1  0  0  0  0
 43 39  2  0  0  0  0
 44 41  1  6  0  0  0
 45 44  1  0  0  0  0
 46 53  1  6  0  0  0
 46 49  1  0  0  0  0
 47 54  1  1  0  0  0
 47 50  1  0  0  0  0
 48 44  1  6  0  0  0
 48 47  1  0  0  0  0
 48 46  1  0  0  0  0
 49 52  1  0  0  0  0
 49 51  2  0  0  0  0
 50 52  1  0  0  0  0
 54 55  1  6  0  0  0
 54 56  1  0  0  0  0
 57 56  1  0  0  0  0
 57 58  1  0  0  0  0
 57 59  1  0  0  0  0
M  END
>  <MODEL>
3

>  <REMARK>
 VINA RESULT:      -4.9      2.642      6.855
  Name = 
  23 active torsions:
  status: ('A' for Active; 'I' for Inactive)
    1  A    between atoms: C_3  and  C_30
    2  A    between atoms: C_3  and  C_40
    3  A    between atoms: C_6  and  C_26
    4  A    between atoms: C_6  and  O_46
    5  A    between atoms: C_8  and  C_40
    6  A    between atoms: C_8  and  C_42
    7  A    between atoms: C_9  and  O_46
    8  A    between atoms: C_14  and  C_22
    9  A    between atoms: C_15  and  C_27
   10  A    between atoms: C_15  and  O_49
   11  A    between atoms: N_16  and  C_31
   12  A    between atoms: C_22  and  C_47
   13  A    between atoms: C_25  and  C_47
   14  A    between atoms: C_27  and  C_53
   15  A    between atoms: C_30  and  N_33
   16  A    between atoms: C_35  and  C_36
   17  A    between atoms: C_35  and  C_41
   18  A    between atoms: C_36  and  C_53
   19  A    between atoms: C_41  and  C_44
   20  A    between atoms: C_42  and  C_44
   21  A    between atoms: C_44  and  C_50
   22  A    between atoms: C_45  and  C_51
   23  A    between atoms: O_49  and  C_57
                            x       y       z     vdW  Elec       q    Type
                         _______ _______ _______ _____ _____    ______ ____

>  <TORSDO>
F 23

$$$$
=
 OpenBabel11042415453D

 59 64  0  0  1  0  0  0  0  0999 V2000
  194.9960  172.7490  145.3620 C   0  0  0  0  0  3  0  0  0  0  0  0
  196.6400  173.5600  143.8150 C   0  0  0  0  0  0  0  0  0  0  0  0
  195.9200  174.7170  143.6350 C   0  0  0  0  0  0  0  0  0  0  0  0
  196.1860  176.7900  141.9770 C   0  0  0  0  0  2  0  0  0  0  0  0
  194.2590  173.9360  145.1880 C   0  0  0  0  0  3  0  0  0  0  0  0
  197.0410  176.9050  143.2280 C   0  0  0  0  0  2  0  0  0  0  0  0
  196.1990  172.5540  144.6720 C   0  0  0  0  0  3  0  0  0  0  0  0
  194.7080  174.9380  144.3060 C   0  0  0  0  0  0  0  0  0  0  0  0
  196.6890  175.5460  142.6730 C   0  0  0  0  0  0  0  0  0  0  0  0
  197.8450  173.5290  143.0590 N   0  0  0  0  0  2  0  0  0  0  0  0
  197.9410  174.7620  142.2730 C   0  0  1  0  0  3  0  0  0  0  0  0
  197.8740  174.1660  139.6690 C   0  0  0  0  0  0  0  0  0  0  0  0
  197.9090  174.4250  140.8460 C   0  0  0  0  0  0  0  0  0  0  0  0
  197.8250  173.8710  138.2320 C   0  0  2  0  0  3  0  0  0  0  0  0
  196.8900  174.8290  137.4920 C   0  0  0  0  0  2  0  0  0  0  0  0
  197.3060  175.0390  136.0400 C   0  0  0  0  0  2  0  0  0  0  0  0
  196.0760  175.1110  135.1420 C   0  0  0  0  0  2  0  0  0  0  0  0
  195.1710  177.2890  134.6100 O   0  0  0  0  0  1  0  0  0  0  0  0
  195.1060  176.2350  135.5260 C   0  0  1  0  0  3  0  0  0  0  0  0
  193.6540  175.7880  135.7330 C   0  0  1  0  0  3  0  0  0  0  0  0
  192.8010  176.8710  135.9610 O   0  0  0  0  0  1  0  0  0  0  0  0
  193.1330  174.9160  134.5960 C   0  0  0  0  0  2  0  0  0  0  0  0
  191.7380  174.6830  134.7290 O   0  0  0  0  0  0  0  0  0  0  0  0
  191.1820  172.5040  135.2420 O   0  0  0  0  0  0  0  0  0  0  0  0
  190.7300  174.1030  136.9310 C   0  0  0  0  0  1  0  0  0  0  0  0
  191.2300  173.7100  135.5890 C   0  0  0  0  0  0  0  0  0  0  0  0
  197.4470  172.4180  137.9880 C   0  0  0  0  0  2  0  0  0  0  0  0
  197.3320  171.6760  139.3060 C   0  0  0  0  0  2  0  0  0  0  0  0
  195.9620  171.0320  139.4390 C   0  0  0  0  0  2  0  0  0  0  0  0
  194.9510  172.0550  139.9280 C   0  0  0  0  0  2  0  0  0  0  0  0
  193.5950  171.8230  139.2840 C   0  0  0  0  0  2  0  0  0  0  0  0
  192.4340  173.7930  140.2450 C   0  0  0  0  0  3  0  0  0  0  0  0
  192.5590  172.4730  140.0680 N   0  0  0  0  0  0  0  0  0  0  0  0
  191.6070  171.8470  140.7790 C   0  0  0  0  0  3  0  0  0  0  0  0
  190.8380  172.7950  141.4230 C   0  0  0  0  0  3  0  0  0  0  0  0
  191.3610  174.0310  141.0830 C   0  0  0  0  0  3  0  0  0  0  0  0
  193.9830  176.2490  144.1880 C   0  0  0  0  0  2  0  0  0  0  0  0
  192.7000  176.0900  143.6540 O   0  0  0  0  0  0  0  0  0  0  0  0
  190.8960  177.4880  144.3970 C   0  0  0  0  0  0  0  0  0  0  0  0
  191.8290  176.3520  144.7180 C   0  0  1  0  0  3  0  0  0  0  0  0
  190.0280  175.3790  146.1530 C   0  0  0  0  0  2  0  0  0  0  0  0
  191.0480  175.0850  145.0620 C   0  0  0  0  0  2  0  0  0  0  0  0
  191.2990  178.4680  143.7120 O   0  0  0  0  0  0  0  0  0  0  0  0
  188.9760  176.3570  145.6310 C   0  0  2  0  0  3  0  0  0  0  0  0
  189.5920  177.5240  144.9860 N   0  0  0  0  0  2  0  0  0  0  0  0
  188.2570  178.1260  147.1930 C   0  0  1  0  0  3  0  0  0  0  0  0
  186.6500  176.4400  146.3630 C   0  0  1  0  0  3  0  0  0  0  0  0
  188.0550  176.7400  146.7120 N   0  0  1  0  0  0  0  0  0  0  0  0
  187.0420  178.6370  147.9110 C   0  0  0  0  0  0  0  0  0  0  0  0
  185.8500  176.5800  147.5190 O   0  0  0  0  0  0  0  0  0  0  0  0
  187.0390  179.7840  148.4300 O   0  0  0  0  0  0  0  0  0  0  0  0
  185.8690  177.8780  147.8970 O   0  0  0  0  0  0  0  0  0  0  0  0
  189.4670  178.1900  148.1240 C   0  0  0  0  0  1  0  0  0  0  0  0
  186.1100  177.2400  145.1500 C   0  0  1  0  0  3  0  0  0  0  0  0
  186.2390  176.4070  143.8870 C   0  0  0  0  0  1  0  0  0  0  0  0
  184.6430  177.6310  145.3180 C   0  0  0  0  0  2  0  0  0  0  0  0
  184.3700  179.0070  144.7240 C   0  0  0  0  0  3  0  0  0  0  0  0
  183.7850  178.8670  143.3320 C   0  0  0  0  0  1  0  0  0  0  0  0
  185.6740  179.7740  144.6320 C   0  0  0  0  0  1  0  0  0  0  0  0
  2  7  1  0  0  0  0
  3  2  2  0  0  0  0
  3  8  1  0  0  0  0
  4  9  1  0  0  0  0
  4  6  1  0  0  0  0
  5  1  1  0  0  0  0
  7  1  2  0  0  0  0
  8  5  2  0  0  0  0
  9  6  1  0  0  0  0
  9  3  1  0  0  0  0
 10  2  1  0  0  0  0
 11 13  1  6  0  0  0
 11  9  1  0  0  0  0
 11 10  1  0  0  0  0
 12 13  3  0  0  0  0
 14 15  1  6  0  0  0
 14 12  1  0  0  0  0
 16 15  1  0  0  0  0
 17 19  1  0  0  0  0
 17 16  1  0  0  0  0
 19 18  1  6  0  0  0
 19 20  1  0  0  0  0
 20 21  1  6  0  0  0
 22 23  1  0  0  0  0
 22 20  1  0  0  0  0
 23 26  1  0  0  0  0
 24 26  2  0  0  0  0
 26 25  1  0  0  0  0
 27 14  1  0  0  0  0
 27 28  1  0  0  0  0
 28 29  1  0  0  0  0
 29 30  1  0  0  0  0
 31 30  1  0  0  0  0
 31 33  1  0  0  0  0
 32 36  2  0  0  0  0
 33 32  1  0  0  0  0
 33 34  1  0  0  0  0
 34 35  2  0  0  0  0
 36 35  1  0  0  0  0
 37  8  1  0  0  0  0
 38 37  1  0  0  0  0
 39 40  1  0  0  0  0
 39 45  1  0  0  0  0
 40 38  1  6  0  0  0
 40 42  1  0  0  0  0
 42 41  1  0  0  0  0
 43 39  2  0  0  0  0
 44 41  1  1  0  0  0
 45 44  1  0  0  0  0
 46 49  1  0  0  0  0
 46 53  1  1  0  0  0
 47 54  1  6  0  0  0
 47 48  1  0  0  0  0
 47 50  1  0  0  0  0
 48 44  1  6  0  0  0
 48 46  1  0  0  0  0
 49 51  2  0  0  0  0
 50 52  1  0  0  0  0
 52 49  1  0  0  0  0
 54 55  1  6  0  0  0
 54 56  1  0  0  0  0
 57 56  1  0  0  0  0
 58 57  1  0  0  0  0
 59 57  1  0  0  0  0
M  END
>  <MODEL>
4

>  <REMARK>
 VINA RESULT:      -4.7      2.889      7.694
  Name = 
  23 active torsions:
  status: ('A' for Active; 'I' for Inactive)
    1  A    between atoms: C_3  and  C_30
    2  A    between atoms: C_3  and  C_40
    3  A    between atoms: C_6  and  C_26
    4  A    between atoms: C_6  and  O_46
    5  A    between atoms: C_8  and  C_40
    6  A    between atoms: C_8  and  C_42
    7  A    between atoms: C_9  and  O_46
    8  A    between atoms: C_14  and  C_22
    9  A    between atoms: C_15  and  C_27
   10  A    between atoms: C_15  and  O_49
   11  A    between atoms: N_16  and  C_31
   12  A    between atoms: C_22  and  C_47
   13  A    between atoms: C_25  and  C_47
   14  A    between atoms: C_27  and  C_53
   15  A    between atoms: C_30  and  N_33
   16  A    between atoms: C_35  and  C_36
   17  A    between atoms: C_35  and  C_41
   18  A    between atoms: C_36  and  C_53
   19  A    between atoms: C_41  and  C_44
   20  A    between atoms: C_42  and  C_44
   21  A    between atoms: C_44  and  C_50
   22  A    between atoms: C_45  and  C_51
   23  A    between atoms: O_49  and  C_57
                            x       y       z     vdW  Elec       q    Type
                         _______ _______ _______ _____ _____    ______ ____

>  <TORSDO>
F 23

$$$$
=
 OpenBabel11042415453D

 59 64  0  0  1  0  0  0  0  0999 V2000
  194.9660  175.3700  146.2880 C   0  0  0  0  0  3  0  0  0  0  0  0
  196.3150  174.0560  144.8040 C   0  0  0  0  0  0  0  0  0  0  0  0
  195.6340  174.5540  143.7200 C   0  0  0  0  0  0  0  0  0  0  0  0
  195.6750  173.9750  141.1160 C   0  0  0  0  0  2  0  0  0  0  0  0
  194.2710  175.8910  145.1820 C   0  0  0  0  0  3  0  0  0  0  0  0
  196.7630  174.9500  141.5340 C   0  0  0  0  0  2  0  0  0  0  0  0
  196.0010  174.4430  146.1040 C   0  0  0  0  0  3  0  0  0  0  0  0
  194.5890  175.4770  143.8730 C   0  0  0  0  0  0  0  0  0  0  0  0
  196.2410  173.9300  142.5180 C   0  0  0  0  0  0  0  0  0  0  0  0
  197.3460  173.1430  144.4440 N   0  0  0  0  0  2  0  0  0  0  0  0
  197.3500  172.9850  142.9870 C   0  0  1  0  0  3  0  0  0  0  0  0
  196.7420  170.4500  142.3990 C   0  0  0  0  0  0  0  0  0  0  0  0
  197.0220  171.5940  142.6540 C   0  0  0  0  0  0  0  0  0  0  0  0
  196.3900  169.0560  142.1050 C   0  0  2  0  0  3  0  0  0  0  0  0
  195.0530  168.9560  141.3690 C   0  0  0  0  0  2  0  0  0  0  0  0
  194.7780  170.1760  140.4970 C   0  0  0  0  0  2  0  0  0  0  0  0
  193.2770  170.3610  140.3010 C   0  0  0  0  0  2  0  0  0  0  0  0
  193.7430  169.0550  138.3200 O   0  0  0  0  0  1  0  0  0  0  0  0
  192.7680  169.8280  138.9560 C   0  0  1  0  0  3  0  0  0  0  0  0
  191.4380  169.0690  139.0270 C   0  0  1  0  0  3  0  0  0  0  0  0
  191.2050  168.5410  140.3000 O   0  0  0  0  0  1  0  0  0  0  0  0
  190.2520  169.9030  138.5580 C   0  0  0  0  0  2  0  0  0  0  0  0
  190.6640  171.2100  138.1830 O   0  0  0  0  0  0  0  0  0  0  0  0
  189.7660  172.8660  136.8520 O   0  0  0  0  0  0  0  0  0  0  0  0
  188.7390  172.5810  138.9680 C   0  0  0  0  0  1  0  0  0  0  0  0
  189.7470  172.2310  137.9350 C   0  0  0  0  0  0  0  0  0  0  0  0
  196.3960  168.2150  143.3730 C   0  0  0  0  0  2  0  0  0  0  0  0
  197.4700  168.7070  144.3240 C   0  0  0  0  0  2  0  0  0  0  0  0
  197.1080  168.3690  145.7610 C   0  0  0  0  0  2  0  0  0  0  0  0
  196.4230  169.5560  146.4170 C   0  0  0  0  0  2  0  0  0  0  0  0
  194.9330  169.3020  146.5690 C   0  0  0  0  0  2  0  0  0  0  0  0
  194.2160  171.3470  145.3620 C   0  0  0  0  0  3  0  0  0  0  0  0
  194.2020  170.0210  145.5390 N   0  0  0  0  0  0  0  0  0  0  0  0
  193.3620  169.4720  144.6480 C   0  0  0  0  0  3  0  0  0  0  0  0
  192.8270  170.4750  143.8640 C   0  0  0  0  0  3  0  0  0  0  0  0
  193.3700  171.6660  144.3160 C   0  0  0  0  0  3  0  0  0  0  0  0
  193.9230  176.1000  142.6790 C   0  0  0  0  0  2  0  0  0  0  0  0
  192.7080  175.4770  142.3740 O   0  0  0  0  0  0  0  0  0  0  0  0
  191.0560  176.9110  143.3610 C   0  0  0  0  0  0  0  0  0  0  0  0
  191.9040  175.6760  143.5030 C   0  0  1  0  0  3  0  0  0  0  0  0
  190.0880  174.6810  144.9030 C   0  0  0  0  0  2  0  0  0  0  0  0
  191.0360  174.4420  143.7360 C   0  0  0  0  0  2  0  0  0  0  0  0
  191.5100  177.9310  142.7740 O   0  0  0  0  0  0  0  0  0  0  0  0
  189.1000  175.7920  144.5490 C   0  0  2  0  0  3  0  0  0  0  0  0
  189.7840  176.9770  144.0130 N   0  0  0  0  0  2  0  0  0  0  0  0
  188.6720  177.3490  146.4150 C   0  0  1  0  0  3  0  0  0  0  0  0
  186.8200  176.0910  145.3650 C   0  0  1  0  0  3  0  0  0  0  0  0
  188.2570  176.1140  145.7110 N   0  0  1  0  0  0  0  0  0  0  0  0
  187.5560  177.9020  147.2510 C   0  0  0  0  0  0  0  0  0  0  0  0
  186.0600  176.1450  146.5550 O   0  0  0  0  0  0  0  0  0  0  0  0
  187.7320  178.9290  147.9580 O   0  0  0  0  0  0  0  0  0  0  0  0
  186.2800  177.3410  147.1480 O   0  0  0  0  0  0  0  0  0  0  0  0
  189.8850  177.0690  147.3000 C   0  0  0  0  0  1  0  0  0  0  0  0
  186.3990  177.1620  144.3260 C   0  0  1  0  0  3  0  0  0  0  0  0
  186.3970  176.5540  142.9340 C   0  0  0  0  0  1  0  0  0  0  0  0
  185.0060  177.7250  144.6030 C   0  0  0  0  0  2  0  0  0  0  0  0
  184.6990  178.9060  143.6920 C   0  0  0  0  0  3  0  0  0  0  0  0
  185.2860  180.1790  144.2700 C   0  0  0  0  0  1  0  0  0  0  0  0
  183.1950  179.0670  143.5810 C   0  0  0  0  0  1  0  0  0  0  0  0
  2  7  2  0  0  0  0
  3  8  2  0  0  0  0
  3  2  1  0  0  0  0
  4  6  1  0  0  0  0
  4  9  1  0  0  0  0
  5  1  2  0  0  0  0
  6  9  1  0  0  0  0
  7  1  1  0  0  0  0
  8  5  1  0  0  0  0
  9 11  1  0  0  0  0
  9  3  1  0  0  0  0
 10  2  1  0  0  0  0
 11 13  1  1  0  0  0
 11 10  1  0  0  0  0
 12 13  3  0  0  0  0
 14 15  1  1  0  0  0
 14 12  1  0  0  0  0
 14 27  1  0  0  0  0
 16 15  1  0  0  0  0
 17 16  1  0  0  0  0
 19 18  1  1  0  0  0
 19 20  1  0  0  0  0
 19 17  1  0  0  0  0
 20 21  1  1  0  0  0
 22 20  1  0  0  0  0
 23 22  1  0  0  0  0
 24 26  2  0  0  0  0
 26 23  1  0  0  0  0
 26 25  1  0  0  0  0
 27 28  1  0  0  0  0
 28 29  1  0  0  0  0
 29 30  1  0  0  0  0
 30 31  1  0  0  0  0
 32 33  1  0  0  0  0
 33 31  1  0  0  0  0
 34 33  1  0  0  0  0
 35 36  1  0  0  0  0
 35 34  2  0  0  0  0
 36 32  2  0  0  0  0
 37  8  1  0  0  0  0
 38 37  1  0  0  0  0
 39 40  1  0  0  0  0
 39 45  1  0  0  0  0
 40 38  1  6  0  0  0
 40 42  1  0  0  0  0
 42 41  1  0  0  0  0
 43 39  2  0  0  0  0
 44 41  1  1  0  0  0
 45 44  1  0  0  0  0
 46 49  1  0  0  0  0
 46 53  1  1  0  0  0
 47 54  1  6  0  0  0
 47 48  1  0  0  0  0
 47 50  1  0  0  0  0
 48 44  1  6  0  0  0
 48 46  1  0  0  0  0
 49 51  2  0  0  0  0
 50 52  1  0  0  0  0
 52 49  1  0  0  0  0
 54 55  1  6  0  0  0
 54 56  1  0  0  0  0
 57 58  1  0  0  0  0
 57 56  1  0  0  0  0
 59 57  1  0  0  0  0
M  END
>  <MODEL>
5

>  <REMARK>
 VINA RESULT:      -4.7      2.285      6.680
  Name = 
  23 active torsions:
  status: ('A' for Active; 'I' for Inactive)
    1  A    between atoms: C_3  and  C_30
    2  A    between atoms: C_3  and  C_40
    3  A    between atoms: C_6  and  C_26
    4  A    between atoms: C_6  and  O_46
    5  A    between atoms: C_8  and  C_40
    6  A    between atoms: C_8  and  C_42
    7  A    between atoms: C_9  and  O_46
    8  A    between atoms: C_14  and  C_22
    9  A    between atoms: C_15  and  C_27
   10  A    between atoms: C_15  and  O_49
   11  A    between atoms: N_16  and  C_31
   12  A    between atoms: C_22  and  C_47
   13  A    between atoms: C_25  and  C_47
   14  A    between atoms: C_27  and  C_53
   15  A    between atoms: C_30  and  N_33
   16  A    between atoms: C_35  and  C_36
   17  A    between atoms: C_35  and  C_41
   18  A    between atoms: C_36  and  C_53
   19  A    between atoms: C_41  and  C_44
   20  A    between atoms: C_42  and  C_44
   21  A    between atoms: C_44  and  C_50
   22  A    between atoms: C_45  and  C_51
   23  A    between atoms: O_49  and  C_57
                            x       y       z     vdW  Elec       q    Type
                         _______ _______ _______ _____ _____    ______ ____

>  <TORSDO>
F 23

$$$$
=
 OpenBabel11042415453D

 59 64  0  0  1  0  0  0  0  0999 V2000
  194.7950  172.8890  145.7310 C   0  0  0  0  0  3  0  0  0  0  0  0
  196.4310  173.5120  144.0920 C   0  0  0  0  0  0  0  0  0  0  0  0
  195.7190  174.6490  143.7930 C   0  0  0  0  0  0  0  0  0  0  0  0
  195.9860  176.5270  141.9160 C   0  0  0  0  0  2  0  0  0  0  0  0
  194.0660  174.0570  145.4350 C   0  0  0  0  0  3  0  0  0  0  0  0
  196.8540  176.7690  143.1390 C   0  0  0  0  0  2  0  0  0  0  0  0
  195.9900  172.6090  145.0560 C   0  0  0  0  0  3  0  0  0  0  0  0
  194.5150  174.9530  144.4450 C   0  0  0  0  0  0  0  0  0  0  0  0
  196.4860  175.3600  142.7390 C   0  0  0  0  0  0  0  0  0  0  0  0
  197.6280  173.3870  143.3330 N   0  0  0  0  0  2  0  0  0  0  0  0
  197.7280  174.5270  142.4160 C   0  0  1  0  0  3  0  0  0  0  0  0
  197.6280  173.6490  139.8940 C   0  0  0  0  0  0  0  0  0  0  0  0
  197.6790  174.0360  141.0350 C   0  0  0  0  0  0  0  0  0  0  0  0
  197.5580  173.1980  138.4990 C   0  0  2  0  0  3  0  0  0  0  0  0
  196.2640  173.6540  137.8240 C   0  0  0  0  0  2  0  0  0  0  0  0
  195.8870  172.7750  136.6370 C   0  0  0  0  0  2  0  0  0  0  0  0
  194.4430  172.3030  136.7650 C   0  0  0  0  0  2  0  0  0  0  0  0
  192.4100  172.5040  135.4720 O   0  0  0  0  0  1  0  0  0  0  0  0
  193.4350  173.2340  136.0780 C   0  0  1  0  0  3  0  0  0  0  0  0
  192.8570  174.3320  136.9790 C   0  0  1  0  0  3  0  0  0  0  0  0
  191.7520  174.9580  136.3970 O   0  0  0  0  0  1  0  0  0  0  0  0
  192.5260  173.8360  138.3820 C   0  0  0  0  0  2  0  0  0  0  0  0
  191.5110  172.8420  138.3450 O   0  0  0  0  0  0  0  0  0  0  0  0
  189.4790  173.7680  138.9220 O   0  0  0  0  0  0  0  0  0  0  0  0
  190.2220  171.9870  140.2960 C   0  0  0  0  0  1  0  0  0  0  0  0
  190.3750  172.9170  139.1500 C   0  0  0  0  0  0  0  0  0  0  0  0
  197.7380  171.6900  138.4070 C   0  0  0  0  0  2  0  0  0  0  0  0
  197.4150  171.0400  139.7380 C   0  0  0  0  0  2  0  0  0  0  0  0
  195.9250  170.7600  139.8500 C   0  0  0  0  0  2  0  0  0  0  0  0
  195.4620  170.9710  141.2810 C   0  0  0  0  0  2  0  0  0  0  0  0
  196.3340  170.1910  142.2500 C   0  0  0  0  0  2  0  0  0  0  0  0
  194.1860  169.7570  143.4130 C   0  0  0  0  0  3  0  0  0  0  0  0
  195.5160  169.6480  143.3220 N   0  0  0  0  0  0  0  0  0  0  0  0
  195.9760  169.0070  144.4080 C   0  0  0  0  0  3  0  0  0  0  0  0
  194.9060  168.6820  145.2170 C   0  0  0  0  0  3  0  0  0  0  0  0
  193.7690  169.1570  144.5860 C   0  0  0  0  0  3  0  0  0  0  0  0
  193.8000  176.2490  144.1910 C   0  0  0  0  0  2  0  0  0  0  0  0
  192.5110  176.0450  143.6860 O   0  0  0  0  0  0  0  0  0  0  0  0
  190.7800  177.5120  144.4680 C   0  0  0  0  0  0  0  0  0  0  0  0
  191.6530  176.3210  144.7570 C   0  0  1  0  0  3  0  0  0  0  0  0
  189.8030  175.4010  146.1650 C   0  0  0  0  0  2  0  0  0  0  0  0
  190.8080  175.0870  145.0650 C   0  0  0  0  0  2  0  0  0  0  0  0
  191.2340  178.4880  143.8100 O   0  0  0  0  0  0  0  0  0  0  0  0
  188.8040  176.4460  145.6700 C   0  0  2  0  0  3  0  0  0  0  0  0
  189.4790  177.5980  145.0580 N   0  0  0  0  0  2  0  0  0  0  0  0
  188.1410  178.2250  147.2470 C   0  0  1  0  0  3  0  0  0  0  0  0
  186.4870  176.5790  146.4260 C   0  0  1  0  0  3  0  0  0  0  0  0
  187.9020  176.8450  146.7620 N   0  0  1  0  0  0  0  0  0  0  0  0
  186.9450  178.7600  147.9790 C   0  0  0  0  0  0  0  0  0  0  0  0
  185.7020  176.7320  147.5900 O   0  0  0  0  0  0  0  0  0  0  0  0
  186.9730  179.9040  148.5020 O   0  0  0  0  0  0  0  0  0  0  0  0
  185.7530  178.0280  147.9730 O   0  0  0  0  0  0  0  0  0  0  0  0
  189.3600  178.2560  148.1660 C   0  0  0  0  0  1  0  0  0  0  0  0
  185.9540  177.3970  145.2210 C   0  0  1  0  0  3  0  0  0  0  0  0
  186.0030  176.5480  143.9630 C   0  0  0  0  0  1  0  0  0  0  0  0
  184.5150  177.8640  145.4280 C   0  0  0  0  0  2  0  0  0  0  0  0
  184.2710  179.2070  144.7520 C   0  0  0  0  0  3  0  0  0  0  0  0
  183.4440  179.0160  143.4940 C   0  0  0  0  0  1  0  0  0  0  0  0
  185.6050  179.8190  144.3710 C   0  0  0  0  0  1  0  0  0  0  0  0
  2  7  1  0  0  0  0
  3  2  2  0  0  0  0
  3  8  1  0  0  0  0
  4  9  1  0  0  0  0
  4  6  1  0  0  0  0
  5  1  1  0  0  0  0
  7  1  2  0  0  0  0
  8  5  2  0  0  0  0
  9  6  1  0  0  0  0
  9  3  1  0  0  0  0
 10  2  1  0  0  0  0
 11 13  1  6  0  0  0
 11  9  1  0  0  0  0
 11 10  1  0  0  0  0
 12 13  3  0  0  0  0
 14 15  1  1  0  0  0
 14 12  1  0  0  0  0
 16 17  1  0  0  0  0
 16 15  1  0  0  0  0
 19 18  1  1  0  0  0
 19 17  1  0  0  0  0
 19 20  1  0  0  0  0
 20 21  1  6  0  0  0
 20 22  1  0  0  0  0
 23 22  1  0  0  0  0
 23 26  1  0  0  0  0
 24 26  2  0  0  0  0
 26 25  1  0  0  0  0
 27 14  1  0  0  0  0
 27 28  1  0  0  0  0
 28 29  1  0  0  0  0
 29 30  1  0  0  0  0
 30 31  1  0  0  0  0
 31 33  1  0  0  0  0
 32 36  2  0  0  0  0
 33 32  1  0  0  0  0
 33 34  1  0  0  0  0
 34 35  2  0  0  0  0
 36 35  1  0  0  0  0
 37  8  1  0  0  0  0
 38 37  1  0  0  0  0
 39 40  1  0  0  0  0
 39 45  1  0  0  0  0
 40 38  1  6  0  0  0
 40 42  1  0  0  0  0
 42 41  1  0  0  0  0
 43 39  2  0  0  0  0
 44 41  1  1  0  0  0
 45 44  1  0  0  0  0
 46 49  1  0  0  0  0
 46 53  1  1  0  0  0
 47 54  1  6  0  0  0
 47 48  1  0  0  0  0
 47 50  1  0  0  0  0
 48 44  1  6  0  0  0
 48 46  1  0  0  0  0
 49 51  2  0  0  0  0
 50 52  1  0  0  0  0
 52 49  1  0  0  0  0
 54 55  1  6  0  0  0
 54 56  1  0  0  0  0
 57 56  1  0  0  0  0
 58 57  1  0  0  0  0
 59 57  1  0  0  0  0
M  END
>  <MODEL>
6

>  <REMARK>
 VINA RESULT:      -4.6      2.431      7.200
  Name = 
  23 active torsions:
  status: ('A' for Active; 'I' for Inactive)
    1  A    between atoms: C_3  and  C_30
    2  A    between atoms: C_3  and  C_40
    3  A    between atoms: C_6  and  C_26
    4  A    between atoms: C_6  and  O_46
    5  A    between atoms: C_8  and  C_40
    6  A    between atoms: C_8  and  C_42
    7  A    between atoms: C_9  and  O_46
    8  A    between atoms: C_14  and  C_22
    9  A    between atoms: C_15  and  C_27
   10  A    between atoms: C_15  and  O_49
   11  A    between atoms: N_16  and  C_31
   12  A    between atoms: C_22  and  C_47
   13  A    between atoms: C_25  and  C_47
   14  A    between atoms: C_27  and  C_53
   15  A    between atoms: C_30  and  N_33
   16  A    between atoms: C_35  and  C_36
   17  A    between atoms: C_35  and  C_41
   18  A    between atoms: C_36  and  C_53
   19  A    between atoms: C_41  and  C_44
   20  A    between atoms: C_42  and  C_44
   21  A    between atoms: C_44  and  C_50
   22  A    between atoms: C_45  and  C_51
   23  A    between atoms: O_49  and  C_57
                            x       y       z     vdW  Elec       q    Type
                         _______ _______ _______ _____ _____    ______ ____

>  <TORSDO>
F 23

$$$$
=
 OpenBabel11042415453D

 59 64  0  0  1  0  0  0  0  0999 V2000
  194.1380  172.8260  145.5150 C   0  0  0  0  0  3  0  0  0  0  0  0
  195.7350  173.4450  143.8370 C   0  0  0  0  0  0  0  0  0  0  0  0
  195.0800  174.6350  143.6320 C   0  0  0  0  0  0  0  0  0  0  0  0
  195.3760  176.5960  141.8480 C   0  0  0  0  0  2  0  0  0  0  0  0
  193.4670  174.0470  145.3160 C   0  0  0  0  0  3  0  0  0  0  0  0
  196.3080  176.7210  143.0400 C   0  0  0  0  0  2  0  0  0  0  0  0
  195.2850  172.5160  144.7720 C   0  0  0  0  0  3  0  0  0  0  0  0
  193.9250  174.9700  144.3550 C   0  0  0  0  0  0  0  0  0  0  0  0
  195.8410  175.3600  142.5840 C   0  0  0  0  0  0  0  0  0  0  0  0
  196.8900  173.2950  143.0180 N   0  0  0  0  0  2  0  0  0  0  0  0
  197.0160  174.4760  142.1600 C   0  0  1  0  0  3  0  0  0  0  0  0
  196.7560  173.7470  139.6020 C   0  0  0  0  0  0  0  0  0  0  0  0
  196.8790  174.0670  140.7580 C   0  0  0  0  0  0  0  0  0  0  0  0
  196.5960  173.3770  138.1910 C   0  0  2  0  0  3  0  0  0  0  0  0
  195.3110  173.9580  137.5980 C   0  0  0  0  0  2  0  0  0  0  0  0
  194.3850  172.8780  137.0500 C   0  0  0  0  0  2  0  0  0  0  0  0
  193.1060  172.8080  137.8760 C   0  0  0  0  0  2  0  0  0  0  0  0
  192.7870  170.5610  137.0420 O   0  0  0  0  0  1  0  0  0  0  0  0
  192.1210  171.7400  137.3840 C   0  0  1  0  0  3  0  0  0  0  0  0
  190.9600  171.4460  138.3430 C   0  0  1  0  0  3  0  0  0  0  0  0
  191.2940  170.4660  139.2820 O   0  0  0  0  0  1  0  0  0  0  0  0
  190.4240  172.6970  139.0280 C   0  0  0  0  0  2  0  0  0  0  0  0
  189.3320  172.3840  139.8800 O   0  0  0  0  0  0  0  0  0  0  0  0
  188.7170  174.5730  140.2690 O   0  0  0  0  0  0  0  0  0  0  0  0
  187.8620  172.9800  141.8000 C   0  0  0  0  0  1  0  0  0  0  0  0
  188.6560  173.3650  140.6060 C   0  0  0  0  0  0  0  0  0  0  0  0
  196.6630  171.8680  138.0140 C   0  0  0  0  0  2  0  0  0  0  0  0
  196.5540  171.1760  139.3590 C   0  0  0  0  0  2  0  0  0  0  0  0
  195.3910  170.1980  139.3650 C   0  0  0  0  0  2  0  0  0  0  0  0
  194.6880  170.2350  140.7120 C   0  0  0  0  0  2  0  0  0  0  0  0
  194.1910  171.6370  141.0220 C   0  0  0  0  0  2  0  0  0  0  0  0
  192.8590  170.5410  142.8040 C   0  0  0  0  0  3  0  0  0  0  0  0
  193.1110  171.5730  141.9920 N   0  0  0  0  0  0  0  0  0  0  0  0
  192.1730  172.5150  142.1800 C   0  0  0  0  0  3  0  0  0  0  0  0
  191.2960  172.0790  143.1530 C   0  0  0  0  0  3  0  0  0  0  0  0
  191.7310  170.8270  143.5510 C   0  0  0  0  0  3  0  0  0  0  0  0
  193.2770  176.3170  144.2040 C   0  0  0  0  0  2  0  0  0  0  0  0
  192.0830  176.2440  143.4780 O   0  0  0  0  0  0  0  0  0  0  0  0
  190.4270  177.7190  144.3980 C   0  0  0  0  0  0  0  0  0  0  0  0
  191.0690  176.3580  144.4370 C   0  0  1  0  0  3  0  0  0  0  0  0
  188.8740  175.4280  145.1920 C   0  0  0  0  0  2  0  0  0  0  0  0
  190.0320  175.2590  144.2180 C   0  0  0  0  0  2  0  0  0  0  0  0
  191.1220  178.7430  144.1490 O   0  0  0  0  0  0  0  0  0  0  0  0
  188.1330  176.7310  144.8940 C   0  0  2  0  0  3  0  0  0  0  0  0
  189.0560  177.8680  144.7770 N   0  0  0  0  0  2  0  0  0  0  0  0
  187.2490  178.2430  146.6330 C   0  0  1  0  0  3  0  0  0  0  0  0
  185.7340  176.7790  145.3390 C   0  0  1  0  0  3  0  0  0  0  0  0
  187.0880  176.9640  145.9040 N   0  0  1  0  0  0  0  0  0  0  0  0
  185.9620  178.6730  147.2720 C   0  0  0  0  0  0  0  0  0  0  0  0
  184.7960  176.7550  146.3950 O   0  0  0  0  0  0  0  0  0  0  0  0
  185.9110  179.7180  147.9730 O   0  0  0  0  0  0  0  0  0  0  0  0
  184.7870  177.9720  146.9860 O   0  0  0  0  0  0  0  0  0  0  0  0
  188.3310  178.1070  147.7020 C   0  0  0  0  0  1  0  0  0  0  0  0
  185.3660  177.7880  144.2220 C   0  0  1  0  0  3  0  0  0  0  0  0
  186.0590  179.1140  144.4790 C   0  0  0  0  0  1  0  0  0  0  0  0
  185.7750  177.2950  142.8350 C   0  0  0  0  0  2  0  0  0  0  0  0
  184.6670  177.5340  141.8180 C   0  0  0  0  0  3  0  0  0  0  0  0
  185.2080  178.2990  140.6260 C   0  0  0  0  0  1  0  0  0  0  0  0
  183.5680  178.3530  142.4660 C   0  0  0  0  0  1  0  0  0  0  0  0
  2  7  1  0  0  0  0
  3  2  2  0  0  0  0
  3  8  1  0  0  0  0
  4  9  1  0  0  0  0
  4  6  1  0  0  0  0
  5  1  1  0  0  0  0
  7  1  2  0  0  0  0
  8  5  2  0  0  0  0
  9  6  1  0  0  0  0
  9  3  1  0  0  0  0
 10  2  1  0  0  0  0
 11 13  1  6  0  0  0
 11  9  1  0  0  0  0
 11 10  1  0  0  0  0
 12 13  3  0  0  0  0
 14 15  1  1  0  0  0
 14 12  1  0  0  0  0
 16 15  1  0  0  0  0
 16 17  1  0  0  0  0
 19 18  1  1  0  0  0
 19 17  1  0  0  0  0
 19 20  1  0  0  0  0
 20 22  1  0  0  0  0
 20 21  1  1  0  0  0
 22 23  1  0  0  0  0
 23 26  1  0  0  0  0
 24 26  2  0  0  0  0
 26 25  1  0  0  0  0
 27 14  1  0  0  0  0
 27 28  1  0  0  0  0
 28 29  1  0  0  0  0
 29 30  1  0  0  0  0
 30 31  1  0  0  0  0
 31 33  1  0  0  0  0
 32 36  2  0  0  0  0
 33 34  1  0  0  0  0
 33 32  1  0  0  0  0
 34 35  2  0  0  0  0
 35 36  1  0  0  0  0
 37  8  1  0  0  0  0
 38 37  1  0  0  0  0
 39 40  1  0  0  0  0
 39 45  1  0  0  0  0
 40 38  1  6  0  0  0
 42 40  1  0  0  0  0
 42 41  1  0  0  0  0
 43 39  2  0  0  0  0
 44 41  1  1  0  0  0
 45 44  1  0  0  0  0
 46 49  1  0  0  0  0
 46 53  1  1  0  0  0
 47 54  1  6  0  0  0
 47 48  1  0  0  0  0
 47 50  1  0  0  0  0
 48 44  1  6  0  0  0
 48 46  1  0  0  0  0
 49 51  2  0  0  0  0
 50 52  1  0  0  0  0
 52 49  1  0  0  0  0
 54 55  1  1  0  0  0
 56 54  1  0  0  0  0
 57 59  1  0  0  0  0
 57 56  1  0  0  0  0
 58 57  1  0  0  0  0
M  END
>  <MODEL>
7

>  <REMARK>
 VINA RESULT:      -4.6      2.017      6.591
  Name = 
  23 active torsions:
  status: ('A' for Active; 'I' for Inactive)
    1  A    between atoms: C_3  and  C_30
    2  A    between atoms: C_3  and  C_40
    3  A    between atoms: C_6  and  C_26
    4  A    between atoms: C_6  and  O_46
    5  A    between atoms: C_8  and  C_40
    6  A    between atoms: C_8  and  C_42
    7  A    between atoms: C_9  and  O_46
    8  A    between atoms: C_14  and  C_22
    9  A    between atoms: C_15  and  C_27
   10  A    between atoms: C_15  and  O_49
   11  A    between atoms: N_16  and  C_31
   12  A    between atoms: C_22  and  C_47
   13  A    between atoms: C_25  and  C_47
   14  A    between atoms: C_27  and  C_53
   15  A    between atoms: C_30  and  N_33
   16  A    between atoms: C_35  and  C_36
   17  A    between atoms: C_35  and  C_41
   18  A    between atoms: C_36  and  C_53
   19  A    between atoms: C_41  and  C_44
   20  A    between atoms: C_42  and  C_44
   21  A    between atoms: C_44  and  C_50
   22  A    between atoms: C_45  and  C_51
   23  A    between atoms: O_49  and  C_57
                            x       y       z     vdW  Elec       q    Type
                         _______ _______ _______ _____ _____    ______ ____

>  <TORSDO>
F 23

$$$$
=
 OpenBabel11042415453D

 59 64  0  0  1  0  0  0  0  0999 V2000
  189.7590  172.2170  144.5810 C   0  0  0  0  0  3  0  0  0  0  0  0
  191.9900  171.4680  144.1220 C   0  0  0  0  0  0  0  0  0  0  0  0
  192.3720  172.7500  143.8080 C   0  0  0  0  0  0  0  0  0  0  0  0
  194.6140  173.7910  142.8050 C   0  0  0  0  0  2  0  0  0  0  0  0
  190.1460  173.5340  144.2690 C   0  0  0  0  0  3  0  0  0  0  0  0
  194.6630  173.5930  144.3100 C   0  0  0  0  0  2  0  0  0  0  0  0
  190.6860  171.1690  144.5090 C   0  0  0  0  0  3  0  0  0  0  0  0
  191.4650  173.8180  143.8620 C   0  0  0  0  0  0  0  0  0  0  0  0
  193.8120  172.6850  143.4540 C   0  0  0  0  0  0  0  0  0  0  0  0
  193.0540  170.5270  144.0180 N   0  0  0  0  0  2  0  0  0  0  0  0
  194.2600  171.2270  143.5670 C   0  0  1  0  0  3  0  0  0  0  0  0
  194.9880  170.2900  141.1720 C   0  0  0  0  0  0  0  0  0  0  0  0
  194.6570  170.7020  142.2560 C   0  0  0  0  0  0  0  0  0  0  0  0
  195.3980  169.8080  139.8480 C   0  0  2  0  0  3  0  0  0  0  0  0
  196.0060  170.9290  139.0040 C   0  0  0  0  0  2  0  0  0  0  0  0
  195.0860  171.3650  137.8690 C   0  0  0  0  0  2  0  0  0  0  0  0
  195.8210  172.3110  136.9250 C   0  0  0  0  0  2  0  0  0  0  0  0
  196.7550  174.5300  136.7130 O   0  0  0  0  0  1  0  0  0  0  0  0
  196.4190  173.5330  137.6330 C   0  0  1  0  0  3  0  0  0  0  0  0
  195.5550  174.1090  138.7620 C   0  0  1  0  0  3  0  0  0  0  0  0
  196.3170  174.4420  139.8840 O   0  0  0  0  0  1  0  0  0  0  0  0
  194.7010  175.2880  138.3130 C   0  0  0  0  0  2  0  0  0  0  0  0
  193.4470  174.8480  137.8100 O   0  0  0  0  0  0  0  0  0  0  0  0
  192.8820  176.4190  136.2190 O   0  0  0  0  0  0  0  0  0  0  0  0
  192.6200  174.1570  135.5660 C   0  0  0  0  0  1  0  0  0  0  0  0
  192.9910  175.2100  136.5430 C   0  0  0  0  0  0  0  0  0  0  0  0
  194.2380  169.1320  139.1330 C   0  0  0  0  0  2  0  0  0  0  0  0
  193.0920  168.8940  140.0970 C   0  0  0  0  0  2  0  0  0  0  0  0
  191.7690  169.2890  139.4650 C   0  0  0  0  0  2  0  0  0  0  0  0
  191.7440  170.7850  139.2030 C   0  0  0  0  0  2  0  0  0  0  0  0
  190.8240  171.4890  140.1870 C   0  0  0  0  0  2  0  0  0  0  0  0
  188.6660  172.6080  139.6940 C   0  0  0  0  0  3  0  0  0  0  0  0
  189.9740  172.4320  139.4790 N   0  0  0  0  0  0  0  0  0  0  0  0
  190.3600  173.2260  138.4680 C   0  0  0  0  0  3  0  0  0  0  0  0
  189.2680  173.9450  138.0260 C   0  0  0  0  0  3  0  0  0  0  0  0
  188.1920  173.5540  138.8050 C   0  0  0  0  0  3  0  0  0  0  0  0
  191.9150  175.2320  143.6240 C   0  0  0  0  0  2  0  0  0  0  0  0
  191.4190  175.7420  142.4200 O   0  0  0  0  0  0  0  0  0  0  0  0
  190.2130  177.7910  142.7500 C   0  0  0  0  0  0  0  0  0  0  0  0
  190.1710  176.2870  142.7430 C   0  0  1  0  0  3  0  0  0  0  0  0
  187.7760  176.4330  142.0400 C   0  0  0  0  0  2  0  0  0  0  0  0
  189.1200  175.7750  141.7600 C   0  0  0  0  0  2  0  0  0  0  0  0
  191.2430  178.3960  143.1560 O   0  0  0  0  0  0  0  0  0  0  0  0
  187.8670  177.9340  141.7680 C   0  0  2  0  0  3  0  0  0  0  0  0
  189.0350  178.5360  142.4250 N   0  0  0  0  0  2  0  0  0  0  0  0
  185.4040  177.9270  141.6120 C   0  0  1  0  0  3  0  0  0  0  0  0
  186.5450  178.8460  143.6050 C   0  0  1  0  0  3  0  0  0  0  0  0
  186.6110  178.5980  142.1490 N   0  0  1  0  0  0  0  0  0  0  0  0
  184.1770  178.3100  142.3870 C   0  0  0  0  0  0  0  0  0  0  0  0
  185.4580  179.7060  143.8750 O   0  0  0  0  0  0  0  0  0  0  0  0
  183.0450  177.8720  142.0530 O   0  0  0  0  0  0  0  0  0  0  0  0
  184.3130  179.0610  143.5580 O   0  0  0  0  0  0  0  0  0  0  0  0
  185.2130  178.2840  140.1400 C   0  0  0  0  0  1  0  0  0  0  0  0
  186.5310  177.5590  144.4700 C   0  0  1  0  0  3  0  0  0  0  0  0
  187.8280  177.4530  145.2520 C   0  0  0  0  0  1  0  0  0  0  0  0
  185.3710  177.5390  145.4620 C   0  0  0  0  0  2  0  0  0  0  0  0
  185.8240  177.9780  146.8480 C   0  0  0  0  0  3  0  0  0  0  0  0
  185.8080  176.7990  147.8010 C   0  0  0  0  0  1  0  0  0  0  0  0
  184.8740  179.0390  147.3670 C   0  0  0  0  0  1  0  0  0  0  0  0
  2  7  2  0  0  0  0
  3  8  2  0  0  0  0
  3  2  1  0  0  0  0
  4  9  1  0  0  0  0
  4  6  1  0  0  0  0
  5  1  2  0  0  0  0
  7  1  1  0  0  0  0
  8  5  1  0  0  0  0
  9 11  1  0  0  0  0
  9  3  1  0  0  0  0
  9  6  1  0  0  0  0
 10  2  1  0  0  0  0
 11 13  1  6  0  0  0
 11 10  1  0  0  0  0
 12 13  3  0  0  0  0
 14 15  1  6  0  0  0
 14 12  1  0  0  0  0
 16 15  1  0  0  0  0
 17 19  1  0  0  0  0
 17 16  1  0  0  0  0
 19 18  1  6  0  0  0
 19 20  1  0  0  0  0
 20 21  1  1  0  0  0
 22 20  1  0  0  0  0
 23 22  1  0  0  0  0
 24 26  2  0  0  0  0
 25 26  1  0  0  0  0
 26 23  1  0  0  0  0
 27 14  1  0  0  0  0
 27 28  1  0  0  0  0
 29 28  1  0  0  0  0
 30 29  1  0  0  0  0
 30 31  1  0  0  0  0
 33 32  1  0  0  0  0
 33 31  1  0  0  0  0
 34 33  1  0  0  0  0
 35 34  2  0  0  0  0
 35 36  1  0  0  0  0
 36 32  2  0  0  0  0
 37  8  1  0  0  0  0
 38 37  1  0  0  0  0
 39 43  2  0  0  0  0
 40 38  1  6  0  0  0
 40 39  1  0  0  0  0
 42 41  1  0  0  0  0
 42 40  1  0  0  0  0
 44 41  1  1  0  0  0
 44 45  1  0  0  0  0
 45 39  1  0  0  0  0
 46 53  1  6  0  0  0
 46 48  1  0  0  0  0
 46 49  1  0  0  0  0
 47 50  1  0  0  0  0
 47 54  1  1  0  0  0
 48 44  1  1  0  0  0
 48 47  1  0  0  0  0
 49 52  1  0  0  0  0
 51 49  2  0  0  0  0
 52 50  1  0  0  0  0
 54 55  1  1  0  0  0
 54 56  1  0  0  0  0
 56 57  1  0  0  0  0
 57 59  1  0  0  0  0
 57 58  1  0  0  0  0
M  END
>  <MODEL>
8

>  <REMARK>
 VINA RESULT:      -4.4      2.426      7.079
  Name = 
  23 active torsions:
  status: ('A' for Active; 'I' for Inactive)
    1  A    between atoms: C_3  and  C_30
    2  A    between atoms: C_3  and  C_40
    3  A    between atoms: C_6  and  C_26
    4  A    between atoms: C_6  and  O_46
    5  A    between atoms: C_8  and  C_40
    6  A    between atoms: C_8  and  C_42
    7  A    between atoms: C_9  and  O_46
    8  A    between atoms: C_14  and  C_22
    9  A    between atoms: C_15  and  C_27
   10  A    between atoms: C_15  and  O_49
   11  A    between atoms: N_16  and  C_31
   12  A    between atoms: C_22  and  C_47
   13  A    between atoms: C_25  and  C_47
   14  A    between atoms: C_27  and  C_53
   15  A    between atoms: C_30  and  N_33
   16  A    between atoms: C_35  and  C_36
   17  A    between atoms: C_35  and  C_41
   18  A    between atoms: C_36  and  C_53
   19  A    between atoms: C_41  and  C_44
   20  A    between atoms: C_42  and  C_44
   21  A    between atoms: C_44  and  C_50
   22  A    between atoms: C_45  and  C_51
   23  A    between atoms: O_49  and  C_57
                            x       y       z     vdW  Elec       q    Type
                         _______ _______ _______ _____ _____    ______ ____

>  <TORSDO>
F 23

$$$$
=
 OpenBabel11042415453D

 59 64  0  0  1  0  0  0  0  0999 V2000
  194.8600  175.6900  145.5750 C   0  0  0  0  0  3  0  0  0  0  0  0
  196.1960  175.1130  143.6690 C   0  0  0  0  0  0  0  0  0  0  0  0
  195.1060  175.2560  142.8440 C   0  0  0  0  0  0  0  0  0  0  0  0
  194.7000  174.7560  140.2550 C   0  0  0  0  0  2  0  0  0  0  0  0
  193.7430  175.8460  144.7340 C   0  0  0  0  0  3  0  0  0  0  0  0
  195.3310  176.1130  140.5150 C   0  0  0  0  0  2  0  0  0  0  0  0
  196.1020  175.3200  145.0430 C   0  0  0  0  0  3  0  0  0  0  0  0
  193.8480  175.6170  143.3480 C   0  0  0  0  0  0  0  0  0  0  0  0
  195.5800  174.9680  141.4670 C   0  0  0  0  0  0  0  0  0  0  0  0
  197.3820  174.7550  142.9690 N   0  0  0  0  0  2  0  0  0  0  0  0
  197.0670  174.6150  141.5440 C   0  0  1  0  0  3  0  0  0  0  0  0
  197.4620  172.0750  140.8140 C   0  0  0  0  0  0  0  0  0  0  0  0
  197.2930  173.2240  141.1380 C   0  0  0  0  0  0  0  0  0  0  0  0
  197.6510  170.6710  140.4310 C   0  0  2  0  0  3  0  0  0  0  0  0
  197.3720  170.4520  138.9430 C   0  0  0  0  0  2  0  0  0  0  0  0
  196.2980  171.3910  138.4090 C   0  0  0  0  0  2  0  0  0  0  0  0
  196.8710  172.2840  137.3140 C   0  0  0  0  0  2  0  0  0  0  0  0
  197.4410  174.5640  137.8850 O   0  0  0  0  0  1  0  0  0  0  0  0
  196.4110  173.7440  137.4160 C   0  0  1  0  0  3  0  0  0  0  0  0
  195.8070  174.3190  136.1290 C   0  0  1  0  0  3  0  0  0  0  0  0
  196.0490  173.4970  135.0250 O   0  0  0  0  0  1  0  0  0  0  0  0
  194.3210  174.6330  136.2600 C   0  0  0  0  0  2  0  0  0  0  0  0
  193.5290  173.5980  135.6930 O   0  0  0  0  0  0  0  0  0  0  0  0
  192.7470  172.5380  137.5860 O   0  0  0  0  0  0  0  0  0  0  0  0
  193.3440  171.1170  135.7870 C   0  0  0  0  0  1  0  0  0  0  0  0
  193.1850  172.4540  136.4120 C   0  0  0  0  0  0  0  0  0  0  0  0
  196.8070  169.7520  141.3010 C   0  0  0  0  0  2  0  0  0  0  0  0
  197.0970  170.0060  142.7680 C   0  0  0  0  0  2  0  0  0  0  0  0
  196.0500  169.3380  143.6430 C   0  0  0  0  0  2  0  0  0  0  0  0
  194.6640  169.5740  143.0680 C   0  0  0  0  0  2  0  0  0  0  0  0
  193.7210  170.1040  144.1360 C   0  0  0  0  0  2  0  0  0  0  0  0
  191.8020  169.9560  142.5710 C   0  0  0  0  0  3  0  0  0  0  0  0
  192.5010  170.5940  143.5170 N   0  0  0  0  0  0  0  0  0  0  0  0
  191.9230  171.7810  143.7580 C   0  0  0  0  0  3  0  0  0  0  0  0
  190.8100  171.9060  142.9510 C   0  0  0  0  0  3  0  0  0  0  0  0
  190.7310  170.7470  142.1980 C   0  0  0  0  0  3  0  0  0  0  0  0
  192.6890  175.8780  142.4290 C   0  0  0  0  0  2  0  0  0  0  0  0
  191.5110  175.2800  142.8910 O   0  0  0  0  0  0  0  0  0  0  0  0
  189.2700  175.5680  142.0800 C   0  0  0  0  0  0  0  0  0  0  0  0
  190.5050  176.2200  142.6410 C   0  0  1  0  0  3  0  0  0  0  0  0
  189.0250  177.9380  143.6950 C   0  0  0  0  0  2  0  0  0  0  0  0
  190.1840  176.9790  143.9270 C   0  0  0  0  0  2  0  0  0  0  0  0
  189.3710  174.5890  141.2900 O   0  0  0  0  0  0  0  0  0  0  0  0
  187.7550  177.1490  143.3800 C   0  0  2  0  0  3  0  0  0  0  0  0
  187.9850  176.1430  142.3350 N   0  0  0  0  0  2  0  0  0  0  0  0
  185.7150  177.5100  142.0380 C   0  0  1  0  0  3  0  0  0  0  0  0
  185.9880  178.5930  144.2450 C   0  0  1  0  0  3  0  0  0  0  0  0
  186.6570  178.0680  143.0360 N   0  0  1  0  0  0  0  0  0  0  0  0
  184.3960  178.2260  142.0750 C   0  0  0  0  0  0  0  0  0  0  0  0
  185.1320  179.6530  143.8710 O   0  0  0  0  0  0  0  0  0  0  0  0
  183.4790  177.9200  141.2690 O   0  0  0  0  0  0  0  0  0  0  0  0
  184.1470  179.1530  143.0910 O   0  0  0  0  0  0  0  0  0  0  0  0
  186.3120  177.6090  140.6360 C   0  0  0  0  0  1  0  0  0  0  0  0
  185.2790  177.5130  145.1010 C   0  0  1  0  0  3  0  0  0  0  0  0
  186.2420  176.3760  145.3950 C   0  0  0  0  0  1  0  0  0  0  0  0
  184.7710  178.0660  146.4310 C   0  0  0  0  0  2  0  0  0  0  0  0
  185.9200  178.3000  147.4030 C   0  0  0  0  0  3  0  0  0  0  0  0
  185.7250  177.4650  148.6540 C   0  0  0  0  0  1  0  0  0  0  0  0
  185.9470  179.7650  147.7930 C   0  0  0  0  0  1  0  0  0  0  0  0
  2  7  2  0  0  0  0
  3  8  2  0  0  0  0
  3  2  1  0  0  0  0
  4  6  1  0  0  0  0
  4  9  1  0  0  0  0
  5  1  2  0  0  0  0
  6  9  1  0  0  0  0
  7  1  1  0  0  0  0
  8  5  1  0  0  0  0
  9 11  1  0  0  0  0
  9  3  1  0  0  0  0
 10  2  1  0  0  0  0
 11 13  1  1  0  0  0
 11 10  1  0  0  0  0
 12 13  3  0  0  0  0
 14 15  1  6  0  0  0
 14 12  1  0  0  0  0
 14 27  1  0  0  0  0
 16 15  1  0  0  0  0
 17 19  1  0  0  0  0
 17 16  1  0  0  0  0
 19 18  1  6  0  0  0
 20 21  1  6  0  0  0
 20 22  1  0  0  0  0
 20 19  1  0  0  0  0
 23 22  1  0  0  0  0
 23 26  1  0  0  0  0
 25 26  1  0  0  0  0
 26 24  2  0  0  0  0
 27 28  1  0  0  0  0
 28 29  1  0  0  0  0
 30 29  1  0  0  0  0
 30 31  1  0  0  0  0
 32 33  1  0  0  0  0
 33 34  1  0  0  0  0
 33 31  1  0  0  0  0
 35 34  2  0  0  0  0
 36 32  2  0  0  0  0
 36 35  1  0  0  0  0
 37 38  1  0  0  0  0
 37  8  1  0  0  0  0
 39 45  1  0  0  0  0
 39 40  1  0  0  0  0
 40 38  1  1  0  0  0
 40 42  1  0  0  0  0
 41 42  1  0  0  0  0
 43 39  2  0  0  0  0
 44 41  1  6  0  0  0
 45 44  1  0  0  0  0
 46 53  1  6  0  0  0
 46 49  1  0  0  0  0
 46 48  1  0  0  0  0
 47 54  1  6  0  0  0
 48 44  1  1  0  0  0
 48 47  1  0  0  0  0
 49 52  1  0  0  0  0
 50 47  1  0  0  0  0
 51 49  2  0  0  0  0
 52 50  1  0  0  0  0
 54 55  1  1  0  0  0
 54 56  1  0  0  0  0
 56 57  1  0  0  0  0
 57 59  1  0  0  0  0
 57 58  1  0  0  0  0
M  END
>  <MODEL>
9

>  <REMARK>
 VINA RESULT:      -4.2      2.581      7.509
  Name = 
  23 active torsions:
  status: ('A' for Active; 'I' for Inactive)
    1  A    between atoms: C_3  and  C_30
    2  A    between atoms: C_3  and  C_40
    3  A    between atoms: C_6  and  C_26
    4  A    between atoms: C_6  and  O_46
    5  A    between atoms: C_8  and  C_40
    6  A    between atoms: C_8  and  C_42
    7  A    between atoms: C_9  and  O_46
    8  A    between atoms: C_14  and  C_22
    9  A    between atoms: C_15  and  C_27
   10  A    between atoms: C_15  and  O_49
   11  A    between atoms: N_16  and  C_31
   12  A    between atoms: C_22  and  C_47
   13  A    between atoms: C_25  and  C_47
   14  A    between atoms: C_27  and  C_53
   15  A    between atoms: C_30  and  N_33
   16  A    between atoms: C_35  and  C_36
   17  A    between atoms: C_35  and  C_41
   18  A    between atoms: C_36  and  C_53
   19  A    between atoms: C_41  and  C_44
   20  A    between atoms: C_42  and  C_44
   21  A    between atoms: C_44  and  C_50
   22  A    between atoms: C_45  and  C_51
   23  A    between atoms: O_49  and  C_57
                            x       y       z     vdW  Elec       q    Type
                         _______ _______ _______ _____ _____    ______ ____

>  <TORSDO>
F 23

$$$$
