=
 OpenBabel11042415163D

 45 51  0  0  1  0  0  0  0  0999 V2000
  186.2640  177.2590  148.0170 O   0  0  0  0  0  0  0  0  0  0  0  0
  186.2810  178.4330  145.9050 C   0  0  2  0  0  3  0  0  0  0  0  0
  185.2340  178.7890  145.1010 C   0  0  2  0  0  3  0  0  0  0  0  0
  190.3710  176.1770  144.3210 O   0  0  0  0  0  0  0  0  0  0  0  0
  190.5070  176.8330  146.5860 C   0  0  0  0  0  3  0  0  0  0  0  0
  188.8370  178.2940  147.6480 C   0  0  0  0  0  1  0  0  0  0  0  0
  186.7040  177.9750  143.8020 C   0  0  0  0  0  0  0  0  0  0  0  0
  187.2580  177.9230  145.0690 C   0  0  0  0  0  0  0  0  0  0  0  0
  187.3340  177.4050  142.7020 C   0  0  0  0  0  3  0  0  0  0  0  0
  183.9180  178.7090  145.8070 C   0  0  0  0  0  3  0  0  0  0  0  0
  188.5740  176.7770  142.8930 C   0  0  0  0  0  0  0  0  0  0  0  0
  191.0380  176.1740  145.4720 C   0  0  0  0  0  0  0  0  0  0  0  0
  185.4490  178.4760  143.8060 N   0  0  0  0  0  2  0  0  0  0  0  0
  184.2690  178.1210  147.1030 N   0  0  0  0  0  0  0  0  0  0  0  0
  185.6780  177.9200  147.1210 C   0  0  0  0  0  0  0  0  0  0  0  0
  189.2600  177.4470  146.4970 C   0  0  0  0  0  0  0  0  0  0  0  0
  188.5370  177.3660  145.2880 C   0  0  0  0  0  0  0  0  0  0  0  0
  189.1810  176.7550  144.1720 C   0  0  2  0  0  3  0  0  0  0  0  0
  194.8500  174.2840  145.7070 C   0  0  0  0  0  0  0  0  0  0  0  0
  193.4770  176.2410  145.7190 N   0  0  0  0  0  0  0  0  0  0  0  0
  193.7000  173.4930  145.5240 C   0  0  0  0  0  0  0  0  0  0  0  0
  196.2240  173.6780  145.8040 C   0  0  0  0  0  2  0  0  0  0  0  0
  192.3470  175.4980  145.5440 C   0  0  0  0  0  0  0  0  0  0  0  0
  196.2220  172.1740  145.7410 C   0  0  0  0  0  0  0  0  0  0  0  0
  193.8030  172.0320  145.4200 C   0  0  0  0  0  3  0  0  0  0  0  0
  194.7090  175.6700  145.7990 C   0  0  0  0  0  3  0  0  0  0  0  0
  194.9790  171.4140  145.5240 C   0  0  0  0  0  3  0  0  0  0  0  0
  192.4480  174.1030  145.4410 C   0  0  0  0  0  3  0  0  0  0  0  0
  197.3060  171.5500  145.8750 O   0  0  0  0  0  0  0  0  0  0  0  0
  189.2610  176.1800  141.7110 C   0  0  0  0  0  2  0  0  0  0  0  0
  189.0970  174.7350  141.7320 N   0  0  0  0  0  2  0  0  0  0  0  0
  190.2400  174.1630  141.0370 C   0  0  2  0  0  3  0  0  0  0  0  0
  189.7600  173.2000  139.9610 C   0  0  0  0  0  1  0  0  0  0  0  0
  191.2000  173.5130  142.0460 C   0  0  2  0  0  3  0  0  0  0  0  0
  192.7800  175.4470  142.0260 C   0  0  0  0  0  3  0  0  0  0  0  0
  192.5960  174.0610  142.0060 C   0  0  0  0  0  0  0  0  0  0  0  0
  195.0030  173.7570  141.9190 C   0  0  0  0  0  3  0  0  0  0  0  0
  193.7150  173.2170  141.9510 C   0  0  0  0  0  3  0  0  0  0  0  0
  194.0680  175.9880  141.9970 C   0  0  0  0  0  3  0  0  0  0  0  0
  195.1920  175.1470  141.9460 C   0  0  0  0  0  0  0  0  0  0  0  0
  196.5210  175.6940  141.9220 N   0  0  0  0  0  0  0  0  0  0  0  0
  197.2850  175.5730  140.8100 O   0  0  0  0  0  1  0  0  0  0  0  0
  197.0950  176.3440  143.0920 C   0  0  0  0  0  1  0  0  0  0  0  0
  190.9070  171.5520  143.4350 O   0  0  0  0  0  1  0  0  0  0  0  0
  191.1340  171.9840  142.1270 C   0  0  0  0  0  2  0  0  0  0  0  0
  2  8  1  6  0  0  0
  2 15  1  0  0  0  0
  3 10  1  1  0  0  0
  3  2  1  0  0  0  0
  4 12  1  0  0  0  0
  7 13  1  0  0  0  0
  7  8  2  0  0  0  0
  8 17  1  0  0  0  0
  9 11  2  0  0  0  0
  9  7  1  0  0  0  0
 10 14  2  0  0  0  0
 12 23  1  0  0  0  0
 12  5  2  0  0  0  0
 13  3  1  0  0  0  0
 14 15  1  0  0  0  0
 15  1  2  0  0  0  0
 16  5  1  0  0  0  0
 16  6  1  0  0  0  0
 17 16  2  0  0  0  0
 18 11  1  6  0  0  0
 18  4  1  0  0  0  0
 18 17  1  0  0  0  0
 19 26  1  0  0  0  0
 19 22  1  0  0  0  0
 20 26  2  0  0  0  0
 21 19  2  0  0  0  0
 23 20  1  0  0  0  0
 24 22  1  0  0  0  0
 24 29  2  0  0  0  0
 25 27  2  0  0  0  0
 25 21  1  0  0  0  0
 27 24  1  0  0  0  0
 28 21  1  0  0  0  0
 28 23  2  0  0  0  0
 30 31  1  0  0  0  0
 30 11  1  0  0  0  0
 32 33  1  6  0  0  0
 32 31  1  0  0  0  0
 32 34  1  0  0  0  0
 34 45  1  6  0  0  0
 36 35  1  0  0  0  0
 36 34  1  0  0  0  0
 37 40  2  0  0  0  0
 37 38  1  0  0  0  0
 38 36  2  0  0  0  0
 39 35  2  0  0  0  0
 40 39  1  0  0  0  0
 41 40  1  0  0  0  0
 41 43  1  0  0  0  0
 42 41  1  0  0  0  0
 45 44  1  0  0  0  0
M  END
>  <MODEL>
1

>  <REMARK>
 VINA RESULT:      -8.3      0.000      0.000
  Name = 
  8 active torsions:
  status: ('A' for Active; 'I' for Inactive)
    1  A    between atoms: C_1  and  C_12
    2  A    between atoms: C_1  and  N_30
    3  A    between atoms: C_9  and  C_12
    4  A    between atoms: C_12  and  C_31
    5  A    between atoms: N_16  and  C_43
    6  A    between atoms: C_17  and  C_28
    7  A    between atoms: C_24  and  C_33
    8  A    between atoms: N_30  and  C_33
                            x       y       z     vdW  Elec       q    Type
                         _______ _______ _______ _____ _____    ______ ____

>  <TORSDO>
F 8

$$$$
=
 OpenBabel11042415163D

 45 51  0  0  1  0  0  0  0  0999 V2000
  186.6640  177.4050  147.8770 O   0  0  0  0  0  0  0  0  0  0  0  0
  186.3830  177.9510  145.5400 C   0  0  2  0  0  3  0  0  0  0  0  0
  185.2410  178.2550  144.8510 C   0  0  2  0  0  3  0  0  0  0  0  0
  189.7530  174.6750  144.0430 O   0  0  0  0  0  0  0  0  0  0  0  0
  190.4350  175.8790  145.9570 C   0  0  0  0  0  3  0  0  0  0  0  0
  189.2090  177.8390  146.7990 C   0  0  0  0  0  1  0  0  0  0  0  0
  186.3000  176.8800  143.6280 C   0  0  0  0  0  0  0  0  0  0  0  0
  187.0960  177.0720  144.7430 C   0  0  0  0  0  0  0  0  0  0  0  0
  186.6150  175.9350  142.6580 C   0  0  0  0  0  3  0  0  0  0  0  0
  184.1020  178.5980  145.7560 C   0  0  0  0  0  3  0  0  0  0  0  0
  187.7830  175.1750  142.8180 C   0  0  0  0  0  0  0  0  0  0  0  0
  190.6390  174.8630  145.0170 C   0  0  0  0  0  0  0  0  0  0  0  0
  185.1430  177.5750  143.6900 N   0  0  0  0  0  2  0  0  0  0  0  0
  184.6410  178.3270  147.0920 N   0  0  0  0  0  0  0  0  0  0  0  0
  185.9890  177.8940  146.9350 C   0  0  0  0  0  0  0  0  0  0  0  0
  189.2790  176.6540  145.8980 C   0  0  0  0  0  0  0  0  0  0  0  0
  188.3160  176.3800  144.9030 C   0  0  0  0  0  0  0  0  0  0  0  0
  188.6350  175.3910  143.9280 C   0  0  2  0  0  3  0  0  0  0  0  0
  194.0840  172.3580  145.1260 C   0  0  0  0  0  0  0  0  0  0  0  0
  191.7500  172.6940  144.7380 N   0  0  0  0  0  0  0  0  0  0  0  0
  194.2090  173.7160  145.4730 C   0  0  0  0  0  0  0  0  0  0  0  0
  195.2630  171.4230  145.1380 C   0  0  0  0  0  2  0  0  0  0  0  0
  191.8430  174.0140  145.0680 C   0  0  0  0  0  0  0  0  0  0  0  0
  196.5590  172.0960  145.5000 C   0  0  0  0  0  0  0  0  0  0  0  0
  195.5110  174.2740  145.8650 C   0  0  0  0  0  3  0  0  0  0  0  0
  192.8290  171.8670  144.7610 C   0  0  0  0  0  3  0  0  0  0  0  0
  196.6090  173.5190  145.8760 C   0  0  0  0  0  3  0  0  0  0  0  0
  193.0860  174.5430  145.4460 C   0  0  0  0  0  3  0  0  0  0  0  0
  197.6260  171.4290  145.4820 O   0  0  0  0  0  0  0  0  0  0  0  0
  188.1320  174.1730  141.7700 C   0  0  0  0  0  2  0  0  0  0  0  0
  188.9320  174.8090  140.7350 N   0  0  0  0  0  2  0  0  0  0  0  0
  189.7610  173.7750  140.1360 C   0  0  2  0  0  3  0  0  0  0  0  0
  188.8890  172.8110  139.3440 C   0  0  0  0  0  1  0  0  0  0  0  0
  190.6010  173.0800  141.2190 C   0  0  2  0  0  3  0  0  0  0  0  0
  193.0860  172.8350  141.2960 C   0  0  0  0  0  3  0  0  0  0  0  0
  191.9680  173.6690  141.4070 C   0  0  0  0  0  0  0  0  0  0  0  0
  193.4360  175.5520  141.8520 C   0  0  0  0  0  3  0  0  0  0  0  0
  192.1490  175.0320  141.6870 C   0  0  0  0  0  3  0  0  0  0  0  0
  194.3720  173.3560  141.4580 C   0  0  0  0  0  3  0  0  0  0  0  0
  194.5590  174.7200  141.7350 C   0  0  0  0  0  0  0  0  0  0  0  0
  195.8780  175.2650  141.8970 N   0  0  0  0  0  0  0  0  0  0  0  0
  196.8300  174.5590  142.5550 O   0  0  0  0  0  1  0  0  0  0  0  0
  196.2160  176.5940  141.4070 C   0  0  0  0  0  1  0  0  0  0  0  0
  189.9320  171.0200  142.3010 O   0  0  0  0  0  1  0  0  0  0  0  0
  190.5840  171.5480  141.1840 C   0  0  0  0  0  2  0  0  0  0  0  0
  2  8  1  6  0  0  0
  2 15  1  0  0  0  0
  3  2  1  0  0  0  0
  3 10  1  1  0  0  0
  4 12  1  0  0  0  0
  7 13  1  0  0  0  0
  7  8  2  0  0  0  0
  8 17  1  0  0  0  0
  9 11  2  0  0  0  0
  9  7  1  0  0  0  0
 10 14  2  0  0  0  0
 12 23  1  0  0  0  0
 12  5  2  0  0  0  0
 13  3  1  0  0  0  0
 15 14  1  0  0  0  0
 15  1  2  0  0  0  0
 16  5  1  0  0  0  0
 16  6  1  0  0  0  0
 17 16  2  0  0  0  0
 18 11  1  6  0  0  0
 18  4  1  0  0  0  0
 18 17  1  0  0  0  0
 19 22  1  0  0  0  0
 19 21  1  0  0  0  0
 20 26  1  0  0  0  0
 20 23  2  0  0  0  0
 21 25  1  0  0  0  0
 22 24  1  0  0  0  0
 23 28  1  0  0  0  0
 24 27  1  0  0  0  0
 25 27  2  0  0  0  0
 26 19  2  0  0  0  0
 28 21  2  0  0  0  0
 29 24  2  0  0  0  0
 30 11  1  0  0  0  0
 31 30  1  0  0  0  0
 32 33  1  1  0  0  0
 32 31  1  0  0  0  0
 32 34  1  0  0  0  0
 34 45  1  6  0  0  0
 34 36  1  0  0  0  0
 35 36  2  0  0  0  0
 35 39  1  0  0  0  0
 36 38  1  0  0  0  0
 38 37  2  0  0  0  0
 39 40  2  0  0  0  0
 40 37  1  0  0  0  0
 40 41  1  0  0  0  0
 41 42  1  0  0  0  0
 43 41  1  0  0  0  0
 45 44  1  0  0  0  0
M  END
>  <MODEL>
2

>  <REMARK>
 VINA RESULT:      -8.2      1.219      1.753
  Name = 
  8 active torsions:
  status: ('A' for Active; 'I' for Inactive)
    1  A    between atoms: C_1  and  C_12
    2  A    between atoms: C_1  and  N_30
    3  A    between atoms: C_9  and  C_12
    4  A    between atoms: C_12  and  C_31
    5  A    between atoms: N_16  and  C_43
    6  A    between atoms: C_17  and  C_28
    7  A    between atoms: C_24  and  C_33
    8  A    between atoms: N_30  and  C_33
                            x       y       z     vdW  Elec       q    Type
                         _______ _______ _______ _____ _____    ______ ____

>  <TORSDO>
F 8

$$$$
=
 OpenBabel11042415163D

 45 51  0  0  1  0  0  0  0  0999 V2000
  195.7620  176.7510  144.3200 O   0  0  0  0  0  0  0  0  0  0  0  0
  195.6490  174.4320  144.9890 C   0  0  2  0  0  3  0  0  0  0  0  0
  196.4180  173.3750  144.5880 C   0  0  2  0  0  3  0  0  0  0  0  0
  190.7200  174.3900  145.1570 O   0  0  0  0  0  0  0  0  0  0  0  0
  191.6510  176.3460  146.1000 C   0  0  0  0  0  3  0  0  0  0  0  0
  194.0590  176.5930  146.5340 C   0  0  0  0  0  1  0  0  0  0  0  0
  194.4130  172.6770  144.5400 C   0  0  0  0  0  0  0  0  0  0  0  0
  194.3390  173.9850  144.9860 C   0  0  0  0  0  0  0  0  0  0  0  0
  193.2720  171.9340  144.2590 C   0  0  0  0  0  3  0  0  0  0  0  0
  197.6730  173.8080  143.9000 C   0  0  0  0  0  3  0  0  0  0  0  0
  192.0180  172.5330  144.4530 C   0  0  0  0  0  0  0  0  0  0  0  0
  190.5430  175.5970  145.6890 C   0  0  0  0  0  0  0  0  0  0  0  0
  195.6780  172.2940  144.2610 N   0  0  0  0  0  2  0  0  0  0  0  0
  197.5140  175.2620  143.7980 N   0  0  0  0  0  0  0  0  0  0  0  0
  196.2750  175.6060  144.4110 C   0  0  0  0  0  0  0  0  0  0  0  0
  192.9360  175.8450  145.9040 C   0  0  0  0  0  0  0  0  0  0  0  0
  193.0980  174.5980  145.2640 C   0  0  0  0  0  0  0  0  0  0  0  0
  191.9220  173.8540  144.9550 C   0  0  2  0  0  3  0  0  0  0  0  0
  186.5840  177.0640  146.2680 C   0  0  0  0  0  0  0  0  0  0  0  0
  188.4480  175.7350  146.9560 N   0  0  0  0  0  0  0  0  0  0  0  0
  187.3090  177.4690  145.1320 C   0  0  0  0  0  0  0  0  0  0  0  0
  185.1850  177.5510  146.5340 C   0  0  0  0  0  2  0  0  0  0  0  0
  189.1720  176.1120  145.8650 C   0  0  0  0  0  0  0  0  0  0  0  0
  184.6860  178.5320  145.5070 C   0  0  0  0  0  0  0  0  0  0  0  0
  186.7170  178.3910  144.1540 C   0  0  0  0  0  3  0  0  0  0  0  0
  187.1820  176.1850  147.1720 C   0  0  0  0  0  3  0  0  0  0  0  0
  185.4930  178.8900  144.3290 C   0  0  0  0  0  3  0  0  0  0  0  0
  188.6040  176.9900  144.9300 C   0  0  0  0  0  3  0  0  0  0  0  0
  183.5530  179.0570  145.6570 O   0  0  0  0  0  0  0  0  0  0  0  0
  190.7920  171.7330  144.1690 C   0  0  0  0  0  2  0  0  0  0  0  0
  190.7080  171.4610  142.7430 N   0  0  0  0  0  2  0  0  0  0  0  0
  190.3000  172.6970  142.0940 C   0  0  2  0  0  3  0  0  0  0  0  0
  188.7810  172.7600  142.0150 C   0  0  0  0  0  1  0  0  0  0  0  0
  190.9820  172.8230  140.7230 C   0  0  2  0  0  3  0  0  0  0  0  0
  193.3210  173.1830  139.9250 C   0  0  0  0  0  3  0  0  0  0  0  0
  192.2680  173.5960  140.7460 C   0  0  0  0  0  0  0  0  0  0  0  0
  193.6420  175.4230  141.5640 C   0  0  0  0  0  3  0  0  0  0  0  0
  192.4340  174.7210  141.5680 C   0  0  0  0  0  3  0  0  0  0  0  0
  194.5280  173.8860  139.9190 C   0  0  0  0  0  3  0  0  0  0  0  0
  194.6980  175.0150  140.7360 C   0  0  0  0  0  0  0  0  0  0  0  0
  195.9340  175.7490  140.7320 N   0  0  0  0  0  0  0  0  0  0  0  0
  195.9670  177.0280  141.1790 O   0  0  0  0  0  1  0  0  0  0  0  0
  197.1620  175.1640  140.2120 C   0  0  0  0  0  1  0  0  0  0  0  0
  189.8800  172.1120  138.6880 O   0  0  0  0  0  1  0  0  0  0  0  0
  190.0570  173.1900  139.5570 C   0  0  0  0  0  2  0  0  0  0  0  0
  1 15  2  0  0  0  0
  2 15  1  6  0  0  0
  3 10  1  6  0  0  0
  3  2  1  0  0  0  0
  4 12  1  0  0  0  0
  7  8  2  0  0  0  0
  8  2  1  0  0  0  0
  8 17  1  0  0  0  0
  9 11  2  0  0  0  0
  9  7  1  0  0  0  0
 12 23  1  0  0  0  0
 12  5  2  0  0  0  0
 13  7  1  0  0  0  0
 13  3  1  0  0  0  0
 14 10  2  0  0  0  0
 14 15  1  0  0  0  0
 16  5  1  0  0  0  0
 16  6  1  0  0  0  0
 17 16  2  0  0  0  0
 18 11  1  1  0  0  0
 18  4  1  0  0  0  0
 18 17  1  0  0  0  0
 19 22  1  0  0  0  0
 19 26  1  0  0  0  0
 20 26  2  0  0  0  0
 21 19  2  0  0  0  0
 23 20  1  0  0  0  0
 24 29  2  0  0  0  0
 24 22  1  0  0  0  0
 25 27  2  0  0  0  0
 25 21  1  0  0  0  0
 27 24  1  0  0  0  0
 28 21  1  0  0  0  0
 28 23  2  0  0  0  0
 30 11  1  0  0  0  0
 31 30  1  0  0  0  0
 32 33  1  6  0  0  0
 32 31  1  0  0  0  0
 34 45  1  6  0  0  0
 34 36  1  0  0  0  0
 34 32  1  0  0  0  0
 35 36  1  0  0  0  0
 36 38  2  0  0  0  0
 37 38  1  0  0  0  0
 39 35  2  0  0  0  0
 39 40  1  0  0  0  0
 40 37  2  0  0  0  0
 41 40  1  0  0  0  0
 41 42  1  0  0  0  0
 43 41  1  0  0  0  0
 44 45  1  0  0  0  0
M  END
>  <MODEL>
3

>  <REMARK>
 VINA RESULT:      -8.2      2.228      7.569
  Name = 
  8 active torsions:
  status: ('A' for Active; 'I' for Inactive)
    1  A    between atoms: C_1  and  C_12
    2  A    between atoms: C_1  and  N_30
    3  A    between atoms: C_9  and  C_12
    4  A    between atoms: C_12  and  C_31
    5  A    between atoms: N_16  and  C_43
    6  A    between atoms: C_17  and  C_28
    7  A    between atoms: C_24  and  C_33
    8  A    between atoms: N_30  and  C_33
                            x       y       z     vdW  Elec       q    Type
                         _______ _______ _______ _____ _____    ______ ____

>  <TORSDO>
F 8

$$$$
=
 OpenBabel11042415163D

 45 51  0  0  1  0  0  0  0  0999 V2000
  187.4750  177.6310  146.8950 O   0  0  0  0  0  0  0  0  0  0  0  0
  187.1310  177.4830  144.5080 C   0  0  2  0  0  3  0  0  0  0  0  0
  185.9640  177.5090  143.7970 C   0  0  2  0  0  3  0  0  0  0  0  0
  190.7060  174.1440  143.8790 O   0  0  0  0  0  0  0  0  0  0  0  0
  191.3230  175.8750  145.3620 C   0  0  0  0  0  3  0  0  0  0  0  0
  189.9720  177.9090  145.6640 C   0  0  0  0  0  1  0  0  0  0  0  0
  187.1030  175.9180  142.9720 C   0  0  0  0  0  0  0  0  0  0  0  0
  187.8960  176.4650  143.9660 C   0  0  0  0  0  0  0  0  0  0  0  0
  187.4730  174.7630  142.2930 C   0  0  0  0  0  3  0  0  0  0  0  0
  184.8130  178.0170  144.6040 C   0  0  0  0  0  3  0  0  0  0  0  0
  188.6930  174.1540  142.6230 C   0  0  0  0  0  0  0  0  0  0  0  0
  191.5880  174.6530  144.7360 C   0  0  0  0  0  0  0  0  0  0  0  0
  185.9010  176.5260  142.8730 N   0  0  0  0  0  2  0  0  0  0  0  0
  185.3840  178.1640  145.9460 N   0  0  0  0  0  0  0  0  0  0  0  0
  186.7570  177.7930  145.8760 C   0  0  0  0  0  0  0  0  0  0  0  0
  190.1150  176.5280  145.1250 C   0  0  0  0  0  0  0  0  0  0  0  0
  189.1630  175.9250  144.2750 C   0  0  0  0  0  0  0  0  0  0  0  0
  189.5400  174.7260  143.6040 C   0  0  2  0  0  3  0  0  0  0  0  0
  195.2610  172.6280  145.4880 C   0  0  0  0  0  0  0  0  0  0  0  0
  193.9660  174.6320  145.3350 N   0  0  0  0  0  0  0  0  0  0  0  0
  194.1240  171.8810  145.1270 C   0  0  0  0  0  0  0  0  0  0  0  0
  196.5850  171.9730  145.7730 C   0  0  0  0  0  2  0  0  0  0  0  0
  192.8490  173.9320  144.9850 C   0  0  0  0  0  0  0  0  0  0  0  0
  196.5430  170.4710  145.6840 C   0  0  0  0  0  0  0  0  0  0  0  0
  194.1930  170.4180  145.0140 C   0  0  0  0  0  3  0  0  0  0  0  0
  195.1540  174.0170  145.5830 C   0  0  0  0  0  3  0  0  0  0  0  0
  195.3210  169.7580  145.2760 C   0  0  0  0  0  3  0  0  0  0  0  0
  192.9180  172.5350  144.8730 C   0  0  0  0  0  3  0  0  0  0  0  0
  197.5750  169.8080  145.9640 O   0  0  0  0  0  0  0  0  0  0  0  0
  189.1010  172.9240  141.8850 C   0  0  0  0  0  2  0  0  0  0  0  0
  189.0000  173.1600  140.4530 N   0  0  0  0  0  2  0  0  0  0  0  0
  190.3430  173.4370  139.9680 C   0  0  2  0  0  3  0  0  0  0  0  0
  190.3690  173.3580  138.4490 C   0  0  0  0  0  1  0  0  0  0  0  0
  191.3510  172.4920  140.6400 C   0  0  2  0  0  3  0  0  0  0  0  0
  193.7540  172.3690  141.3110 C   0  0  0  0  0  3  0  0  0  0  0  0
  192.6240  173.1580  141.0720 C   0  0  0  0  0  0  0  0  0  0  0  0
  193.9080  175.1400  141.6350 C   0  0  0  0  0  3  0  0  0  0  0  0
  192.7060  174.5490  141.2370 C   0  0  0  0  0  3  0  0  0  0  0  0
  194.9560  172.9600  141.7070 C   0  0  0  0  0  3  0  0  0  0  0  0
  195.0450  174.3530  141.8700 C   0  0  0  0  0  0  0  0  0  0  0  0
  196.2780  174.9700  142.2710 N   0  0  0  0  0  0  0  0  0  0  0  0
  197.2930  174.2130  142.7530 O   0  0  0  0  0  1  0  0  0  0  0  0
  196.4570  176.4150  142.2150 C   0  0  0  0  0  1  0  0  0  0  0  0
  191.0370  170.0910  140.6900 O   0  0  0  0  0  1  0  0  0  0  0  0
  191.5610  171.1450  139.9380 C   0  0  0  0  0  2  0  0  0  0  0  0
  2  8  1  1  0  0  0
  2 15  1  0  0  0  0
  3  2  1  0  0  0  0
  3 10  1  1  0  0  0
  4 12  1  0  0  0  0
  7  8  2  0  0  0  0
  8 17  1  0  0  0  0
  9 11  2  0  0  0  0
  9  7  1  0  0  0  0
 10 14  2  0  0  0  0
 12 23  1  0  0  0  0
 12  5  2  0  0  0  0
 13  7  1  0  0  0  0
 13  3  1  0  0  0  0
 15 14  1  0  0  0  0
 15  1  2  0  0  0  0
 16  5  1  0  0  0  0
 16  6  1  0  0  0  0
 17 16  2  0  0  0  0
 18 11  1  6  0  0  0
 18  4  1  0  0  0  0
 18 17  1  0  0  0  0
 19 26  1  0  0  0  0
 19 22  1  0  0  0  0
 20 26  2  0  0  0  0
 21 19  2  0  0  0  0
 23 20  1  0  0  0  0
 24 22  1  0  0  0  0
 24 29  2  0  0  0  0
 25 21  1  0  0  0  0
 25 27  2  0  0  0  0
 27 24  1  0  0  0  0
 28 23  2  0  0  0  0
 28 21  1  0  0  0  0
 30 11  1  0  0  0  0
 31 30  1  0  0  0  0
 32 33  1  6  0  0  0
 32 31  1  0  0  0  0
 32 34  1  0  0  0  0
 34 45  1  6  0  0  0
 34 36  1  0  0  0  0
 35 39  1  0  0  0  0
 36 38  1  0  0  0  0
 36 35  2  0  0  0  0
 37 40  1  0  0  0  0
 38 37  2  0  0  0  0
 39 40  2  0  0  0  0
 40 41  1  0  0  0  0
 41 42  1  0  0  0  0
 43 41  1  0  0  0  0
 45 44  1  0  0  0  0
M  END
>  <MODEL>
4

>  <REMARK>
 VINA RESULT:      -7.7      1.497      2.008
  Name = 
  8 active torsions:
  status: ('A' for Active; 'I' for Inactive)
    1  A    between atoms: C_1  and  C_12
    2  A    between atoms: C_1  and  N_30
    3  A    between atoms: C_9  and  C_12
    4  A    between atoms: C_12  and  C_31
    5  A    between atoms: N_16  and  C_43
    6  A    between atoms: C_17  and  C_28
    7  A    between atoms: C_24  and  C_33
    8  A    between atoms: N_30  and  C_33
                            x       y       z     vdW  Elec       q    Type
                         _______ _______ _______ _____ _____    ______ ____

>  <TORSDO>
F 8

$$$$
=
 OpenBabel11042415163D

 45 51  0  0  1  0  0  0  0  0999 V2000
  190.4150  170.4860  139.8260 O   0  0  0  0  0  0  0  0  0  0  0  0
  192.0540  172.1770  139.2850 C   0  0  2  0  0  3  0  0  0  0  0  0
  193.3830  172.0360  138.9970 C   0  0  2  0  0  3  0  0  0  0  0  0
  190.2300  175.4300  142.5120 O   0  0  0  0  0  0  0  0  0  0  0  0
  188.5460  174.3030  141.2990 C   0  0  0  0  0  3  0  0  0  0  0  0
  189.0380  172.8750  139.3570 C   0  0  0  0  0  1  0  0  0  0  0  0
  193.2600  173.6630  140.3560 C   0  0  0  0  0  0  0  0  0  0  0  0
  191.9550  173.2500  140.1530 C   0  0  2  0  0  3  0  0  0  0  0  0
  193.5830  174.6340  141.2960 C   0  0  0  0  0  3  0  0  0  0  0  0
  193.7510  170.6240  138.6700 C   0  0  0  0  0  3  0  0  0  0  0  0
  192.5450  175.2170  142.0400 C   0  0  0  0  0  0  0  0  0  0  0  0
  188.9380  175.1850  142.3110 C   0  0  0  0  0  0  0  0  0  0  0  0
  194.1540  172.9100  139.6780 N   0  0  0  0  0  2  0  0  0  0  0  0
  192.5130  169.8850  138.9340 N   0  0  0  0  0  0  0  0  0  0  0  0
  191.5270  170.8260  139.3470 C   0  0  0  0  0  0  0  0  0  0  0  0
  189.5130  173.6470  140.5400 C   0  0  0  0  0  0  0  0  0  0  0  0
  190.8770  173.8630  140.8280 C   0  0  0  0  0  0  0  0  0  0  0  0
  191.1990  174.8420  141.8120 C   0  0  0  0  0  0  0  0  0  0  0  0
  185.9900  177.1660  144.6670 C   0  0  0  0  0  0  0  0  0  0  0  0
  186.7120  176.1690  142.6180 N   0  0  0  0  0  0  0  0  0  0  0  0
  187.2460  176.8790  145.2340 C   0  0  0  0  0  0  0  0  0  0  0  0
  184.9050  177.8570  145.4470 C   0  0  0  0  0  2  0  0  0  0  0  0
  187.9360  175.8770  143.1430 C   0  0  0  0  0  0  0  0  0  0  0  0
  185.2850  178.1470  146.8740 C   0  0  0  0  0  0  0  0  0  0  0  0
  187.5440  177.2490  146.6240 C   0  0  0  0  0  3  0  0  0  0  0  0
  185.7480  176.7990  143.3420 C   0  0  0  0  0  3  0  0  0  0  0  0
  186.6280  177.8390  147.3920 C   0  0  0  0  0  3  0  0  0  0  0  0
  188.2200  176.2350  144.4690 C   0  0  0  0  0  3  0  0  0  0  0  0
  184.4350  178.6670  147.6440 O   0  0  0  0  0  0  0  0  0  0  0  0
  192.8870  176.2730  143.0370 C   0  0  0  0  0  2  0  0  0  0  0  0
  193.7600  175.7140  144.0570 N   0  0  0  0  0  2  0  0  0  0  0  0
  193.2830  176.1980  145.3430 C   0  0  2  0  0  3  0  0  0  0  0  0
  194.4460  176.7640  146.1450 C   0  0  0  0  0  1  0  0  0  0  0  0
  192.5270  175.0810  146.0790 C   0  0  2  0  0  3  0  0  0  0  0  0
  191.6210  173.1440  144.7890 C   0  0  0  0  0  3  0  0  0  0  0  0
  192.6970  173.7210  145.4700 C   0  0  0  0  0  0  0  0  0  0  0  0
  194.0380  171.7550  144.9850 C   0  0  0  0  0  3  0  0  0  0  0  0
  193.9090  173.0190  145.5670 C   0  0  0  0  0  3  0  0  0  0  0  0
  191.7510  171.8810  144.2050 C   0  0  0  0  0  3  0  0  0  0  0  0
  192.9620  171.1770  144.2960 C   0  0  0  0  0  0  0  0  0  0  0  0
  193.1070  169.8800  143.6930 N   0  0  0  0  0  0  0  0  0  0  0  0
  193.2240  169.7650  142.3480 O   0  0  0  0  0  1  0  0  0  0  0  0
  193.0870  168.6640  144.4950 C   0  0  0  0  0  1  0  0  0  0  0  0
  190.9990  175.8530  147.7920 O   0  0  0  0  0  1  0  0  0  0  0  0
  191.0810  175.4110  146.4700 C   0  0  0  0  0  2  0  0  0  0  0  0
  2 15  1  1  0  0  0
  2  8  1  0  0  0  0
  3 10  1  1  0  0  0
  3  2  1  0  0  0  0
  3 13  1  0  0  0  0
  5 12  2  0  0  0  0
  6 16  1  0  0  0  0
  7  9  2  0  0  0  0
  8  7  1  1  0  0  0
  8 17  1  0  0  0  0
  9 11  1  0  0  0  0
 10 14  2  0  0  0  0
 11 30  1  0  0  0  0
 12  4  1  0  0  0  0
 12 23  1  0  0  0  0
 13  7  1  0  0  0  0
 14 15  1  0  0  0  0
 15  1  2  0  0  0  0
 16 17  2  0  0  0  0
 16  5  1  0  0  0  0
 17 18  1  0  0  0  0
 18 11  2  0  0  0  0
 18  4  1  0  0  0  0
 19 21  1  0  0  0  0
 19 22  1  0  0  0  0
 20 23  2  0  0  0  0
 20 26  1  0  0  0  0
 21 25  1  0  0  0  0
 22 24  1  0  0  0  0
 23 28  1  0  0  0  0
 24 27  1  0  0  0  0
 24 29  2  0  0  0  0
 25 27  2  0  0  0  0
 26 19  2  0  0  0  0
 28 21  2  0  0  0  0
 30 31  1  0  0  0  0
 31 32  1  0  0  0  0
 32 34  1  0  0  0  0
 32 33  1  1  0  0  0
 34 45  1  6  0  0  0
 35 36  1  0  0  0  0
 36 38  2  0  0  0  0
 36 34  1  0  0  0  0
 37 38  1  0  0  0  0
 39 40  1  0  0  0  0
 39 35  2  0  0  0  0
 40 37  2  0  0  0  0
 41 40  1  0  0  0  0
 41 43  1  0  0  0  0
 42 41  1  0  0  0  0
 45 44  1  0  0  0  0
M  END
>  <MODEL>
5

>  <REMARK>
 VINA RESULT:      -7.2      2.430      8.306
  Name = 
  8 active torsions:
  status: ('A' for Active; 'I' for Inactive)
    1  A    between atoms: C_1  and  C_12
    2  A    between atoms: C_1  and  N_30
    3  A    between atoms: C_9  and  C_12
    4  A    between atoms: C_12  and  C_31
    5  A    between atoms: N_16  and  C_43
    6  A    between atoms: C_17  and  C_28
    7  A    between atoms: C_24  and  C_33
    8  A    between atoms: N_30  and  C_33
                            x       y       z     vdW  Elec       q    Type
                         _______ _______ _______ _____ _____    ______ ____

>  <TORSDO>
F 8

$$$$
=
 OpenBabel11042415163D

 45 51  0  0  1  0  0  0  0  0999 V2000
  196.0630  177.1660  141.3730 O   0  0  0  0  0  0  0  0  0  0  0  0
  195.7020  174.7860  141.5730 C   0  0  2  0  0  3  0  0  0  0  0  0
  196.3270  173.7560  140.9250 C   0  0  2  0  0  3  0  0  0  0  0  0
  190.8110  175.2420  142.0130 O   0  0  0  0  0  0  0  0  0  0  0  0
  191.9970  176.8520  143.2700 C   0  0  0  0  0  3  0  0  0  0  0  0
  194.4320  176.7450  143.6060 C   0  0  0  0  0  1  0  0  0  0  0  0
  194.2540  173.3030  140.8560 C   0  0  0  0  0  0  0  0  0  0  0  0
  194.3500  174.4920  141.5560 C   0  0  2  0  0  3  0  0  0  0  0  0
  193.0250  172.7600  140.4990 C   0  0  0  0  0  3  0  0  0  0  0  0
  197.6000  174.1830  140.2670 C   0  0  0  0  0  3  0  0  0  0  0  0
  191.8580  173.4390  140.8800 C   0  0  0  0  0  0  0  0  0  0  0  0
  190.7950  176.3270  142.7830 C   0  0  0  0  0  0  0  0  0  0  0  0
  195.4550  172.8510  140.4340 N   0  0  0  0  0  2  0  0  0  0  0  0
  197.6090  175.6350  140.4640 N   0  0  0  0  0  0  0  0  0  0  0  0
  196.4410  175.9790  141.2040 C   0  0  0  0  0  0  0  0  0  0  0  0
  193.2070  176.2660  142.9050 C   0  0  0  0  0  0  0  0  0  0  0  0
  193.1990  175.1650  142.0220 C   0  0  0  0  0  0  0  0  0  0  0  0
  191.9350  174.6320  141.6390 C   0  0  0  0  0  0  0  0  0  0  0  0
  187.0390  178.1010  143.7340 C   0  0  0  0  0  0  0  0  0  0  0  0
  188.7570  177.5430  142.1670 N   0  0  0  0  0  0  0  0  0  0  0  0
  187.7880  177.4860  144.7540 C   0  0  0  0  0  0  0  0  0  0  0  0
  185.7030  178.7390  144.0030 C   0  0  0  0  0  2  0  0  0  0  0  0
  189.5010  176.9400  143.1370 C   0  0  0  0  0  0  0  0  0  0  0  0
  185.2490  178.6010  145.4310 C   0  0  0  0  0  0  0  0  0  0  0  0
  187.2860  177.4460  146.1340 C   0  0  0  0  0  3  0  0  0  0  0  0
  187.5530  178.1180  142.4360 C   0  0  0  0  0  3  0  0  0  0  0  0
  186.0990  177.9650  146.4510 C   0  0  0  0  0  3  0  0  0  0  0  0
  189.0220  176.9070  144.4540 C   0  0  0  0  0  3  0  0  0  0  0  0
  184.1180  179.0410  145.7630 O   0  0  0  0  0  0  0  0  0  0  0  0
  190.5370  172.8500  140.5140 C   0  0  0  0  0  2  0  0  0  0  0  0
  190.1050  171.9360  141.5600 N   0  0  0  0  0  2  0  0  0  0  0  0
  191.1530  170.9400  141.7200 C   0  0  2  0  0  3  0  0  0  0  0  0
  190.8160  169.7010  140.9020 C   0  0  0  0  0  1  0  0  0  0  0  0
  191.3720  170.6400  143.2110 C   0  0  2  0  0  3  0  0  0  0  0  0
  190.1310  172.3620  144.5270 C   0  0  0  0  0  3  0  0  0  0  0  0
  191.3590  171.8550  144.0900 C   0  0  0  0  0  0  0  0  0  0  0  0
  192.5030  173.6180  145.3070 C   0  0  0  0  0  3  0  0  0  0  0  0
  192.5470  172.4900  144.4830 C   0  0  0  0  0  3  0  0  0  0  0  0
  190.0870  173.4880  145.3530 C   0  0  0  0  0  3  0  0  0  0  0  0
  191.2730  174.1250  145.7530 C   0  0  0  0  0  0  0  0  0  0  0  0
  191.2380  175.2800  146.6060 N   0  0  0  0  0  0  0  0  0  0  0  0
  190.1230  175.5620  147.3230 O   0  0  0  0  0  1  0  0  0  0  0  0
  192.3670  176.1960  146.6910 C   0  0  0  0  0  1  0  0  0  0  0  0
  193.6080  169.8680  142.6980 O   0  0  0  0  0  1  0  0  0  0  0  0
  192.5040  169.6560  143.5260 C   0  0  0  0  0  2  0  0  0  0  0  0
  2 15  1  6  0  0  0
  3 10  1  6  0  0  0
  3  2  1  0  0  0  0
  4 12  1  0  0  0  0
  8  7  1  6  0  0  0
  8  2  1  0  0  0  0
  8 17  1  0  0  0  0
  9  7  2  0  0  0  0
  9 11  1  0  0  0  0
 10 14  2  0  0  0  0
 11 18  2  0  0  0  0
 12 23  1  0  0  0  0
 12  5  2  0  0  0  0
 13  7  1  0  0  0  0
 13  3  1  0  0  0  0
 14 15  1  0  0  0  0
 15  1  2  0  0  0  0
 16  5  1  0  0  0  0
 16  6  1  0  0  0  0
 17 16  2  0  0  0  0
 18  4  1  0  0  0  0
 18 17  1  0  0  0  0
 19 22  1  0  0  0  0
 19 21  1  0  0  0  0
 20 26  1  0  0  0  0
 20 23  2  0  0  0  0
 21 25  1  0  0  0  0
 22 24  1  0  0  0  0
 23 28  1  0  0  0  0
 24 29  2  0  0  0  0
 24 27  1  0  0  0  0
 25 27  2  0  0  0  0
 26 19  2  0  0  0  0
 28 21  2  0  0  0  0
 30 11  1  0  0  0  0
 30 31  1  0  0  0  0
 31 32  1  0  0  0  0
 32 33  1  6  0  0  0
 32 34  1  0  0  0  0
 34 45  1  6  0  0  0
 34 36  1  0  0  0  0
 35 39  1  0  0  0  0
 36 38  1  0  0  0  0
 36 35  2  0  0  0  0
 37 40  1  0  0  0  0
 38 37  2  0  0  0  0
 39 40  2  0  0  0  0
 40 41  1  0  0  0  0
 41 43  1  0  0  0  0
 41 42  1  0  0  0  0
 44 45  1  0  0  0  0
M  END
>  <MODEL>
6

>  <REMARK>
 VINA RESULT:      -6.9      2.290      8.139
  Name = 
  8 active torsions:
  status: ('A' for Active; 'I' for Inactive)
    1  A    between atoms: C_1  and  C_12
    2  A    between atoms: C_1  and  N_30
    3  A    between atoms: C_9  and  C_12
    4  A    between atoms: C_12  and  C_31
    5  A    between atoms: N_16  and  C_43
    6  A    between atoms: C_17  and  C_28
    7  A    between atoms: C_24  and  C_33
    8  A    between atoms: N_30  and  C_33
                            x       y       z     vdW  Elec       q    Type
                         _______ _______ _______ _____ _____    ______ ____

>  <TORSDO>
F 8

$$$$
=
 OpenBabel11042415163D

 45 51  0  0  1  0  0  0  0  0999 V2000
  189.1920  171.3450  137.0970 O   0  0  0  0  0  0  0  0  0  0  0  0
  191.1320  171.2810  138.5360 C   0  0  2  0  0  3  0  0  0  0  0  0
  192.0250  170.2670  138.7440 C   0  0  2  0  0  3  0  0  0  0  0  0
  188.9440  173.8510  142.1320 O   0  0  0  0  0  0  0  0  0  0  0  0
  188.5000  174.7250  139.9830 C   0  0  0  0  0  3  0  0  0  0  0  0
  189.6840  173.9580  137.9670 C   0  0  0  0  0  1  0  0  0  0  0  0
  191.5540  171.0210  140.6720 C   0  0  0  0  0  0  0  0  0  0  0  0
  190.8330  171.7990  139.7830 C   0  0  2  0  0  3  0  0  0  0  0  0
  191.3950  171.1420  142.0480 C   0  0  0  0  0  3  0  0  0  0  0  0
  191.9410  169.2060  137.6930 C   0  0  0  0  0  3  0  0  0  0  0  0
  190.4890  172.0960  142.5350 C   0  0  0  0  0  0  0  0  0  0  0  0
  188.2920  174.7220  141.3670 C   0  0  0  0  0  0  0  0  0  0  0  0
  192.2680  170.0540  140.0540 N   0  0  0  0  0  2  0  0  0  0  0  0
  190.7860  169.6190  136.8910 N   0  0  0  0  0  0  0  0  0  0  0  0
  190.2890  170.8350  137.4420 C   0  0  0  0  0  0  0  0  0  0  0  0
  189.3520  173.7830  139.4090 C   0  0  0  0  0  0  0  0  0  0  0  0
  189.9680  172.8190  140.2350 C   0  0  0  0  0  0  0  0  0  0  0  0
  189.7780  172.9350  141.6430 C   0  0  0  0  0  0  0  0  0  0  0  0
  185.6300  177.5480  143.1240 C   0  0  0  0  0  0  0  0  0  0  0  0
  186.7430  176.6180  141.2240 N   0  0  0  0  0  0  0  0  0  0  0  0
  186.2760  176.6060  143.9470 C   0  0  0  0  0  0  0  0  0  0  0  0
  184.6750  178.5670  143.6820 C   0  0  0  0  0  2  0  0  0  0  0  0
  187.3800  175.6940  141.9980 C   0  0  0  0  0  0  0  0  0  0  0  0
  184.4540  178.4340  145.1650 C   0  0  0  0  0  0  0  0  0  0  0  0
  186.0380  176.5870  145.3960 C   0  0  0  0  0  3  0  0  0  0  0  0
  185.8860  177.5330  141.7520 C   0  0  0  0  0  3  0  0  0  0  0  0
  185.1850  177.4390  145.9660 C   0  0  0  0  0  3  0  0  0  0  0  0
  187.1540  175.6800  143.3820 C   0  0  0  0  0  3  0  0  0  0  0  0
  183.6260  179.1920  145.7340 O   0  0  0  0  0  0  0  0  0  0  0  0
  190.3290  172.2400  144.0110 C   0  0  0  0  0  2  0  0  0  0  0  0
  191.5060  172.8910  144.5660 N   0  0  0  0  0  2  0  0  0  0  0  0
  191.0640  174.1420  145.1620 C   0  0  2  0  0  3  0  0  0  0  0  0
  189.6670  173.9710  145.7420 C   0  0  0  0  0  1  0  0  0  0  0  0
  191.1560  175.2780  144.1320 C   0  0  2  0  0  3  0  0  0  0  0  0
  192.6250  175.0740  142.1220 C   0  0  0  0  0  3  0  0  0  0  0  0
  192.5000  175.4030  143.4750 C   0  0  0  0  0  0  0  0  0  0  0  0
  194.8630  175.9540  143.5450 C   0  0  0  0  0  3  0  0  0  0  0  0
  193.6270  175.8440  144.1860 C   0  0  0  0  0  3  0  0  0  0  0  0
  193.8610  175.1870  141.4800 C   0  0  0  0  0  3  0  0  0  0  0  0
  194.9910  175.6320  142.1860 C   0  0  0  0  0  0  0  0  0  0  0  0
  196.2650  175.7570  141.5330 N   0  0  0  0  0  0  0  0  0  0  0  0
  197.3800  176.0130  142.2610 O   0  0  0  0  0  1  0  0  0  0  0  0
  196.3890  175.6600  140.0850 C   0  0  0  0  0  1  0  0  0  0  0  0
  190.7270  177.6000  143.5950 O   0  0  0  0  0  1  0  0  0  0  0  0
  190.5510  176.6170  144.5710 C   0  0  0  0  0  2  0  0  0  0  0  0
  1 15  2  0  0  0  0
  2 15  1  1  0  0  0
  2  3  1  0  0  0  0
  2  8  1  0  0  0  0
  3 10  1  1  0  0  0
  3 13  1  0  0  0  0
  5 12  2  0  0  0  0
  6 16  1  0  0  0  0
  7  9  2  0  0  0  0
  8 17  1  1  0  0  0
  8  7  1  0  0  0  0
  9 11  1  0  0  0  0
 11 30  1  0  0  0  0
 12 23  1  0  0  0  0
 12  4  1  0  0  0  0
 13  7  1  0  0  0  0
 14 15  1  0  0  0  0
 14 10  2  0  0  0  0
 16  5  1  0  0  0  0
 16 17  2  0  0  0  0
 17 18  1  0  0  0  0
 18  4  1  0  0  0  0
 18 11  2  0  0  0  0
 19 22  1  0  0  0  0
 19 21  1  0  0  0  0
 20 26  1  0  0  0  0
 20 23  2  0  0  0  0
 21 25  1  0  0  0  0
 22 24  1  0  0  0  0
 23 28  1  0  0  0  0
 24 29  2  0  0  0  0
 24 27  1  0  0  0  0
 25 27  2  0  0  0  0
 26 19  2  0  0  0  0
 28 21  2  0  0  0  0
 30 31  1  0  0  0  0
 31 32  1  0  0  0  0
 32 33  1  6  0  0  0
 34 45  1  1  0  0  0
 34 32  1  0  0  0  0
 35 36  1  0  0  0  0
 36 34  1  0  0  0  0
 36 38  2  0  0  0  0
 37 38  1  0  0  0  0
 39 35  2  0  0  0  0
 39 40  1  0  0  0  0
 40 37  2  0  0  0  0
 41 40  1  0  0  0  0
 41 42  1  0  0  0  0
 43 41  1  0  0  0  0
 44 45  1  0  0  0  0
M  END
>  <MODEL>
7

>  <REMARK>
 VINA RESULT:      -6.8      2.691      8.393
  Name = 
  8 active torsions:
  status: ('A' for Active; 'I' for Inactive)
    1  A    between atoms: C_1  and  C_12
    2  A    between atoms: C_1  and  N_30
    3  A    between atoms: C_9  and  C_12
    4  A    between atoms: C_12  and  C_31
    5  A    between atoms: N_16  and  C_43
    6  A    between atoms: C_17  and  C_28
    7  A    between atoms: C_24  and  C_33
    8  A    between atoms: N_30  and  C_33
                            x       y       z     vdW  Elec       q    Type
                         _______ _______ _______ _____ _____    ______ ____

>  <TORSDO>
F 8

$$$$
=
 OpenBabel11042415163D

 45 51  0  0  1  0  0  0  0  0999 V2000
  194.5830  170.0450  143.5560 O   0  0  0  0  0  0  0  0  0  0  0  0
  195.8760  171.9490  144.2940 C   0  0  2  0  0  3  0  0  0  0  0  0
  196.8390  172.0210  145.2610 C   0  0  2  0  0  3  0  0  0  0  0  0
  192.0860  175.0800  143.8910 O   0  0  0  0  0  0  0  0  0  0  0  0
  192.2310  173.5800  142.0720 C   0  0  0  0  0  3  0  0  0  0  0  0
  194.1710  172.1100  141.7140 C   0  0  0  0  0  1  0  0  0  0  0  0
  195.5830  173.7050  145.5740 C   0  0  0  0  0  0  0  0  0  0  0  0
  195.0630  173.0540  144.4700 C   0  0  0  0  0  0  0  0  0  0  0  0
  194.9390  174.7910  146.1560 C   0  0  0  0  0  3  0  0  0  0  0  0
  197.3520  170.6740  145.6610 C   0  0  0  0  0  3  0  0  0  0  0  0
  193.7380  175.2400  145.5870 C   0  0  0  0  0  0  0  0  0  0  0  0
  191.5660  174.5960  142.7660 C   0  0  0  0  0  0  0  0  0  0  0  0
  196.6570  173.0690  146.0930 N   0  0  0  0  0  2  0  0  0  0  0  0
  196.4820  169.7530  144.9230 N   0  0  0  0  0  0  0  0  0  0  0  0
  195.5770  170.5360  144.1510 C   0  0  0  0  0  0  0  0  0  0  0  0
  193.4090  173.0450  142.5890 C   0  0  0  0  0  0  0  0  0  0  0  0
  193.8960  173.5210  143.8250 C   0  0  0  0  0  0  0  0  0  0  0  0
  193.2140  174.6170  144.4280 C   0  0  2  0  0  3  0  0  0  0  0  0
  187.9060  176.1750  141.2580 C   0  0  0  0  0  0  0  0  0  0  0  0
  189.5500  174.4440  141.3780 N   0  0  0  0  0  0  0  0  0  0  0  0
  188.6680  176.9430  142.1590 C   0  0  0  0  0  0  0  0  0  0  0  0
  186.6030  176.6730  140.6950 C   0  0  0  0  0  2  0  0  0  0  0  0
  190.3060  175.1660  142.2530 C   0  0  0  0  0  0  0  0  0  0  0  0
  186.1930  178.0190  141.2300 C   0  0  0  0  0  0  0  0  0  0  0  0
  188.2120  178.2730  142.5850 C   0  0  0  0  0  3  0  0  0  0  0  0
  188.3770  174.9170  140.8780 C   0  0  0  0  0  3  0  0  0  0  0  0
  187.0550  178.7750  142.1530 C   0  0  0  0  0  3  0  0  0  0  0  0
  189.8710  176.4370  142.6550 C   0  0  0  0  0  3  0  0  0  0  0  0
  185.0890  178.5100  140.8800 O   0  0  0  0  0  0  0  0  0  0  0  0
  193.0540  176.4160  146.1980 C   0  0  0  0  0  2  0  0  0  0  0  0
  191.7770  176.6340  145.5370 N   0  0  0  0  0  2  0  0  0  0  0  0
  190.7600  176.6910  146.5750 C   0  0  2  0  0  3  0  0  0  0  0  0
  191.3770  176.3400  147.9210 C   0  0  0  0  0  1  0  0  0  0  0  0
  189.5740  175.7890  146.2000 C   0  0  2  0  0  3  0  0  0  0  0  0
  187.3090  176.0440  145.1770 C   0  0  0  0  0  3  0  0  0  0  0  0
  188.2650  176.5130  146.0840 C   0  0  0  0  0  0  0  0  0  0  0  0
  186.7480  178.2930  146.7380 C   0  0  0  0  0  3  0  0  0  0  0  0
  187.9790  177.6440  146.8650 C   0  0  0  0  0  3  0  0  0  0  0  0
  186.0780  176.6930  145.0520 C   0  0  0  0  0  3  0  0  0  0  0  0
  185.7860  177.8220  145.8340 C   0  0  0  0  0  0  0  0  0  0  0  0
  184.5200  178.4920  145.7160 N   0  0  0  0  0  0  0  0  0  0  0  0
  183.6980  178.5860  146.7900 O   0  0  0  0  0  1  0  0  0  0  0  0
  184.0660  179.0410  144.4460 C   0  0  0  0  0  1  0  0  0  0  0  0
  188.5660  174.5400  148.0130 O   0  0  0  0  0  1  0  0  0  0  0  0
  189.4860  174.4640  146.9650 C   0  0  0  0  0  2  0  0  0  0  0  0
  1 15  2  0  0  0  0
  2 15  1  1  0  0  0
  2  8  1  0  0  0  0
  2  3  1  0  0  0  0
  3 10  1  1  0  0  0
  3 13  1  0  0  0  0
  4 18  1  0  0  0  0
  5 16  1  0  0  0  0
  5 12  2  0  0  0  0
  6 16  1  0  0  0  0
  7 13  1  0  0  0  0
  7  9  1  0  0  0  0
  8  7  2  0  0  0  0
 11  9  2  0  0  0  0
 11 30  1  0  0  0  0
 12  4  1  0  0  0  0
 14 10  2  0  0  0  0
 15 14  1  0  0  0  0
 16 17  2  0  0  0  0
 17  8  1  0  0  0  0
 18 17  1  6  0  0  0
 18 11  1  0  0  0  0
 19 21  1  0  0  0  0
 20 23  2  0  0  0  0
 21 25  1  0  0  0  0
 21 28  2  0  0  0  0
 22 24  1  0  0  0  0
 22 19  1  0  0  0  0
 23 28  1  0  0  0  0
 23 12  1  0  0  0  0
 24 27  1  0  0  0  0
 26 19  2  0  0  0  0
 26 20  1  0  0  0  0
 27 25  2  0  0  0  0
 29 24  2  0  0  0  0
 31 30  1  0  0  0  0
 31 32  1  0  0  0  0
 32 33  1  1  0  0  0
 34 32  1  0  0  0  0
 34 45  1  1  0  0  0
 35 36  1  0  0  0  0
 36 34  1  0  0  0  0
 36 38  2  0  0  0  0
 37 38  1  0  0  0  0
 39 35  2  0  0  0  0
 39 40  1  0  0  0  0
 40 37  2  0  0  0  0
 41 40  1  0  0  0  0
 41 42  1  0  0  0  0
 43 41  1  0  0  0  0
 45 44  1  0  0  0  0
M  END
>  <MODEL>
8

>  <REMARK>
 VINA RESULT:      -6.8      2.258      9.522
  Name = 
  8 active torsions:
  status: ('A' for Active; 'I' for Inactive)
    1  A    between atoms: C_1  and  C_12
    2  A    between atoms: C_1  and  N_30
    3  A    between atoms: C_9  and  C_12
    4  A    between atoms: C_12  and  C_31
    5  A    between atoms: N_16  and  C_43
    6  A    between atoms: C_17  and  C_28
    7  A    between atoms: C_24  and  C_33
    8  A    between atoms: N_30  and  C_33
                            x       y       z     vdW  Elec       q    Type
                         _______ _______ _______ _____ _____    ______ ____

>  <TORSDO>
F 8

$$$$
=
 OpenBabel11042415163D

 45 51  0  0  1  0  0  0  0  0999 V2000
  189.5680  171.0220  138.2330 O   0  0  0  0  0  0  0  0  0  0  0  0
  191.7100  171.4100  139.2810 C   0  0  2  0  0  3  0  0  0  0  0  0
  192.7930  170.5800  139.3780 C   0  0  2  0  0  3  0  0  0  0  0  0
  189.7630  173.9030  143.0670 O   0  0  0  0  0  0  0  0  0  0  0  0
  188.8010  174.4910  140.9920 C   0  0  0  0  0  3  0  0  0  0  0  0
  189.7300  173.7490  138.8380 C   0  0  0  0  0  1  0  0  0  0  0  0
  192.5400  171.4200  141.3120 C   0  0  0  0  0  0  0  0  0  0  0  0
  191.5470  171.9840  140.5300 C   0  0  2  0  0  3  0  0  0  0  0  0
  192.6060  171.6380  142.6830 C   0  0  0  0  0  3  0  0  0  0  0  0
  192.7170  169.4290  138.4270 C   0  0  0  0  0  3  0  0  0  0  0  0
  191.6430  172.4700  143.2750 C   0  0  0  0  0  0  0  0  0  0  0  0
  188.8420  174.5800  142.3870 C   0  0  0  0  0  0  0  0  0  0  0  0
  193.2960  170.5320  140.6290 N   0  0  0  0  0  2  0  0  0  0  0  0
  191.3840  169.5710  137.8340 N   0  0  0  0  0  0  0  0  0  0  0  0
  190.7820  170.7340  138.3950 C   0  0  0  0  0  0  0  0  0  0  0  0
  189.6920  173.6540  140.3240 C   0  0  0  0  0  0  0  0  0  0  0  0
  190.6060  172.8850  141.0750 C   0  0  0  0  0  0  0  0  0  0  0  0
  190.6480  173.0950  142.4840 C   0  0  0  0  0  0  0  0  0  0  0  0
  186.0600  177.0620  144.4510 C   0  0  0  0  0  0  0  0  0  0  0  0
  186.7930  175.9260  142.4800 N   0  0  0  0  0  0  0  0  0  0  0  0
  187.1900  176.5780  145.1350 C   0  0  0  0  0  0  0  0  0  0  0  0
  185.0370  177.9360  145.1240 C   0  0  0  0  0  2  0  0  0  0  0  0
  187.8960  175.4430  143.1200 C   0  0  0  0  0  0  0  0  0  0  0  0
  185.3240  178.1820  146.5810 C   0  0  0  0  0  0  0  0  0  0  0  0
  187.4140  176.9160  146.5470 C   0  0  0  0  0  3  0  0  0  0  0  0
  185.8850  176.7190  143.1090 C   0  0  0  0  0  3  0  0  0  0  0  0
  186.5430  177.6630  147.2240 C   0  0  0  0  0  3  0  0  0  0  0  0
  188.1100  175.7690  144.4670 C   0  0  0  0  0  3  0  0  0  0  0  0
  184.5050  178.8480  147.2660 O   0  0  0  0  0  0  0  0  0  0  0  0
  191.7220  172.7200  144.7430 C   0  0  0  0  0  2  0  0  0  0  0  0
  193.0650  173.1570  145.0910 N   0  0  0  0  0  2  0  0  0  0  0  0
  192.9360  174.4260  145.7900 C   0  0  2  0  0  3  0  0  0  0  0  0
  191.4650  174.7450  146.0140 C   0  0  0  0  0  1  0  0  0  0  0  0
  193.6850  175.5280  145.0240 C   0  0  2  0  0  3  0  0  0  0  0  0
  193.1110  175.6480  142.5960 C   0  0  0  0  0  3  0  0  0  0  0  0
  193.9780  175.1890  143.5920 C   0  0  0  0  0  0  0  0  0  0  0  0
  195.3490  174.1320  141.8900 C   0  0  0  0  0  3  0  0  0  0  0  0
  195.1000  174.4270  143.2330 C   0  0  0  0  0  3  0  0  0  0  0  0
  193.3610  175.3550  141.2530 C   0  0  0  0  0  3  0  0  0  0  0  0
  194.4850  174.5960  140.8880 C   0  0  0  0  0  0  0  0  0  0  0  0
  194.7540  174.2950  139.5090 N   0  0  0  0  0  0  0  0  0  0  0  0
  196.0020  173.9370  139.1220 O   0  0  0  0  0  1  0  0  0  0  0  0
  193.7180  174.4100  138.4910 C   0  0  0  0  0  1  0  0  0  0  0  0
  195.0030  177.5140  145.4480 O   0  0  0  0  0  1  0  0  0  0  0  0
  194.8660  176.1620  145.7680 C   0  0  0  0  0  2  0  0  0  0  0  0
  1 15  2  0  0  0  0
  2 15  1  1  0  0  0
  2  3  1  0  0  0  0
  2  8  1  0  0  0  0
  3 10  1  1  0  0  0
  3 13  1  0  0  0  0
  5 12  2  0  0  0  0
  6 16  1  0  0  0  0
  7  9  2  0  0  0  0
  8 17  1  1  0  0  0
  8  7  1  0  0  0  0
  9 11  1  0  0  0  0
 11 30  1  0  0  0  0
 12  4  1  0  0  0  0
 12 23  1  0  0  0  0
 13  7  1  0  0  0  0
 14 15  1  0  0  0  0
 14 10  2  0  0  0  0
 16  5  1  0  0  0  0
 16 17  2  0  0  0  0
 17 18  1  0  0  0  0
 18  4  1  0  0  0  0
 18 11  2  0  0  0  0
 19 22  1  0  0  0  0
 19 21  1  0  0  0  0
 20 26  1  0  0  0  0
 20 23  2  0  0  0  0
 21 25  1  0  0  0  0
 22 24  1  0  0  0  0
 23 28  1  0  0  0  0
 24 27  1  0  0  0  0
 24 29  2  0  0  0  0
 25 27  2  0  0  0  0
 26 19  2  0  0  0  0
 28 21  2  0  0  0  0
 30 31  1  0  0  0  0
 31 32  1  0  0  0  0
 32 33  1  6  0  0  0
 34 45  1  1  0  0  0
 34 32  1  0  0  0  0
 35 36  1  0  0  0  0
 36 34  1  0  0  0  0
 37 38  1  0  0  0  0
 38 36  2  0  0  0  0
 39 35  2  0  0  0  0
 40 39  1  0  0  0  0
 40 37  2  0  0  0  0
 41 40  1  0  0  0  0
 42 41  1  0  0  0  0
 43 41  1  0  0  0  0
 44 45  1  0  0  0  0
M  END
>  <MODEL>
9

>  <REMARK>
 VINA RESULT:      -6.7      2.594      8.176
  Name = 
  8 active torsions:
  status: ('A' for Active; 'I' for Inactive)
    1  A    between atoms: C_1  and  C_12
    2  A    between atoms: C_1  and  N_30
    3  A    between atoms: C_9  and  C_12
    4  A    between atoms: C_12  and  C_31
    5  A    between atoms: N_16  and  C_43
    6  A    between atoms: C_17  and  C_28
    7  A    between atoms: C_24  and  C_33
    8  A    between atoms: N_30  and  C_33
                            x       y       z     vdW  Elec       q    Type
                         _______ _______ _______ _____ _____    ______ ____

>  <TORSDO>
F 8

$$$$
