=
 OpenBabel11042418193D

 35 39  0  0  1  0  0  0  0  0999 V2000
  190.6130  174.5730  145.8030 C   0  0  0  0  0  0  0  0  0  0  0  0
  192.0080  174.6670  145.6910 C   0  0  0  0  0  3  0  0  0  0  0  0
  189.9450  175.4160  146.7190 C   0  0  0  0  0  0  0  0  0  0  0  0
  192.0510  176.3800  147.3510 N   0  0  0  0  0  0  0  0  0  0  0  0
  190.7010  176.3180  147.4860 C   0  0  0  0  0  3  0  0  0  0  0  0
  192.7160  175.5870  146.4680 C   0  0  0  0  0  0  0  0  0  0  0  0
  194.6050  176.2840  145.0860 C   0  0  2  0  0  3  0  0  0  0  0  0
  194.6150  177.0030  146.2930 O   0  0  0  0  0  0  0  0  0  0  0  0
  194.2050  175.6580  146.3670 C   0  0  1  0  0  3  0  0  0  0  0  0
  195.9160  175.8990  144.7660 O   0  0  0  0  0  0  0  0  0  0  0  0
  196.1490  176.2320  143.4170 C   0  0  0  0  0  0  0  0  0  0  0  0
  194.9550  176.4780  142.7530 F   0  0  0  0  0  0  0  0  0  0  0  0
  196.9790  177.3400  143.3200 F   0  0  0  0  0  0  0  0  0  0  0  0
  196.7760  175.1660  142.8020 F   0  0  0  0  0  0  0  0  0  0  0  0
  189.9010  173.5860  144.9590 C   0  0  0  0  0  0  0  0  0  0  0  0
  189.5360  172.4760  145.4330 O   0  0  0  0  0  0  0  0  0  0  0  0
  189.6150  173.8990  143.5920 N   0  0  0  0  0  2  0  0  0  0  0  0
  189.0960  173.1380  139.7710 N   0  0  0  0  0  0  0  0  0  0  0  0
  187.9340  173.6700  141.8400 C   0  0  0  0  0  2  0  0  0  0  0  0
  188.5230  174.2300  140.5490 C   0  0  0  0  0  2  0  0  0  0  0  0
  190.1080  172.2730  141.8230 C   0  0  1  0  0  3  0  0  0  0  0  0
  189.0070  172.9490  142.6700 C   0  0  1  0  0  3  0  0  0  0  0  0
  190.4780  170.9230  142.3700 C   0  0  0  0  0  3  0  0  0  0  0  0
  191.5290  168.8210  139.0960 Cl  0  0  0  0  0  0  0  0  0  0  0  0
  190.3590  171.1510  139.5510 N   0  0  0  0  0  0  0  0  0  0  0  0
  190.8850  170.0980  140.1040 C   0  0  0  0  0  0  0  0  0  0  0  0
  190.8750  169.9300  141.5710 C   0  0  0  0  0  3  0  0  0  0  0  0
  189.8140  172.2160  140.3380 C   0  0  0  0  0  0  0  0  0  0  0  0
  188.5520  175.3560  146.8550 O   0  0  0  0  0  0  0  0  0  0  0  0
  187.7040  176.4940  146.7530 C   0  0  0  0  0  2  0  0  0  0  0  0
  187.3560  176.8590  145.0040 S   0  0  0  0  0  0  0  0  0  0  0  0
  185.6920  177.4830  145.3790 C   0  0  0  0  0  2  0  0  0  0  0  0
  184.4450  179.3810  144.4120 C   0  0  0  0  0  2  0  0  0  0  0  0
  185.6610  178.9910  145.2260 C   0  0  0  0  0  3  0  0  0  0  0  0
  185.8110  179.3450  143.7620 C   0  0  0  0  0  2  0  0  0  0  0  0
  1  3  1  0  0  0  0
  2  1  2  0  0  0  0
  2  6  1  0  0  0  0
  3 29  1  0  0  0  0
  3  5  2  0  0  0  0
  4  5  1  0  0  0  0
  6  4  2  0  0  0  0
  7 10  1  1  0  0  0
  7  8  1  0  0  0  0
  7  9  1  0  0  0  0
  8  9  1  0  0  0  0
  9  6  1  6  0  0  0
 11 10  1  0  0  0  0
 12 11  1  0  0  0  0
 13 11  1  0  0  0  0
 14 11  1  0  0  0  0
 15 16  2  0  0  0  0
 15  1  1  0  0  0  0
 17 15  1  0  0  0  0
 18 28  2  0  0  0  0
 18 20  1  0  0  0  0
 19 22  1  0  0  0  0
 20 19  1  0  0  0  0
 21 23  1  1  0  0  0
 21 22  1  0  0  0  0
 22 17  1  1  0  0  0
 24 26  1  0  0  0  0
 25 26  2  0  0  0  0
 25 28  1  0  0  0  0
 26 27  1  0  0  0  0
 27 23  2  0  0  0  0
 28 21  1  0  0  0  0
 30 29  1  0  0  0  0
 31 32  1  0  0  0  0
 31 30  1  0  0  0  0
 33 34  1  0  0  0  0
 34 32  1  0  0  0  0
 35 33  1  0  0  0  0
 35 34  1  0  0  0  0
M  END
>  <MODEL>
1

>  <REMARK>
 VINA RESULT:      -6.9      0.000      0.000
  Name = 
  10 active torsions:
  status: ('A' for Active; 'I' for Inactive)
    1  A    between atoms: C_1  and  O_34
    2  A    between atoms: C_5  and  C_15
    3  A    between atoms: C_9  and  N_31
    4  A    between atoms: O_10  and  C_11
    5  A    between atoms: O_10  and  C_30
    6  A    between atoms: C_14  and  O_34
    7  A    between atoms: S_16  and  C_17
    8  A    between atoms: S_16  and  C_30
    9  A    between atoms: C_17  and  C_22
   10  A    between atoms: C_25  and  C_35
                            x       y       z     vdW  Elec       q    Type
                         _______ _______ _______ _____ _____    ______ ____

>  <TORSDO>
F 10

$$$$
=
 OpenBabel11042418193D

 35 39  0  0  1  0  0  0  0  0999 V2000
  191.2780  174.4820  142.5750 C   0  0  0  0  0  0  0  0  0  0  0  0
  190.6970  173.5140  141.7440 C   0  0  0  0  0  3  0  0  0  0  0  0
  192.4540  174.1540  143.2840 C   0  0  0  0  0  0  0  0  0  0  0  0
  192.4100  171.9560  142.3190 N   0  0  0  0  0  0  0  0  0  0  0  0
  193.0010  172.8690  143.1330 C   0  0  0  0  0  3  0  0  0  0  0  0
  191.2830  172.2520  141.6170 C   0  0  0  0  0  0  0  0  0  0  0  0
  190.7830  171.5720  139.3250 C   0  0  2  0  0  3  0  0  0  0  0  0
  191.6080  170.6100  139.9320 O   0  0  0  0  0  0  0  0  0  0  0  0
  190.6390  171.2160  140.7550 C   0  0  1  0  0  3  0  0  0  0  0  0
  189.7890  170.9230  138.5780 O   0  0  0  0  0  0  0  0  0  0  0  0
  189.7400  171.5250  137.3050 C   0  0  0  0  0  0  0  0  0  0  0  0
  189.4570  170.5860  136.3220 F   0  0  0  0  0  0  0  0  0  0  0  0
  188.7920  172.5370  137.2760 F   0  0  0  0  0  0  0  0  0  0  0  0
  190.9750  172.0790  137.0330 F   0  0  0  0  0  0  0  0  0  0  0  0
  190.6260  175.8090  142.6790 C   0  0  0  0  0  0  0  0  0  0  0  0
  191.3150  176.8630  142.7350 O   0  0  0  0  0  0  0  0  0  0  0  0
  189.1970  175.8950  142.7070 N   0  0  0  0  0  2  0  0  0  0  0  0
  185.8010  177.7160  141.9350 N   0  0  0  0  0  0  0  0  0  0  0  0
  188.1990  177.7870  141.5360 C   0  0  0  0  0  2  0  0  0  0  0  0
  186.8460  177.3390  140.9900 C   0  0  0  0  0  2  0  0  0  0  0  0
  187.2160  176.8920  143.7520 C   0  0  1  0  0  3  0  0  0  0  0  0
  188.4820  177.1480  142.9040 C   0  0  1  0  0  3  0  0  0  0  0  0
  187.4390  177.2340  145.1990 C   0  0  0  0  0  3  0  0  0  0  0  0
  183.8120  178.4530  146.4630 Cl  0  0  0  0  0  0  0  0  0  0  0  0
  184.9140  177.9200  144.1170 N   0  0  0  0  0  0  0  0  0  0  0  0
  185.1150  177.9680  145.4010 C   0  0  0  0  0  0  0  0  0  0  0  0
  186.4510  177.6950  145.9690 C   0  0  0  0  0  3  0  0  0  0  0  0
  185.9550  177.5350  143.2120 C   0  0  0  0  0  0  0  0  0  0  0  0
  193.0680  175.0960  144.1200 O   0  0  0  0  0  0  0  0  0  0  0  0
  193.4040  174.8380  145.4790 C   0  0  0  0  0  2  0  0  0  0  0  0
  192.8850  176.2330  146.5260 S   0  0  0  0  0  0  0  0  0  0  0  0
  191.5760  175.2580  147.3220 C   0  0  0  0  0  2  0  0  0  0  0  0
  189.1720  174.6990  147.3130 C   0  0  0  0  0  2  0  0  0  0  0  0
  190.2450  175.5410  146.6530 C   0  0  0  0  0  3  0  0  0  0  0  0
  189.7500  174.2780  145.9790 C   0  0  0  0  0  2  0  0  0  0  0  0
  1 15  1  0  0  0  0
  1  3  1  0  0  0  0
  2  1  2  0  0  0  0
  3 29  1  0  0  0  0
  4  5  1  0  0  0  0
  5  3  2  0  0  0  0
  6  2  1  0  0  0  0
  6  4  2  0  0  0  0
  7 10  1  6  0  0  0
  7  8  1  0  0  0  0
  7  9  1  0  0  0  0
  8  9  1  0  0  0  0
  9  6  1  1  0  0  0
 11 10  1  0  0  0  0
 12 11  1  0  0  0  0
 13 11  1  0  0  0  0
 14 11  1  0  0  0  0
 15 17  1  0  0  0  0
 15 16  2  0  0  0  0
 18 28  2  0  0  0  0
 19 22  1  0  0  0  0
 20 19  1  0  0  0  0
 20 18  1  0  0  0  0
 21 23  1  1  0  0  0
 22 17  1  6  0  0  0
 22 21  1  0  0  0  0
 23 27  2  0  0  0  0
 25 26  2  0  0  0  0
 26 27  1  0  0  0  0
 26 24  1  0  0  0  0
 28 21  1  0  0  0  0
 28 25  1  0  0  0  0
 29 30  1  0  0  0  0
 30 31  1  0  0  0  0
 31 32  1  0  0  0  0
 34 33  1  0  0  0  0
 34 32  1  0  0  0  0
 35 34  1  0  0  0  0
 35 33  1  0  0  0  0
M  END
>  <MODEL>
2

>  <REMARK>
 VINA RESULT:      -6.7      4.827      7.510
  Name = 
  10 active torsions:
  status: ('A' for Active; 'I' for Inactive)
    1  A    between atoms: C_1  and  O_34
    2  A    between atoms: C_5  and  C_15
    3  A    between atoms: C_9  and  N_31
    4  A    between atoms: O_10  and  C_11
    5  A    between atoms: O_10  and  C_30
    6  A    between atoms: C_14  and  O_34
    7  A    between atoms: S_16  and  C_17
    8  A    between atoms: S_16  and  C_30
    9  A    between atoms: C_17  and  C_22
   10  A    between atoms: C_25  and  C_35
                            x       y       z     vdW  Elec       q    Type
                         _______ _______ _______ _____ _____    ______ ____

>  <TORSDO>
F 10

$$$$
=
 OpenBabel11042418193D

 35 39  0  0  1  0  0  0  0  0999 V2000
  189.9590  173.8780  141.5100 C   0  0  0  0  0  0  0  0  0  0  0  0
  190.5680  173.7660  140.2520 C   0  0  0  0  0  3  0  0  0  0  0  0
  189.7400  172.7060  142.2670 C   0  0  0  0  0  0  0  0  0  0  0  0
  190.7250  171.4000  140.5090 N   0  0  0  0  0  0  0  0  0  0  0  0
  190.1380  171.4690  141.7330 C   0  0  0  0  0  3  0  0  0  0  0  0
  190.9570  172.5160  139.7660 C   0  0  0  0  0  0  0  0  0  0  0  0
  190.5250  172.3820  137.3660 C   0  0  2  0  0  3  0  0  0  0  0  0
  191.2640  173.5440  137.6480 O   0  0  0  0  0  0  0  0  0  0  0  0
  191.5740  172.4020  138.4110 C   0  0  1  0  0  3  0  0  0  0  0  0
  191.0320  171.7820  136.2040 O   0  0  0  0  0  0  0  0  0  0  0  0
  190.0740  170.8590  135.7380 C   0  0  0  0  0  0  0  0  0  0  0  0
  189.5320  170.1330  136.7900 F   0  0  0  0  0  0  0  0  0  0  0  0
  189.0630  171.5090  135.0450 F   0  0  0  0  0  0  0  0  0  0  0  0
  190.6950  169.9780  134.8760 F   0  0  0  0  0  0  0  0  0  0  0  0
  189.5650  175.2240  141.9890 C   0  0  0  0  0  0  0  0  0  0  0  0
  190.3520  175.9140  142.6910 O   0  0  0  0  0  0  0  0  0  0  0  0
  188.2790  175.7490  141.6430 N   0  0  0  0  0  2  0  0  0  0  0  0
  185.0550  177.9870  141.8430 N   0  0  0  0  0  0  0  0  0  0  0  0
  187.3220  177.8900  140.9710 C   0  0  0  0  0  2  0  0  0  0  0  0
  185.8450  177.6660  140.6610 C   0  0  0  0  0  2  0  0  0  0  0  0
  186.6740  176.7550  143.2000 C   0  0  1  0  0  3  0  0  0  0  0  0
  187.7770  177.0190  142.1520 C   0  0  1  0  0  3  0  0  0  0  0  0
  187.2100  176.8410  144.6020 C   0  0  0  0  0  3  0  0  0  0  0  0
  184.0720  178.1890  146.7430 Cl  0  0  0  0  0  0  0  0  0  0  0  0
  184.6320  177.9290  144.1690 N   0  0  0  0  0  0  0  0  0  0  0  0
  185.0780  177.7550  145.3780 C   0  0  0  0  0  0  0  0  0  0  0  0
  186.4520  177.2690  145.6150 C   0  0  0  0  0  3  0  0  0  0  0  0
  185.4250  177.5940  143.0250 C   0  0  0  0  0  0  0  0  0  0  0  0
  189.1400  172.7760  143.5310 O   0  0  0  0  0  0  0  0  0  0  0  0
  189.7940  172.3830  144.7330 C   0  0  0  0  0  2  0  0  0  0  0  0
  190.9740  173.6680  145.2510 S   0  0  0  0  0  0  0  0  0  0  0  0
  189.7100  174.5690  146.1930 C   0  0  0  0  0  2  0  0  0  0  0  0
  190.2060  176.7750  147.1820 C   0  0  0  0  0  2  0  0  0  0  0  0
  190.3520  175.2780  147.3690 C   0  0  0  0  0  3  0  0  0  0  0  0
  191.5240  176.0990  146.8730 C   0  0  0  0  0  2  0  0  0  0  0  0
  1 15  1  0  0  0  0
  1  3  1  0  0  0  0
  2  1  2  0  0  0  0
  3 29  1  0  0  0  0
  4  5  1  0  0  0  0
  5  3  2  0  0  0  0
  6  2  1  0  0  0  0
  6  4  2  0  0  0  0
  7 10  1  6  0  0  0
  7  8  1  0  0  0  0
  7  9  1  0  0  0  0
  8  9  1  0  0  0  0
  9  6  1  1  0  0  0
 11 10  1  0  0  0  0
 11 12  1  0  0  0  0
 13 11  1  0  0  0  0
 14 11  1  0  0  0  0
 15 16  2  0  0  0  0
 17 15  1  0  0  0  0
 18 28  2  0  0  0  0
 19 22  1  0  0  0  0
 20 19  1  0  0  0  0
 20 18  1  0  0  0  0
 21 23  1  1  0  0  0
 22 17  1  6  0  0  0
 22 21  1  0  0  0  0
 23 27  2  0  0  0  0
 25 26  2  0  0  0  0
 26 27  1  0  0  0  0
 26 24  1  0  0  0  0
 28 21  1  0  0  0  0
 28 25  1  0  0  0  0
 29 30  1  0  0  0  0
 30 31  1  0  0  0  0
 31 32  1  0  0  0  0
 32 34  1  0  0  0  0
 33 34  1  0  0  0  0
 35 33  1  0  0  0  0
 35 34  1  0  0  0  0
M  END
>  <MODEL>
3

>  <REMARK>
 VINA RESULT:      -6.7      5.194      7.926
  Name = 
  10 active torsions:
  status: ('A' for Active; 'I' for Inactive)
    1  A    between atoms: C_1  and  O_34
    2  A    between atoms: C_5  and  C_15
    3  A    between atoms: C_9  and  N_31
    4  A    between atoms: O_10  and  C_11
    5  A    between atoms: O_10  and  C_30
    6  A    between atoms: C_14  and  O_34
    7  A    between atoms: S_16  and  C_17
    8  A    between atoms: S_16  and  C_30
    9  A    between atoms: C_17  and  C_22
   10  A    between atoms: C_25  and  C_35
                            x       y       z     vdW  Elec       q    Type
                         _______ _______ _______ _____ _____    ______ ____

>  <TORSDO>
F 10

$$$$
=
 OpenBabel11042418193D

 35 39  0  0  1  0  0  0  0  0999 V2000
  188.5370  174.9220  142.8700 C   0  0  0  0  0  0  0  0  0  0  0  0
  189.4730  174.6730  143.8830 C   0  0  0  0  0  3  0  0  0  0  0  0
  187.8420  176.1520  142.8740 C   0  0  0  0  0  0  0  0  0  0  0  0
  189.0270  176.8030  144.8580 N   0  0  0  0  0  0  0  0  0  0  0  0
  188.1120  177.0810  143.8930 C   0  0  0  0  0  3  0  0  0  0  0  0
  189.7170  175.6310  144.8700 C   0  0  0  0  0  0  0  0  0  0  0  0
  191.9840  176.0140  145.6930 C   0  0  2  0  0  3  0  0  0  0  0  0
  191.0560  176.5410  146.6070 O   0  0  0  0  0  0  0  0  0  0  0  0
  190.6920  175.3420  145.9640 C   0  0  1  0  0  3  0  0  0  0  0  0
  193.0070  175.3610  146.3970 O   0  0  0  0  0  0  0  0  0  0  0  0
  194.1730  176.1470  146.2960 C   0  0  0  0  0  0  0  0  0  0  0  0
  194.1420  177.2000  147.2010 F   0  0  0  0  0  0  0  0  0  0  0  0
  195.3060  175.3760  146.5100 F   0  0  0  0  0  0  0  0  0  0  0  0
  194.2400  176.6730  145.0210 F   0  0  0  0  0  0  0  0  0  0  0  0
  188.3110  173.8800  141.8410 C   0  0  0  0  0  0  0  0  0  0  0  0
  187.4840  172.9490  142.0380 O   0  0  0  0  0  0  0  0  0  0  0  0
  189.0330  173.9370  140.6070 N   0  0  0  0  0  2  0  0  0  0  0  0
  190.2740  172.9740  137.0040 N   0  0  0  0  0  0  0  0  0  0  0  0
  188.2990  173.4940  138.3240 C   0  0  0  0  0  2  0  0  0  0  0  0
  189.3590  174.0470  137.3750 C   0  0  0  0  0  2  0  0  0  0  0  0
  190.3380  172.2840  139.3500 C   0  0  1  0  0  3  0  0  0  0  0  0
  188.9410  172.9010  139.5860 C   0  0  1  0  0  3  0  0  0  0  0  0
  190.5080  170.9940  140.1020 C   0  0  0  0  0  3  0  0  0  0  0  0
  192.9990  168.8510  137.7670 Cl  0  0  0  0  0  0  0  0  0  0  0  0
  191.6170  171.0920  137.4990 N   0  0  0  0  0  0  0  0  0  0  0  0
  191.9080  170.1110  138.3010 C   0  0  0  0  0  0  0  0  0  0  0  0
  191.2700  170.0040  139.6280 C   0  0  0  0  0  3  0  0  0  0  0  0
  190.7240  172.1400  137.8920 C   0  0  0  0  0  0  0  0  0  0  0  0
  186.9030  176.4420  141.8760 O   0  0  0  0  0  0  0  0  0  0  0  0
  186.4230  177.7550  141.6080 C   0  0  0  0  0  2  0  0  0  0  0  0
  184.7540  177.9650  142.3020 S   0  0  0  0  0  0  0  0  0  0  0  0
  185.3130  179.2280  143.4820 C   0  0  0  0  0  2  0  0  0  0  0  0
  185.4720  179.1290  145.9430 C   0  0  0  0  0  2  0  0  0  0  0  0
  184.5160  179.1210  144.7670 C   0  0  0  0  0  3  0  0  0  0  0  0
  184.8720  177.8240  145.4640 C   0  0  0  0  0  2  0  0  0  0  0  0
  1  3  2  0  0  0  0
  1  2  1  0  0  0  0
  2  6  2  0  0  0  0
  3  5  1  0  0  0  0
  4  6  1  0  0  0  0
  5  4  2  0  0  0  0
  7  9  1  0  0  0  0
  7 10  1  1  0  0  0
  7  8  1  0  0  0  0
  9  6  1  6  0  0  0
  9  8  1  0  0  0  0
 11 10  1  0  0  0  0
 11 13  1  0  0  0  0
 11 12  1  0  0  0  0
 14 11  1  0  0  0  0
 15 16  2  0  0  0  0
 15  1  1  0  0  0  0
 17 15  1  0  0  0  0
 18 20  1  0  0  0  0
 18 28  2  0  0  0  0
 19 22  1  0  0  0  0
 20 19  1  0  0  0  0
 21 22  1  0  0  0  0
 21 23  1  6  0  0  0
 22 17  1  1  0  0  0
 24 26  1  0  0  0  0
 25 28  1  0  0  0  0
 25 26  2  0  0  0  0
 26 27  1  0  0  0  0
 27 23  2  0  0  0  0
 28 21  1  0  0  0  0
 29  3  1  0  0  0  0
 30 29  1  0  0  0  0
 30 31  1  0  0  0  0
 31 32  1  0  0  0  0
 32 34  1  0  0  0  0
 34 35  1  0  0  0  0
 34 33  1  0  0  0  0
 35 33  1  0  0  0  0
M  END
>  <MODEL>
4

>  <REMARK>
 VINA RESULT:      -6.6      2.467      3.401
  Name = 
  10 active torsions:
  status: ('A' for Active; 'I' for Inactive)
    1  A    between atoms: C_1  and  O_34
    2  A    between atoms: C_5  and  C_15
    3  A    between atoms: C_9  and  N_31
    4  A    between atoms: O_10  and  C_11
    5  A    between atoms: O_10  and  C_30
    6  A    between atoms: C_14  and  O_34
    7  A    between atoms: S_16  and  C_17
    8  A    between atoms: S_16  and  C_30
    9  A    between atoms: C_17  and  C_22
   10  A    between atoms: C_25  and  C_35
                            x       y       z     vdW  Elec       q    Type
                         _______ _______ _______ _____ _____    ______ ____

>  <TORSDO>
F 10

$$$$
=
 OpenBabel11042418193D

 35 39  0  0  1  0  0  0  0  0999 V2000
  189.6610  174.7950  145.7450 C   0  0  0  0  0  0  0  0  0  0  0  0
  188.5120  175.5690  145.9630 C   0  0  0  0  0  3  0  0  0  0  0  0
  190.8860  175.2240  146.3030 C   0  0  0  0  0  0  0  0  0  0  0  0
  189.7770  177.1340  147.2440 N   0  0  0  0  0  0  0  0  0  0  0  0
  190.9110  176.4110  147.0540 C   0  0  0  0  0  3  0  0  0  0  0  0
  188.5830  176.7360  146.7270 C   0  0  0  0  0  0  0  0  0  0  0  0
  186.7770  177.9510  145.6190 C   0  0  2  0  0  3  0  0  0  0  0  0
  186.2380  176.9100  146.3920 O   0  0  0  0  0  0  0  0  0  0  0  0
  187.3610  177.5710  146.9260 C   0  0  1  0  0  3  0  0  0  0  0  0
  185.9870  179.1000  145.7750 O   0  0  0  0  0  0  0  0  0  0  0  0
  185.3250  179.3410  144.5550 C   0  0  0  0  0  0  0  0  0  0  0  0
  185.5660  180.6310  144.1040 F   0  0  0  0  0  0  0  0  0  0  0  0
  185.7210  178.4240  143.5920 F   0  0  0  0  0  0  0  0  0  0  0  0
  183.9660  179.1990  144.7560 F   0  0  0  0  0  0  0  0  0  0  0  0
  189.5420  173.5630  144.9310 C   0  0  0  0  0  0  0  0  0  0  0  0
  189.5930  172.4260  145.4730 O   0  0  0  0  0  0  0  0  0  0  0  0
  189.3560  173.6650  143.5160 N   0  0  0  0  0  2  0  0  0  0  0  0
  189.6220  172.5940  139.7440 N   0  0  0  0  0  0  0  0  0  0  0  0
  188.1380  172.6370  141.6700 C   0  0  0  0  0  2  0  0  0  0  0  0
  188.5500  173.3470  140.3840 C   0  0  0  0  0  2  0  0  0  0  0  0
  190.6940  172.3580  141.9300 C   0  0  1  0  0  3  0  0  0  0  0  0
  189.3270  172.5060  142.6340 C   0  0  1  0  0  3  0  0  0  0  0  0
  191.5620  171.3380  142.6130 C   0  0  0  0  0  3  0  0  0  0  0  0
  193.7630  169.7920  139.6110 Cl  0  0  0  0  0  0  0  0  0  0  0  0
  191.6460  171.3720  139.7830 N   0  0  0  0  0  0  0  0  0  0  0  0
  192.5220  170.6880  140.4590 C   0  0  0  0  0  0  0  0  0  0  0  0
  192.4360  170.5940  141.9310 C   0  0  0  0  0  3  0  0  0  0  0  0
  190.6100  172.1140  140.4370 C   0  0  0  0  0  0  0  0  0  0  0  0
  192.0560  174.4770  146.1130 O   0  0  0  0  0  0  0  0  0  0  0  0
  193.2060  174.9760  145.4410 C   0  0  0  0  0  2  0  0  0  0  0  0
  192.8140  175.3150  143.6960 S   0  0  0  0  0  0  0  0  0  0  0  0
  192.6580  177.1000  143.9910 C   0  0  0  0  0  2  0  0  0  0  0  0
  190.4630  178.1990  143.7290 C   0  0  0  0  0  2  0  0  0  0  0  0
  191.6910  177.7050  142.9920 C   0  0  0  0  0  3  0  0  0  0  0  0
  190.4170  176.8860  142.9780 C   0  0  0  0  0  2  0  0  0  0  0  0
  1  2  2  0  0  0  0
  1  3  1  0  0  0  0
  2  6  1  0  0  0  0
  3  5  2  0  0  0  0
  5  4  1  0  0  0  0
  6  4  2  0  0  0  0
  7 10  1  1  0  0  0
  7  8  1  0  0  0  0
  7  9  1  0  0  0  0
  8  9  1  0  0  0  0
  9  6  1  6  0  0  0
 11 14  1  0  0  0  0
 11 10  1  0  0  0  0
 12 11  1  0  0  0  0
 13 11  1  0  0  0  0
 15 16  2  0  0  0  0
 15  1  1  0  0  0  0
 17 15  1  0  0  0  0
 18 20  1  0  0  0  0
 18 28  2  0  0  0  0
 19 22  1  0  0  0  0
 20 19  1  0  0  0  0
 21 23  1  1  0  0  0
 21 22  1  0  0  0  0
 22 17  1  1  0  0  0
 24 26  1  0  0  0  0
 25 28  1  0  0  0  0
 25 26  2  0  0  0  0
 26 27  1  0  0  0  0
 27 23  2  0  0  0  0
 28 21  1  0  0  0  0
 29  3  1  0  0  0  0
 30 29  1  0  0  0  0
 31 32  1  0  0  0  0
 31 30  1  0  0  0  0
 34 33  1  0  0  0  0
 34 32  1  0  0  0  0
 35 34  1  0  0  0  0
 35 33  1  0  0  0  0
M  END
>  <MODEL>
5

>  <REMARK>
 VINA RESULT:      -6.5      3.741      5.715
  Name = 
  10 active torsions:
  status: ('A' for Active; 'I' for Inactive)
    1  A    between atoms: C_1  and  O_34
    2  A    between atoms: C_5  and  C_15
    3  A    between atoms: C_9  and  N_31
    4  A    between atoms: O_10  and  C_11
    5  A    between atoms: O_10  and  C_30
    6  A    between atoms: C_14  and  O_34
    7  A    between atoms: S_16  and  C_17
    8  A    between atoms: S_16  and  C_30
    9  A    between atoms: C_17  and  C_22
   10  A    between atoms: C_25  and  C_35
                            x       y       z     vdW  Elec       q    Type
                         _______ _______ _______ _____ _____    ______ ____

>  <TORSDO>
F 10

$$$$
=
 OpenBabel11042418193D

 35 39  0  0  1  0  0  0  0  0999 V2000
  190.6430  175.9360  145.0770 C   0  0  0  0  0  0  0  0  0  0  0  0
  189.7440  176.9160  145.5210 C   0  0  0  0  0  3  0  0  0  0  0  0
  190.4770  174.6070  145.5260 C   0  0  0  0  0  0  0  0  0  0  0  0
  188.5680  175.2910  146.8100 N   0  0  0  0  0  0  0  0  0  0  0  0
  189.4190  174.3140  146.4020 C   0  0  0  0  0  3  0  0  0  0  0  0
  188.7000  176.5750  146.3830 C   0  0  0  0  0  0  0  0  0  0  0  0
  186.5360  177.6590  146.0530 C   0  0  2  0  0  3  0  0  0  0  0  0
  186.5650  177.0420  147.3140 O   0  0  0  0  0  0  0  0  0  0  0  0
  187.7670  177.6320  146.8770 C   0  0  1  0  0  3  0  0  0  0  0  0
  185.9240  178.9170  146.1670 O   0  0  0  0  0  0  0  0  0  0  0  0
  184.9170  179.0000  145.1850 C   0  0  0  0  0  0  0  0  0  0  0  0
  183.6580  179.0430  145.7670 F   0  0  0  0  0  0  0  0  0  0  0  0
  185.1030  180.1170  144.3830 F   0  0  0  0  0  0  0  0  0  0  0  0
  184.9880  177.8750  144.3860 F   0  0  0  0  0  0  0  0  0  0  0  0
  191.7350  176.3400  144.1600 C   0  0  0  0  0  0  0  0  0  0  0  0
  191.5120  177.1250  143.2000 O   0  0  0  0  0  0  0  0  0  0  0  0
  193.0590  175.8390  144.3740 N   0  0  0  0  0  2  0  0  0  0  0  0
  196.6070  174.5430  143.2900 N   0  0  0  0  0  0  0  0  0  0  0  0
  195.4260  176.4210  144.2850 C   0  0  0  0  0  2  0  0  0  0  0  0
  196.2300  175.1540  144.5590 C   0  0  0  0  0  2  0  0  0  0  0  0
  194.3290  174.9260  142.4860 C   0  0  1  0  0  3  0  0  0  0  0  0
  194.1650  176.1090  143.4650 C   0  0  1  0  0  3  0  0  0  0  0  0
  193.6740  175.2060  141.1620 C   0  0  0  0  0  3  0  0  0  0  0  0
  195.9520  173.1850  138.5220 Cl  0  0  0  0  0  0  0  0  0  0  0  0
  196.1550  173.8440  141.0770 N   0  0  0  0  0  0  0  0  0  0  0  0
  195.4130  173.9280  140.0120 C   0  0  0  0  0  0  0  0  0  0  0  0
  194.1590  174.7080  140.0220 C   0  0  0  0  0  3  0  0  0  0  0  0
  195.7550  174.4430  142.3150 C   0  0  0  0  0  0  0  0  0  0  0  0
  191.3510  173.5980  145.1010 O   0  0  0  0  0  0  0  0  0  0  0  0
  190.9180  172.4040  144.4590 C   0  0  0  0  0  2  0  0  0  0  0  0
  191.3390  172.4590  142.6890 S   0  0  0  0  0  0  0  0  0  0  0  0
  189.6570  172.9590  142.2190 C   0  0  0  0  0  2  0  0  0  0  0  0
  188.3410  175.0460  142.2790 C   0  0  0  0  0  2  0  0  0  0  0  0
  189.6460  174.4230  141.8260 C   0  0  0  0  0  3  0  0  0  0  0  0
  188.5330  174.6600  140.8280 C   0  0  0  0  0  2  0  0  0  0  0  0
  1  2  2  0  0  0  0
  1  3  1  0  0  0  0
  2  6  1  0  0  0  0
  3  5  2  0  0  0  0
  5  4  1  0  0  0  0
  6  4  2  0  0  0  0
  7 10  1  1  0  0  0
  7  9  1  0  0  0  0
  7  8  1  0  0  0  0
  9  6  1  6  0  0  0
  9  8  1  0  0  0  0
 11 12  1  0  0  0  0
 11 10  1  0  0  0  0
 13 11  1  0  0  0  0
 14 11  1  0  0  0  0
 15 17  1  0  0  0  0
 15  1  1  0  0  0  0
 16 15  2  0  0  0  0
 18 20  1  0  0  0  0
 19 20  1  0  0  0  0
 21 23  1  6  0  0  0
 21 22  1  0  0  0  0
 22 19  1  0  0  0  0
 22 17  1  1  0  0  0
 24 26  1  0  0  0  0
 25 28  1  0  0  0  0
 26 27  1  0  0  0  0
 26 25  2  0  0  0  0
 27 23  2  0  0  0  0
 28 21  1  0  0  0  0
 28 18  2  0  0  0  0
 29  3  1  0  0  0  0
 30 29  1  0  0  0  0
 31 30  1  0  0  0  0
 32 31  1  0  0  0  0
 34 32  1  0  0  0  0
 34 33  1  0  0  0  0
 35 34  1  0  0  0  0
 35 33  1  0  0  0  0
M  END
>  <MODEL>
6

>  <REMARK>
 VINA RESULT:      -6.5      4.516      7.060
  Name = 
  10 active torsions:
  status: ('A' for Active; 'I' for Inactive)
    1  A    between atoms: C_1  and  O_34
    2  A    between atoms: C_5  and  C_15
    3  A    between atoms: C_9  and  N_31
    4  A    between atoms: O_10  and  C_11
    5  A    between atoms: O_10  and  C_30
    6  A    between atoms: C_14  and  O_34
    7  A    between atoms: S_16  and  C_17
    8  A    between atoms: S_16  and  C_30
    9  A    between atoms: C_17  and  C_22
   10  A    between atoms: C_25  and  C_35
                            x       y       z     vdW  Elec       q    Type
                         _______ _______ _______ _____ _____    ______ ____

>  <TORSDO>
F 10

$$$$
=
 OpenBabel11042418193D

 35 39  0  0  1  0  0  0  0  0999 V2000
  189.7870  175.3310  143.5080 C   0  0  0  0  0  0  0  0  0  0  0  0
  188.4250  175.6620  143.4670 C   0  0  0  0  0  3  0  0  0  0  0  0
  190.7370  176.3120  143.1500 C   0  0  0  0  0  0  0  0  0  0  0  0
  188.9570  177.8680  142.7330 N   0  0  0  0  0  0  0  0  0  0  0  0
  190.2850  177.5850  142.7620 C   0  0  0  0  0  3  0  0  0  0  0  0
  188.0230  176.9440  143.0850 C   0  0  0  0  0  0  0  0  0  0  0  0
  186.1760  178.1270  144.1590 C   0  0  2  0  0  3  0  0  0  0  0  0
  186.4050  178.6710  142.8840 O   0  0  0  0  0  0  0  0  0  0  0  0
  186.5690  177.2780  143.0110 C   0  0  1  0  0  3  0  0  0  0  0  0
  184.7940  178.0140  144.3730 O   0  0  0  0  0  0  0  0  0  0  0  0
  184.5310  178.3760  145.7090 C   0  0  0  0  0  0  0  0  0  0  0  0
  184.4420  177.2530  146.5200 F   0  0  0  0  0  0  0  0  0  0  0  0
  185.5150  179.2280  146.1910 F   0  0  0  0  0  0  0  0  0  0  0  0
  183.3210  179.0410  145.7550 F   0  0  0  0  0  0  0  0  0  0  0  0
  190.1700  173.9600  143.9220 C   0  0  0  0  0  0  0  0  0  0  0  0
  189.7950  173.4940  145.0310 O   0  0  0  0  0  0  0  0  0  0  0  0
  190.9670  173.1550  143.0470 N   0  0  0  0  0  2  0  0  0  0  0  0
  193.2660  170.2170  141.8100 N   0  0  0  0  0  0  0  0  0  0  0  0
  190.9790  170.8070  142.3880 C   0  0  0  0  0  2  0  0  0  0  0  0
  191.9860  170.6440  141.2550 C   0  0  0  0  0  2  0  0  0  0  0  0
  193.0020  171.8920  143.5730 C   0  0  1  0  0  3  0  0  0  0  0  0
  191.4660  171.8380  143.4180 C   0  0  1  0  0  3  0  0  0  0  0  0
  193.4100  172.0310  145.0130 C   0  0  0  0  0  3  0  0  0  0  0  0
  196.9440  170.1020  145.1970 Cl  0  0  0  0  0  0  0  0  0  0  0  0
  195.0020  170.3220  143.4120 N   0  0  0  0  0  0  0  0  0  0  0  0
  195.4040  170.6780  144.5970 C   0  0  0  0  0  0  0  0  0  0  0  0
  194.5450  171.4990  145.4730 C   0  0  0  0  0  3  0  0  0  0  0  0
  193.7450  170.7650  142.8860 C   0  0  0  0  0  0  0  0  0  0  0  0
  192.1070  176.0230  143.1840 O   0  0  0  0  0  0  0  0  0  0  0  0
  193.0540  176.7920  143.9180 C   0  0  0  0  0  2  0  0  0  0  0  0
  193.9680  175.7220  145.0730 S   0  0  0  0  0  0  0  0  0  0  0  0
  193.1150  176.4120  146.5200 C   0  0  0  0  0  2  0  0  0  0  0  0
  190.6820  176.7080  146.8060 C   0  0  0  0  0  2  0  0  0  0  0  0
  191.8010  175.6890  146.7360 C   0  0  0  0  0  3  0  0  0  0  0  0
  191.2270  176.0950  148.0780 C   0  0  0  0  0  2  0  0  0  0  0  0
  1 15  1  0  0  0  0
  2  1  1  0  0  0  0
  3 29  1  0  0  0  0
  3  1  2  0  0  0  0
  4  5  2  0  0  0  0
  4  6  1  0  0  0  0
  5  3  1  0  0  0  0
  6  2  2  0  0  0  0
  7 10  1  6  0  0  0
  8  9  1  0  0  0  0
  8  7  1  0  0  0  0
  9  6  1  1  0  0  0
  9  7  1  0  0  0  0
 10 11  1  0  0  0  0
 11 14  1  0  0  0  0
 11 13  1  0  0  0  0
 11 12  1  0  0  0  0
 15 16  2  0  0  0  0
 17 15  1  0  0  0  0
 18 28  2  0  0  0  0
 19 22  1  0  0  0  0
 20 18  1  0  0  0  0
 20 19  1  0  0  0  0
 21 23  1  1  0  0  0
 22 17  1  6  0  0  0
 22 21  1  0  0  0  0
 23 27  2  0  0  0  0
 25 26  2  0  0  0  0
 26 24  1  0  0  0  0
 26 27  1  0  0  0  0
 28 25  1  0  0  0  0
 28 21  1  0  0  0  0
 29 30  1  0  0  0  0
 30 31  1  0  0  0  0
 31 32  1  0  0  0  0
 32 34  1  0  0  0  0
 33 35  1  0  0  0  0
 34 33  1  0  0  0  0
 34 35  1  0  0  0  0
M  END
>  <MODEL>
7

>  <REMARK>
 VINA RESULT:      -6.5      4.763      7.073
  Name = 
  10 active torsions:
  status: ('A' for Active; 'I' for Inactive)
    1  A    between atoms: C_1  and  O_34
    2  A    between atoms: C_5  and  C_15
    3  A    between atoms: C_9  and  N_31
    4  A    between atoms: O_10  and  C_11
    5  A    between atoms: O_10  and  C_30
    6  A    between atoms: C_14  and  O_34
    7  A    between atoms: S_16  and  C_17
    8  A    between atoms: S_16  and  C_30
    9  A    between atoms: C_17  and  C_22
   10  A    between atoms: C_25  and  C_35
                            x       y       z     vdW  Elec       q    Type
                         _______ _______ _______ _____ _____    ______ ____

>  <TORSDO>
F 10

$$$$
=
 OpenBabel11042418193D

 35 39  0  0  1  0  0  0  0  0999 V2000
  189.1040  177.1600  143.3660 C   0  0  0  0  0  0  0  0  0  0  0  0
  188.6780  177.6250  142.1140 C   0  0  0  0  0  3  0  0  0  0  0  0
  188.1870  176.4580  144.1790 C   0  0  0  0  0  0  0  0  0  0  0  0
  186.5040  176.7170  142.4870 N   0  0  0  0  0  0  0  0  0  0  0  0
  186.8800  176.2510  143.7060 C   0  0  0  0  0  3  0  0  0  0  0  0
  187.3710  177.3870  141.6810 C   0  0  0  0  0  0  0  0  0  0  0  0
  186.6550  176.7990  139.4210 C   0  0  2  0  0  3  0  0  0  0  0  0
  185.6110  177.4620  140.0890 O   0  0  0  0  0  0  0  0  0  0  0  0
  186.9170  177.9150  140.3600 C   0  0  1  0  0  3  0  0  0  0  0  0
  186.7330  177.2700  138.1020 O   0  0  0  0  0  0  0  0  0  0  0  0
  186.6340  176.1600  137.2390 C   0  0  0  0  0  0  0  0  0  0  0  0
  187.2110  175.0340  137.8100 F   0  0  0  0  0  0  0  0  0  0  0  0
  185.3090  175.9010  136.9200 F   0  0  0  0  0  0  0  0  0  0  0  0
  187.3130  176.4500  136.0710 F   0  0  0  0  0  0  0  0  0  0  0  0
  190.4990  177.4320  143.7860 C   0  0  0  0  0  0  0  0  0  0  0  0
  190.8860  178.6110  144.0060 O   0  0  0  0  0  0  0  0  0  0  0  0
  191.4130  176.3430  143.9520 N   0  0  0  0  0  2  0  0  0  0  0  0
  194.5500  174.5310  145.4740 N   0  0  0  0  0  0  0  0  0  0  0  0
  193.0220  176.3970  145.7830 C   0  0  0  0  0  2  0  0  0  0  0  0
  193.3400  174.9560  146.1690 C   0  0  0  0  0  2  0  0  0  0  0  0
  193.6740  175.5510  143.4310 C   0  0  1  0  0  3  0  0  0  0  0  0
  192.8220  176.5320  144.2660 C   0  0  1  0  0  3  0  0  0  0  0  0
  194.2500  176.2160  142.2120 C   0  0  0  0  0  3  0  0  0  0  0  0
  197.7410  174.2860  141.6310 Cl  0  0  0  0  0  0  0  0  0  0  0  0
  195.9340  174.3840  143.5620 N   0  0  0  0  0  0  0  0  0  0  0  0
  196.2580  174.8300  142.3850 C   0  0  0  0  0  0  0  0  0  0  0  0
  195.4310  175.8500  141.7080 C   0  0  0  0  0  3  0  0  0  0  0  0
  194.7340  174.8080  144.2180 C   0  0  0  0  0  0  0  0  0  0  0  0
  188.5750  175.9710  145.4340 O   0  0  0  0  0  0  0  0  0  0  0  0
  187.7550  176.0500  146.5950 C   0  0  0  0  0  2  0  0  0  0  0  0
  187.5090  177.7900  147.0700 S   0  0  0  0  0  0  0  0  0  0  0  0
  185.7000  177.6390  147.0050 C   0  0  0  0  0  2  0  0  0  0  0  0
  184.2210  178.6960  145.3360 C   0  0  0  0  0  2  0  0  0  0  0  0
  185.0900  178.9500  146.5510 C   0  0  0  0  0  3  0  0  0  0  0  0
  185.6060  179.2840  145.1670 C   0  0  0  0  0  2  0  0  0  0  0  0
  1 15  1  0  0  0  0
  1  3  1  0  0  0  0
  2  1  2  0  0  0  0
  3 29  1  0  0  0  0
  4  5  1  0  0  0  0
  5  3  2  0  0  0  0
  6  2  1  0  0  0  0
  6  4  2  0  0  0  0
  7 10  1  6  0  0  0
  7  8  1  0  0  0  0
  7  9  1  0  0  0  0
  8  9  1  0  0  0  0
  9  6  1  1  0  0  0
 11 12  1  0  0  0  0
 11 10  1  0  0  0  0
 13 11  1  0  0  0  0
 14 11  1  0  0  0  0
 15 17  1  0  0  0  0
 15 16  2  0  0  0  0
 18 20  1  0  0  0  0
 19 20  1  0  0  0  0
 21 23  1  6  0  0  0
 21 28  1  0  0  0  0
 21 22  1  0  0  0  0
 22 17  1  1  0  0  0
 22 19  1  0  0  0  0
 24 26  1  0  0  0  0
 25 28  1  0  0  0  0
 26 25  2  0  0  0  0
 27 23  2  0  0  0  0
 27 26  1  0  0  0  0
 28 18  2  0  0  0  0
 29 30  1  0  0  0  0
 30 31  1  0  0  0  0
 32 31  1  0  0  0  0
 33 34  1  0  0  0  0
 34 32  1  0  0  0  0
 35 33  1  0  0  0  0
 35 34  1  0  0  0  0
M  END
>  <MODEL>
8

>  <REMARK>
 VINA RESULT:      -6.5      4.927      7.188
  Name = 
  10 active torsions:
  status: ('A' for Active; 'I' for Inactive)
    1  A    between atoms: C_1  and  O_34
    2  A    between atoms: C_5  and  C_15
    3  A    between atoms: C_9  and  N_31
    4  A    between atoms: O_10  and  C_11
    5  A    between atoms: O_10  and  C_30
    6  A    between atoms: C_14  and  O_34
    7  A    between atoms: S_16  and  C_17
    8  A    between atoms: S_16  and  C_30
    9  A    between atoms: C_17  and  C_22
   10  A    between atoms: C_25  and  C_35
                            x       y       z     vdW  Elec       q    Type
                         _______ _______ _______ _____ _____    ______ ____

>  <TORSDO>
F 10

$$$$
=
 OpenBabel11042418193D

 35 39  0  0  1  0  0  0  0  0999 V2000
  185.7260  177.6790  142.0130 C   0  0  0  0  0  0  0  0  0  0  0  0
  184.6530  177.7710  141.1160 C   0  0  0  0  0  3  0  0  0  0  0  0
  185.5290  178.0810  143.3530 C   0  0  0  0  0  0  0  0  0  0  0  0
  183.2500  178.6340  142.8400 N   0  0  0  0  0  0  0  0  0  0  0  0
  184.2660  178.5590  143.7390 C   0  0  0  0  0  3  0  0  0  0  0  0
  183.4120  178.2440  141.5480 C   0  0  0  0  0  0  0  0  0  0  0  0
  180.9840  178.2900  141.2830 C   0  0  2  0  0  3  0  0  0  0  0  0
  181.5260  179.5190  140.8710 O   0  0  0  0  0  0  0  0  0  0  0  0
  182.2840  178.3690  140.5770 C   0  0  1  0  0  3  0  0  0  0  0  0
  179.9840  177.9000  140.3800 O   0  0  0  0  0  0  0  0  0  0  0  0
  178.7520  177.9110  141.0650 C   0  0  0  0  0  0  0  0  0  0  0  0
  178.8110  177.1190  142.2040 F   0  0  0  0  0  0  0  0  0  0  0  0
  178.3930  179.2060  141.4100 F   0  0  0  0  0  0  0  0  0  0  0  0
  177.7790  177.3980  140.2300 F   0  0  0  0  0  0  0  0  0  0  0  0
  187.0250  177.1700  141.5150 C   0  0  0  0  0  0  0  0  0  0  0  0
  187.8230  177.9310  140.9040 O   0  0  0  0  0  0  0  0  0  0  0  0
  187.3810  175.8020  141.7370 N   0  0  0  0  0  2  0  0  0  0  0  0
  189.4050  172.4360  141.5860 N   0  0  0  0  0  0  0  0  0  0  0  0
  189.4880  174.7410  142.3570 C   0  0  0  0  0  2  0  0  0  0  0  0
  189.1880  173.2960  142.7440 C   0  0  0  0  0  2  0  0  0  0  0  0
  188.2130  174.0710  140.2120 C   0  0  1  0  0  3  0  0  0  0  0  0
  188.5920  175.1990  141.1960 C   0  0  1  0  0  3  0  0  0  0  0  0
  188.2660  174.5400  138.7840 C   0  0  0  0  0  3  0  0  0  0  0  0
  189.3180  171.2330  136.7330 Cl  0  0  0  0  0  0  0  0  0  0  0  0
  189.2130  171.9190  139.2870 N   0  0  0  0  0  0  0  0  0  0  0  0
  189.0110  172.3230  138.0670 C   0  0  0  0  0  0  0  0  0  0  0  0
  188.5990  173.7140  137.7900 C   0  0  0  0  0  3  0  0  0  0  0  0
  188.9810  172.7800  140.4080 C   0  0  0  0  0  0  0  0  0  0  0  0
  186.5740  177.9980  144.2820 O   0  0  0  0  0  0  0  0  0  0  0  0
  186.7650  176.8890  145.1530 C   0  0  0  0  0  2  0  0  0  0  0  0
  186.9270  177.4630  146.8720 S   0  0  0  0  0  0  0  0  0  0  0  0
  188.2890  176.3120  147.2170 C   0  0  0  0  0  2  0  0  0  0  0  0
  189.6540  174.5090  146.2290 C   0  0  0  0  0  2  0  0  0  0  0  0
  188.8120  175.7300  145.9190 C   0  0  0  0  0  3  0  0  0  0  0  0
  190.3230  175.8270  145.9050 C   0  0  0  0  0  2  0  0  0  0  0  0
  1  3  1  0  0  0  0
  2  6  1  0  0  0  0
  2  1  2  0  0  0  0
  3  5  2  0  0  0  0
  3 29  1  0  0  0  0
  4  5  1  0  0  0  0
  6  4  2  0  0  0  0
  7 10  1  6  0  0  0
  8  7  1  0  0  0  0
  9  8  1  0  0  0  0
  9  7  1  0  0  0  0
  9  6  1  1  0  0  0
 10 11  1  0  0  0  0
 11 13  1  0  0  0  0
 11 12  1  0  0  0  0
 14 11  1  0  0  0  0
 15 17  1  0  0  0  0
 15  1  1  0  0  0  0
 16 15  2  0  0  0  0
 18 20  1  0  0  0  0
 19 20  1  0  0  0  0
 21 23  1  6  0  0  0
 21 28  1  0  0  0  0
 21 22  1  0  0  0  0
 22 17  1  1  0  0  0
 22 19  1  0  0  0  0
 24 26  1  0  0  0  0
 25 28  1  0  0  0  0
 26 25  2  0  0  0  0
 27 26  1  0  0  0  0
 27 23  2  0  0  0  0
 28 18  2  0  0  0  0
 29 30  1  0  0  0  0
 30 31  1  0  0  0  0
 31 32  1  0  0  0  0
 34 33  1  0  0  0  0
 34 32  1  0  0  0  0
 35 34  1  0  0  0  0
 35 33  1  0  0  0  0
M  END
>  <MODEL>
9

>  <REMARK>
 VINA RESULT:      -6.4      6.309      9.250
  Name = 
  10 active torsions:
  status: ('A' for Active; 'I' for Inactive)
    1  A    between atoms: C_1  and  O_34
    2  A    between atoms: C_5  and  C_15
    3  A    between atoms: C_9  and  N_31
    4  A    between atoms: O_10  and  C_11
    5  A    between atoms: O_10  and  C_30
    6  A    between atoms: C_14  and  O_34
    7  A    between atoms: S_16  and  C_17
    8  A    between atoms: S_16  and  C_30
    9  A    between atoms: C_17  and  C_22
   10  A    between atoms: C_25  and  C_35
                            x       y       z     vdW  Elec       q    Type
                         _______ _______ _______ _____ _____    ______ ____

>  <TORSDO>
F 10

$$$$
