=
 OpenBabel11042414273D

 41 43  0  0  1  0  0  0  0  0999 V2000
  188.4540  174.8290  142.0700 C   0  0  1  0  0  3  0  0  0  0  0  0
  189.9630  177.1020  142.9220 C   0  0  0  0  0  0  0  0  0  0  0  0
  190.7030  178.0820  143.2000 O   0  0  0  0  0  0  0  0  0  0  0  0
  189.3140  174.8090  143.3110 C   0  0  0  0  0  3  0  0  0  0  0  0
  188.2460  176.2230  141.5010 C   0  0  0  0  0  0  0  0  0  0  0  0
  190.0570  175.8490  143.6830 C   0  0  0  0  0  0  0  0  0  0  0  0
  188.9830  177.2230  141.8870 N   0  0  0  0  0  0  0  0  0  0  0  0
  187.2700  176.4590  140.5280 O   0  0  0  0  0  0  0  0  0  0  0  0
  186.4560  177.6240  140.5230 C   0  0  0  0  0  1  0  0  0  0  0  0
  189.0640  173.9330  141.0020 C   0  0  0  0  0  2  0  0  0  0  0  0
  189.2450  172.5210  141.5290 C   0  0  0  0  0  2  0  0  0  0  0  0
  190.3770  171.9000  140.8680 N   0  0  0  0  0  2  0  0  0  0  0  0
  190.7760  170.8290  141.6780 N   0  0  0  0  0  2  0  0  0  0  0  0
  192.9980  170.3950  144.4600 N   0  0  0  0  0  0  0  0  0  0  0  0
  193.3230  171.7040  144.3680 C   0  0  0  0  0  0  0  0  0  0  0  0
  194.2560  172.3200  145.2650 N   0  0  0  0  0  2  0  0  0  0  0  0
  192.1050  170.0090  143.5500 N   0  0  0  0  0  0  0  0  0  0  0  0
  192.4700  172.4680  143.1240 S   0  0  0  0  0  0  0  0  0  0  0  0
  191.7100  171.0130  142.7400 C   0  0  0  0  0  0  0  0  0  0  0  0
  194.2190  174.6510  145.6900 C   0  0  0  0  0  3  0  0  0  0  0  0
  194.1440  176.9450  146.7630 C   0  0  0  0  0  1  0  0  0  0  0  0
  195.9220  175.9750  143.5040 C   0  0  0  0  0  3  0  0  0  0  0  0
  196.2820  174.6940  143.4320 C   0  0  0  0  0  3  0  0  0  0  0  0
  194.8610  173.6150  145.1460 C   0  0  0  0  0  0  0  0  0  0  0  0
  194.6630  176.0620  145.6850 C   0  0  0  0  0  0  0  0  0  0  0  0
  195.3660  176.6370  144.7010 C   0  0  0  0  0  3  0  0  0  0  0  0
  196.2480  173.7740  144.6060 C   0  0  0  0  0  2  0  0  0  0  0  0
  190.8940  175.7580  144.9160 C   0  0  0  0  0  2  0  0  0  0  0  0
  190.4810  174.5470  145.7350 C   0  0  0  0  0  2  0  0  0  0  0  0
  190.0580  174.9730  147.1260 C   0  0  1  0  0  3  0  0  0  0  0  0
  190.7500  176.1290  147.4960 O   0  0  0  0  0  1  0  0  0  0  0  0
  188.5650  175.2410  147.1310 C   0  0  0  0  0  2  0  0  0  0  0  0
  188.2890  176.7010  146.8120 C   0  0  0  0  0  2  0  0  0  0  0  0
  186.8990  176.8590  146.2150 C   0  0  0  0  0  2  0  0  0  0  0  0
  185.9940  179.8740  148.0650 O   0  0  0  0  0  0  0  0  0  0  0  0
  186.4280  178.7220  147.8000 C   0  0  0  0  0  3  0  0  0  0  0  0
  186.3750  178.1950  146.4650 N   0  0  0  0  0  0  0  0  0  0  0  0
  186.6320  178.5990  144.0570 C   0  0  0  0  0  1  0  0  0  0  0  0
  185.8800  178.9660  145.3230 C   0  0  1  0  0  3  0  0  0  0  0  0
  184.0830  178.4450  143.6740 C   0  0  0  0  0  1  0  0  0  0  0  0
  184.3830  178.7760  145.1240 C   0  0  0  0  0  2  0  0  0  0  0  0
  1 10  1  6  0  0  0
  1  4  1  0  0  0  0
  2  3  2  0  0  0  0
  2  6  1  0  0  0  0
  4  6  2  0  0  0  0
  5  7  2  0  0  0  0
  5  1  1  0  0  0  0
  6 28  1  0  0  0  0
  7  2  1  0  0  0  0
  8  5  1  0  0  0  0
  9  8  1  0  0  0  0
 10 11  1  0  0  0  0
 12 11  1  0  0  0  0
 12 13  1  0  0  0  0
 13 19  1  0  0  0  0
 15 14  2  0  0  0  0
 15 16  1  0  0  0  0
 17 14  1  0  0  0  0
 18 15  1  0  0  0  0
 19 18  1  0  0  0  0
 19 17  2  0  0  0  0
 22 26  1  0  0  0  0
 23 22  2  0  0  0  0
 23 27  1  0  0  0  0
 24 16  1  0  0  0  0
 24 20  2  0  0  0  0
 25 20  1  0  0  0  0
 25 21  1  0  0  0  0
 26 25  2  0  0  0  0
 27 24  1  0  0  0  0
 28 29  1  0  0  0  0
 29 30  1  0  0  0  0
 30 32  1  0  0  0  0
 30 31  1  6  0  0  0
 33 32  1  0  0  0  0
 34 37  1  0  0  0  0
 34 33  1  0  0  0  0
 36 35  2  0  0  0  0
 37 36  1  0  0  0  0
 39 38  1  6  0  0  0
 39 37  1  0  0  0  0
 40 41  1  0  0  0  0
 41 39  1  0  0  0  0
M  END
>  <MODEL>
1

>  <REMARK>
 VINA RESULT:      -6.7      0.000      0.000
  Name = 
  15 active torsions:
  status: ('A' for Active; 'I' for Inactive)
    1  A    between atoms: C_1  and  C_13
    2  A    between atoms: O_3  and  C_18
    3  A    between atoms: N_4  and  N_19
    4  A    between atoms: C_7  and  C_13
    5  A    between atoms: C_7  and  N_19
    6  A    between atoms: C_15  and  C_20
    7  A    between atoms: C_15  and  C_26
    8  A    between atoms: C_17  and  C_25
    9  A    between atoms: C_17  and  N_39
   10  A    between atoms: C_20  and  C_34
   11  A    between atoms: N_21  and  C_27
   12  A    between atoms: C_25  and  C_37
   13  A    between atoms: C_26  and  C_37
   14  A    between atoms: C_35  and  C_36
   15  A    between atoms: C_35  and  N_39
                            x       y       z     vdW  Elec       q    Type
                         _______ _______ _______ _____ _____    ______ ____

>  <TORSDO>
F 15

$$$$
=
 OpenBabel11042414273D

 41 43  0  0  1  0  0  0  0  0999 V2000
  191.7940  173.6350  142.4620 C   0  0  1  0  0  3  0  0  0  0  0  0
  190.2170  172.4940  144.5550 C   0  0  0  0  0  0  0  0  0  0  0  0
  189.4270  171.9880  145.3960 O   0  0  0  0  0  0  0  0  0  0  0  0
  191.3230  174.4400  143.6500 C   0  0  0  0  0  3  0  0  0  0  0  0
  191.6020  172.1370  142.6330 C   0  0  0  0  0  0  0  0  0  0  0  0
  190.5460  173.9250  144.6010 C   0  0  0  0  0  0  0  0  0  0  0  0
  190.8420  171.6610  143.5750 N   0  0  0  0  0  0  0  0  0  0  0  0
  192.2210  171.2340  141.7630 O   0  0  0  0  0  0  0  0  0  0  0  0
  193.6240  171.0160  141.7540 C   0  0  0  0  0  1  0  0  0  0  0  0
  191.0760  174.0970  141.2040 C   0  0  0  0  0  2  0  0  0  0  0  0
  189.9800  173.1170  140.8240 C   0  0  0  0  0  2  0  0  0  0  0  0
  188.7020  173.6100  141.2990 N   0  0  0  0  0  2  0  0  0  0  0  0
  188.2650  174.5560  140.3640 N   0  0  0  0  0  2  0  0  0  0  0  0
  186.7940  177.8250  140.5030 N   0  0  0  0  0  0  0  0  0  0  0  0
  186.8000  177.7390  141.8530 C   0  0  0  0  0  0  0  0  0  0  0  0
  186.3170  178.8020  142.6840 N   0  0  0  0  0  2  0  0  0  0  0  0
  187.2950  176.7460  139.9050 N   0  0  0  0  0  0  0  0  0  0  0  0
  187.4720  176.2780  142.3770 S   0  0  0  0  0  0  0  0  0  0  0  0
  187.7120  175.8040  140.7770 C   0  0  0  0  0  0  0  0  0  0  0  0
  186.8790  178.0440  144.8580 C   0  0  0  0  0  3  0  0  0  0  0  0
  188.0460  177.5280  147.0470 C   0  0  0  0  0  1  0  0  0  0  0  0
  184.2880  178.0810  146.5040 C   0  0  0  0  0  3  0  0  0  0  0  0
  183.9880  178.8440  145.4540 C   0  0  0  0  0  3  0  0  0  0  0  0
  186.0520  178.7600  144.0930 C   0  0  0  0  0  0  0  0  0  0  0  0
  186.7920  177.8690  146.3240 C   0  0  0  0  0  0  0  0  0  0  0  0
  185.6490  177.8410  147.0220 C   0  0  0  0  0  3  0  0  0  0  0  0
  185.0090  179.6380  144.7100 C   0  0  0  0  0  2  0  0  0  0  0  0
  190.1070  174.7810  145.7420 C   0  0  0  0  0  2  0  0  0  0  0  0
  191.2360  174.9230  146.7490 C   0  0  0  0  0  2  0  0  0  0  0  0
  191.6720  176.3710  146.8480 C   0  0  1  0  0  3  0  0  0  0  0  0
  191.2870  176.8950  148.0840 O   0  0  0  0  0  1  0  0  0  0  0  0
  193.1810  176.4450  146.7030 C   0  0  0  0  0  2  0  0  0  0  0  0
  193.5580  176.8090  145.2770 C   0  0  0  0  0  2  0  0  0  0  0  0
  194.9590  176.3090  144.9560 C   0  0  0  0  0  2  0  0  0  0  0  0
  194.6270  175.2980  141.4630 O   0  0  0  0  0  0  0  0  0  0  0  0
  194.6440  176.0070  142.5030 C   0  0  0  0  0  3  0  0  0  0  0  0
  194.9450  175.4400  143.7880 N   0  0  0  0  0  0  0  0  0  0  0  0
  196.7520  173.7930  143.5650 C   0  0  0  0  0  1  0  0  0  0  0  0
  195.3100  174.0330  143.9710 C   0  0  1  0  0  3  0  0  0  0  0  0
  193.9630  172.5530  145.4590 C   0  0  0  0  0  1  0  0  0  0  0  0
  195.0800  173.5770  145.4050 C   0  0  0  0  0  2  0  0  0  0  0  0
  1 10  1  6  0  0  0
  1  5  1  0  0  0  0
  1  4  1  0  0  0  0
  2  6  1  0  0  0  0
  2  3  2  0  0  0  0
  4  6  2  0  0  0  0
  5  7  2  0  0  0  0
  6 28  1  0  0  0  0
  7  2  1  0  0  0  0
  8  5  1  0  0  0  0
  9  8  1  0  0  0  0
 11 10  1  0  0  0  0
 11 12  1  0  0  0  0
 13 19  1  0  0  0  0
 13 12  1  0  0  0  0
 14 15  2  0  0  0  0
 15 18  1  0  0  0  0
 15 16  1  0  0  0  0
 16 24  1  0  0  0  0
 17 14  1  0  0  0  0
 17 19  2  0  0  0  0
 19 18  1  0  0  0  0
 20 25  1  0  0  0  0
 22 26  1  0  0  0  0
 23 22  2  0  0  0  0
 24 27  1  0  0  0  0
 24 20  2  0  0  0  0
 25 26  2  0  0  0  0
 25 21  1  0  0  0  0
 27 23  1  0  0  0  0
 28 29  1  0  0  0  0
 29 30  1  0  0  0  0
 30 31  1  1  0  0  0
 32 30  1  0  0  0  0
 33 32  1  0  0  0  0
 34 33  1  0  0  0  0
 35 36  2  0  0  0  0
 36 37  1  0  0  0  0
 37 39  1  0  0  0  0
 37 34  1  0  0  0  0
 39 38  1  1  0  0  0
 39 41  1  0  0  0  0
 41 40  1  0  0  0  0
M  END
>  <MODEL>
2

>  <REMARK>
 VINA RESULT:      -6.6      2.540      8.033
  Name = 
  15 active torsions:
  status: ('A' for Active; 'I' for Inactive)
    1  A    between atoms: C_1  and  C_13
    2  A    between atoms: O_3  and  C_18
    3  A    between atoms: N_4  and  N_19
    4  A    between atoms: C_7  and  C_13
    5  A    between atoms: C_7  and  N_19
    6  A    between atoms: C_15  and  C_20
    7  A    between atoms: C_15  and  C_26
    8  A    between atoms: C_17  and  C_25
    9  A    between atoms: C_17  and  N_39
   10  A    between atoms: C_20  and  C_34
   11  A    between atoms: N_21  and  C_27
   12  A    between atoms: C_25  and  C_37
   13  A    between atoms: C_26  and  C_37
   14  A    between atoms: C_35  and  C_36
   15  A    between atoms: C_35  and  N_39
                            x       y       z     vdW  Elec       q    Type
                         _______ _______ _______ _____ _____    ______ ____

>  <TORSDO>
F 15

$$$$
=
 OpenBabel11042414273D

 41 43  0  0  1  0  0  0  0  0999 V2000
  194.8720  173.9450  144.9370 C   0  0  1  0  0  3  0  0  0  0  0  0
  194.0720  176.3170  146.3170 C   0  0  0  0  0  0  0  0  0  0  0  0
  193.8150  177.3400  147.0040 O   0  0  0  0  0  0  0  0  0  0  0  0
  193.6080  174.0140  145.7610 C   0  0  0  0  0  3  0  0  0  0  0  0
  195.5030  175.3040  144.6830 C   0  0  0  0  0  0  0  0  0  0  0  0
  193.2580  175.1010  146.4450 C   0  0  0  0  0  0  0  0  0  0  0  0
  195.1380  176.3510  145.3630 N   0  0  0  0  0  0  0  0  0  0  0  0
  196.5110  175.4560  143.7260 O   0  0  0  0  0  0  0  0  0  0  0  0
  196.9480  176.7270  143.2660 C   0  0  0  0  0  1  0  0  0  0  0  0
  195.8850  173.0360  145.6170 C   0  0  0  0  0  2  0  0  0  0  0  0
  195.5760  171.5780  145.3250 C   0  0  0  0  0  2  0  0  0  0  0  0
  195.8570  171.2940  143.9310 N   0  0  0  0  0  2  0  0  0  0  0  0
  195.3110  170.0330  143.6610 N   0  0  0  0  0  2  0  0  0  0  0  0
  192.2050  168.7990  142.3580 N   0  0  0  0  0  0  0  0  0  0  0  0
  191.7650  170.0750  142.2760 C   0  0  0  0  0  0  0  0  0  0  0  0
  190.4620  170.3980  141.7750 N   0  0  0  0  0  2  0  0  0  0  0  0
  193.4450  168.6990  142.8340 N   0  0  0  0  0  0  0  0  0  0  0  0
  192.9460  171.1710  142.7880 S   0  0  0  0  0  0  0  0  0  0  0  0
  193.9980  169.8960  143.1210 C   0  0  0  0  0  0  0  0  0  0  0  0
  189.6700  172.3650  140.7160 C   0  0  0  0  0  3  0  0  0  0  0  0
  188.5040  174.0380  139.2140 C   0  0  0  0  0  1  0  0  0  0  0  0
  189.4860  174.5250  142.8910 C   0  0  0  0  0  3  0  0  0  0  0  0
  189.5680  173.3960  143.5940 C   0  0  0  0  0  3  0  0  0  0  0  0
  189.7850  171.6610  141.8450 C   0  0  0  0  0  0  0  0  0  0  0  0
  189.0130  173.6810  140.5640 C   0  0  0  0  0  0  0  0  0  0  0  0
  188.9810  174.6320  141.5070 C   0  0  0  0  0  3  0  0  0  0  0  0
  189.0670  172.0860  143.0880 C   0  0  0  0  0  2  0  0  0  0  0  0
  192.0010  175.0980  147.2490 C   0  0  0  0  0  2  0  0  0  0  0  0
  190.7970  175.2050  146.3280 C   0  0  0  0  0  2  0  0  0  0  0  0
  190.0020  176.4560  146.6450 C   0  0  1  0  0  3  0  0  0  0  0  0
  190.3300  177.4650  145.7360 O   0  0  0  0  0  1  0  0  0  0  0  0
  188.5210  176.1390  146.5540 C   0  0  0  0  0  2  0  0  0  0  0  0
  187.7630  177.3190  145.9680 C   0  0  0  0  0  2  0  0  0  0  0  0
  187.1170  176.9290  144.6470 C   0  0  0  0  0  2  0  0  0  0  0  0
  185.5170  180.1600  144.0650 O   0  0  0  0  0  0  0  0  0  0  0  0
  185.9290  179.1190  144.6420 C   0  0  0  0  0  3  0  0  0  0  0  0
  186.6570  178.1080  143.9270 N   0  0  0  0  0  0  0  0  0  0  0  0
  188.5230  178.1120  142.3310 C   0  0  0  0  0  1  0  0  0  0  0  0
  187.0220  178.2390  142.5150 C   0  0  1  0  0  3  0  0  0  0  0  0
  186.7230  177.3540  140.2020 C   0  0  0  0  0  1  0  0  0  0  0  0
  186.2950  177.2180  141.6500 C   0  0  0  0  0  2  0  0  0  0  0  0
  1 10  1  1  0  0  0
  1  4  1  0  0  0  0
  2  6  1  0  0  0  0
  2  3  2  0  0  0  0
  4  6  2  0  0  0  0
  5  1  1  0  0  0  0
  5  7  2  0  0  0  0
  6 28  1  0  0  0  0
  7  2  1  0  0  0  0
  8  5  1  0  0  0  0
  9  8  1  0  0  0  0
 11 10  1  0  0  0  0
 12 11  1  0  0  0  0
 13 12  1  0  0  0  0
 14 17  1  0  0  0  0
 15 14  2  0  0  0  0
 15 18  1  0  0  0  0
 16 24  1  0  0  0  0
 16 15  1  0  0  0  0
 17 19  2  0  0  0  0
 18 19  1  0  0  0  0
 19 13  1  0  0  0  0
 20 24  2  0  0  0  0
 21 25  1  0  0  0  0
 22 23  2  0  0  0  0
 24 27  1  0  0  0  0
 25 20  1  0  0  0  0
 25 26  2  0  0  0  0
 26 22  1  0  0  0  0
 27 23  1  0  0  0  0
 29 30  1  0  0  0  0
 29 28  1  0  0  0  0
 30 31  1  6  0  0  0
 32 30  1  0  0  0  0
 33 32  1  0  0  0  0
 34 33  1  0  0  0  0
 35 36  2  0  0  0  0
 37 36  1  0  0  0  0
 37 34  1  0  0  0  0
 39 38  1  1  0  0  0
 39 37  1  0  0  0  0
 40 41  1  0  0  0  0
 41 39  1  0  0  0  0
M  END
>  <MODEL>
3

>  <REMARK>
 VINA RESULT:      -6.5      2.024      5.607
  Name = 
  15 active torsions:
  status: ('A' for Active; 'I' for Inactive)
    1  A    between atoms: C_1  and  C_13
    2  A    between atoms: O_3  and  C_18
    3  A    between atoms: N_4  and  N_19
    4  A    between atoms: C_7  and  C_13
    5  A    between atoms: C_7  and  N_19
    6  A    between atoms: C_15  and  C_20
    7  A    between atoms: C_15  and  C_26
    8  A    between atoms: C_17  and  C_25
    9  A    between atoms: C_17  and  N_39
   10  A    between atoms: C_20  and  C_34
   11  A    between atoms: N_21  and  C_27
   12  A    between atoms: C_25  and  C_37
   13  A    between atoms: C_26  and  C_37
   14  A    between atoms: C_35  and  C_36
   15  A    between atoms: C_35  and  N_39
                            x       y       z     vdW  Elec       q    Type
                         _______ _______ _______ _____ _____    ______ ____

>  <TORSDO>
F 15

$$$$
=
 OpenBabel11042414273D

 41 43  0  0  1  0  0  0  0  0999 V2000
  185.5020  177.3250  142.4000 C   0  0  1  0  0  3  0  0  0  0  0  0
  184.2060  178.4440  144.6890 C   0  0  0  0  0  0  0  0  0  0  0  0
  183.7030  179.0410  145.6770 O   0  0  0  0  0  0  0  0  0  0  0  0
  185.8050  176.8650  143.8060 C   0  0  0  0  0  3  0  0  0  0  0  0
  184.2670  178.2060  142.3050 C   0  0  0  0  0  0  0  0  0  0  0  0
  185.2410  177.4190  144.8780 C   0  0  0  0  0  0  0  0  0  0  0  0
  183.7330  178.7290  143.3690 N   0  0  0  0  0  0  0  0  0  0  0  0
  183.6900  178.4950  141.0650 O   0  0  0  0  0  0  0  0  0  0  0  0
  182.3120  178.2790  140.7910 C   0  0  0  0  0  1  0  0  0  0  0  0
  186.6990  178.0690  141.8280 C   0  0  0  0  0  2  0  0  0  0  0  0
  187.2680  177.3270  140.6310 C   0  0  0  0  0  2  0  0  0  0  0  0
  187.9990  176.1600  141.0880 N   0  0  0  0  0  2  0  0  0  0  0  0
  187.8420  175.1790  140.1010 N   0  0  0  0  0  2  0  0  0  0  0  0
  189.2720  171.9600  139.4230 N   0  0  0  0  0  0  0  0  0  0  0  0
  190.0640  172.1150  140.5070 C   0  0  0  0  0  0  0  0  0  0  0  0
  191.0000  171.1080  140.9150 N   0  0  0  0  0  2  0  0  0  0  0  0
  188.4590  172.9930  139.2130 N   0  0  0  0  0  0  0  0  0  0  0  0
  189.7620  173.5830  141.2900 S   0  0  0  0  0  0  0  0  0  0  0  0
  188.5950  173.9680  140.1370 C   0  0  0  0  0  0  0  0  0  0  0  0
  193.2050  171.7650  141.4880 C   0  0  0  0  0  3  0  0  0  0  0  0
  195.3520  173.0470  141.8910 C   0  0  0  0  0  1  0  0  0  0  0  0
  194.0410  170.0460  143.8910 C   0  0  0  0  0  3  0  0  0  0  0  0
  192.7160  169.9000  143.8630 C   0  0  0  0  0  3  0  0  0  0  0  0
  192.0480  171.2290  141.8870 C   0  0  0  0  0  0  0  0  0  0  0  0
  194.4060  171.9830  142.3220 C   0  0  0  0  0  0  0  0  0  0  0  0
  194.7830  171.1970  143.3380 C   0  0  0  0  0  3  0  0  0  0  0  0
  191.7960  170.9480  143.3350 C   0  0  0  0  0  2  0  0  0  0  0  0
  185.5940  176.9230  146.2400 C   0  0  0  0  0  2  0  0  0  0  0  0
  186.6780  177.8000  146.8450 C   0  0  0  0  0  2  0  0  0  0  0  0
  188.0110  177.0790  146.8220 C   0  0  1  0  0  3  0  0  0  0  0  0
  187.8210  175.7270  147.1190 O   0  0  0  0  0  1  0  0  0  0  0  0
  188.6270  177.2220  145.4430 C   0  0  0  0  0  2  0  0  0  0  0  0
  190.0540  177.7350  145.5520 C   0  0  0  0  0  2  0  0  0  0  0  0
  191.0340  176.6760  145.0700 C   0  0  0  0  0  2  0  0  0  0  0  0
  191.5800  175.2980  148.4080 O   0  0  0  0  0  0  0  0  0  0  0  0
  191.3780  176.1180  147.4740 C   0  0  0  0  0  3  0  0  0  0  0  0
  191.2780  175.6840  146.1090 N   0  0  0  0  0  0  0  0  0  0  0  0
  190.0310  173.8320  145.0860 C   0  0  0  0  0  1  0  0  0  0  0  0
  191.3400  174.2750  145.7150 C   0  0  1  0  0  3  0  0  0  0  0  0
  193.8220  174.2210  145.4790 C   0  0  0  0  0  1  0  0  0  0  0  0
  192.5000  174.0080  144.7660 C   0  0  0  0  0  2  0  0  0  0  0  0
  1 10  1  1  0  0  0
  1  4  1  0  0  0  0
  2  6  1  0  0  0  0
  2  3  2  0  0  0  0
  4  6  2  0  0  0  0
  5  1  1  0  0  0  0
  5  7  2  0  0  0  0
  6 28  1  0  0  0  0
  7  2  1  0  0  0  0
  8  5  1  0  0  0  0
  9  8  1  0  0  0  0
 11 12  1  0  0  0  0
 11 10  1  0  0  0  0
 13 19  1  0  0  0  0
 13 12  1  0  0  0  0
 14 15  2  0  0  0  0
 15 16  1  0  0  0  0
 15 18  1  0  0  0  0
 16 24  1  0  0  0  0
 17 14  1  0  0  0  0
 17 19  2  0  0  0  0
 19 18  1  0  0  0  0
 20 24  2  0  0  0  0
 20 25  1  0  0  0  0
 21 25  1  0  0  0  0
 23 22  2  0  0  0  0
 24 27  1  0  0  0  0
 25 26  2  0  0  0  0
 26 22  1  0  0  0  0
 27 23  1  0  0  0  0
 28 29  1  0  0  0  0
 30 29  1  0  0  0  0
 30 31  1  6  0  0  0
 32 33  1  0  0  0  0
 32 30  1  0  0  0  0
 34 33  1  0  0  0  0
 34 37  1  0  0  0  0
 36 35  2  0  0  0  0
 37 36  1  0  0  0  0
 39 38  1  6  0  0  0
 39 37  1  0  0  0  0
 41 40  1  0  0  0  0
 41 39  1  0  0  0  0
M  END
>  <MODEL>
4

>  <REMARK>
 VINA RESULT:      -6.4      2.409      5.609
  Name = 
  15 active torsions:
  status: ('A' for Active; 'I' for Inactive)
    1  A    between atoms: C_1  and  C_13
    2  A    between atoms: O_3  and  C_18
    3  A    between atoms: N_4  and  N_19
    4  A    between atoms: C_7  and  C_13
    5  A    between atoms: C_7  and  N_19
    6  A    between atoms: C_15  and  C_20
    7  A    between atoms: C_15  and  C_26
    8  A    between atoms: C_17  and  C_25
    9  A    between atoms: C_17  and  N_39
   10  A    between atoms: C_20  and  C_34
   11  A    between atoms: N_21  and  C_27
   12  A    between atoms: C_25  and  C_37
   13  A    between atoms: C_26  and  C_37
   14  A    between atoms: C_35  and  C_36
   15  A    between atoms: C_35  and  N_39
                            x       y       z     vdW  Elec       q    Type
                         _______ _______ _______ _____ _____    ______ ____

>  <TORSDO>
F 15

$$$$
=
 OpenBabel11042414273D

 41 43  0  0  1  0  0  0  0  0999 V2000
  185.7240  177.1660  142.6100 C   0  0  1  0  0  3  0  0  0  0  0  0
  184.4410  178.3970  144.8480 C   0  0  0  0  0  0  0  0  0  0  0  0
  183.9480  179.0410  145.8120 O   0  0  0  0  0  0  0  0  0  0  0  0
  185.9920  176.7370  144.0330 C   0  0  0  0  0  3  0  0  0  0  0  0
  184.5230  178.0880  142.4740 C   0  0  0  0  0  0  0  0  0  0  0  0
  185.4350  177.3410  145.0800 C   0  0  0  0  0  0  0  0  0  0  0  0
  183.9950  178.6610  143.5150 N   0  0  0  0  0  0  0  0  0  0  0  0
  183.9720  178.3620  141.2180 O   0  0  0  0  0  0  0  0  0  0  0  0
  182.5770  178.2900  140.9600 C   0  0  0  0  0  1  0  0  0  0  0  0
  186.9540  177.8490  142.0340 C   0  0  0  0  0  2  0  0  0  0  0  0
  187.5870  176.9890  140.9540 C   0  0  0  0  0  2  0  0  0  0  0  0
  188.4870  176.0300  141.5650 N   0  0  0  0  0  2  0  0  0  0  0  0
  188.2840  174.8130  140.9030 N   0  0  0  0  0  2  0  0  0  0  0  0
  190.1620  171.7930  140.4350 N   0  0  0  0  0  0  0  0  0  0  0  0
  191.1760  172.3480  141.1380 C   0  0  0  0  0  0  0  0  0  0  0  0
  192.3960  171.6420  141.3980 N   0  0  0  0  0  2  0  0  0  0  0  0
  189.1070  172.5950  140.3100 N   0  0  0  0  0  0  0  0  0  0  0  0
  190.7810  173.9040  141.6700 S   0  0  0  0  0  0  0  0  0  0  0  0
  189.2740  173.7860  140.9230 C   0  0  0  0  0  0  0  0  0  0  0  0
  193.9970  171.7850  143.1390 C   0  0  0  0  0  3  0  0  0  0  0  0
  195.7400  171.2950  144.9110 C   0  0  0  0  0  1  0  0  0  0  0  0
  195.4040  174.4970  142.8230 C   0  0  0  0  0  3  0  0  0  0  0  0
  194.8110  174.3260  141.6420 C   0  0  0  0  0  3  0  0  0  0  0  0
  193.6210  172.1750  141.9180 C   0  0  0  0  0  0  0  0  0  0  0  0
  195.2180  172.2070  143.8600 C   0  0  0  0  0  0  0  0  0  0  0  0
  195.7930  173.4120  143.7460 C   0  0  0  0  0  3  0  0  0  0  0  0
  194.5420  172.9810  141.0560 C   0  0  0  0  0  2  0  0  0  0  0  0
  185.7530  176.8730  146.4610 C   0  0  0  0  0  2  0  0  0  0  0  0
  186.7550  177.8140  147.1100 C   0  0  0  0  0  2  0  0  0  0  0  0
  188.1700  177.3910  146.7700 C   0  0  1  0  0  3  0  0  0  0  0  0
  189.0680  178.0010  147.6490 O   0  0  0  0  0  1  0  0  0  0  0  0
  188.2780  175.8820  146.8870 C   0  0  0  0  0  2  0  0  0  0  0  0
  189.0340  175.3120  145.6990 C   0  0  0  0  0  2  0  0  0  0  0  0
  189.6310  176.4350  144.8630 C   0  0  0  0  0  2  0  0  0  0  0  0
  192.9870  176.7910  143.4690 O   0  0  0  0  0  0  0  0  0  0  0  0
  191.7420  176.8970  143.6240 C   0  0  0  0  0  3  0  0  0  0  0  0
  191.0720  176.2720  144.7300 N   0  0  0  0  0  0  0  0  0  0  0  0
  192.4730  174.3110  145.1990 C   0  0  0  0  0  1  0  0  0  0  0  0
  191.7820  175.5330  145.7760 C   0  0  1  0  0  3  0  0  0  0  0  0
  194.1540  175.7600  146.5130 C   0  0  0  0  0  1  0  0  0  0  0  0
  192.7860  176.4150  146.5040 C   0  0  0  0  0  2  0  0  0  0  0  0
  1 10  1  1  0  0  0
  1  4  1  0  0  0  0
  2  6  1  0  0  0  0
  2  3  2  0  0  0  0
  4  6  2  0  0  0  0
  5  1  1  0  0  0  0
  5  7  2  0  0  0  0
  6 28  1  0  0  0  0
  7  2  1  0  0  0  0
  8  5  1  0  0  0  0
  9  8  1  0  0  0  0
 11 12  1  0  0  0  0
 11 10  1  0  0  0  0
 13 19  1  0  0  0  0
 13 12  1  0  0  0  0
 14 15  2  0  0  0  0
 15 16  1  0  0  0  0
 15 18  1  0  0  0  0
 16 24  1  0  0  0  0
 17 14  1  0  0  0  0
 17 19  2  0  0  0  0
 19 18  1  0  0  0  0
 20 25  1  0  0  0  0
 22 26  1  0  0  0  0
 23 22  2  0  0  0  0
 24 20  2  0  0  0  0
 25 21  1  0  0  0  0
 26 25  2  0  0  0  0
 27 23  1  0  0  0  0
 27 24  1  0  0  0  0
 28 29  1  0  0  0  0
 30 32  1  0  0  0  0
 30 29  1  0  0  0  0
 30 31  1  1  0  0  0
 33 32  1  0  0  0  0
 34 33  1  0  0  0  0
 35 36  2  0  0  0  0
 36 37  1  0  0  0  0
 37 34  1  0  0  0  0
 37 39  1  0  0  0  0
 39 38  1  6  0  0  0
 39 41  1  0  0  0  0
 41 40  1  0  0  0  0
M  END
>  <MODEL>
5

>  <REMARK>
 VINA RESULT:      -6.4      2.074      5.133
  Name = 
  15 active torsions:
  status: ('A' for Active; 'I' for Inactive)
    1  A    between atoms: C_1  and  C_13
    2  A    between atoms: O_3  and  C_18
    3  A    between atoms: N_4  and  N_19
    4  A    between atoms: C_7  and  C_13
    5  A    between atoms: C_7  and  N_19
    6  A    between atoms: C_15  and  C_20
    7  A    between atoms: C_15  and  C_26
    8  A    between atoms: C_17  and  C_25
    9  A    between atoms: C_17  and  N_39
   10  A    between atoms: C_20  and  C_34
   11  A    between atoms: N_21  and  C_27
   12  A    between atoms: C_25  and  C_37
   13  A    between atoms: C_26  and  C_37
   14  A    between atoms: C_35  and  C_36
   15  A    between atoms: C_35  and  N_39
                            x       y       z     vdW  Elec       q    Type
                         _______ _______ _______ _____ _____    ______ ____

>  <TORSDO>
F 15

$$$$
=
 OpenBabel11042414273D

 41 43  0  0  1  0  0  0  0  0999 V2000
  188.2250  175.0910  141.9610 C   0  0  1  0  0  3  0  0  0  0  0  0
  189.7700  177.3100  142.8860 C   0  0  0  0  0  0  0  0  0  0  0  0
  190.5040  178.2910  143.1800 O   0  0  0  0  0  0  0  0  0  0  0  0
  189.3450  174.9350  142.9620 C   0  0  0  0  0  3  0  0  0  0  0  0
  187.8220  176.5380  141.7260 C   0  0  0  0  0  0  0  0  0  0  0  0
  190.0990  175.9580  143.3570 C   0  0  0  0  0  0  0  0  0  0  0  0
  188.5750  177.5180  142.1280 N   0  0  0  0  0  0  0  0  0  0  0  0
  186.6390  176.8480  141.0480 O   0  0  0  0  0  0  0  0  0  0  0  0
  186.6250  177.5360  139.8040 C   0  0  0  0  0  1  0  0  0  0  0  0
  188.6190  174.4550  140.6370 C   0  0  0  0  0  2  0  0  0  0  0  0
  188.6620  172.9420  140.7620 C   0  0  0  0  0  2  0  0  0  0  0  0
  190.0310  172.5130  140.9800 N   0  0  0  0  0  2  0  0  0  0  0  0
  190.7940  173.0700  139.9460 N   0  0  0  0  0  2  0  0  0  0  0  0
  194.0220  174.6090  139.6720 N   0  0  0  0  0  0  0  0  0  0  0  0
  194.1740  174.4610  141.0080 C   0  0  0  0  0  0  0  0  0  0  0  0
  195.3630  174.8850  141.6880 N   0  0  0  0  0  2  0  0  0  0  0  0
  192.8600  174.1430  139.2200 N   0  0  0  0  0  0  0  0  0  0  0  0
  192.8350  173.6980  141.7030 S   0  0  0  0  0  0  0  0  0  0  0  0
  192.0900  173.6120  140.1930 C   0  0  0  0  0  0  0  0  0  0  0  0
  195.8230  173.8830  143.7860 C   0  0  0  0  0  3  0  0  0  0  0  0
  196.8520  172.6100  145.7200 C   0  0  0  0  0  1  0  0  0  0  0  0
  194.6340  175.7340  145.9290 C   0  0  0  0  0  3  0  0  0  0  0  0
  194.6720  176.5110  144.8470 C   0  0  0  0  0  3  0  0  0  0  0  0
  195.5660  175.0020  143.1030 C   0  0  0  0  0  0  0  0  0  0  0  0
  196.0660  173.7780  145.2410 C   0  0  0  0  0  0  0  0  0  0  0  0
  195.5020  174.5640  146.1680 C   0  0  0  0  0  3  0  0  0  0  0  0
  195.6800  176.3420  143.7610 C   0  0  0  0  0  2  0  0  0  0  0  0
  191.1980  175.7310  144.3400 C   0  0  0  0  0  2  0  0  0  0  0  0
  190.7350  174.7720  145.4240 C   0  0  0  0  0  2  0  0  0  0  0  0
  190.3370  175.5390  146.6690 C   0  0  1  0  0  3  0  0  0  0  0  0
  190.8550  176.8360  146.6100 O   0  0  0  0  0  1  0  0  0  0  0  0
  188.8230  175.5920  146.7570 C   0  0  0  0  0  2  0  0  0  0  0  0
  188.3130  176.9480  146.3000 C   0  0  0  0  0  2  0  0  0  0  0  0
  187.0660  176.7840  145.4450 C   0  0  0  0  0  2  0  0  0  0  0  0
  185.5640  179.9770  144.5040 O   0  0  0  0  0  0  0  0  0  0  0  0
  186.2820  178.9420  144.4790 C   0  0  0  0  0  3  0  0  0  0  0  0
  186.2190  177.9650  145.5300 N   0  0  0  0  0  0  0  0  0  0  0  0
  184.4500  176.8060  146.7770 C   0  0  0  0  0  1  0  0  0  0  0  0
  185.2870  178.0650  146.6560 C   0  0  1  0  0  3  0  0  0  0  0  0
  186.4530  179.7970  148.0210 C   0  0  0  0  0  1  0  0  0  0  0  0
  186.0150  178.3460  147.9630 C   0  0  0  0  0  2  0  0  0  0  0  0
  1 10  1  6  0  0  0
  1  4  1  0  0  0  0
  2  3  2  0  0  0  0
  2  6  1  0  0  0  0
  4  6  2  0  0  0  0
  5  1  1  0  0  0  0
  5  7  2  0  0  0  0
  6 28  1  0  0  0  0
  7  2  1  0  0  0  0
  8  5  1  0  0  0  0
  9  8  1  0  0  0  0
 10 11  1  0  0  0  0
 11 12  1  0  0  0  0
 13 19  1  0  0  0  0
 13 12  1  0  0  0  0
 14 15  2  0  0  0  0
 15 16  1  0  0  0  0
 15 18  1  0  0  0  0
 16 24  1  0  0  0  0
 17 14  1  0  0  0  0
 17 19  2  0  0  0  0
 19 18  1  0  0  0  0
 20 25  1  0  0  0  0
 22 26  1  0  0  0  0
 23 22  2  0  0  0  0
 24 27  1  0  0  0  0
 24 20  2  0  0  0  0
 25 21  1  0  0  0  0
 25 26  2  0  0  0  0
 27 23  1  0  0  0  0
 28 29  1  0  0  0  0
 29 30  1  0  0  0  0
 30 31  1  6  0  0  0
 30 32  1  0  0  0  0
 33 32  1  0  0  0  0
 34 37  1  0  0  0  0
 34 33  1  0  0  0  0
 36 35  2  0  0  0  0
 36 37  1  0  0  0  0
 37 39  1  0  0  0  0
 39 38  1  1  0  0  0
 39 41  1  0  0  0  0
 41 40  1  0  0  0  0
M  END
>  <MODEL>
6

>  <REMARK>
 VINA RESULT:      -6.3      1.823      2.750
  Name = 
  15 active torsions:
  status: ('A' for Active; 'I' for Inactive)
    1  A    between atoms: C_1  and  C_13
    2  A    between atoms: O_3  and  C_18
    3  A    between atoms: N_4  and  N_19
    4  A    between atoms: C_7  and  C_13
    5  A    between atoms: C_7  and  N_19
    6  A    between atoms: C_15  and  C_20
    7  A    between atoms: C_15  and  C_26
    8  A    between atoms: C_17  and  C_25
    9  A    between atoms: C_17  and  N_39
   10  A    between atoms: C_20  and  C_34
   11  A    between atoms: N_21  and  C_27
   12  A    between atoms: C_25  and  C_37
   13  A    between atoms: C_26  and  C_37
   14  A    between atoms: C_35  and  C_36
   15  A    between atoms: C_35  and  N_39
                            x       y       z     vdW  Elec       q    Type
                         _______ _______ _______ _____ _____    ______ ____

>  <TORSDO>
F 15

$$$$
=
 OpenBabel11042414273D

 41 43  0  0  1  0  0  0  0  0999 V2000
  185.9850  176.5370  142.6380 C   0  0  1  0  0  3  0  0  0  0  0  0
  185.7510  178.6460  144.5520 C   0  0  0  0  0  0  0  0  0  0  0  0
  185.7400  179.6350  145.3320 O   0  0  0  0  0  0  0  0  0  0  0  0
  186.4550  176.3890  144.0650 C   0  0  0  0  0  3  0  0  0  0  0  0
  185.1340  177.7760  142.4070 C   0  0  0  0  0  0  0  0  0  0  0  0
  186.3940  177.3860  144.9450 C   0  0  0  0  0  0  0  0  0  0  0  0
  185.0890  178.7320  143.2870 N   0  0  0  0  0  0  0  0  0  0  0  0
  184.3980  177.9270  141.2270 O   0  0  0  0  0  0  0  0  0  0  0  0
  183.0050  178.2100  141.2230 C   0  0  0  0  0  1  0  0  0  0  0  0
  187.1800  176.5620  141.6970 C   0  0  0  0  0  2  0  0  0  0  0  0
  187.9800  175.2770  141.8160 C   0  0  0  0  0  2  0  0  0  0  0  0
  188.3700  174.8250  140.4940 N   0  0  0  0  0  2  0  0  0  0  0  0
  188.5430  173.4380  140.5800 N   0  0  0  0  0  2  0  0  0  0  0  0
  191.2680  171.2250  141.3150 N   0  0  0  0  0  0  0  0  0  0  0  0
  192.0750  172.3040  141.4340 C   0  0  0  0  0  0  0  0  0  0  0  0
  193.4640  172.1800  141.7640 N   0  0  0  0  0  2  0  0  0  0  0  0
  190.0090  171.5400  141.0180 N   0  0  0  0  0  0  0  0  0  0  0  0
  191.2230  173.7440  141.1880 S   0  0  0  0  0  0  0  0  0  0  0  0
  189.8080  172.8700  140.9110 C   0  0  0  0  0  0  0  0  0  0  0  0
  194.8380  173.7840  142.8410 C   0  0  0  0  0  3  0  0  0  0  0  0
  196.5040  174.9780  144.3290 C   0  0  0  0  0  1  0  0  0  0  0  0
  195.5430  175.9010  140.7310 C   0  0  0  0  0  3  0  0  0  0  0  0
  195.1050  174.8780  139.9970 C   0  0  0  0  0  3  0  0  0  0  0  0
  194.4730  173.1970  141.6980 C   0  0  0  0  0  0  0  0  0  0  0  0
  195.8540  174.8470  142.9980 C   0  0  0  0  0  0  0  0  0  0  0  0
  196.1170  175.7920  142.0860 C   0  0  0  0  0  3  0  0  0  0  0  0
  195.2280  173.4570  140.4310 C   0  0  0  0  0  2  0  0  0  0  0  0
  186.8880  177.1750  146.3380 C   0  0  0  0  0  2  0  0  0  0  0  0
  188.4030  177.2900  146.3730 C   0  0  0  0  0  2  0  0  0  0  0  0
  189.0180  175.9830  146.8320 C   0  0  1  0  0  3  0  0  0  0  0  0
  188.0810  175.2530  147.5680 O   0  0  0  0  0  1  0  0  0  0  0  0
  189.4520  175.1860  145.6160 C   0  0  0  0  0  2  0  0  0  0  0  0
  190.7780  174.4930  145.8830 C   0  0  0  0  0  2  0  0  0  0  0  0
  191.7690  174.8020  144.7700 C   0  0  0  0  0  2  0  0  0  0  0  0
  194.0870  176.9770  146.5690 O   0  0  0  0  0  0  0  0  0  0  0  0
  193.3860  175.9780  146.2560 C   0  0  0  0  0  3  0  0  0  0  0  0
  192.5520  175.9880  145.0870 N   0  0  0  0  0  0  0  0  0  0  0  0
  192.5640  176.6280  142.7170 C   0  0  0  0  0  1  0  0  0  0  0  0
  192.5040  177.1150  144.1530 C   0  0  1  0  0  3  0  0  0  0  0  0
  190.3710  177.9260  143.1470 C   0  0  0  0  0  1  0  0  0  0  0  0
  191.2660  177.9720  144.3710 C   0  0  0  0  0  2  0  0  0  0  0  0
  1 10  1  6  0  0  0
  1  4  1  0  0  0  0
  2  6  1  0  0  0  0
  2  3  2  0  0  0  0
  4  6  2  0  0  0  0
  5  1  1  0  0  0  0
  5  7  2  0  0  0  0
  6 28  1  0  0  0  0
  7  2  1  0  0  0  0
  8  5  1  0  0  0  0
  9  8  1  0  0  0  0
 10 11  1  0  0  0  0
 12 13  1  0  0  0  0
 12 11  1  0  0  0  0
 13 19  1  0  0  0  0
 14 15  2  0  0  0  0
 15 16  1  0  0  0  0
 17 14  1  0  0  0  0
 18 15  1  0  0  0  0
 19 17  2  0  0  0  0
 19 18  1  0  0  0  0
 20 25  1  0  0  0  0
 22 26  1  0  0  0  0
 23 27  1  0  0  0  0
 23 22  2  0  0  0  0
 24 16  1  0  0  0  0
 24 20  2  0  0  0  0
 25 21  1  0  0  0  0
 26 25  2  0  0  0  0
 27 24  1  0  0  0  0
 28 29  1  0  0  0  0
 29 30  1  0  0  0  0
 30 31  1  6  0  0  0
 32 33  1  0  0  0  0
 32 30  1  0  0  0  0
 34 37  1  0  0  0  0
 34 33  1  0  0  0  0
 36 35  2  0  0  0  0
 37 36  1  0  0  0  0
 39 38  1  6  0  0  0
 39 41  1  0  0  0  0
 39 37  1  0  0  0  0
 40 41  1  0  0  0  0
M  END
>  <MODEL>
7

>  <REMARK>
 VINA RESULT:      -6.3      2.210      4.421
  Name = 
  15 active torsions:
  status: ('A' for Active; 'I' for Inactive)
    1  A    between atoms: C_1  and  C_13
    2  A    between atoms: O_3  and  C_18
    3  A    between atoms: N_4  and  N_19
    4  A    between atoms: C_7  and  C_13
    5  A    between atoms: C_7  and  N_19
    6  A    between atoms: C_15  and  C_20
    7  A    between atoms: C_15  and  C_26
    8  A    between atoms: C_17  and  C_25
    9  A    between atoms: C_17  and  N_39
   10  A    between atoms: C_20  and  C_34
   11  A    between atoms: N_21  and  C_27
   12  A    between atoms: C_25  and  C_37
   13  A    between atoms: C_26  and  C_37
   14  A    between atoms: C_35  and  C_36
   15  A    between atoms: C_35  and  N_39
                            x       y       z     vdW  Elec       q    Type
                         _______ _______ _______ _____ _____    ______ ____

>  <TORSDO>
F 15

$$$$
=
 OpenBabel11042414273D

 41 43  0  0  1  0  0  0  0  0999 V2000
  186.4960  178.5090  142.2060 C   0  0  1  0  0  3  0  0  0  0  0  0
  187.7790  176.2700  140.9770 C   0  0  0  0  0  0  0  0  0  0  0  0
  188.2550  175.2110  140.4880 O   0  0  0  0  0  0  0  0  0  0  0  0
  187.8260  177.9770  142.6840 C   0  0  0  0  0  3  0  0  0  0  0  0
  186.0630  177.9380  140.8650 C   0  0  0  0  0  0  0  0  0  0  0  0
  188.4020  176.9040  142.1460 C   0  0  0  0  0  0  0  0  0  0  0  0
  186.6470  176.8910  140.3610 N   0  0  0  0  0  0  0  0  0  0  0  0
  185.0060  178.5120  140.1520 O   0  0  0  0  0  0  0  0  0  0  0  0
  183.6800  178.0030  140.2020 C   0  0  0  0  0  1  0  0  0  0  0  0
  185.4210  178.2280  143.2460 C   0  0  0  0  0  2  0  0  0  0  0  0
  184.9680  179.5170  143.9070 C   0  0  0  0  0  2  0  0  0  0  0  0
  185.8090  179.7940  145.0560 N   0  0  0  0  0  2  0  0  0  0  0  0
  185.3180  179.0130  146.1100 N   0  0  0  0  0  2  0  0  0  0  0  0
  186.5150  176.2250  148.0220 N   0  0  0  0  0  0  0  0  0  0  0  0
  187.6330  176.2190  147.2610 C   0  0  0  0  0  0  0  0  0  0  0  0
  188.6930  175.2780  147.4760 N   0  0  0  0  0  2  0  0  0  0  0  0
  185.6520  177.1800  147.6820 N   0  0  0  0  0  0  0  0  0  0  0  0
  187.6030  177.4560  146.1090 S   0  0  0  0  0  0  0  0  0  0  0  0
  186.0860  177.9430  146.6570 C   0  0  0  0  0  0  0  0  0  0  0  0
  189.6890  174.0110  145.7380 C   0  0  0  0  0  3  0  0  0  0  0  0
  190.2320  172.8610  143.5470 C   0  0  0  0  0  1  0  0  0  0  0  0
  192.7280  174.2080  146.1320 C   0  0  0  0  0  3  0  0  0  0  0  0
  192.2620  175.2070  146.8800 C   0  0  0  0  0  3  0  0  0  0  0  0
  189.8100  175.0080  146.6180 C   0  0  0  0  0  0  0  0  0  0  0  0
  190.7100  173.5690  144.7640 C   0  0  0  0  0  0  0  0  0  0  0  0
  192.0330  173.6180  144.9710 C   0  0  0  0  0  3  0  0  0  0  0  0
  190.9910  175.9260  146.5740 C   0  0  0  0  0  2  0  0  0  0  0  0
  189.7130  176.4240  142.6750 C   0  0  0  0  0  2  0  0  0  0  0  0
  190.4190  177.5510  143.4100 C   0  0  0  0  0  2  0  0  0  0  0  0
  191.9100  177.5010  143.1420 C   0  0  1  0  0  3  0  0  0  0  0  0
  192.6100  177.6190  144.3450 O   0  0  0  0  0  1  0  0  0  0  0  0
  192.2490  176.1820  142.4740 C   0  0  0  0  0  2  0  0  0  0  0  0
  193.7100  175.8330  142.7050 C   0  0  0  0  0  2  0  0  0  0  0  0
  194.0550  174.5190  142.0200 C   0  0  0  0  0  2  0  0  0  0  0  0
  196.8300  173.3800  144.1030 O   0  0  0  0  0  0  0  0  0  0  0  0
  195.6850  173.7670  143.7470 C   0  0  0  0  0  3  0  0  0  0  0  0
  195.3990  174.0850  142.3760 N   0  0  0  0  0  0  0  0  0  0  0  0
  195.6940  173.8980  139.9460 C   0  0  0  0  0  1  0  0  0  0  0  0
  196.3790  173.9250  141.3000 C   0  0  1  0  0  3  0  0  0  0  0  0
  197.5710  175.6690  139.9730 C   0  0  0  0  0  1  0  0  0  0  0  0
  197.4360  175.0210  141.3370 C   0  0  0  0  0  2  0  0  0  0  0  0
  1  4  1  0  0  0  0
  1 10  1  1  0  0  0
  2  6  1  0  0  0  0
  3  2  2  0  0  0  0
  5  1  1  0  0  0  0
  6 28  1  0  0  0  0
  6  4  2  0  0  0  0
  7  5  2  0  0  0  0
  7  2  1  0  0  0  0
  8  9  1  0  0  0  0
  8  5  1  0  0  0  0
 10 11  1  0  0  0  0
 11 12  1  0  0  0  0
 12 13  1  0  0  0  0
 13 19  1  0  0  0  0
 15 16  1  0  0  0  0
 15 14  2  0  0  0  0
 17 14  1  0  0  0  0
 18 19  1  0  0  0  0
 18 15  1  0  0  0  0
 19 17  2  0  0  0  0
 20 24  2  0  0  0  0
 21 25  1  0  0  0  0
 22 23  2  0  0  0  0
 24 16  1  0  0  0  0
 25 26  2  0  0  0  0
 25 20  1  0  0  0  0
 26 22  1  0  0  0  0
 27 24  1  0  0  0  0
 27 23  1  0  0  0  0
 28 29  1  0  0  0  0
 30 29  1  0  0  0  0
 30 31  1  1  0  0  0
 32 33  1  0  0  0  0
 32 30  1  0  0  0  0
 34 37  1  0  0  0  0
 34 33  1  0  0  0  0
 36 35  2  0  0  0  0
 37 36  1  0  0  0  0
 39 38  1  6  0  0  0
 39 41  1  0  0  0  0
 39 37  1  0  0  0  0
 40 41  1  0  0  0  0
M  END
>  <MODEL>
8

>  <REMARK>
 VINA RESULT:      -6.3      3.010      7.678
  Name = 
  15 active torsions:
  status: ('A' for Active; 'I' for Inactive)
    1  A    between atoms: C_1  and  C_13
    2  A    between atoms: O_3  and  C_18
    3  A    between atoms: N_4  and  N_19
    4  A    between atoms: C_7  and  C_13
    5  A    between atoms: C_7  and  N_19
    6  A    between atoms: C_15  and  C_20
    7  A    between atoms: C_15  and  C_26
    8  A    between atoms: C_17  and  C_25
    9  A    between atoms: C_17  and  N_39
   10  A    between atoms: C_20  and  C_34
   11  A    between atoms: N_21  and  C_27
   12  A    between atoms: C_25  and  C_37
   13  A    between atoms: C_26  and  C_37
   14  A    between atoms: C_35  and  C_36
   15  A    between atoms: C_35  and  N_39
                            x       y       z     vdW  Elec       q    Type
                         _______ _______ _______ _____ _____    ______ ____

>  <TORSDO>
F 15

$$$$
=
 OpenBabel11042414273D

 41 43  0  0  1  0  0  0  0  0999 V2000
  185.8350  177.1380  142.8410 C   0  0  1  0  0  3  0  0  0  0  0  0
  184.8780  178.3010  145.2700 C   0  0  0  0  0  0  0  0  0  0  0  0
  184.5210  178.9170  146.3090 O   0  0  0  0  0  0  0  0  0  0  0  0
  186.3280  176.6960  144.1980 C   0  0  0  0  0  3  0  0  0  0  0  0
  184.6040  178.0280  142.9050 C   0  0  0  0  0  0  0  0  0  0  0  0
  185.9220  177.2700  145.3280 C   0  0  0  0  0  0  0  0  0  0  0  0
  184.2270  178.5720  144.0250 N   0  0  0  0  0  0  0  0  0  0  0  0
  183.8610  178.3050  141.7530 O   0  0  0  0  0  0  0  0  0  0  0  0
  182.4460  178.4250  141.7640 C   0  0  0  0  0  1  0  0  0  0  0  0
  186.9450  177.8640  142.0960 C   0  0  0  0  0  2  0  0  0  0  0  0
  187.3480  177.0920  140.8520 C   0  0  0  0  0  2  0  0  0  0  0  0
  188.4580  176.2140  141.1650 N   0  0  0  0  0  2  0  0  0  0  0  0
  187.9180  174.9340  141.3410 N   0  0  0  0  0  2  0  0  0  0  0  0
  189.0220  171.8560  142.8170 N   0  0  0  0  0  0  0  0  0  0  0  0
  190.2060  172.4470  143.0950 C   0  0  0  0  0  0  0  0  0  0  0  0
  191.2630  171.7510  143.7680 N   0  0  0  0  0  2  0  0  0  0  0  0
  188.1620  172.6650  142.2020 N   0  0  0  0  0  0  0  0  0  0  0  0
  190.2260  174.0610  142.5910 S   0  0  0  0  0  0  0  0  0  0  0  0
  188.6550  173.9050  142.0000 C   0  0  0  0  0  0  0  0  0  0  0  0
  193.4010  172.1610  142.8330 C   0  0  0  0  0  3  0  0  0  0  0  0
  195.3490  173.0030  141.4490 C   0  0  0  0  0  1  0  0  0  0  0  0
  195.4330  171.8850  145.1190 C   0  0  0  0  0  3  0  0  0  0  0  0
  194.2720  172.0130  145.7610 C   0  0  0  0  0  3  0  0  0  0  0  0
  192.6270  172.1670  143.9210 C   0  0  0  0  0  0  0  0  0  0  0  0
  194.8260  172.5520  142.7660 C   0  0  0  0  0  0  0  0  0  0  0  0
  195.7110  172.3820  143.7570 C   0  0  0  0  0  3  0  0  0  0  0  0
  193.1140  172.7680  145.2020 C   0  0  0  0  0  2  0  0  0  0  0  0
  186.4590  176.7910  146.6360 C   0  0  0  0  0  2  0  0  0  0  0  0
  187.9700  176.9500  146.6650 C   0  0  0  0  0  2  0  0  0  0  0  0
  188.6340  175.6100  146.9100 C   0  0  1  0  0  3  0  0  0  0  0  0
  188.6510  174.8690  145.7260 O   0  0  0  0  0  1  0  0  0  0  0  0
  190.0530  175.8410  147.3950 C   0  0  0  0  0  2  0  0  0  0  0  0
  191.0380  175.6730  146.2500 C   0  0  0  0  0  2  0  0  0  0  0  0
  192.1140  176.7460  146.3160 C   0  0  0  0  0  2  0  0  0  0  0  0
  192.1970  177.4390  142.7310 O   0  0  0  0  0  0  0  0  0  0  0  0
  191.7680  177.2030  143.8910 C   0  0  0  0  0  3  0  0  0  0  0  0
  192.6670  177.0080  144.9940 N   0  0  0  0  0  0  0  0  0  0  0  0
  194.7430  177.5590  146.1830 C   0  0  0  0  0  1  0  0  0  0  0  0
  194.1210  177.1300  144.8670 C   0  0  1  0  0  3  0  0  0  0  0  0
  196.1470  176.0950  143.8460 C   0  0  0  0  0  1  0  0  0  0  0  0
  194.7520  175.8330  144.3810 C   0  0  0  0  0  2  0  0  0  0  0  0
  1 10  1  1  0  0  0
  1  5  1  0  0  0  0
  1  4  1  0  0  0  0
  2  6  1  0  0  0  0
  2  3  2  0  0  0  0
  4  6  2  0  0  0  0
  5  7  2  0  0  0  0
  6 28  1  0  0  0  0
  7  2  1  0  0  0  0
  8  9  1  0  0  0  0
  8  5  1  0  0  0  0
 11 12  1  0  0  0  0
 11 10  1  0  0  0  0
 12 13  1  0  0  0  0
 13 19  1  0  0  0  0
 14 15  2  0  0  0  0
 15 16  1  0  0  0  0
 16 24  1  0  0  0  0
 17 14  1  0  0  0  0
 18 15  1  0  0  0  0
 19 17  2  0  0  0  0
 19 18  1  0  0  0  0
 20 24  2  0  0  0  0
 21 25  1  0  0  0  0
 22 23  2  0  0  0  0
 24 27  1  0  0  0  0
 25 20  1  0  0  0  0
 25 26  2  0  0  0  0
 26 22  1  0  0  0  0
 27 23  1  0  0  0  0
 28 29  1  0  0  0  0
 29 30  1  0  0  0  0
 30 31  1  6  0  0  0
 30 32  1  0  0  0  0
 33 34  1  0  0  0  0
 33 32  1  0  0  0  0
 35 36  2  0  0  0  0
 36 37  1  0  0  0  0
 37 34  1  0  0  0  0
 39 37  1  0  0  0  0
 39 38  1  1  0  0  0
 40 41  1  0  0  0  0
 41 39  1  0  0  0  0
M  END
>  <MODEL>
9

>  <REMARK>
 VINA RESULT:      -6.2      2.043      5.446
  Name = 
  15 active torsions:
  status: ('A' for Active; 'I' for Inactive)
    1  A    between atoms: C_1  and  C_13
    2  A    between atoms: O_3  and  C_18
    3  A    between atoms: N_4  and  N_19
    4  A    between atoms: C_7  and  C_13
    5  A    between atoms: C_7  and  N_19
    6  A    between atoms: C_15  and  C_20
    7  A    between atoms: C_15  and  C_26
    8  A    between atoms: C_17  and  C_25
    9  A    between atoms: C_17  and  N_39
   10  A    between atoms: C_20  and  C_34
   11  A    between atoms: N_21  and  C_27
   12  A    between atoms: C_25  and  C_37
   13  A    between atoms: C_26  and  C_37
   14  A    between atoms: C_35  and  C_36
   15  A    between atoms: C_35  and  N_39
                            x       y       z     vdW  Elec       q    Type
                         _______ _______ _______ _____ _____    ______ ____

>  <TORSDO>
F 15

$$$$
