=
 OpenBabel11042416423D

 55 60  0  0  1  0  0  0  0  0999 V2000
  189.0340  174.7370  141.9380 C   0  0  0  0  0  1  0  0  0  0  0  0
  189.7950  173.9760  144.1030 C   0  0  0  0  0  0  0  0  0  0  0  0
  189.1960  173.6830  142.9850 C   0  0  0  0  0  0  0  0  0  0  0  0
  190.4040  174.2910  145.2130 C   0  0  0  0  0  3  0  0  0  0  0  0
  191.0550  175.6330  145.3480 C   0  0  2  0  0  3  0  0  0  0  0  0
  194.3980  175.7680  144.1720 C   0  0  0  0  0  0  0  0  0  0  0  0
  192.4920  175.5230  145.1040 N   0  0  0  0  0  0  0  0  0  0  0  0
  195.7280  174.0990  145.6260 C   0  0  0  0  0  1  0  0  0  0  0  0
  193.2980  174.6960  145.7570 N   0  0  0  0  0  0  0  0  0  0  0  0
  193.1150  176.1770  144.1330 N   0  0  0  0  0  0  0  0  0  0  0  0
  194.5090  174.8390  145.1920 C   0  0  0  0  0  0  0  0  0  0  0  0
  196.4350  176.9070  143.7070 O   0  0  0  0  0  0  0  0  0  0  0  0
  195.3480  175.9890  141.8630 N   0  0  0  0  0  2  0  0  0  0  0  0
  196.3310  176.4300  140.9690 N   0  0  0  0  0  1  0  0  0  0  0  0
  195.4480  176.2570  143.2610 C   0  0  0  0  0  0  0  0  0  0  0  0
  190.7950  176.2390  146.7280 C   0  0  0  0  0  2  0  0  0  0  0  0
  189.6590  177.2470  146.6960 C   0  0  0  0  0  2  0  0  0  0  0  0
  188.3840  176.5470  146.7420 N   0  0  0  0  0  2  0  0  0  0  0  0
  187.3400  177.4850  146.3400 C   0  0  1  0  0  3  0  0  0  0  0  0
  185.2180  178.5940  143.8500 C   0  0  0  0  0  0  0  0  0  0  0  0
  187.1940  176.6530  144.0130 O   0  0  0  0  0  0  0  0  0  0  0  0
  185.1530  177.6170  144.9890 C   0  0  0  0  0  2  0  0  0  0  0  0
  187.5790  177.9050  143.4930 C   0  0  0  0  0  2  0  0  0  0  0  0
  186.4790  176.8700  145.2170 C   0  0  2  0  0  3  0  0  0  0  0  0
  186.3770  178.6260  142.9010 C   0  0  0  0  0  2  0  0  0  0  0  0
  184.2790  179.3500  143.6670 O   0  0  0  0  0  0  0  0  0  0  0  0
  185.8850  176.9680  148.1210 O   0  0  0  0  0  0  0  0  0  0  0  0
  186.3850  179.2580  148.0110 C   0  0  0  0  0  1  0  0  0  0  0  0
  186.4830  177.8490  147.5270 C   0  0  0  0  0  0  0  0  0  0  0  0
  188.8280  172.2650  142.6940 C   0  0  0  0  0  2  0  0  0  0  0  0
  190.0700  171.4020  142.6260 C   0  0  0  0  0  2  0  0  0  0  0  0
  193.0810  173.1050  141.9970 C   0  0  0  0  0  2  0  0  0  0  0  0
  192.4050  171.7670  141.7680 C   0  0  0  0  0  0  0  0  0  0  0  0
  192.8550  172.1530  143.1630 C   0  0  0  0  0  2  0  0  0  0  0  0
  190.9260  171.7770  141.4320 C   0  0  1  0  0  3  0  0  0  0  0  0
  192.0370  169.7810  140.5210 C   0  0  0  0  0  2  0  0  0  0  0  0
  190.8110  170.6800  140.3830 C   0  0  0  0  0  2  0  0  0  0  0  0
  193.1600  170.6280  141.1110 C   0  0  1  0  0  3  0  0  0  0  0  0
  194.0620  171.1290  139.9870 C   0  0  0  0  0  2  0  0  0  0  0  0
  193.3900  172.2710  137.9190 C   0  0  0  0  0  3  0  0  0  0  0  0
  193.3140  171.1890  138.6930 C   0  0  0  0  0  3  0  0  0  0  0  0
  190.4930  171.4190  136.0740 C   0  0  2  0  0  3  0  0  0  0  0  0
  190.0730  170.4090  136.9440 O   0  0  0  0  0  1  0  0  0  0  0  0
  191.6390  170.9460  135.2000 C   0  0  2  0  0  3  0  0  0  0  0  0
  191.5040  169.5000  134.7580 C   0  0  0  0  0  1  0  0  0  0  0  0
  192.6470  172.3330  136.6260 C   0  0  1  0  0  3  0  0  0  0  0  0
  192.8390  171.1420  135.9000 O   0  0  0  0  0  0  0  0  0  0  0  0
  191.1590  172.5010  136.8990 C   0  0  1  0  0  3  0  0  0  0  0  0
  191.0960  175.9320  135.3170 C   0  0  0  0  0  2  0  0  0  0  0  0
  189.3700  173.7830  135.9880 C   0  0  0  0  0  2  0  0  0  0  0  0
  190.7080  173.8640  136.5780 N   0  0  0  0  0  0  0  0  0  0  0  0
  191.6220  174.5340  135.6390 C   0  0  0  0  0  2  0  0  0  0  0  0
  189.2920  177.1830  134.5130 C   0  0  0  0  0  1  0  0  0  0  0  0
  189.7720  175.8270  134.7070 N   0  0  0  0  0  0  0  0  0  0  0  0
  188.8650  175.1880  135.6570 C   0  0  0  0  0  2  0  0  0  0  0  0
  1  3  1  0  0  0  0
  2  4  2  0  0  0  0
  3  2  2  0  0  0  0
  5  4  1  1  0  0  0
  5 16  1  0  0  0  0
  6 11  1  0  0  0  0
  7  5  1  0  0  0  0
  7  9  1  0  0  0  0
 10  6  2  0  0  0  0
 10  7  1  0  0  0  0
 11  8  1  0  0  0  0
 11  9  2  0  0  0  0
 13 15  1  0  0  0  0
 14 13  1  0  0  0  0
 15 12  2  0  0  0  0
 15  6  1  0  0  0  0
 17 16  1  0  0  0  0
 17 18  1  0  0  0  0
 19 18  1  1  0  0  0
 19 29  1  0  0  0  0
 20 22  1  0  0  0  0
 21 24  1  0  0  0  0
 22 24  1  0  0  0  0
 23 21  1  0  0  0  0
 24 19  1  1  0  0  0
 25 23  1  0  0  0  0
 25 20  1  0  0  0  0
 26 20  2  0  0  0  0
 29 28  1  0  0  0  0
 29 27  2  0  0  0  0
 30  3  1  0  0  0  0
 31 30  1  0  0  0  0
 32 34  1  0  0  0  0
 33 32  1  0  0  0  0
 33 34  1  0  0  0  0
 35 33  1  0  0  0  0
 35 31  1  1  0  0  0
 36 38  1  0  0  0  0
 37 36  1  0  0  0  0
 37 35  1  0  0  0  0
 38 39  1  6  0  0  0
 38 33  1  0  0  0  0
 40 41  2  0  0  0  0
 41 39  1  0  0  0  0
 42 48  1  0  0  0  0
 42 43  1  1  0  0  0
 44 45  1  1  0  0  0
 44 47  1  0  0  0  0
 44 42  1  0  0  0  0
 46 48  1  0  0  0  0
 46 40  1  1  0  0  0
 47 46  1  0  0  0  0
 48 51  1  6  0  0  0
 49 52  1  0  0  0  0
 50 51  1  0  0  0  0
 52 51  1  0  0  0  0
 53 54  1  0  0  0  0
 54 49  1  0  0  0  0
 54 55  1  0  0  0  0
 55 50  1  0  0  0  0
M  END
>  <MODEL>
1

>  <REMARK>
 VINA RESULT:      -6.8      0.000      0.000
  Name = 
  16 active torsions:
  status: ('A' for Active; 'I' for Inactive)
    1  A    between atoms: C_1  and  C_35
    2  A    between atoms: C_1  and  C_55
    3  A    between atoms: C_7  and  C_49
    4  A    between atoms: C_8  and  C_21
    5  A    between atoms: N_12  and  C_41
    6  A    between atoms: C_15  and  C_33
    7  A    between atoms: C_15  and  N_52
    8  A    between atoms: C_17  and  C_46
    9  A    between atoms: C_17  and  C_47
   10  A    between atoms: C_17  and  N_52
   11  A    between atoms: C_19  and  C_27
   12  A    between atoms: C_19  and  C_31
   13  A    between atoms: N_23  and  C_42
   14  A    between atoms: C_27  and  C_50
   15  A    between atoms: C_33  and  C_41
   16  A    between atoms: C_41  and  C_43
                            x       y       z     vdW  Elec       q    Type
                         _______ _______ _______ _____ _____    ______ ____

>  <TORSDO>
F 16

$$$$
=
 OpenBabel11042416423D

 55 60  0  0  1  0  0  0  0  0999 V2000
  189.4230  174.4810  141.4300 C   0  0  0  0  0  1  0  0  0  0  0  0
  189.9690  173.4640  143.5550 C   0  0  0  0  0  0  0  0  0  0  0  0
  189.6000  173.2920  142.3180 C   0  0  0  0  0  0  0  0  0  0  0  0
  190.3460  173.6610  144.7880 C   0  0  0  0  0  3  0  0  0  0  0  0
  190.7380  175.0350  145.2360 C   0  0  2  0  0  3  0  0  0  0  0  0
  194.1060  175.7340  144.3760 C   0  0  0  0  0  0  0  0  0  0  0  0
  192.1870  175.2000  145.1460 N   0  0  0  0  0  0  0  0  0  0  0  0
  195.5530  174.5390  146.1490 C   0  0  0  0  0  1  0  0  0  0  0  0
  193.0550  174.6310  145.9710 N   0  0  0  0  0  0  0  0  0  0  0  0
  192.7830  175.8620  144.1630 N   0  0  0  0  0  0  0  0  0  0  0  0
  194.2740  174.9610  145.5110 C   0  0  0  0  0  0  0  0  0  0  0  0
  196.0960  176.9900  144.0160 O   0  0  0  0  0  0  0  0  0  0  0  0
  195.0660  176.1600  142.0990 N   0  0  0  0  0  2  0  0  0  0  0  0
  196.0360  176.7060  141.2500 N   0  0  0  0  0  1  0  0  0  0  0  0
  195.1420  176.3320  143.5140 C   0  0  0  0  0  0  0  0  0  0  0  0
  190.2600  175.3110  146.6620 C   0  0  0  0  0  2  0  0  0  0  0  0
  188.7600  175.5490  146.7170 C   0  0  0  0  0  2  0  0  0  0  0  0
  188.4880  176.9750  146.6100 N   0  0  0  0  0  2  0  0  0  0  0  0
  187.3840  177.1540  145.6720 C   0  0  1  0  0  3  0  0  0  0  0  0
  184.4700  178.8120  144.8410 C   0  0  0  0  0  0  0  0  0  0  0  0
  186.1650  178.8190  147.0380 O   0  0  0  0  0  0  0  0  0  0  0  0
  185.9410  178.9930  144.5960 C   0  0  0  0  0  2  0  0  0  0  0  0
  185.0290  177.9880  147.1190 C   0  0  0  0  0  2  0  0  0  0  0  0
  186.8070  178.5790  145.7980 C   0  0  2  0  0  3  0  0  0  0  0  0
  183.9280  178.5050  146.2050 C   0  0  0  0  0  2  0  0  0  0  0  0
  183.6930  178.9650  143.9140 O   0  0  0  0  0  0  0  0  0  0  0  0
  187.2390  176.0990  143.5690 O   0  0  0  0  0  0  0  0  0  0  0  0
  189.0260  177.6170  143.6860 C   0  0  0  0  0  1  0  0  0  0  0  0
  187.8530  176.8940  144.2620 C   0  0  0  0  0  0  0  0  0  0  0  0
  189.5190  171.9110  141.7570 C   0  0  0  0  0  2  0  0  0  0  0  0
  190.8020  171.1550  142.0330 C   0  0  0  0  0  2  0  0  0  0  0  0
  193.9580  172.0450  143.3010 C   0  0  0  0  0  2  0  0  0  0  0  0
  193.3060  171.3650  142.1120 C   0  0  0  0  0  0  0  0  0  0  0  0
  193.3190  170.6730  143.4610 C   0  0  0  0  0  2  0  0  0  0  0  0
  192.0100  171.9560  141.5900 C   0  0  1  0  0  3  0  0  0  0  0  0
  193.2240  170.7570  139.8190 C   0  0  0  0  0  2  0  0  0  0  0  0
  192.1620  171.8210  140.0810 C   0  0  0  0  0  2  0  0  0  0  0  0
  194.1560  170.7350  141.0270 C   0  0  1  0  0  3  0  0  0  0  0  0
  195.3940  171.5750  140.7270 C   0  0  0  0  0  2  0  0  0  0  0  0
  195.3060  173.6560  139.4250 C   0  0  0  0  0  3  0  0  0  0  0  0
  195.2290  172.3260  139.4440 C   0  0  0  0  0  3  0  0  0  0  0  0
  195.9910  173.8740  135.9600 C   0  0  2  0  0  3  0  0  0  0  0  0
  197.0550  172.9660  135.9770 O   0  0  0  0  0  1  0  0  0  0  0  0
  196.4150  175.2240  136.5040 C   0  0  2  0  0  3  0  0  0  0  0  0
  197.8250  175.6210  136.1040 C   0  0  0  0  0  1  0  0  0  0  0  0
  195.1440  174.4080  138.1450 C   0  0  1  0  0  3  0  0  0  0  0  0
  196.2830  175.1980  137.9010 O   0  0  0  0  0  0  0  0  0  0  0  0
  194.9780  173.4260  136.9930 C   0  0  1  0  0  3  0  0  0  0  0  0
  191.5870  172.0800  136.0090 C   0  0  0  0  0  2  0  0  0  0  0  0
  192.7800  174.2590  137.3780 C   0  0  0  0  0  2  0  0  0  0  0  0
  193.5910  173.4060  136.5050 N   0  0  0  0  0  0  0  0  0  0  0  0
  193.0360  172.0430  136.4950 C   0  0  0  0  0  2  0  0  0  0  0  0
  189.4570  172.9840  136.3400 C   0  0  0  0  0  1  0  0  0  0  0  0
  190.7920  172.9150  136.9060 N   0  0  0  0  0  0  0  0  0  0  0  0
  191.3320  174.2730  136.8870 C   0  0  0  0  0  2  0  0  0  0  0  0
  1  3  1  0  0  0  0
  2  4  2  0  0  0  0
  3  2  2  0  0  0  0
  5  4  1  1  0  0  0
  5 16  1  0  0  0  0
  6 11  1  0  0  0  0
  7  5  1  0  0  0  0
  7  9  1  0  0  0  0
 10  6  2  0  0  0  0
 10  7  1  0  0  0  0
 11  9  2  0  0  0  0
 11  8  1  0  0  0  0
 13 15  1  0  0  0  0
 14 13  1  0  0  0  0
 15 12  2  0  0  0  0
 15  6  1  0  0  0  0
 16 17  1  0  0  0  0
 18 17  1  0  0  0  0
 19 29  1  6  0  0  0
 19 18  1  0  0  0  0
 20 25  1  0  0  0  0
 21 23  1  0  0  0  0
 22 20  1  0  0  0  0
 22 24  1  0  0  0  0
 24 19  1  6  0  0  0
 24 21  1  0  0  0  0
 25 23  1  0  0  0  0
 26 20  2  0  0  0  0
 27 29  2  0  0  0  0
 28 29  1  0  0  0  0
 30 31  1  0  0  0  0
 30  3  1  0  0  0  0
 32 34  1  0  0  0  0
 33 32  1  0  0  0  0
 33 34  1  0  0  0  0
 35 31  1  1  0  0  0
 35 33  1  0  0  0  0
 36 37  1  0  0  0  0
 36 38  1  0  0  0  0
 37 35  1  0  0  0  0
 38 39  1  6  0  0  0
 38 33  1  0  0  0  0
 40 41  2  0  0  0  0
 41 39  1  0  0  0  0
 42 43  1  1  0  0  0
 42 44  1  0  0  0  0
 42 48  1  0  0  0  0
 44 45  1  1  0  0  0
 44 47  1  0  0  0  0
 46 40  1  1  0  0  0
 47 46  1  0  0  0  0
 48 51  1  6  0  0  0
 48 46  1  0  0  0  0
 49 52  1  0  0  0  0
 49 54  1  0  0  0  0
 51 50  1  0  0  0  0
 52 51  1  0  0  0  0
 53 54  1  0  0  0  0
 55 54  1  0  0  0  0
 55 50  1  0  0  0  0
M  END
>  <MODEL>
2

>  <REMARK>
 VINA RESULT:      -6.5      1.940      3.119
  Name = 
  16 active torsions:
  status: ('A' for Active; 'I' for Inactive)
    1  A    between atoms: C_1  and  C_35
    2  A    between atoms: C_1  and  C_55
    3  A    between atoms: C_7  and  C_49
    4  A    between atoms: C_8  and  C_21
    5  A    between atoms: N_12  and  C_41
    6  A    between atoms: C_15  and  C_33
    7  A    between atoms: C_15  and  N_52
    8  A    between atoms: C_17  and  C_46
    9  A    between atoms: C_17  and  C_47
   10  A    between atoms: C_17  and  N_52
   11  A    between atoms: C_19  and  C_27
   12  A    between atoms: C_19  and  C_31
   13  A    between atoms: N_23  and  C_42
   14  A    between atoms: C_27  and  C_50
   15  A    between atoms: C_33  and  C_41
   16  A    between atoms: C_41  and  C_43
                            x       y       z     vdW  Elec       q    Type
                         _______ _______ _______ _____ _____    ______ ____

>  <TORSDO>
F 16

$$$$
=
 OpenBabel11042416423D

 55 60  0  0  1  0  0  0  0  0999 V2000
  189.0220  174.5200  147.2210 C   0  0  0  0  0  1  0  0  0  0  0  0
  189.8080  175.2670  145.0590 C   0  0  0  0  0  0  0  0  0  0  0  0
  189.9440  175.3150  146.3530 C   0  0  0  0  0  0  0  0  0  0  0  0
  189.6570  175.1980  143.7660 C   0  0  0  0  0  3  0  0  0  0  0  0
  188.6840  174.2200  143.1810 C   0  0  2  0  0  3  0  0  0  0  0  0
  190.1970  172.1440  140.7370 C   0  0  0  0  0  0  0  0  0  0  0  0
  189.3940  173.2030  142.4080 N   0  0  0  0  0  0  0  0  0  0  0  0
  190.9800  170.0280  141.9910 C   0  0  0  0  0  1  0  0  0  0  0  0
  189.8360  172.0590  142.9120 N   0  0  0  0  0  0  0  0  0  0  0  0
  189.5810  173.2860  141.0980 N   0  0  0  0  0  0  0  0  0  0  0  0
  190.3550  171.3760  141.8770 C   0  0  0  0  0  0  0  0  0  0  0  0
  190.0830  170.8510  138.7420 O   0  0  0  0  0  0  0  0  0  0  0  0
  191.5840  172.6310  138.7060 N   0  0  0  0  0  2  0  0  0  0  0  0
  191.9860  172.3640  137.3910 N   0  0  0  0  0  1  0  0  0  0  0  0
  190.6010  171.8260  139.3550 C   0  0  0  0  0  0  0  0  0  0  0  0
  187.6480  174.9260  142.3060 C   0  0  0  0  0  2  0  0  0  0  0  0
  187.4560  176.3760  142.7170 C   0  0  0  0  0  2  0  0  0  0  0  0
  186.0770  176.7730  142.4730 N   0  0  0  0  0  2  0  0  0  0  0  0
  185.5380  177.3170  143.7170 C   0  0  1  0  0  3  0  0  0  0  0  0
  186.0520  178.6910  146.8440 C   0  0  0  0  0  0  0  0  0  0  0  0
  186.4170  176.1760  145.7290 O   0  0  0  0  0  0  0  0  0  0  0  0
  186.8120  178.5970  145.5510 C   0  0  0  0  0  2  0  0  0  0  0  0
  185.2130  176.3880  146.4310 C   0  0  0  0  0  2  0  0  0  0  0  0
  186.6050  177.2530  144.8290 C   0  0  2  0  0  3  0  0  0  0  0  0
  185.3860  177.4970  147.4580 C   0  0  0  0  0  2  0  0  0  0  0  0
  186.0170  179.7580  147.4310 O   0  0  0  0  0  0  0  0  0  0  0  0
  185.7700  179.4970  142.8530 O   0  0  0  0  0  0  0  0  0  0  0  0
  183.7680  179.2160  144.0440 C   0  0  0  0  0  1  0  0  0  0  0  0
  185.0750  178.7370  143.5050 C   0  0  0  0  0  0  0  0  0  0  0  0
  191.1140  176.0270  146.9470 C   0  0  0  0  0  2  0  0  0  0  0  0
  192.3300  175.1250  146.9540 C   0  0  0  0  0  2  0  0  0  0  0  0
  194.4680  177.3700  145.2960 C   0  0  0  0  0  2  0  0  0  0  0  0
  194.4000  175.9330  145.7790 C   0  0  0  0  0  0  0  0  0  0  0  0
  194.5290  177.0600  146.7850 C   0  0  0  0  0  2  0  0  0  0  0  0
  193.0750  175.2080  145.6370 C   0  0  1  0  0  3  0  0  0  0  0  0
  194.9640  173.6330  145.6250 C   0  0  0  0  0  2  0  0  0  0  0  0
  193.5010  173.8060  145.2250 C   0  0  0  0  0  2  0  0  0  0  0  0
  195.6010  175.0190  145.6390 C   0  0  1  0  0  3  0  0  0  0  0  0
  196.3320  175.2530  144.3200 C   0  0  0  0  0  2  0  0  0  0  0  0
  197.0840  173.7440  142.5340 C   0  0  0  0  0  3  0  0  0  0  0  0
  196.1250  174.1020  143.3860 C   0  0  0  0  0  3  0  0  0  0  0  0
  194.8360  171.7500  140.6660 C   0  0  2  0  0  3  0  0  0  0  0  0
  193.6930  172.1460  141.3670 O   0  0  0  0  0  1  0  0  0  0  0  0
  195.6450  170.7440  141.4630 C   0  0  2  0  0  3  0  0  0  0  0  0
  194.7880  169.7590  142.2390 C   0  0  0  0  0  1  0  0  0  0  0  0
  196.8820  172.5940  141.6030 C   0  0  1  0  0  3  0  0  0  0  0  0
  196.4990  171.4480  142.3250 O   0  0  0  0  0  0  0  0  0  0  0  0
  195.7810  172.9320  140.6070 C   0  0  1  0  0  3  0  0  0  0  0  0
  196.1240  172.8870  136.8440 C   0  0  0  0  0  2  0  0  0  0  0  0
  196.3740  174.6420  139.0590 C   0  0  0  0  0  2  0  0  0  0  0  0
  196.3340  173.1930  139.2690 N   0  0  0  0  0  0  0  0  0  0  0  0
  195.5260  172.5630  138.2130 C   0  0  0  0  0  2  0  0  0  0  0  0
  196.7930  174.5780  135.3760 C   0  0  0  0  0  1  0  0  0  0  0  0
  196.1310  174.3340  136.6440 N   0  0  0  0  0  0  0  0  0  0  0  0
  196.9590  174.9480  137.6800 C   0  0  0  0  0  2  0  0  0  0  0  0
  2  3  2  0  0  0  0
  3 30  1  0  0  0  0
  3  1  1  0  0  0  0
  4  2  2  0  0  0  0
  5 16  1  6  0  0  0
  5  4  1  0  0  0  0
  6 10  2  0  0  0  0
  6 11  1  0  0  0  0
  7  9  1  0  0  0  0
  7  5  1  0  0  0  0
 10  7  1  0  0  0  0
 11  8  1  0  0  0  0
 11  9  2  0  0  0  0
 12 15  2  0  0  0  0
 13 15  1  0  0  0  0
 14 13  1  0  0  0  0
 15  6  1  0  0  0  0
 16 17  1  0  0  0  0
 18 17  1  0  0  0  0
 19 18  1  6  0  0  0
 20 26  2  0  0  0  0
 20 25  1  0  0  0  0
 21 23  1  0  0  0  0
 22 20  1  0  0  0  0
 23 25  1  0  0  0  0
 24 19  1  6  0  0  0
 24 22  1  0  0  0  0
 24 21  1  0  0  0  0
 27 29  2  0  0  0  0
 29 19  1  0  0  0  0
 29 28  1  0  0  0  0
 30 31  1  0  0  0  0
 32 33  1  0  0  0  0
 32 34  1  0  0  0  0
 33 34  1  0  0  0  0
 35 33  1  0  0  0  0
 35 31  1  1  0  0  0
 36 38  1  0  0  0  0
 37 36  1  0  0  0  0
 37 35  1  0  0  0  0
 38 39  1  6  0  0  0
 38 33  1  0  0  0  0
 40 41  2  0  0  0  0
 41 39  1  0  0  0  0
 42 43  1  1  0  0  0
 42 44  1  0  0  0  0
 44 45  1  1  0  0  0
 44 47  1  0  0  0  0
 46 47  1  0  0  0  0
 46 40  1  1  0  0  0
 48 51  1  6  0  0  0
 48 42  1  0  0  0  0
 48 46  1  0  0  0  0
 49 52  1  0  0  0  0
 50 51  1  0  0  0  0
 52 51  1  0  0  0  0
 53 54  1  0  0  0  0
 54 49  1  0  0  0  0
 54 55  1  0  0  0  0
 55 50  1  0  0  0  0
M  END
>  <MODEL>
3

>  <REMARK>
 VINA RESULT:      -6.4      3.096      5.874
  Name = 
  16 active torsions:
  status: ('A' for Active; 'I' for Inactive)
    1  A    between atoms: C_1  and  C_35
    2  A    between atoms: C_1  and  C_55
    3  A    between atoms: C_7  and  C_49
    4  A    between atoms: C_8  and  C_21
    5  A    between atoms: N_12  and  C_41
    6  A    between atoms: C_15  and  C_33
    7  A    between atoms: C_15  and  N_52
    8  A    between atoms: C_17  and  C_46
    9  A    between atoms: C_17  and  C_47
   10  A    between atoms: C_17  and  N_52
   11  A    between atoms: C_19  and  C_27
   12  A    between atoms: C_19  and  C_31
   13  A    between atoms: N_23  and  C_42
   14  A    between atoms: C_27  and  C_50
   15  A    between atoms: C_33  and  C_41
   16  A    between atoms: C_41  and  C_43
                            x       y       z     vdW  Elec       q    Type
                         _______ _______ _______ _____ _____    ______ ____

>  <TORSDO>
F 16

$$$$
=
 OpenBabel11042416423D

 55 60  0  0  1  0  0  0  0  0999 V2000
  191.9500  176.5050  145.3920 C   0  0  0  0  0  1  0  0  0  0  0  0
  191.4160  174.4560  144.2240 C   0  0  0  0  0  0  0  0  0  0  0  0
  192.0780  175.0300  145.1870 C   0  0  0  0  0  0  0  0  0  0  0  0
  190.7380  173.9020  143.2570 C   0  0  0  0  0  3  0  0  0  0  0  0
  189.7430  174.7140  142.4860 C   0  0  2  0  0  3  0  0  0  0  0  0
  190.0300  173.1100  139.3370 C   0  0  0  0  0  0  0  0  0  0  0  0
  189.5990  174.1820  141.1320 N   0  0  0  0  0  0  0  0  0  0  0  0
  188.1300  174.0720  137.8760 C   0  0  0  0  0  1  0  0  0  0  0  0
  188.6850  174.5930  140.2640 N   0  0  0  0  0  0  0  0  0  0  0  0
  190.4360  173.2980  140.6070 N   0  0  0  0  0  0  0  0  0  0  0  0
  188.9310  173.9240  139.1240 C   0  0  0  0  0  0  0  0  0  0  0  0
  191.3880  172.6360  137.4400 O   0  0  0  0  0  0  0  0  0  0  0  0
  190.5200  170.7800  138.5490 N   0  0  0  0  0  2  0  0  0  0  0  0
  191.1330  169.8760  137.6740 N   0  0  0  0  0  1  0  0  0  0  0  0
  190.6830  172.1890  138.3890 C   0  0  0  0  0  0  0  0  0  0  0  0
  190.1480  176.1880  142.4370 C   0  0  0  0  0  2  0  0  0  0  0  0
  189.0030  177.1010  142.8420 C   0  0  0  0  0  2  0  0  0  0  0  0
  187.9180  176.3040  143.3960 N   0  0  0  0  0  2  0  0  0  0  0  0
  187.4230  176.9840  144.5900 C   0  0  1  0  0  3  0  0  0  0  0  0
  184.8110  178.2270  146.4780 C   0  0  0  0  0  0  0  0  0  0  0  0
  185.1050  177.4200  143.8390 O   0  0  0  0  0  0  0  0  0  0  0  0
  185.4320  176.8840  146.2170 C   0  0  0  0  0  2  0  0  0  0  0  0
  185.2330  178.8000  144.0960 C   0  0  0  0  0  2  0  0  0  0  0  0
  185.9140  176.7160  144.7650 C   0  0  2  0  0  3  0  0  0  0  0  0
  184.4820  179.1750  145.3650 C   0  0  0  0  0  2  0  0  0  0  0  0
  184.5270  178.5330  147.6230 O   0  0  0  0  0  0  0  0  0  0  0  0
  188.4730  175.3440  145.9170 O   0  0  0  0  0  0  0  0  0  0  0  0
  188.6390  177.4900  146.8520 C   0  0  0  0  0  1  0  0  0  0  0  0
  188.1890  176.5250  145.8050 C   0  0  0  0  0  0  0  0  0  0  0  0
  192.8230  174.1920  146.1720 C   0  0  0  0  0  2  0  0  0  0  0  0
  194.3160  174.3690  145.9930 C   0  0  0  0  0  2  0  0  0  0  0  0
  197.4470  173.3620  144.7520 C   0  0  0  0  0  2  0  0  0  0  0  0
  196.2010  172.8090  145.4170 C   0  0  0  0  0  0  0  0  0  0  0  0
  197.1580  173.6740  146.2130 C   0  0  0  0  0  2  0  0  0  0  0  0
  194.8630  173.3790  144.9850 C   0  0  1  0  0  3  0  0  0  0  0  0
  194.6250  171.0820  145.8290 C   0  0  0  0  0  2  0  0  0  0  0  0
  193.9640  172.1510  144.9640 C   0  0  0  0  0  2  0  0  0  0  0  0
  196.1270  171.3480  145.8160 C   0  0  1  0  0  3  0  0  0  0  0  0
  196.7910  170.4500  144.7760 C   0  0  0  0  0  2  0  0  0  0  0  0
  196.1670  169.4830  142.6070 C   0  0  0  0  0  3  0  0  0  0  0  0
  196.0270  170.4700  143.4910 C   0  0  0  0  0  3  0  0  0  0  0  0
  193.2670  170.4900  140.8470 C   0  0  2  0  0  3  0  0  0  0  0  0
  192.5010  170.7480  141.9890 O   0  0  0  0  0  1  0  0  0  0  0  0
  193.3620  169.0010  140.5770 C   0  0  2  0  0  3  0  0  0  0  0  0
  192.0780  168.2490  140.8780 C   0  0  0  0  0  1  0  0  0  0  0  0
  195.4040  169.4990  141.3230 C   0  0  1  0  0  3  0  0  0  0  0  0
  194.4290  168.4830  141.3280 O   0  0  0  0  0  0  0  0  0  0  0  0
  194.7060  170.8420  141.1610 C   0  0  1  0  0  3  0  0  0  0  0  0
  196.7630  171.7320  138.1180 C   0  0  0  0  0  2  0  0  0  0  0  0
  194.3310  172.4120  139.4100 C   0  0  0  0  0  2  0  0  0  0  0  0
  195.3620  171.6620  140.1310 N   0  0  0  0  0  0  0  0  0  0  0  0
  196.1260  170.8370  139.1810 C   0  0  0  0  0  2  0  0  0  0  0  0
  196.3880  173.3470  136.4700 C   0  0  0  0  0  1  0  0  0  0  0  0
  195.7170  172.4510  137.3950 N   0  0  0  0  0  0  0  0  0  0  0  0
  194.9820  173.2890  138.3400 C   0  0  0  0  0  2  0  0  0  0  0  0
  2  3  2  0  0  0  0
  3  1  1  0  0  0  0
  3 30  1  0  0  0  0
  4  2  2  0  0  0  0
  5 16  1  6  0  0  0
  5  4  1  0  0  0  0
  6 10  2  0  0  0  0
  7  5  1  0  0  0  0
  8 11  1  0  0  0  0
  9  7  1  0  0  0  0
 10  7  1  0  0  0  0
 11  6  1  0  0  0  0
 11  9  2  0  0  0  0
 12 15  2  0  0  0  0
 14 13  1  0  0  0  0
 15 13  1  0  0  0  0
 15  6  1  0  0  0  0
 16 17  1  0  0  0  0
 17 18  1  0  0  0  0
 19 18  1  6  0  0  0
 19 29  1  0  0  0  0
 20 26  2  0  0  0  0
 21 23  1  0  0  0  0
 21 24  1  0  0  0  0
 22 20  1  0  0  0  0
 23 25  1  0  0  0  0
 24 19  1  1  0  0  0
 24 22  1  0  0  0  0
 25 20  1  0  0  0  0
 29 27  2  0  0  0  0
 29 28  1  0  0  0  0
 31 30  1  0  0  0  0
 32 33  1  0  0  0  0
 32 34  1  0  0  0  0
 33 38  1  0  0  0  0
 33 34  1  0  0  0  0
 35 33  1  0  0  0  0
 35 31  1  1  0  0  0
 37 35  1  0  0  0  0
 37 36  1  0  0  0  0
 38 39  1  6  0  0  0
 38 36  1  0  0  0  0
 40 41  2  0  0  0  0
 41 39  1  0  0  0  0
 42 48  1  0  0  0  0
 42 43  1  1  0  0  0
 44 42  1  0  0  0  0
 44 45  1  1  0  0  0
 44 47  1  0  0  0  0
 46 47  1  0  0  0  0
 46 40  1  1  0  0  0
 48 51  1  6  0  0  0
 48 46  1  0  0  0  0
 49 52  1  0  0  0  0
 50 51  1  0  0  0  0
 52 51  1  0  0  0  0
 53 54  1  0  0  0  0
 54 49  1  0  0  0  0
 54 55  1  0  0  0  0
 55 50  1  0  0  0  0
M  END
>  <MODEL>
4

>  <REMARK>
 VINA RESULT:      -6.3      2.992      5.723
  Name = 
  16 active torsions:
  status: ('A' for Active; 'I' for Inactive)
    1  A    between atoms: C_1  and  C_35
    2  A    between atoms: C_1  and  C_55
    3  A    between atoms: C_7  and  C_49
    4  A    between atoms: C_8  and  C_21
    5  A    between atoms: N_12  and  C_41
    6  A    between atoms: C_15  and  C_33
    7  A    between atoms: C_15  and  N_52
    8  A    between atoms: C_17  and  C_46
    9  A    between atoms: C_17  and  C_47
   10  A    between atoms: C_17  and  N_52
   11  A    between atoms: C_19  and  C_27
   12  A    between atoms: C_19  and  C_31
   13  A    between atoms: N_23  and  C_42
   14  A    between atoms: C_27  and  C_50
   15  A    between atoms: C_33  and  C_41
   16  A    between atoms: C_41  and  C_43
                            x       y       z     vdW  Elec       q    Type
                         _______ _______ _______ _____ _____    ______ ____

>  <TORSDO>
F 16

$$$$
=
 OpenBabel11042416423D

 55 60  0  0  1  0  0  0  0  0999 V2000
  191.2390  171.8080  144.0610 C   0  0  0  0  0  1  0  0  0  0  0  0
  191.4590  171.3360  141.6990 C   0  0  0  0  0  0  0  0  0  0  0  0
  191.6780  170.9450  142.9220 C   0  0  0  0  0  0  0  0  0  0  0  0
  191.2230  171.7460  140.4830 C   0  0  0  0  0  3  0  0  0  0  0  0
  190.3950  172.9740  140.2600 C   0  0  2  0  0  3  0  0  0  0  0  0
  191.4490  174.2670  137.1300 C   0  0  0  0  0  0  0  0  0  0  0  0
  190.5510  173.4440  138.8840 N   0  0  0  0  0  0  0  0  0  0  0  0
  189.3150  174.4670  135.6920 C   0  0  0  0  0  1  0  0  0  0  0  0
  189.5460  173.6160  138.0370 N   0  0  0  0  0  0  0  0  0  0  0  0
  191.7130  173.8370  138.3790 N   0  0  0  0  0  0  0  0  0  0  0  0
  190.0890  174.1260  136.9190 C   0  0  0  0  0  0  0  0  0  0  0  0
  192.9960  174.0330  135.3360 O   0  0  0  0  0  0  0  0  0  0  0  0
  192.8680  176.1550  136.2880 N   0  0  0  0  0  2  0  0  0  0  0  0
  193.8290  176.6850  135.4190 N   0  0  0  0  0  1  0  0  0  0  0  0
  192.4710  174.7860  136.2040 C   0  0  0  0  0  0  0  0  0  0  0  0
  190.7680  174.0820  141.2450 C   0  0  0  0  0  2  0  0  0  0  0  0
  189.5550  174.5900  142.0070 C   0  0  0  0  0  2  0  0  0  0  0  0
  189.7960  175.9550  142.4510 N   0  0  0  0  0  2  0  0  0  0  0  0
  188.5640  176.4570  143.0530 C   0  0  1  0  0  3  0  0  0  0  0  0
  187.1090  177.2400  146.0870 C   0  0  0  0  0  0  0  0  0  0  0  0
  189.6900  176.6600  145.2480 O   0  0  0  0  0  0  0  0  0  0  0  0
  187.6520  177.9930  144.9060 C   0  0  0  0  0  2  0  0  0  0  0  0
  188.9440  175.5900  145.7810 C   0  0  0  0  0  2  0  0  0  0  0  0
  188.8920  177.3260  144.2850 C   0  0  2  0  0  3  0  0  0  0  0  0
  187.8660  176.1120  146.7210 C   0  0  0  0  0  2  0  0  0  0  0  0
  186.0460  177.5870  146.5710 O   0  0  0  0  0  0  0  0  0  0  0  0
  188.3540  178.0580  141.3360 O   0  0  0  0  0  0  0  0  0  0  0  0
  186.3080  177.0320  141.8570 C   0  0  0  0  0  1  0  0  0  0  0  0
  187.7740  177.2480  142.0400 C   0  0  0  0  0  0  0  0  0  0  0  0
  192.2100  169.5730  143.1730 C   0  0  0  0  0  2  0  0  0  0  0  0
  193.6870  169.5140  142.8500 C   0  0  0  0  0  2  0  0  0  0  0  0
  194.8760  170.2320  146.0800 C   0  0  0  0  0  2  0  0  0  0  0  0
  195.3490  170.0930  144.6450 C   0  0  0  0  0  0  0  0  0  0  0  0
  194.9340  168.8600  145.4240 C   0  0  0  0  0  2  0  0  0  0  0  0
  194.4420  170.6250  143.5520 C   0  0  1  0  0  3  0  0  0  0  0  0
  196.7960  170.6360  142.8440 C   0  0  0  0  0  2  0  0  0  0  0  0
  195.4250  171.2470  142.5710 C   0  0  0  0  0  2  0  0  0  0  0  0
  196.8220  170.2090  144.3080 C   0  0  1  0  0  3  0  0  0  0  0  0
  197.5040  171.2910  145.1400 C   0  0  0  0  0  2  0  0  0  0  0  0
  197.4770  173.7090  144.7090 C   0  0  0  0  0  3  0  0  0  0  0  0
  196.7950  172.6000  144.9920 C   0  0  0  0  0  3  0  0  0  0  0  0
  194.8820  175.5650  143.1770 C   0  0  2  0  0  3  0  0  0  0  0  0
  194.6680  174.6590  142.1340 O   0  0  0  0  0  1  0  0  0  0  0  0
  196.1250  176.3990  142.9320 C   0  0  2  0  0  3  0  0  0  0  0  0
  196.3180  176.7800  141.4750 C   0  0  0  0  0  1  0  0  0  0  0  0
  196.7710  175.0170  144.5580 C   0  0  1  0  0  3  0  0  0  0  0  0
  197.2360  175.6870  143.4100 O   0  0  0  0  0  0  0  0  0  0  0  0
  195.2760  174.7760  144.4080 C   0  0  1  0  0  3  0  0  0  0  0  0
  193.7120  176.9730  147.0550 C   0  0  0  0  0  2  0  0  0  0  0  0
  193.1860  174.6320  145.5420 C   0  0  0  0  0  2  0  0  0  0  0  0
  194.5490  175.1620  145.6280 N   0  0  0  0  0  0  0  0  0  0  0  0
  194.5000  176.6240  145.7930 C   0  0  0  0  0  2  0  0  0  0  0  0
  191.6880  176.7390  148.2000 C   0  0  0  0  0  1  0  0  0  0  0  0
  192.3500  176.4580  146.9390 N   0  0  0  0  0  0  0  0  0  0  0  0
  192.4070  175.0040  146.8050 C   0  0  0  0  0  2  0  0  0  0  0  0
  2  3  2  0  0  0  0
  3 30  1  0  0  0  0
  3  1  1  0  0  0  0
  4  2  2  0  0  0  0
  5  4  1  6  0  0  0
  5 16  1  0  0  0  0
  6 10  2  0  0  0  0
  7  5  1  0  0  0  0
  8 11  1  0  0  0  0
  9  7  1  0  0  0  0
 10  7  1  0  0  0  0
 11  6  1  0  0  0  0
 11  9  2  0  0  0  0
 12 15  2  0  0  0  0
 14 13  1  0  0  0  0
 15 13  1  0  0  0  0
 15  6  1  0  0  0  0
 16 17  1  0  0  0  0
 17 18  1  0  0  0  0
 18 19  1  0  0  0  0
 19 29  1  6  0  0  0
 20 26  2  0  0  0  0
 20 25  1  0  0  0  0
 21 23  1  0  0  0  0
 22 20  1  0  0  0  0
 23 25  1  0  0  0  0
 24 19  1  6  0  0  0
 24 22  1  0  0  0  0
 24 21  1  0  0  0  0
 27 29  2  0  0  0  0
 28 29  1  0  0  0  0
 31 30  1  0  0  0  0
 33 34  1  0  0  0  0
 33 32  1  0  0  0  0
 34 32  1  0  0  0  0
 35 31  1  6  0  0  0
 35 33  1  0  0  0  0
 36 38  1  0  0  0  0
 37 36  1  0  0  0  0
 37 35  1  0  0  0  0
 38 33  1  0  0  0  0
 38 39  1  1  0  0  0
 40 41  2  0  0  0  0
 41 39  1  0  0  0  0
 42 43  1  6  0  0  0
 42 48  1  0  0  0  0
 44 45  1  6  0  0  0
 44 42  1  0  0  0  0
 44 47  1  0  0  0  0
 46 40  1  6  0  0  0
 47 46  1  0  0  0  0
 48 46  1  0  0  0  0
 48 51  1  1  0  0  0
 50 51  1  0  0  0  0
 50 55  1  0  0  0  0
 51 52  1  0  0  0  0
 52 49  1  0  0  0  0
 54 49  1  0  0  0  0
 54 53  1  0  0  0  0
 55 54  1  0  0  0  0
M  END
>  <MODEL>
5

>  <REMARK>
 VINA RESULT:      -6.2      2.459      7.449
  Name = 
  16 active torsions:
  status: ('A' for Active; 'I' for Inactive)
    1  A    between atoms: C_1  and  C_35
    2  A    between atoms: C_1  and  C_55
    3  A    between atoms: C_7  and  C_49
    4  A    between atoms: C_8  and  C_21
    5  A    between atoms: N_12  and  C_41
    6  A    between atoms: C_15  and  C_33
    7  A    between atoms: C_15  and  N_52
    8  A    between atoms: C_17  and  C_46
    9  A    between atoms: C_17  and  C_47
   10  A    between atoms: C_17  and  N_52
   11  A    between atoms: C_19  and  C_27
   12  A    between atoms: C_19  and  C_31
   13  A    between atoms: N_23  and  C_42
   14  A    between atoms: C_27  and  C_50
   15  A    between atoms: C_33  and  C_41
   16  A    between atoms: C_41  and  C_43
                            x       y       z     vdW  Elec       q    Type
                         _______ _______ _______ _____ _____    ______ ____

>  <TORSDO>
F 16

$$$$
=
 OpenBabel11042416423D

 55 60  0  0  1  0  0  0  0  0999 V2000
  190.5450  177.5040  145.7330 C   0  0  0  0  0  1  0  0  0  0  0  0
  189.8510  175.4110  144.7390 C   0  0  0  0  0  0  0  0  0  0  0  0
  190.3890  176.0170  145.7580 C   0  0  0  0  0  0  0  0  0  0  0  0
  189.3030  174.8260  143.7100 C   0  0  0  0  0  3  0  0  0  0  0  0
  188.7100  175.6550  142.6130 C   0  0  2  0  0  3  0  0  0  0  0  0
  185.5930  177.3030  143.0010 C   0  0  0  0  0  0  0  0  0  0  0  0
  187.4550  176.2580  143.0590 N   0  0  0  0  0  0  0  0  0  0  0  0
  185.1900  177.4640  145.5450 C   0  0  0  0  0  1  0  0  0  0  0  0
  187.1200  176.4260  144.3310 N   0  0  0  0  0  0  0  0  0  0  0  0
  186.5660  176.7850  142.2270 N   0  0  0  0  0  0  0  0  0  0  0  0
  185.9430  177.0760  144.3200 C   0  0  0  0  0  0  0  0  0  0  0  0
  183.6100  178.5950  143.2520 O   0  0  0  0  0  0  0  0  0  0  0  0
  184.1230  177.9480  141.0740 N   0  0  0  0  0  2  0  0  0  0  0  0
  183.0000  178.5890  140.5390 N   0  0  0  0  0  1  0  0  0  0  0  0
  184.3950  177.9820  142.4750 C   0  0  0  0  0  0  0  0  0  0  0  0
  188.4810  174.8230  141.3510 C   0  0  0  0  0  2  0  0  0  0  0  0
  187.8620  173.4720  141.6710 C   0  0  0  0  0  2  0  0  0  0  0  0
  188.8010  172.4140  141.3290 N   0  0  0  0  0  2  0  0  0  0  0  0
  189.7000  172.9240  140.2980 C   0  0  1  0  0  3  0  0  0  0  0  0
  192.9650  173.7870  139.5720 C   0  0  0  0  0  0  0  0  0  0  0  0
  191.6910  172.5980  141.7320 O   0  0  0  0  0  0  0  0  0  0  0  0
  192.0530  172.6240  139.3000 C   0  0  0  0  0  2  0  0  0  0  0  0
  191.9140  173.9880  141.8160 C   0  0  0  0  0  2  0  0  0  0  0  0
  191.1060  172.3150  140.4730 C   0  0  2  0  0  3  0  0  0  0  0  0
  193.0910  174.3900  140.9380 C   0  0  0  0  0  2  0  0  0  0  0  0
  193.6550  174.2200  138.6660 O   0  0  0  0  0  0  0  0  0  0  0  0
  188.9710  171.4460  138.6130 O   0  0  0  0  0  0  0  0  0  0  0  0
  188.7900  173.6950  137.9680 C   0  0  0  0  0  1  0  0  0  0  0  0
  189.1520  172.6100  138.9280 C   0  0  0  0  0  0  0  0  0  0  0  0
  190.6910  175.2460  147.0010 C   0  0  0  0  0  2  0  0  0  0  0  0
  192.1850  175.0480  147.1470 C   0  0  0  0  0  2  0  0  0  0  0  0
  194.0750  177.4420  145.3990 C   0  0  0  0  0  2  0  0  0  0  0  0
  194.1440  176.0130  145.9020 C   0  0  0  0  0  0  0  0  0  0  0  0
  194.2040  177.1610  146.8900 C   0  0  0  0  0  2  0  0  0  0  0  0
  192.8830  175.1740  145.8080 C   0  0  1  0  0  3  0  0  0  0  0  0
  194.8990  173.7670  145.7620 C   0  0  0  0  0  2  0  0  0  0  0  0
  193.4170  173.8070  145.4020 C   0  0  0  0  0  2  0  0  0  0  0  0
  195.4140  175.2020  145.7390 C   0  0  1  0  0  3  0  0  0  0  0  0
  196.0860  175.4770  144.3970 C   0  0  0  0  0  2  0  0  0  0  0  0
  197.4370  174.0370  142.9370 C   0  0  0  0  0  3  0  0  0  0  0  0
  196.3240  174.2030  143.6500 C   0  0  0  0  0  3  0  0  0  0  0  0
  196.0810  171.2510  141.2280 C   0  0  2  0  0  3  0  0  0  0  0  0
  194.7910  171.3890  141.7490 O   0  0  0  0  0  1  0  0  0  0  0  0
  197.0200  170.6350  142.2480 C   0  0  2  0  0  3  0  0  0  0  0  0
  196.3680  169.5580  143.0960 C   0  0  0  0  0  1  0  0  0  0  0  0
  197.6790  172.7650  142.1920 C   0  0  1  0  0  3  0  0  0  0  0  0
  197.5290  171.6630  143.0560 O   0  0  0  0  0  0  0  0  0  0  0  0
  196.6700  172.6360  141.0610 C   0  0  1  0  0  3  0  0  0  0  0  0
  197.3440  172.3610  137.3530 C   0  0  0  0  0  2  0  0  0  0  0  0
  197.1900  174.2890  139.4270 C   0  0  0  0  0  2  0  0  0  0  0  0
  197.3030  172.8660  139.7530 N   0  0  0  0  0  0  0  0  0  0  0  0
  196.6700  172.0650  138.6920 C   0  0  0  0  0  2  0  0  0  0  0  0
  197.9350  174.0110  135.8060 C   0  0  0  0  0  1  0  0  0  0  0  0
  197.1980  173.7790  137.0350 N   0  0  0  0  0  0  0  0  0  0  0  0
  197.8540  174.5650  138.0770 C   0  0  0  0  0  2  0  0  0  0  0  0
  1  3  1  0  0  0  0
  2  3  2  0  0  0  0
  3 30  1  0  0  0  0
  4  2  2  0  0  0  0
  5 16  1  6  0  0  0
  5  7  1  0  0  0  0
  5  4  1  0  0  0  0
  6 11  1  0  0  0  0
  7  9  1  0  0  0  0
 10  6  2  0  0  0  0
 10  7  1  0  0  0  0
 11  9  2  0  0  0  0
 11  8  1  0  0  0  0
 13 15  1  0  0  0  0
 14 13  1  0  0  0  0
 15  6  1  0  0  0  0
 15 12  2  0  0  0  0
 16 17  1  0  0  0  0
 18 17  1  0  0  0  0
 19 29  1  6  0  0  0
 19 18  1  0  0  0  0
 20 25  1  0  0  0  0
 21 23  1  0  0  0  0
 22 20  1  0  0  0  0
 22 24  1  0  0  0  0
 24 19  1  6  0  0  0
 24 21  1  0  0  0  0
 25 23  1  0  0  0  0
 26 20  2  0  0  0  0
 27 29  2  0  0  0  0
 28 29  1  0  0  0  0
 30 31  1  0  0  0  0
 32 33  1  0  0  0  0
 32 34  1  0  0  0  0
 33 34  1  0  0  0  0
 35 33  1  0  0  0  0
 35 31  1  1  0  0  0
 37 36  1  0  0  0  0
 37 35  1  0  0  0  0
 38 39  1  6  0  0  0
 38 36  1  0  0  0  0
 38 33  1  0  0  0  0
 40 41  2  0  0  0  0
 41 39  1  0  0  0  0
 42 43  1  1  0  0  0
 42 44  1  0  0  0  0
 44 47  1  0  0  0  0
 44 45  1  1  0  0  0
 46 40  1  1  0  0  0
 46 47  1  0  0  0  0
 48 51  1  6  0  0  0
 48 42  1  0  0  0  0
 48 46  1  0  0  0  0
 49 52  1  0  0  0  0
 50 51  1  0  0  0  0
 52 51  1  0  0  0  0
 53 54  1  0  0  0  0
 54 49  1  0  0  0  0
 54 55  1  0  0  0  0
 55 50  1  0  0  0  0
M  END
>  <MODEL>
6

>  <REMARK>
 VINA RESULT:      -6.0      3.330      8.078
  Name = 
  16 active torsions:
  status: ('A' for Active; 'I' for Inactive)
    1  A    between atoms: C_1  and  C_35
    2  A    between atoms: C_1  and  C_55
    3  A    between atoms: C_7  and  C_49
    4  A    between atoms: C_8  and  C_21
    5  A    between atoms: N_12  and  C_41
    6  A    between atoms: C_15  and  C_33
    7  A    between atoms: C_15  and  N_52
    8  A    between atoms: C_17  and  C_46
    9  A    between atoms: C_17  and  C_47
   10  A    between atoms: C_17  and  N_52
   11  A    between atoms: C_19  and  C_27
   12  A    between atoms: C_19  and  C_31
   13  A    between atoms: N_23  and  C_42
   14  A    between atoms: C_27  and  C_50
   15  A    between atoms: C_33  and  C_41
   16  A    between atoms: C_41  and  C_43
                            x       y       z     vdW  Elec       q    Type
                         _______ _______ _______ _____ _____    ______ ____

>  <TORSDO>
F 16

$$$$
=
 OpenBabel11042416423D

 55 60  0  0  1  0  0  0  0  0999 V2000
  190.2520  177.5630  145.1770 C   0  0  0  0  0  1  0  0  0  0  0  0
  189.2000  175.7150  144.0240 C   0  0  0  0  0  0  0  0  0  0  0  0
  189.8060  176.1390  145.0960 C   0  0  0  0  0  0  0  0  0  0  0  0
  188.5900  175.3160  142.9420 C   0  0  0  0  0  3  0  0  0  0  0  0
  188.2170  176.3120  141.8880 C   0  0  2  0  0  3  0  0  0  0  0  0
  185.1630  178.0260  142.4430 C   0  0  0  0  0  0  0  0  0  0  0  0
  187.1030  177.1390  142.3470 N   0  0  0  0  0  0  0  0  0  0  0  0
  185.6610  179.7900  144.2610 C   0  0  0  0  0  1  0  0  0  0  0  0
  187.2120  178.0970  143.2580 N   0  0  0  0  0  0  0  0  0  0  0  0
  185.8860  177.0740  141.8240 N   0  0  0  0  0  0  0  0  0  0  0  0
  185.9970  178.6660  143.3430 C   0  0  0  0  0  0  0  0  0  0  0  0
  182.9460  178.5910  143.1030 O   0  0  0  0  0  0  0  0  0  0  0  0
  183.2570  178.2140  140.8250 N   0  0  0  0  0  2  0  0  0  0  0  0
  181.9140  178.4680  140.5230 N   0  0  0  0  0  1  0  0  0  0  0  0
  183.7400  178.2920  142.1660 C   0  0  0  0  0  0  0  0  0  0  0  0
  187.8580  175.6190  140.5730 C   0  0  0  0  0  2  0  0  0  0  0  0
  188.2070  174.1410  140.6010 C   0  0  0  0  0  2  0  0  0  0  0  0
  189.4730  173.9260  139.9160 N   0  0  0  0  0  2  0  0  0  0  0  0
  189.9350  172.5780  140.2360 C   0  0  1  0  0  3  0  0  0  0  0  0
  190.3130  169.9240  138.0570 C   0  0  0  0  0  0  0  0  0  0  0  0
  190.7410  172.6610  137.8970 O   0  0  0  0  0  0  0  0  0  0  0  0
  191.1240  170.5750  139.1410 C   0  0  0  0  0  2  0  0  0  0  0  0
  189.5080  172.1850  137.4070 C   0  0  0  0  0  2  0  0  0  0  0  0
  190.9570  172.1040  139.1820 C   0  0  2  0  0  3  0  0  0  0  0  0
  189.6310  170.7260  136.9900 C   0  0  0  0  0  2  0  0  0  0  0  0
  190.2470  168.7080  138.0190 O   0  0  0  0  0  0  0  0  0  0  0  0
  191.4610  173.3140  141.8750 O   0  0  0  0  0  0  0  0  0  0  0  0
  190.0240  171.6410  142.6780 C   0  0  0  0  0  1  0  0  0  0  0  0
  190.5450  172.5520  141.6160 C   0  0  0  0  0  0  0  0  0  0  0  0
  189.8980  175.2480  146.2910 C   0  0  0  0  0  2  0  0  0  0  0  0
  191.3470  175.0190  146.6650 C   0  0  0  0  0  2  0  0  0  0  0  0
  193.8390  177.1600  145.4120 C   0  0  0  0  0  2  0  0  0  0  0  0
  193.5980  175.7090  145.7840 C   0  0  0  0  0  0  0  0  0  0  0  0
  193.7020  176.7570  146.8740 C   0  0  0  0  0  2  0  0  0  0  0  0
  192.2440  175.1140  145.4470 C   0  0  1  0  0  3  0  0  0  0  0  0
  193.9860  173.3800  145.5350 C   0  0  0  0  0  2  0  0  0  0  0  0
  192.5990  173.7060  144.9890 C   0  0  0  0  0  2  0  0  0  0  0  0
  194.7280  174.7010  145.7140 C   0  0  1  0  0  3  0  0  0  0  0  0
  195.6240  174.9470  144.5030 C   0  0  0  0  0  2  0  0  0  0  0  0
  196.8280  173.5310  142.8980 C   0  0  0  0  0  3  0  0  0  0  0  0
  195.7690  173.7010  143.6880 C   0  0  0  0  0  3  0  0  0  0  0  0
  195.3020  171.0670  140.8670 C   0  0  2  0  0  3  0  0  0  0  0  0
  193.9950  171.3470  141.2780 O   0  0  0  0  0  1  0  0  0  0  0  0
  196.0460  170.2670  141.9190 C   0  0  2  0  0  3  0  0  0  0  0  0
  195.1790  169.2370  142.6210 C   0  0  0  0  0  1  0  0  0  0  0  0
  196.9770  172.2870  142.0840 C   0  0  1  0  0  3  0  0  0  0  0  0
  196.6000  171.1640  142.8460 O   0  0  0  0  0  0  0  0  0  0  0  0
  196.0780  172.3670  140.8590 C   0  0  1  0  0  3  0  0  0  0  0  0
  197.7460  171.6660  137.5420 C   0  0  0  0  0  2  0  0  0  0  0  0
  196.2260  173.6620  138.8650 C   0  0  0  0  0  2  0  0  0  0  0  0
  196.8630  172.5910  139.6350 N   0  0  0  0  0  0  0  0  0  0  0  0
  196.9470  171.3740  138.8120 C   0  0  0  0  0  2  0  0  0  0  0  0
  197.9350  173.0110  135.6400 C   0  0  0  0  0  1  0  0  0  0  0  0
  197.0820  172.7180  136.7770 N   0  0  0  0  0  0  0  0  0  0  0  0
  197.0290  173.9300  137.5910 C   0  0  0  0  0  2  0  0  0  0  0  0
  2  3  2  0  0  0  0
  3  1  1  0  0  0  0
  3 30  1  0  0  0  0
  4  2  2  0  0  0  0
  5 16  1  6  0  0  0
  5  7  1  0  0  0  0
  5  4  1  0  0  0  0
  6 11  1  0  0  0  0
  7  9  1  0  0  0  0
  9 11  2  0  0  0  0
 10  7  1  0  0  0  0
 10  6  2  0  0  0  0
 11  8  1  0  0  0  0
 13 15  1  0  0  0  0
 14 13  1  0  0  0  0
 15  6  1  0  0  0  0
 15 12  2  0  0  0  0
 16 17  1  0  0  0  0
 18 17  1  0  0  0  0
 19 18  1  6  0  0  0
 19 29  1  0  0  0  0
 20 22  1  0  0  0  0
 21 24  1  0  0  0  0
 22 24  1  0  0  0  0
 23 21  1  0  0  0  0
 24 19  1  1  0  0  0
 25 23  1  0  0  0  0
 25 20  1  0  0  0  0
 26 20  2  0  0  0  0
 29 27  2  0  0  0  0
 29 28  1  0  0  0  0
 30 31  1  0  0  0  0
 32 33  1  0  0  0  0
 32 34  1  0  0  0  0
 33 34  1  0  0  0  0
 35 33  1  0  0  0  0
 35 31  1  1  0  0  0
 36 38  1  0  0  0  0
 37 35  1  0  0  0  0
 37 36  1  0  0  0  0
 38 39  1  6  0  0  0
 38 33  1  0  0  0  0
 40 41  2  0  0  0  0
 41 39  1  0  0  0  0
 42 43  1  1  0  0  0
 42 44  1  0  0  0  0
 44 45  1  1  0  0  0
 44 47  1  0  0  0  0
 46 47  1  0  0  0  0
 46 40  1  1  0  0  0
 48 51  1  6  0  0  0
 48 42  1  0  0  0  0
 48 46  1  0  0  0  0
 49 52  1  0  0  0  0
 50 51  1  0  0  0  0
 52 51  1  0  0  0  0
 53 54  1  0  0  0  0
 54 49  1  0  0  0  0
 54 55  1  0  0  0  0
 55 50  1  0  0  0  0
M  END
>  <MODEL>
7

>  <REMARK>
 VINA RESULT:      -6.0      3.306      8.207
  Name = 
  16 active torsions:
  status: ('A' for Active; 'I' for Inactive)
    1  A    between atoms: C_1  and  C_35
    2  A    between atoms: C_1  and  C_55
    3  A    between atoms: C_7  and  C_49
    4  A    between atoms: C_8  and  C_21
    5  A    between atoms: N_12  and  C_41
    6  A    between atoms: C_15  and  C_33
    7  A    between atoms: C_15  and  N_52
    8  A    between atoms: C_17  and  C_46
    9  A    between atoms: C_17  and  C_47
   10  A    between atoms: C_17  and  N_52
   11  A    between atoms: C_19  and  C_27
   12  A    between atoms: C_19  and  C_31
   13  A    between atoms: N_23  and  C_42
   14  A    between atoms: C_27  and  C_50
   15  A    between atoms: C_33  and  C_41
   16  A    between atoms: C_41  and  C_43
                            x       y       z     vdW  Elec       q    Type
                         _______ _______ _______ _____ _____    ______ ____

>  <TORSDO>
F 16

$$$$
=
 OpenBabel11042416423D

 55 60  0  0  1  0  0  0  0  0999 V2000
  193.8530  176.2070  142.2600 C   0  0  0  0  0  1  0  0  0  0  0  0
  195.1810  175.2040  144.0160 C   0  0  0  0  0  0  0  0  0  0  0  0
  194.2850  176.0900  143.6870 C   0  0  0  0  0  0  0  0  0  0  0  0
  196.0750  174.3050  144.3220 C   0  0  0  0  0  3  0  0  0  0  0  0
  196.5270  173.3220  143.2860 C   0  0  2  0  0  3  0  0  0  0  0  0
  196.2700  170.3630  145.2230 C   0  0  0  0  0  0  0  0  0  0  0  0
  196.4920  171.9660  143.8300 N   0  0  0  0  0  0  0  0  0  0  0  0
  197.1830  168.4610  143.7340 C   0  0  0  0  0  1  0  0  0  0  0  0
  196.9440  170.8950  143.1900 N   0  0  0  0  0  0  0  0  0  0  0  0
  196.0900  171.6880  145.0620 N   0  0  0  0  0  0  0  0  0  0  0  0
  196.8060  169.8690  144.0470 C   0  0  0  0  0  0  0  0  0  0  0  0
  196.8160  169.4390  147.3480 O   0  0  0  0  0  0  0  0  0  0  0  0
  194.6150  169.1320  146.6490 N   0  0  0  0  0  2  0  0  0  0  0  0
  194.2630  168.4380  147.8130 N   0  0  0  0  0  1  0  0  0  0  0  0
  195.9400  169.6290  146.4580 C   0  0  0  0  0  0  0  0  0  0  0  0
  197.9310  173.6560  142.7800 C   0  0  0  0  0  2  0  0  0  0  0  0
  197.8960  174.2920  141.4000 C   0  0  0  0  0  2  0  0  0  0  0  0
  196.5130  174.4820  140.9870 N   0  0  0  0  0  2  0  0  0  0  0  0
  196.2170  173.5040  139.9430 C   0  0  1  0  0  3  0  0  0  0  0  0
  194.0280  171.5610  138.1080 C   0  0  0  0  0  0  0  0  0  0  0  0
  194.1050  172.4790  140.7260 O   0  0  0  0  0  0  0  0  0  0  0  0
  194.2650  173.0280  138.3350 C   0  0  0  0  0  2  0  0  0  0  0  0
  194.5980  171.1780  140.4970 C   0  0  0  0  0  2  0  0  0  0  0  0
  194.6910  173.3520  139.7770 C   0  0  2  0  0  3  0  0  0  0  0  0
  193.9700  170.5850  139.2440 C   0  0  0  0  0  2  0  0  0  0  0  0
  193.8320  171.1630  136.9730 O   0  0  0  0  0  0  0  0  0  0  0  0
  197.5510  173.1270  138.0370 O   0  0  0  0  0  0  0  0  0  0  0  0
  196.6150  175.2800  138.0610 C   0  0  0  0  0  1  0  0  0  0  0  0
  196.8530  173.9250  138.6420 C   0  0  0  0  0  0  0  0  0  0  0  0
  193.5810  176.8600  144.7550 C   0  0  0  0  0  2  0  0  0  0  0  0
  192.9290  175.9150  145.7420 C   0  0  0  0  0  2  0  0  0  0  0  0
  190.0350  174.9100  147.4670 C   0  0  0  0  0  2  0  0  0  0  0  0
  190.6150  176.0880  146.7080 C   0  0  0  0  0  0  0  0  0  0  0  0
  191.1620  175.7330  148.0770 C   0  0  0  0  0  2  0  0  0  0  0  0
  191.4430  175.7890  145.4730 C   0  0  1  0  0  3  0  0  0  0  0  0
  190.4090  178.0160  145.3390 C   0  0  0  0  0  2  0  0  0  0  0  0
  191.0240  176.8910  144.5100 C   0  0  0  0  0  2  0  0  0  0  0  0
  189.8470  177.3920  146.6110 C   0  0  1  0  0  3  0  0  0  0  0  0
  188.3510  177.1480  146.4370 C   0  0  0  0  0  2  0  0  0  0  0  0
  187.4300  175.9570  144.4970 C   0  0  0  0  0  3  0  0  0  0  0  0
  187.9910  177.0610  144.9880 C   0  0  0  0  0  3  0  0  0  0  0  0
  187.7420  177.2910  141.2330 C   0  0  2  0  0  3  0  0  0  0  0  0
  188.2130  178.5410  141.6440 O   0  0  0  0  0  1  0  0  0  0  0  0
  186.2440  177.1750  141.4420 C   0  0  2  0  0  3  0  0  0  0  0  0
  185.4920  178.4620  141.1490 C   0  0  0  0  0  1  0  0  0  0  0  0
  187.0680  175.8690  143.0500 C   0  0  1  0  0  3  0  0  0  0  0  0
  186.0130  176.7550  142.7610 O   0  0  0  0  0  0  0  0  0  0  0  0
  188.2710  176.2500  142.1980 C   0  0  1  0  0  3  0  0  0  0  0  0
  190.7810  173.5600  141.3390 C   0  0  0  0  0  2  0  0  0  0  0  0
  188.0100  173.9110  141.8330 C   0  0  0  0  0  2  0  0  0  0  0  0
  188.8590  175.0700  141.5470 N   0  0  0  0  0  0  0  0  0  0  0  0
  190.2270  174.8090  142.0230 C   0  0  0  0  0  2  0  0  0  0  0  0
  190.4570  171.2850  140.9070 C   0  0  0  0  0  1  0  0  0  0  0  0
  189.9350  172.4120  141.6580 N   0  0  0  0  0  0  0  0  0  0  0  0
  188.5860  172.6680  141.1550 C   0  0  0  0  0  2  0  0  0  0  0  0
  1  3  1  0  0  0  0
  2  4  2  0  0  0  0
  3  2  2  0  0  0  0
  3 30  1  0  0  0  0
  5 16  1  1  0  0  0
  5  7  1  0  0  0  0
  5  4  1  0  0  0  0
  6 15  1  0  0  0  0
  7 10  1  0  0  0  0
  8 11  1  0  0  0  0
  9  7  1  0  0  0  0
  9 11  2  0  0  0  0
 10  6  2  0  0  0  0
 11  6  1  0  0  0  0
 13 14  1  0  0  0  0
 15 13  1  0  0  0  0
 15 12  2  0  0  0  0
 17 16  1  0  0  0  0
 18 17  1  0  0  0  0
 19 29  1  6  0  0  0
 19 18  1  0  0  0  0
 20 22  1  0  0  0  0
 20 25  1  0  0  0  0
 22 24  1  0  0  0  0
 23 21  1  0  0  0  0
 24 19  1  6  0  0  0
 24 21  1  0  0  0  0
 25 23  1  0  0  0  0
 26 20  2  0  0  0  0
 27 29  2  0  0  0  0
 28 29  1  0  0  0  0
 30 31  1  0  0  0  0
 32 34  1  0  0  0  0
 33 32  1  0  0  0  0
 33 34  1  0  0  0  0
 35 31  1  1  0  0  0
 35 33  1  0  0  0  0
 36 38  1  0  0  0  0
 37 36  1  0  0  0  0
 37 35  1  0  0  0  0
 38 39  1  6  0  0  0
 38 33  1  0  0  0  0
 40 41  2  0  0  0  0
 41 39  1  0  0  0  0
 42 44  1  0  0  0  0
 42 43  1  1  0  0  0
 42 48  1  0  0  0  0
 44 45  1  1  0  0  0
 44 47  1  0  0  0  0
 46 40  1  1  0  0  0
 47 46  1  0  0  0  0
 48 51  1  6  0  0  0
 48 46  1  0  0  0  0
 49 54  1  0  0  0  0
 49 52  1  0  0  0  0
 51 50  1  0  0  0  0
 51 52  1  0  0  0  0
 53 54  1  0  0  0  0
 55 54  1  0  0  0  0
 55 50  1  0  0  0  0
M  END
>  <MODEL>
8

>  <REMARK>
 VINA RESULT:      -5.9      3.300      9.037
  Name = 
  16 active torsions:
  status: ('A' for Active; 'I' for Inactive)
    1  A    between atoms: C_1  and  C_35
    2  A    between atoms: C_1  and  C_55
    3  A    between atoms: C_7  and  C_49
    4  A    between atoms: C_8  and  C_21
    5  A    between atoms: N_12  and  C_41
    6  A    between atoms: C_15  and  C_33
    7  A    between atoms: C_15  and  N_52
    8  A    between atoms: C_17  and  C_46
    9  A    between atoms: C_17  and  C_47
   10  A    between atoms: C_17  and  N_52
   11  A    between atoms: C_19  and  C_27
   12  A    between atoms: C_19  and  C_31
   13  A    between atoms: N_23  and  C_42
   14  A    between atoms: C_27  and  C_50
   15  A    between atoms: C_33  and  C_41
   16  A    between atoms: C_41  and  C_43
                            x       y       z     vdW  Elec       q    Type
                         _______ _______ _______ _____ _____    ______ ____

>  <TORSDO>
F 16

$$$$
=
 OpenBabel11042416423D

 55 60  0  0  1  0  0  0  0  0999 V2000
  191.5760  176.7520  147.7980 C   0  0  0  0  0  1  0  0  0  0  0  0
  191.2120  174.8380  146.3640 C   0  0  0  0  0  0  0  0  0  0  0  0
  190.6920  175.7330  147.1550 C   0  0  0  0  0  0  0  0  0  0  0  0
  191.7550  173.9560  145.5720 C   0  0  0  0  0  3  0  0  0  0  0  0
  193.2020  174.0760  145.2060 C   0  0  2  0  0  3  0  0  0  0  0  0
  195.1970  171.1480  145.3680 C   0  0  0  0  0  0  0  0  0  0  0  0
  193.8090  172.7500  145.1060 N   0  0  0  0  0  0  0  0  0  0  0  0
  194.1490  169.4840  143.6960 C   0  0  0  0  0  1  0  0  0  0  0  0
  193.3920  171.8010  144.2790 N   0  0  0  0  0  0  0  0  0  0  0  0
  194.9020  172.3990  145.7700 N   0  0  0  0  0  0  0  0  0  0  0  0
  194.2480  170.7760  144.4320 C   0  0  0  0  0  0  0  0  0  0  0  0
  197.4980  170.5390  145.3860 O   0  0  0  0  0  0  0  0  0  0  0  0
  196.1450  169.4170  146.9140 N   0  0  0  0  0  2  0  0  0  0  0  0
  197.2110  168.6660  147.4210 N   0  0  0  0  0  1  0  0  0  0  0  0
  196.3430  170.3690  145.8700 C   0  0  0  0  0  0  0  0  0  0  0  0
  193.9620  174.9330  146.2200 C   0  0  0  0  0  2  0  0  0  0  0  0
  194.9530  175.8630  145.5410 C   0  0  0  0  0  2  0  0  0  0  0  0
  194.4440  176.2460  144.2320 N   0  0  0  0  0  2  0  0  0  0  0  0
  195.3160  175.6600  143.2200 C   0  0  1  0  0  3  0  0  0  0  0  0
  195.4230  174.4670  139.9790 C   0  0  0  0  0  0  0  0  0  0  0  0
  193.5450  175.8320  141.5000 O   0  0  0  0  0  0  0  0  0  0  0  0
  195.8690  175.7040  140.7060 C   0  0  0  0  0  2  0  0  0  0  0  0
  193.4080  174.4300  141.4350 C   0  0  0  0  0  2  0  0  0  0  0  0
  194.8920  176.1350  141.8150 C   0  0  2  0  0  3  0  0  0  0  0  0
  194.0510  173.8930  140.1650 C   0  0  0  0  0  2  0  0  0  0  0  0
  196.1820  173.9440  139.1830 O   0  0  0  0  0  0  0  0  0  0  0  0
  197.0630  177.2070  143.5510 O   0  0  0  0  0  0  0  0  0  0  0  0
  197.7920  174.9840  143.7360 C   0  0  0  0  0  1  0  0  0  0  0  0
  196.7530  176.0290  143.4940 C   0  0  0  0  0  0  0  0  0  0  0  0
  189.2070  175.8350  147.2780 C   0  0  0  0  0  2  0  0  0  0  0  0
  188.6930  177.0160  146.4830 C   0  0  0  0  0  2  0  0  0  0  0  0
  185.7900  176.7810  144.5130 C   0  0  0  0  0  2  0  0  0  0  0  0
  187.1640  177.4230  144.5290 C   0  0  0  0  0  0  0  0  0  0  0  0
  186.0900  177.9220  145.4760 C   0  0  0  0  0  2  0  0  0  0  0  0
  188.3170  176.6010  145.0750 C   0  0  1  0  0  3  0  0  0  0  0  0
  189.1010  178.2760  143.4550 C   0  0  0  0  0  2  0  0  0  0  0  0
  189.4610  176.9590  144.1360 C   0  0  0  0  0  2  0  0  0  0  0  0
  187.5800  178.3750  143.4250 C   0  0  1  0  0  3  0  0  0  0  0  0
  187.0680  177.9120  142.0640 C   0  0  0  0  0  2  0  0  0  0  0  0
  187.8530  175.7540  141.1930 C   0  0  0  0  0  3  0  0  0  0  0  0
  188.0830  177.0530  141.3790 C   0  0  0  0  0  3  0  0  0  0  0  0
  188.9210  172.5010  140.3000 C   0  0  2  0  0  3  0  0  0  0  0  0
  188.1270  171.8370  141.2400 O   0  0  0  0  0  1  0  0  0  0  0  0
  190.1400  173.1220  140.9540 C   0  0  2  0  0  3  0  0  0  0  0  0
  190.7350  172.2650  142.0570 C   0  0  0  0  0  1  0  0  0  0  0  0
  188.8630  174.8950  140.5070 C   0  0  1  0  0  3  0  0  0  0  0  0
  189.7820  174.3860  141.4460 O   0  0  0  0  0  0  0  0  0  0  0  0
  188.1640  173.7250  139.8290 C   0  0  1  0  0  3  0  0  0  0  0  0
  187.5670  175.3160  136.4540 C   0  0  0  0  0  2  0  0  0  0  0  0
  189.5160  173.8200  137.8710 C   0  0  0  0  0  2  0  0  0  0  0  0
  188.1400  173.8930  138.3680 N   0  0  0  0  0  0  0  0  0  0  0  0
  187.5420  175.1790  137.9760 C   0  0  0  0  0  2  0  0  0  0  0  0
  188.8980  175.3060  134.5320 C   0  0  0  0  0  1  0  0  0  0  0  0
  188.9490  175.2660  135.9820 N   0  0  0  0  0  0  0  0  0  0  0  0
  189.5260  173.9740  136.3500 C   0  0  0  0  0  2  0  0  0  0  0  0
  2  3  2  0  0  0  0
  3 30  1  0  0  0  0
  3  1  1  0  0  0  0
  4  2  2  0  0  0  0
  5  4  1  1  0  0  0
  5 16  1  0  0  0  0
  6 10  2  0  0  0  0
  6 15  1  0  0  0  0
  7  5  1  0  0  0  0
  7 10  1  0  0  0  0
  8 11  1  0  0  0  0
  9 11  2  0  0  0  0
  9  7  1  0  0  0  0
 11  6  1  0  0  0  0
 12 15  2  0  0  0  0
 13 14  1  0  0  0  0
 15 13  1  0  0  0  0
 17 16  1  0  0  0  0
 18 17  1  0  0  0  0
 19 29  1  1  0  0  0
 19 18  1  0  0  0  0
 20 25  1  0  0  0  0
 20 22  1  0  0  0  0
 21 24  1  0  0  0  0
 22 24  1  0  0  0  0
 23 21  1  0  0  0  0
 24 19  1  1  0  0  0
 25 23  1  0  0  0  0
 26 20  2  0  0  0  0
 29 27  2  0  0  0  0
 29 28  1  0  0  0  0
 31 30  1  0  0  0  0
 32 33  1  0  0  0  0
 32 34  1  0  0  0  0
 33 35  1  0  0  0  0
 33 34  1  0  0  0  0
 35 31  1  1  0  0  0
 36 37  1  0  0  0  0
 37 35  1  0  0  0  0
 38 39  1  6  0  0  0
 38 36  1  0  0  0  0
 38 33  1  0  0  0  0
 40 41  2  0  0  0  0
 41 39  1  0  0  0  0
 42 44  1  0  0  0  0
 42 43  1  1  0  0  0
 44 47  1  0  0  0  0
 44 45  1  1  0  0  0
 46 40  1  1  0  0  0
 46 47  1  0  0  0  0
 48 51  1  6  0  0  0
 48 42  1  0  0  0  0
 48 46  1  0  0  0  0
 49 52  1  0  0  0  0
 50 51  1  0  0  0  0
 52 51  1  0  0  0  0
 53 54  1  0  0  0  0
 54 55  1  0  0  0  0
 54 49  1  0  0  0  0
 55 50  1  0  0  0  0
M  END
>  <MODEL>
9

>  <REMARK>
 VINA RESULT:      -5.8      2.958      7.276
  Name = 
  16 active torsions:
  status: ('A' for Active; 'I' for Inactive)
    1  A    between atoms: C_1  and  C_35
    2  A    between atoms: C_1  and  C_55
    3  A    between atoms: C_7  and  C_49
    4  A    between atoms: C_8  and  C_21
    5  A    between atoms: N_12  and  C_41
    6  A    between atoms: C_15  and  C_33
    7  A    between atoms: C_15  and  N_52
    8  A    between atoms: C_17  and  C_46
    9  A    between atoms: C_17  and  C_47
   10  A    between atoms: C_17  and  N_52
   11  A    between atoms: C_19  and  C_27
   12  A    between atoms: C_19  and  C_31
   13  A    between atoms: N_23  and  C_42
   14  A    between atoms: C_27  and  C_50
   15  A    between atoms: C_33  and  C_41
   16  A    between atoms: C_41  and  C_43
                            x       y       z     vdW  Elec       q    Type
                         _______ _______ _______ _____ _____    ______ ____

>  <TORSDO>
F 16

$$$$
