=
 OpenBabel11042413593D

 36 40  0  0  0  0  0  0  0  0999 V2000
  191.1940  176.2760  144.0830 N   0  0  0  0  0  0  0  0  0  0  0  0
  192.4670  172.7880  143.5970 C   0  0  0  0  0  3  0  0  0  0  0  0
  190.2690  176.4520  143.1870 C   0  0  0  0  0  0  0  0  0  0  0  0
  189.9780  175.4070  142.1670 C   0  0  0  0  0  0  0  0  0  0  0  0
  192.6770  174.8670  145.4670 C   0  0  0  0  0  0  0  0  0  0  0  0
  187.8520  176.4980  141.7250 C   0  0  0  0  0  0  0  0  0  0  0  0
  191.9140  174.0350  143.3060 C   0  0  0  0  0  0  0  0  0  0  0  0
  188.1670  177.5390  142.5710 C   0  0  0  0  0  0  0  0  0  0  0  0
  186.9120  178.6490  142.6080 S   0  0  0  0  0  0  0  0  0  0  0  0
  191.2830  174.3060  141.6520 S   0  0  0  0  0  0  0  0  0  0  0  0
  193.1060  172.5580  144.8130 C   0  0  0  0  0  0  0  0  0  0  0  0
  184.6630  178.1210  141.0050 C   0  0  0  0  0  1  0  0  0  0  0  0
  186.0080  177.7340  141.5050 C   0  0  0  0  0  0  0  0  0  0  0  0
  188.8250  175.4230  141.4800 C   0  0  0  0  0  3  0  0  0  0  0  0
  191.9810  175.0830  144.2510 C   0  0  0  0  0  0  0  0  0  0  0  0
  193.2200  173.6060  145.7320 C   0  0  0  0  0  3  0  0  0  0  0  0
  189.3860  177.5790  143.3110 N   0  0  0  0  0  2  0  0  0  0  0  0
  186.6460  176.6040  141.1130 N   0  0  0  0  0  0  0  0  0  0  0  0
  193.6530  171.2580  145.0710 N   0  0  0  0  0  2  0  0  0  0  0  0
  195.9410  171.7640  144.9110 O   0  0  0  0  0  0  0  0  0  0  0  0
  195.0430  170.9050  145.1110 C   0  0  0  0  0  0  0  0  0  0  0  0
  195.4270  169.4880  145.3620 C   0  0  0  0  0  2  0  0  0  0  0  0
  196.7500  169.4220  147.3410 O   0  0  0  0  0  0  0  0  0  0  0  0
  194.5510  168.8280  147.6020 O   0  0  0  0  0  1  0  0  0  0  0  0
  195.6170  169.2570  146.8210 C   0  0  0  0  0  0  0  0  0  0  0  0
  192.8380  175.8480  146.4580 O   0  0  0  0  0  0  0  0  0  0  0  0
  192.1240  175.8790  147.6850 C   0  0  0  0  0  2  0  0  0  0  0  0
  189.7970  175.0220  147.3750 C   0  0  0  0  0  3  0  0  0  0  0  0
  190.2090  177.4000  147.1670 C   0  0  0  0  0  3  0  0  0  0  0  0
  188.8550  177.6110  146.8910 C   0  0  0  0  0  3  0  0  0  0  0  0
  187.9690  176.5290  146.8630 C   0  0  0  0  0  0  0  0  0  0  0  0
  188.4430  175.2330  147.0980 C   0  0  0  0  0  3  0  0  0  0  0  0
  190.6790  176.1070  147.4180 C   0  0  0  0  0  0  0  0  0  0  0  0
  186.5300  176.7510  146.5500 C   0  0  0  0  0  2  0  0  0  0  0  0
  186.0320  178.0040  147.2440 C   0  0  0  0  0  2  0  0  0  0  0  0
  185.5630  178.9520  146.2520 N   0  0  0  0  0  1  0  0  0  0  0  0
  1 15  1  0  0  0  0
  2 11  1  0  0  0  0
  3 17  1  0  0  0  0
  3  1  2  0  0  0  0
  4  3  1  0  0  0  0
  5 16  1  0  0  0  0
  5 26  1  0  0  0  0
  6  8  2  0  0  0  0
  7  2  2  0  0  0  0
  7 15  1  0  0  0  0
  8  9  1  0  0  0  0
  8 17  1  0  0  0  0
 10  4  1  0  0  0  0
 10  7  1  0  0  0  0
 11 19  1  0  0  0  0
 11 16  2  0  0  0  0
 12 13  1  0  0  0  0
 13  9  1  0  0  0  0
 14  6  1  0  0  0  0
 14  4  2  0  0  0  0
 15  5  2  0  0  0  0
 18 13  2  0  0  0  0
 18  6  1  0  0  0  0
 19 21  1  0  0  0  0
 20 21  2  0  0  0  0
 21 22  1  0  0  0  0
 22 25  1  0  0  0  0
 25 23  2  0  0  0  0
 25 24  1  0  0  0  0
 26 27  1  0  0  0  0
 28 33  1  0  0  0  0
 29 33  2  0  0  0  0
 30 29  1  0  0  0  0
 31 30  2  0  0  0  0
 31 32  1  0  0  0  0
 32 28  2  0  0  0  0
 33 27  1  0  0  0  0
 34 31  1  0  0  0  0
 34 35  1  0  0  0  0
 36 35  1  0  0  0  0
M  END
>  <MODEL>
1

>  <REMARK>
 VINA RESULT:      -7.2      0.000      0.000
  Name = 
  8 active torsions:
  status: ('A' for Active; 'I' for Inactive)
    1  A    between atoms: C_7  and  O_22
    2  A    between atoms: N_13  and  C_14
    3  A    between atoms: C_16  and  C_31
    4  A    between atoms: C_19  and  C_31
    5  A    between atoms: O_22  and  C_34
    6  A    between atoms: C_23  and  C_36
    7  A    between atoms: C_29  and  C_36
    8  A    between atoms: C_33  and  C_34
                            x       y       z     vdW  Elec       q    Type
                         _______ _______ _______ _____ _____    ______ ____

>  <TORSDO>
F 8

$$$$
=
 OpenBabel11042413593D

 36 40  0  0  0  0  0  0  0  0999 V2000
  184.6300  177.9590  143.3080 N   0  0  0  0  0  0  0  0  0  0  0  0
  187.2840  176.2630  141.2820 C   0  0  0  0  0  3  0  0  0  0  0  0
  183.6980  178.3000  142.4700 C   0  0  0  0  0  0  0  0  0  0  0  0
  183.8640  178.0870  141.0060 C   0  0  0  0  0  0  0  0  0  0  0  0
  186.6170  176.6510  143.9780 C   0  0  0  0  0  0  0  0  0  0  0  0
  181.4640  178.3620  140.7400 C   0  0  0  0  0  0  0  0  0  0  0  0
  186.2340  177.1200  141.6150 C   0  0  0  0  0  0  0  0  0  0  0  0
  181.3160  178.6870  142.0710 C   0  0  0  0  0  0  0  0  0  0  0  0
  179.7040  178.9930  142.4110 S   0  0  0  0  0  0  0  0  0  0  0  0
  185.5040  178.0990  140.3050 S   0  0  0  0  0  0  0  0  0  0  0  0
  187.9920  175.5840  142.2710 C   0  0  0  0  0  0  0  0  0  0  0  0
  177.8690  178.7990  140.2900 C   0  0  0  0  0  1  0  0  0  0  0  0
  179.2610  178.7030  140.8020 C   0  0  0  0  0  0  0  0  0  0  0  0
  182.8020  178.1060  140.1850 C   0  0  0  0  0  3  0  0  0  0  0  0
  185.8630  177.3000  142.9660 C   0  0  0  0  0  0  0  0  0  0  0  0
  187.6620  175.7970  143.6130 C   0  0  0  0  0  3  0  0  0  0  0  0
  182.4150  178.6980  142.9800 N   0  0  0  0  0  2  0  0  0  0  0  0
  180.3170  178.3780  140.0160 N   0  0  0  0  0  0  0  0  0  0  0  0
  189.0590  174.7090  141.8800 N   0  0  0  0  0  2  0  0  0  0  0  0
  187.8800  172.6800  141.7900 O   0  0  0  0  0  0  0  0  0  0  0  0
  188.9690  173.2960  141.6550 C   0  0  0  0  0  0  0  0  0  0  0  0
  190.1970  172.5390  141.2830 C   0  0  0  0  0  2  0  0  0  0  0  0
  190.4050  170.2860  142.0270 O   0  0  0  0  0  0  0  0  0  0  0  0
  190.8480  171.8920  143.6020 O   0  0  0  0  0  1  0  0  0  0  0  0
  190.4970  171.5070  142.3140 C   0  0  0  0  0  0  0  0  0  0  0  0
  186.3590  176.7900  145.3500 O   0  0  0  0  0  0  0  0  0  0  0  0
  187.1350  177.5790  146.2400 C   0  0  0  0  0  2  0  0  0  0  0  0
  189.6330  177.5090  146.1770 C   0  0  0  0  0  3  0  0  0  0  0  0
  188.4270  175.6170  147.0920 C   0  0  0  0  0  3  0  0  0  0  0  0
  189.6380  174.9610  147.3340 C   0  0  0  0  0  3  0  0  0  0  0  0
  190.8490  175.5820  147.0040 C   0  0  0  0  0  0  0  0  0  0  0  0
  190.8440  176.8530  146.4190 C   0  0  0  0  0  3  0  0  0  0  0  0
  188.4240  176.8940  146.5220 C   0  0  0  0  0  0  0  0  0  0  0  0
  192.1380  174.8770  147.2440 C   0  0  0  0  0  2  0  0  0  0  0  0
  193.0120  174.9480  146.0070 C   0  0  0  0  0  2  0  0  0  0  0  0
  193.2880  173.6050  145.5320 N   0  0  0  0  0  1  0  0  0  0  0  0
  2  7  2  0  0  0  0
  2 11  1  0  0  0  0
  3 17  1  0  0  0  0
  3  1  2  0  0  0  0
  4  3  1  0  0  0  0
  5 26  1  0  0  0  0
  6  8  2  0  0  0  0
  7 15  1  0  0  0  0
  8  9  1  0  0  0  0
  8 17  1  0  0  0  0
 10  4  1  0  0  0  0
 10  7  1  0  0  0  0
 11 16  2  0  0  0  0
 12 13  1  0  0  0  0
 13  9  1  0  0  0  0
 14  6  1  0  0  0  0
 14  4  2  0  0  0  0
 15  1  1  0  0  0  0
 15  5  2  0  0  0  0
 16  5  1  0  0  0  0
 18  6  1  0  0  0  0
 18 13  2  0  0  0  0
 19 11  1  0  0  0  0
 21 20  2  0  0  0  0
 21 19  1  0  0  0  0
 22 21  1  0  0  0  0
 22 25  1  0  0  0  0
 23 25  2  0  0  0  0
 25 24  1  0  0  0  0
 26 27  1  0  0  0  0
 27 33  1  0  0  0  0
 28 32  2  0  0  0  0
 28 33  1  0  0  0  0
 29 30  1  0  0  0  0
 31 34  1  0  0  0  0
 31 30  2  0  0  0  0
 32 31  1  0  0  0  0
 33 29  2  0  0  0  0
 35 34  1  0  0  0  0
 36 35  1  0  0  0  0
M  END
>  <MODEL>
2

>  <REMARK>
 VINA RESULT:      -7.2      3.609      6.490
  Name = 
  8 active torsions:
  status: ('A' for Active; 'I' for Inactive)
    1  A    between atoms: C_7  and  O_22
    2  A    between atoms: N_13  and  C_14
    3  A    between atoms: C_16  and  C_31
    4  A    between atoms: C_19  and  C_31
    5  A    between atoms: O_22  and  C_34
    6  A    between atoms: C_23  and  C_36
    7  A    between atoms: C_29  and  C_36
    8  A    between atoms: C_33  and  C_34
                            x       y       z     vdW  Elec       q    Type
                         _______ _______ _______ _____ _____    ______ ____

>  <TORSDO>
F 8

$$$$
=
 OpenBabel11042413593D

 36 40  0  0  0  0  0  0  0  0999 V2000
  190.7870  173.5350  143.9060 N   0  0  0  0  0  0  0  0  0  0  0  0
  187.9790  175.9940  143.6010 C   0  0  0  0  0  3  0  0  0  0  0  0
  191.1070  173.1990  142.6920 C   0  0  0  0  0  0  0  0  0  0  0  0
  190.3290  173.6980  141.5250 C   0  0  0  0  0  0  0  0  0  0  0  0
  189.7200  175.0170  145.5700 C   0  0  0  0  0  0  0  0  0  0  0  0
  192.1820  173.0740  140.0820 C   0  0  0  0  0  0  0  0  0  0  0  0
  188.8260  174.9260  143.3030 C   0  0  0  0  0  0  0  0  0  0  0  0
  192.8560  172.4930  141.1340 C   0  0  0  0  0  0  0  0  0  0  0  0
  194.3140  171.8630  140.6040 S   0  0  0  0  0  0  0  0  0  0  0  0
  188.6020  174.0910  141.7340 S   0  0  0  0  0  0  0  0  0  0  0  0
  188.0010  176.5920  144.8590 C   0  0  0  0  0  0  0  0  0  0  0  0
  194.9270  172.1250  137.8720 C   0  0  0  0  0  1  0  0  0  0  0  0
  194.0050  172.3610  139.0140 C   0  0  0  0  0  0  0  0  0  0  0  0
  190.8440  173.6490  140.2860 C   0  0  0  0  0  3  0  0  0  0  0  0
  189.7340  174.4440  144.2730 C   0  0  0  0  0  0  0  0  0  0  0  0
  188.8610  176.0870  145.8390 C   0  0  0  0  0  3  0  0  0  0  0  0
  192.3440  172.5040  142.4660 N   0  0  0  0  0  2  0  0  0  0  0  0
  192.8140  172.9950  138.8840 N   0  0  0  0  0  0  0  0  0  0  0  0
  187.1170  177.6910  145.1160 N   0  0  0  0  0  2  0  0  0  0  0  0
  185.4050  176.5510  146.2500 O   0  0  0  0  0  0  0  0  0  0  0  0
  185.8560  177.6350  145.7980 C   0  0  0  0  0  0  0  0  0  0  0  0
  185.0530  178.8810  145.9450 C   0  0  0  0  0  2  0  0  0  0  0  0
  183.7220  178.9990  143.9740 O   0  0  0  0  0  0  0  0  0  0  0  0
  185.5200  180.4200  144.0390 O   0  0  0  0  0  1  0  0  0  0  0  0
  184.7170  179.4380  144.6060 C   0  0  0  0  0  0  0  0  0  0  0  0
  190.5500  174.5900  146.6180 O   0  0  0  0  0  0  0  0  0  0  0  0
  191.5110  175.4080  147.2700 C   0  0  0  0  0  2  0  0  0  0  0  0
  193.4340  176.5980  146.2060 C   0  0  0  0  0  3  0  0  0  0  0  0
  193.3080  174.1850  146.0380 C   0  0  0  0  0  3  0  0  0  0  0  0
  194.4910  174.1740  145.2930 C   0  0  0  0  0  3  0  0  0  0  0  0
  195.1520  175.3760  145.0100 C   0  0  0  0  0  0  0  0  0  0  0  0
  194.6170  176.5880  145.4610 C   0  0  0  0  0  3  0  0  0  0  0  0
  192.7840  175.3950  146.5020 C   0  0  0  0  0  0  0  0  0  0  0  0
  196.4020  175.3670  144.2020 C   0  0  0  0  0  2  0  0  0  0  0  0
  196.5880  176.7040  143.5120 C   0  0  0  0  0  2  0  0  0  0  0  0
  196.2010  176.5870  142.1180 N   0  0  0  0  0  1  0  0  0  0  0  0
  1 15  1  0  0  0  0
  2 11  1  0  0  0  0
  3  1  2  0  0  0  0
  4 10  1  0  0  0  0
  4  3  1  0  0  0  0
  5 16  1  0  0  0  0
  5 26  1  0  0  0  0
  6 14  1  0  0  0  0
  6  8  2  0  0  0  0
  7  2  2  0  0  0  0
  7 15  1  0  0  0  0
  8 17  1  0  0  0  0
  9  8  1  0  0  0  0
 10  7  1  0  0  0  0
 11 19  1  0  0  0  0
 11 16  2  0  0  0  0
 12 13  1  0  0  0  0
 13  9  1  0  0  0  0
 14  4  2  0  0  0  0
 15  5  2  0  0  0  0
 17  3  1  0  0  0  0
 18 13  2  0  0  0  0
 18  6  1  0  0  0  0
 19 21  1  0  0  0  0
 21 22  1  0  0  0  0
 21 20  2  0  0  0  0
 23 25  2  0  0  0  0
 24 25  1  0  0  0  0
 25 22  1  0  0  0  0
 26 27  1  0  0  0  0
 28 33  1  0  0  0  0
 29 33  2  0  0  0  0
 30 29  1  0  0  0  0
 31 30  2  0  0  0  0
 31 32  1  0  0  0  0
 32 28  2  0  0  0  0
 33 27  1  0  0  0  0
 34 31  1  0  0  0  0
 35 34  1  0  0  0  0
 36 35  1  0  0  0  0
M  END
>  <MODEL>
3

>  <REMARK>
 VINA RESULT:      -7.0      3.903      8.382
  Name = 
  8 active torsions:
  status: ('A' for Active; 'I' for Inactive)
    1  A    between atoms: C_7  and  O_22
    2  A    between atoms: N_13  and  C_14
    3  A    between atoms: C_16  and  C_31
    4  A    between atoms: C_19  and  C_31
    5  A    between atoms: O_22  and  C_34
    6  A    between atoms: C_23  and  C_36
    7  A    between atoms: C_29  and  C_36
    8  A    between atoms: C_33  and  C_34
                            x       y       z     vdW  Elec       q    Type
                         _______ _______ _______ _____ _____    ______ ____

>  <TORSDO>
F 8

$$$$
=
 OpenBabel11042413593D

 36 40  0  0  0  0  0  0  0  0999 V2000
  190.8210  174.5650  141.6340 N   0  0  0  0  0  0  0  0  0  0  0  0
  187.6140  175.7920  143.1290 C   0  0  0  0  0  3  0  0  0  0  0  0
  190.4880  173.7250  140.7000 C   0  0  0  0  0  0  0  0  0  0  0  0
  189.0640  173.3480  140.4780 C   0  0  0  0  0  0  0  0  0  0  0  0
  190.3480  176.4140  143.2030 C   0  0  0  0  0  0  0  0  0  0  0  0
  189.6810  172.4980  138.2860 C   0  0  0  0  0  0  0  0  0  0  0  0
  188.5300  174.9500  142.4970 C   0  0  0  0  0  0  0  0  0  0  0  0
  191.0180  172.7240  138.5330 C   0  0  0  0  0  0  0  0  0  0  0  0
  191.9330  172.2560  137.2100 S   0  0  0  0  0  0  0  0  0  0  0  0
  187.9270  173.3910  141.8510 S   0  0  0  0  0  0  0  0  0  0  0  0
  188.0400  176.9470  143.7800 C   0  0  0  0  0  0  0  0  0  0  0  0
  190.5670  171.1790  135.0010 C   0  0  0  0  0  1  0  0  0  0  0  0
  190.5480  171.7630  136.3670 C   0  0  0  0  0  0  0  0  0  0  0  0
  188.6790  172.7750  139.3270 C   0  0  0  0  0  3  0  0  0  0  0  0
  189.9070  175.2660  142.4960 C   0  0  0  0  0  0  0  0  0  0  0  0
  189.4070  177.2390  143.8260 C   0  0  0  0  0  3  0  0  0  0  0  0
  191.4800  173.3140  139.7470 N   0  0  0  0  0  2  0  0  0  0  0  0
  189.4080  171.9480  137.0770 N   0  0  0  0  0  0  0  0  0  0  0  0
  187.0620  177.7850  144.4100 N   0  0  0  0  0  2  0  0  0  0  0  0
  186.3450  179.0140  142.5410 O   0  0  0  0  0  0  0  0  0  0  0  0
  186.2530  178.7850  143.7750 C   0  0  0  0  0  0  0  0  0  0  0  0
  185.3070  179.5870  144.6000 C   0  0  0  0  0  2  0  0  0  0  0  0
  185.7820  179.3500  146.9220 O   0  0  0  0  0  1  0  0  0  0  0  0
  184.2290  177.8900  146.0760 O   0  0  0  0  0  0  0  0  0  0  0  0
  185.1170  178.9490  145.9320 C   0  0  0  0  0  0  0  0  0  0  0  0
  191.6930  176.7990  143.2990 O   0  0  0  0  0  0  0  0  0  0  0  0
  192.3420  177.1690  144.5080 C   0  0  0  0  0  2  0  0  0  0  0  0
  193.9900  175.9850  145.9670 C   0  0  0  0  0  3  0  0  0  0  0  0
  194.3380  175.9920  143.5700 C   0  0  0  0  0  3  0  0  0  0  0  0
  195.5100  175.2480  143.7370 C   0  0  0  0  0  3  0  0  0  0  0  0
  195.9200  174.8650  145.0200 C   0  0  0  0  0  0  0  0  0  0  0  0
  195.1620  175.2410  146.1350 C   0  0  0  0  0  3  0  0  0  0  0  0
  193.5740  176.3540  144.6840 C   0  0  0  0  0  0  0  0  0  0  0  0
  197.1760  174.0870  145.2000 C   0  0  0  0  0  2  0  0  0  0  0  0
  196.9490  172.9420  146.1680 C   0  0  0  0  0  2  0  0  0  0  0  0
  197.0550  171.6810  145.4590 N   0  0  0  0  0  1  0  0  0  0  0  0
  1 15  1  0  0  0  0
  2 11  1  0  0  0  0
  3  1  2  0  0  0  0
  4  3  1  0  0  0  0
  4 10  1  0  0  0  0
  5 26  1  0  0  0  0
  5 16  1  0  0  0  0
  6  8  2  0  0  0  0
  6 14  1  0  0  0  0
  7  2  2  0  0  0  0
  8 17  1  0  0  0  0
  9  8  1  0  0  0  0
 10  7  1  0  0  0  0
 11 16  2  0  0  0  0
 11 19  1  0  0  0  0
 12 13  1  0  0  0  0
 13 18  2  0  0  0  0
 13  9  1  0  0  0  0
 14  4  2  0  0  0  0
 15  7  1  0  0  0  0
 15  5  2  0  0  0  0
 17  3  1  0  0  0  0
 18  6  1  0  0  0  0
 20 21  2  0  0  0  0
 21 19  1  0  0  0  0
 21 22  1  0  0  0  0
 22 25  1  0  0  0  0
 25 24  2  0  0  0  0
 25 23  1  0  0  0  0
 26 27  1  0  0  0  0
 27 33  1  0  0  0  0
 28 32  1  0  0  0  0
 29 30  2  0  0  0  0
 29 33  1  0  0  0  0
 30 31  1  0  0  0  0
 31 34  1  0  0  0  0
 31 32  2  0  0  0  0
 33 28  2  0  0  0  0
 34 35  1  0  0  0  0
 36 35  1  0  0  0  0
M  END
>  <MODEL>
4

>  <REMARK>
 VINA RESULT:      -6.9      4.157      8.456
  Name = 
  8 active torsions:
  status: ('A' for Active; 'I' for Inactive)
    1  A    between atoms: C_7  and  O_22
    2  A    between atoms: N_13  and  C_14
    3  A    between atoms: C_16  and  C_31
    4  A    between atoms: C_19  and  C_31
    5  A    between atoms: O_22  and  C_34
    6  A    between atoms: C_23  and  C_36
    7  A    between atoms: C_29  and  C_36
    8  A    between atoms: C_33  and  C_34
                            x       y       z     vdW  Elec       q    Type
                         _______ _______ _______ _____ _____    ______ ____

>  <TORSDO>
F 8

$$$$
=
 OpenBabel11042413593D

 36 40  0  0  0  0  0  0  0  0999 V2000
  190.9860  175.2700  142.1820 N   0  0  0  0  0  0  0  0  0  0  0  0
  188.6780  177.5320  144.0750 C   0  0  0  0  0  3  0  0  0  0  0  0
  192.1740  175.4780  142.6660 C   0  0  0  0  0  0  0  0  0  0  0  0
  192.4140  176.5320  143.6900 C   0  0  0  0  0  0  0  0  0  0  0  0
  188.5200  175.3850  142.2770 C   0  0  0  0  0  0  0  0  0  0  0  0
  194.5350  175.4700  144.2180 C   0  0  0  0  0  0  0  0  0  0  0  0
  189.8420  177.0470  143.4760 C   0  0  0  0  0  0  0  0  0  0  0  0
  194.3840  174.5690  143.1870 C   0  0  0  0  0  0  0  0  0  0  0  0
  195.7010  173.5350  143.1300 S   0  0  0  0  0  0  0  0  0  0  0  0
  191.3580  177.9690  143.7250 S   0  0  0  0  0  0  0  0  0  0  0  0
  187.4420  176.9490  143.8050 C   0  0  0  0  0  0  0  0  0  0  0  0
  197.7440  173.9280  145.0220 C   0  0  0  0  0  1  0  0  0  0  0  0
  196.4290  174.3140  144.4470 C   0  0  0  0  0  0  0  0  0  0  0  0
  193.5300  176.5220  144.4350 C   0  0  0  0  0  3  0  0  0  0  0  0
  189.7840  175.9450  142.5950 C   0  0  0  0  0  0  0  0  0  0  0  0
  187.3720  175.8900  142.8940 C   0  0  0  0  0  3  0  0  0  0  0  0
  193.2240  174.5480  142.3560 N   0  0  0  0  0  2  0  0  0  0  0  0
  195.6860  175.3430  144.9250 N   0  0  0  0  0  0  0  0  0  0  0  0
  186.2750  177.4770  144.4490 N   0  0  0  0  0  2  0  0  0  0  0  0
  185.9430  179.3960  143.1360 O   0  0  0  0  0  0  0  0  0  0  0  0
  185.5680  178.6740  144.0980 C   0  0  0  0  0  0  0  0  0  0  0  0
  184.3880  179.0870  144.9060 C   0  0  0  0  0  2  0  0  0  0  0  0
  183.8850  177.8680  146.8890 O   0  0  0  0  0  0  0  0  0  0  0  0
  185.5650  179.4160  147.0800 O   0  0  0  0  0  1  0  0  0  0  0  0
  184.6000  178.7450  146.3400 C   0  0  0  0  0  0  0  0  0  0  0  0
  188.3440  174.3160  141.3870 O   0  0  0  0  0  0  0  0  0  0  0  0
  188.1190  172.9690  141.7780 C   0  0  0  0  0  2  0  0  0  0  0  0
  190.2720  171.8530  141.1730 C   0  0  0  0  0  3  0  0  0  0  0  0
  189.7400  172.1870  143.5120 C   0  0  0  0  0  3  0  0  0  0  0  0
  190.9410  171.5700  143.8750 C   0  0  0  0  0  3  0  0  0  0  0  0
  191.8130  171.1000  142.8860 C   0  0  0  0  0  0  0  0  0  0  0  0
  191.4740  171.2360  141.5350 C   0  0  0  0  0  3  0  0  0  0  0  0
  189.4090  172.3370  142.1620 C   0  0  0  0  0  0  0  0  0  0  0  0
  193.0840  170.4270  143.2710 C   0  0  0  0  0  2  0  0  0  0  0  0
  193.5350  170.9040  144.6380 C   0  0  0  0  0  2  0  0  0  0  0  0
  194.1920  169.8160  145.3380 N   0  0  0  0  0  1  0  0  0  0  0  0
  1 15  1  0  0  0  0
  1  3  2  0  0  0  0
  3  4  1  0  0  0  0
  4 10  1  0  0  0  0
  4 14  2  0  0  0  0
  5 15  2  0  0  0  0
  5 16  1  0  0  0  0
  6 14  1  0  0  0  0
  6 18  1  0  0  0  0
  7 10  1  0  0  0  0
  7  2  2  0  0  0  0
  8  6  2  0  0  0  0
  9  8  1  0  0  0  0
  9 13  1  0  0  0  0
 11  2  1  0  0  0  0
 11 19  1  0  0  0  0
 13 18  2  0  0  0  0
 13 12  1  0  0  0  0
 15  7  1  0  0  0  0
 16 11  2  0  0  0  0
 17  3  1  0  0  0  0
 17  8  1  0  0  0  0
 20 21  2  0  0  0  0
 21 19  1  0  0  0  0
 21 22  1  0  0  0  0
 22 25  1  0  0  0  0
 25 23  2  0  0  0  0
 25 24  1  0  0  0  0
 26 27  1  0  0  0  0
 26  5  1  0  0  0  0
 27 33  1  0  0  0  0
 28 32  2  0  0  0  0
 28 33  1  0  0  0  0
 29 30  1  0  0  0  0
 31 34  1  0  0  0  0
 31 30  2  0  0  0  0
 32 31  1  0  0  0  0
 33 29  2  0  0  0  0
 34 35  1  0  0  0  0
 35 36  1  0  0  0  0
M  END
>  <MODEL>
5

>  <REMARK>
 VINA RESULT:      -6.8      4.108      9.052
  Name = 
  8 active torsions:
  status: ('A' for Active; 'I' for Inactive)
    1  A    between atoms: C_7  and  O_22
    2  A    between atoms: N_13  and  C_14
    3  A    between atoms: C_16  and  C_31
    4  A    between atoms: C_19  and  C_31
    5  A    between atoms: O_22  and  C_34
    6  A    between atoms: C_23  and  C_36
    7  A    between atoms: C_29  and  C_36
    8  A    between atoms: C_33  and  C_34
                            x       y       z     vdW  Elec       q    Type
                         _______ _______ _______ _____ _____    ______ ____

>  <TORSDO>
F 8

$$$$
=
 OpenBabel11042413593D

 36 40  0  0  0  0  0  0  0  0999 V2000
  185.4330  177.7830  143.2470 N   0  0  0  0  0  0  0  0  0  0  0  0
  187.8510  175.9090  141.0870 C   0  0  0  0  0  3  0  0  0  0  0  0
  184.4670  178.1630  142.4640 C   0  0  0  0  0  0  0  0  0  0  0  0
  184.5260  177.9180  140.9960 C   0  0  0  0  0  0  0  0  0  0  0  0
  187.3840  176.3770  143.8120 C   0  0  0  0  0  0  0  0  0  0  0  0
  182.1320  178.3220  140.8810 C   0  0  0  0  0  0  0  0  0  0  0  0
  186.8740  176.8290  141.4710 C   0  0  0  0  0  0  0  0  0  0  0  0
  182.0900  178.6760  142.2120 C   0  0  0  0  0  0  0  0  0  0  0  0
  180.5230  179.0780  142.6490 S   0  0  0  0  0  0  0  0  0  0  0  0
  186.1150  177.8260  140.1910 S   0  0  0  0  0  0  0  0  0  0  0  0
  188.5840  175.2070  142.0420 C   0  0  0  0  0  0  0  0  0  0  0  0
  178.5440  178.9530  140.6550 C   0  0  0  0  0  1  0  0  0  0  0  0
  179.9590  178.7870  141.0780 C   0  0  0  0  0  0  0  0  0  0  0  0
  183.4150  177.9830  140.2460 C   0  0  0  0  0  3  0  0  0  0  0  0
  186.6030  177.0510  142.8390 C   0  0  0  0  0  0  0  0  0  0  0  0
  188.3550  175.4600  143.3980 C   0  0  0  0  0  3  0  0  0  0  0  0
  183.2450  178.6400  143.0480 N   0  0  0  0  0  2  0  0  0  0  0  0
  180.9430  178.3920  140.2320 N   0  0  0  0  0  0  0  0  0  0  0  0
  189.5730  174.2680  141.6000 N   0  0  0  0  0  2  0  0  0  0  0  0
  188.1700  172.6720  140.6010 O   0  0  0  0  0  0  0  0  0  0  0  0
  189.3360  173.0390  140.9000 C   0  0  0  0  0  0  0  0  0  0  0  0
  190.4910  172.1680  140.5480 C   0  0  0  0  0  2  0  0  0  0  0  0
  191.3640  173.4330  138.7280 O   0  0  0  0  0  0  0  0  0  0  0  0
  192.7730  173.1740  140.5180 O   0  0  0  0  0  1  0  0  0  0  0  0
  191.5560  172.9680  139.8810 C   0  0  0  0  0  0  0  0  0  0  0  0
  187.2250  176.5520  145.1950 O   0  0  0  0  0  0  0  0  0  0  0  0
  188.0210  177.4130  145.9960 C   0  0  0  0  0  2  0  0  0  0  0  0
  189.6510  175.8010  146.9930 C   0  0  0  0  0  3  0  0  0  0  0  0
  190.4420  177.4210  145.3750 C   0  0  0  0  0  3  0  0  0  0  0  0
  191.7400  176.9170  145.5030 C   0  0  0  0  0  3  0  0  0  0  0  0
  191.9930  175.8480  146.3720 C   0  0  0  0  0  0  0  0  0  0  0  0
  190.9480  175.2960  147.1210 C   0  0  0  0  0  3  0  0  0  0  0  0
  189.3960  176.8580  146.1130 C   0  0  0  0  0  0  0  0  0  0  0  0
  193.3780  175.3220  146.5220 C   0  0  0  0  0  2  0  0  0  0  0  0
  194.1230  175.4260  145.2060 C   0  0  0  0  0  2  0  0  0  0  0  0
  195.0120  176.5720  145.2430 N   0  0  0  0  0  1  0  0  0  0  0  0
  2  7  2  0  0  0  0
  2 11  1  0  0  0  0
  3 17  1  0  0  0  0
  3  1  2  0  0  0  0
  4  3  1  0  0  0  0
  5 26  1  0  0  0  0
  6  8  2  0  0  0  0
  7 15  1  0  0  0  0
  8  9  1  0  0  0  0
  8 17  1  0  0  0  0
 10  4  1  0  0  0  0
 10  7  1  0  0  0  0
 11 16  2  0  0  0  0
 12 13  1  0  0  0  0
 13  9  1  0  0  0  0
 14  6  1  0  0  0  0
 14  4  2  0  0  0  0
 15  1  1  0  0  0  0
 15  5  2  0  0  0  0
 16  5  1  0  0  0  0
 18  6  1  0  0  0  0
 18 13  2  0  0  0  0
 19 11  1  0  0  0  0
 20 21  2  0  0  0  0
 21 19  1  0  0  0  0
 22 21  1  0  0  0  0
 23 25  2  0  0  0  0
 25 24  1  0  0  0  0
 25 22  1  0  0  0  0
 26 27  1  0  0  0  0
 27 33  1  0  0  0  0
 28 32  1  0  0  0  0
 29 30  2  0  0  0  0
 29 33  1  0  0  0  0
 30 31  1  0  0  0  0
 31 34  1  0  0  0  0
 31 32  2  0  0  0  0
 33 28  2  0  0  0  0
 35 36  1  0  0  0  0
 35 34  1  0  0  0  0
M  END
>  <MODEL>
6

>  <REMARK>
 VINA RESULT:      -6.5      3.766      6.416
  Name = 
  8 active torsions:
  status: ('A' for Active; 'I' for Inactive)
    1  A    between atoms: C_7  and  O_22
    2  A    between atoms: N_13  and  C_14
    3  A    between atoms: C_16  and  C_31
    4  A    between atoms: C_19  and  C_31
    5  A    between atoms: O_22  and  C_34
    6  A    between atoms: C_23  and  C_36
    7  A    between atoms: C_29  and  C_36
    8  A    between atoms: C_33  and  C_34
                            x       y       z     vdW  Elec       q    Type
                         _______ _______ _______ _____ _____    ______ ____

>  <TORSDO>
F 8

$$$$
=
 OpenBabel11042413593D

 36 40  0  0  0  0  0  0  0  0999 V2000
  190.0720  173.7950  139.7250 N   0  0  0  0  0  0  0  0  0  0  0  0
  191.9340  174.1530  142.9550 C   0  0  0  0  0  3  0  0  0  0  0  0
  190.7940  173.0180  138.9750 C   0  0  0  0  0  0  0  0  0  0  0  0
  192.1330  172.5440  139.4230 C   0  0  0  0  0  0  0  0  0  0  0  0
  189.4040  174.7520  141.9030 C   0  0  0  0  0  0  0  0  0  0  0  0
  192.0380  170.8130  137.7190 C   0  0  0  0  0  0  0  0  0  0  0  0
  191.6920  173.9650  141.5930 C   0  0  0  0  0  0  0  0  0  0  0  0
  190.8620  171.3220  137.2140 C   0  0  0  0  0  0  0  0  0  0  0  0
  190.3490  170.3990  135.9130 S   0  0  0  0  0  0  0  0  0  0  0  0
  193.0840  173.5530  140.5440 S   0  0  0  0  0  0  0  0  0  0  0  0
  190.9290  174.6160  143.8000 C   0  0  0  0  0  0  0  0  0  0  0  0
  191.9530  168.2180  135.1540 C   0  0  0  0  0  1  0  0  0  0  0  0
  191.6920  169.3750  136.0500 C   0  0  0  0  0  0  0  0  0  0  0  0
  192.7190  171.4890  138.8340 C   0  0  0  0  0  3  0  0  0  0  0  0
  190.4130  174.2300  141.0540 C   0  0  0  0  0  0  0  0  0  0  0  0
  189.6760  174.9280  143.2630 C   0  0  0  0  0  3  0  0  0  0  0  0
  190.2080  172.4500  137.7930 N   0  0  0  0  0  2  0  0  0  0  0  0
  192.5180  169.7260  137.0660 N   0  0  0  0  0  0  0  0  0  0  0  0
  191.2220  174.7860  145.1940 N   0  0  0  0  0  2  0  0  0  0  0  0
  192.3600  176.8390  145.1000 O   0  0  0  0  0  0  0  0  0  0  0  0
  191.9230  175.8830  145.7940 C   0  0  0  0  0  0  0  0  0  0  0  0
  192.1660  175.8750  147.2630 C   0  0  0  0  0  2  0  0  0  0  0  0
  190.0000  176.8220  147.5480 O   0  0  0  0  0  0  0  0  0  0  0  0
  191.6000  177.5530  149.0190 O   0  0  0  0  0  1  0  0  0  0  0  0
  191.1900  176.7640  147.9520 C   0  0  0  0  0  0  0  0  0  0  0  0
  188.1140  175.0860  141.4640 O   0  0  0  0  0  0  0  0  0  0  0  0
  187.7170  176.3810  141.0370 C   0  0  0  0  0  2  0  0  0  0  0  0
  186.7930  178.4280  142.1340 C   0  0  0  0  0  3  0  0  0  0  0  0
  186.3080  176.2590  143.0980 C   0  0  0  0  0  3  0  0  0  0  0  0
  185.5720  176.8740  144.1150 C   0  0  0  0  0  3  0  0  0  0  0  0
  185.4390  178.2670  144.1390 C   0  0  0  0  0  0  0  0  0  0  0  0
  186.0570  179.0440  143.1510 C   0  0  0  0  0  3  0  0  0  0  0  0
  186.9110  177.0340  142.1030 C   0  0  0  0  0  0  0  0  0  0  0  0
  184.6700  178.9240  145.2310 C   0  0  0  0  0  2  0  0  0  0  0  0
  185.5200  179.0220  146.4830 C   0  0  0  0  0  2  0  0  0  0  0  0
  184.8430  178.3550  147.5800 N   0  0  0  0  0  1  0  0  0  0  0  0
  1 15  1  0  0  0  0
  2 11  1  0  0  0  0
  3  4  1  0  0  0  0
  3  1  2  0  0  0  0
  4 10  1  0  0  0  0
  5 16  1  0  0  0  0
  6 14  1  0  0  0  0
  7  2  2  0  0  0  0
  8  6  2  0  0  0  0
  8 17  1  0  0  0  0
  9 13  1  0  0  0  0
  9  8  1  0  0  0  0
 10  7  1  0  0  0  0
 11 19  1  0  0  0  0
 12 13  1  0  0  0  0
 13 18  2  0  0  0  0
 14  4  2  0  0  0  0
 15  7  1  0  0  0  0
 15  5  2  0  0  0  0
 16 11  2  0  0  0  0
 17  3  1  0  0  0  0
 18  6  1  0  0  0  0
 19 21  1  0  0  0  0
 20 21  2  0  0  0  0
 21 22  1  0  0  0  0
 22 25  1  0  0  0  0
 23 25  2  0  0  0  0
 25 24  1  0  0  0  0
 26  5  1  0  0  0  0
 27 26  1  0  0  0  0
 27 33  1  0  0  0  0
 28 32  1  0  0  0  0
 29 30  2  0  0  0  0
 30 31  1  0  0  0  0
 31 34  1  0  0  0  0
 32 31  2  0  0  0  0
 33 28  2  0  0  0  0
 33 29  1  0  0  0  0
 34 35  1  0  0  0  0
 35 36  1  0  0  0  0
M  END
>  <MODEL>
7

>  <REMARK>
 VINA RESULT:      -6.4      4.108      6.799
  Name = 
  8 active torsions:
  status: ('A' for Active; 'I' for Inactive)
    1  A    between atoms: C_7  and  O_22
    2  A    between atoms: N_13  and  C_14
    3  A    between atoms: C_16  and  C_31
    4  A    between atoms: C_19  and  C_31
    5  A    between atoms: O_22  and  C_34
    6  A    between atoms: C_23  and  C_36
    7  A    between atoms: C_29  and  C_36
    8  A    between atoms: C_33  and  C_34
                            x       y       z     vdW  Elec       q    Type
                         _______ _______ _______ _____ _____    ______ ____

>  <TORSDO>
F 8

$$$$
=
 OpenBabel11042413593D

 36 40  0  0  0  0  0  0  0  0999 V2000
  191.2140  173.1770  144.8610 N   0  0  0  0  0  0  0  0  0  0  0  0
  188.5180  174.3090  142.5200 C   0  0  0  0  0  3  0  0  0  0  0  0
  191.9600  172.3570  144.1840 C   0  0  0  0  0  0  0  0  0  0  0  0
  191.6030  171.9620  142.7940 C   0  0  0  0  0  0  0  0  0  0  0  0
  189.5300  174.9750  145.0500 C   0  0  0  0  0  0  0  0  0  0  0  0
  193.8830  171.1800  142.4810 C   0  0  0  0  0  0  0  0  0  0  0  0
  189.4910  173.5000  143.1090 C   0  0  0  0  0  0  0  0  0  0  0  0
  194.1870  171.4210  143.8030 C   0  0  0  0  0  0  0  0  0  0  0  0
  195.7810  171.0050  144.1100 S   0  0  0  0  0  0  0  0  0  0  0  0
  189.8880  171.9490  142.3050 S   0  0  0  0  0  0  0  0  0  0  0  0
  188.0580  175.4540  143.1670 C   0  0  0  0  0  0  0  0  0  0  0  0
  197.2870  169.9630  141.9760 C   0  0  0  0  0  1  0  0  0  0  0  0
  196.0110  170.5100  142.5060 C   0  0  0  0  0  0  0  0  0  0  0  0
  192.5200  171.4130  141.9810 C   0  0  0  0  0  3  0  0  0  0  0  0
  190.0360  173.8400  144.3670 C   0  0  0  0  0  0  0  0  0  0  0  0
  188.5560  175.7680  144.4350 C   0  0  0  0  0  3  0  0  0  0  0  0
  193.2440  171.9880  144.7110 N   0  0  0  0  0  2  0  0  0  0  0  0
  194.8970  170.6580  141.7470 N   0  0  0  0  0  0  0  0  0  0  0  0
  187.0630  176.2590  142.5200 N   0  0  0  0  0  2  0  0  0  0  0  0
  188.4520  177.8830  141.5470 O   0  0  0  0  0  0  0  0  0  0  0  0
  187.2890  177.4390  141.7380 C   0  0  0  0  0  0  0  0  0  0  0  0
  186.1240  178.1680  141.1670 C   0  0  0  0  0  2  0  0  0  0  0  0
  185.5260  179.3430  143.1510 O   0  0  0  0  0  1  0  0  0  0  0  0
  183.8990  177.9820  142.2800 O   0  0  0  0  0  0  0  0  0  0  0  0
  185.1700  178.5420  142.2480 C   0  0  0  0  0  0  0  0  0  0  0  0
  189.9710  175.3810  146.3190 O   0  0  0  0  0  0  0  0  0  0  0  0
  190.7930  176.5130  146.5630 C   0  0  0  0  0  2  0  0  0  0  0  0
  193.1350  175.6450  146.6500 C   0  0  0  0  0  3  0  0  0  0  0  0
  192.3880  176.8100  144.6620 C   0  0  0  0  0  3  0  0  0  0  0  0
  193.6500  176.6390  144.0850 C   0  0  0  0  0  3  0  0  0  0  0  0
  194.6550  175.9630  144.7880 C   0  0  0  0  0  0  0  0  0  0  0  0
  194.3980  175.4730  146.0740 C   0  0  0  0  0  3  0  0  0  0  0  0
  192.1270  176.3060  145.9400 C   0  0  0  0  0  0  0  0  0  0  0  0
  196.0050  175.7960  144.1830 C   0  0  0  0  0  2  0  0  0  0  0  0
  195.8920  175.6900  142.6740 C   0  0  0  0  0  2  0  0  0  0  0  0
  195.7870  174.2930  142.2940 N   0  0  0  0  0  1  0  0  0  0  0  0
  2  7  2  0  0  0  0
  2 11  1  0  0  0  0
  3 17  1  0  0  0  0
  3  1  2  0  0  0  0
  4  3  1  0  0  0  0
  5 26  1  0  0  0  0
  6  8  2  0  0  0  0
  7 15  1  0  0  0  0
  8  9  1  0  0  0  0
  8 17  1  0  0  0  0
 10  4  1  0  0  0  0
 10  7  1  0  0  0  0
 11 16  2  0  0  0  0
 12 13  1  0  0  0  0
 13  9  1  0  0  0  0
 14  6  1  0  0  0  0
 14  4  2  0  0  0  0
 15  1  1  0  0  0  0
 15  5  2  0  0  0  0
 16  5  1  0  0  0  0
 18  6  1  0  0  0  0
 18 13  2  0  0  0  0
 19 11  1  0  0  0  0
 20 21  2  0  0  0  0
 21 19  1  0  0  0  0
 22 21  1  0  0  0  0
 22 25  1  0  0  0  0
 25 24  2  0  0  0  0
 25 23  1  0  0  0  0
 26 27  1  0  0  0  0
 29 33  1  0  0  0  0
 30 29  2  0  0  0  0
 30 31  1  0  0  0  0
 31 32  2  0  0  0  0
 32 28  1  0  0  0  0
 33 27  1  0  0  0  0
 33 28  2  0  0  0  0
 34 31  1  0  0  0  0
 35 34  1  0  0  0  0
 36 35  1  0  0  0  0
M  END
>  <MODEL>
8

>  <REMARK>
 VINA RESULT:      -6.4      3.535      8.624
  Name = 
  8 active torsions:
  status: ('A' for Active; 'I' for Inactive)
    1  A    between atoms: C_7  and  O_22
    2  A    between atoms: N_13  and  C_14
    3  A    between atoms: C_16  and  C_31
    4  A    between atoms: C_19  and  C_31
    5  A    between atoms: O_22  and  C_34
    6  A    between atoms: C_23  and  C_36
    7  A    between atoms: C_29  and  C_36
    8  A    between atoms: C_33  and  C_34
                            x       y       z     vdW  Elec       q    Type
                         _______ _______ _______ _____ _____    ______ ____

>  <TORSDO>
F 8

$$$$
=
 OpenBabel11042413593D

 36 40  0  0  0  0  0  0  0  0999 V2000
  189.4780  175.6130  142.7100 N   0  0  0  0  0  0  0  0  0  0  0  0
  188.4230  174.0240  139.4870 C   0  0  0  0  0  3  0  0  0  0  0  0
  188.4630  176.3150  143.1170 C   0  0  0  0  0  0  0  0  0  0  0  0
  187.2360  176.4470  142.2840 C   0  0  0  0  0  0  0  0  0  0  0  0
  190.5220  173.8430  141.3390 C   0  0  0  0  0  0  0  0  0  0  0  0
  186.0360  177.2080  144.2560 C   0  0  0  0  0  0  0  0  0  0  0  0
  188.5020  174.9460  140.5320 C   0  0  0  0  0  0  0  0  0  0  0  0
  187.1930  177.2130  145.0040 C   0  0  0  0  0  0  0  0  0  0  0  0
  186.8620  177.7120  146.5690 S   0  0  0  0  0  0  0  0  0  0  0  0
  187.3730  176.3360  140.5090 S   0  0  0  0  0  0  0  0  0  0  0  0
  189.3640  173.0040  139.3640 C   0  0  0  0  0  0  0  0  0  0  0  0
  184.2020  178.3860  147.1830 C   0  0  0  0  0  1  0  0  0  0  0  0
  185.2190  177.9160  146.2070 C   0  0  0  0  0  0  0  0  0  0  0  0
  186.0810  176.8610  142.8270 C   0  0  0  0  0  3  0  0  0  0  0  0
  189.5340  174.8480  141.4920 C   0  0  0  0  0  0  0  0  0  0  0  0
  190.4160  172.9320  140.2830 C   0  0  0  0  0  3  0  0  0  0  0  0
  188.4490  176.7990  144.4700 N   0  0  0  0  0  2  0  0  0  0  0  0
  184.9240  177.6120  144.9190 N   0  0  0  0  0  0  0  0  0  0  0  0
  189.2380  172.0760  138.2790 N   0  0  0  0  0  2  0  0  0  0  0  0
  190.4680  173.2270  136.6420 O   0  0  0  0  0  0  0  0  0  0  0  0
  189.7890  172.2160  136.9620 C   0  0  0  0  0  0  0  0  0  0  0  0
  189.5260  171.1600  135.9470 C   0  0  0  0  0  2  0  0  0  0  0  0
  191.5350  170.3590  134.9490 O   0  0  0  0  0  0  0  0  0  0  0  0
  190.8040  169.1860  136.7780 O   0  0  0  0  0  1  0  0  0  0  0  0
  190.6830  170.2250  135.8650 C   0  0  0  0  0  0  0  0  0  0  0  0
  191.6090  173.6800  142.2110 O   0  0  0  0  0  0  0  0  0  0  0  0
  191.6290  172.7910  143.3180 C   0  0  0  0  0  2  0  0  0  0  0  0
  190.1930  173.5870  145.2020 C   0  0  0  0  0  3  0  0  0  0  0  0
  192.5110  174.2840  145.1180 C   0  0  0  0  0  3  0  0  0  0  0  0
  192.3320  175.0250  146.2890 C   0  0  0  0  0  3  0  0  0  0  0  0
  191.0840  175.0430  146.9230 C   0  0  0  0  0  0  0  0  0  0  0  0
  190.0130  174.3280  146.3740 C   0  0  0  0  0  3  0  0  0  0  0  0
  191.4450  173.5570  144.5790 C   0  0  0  0  0  0  0  0  0  0  0  0
  190.8870  175.8470  148.1610 C   0  0  0  0  0  2  0  0  0  0  0  0
  191.7790  177.0730  148.1350 C   0  0  0  0  0  2  0  0  0  0  0  0
  191.5560  177.8590  149.3340 N   0  0  0  0  0  1  0  0  0  0  0  0
  1  3  2  0  0  0  0
  2  7  1  0  0  0  0
  3 17  1  0  0  0  0
  4 14  2  0  0  0  0
  4  3  1  0  0  0  0
  5 15  1  0  0  0  0
  5 26  1  0  0  0  0
  6 18  1  0  0  0  0
  6  8  2  0  0  0  0
  7 15  2  0  0  0  0
  8  9  1  0  0  0  0
 10  7  1  0  0  0  0
 10  4  1  0  0  0  0
 11  2  2  0  0  0  0
 11 16  1  0  0  0  0
 13  9  1  0  0  0  0
 13 12  1  0  0  0  0
 14  6  1  0  0  0  0
 15  1  1  0  0  0  0
 16  5  2  0  0  0  0
 17  8  1  0  0  0  0
 18 13  2  0  0  0  0
 19 11  1  0  0  0  0
 20 21  2  0  0  0  0
 21 19  1  0  0  0  0
 22 21  1  0  0  0  0
 23 25  2  0  0  0  0
 25 22  1  0  0  0  0
 25 24  1  0  0  0  0
 26 27  1  0  0  0  0
 27 33  1  0  0  0  0
 28 32  1  0  0  0  0
 29 30  2  0  0  0  0
 30 31  1  0  0  0  0
 31 34  1  0  0  0  0
 32 31  2  0  0  0  0
 33 29  1  0  0  0  0
 33 28  2  0  0  0  0
 35 34  1  0  0  0  0
 35 36  1  0  0  0  0
M  END
>  <MODEL>
9

>  <REMARK>
 VINA RESULT:      -6.4      4.274      6.278
  Name = 
  8 active torsions:
  status: ('A' for Active; 'I' for Inactive)
    1  A    between atoms: C_7  and  O_22
    2  A    between atoms: N_13  and  C_14
    3  A    between atoms: C_16  and  C_31
    4  A    between atoms: C_19  and  C_31
    5  A    between atoms: O_22  and  C_34
    6  A    between atoms: C_23  and  C_36
    7  A    between atoms: C_29  and  C_36
    8  A    between atoms: C_33  and  C_34
                            x       y       z     vdW  Elec       q    Type
                         _______ _______ _______ _____ _____    ______ ____

>  <TORSDO>
F 8

$$$$
