=
 OpenBabel11042413453D

 30 33  0  0  1  0  0  0  0  0999 V2000
  194.5630  175.6400  143.1720 C   0  0  0  0  0  2  0  0  0  0  0  0
  192.1110  175.4490  143.2820 N   0  0  0  0  0  0  0  0  0  0  0  0
  193.2740  175.7040  143.9330 C   0  0  0  0  0  0  0  0  0  0  0  0
  194.4830  176.2560  146.0840 C   0  0  0  0  0  2  0  0  0  0  0  0
  192.0330  176.0770  145.9300 N   0  0  0  0  0  0  0  0  0  0  0  0
  195.2780  175.0360  146.1330 N   0  0  0  0  0  2  0  0  0  0  0  0
  190.8580  175.8490  145.2810 C   0  0  0  0  0  0  0  0  0  0  0  0
  196.1900  175.0420  144.9930 C   0  0  2  0  0  3  0  0  0  0  0  0
  190.9020  175.4990  143.9060 C   0  0  0  0  0  0  0  0  0  0  0  0
  193.2330  176.0160  145.3000 C   0  0  0  0  0  0  0  0  0  0  0  0
  195.4870  174.5620  143.7240 C   0  0  0  0  0  2  0  0  0  0  0  0
  189.7020  175.1080  143.1330 C   0  0  0  0  0  0  0  0  0  0  0  0
  188.2380  173.3600  142.3160 C   0  0  0  0  0  3  0  0  0  0  0  0
  187.8200  175.6050  141.6700 C   0  0  0  0  0  0  0  0  0  0  0  0
  189.2250  177.4200  142.4350 C   0  0  0  0  0  3  0  0  0  0  0  0
  187.5050  174.2830  141.6410 N   0  0  0  0  0  0  0  0  0  0  0  0
  187.3420  177.8290  140.9900 C   0  0  0  0  0  3  0  0  0  0  0  0
  189.3460  173.7550  143.0670 C   0  0  0  0  0  3  0  0  0  0  0  0
  187.0610  176.4980  140.9820 N   0  0  0  0  0  0  0  0  0  0  0  0
  188.9350  176.0490  142.4170 C   0  0  0  0  0  0  0  0  0  0  0  0
  188.4290  178.3140  141.7190 C   0  0  0  0  0  3  0  0  0  0  0  0
  189.6050  176.0110  146.0520 C   0  0  0  0  0  0  0  0  0  0  0  0
  188.9760  177.1980  146.0480 C   0  0  0  0  0  3  0  0  0  0  0  0
  189.1690  174.9000  146.8530 N   0  0  0  0  0  2  0  0  0  0  0  0
  189.3160  173.7080  146.5130 O   0  0  0  0  0  1  0  0  0  0  0  0
  187.7520  177.5420  146.8320 C   0  0  0  0  0  2  0  0  0  0  0  0
  186.6320  178.1300  145.0250 C   0  0  0  0  0  1  0  0  0  0  0  0
  186.6130  177.2310  146.0890 O   0  0  0  0  0  0  0  0  0  0  0  0
  197.3990  174.1660  145.2910 C   0  0  0  0  0  2  0  0  0  0  0  0
  197.1920  173.4110  146.4490 O   0  0  0  0  0  1  0  0  0  0  0  0
  1 11  1  0  0  0  0
  1  3  1  0  0  0  0
  2  9  2  0  0  0  0
  2  3  1  0  0  0  0
  3 10  2  0  0  0  0
  4  6  1  0  0  0  0
  7  5  2  0  0  0  0
  7 22  1  0  0  0  0
  8 29  1  1  0  0  0
  8  6  1  0  0  0  0
  9  7  1  0  0  0  0
 10  5  1  0  0  0  0
 10  4  1  0  0  0  0
 11  8  1  0  0  0  0
 12  9  1  0  0  0  0
 13 18  2  0  0  0  0
 14 20  1  0  0  0  0
 16 14  2  0  0  0  0
 16 13  1  0  0  0  0
 17 21  1  0  0  0  0
 18 12  1  0  0  0  0
 19 17  2  0  0  0  0
 19 14  1  0  0  0  0
 20 15  1  0  0  0  0
 20 12  2  0  0  0  0
 21 15  2  0  0  0  0
 22 24  1  0  0  0  0
 23 22  2  0  0  0  0
 23 26  1  0  0  0  0
 25 24  1  0  0  0  0
 27 28  1  0  0  0  0
 28 26  1  0  0  0  0
 29 30  1  0  0  0  0
M  END
>  <MODEL>
1

>  <REMARK>
 VINA RESULT:      -6.5      0.000      0.000
  Name = 
  6 active torsions:
  status: ('A' for Active; 'I' for Inactive)
    1  A    between atoms: C_1  and  C_23
    2  A    between atoms: C_2  and  N_13
    3  A    between atoms: C_2  and  C_19
    4  A    between atoms: O_9  and  C_27
    5  A    between atoms: C_12  and  C_27
    6  A    between atoms: C_14  and  CA_21
                            x       y       z     vdW  Elec       q    Type
                         _______ _______ _______ _____ _____    ______ ____

>  <TORSDO>
F 6

$$$$
=
 OpenBabel11042413453D

 30 33  0  0  1  0  0  0  0  0999 V2000
  194.6540  176.2130  143.4650 C   0  0  0  0  0  2  0  0  0  0  0  0
  192.1940  176.2020  143.3810 N   0  0  0  0  0  0  0  0  0  0  0  0
  193.3180  176.1890  144.1420 C   0  0  0  0  0  0  0  0  0  0  0  0
  194.3930  176.0820  146.4270 C   0  0  0  0  0  2  0  0  0  0  0  0
  191.9550  176.1480  146.0920 N   0  0  0  0  0  0  0  0  0  0  0  0
  195.1010  174.8280  146.2080 N   0  0  0  0  0  2  0  0  0  0  0  0
  190.8210  176.1880  145.3400 C   0  0  0  0  0  0  0  0  0  0  0  0
  196.0970  175.0450  145.1620 C   0  0  2  0  0  3  0  0  0  0  0  0
  190.9470  176.1920  143.9270 C   0  0  0  0  0  0  0  0  0  0  0  0
  193.1940  176.1500  145.5380 C   0  0  0  0  0  0  0  0  0  0  0  0
  195.4620  174.9590  143.7750 C   0  0  0  0  0  2  0  0  0  0  0  0
  189.7870  176.1070  143.0110 C   0  0  0  0  0  0  0  0  0  0  0  0
  188.1260  177.2330  141.6540 C   0  0  0  0  0  3  0  0  0  0  0  0
  188.0550  174.8680  141.8310 C   0  0  0  0  0  0  0  0  0  0  0  0
  189.6710  173.6530  143.1600 C   0  0  0  0  0  3  0  0  0  0  0  0
  187.5630  176.0360  141.3440 N   0  0  0  0  0  0  0  0  0  0  0  0
  187.9300  172.5000  141.9590 C   0  0  0  0  0  3  0  0  0  0  0  0
  189.2400  177.2880  142.4930 C   0  0  0  0  0  3  0  0  0  0  0  0
  187.4640  173.6900  141.4960 N   0  0  0  0  0  0  0  0  0  0  0  0
  189.1820  174.8760  142.6850 C   0  0  0  0  0  0  0  0  0  0  0  0
  189.0440  172.4600  142.8000 C   0  0  0  0  0  3  0  0  0  0  0  0
  189.5250  176.2520  146.0540 C   0  0  0  0  0  0  0  0  0  0  0  0
  188.9760  177.4500  146.3180 C   0  0  0  0  0  3  0  0  0  0  0  0
  188.9600  175.0150  146.5180 N   0  0  0  0  0  2  0  0  0  0  0  0
  189.1650  174.5490  147.6570 O   0  0  0  0  0  1  0  0  0  0  0  0
  187.7210  177.6840  147.0910 C   0  0  0  0  0  2  0  0  0  0  0  0
  185.6620  176.9610  146.7670 C   0  0  0  0  0  1  0  0  0  0  0  0
  186.6390  177.7880  146.2160 O   0  0  0  0  0  0  0  0  0  0  0  0
  197.2200  174.0270  145.2950 C   0  0  0  0  0  2  0  0  0  0  0  0
  197.1150  173.3260  146.5000 O   0  0  0  0  0  1  0  0  0  0  0  0
  1 11  1  0  0  0  0
  1  3  1  0  0  0  0
  2  9  2  0  0  0  0
  2  3  1  0  0  0  0
  3 10  2  0  0  0  0
  6  4  1  0  0  0  0
  7 22  1  0  0  0  0
  7  5  2  0  0  0  0
  8 29  1  6  0  0  0
  8  6  1  0  0  0  0
  9  7  1  0  0  0  0
 10  5  1  0  0  0  0
 10  4  1  0  0  0  0
 11  8  1  0  0  0  0
 12  9  1  0  0  0  0
 13 18  2  0  0  0  0
 14 20  1  0  0  0  0
 16 13  1  0  0  0  0
 16 14  2  0  0  0  0
 17 21  1  0  0  0  0
 18 12  1  0  0  0  0
 19 14  1  0  0  0  0
 19 17  2  0  0  0  0
 20 12  2  0  0  0  0
 20 15  1  0  0  0  0
 21 15  2  0  0  0  0
 22 23  2  0  0  0  0
 22 24  1  0  0  0  0
 23 26  1  0  0  0  0
 24 25  1  0  0  0  0
 28 27  1  0  0  0  0
 28 26  1  0  0  0  0
 29 30  1  0  0  0  0
M  END
>  <MODEL>
2

>  <REMARK>
 VINA RESULT:      -6.4      0.767      2.113
  Name = 
  6 active torsions:
  status: ('A' for Active; 'I' for Inactive)
    1  A    between atoms: C_1  and  C_23
    2  A    between atoms: C_2  and  N_13
    3  A    between atoms: C_2  and  C_19
    4  A    between atoms: O_9  and  C_27
    5  A    between atoms: C_12  and  C_27
    6  A    between atoms: C_14  and  CA_21
                            x       y       z     vdW  Elec       q    Type
                         _______ _______ _______ _____ _____    ______ ____

>  <TORSDO>
F 6

$$$$
=
 OpenBabel11042413453D

 30 33  0  0  1  0  0  0  0  0999 V2000
  190.0650  171.4410  141.6560 C   0  0  0  0  0  2  0  0  0  0  0  0
  190.0290  173.2210  143.3570 N   0  0  0  0  0  0  0  0  0  0  0  0
  189.6460  172.8010  142.1240 C   0  0  0  0  0  0  0  0  0  0  0  0
  188.4640  173.2710  139.9400 C   0  0  0  0  0  2  0  0  0  0  0  0
  188.5090  174.8690  141.8120 N   0  0  0  0  0  0  0  0  0  0  0  0
  189.6440  173.1430  139.0940 N   0  0  0  0  0  2  0  0  0  0  0  0
  188.8650  175.2890  143.0570 C   0  0  0  0  0  0  0  0  0  0  0  0
  190.1030  171.7580  139.1630 C   0  0  2  0  0  3  0  0  0  0  0  0
  189.6760  174.4390  143.8520 C   0  0  0  0  0  0  0  0  0  0  0  0
  188.8730  173.6550  141.3250 C   0  0  0  0  0  0  0  0  0  0  0  0
  190.9450  171.5220  140.4150 C   0  0  0  0  0  2  0  0  0  0  0  0
  190.2260  174.8430  145.1660 C   0  0  0  0  0  0  0  0  0  0  0  0
  189.9590  175.0040  147.5680 C   0  0  0  0  0  3  0  0  0  0  0  0
  191.9140  175.9000  146.5660 C   0  0  0  0  0  0  0  0  0  0  0  0
  192.2730  175.7870  144.1750 C   0  0  0  0  0  3  0  0  0  0  0  0
  191.1570  175.6370  147.6620 N   0  0  0  0  0  0  0  0  0  0  0  0
  193.8970  176.8110  145.6300 C   0  0  0  0  0  3  0  0  0  0  0  0
  189.4740  174.6010  146.3220 C   0  0  0  0  0  3  0  0  0  0  0  0
  193.1080  176.5350  146.7020 N   0  0  0  0  0  0  0  0  0  0  0  0
  191.4620  175.5110  145.2840 C   0  0  0  0  0  0  0  0  0  0  0  0
  193.4930  176.4410  144.3460 C   0  0  0  0  0  3  0  0  0  0  0  0
  188.3530  176.6030  143.5100 C   0  0  0  0  0  0  0  0  0  0  0  0
  187.1960  176.6620  144.1900 C   0  0  0  0  0  3  0  0  0  0  0  0
  189.0840  177.7740  143.1110 N   0  0  0  0  0  2  0  0  0  0  0  0
  189.0010  178.2820  141.9740 O   0  0  0  0  0  1  0  0  0  0  0  0
  186.5120  177.9080  144.6460 C   0  0  0  0  0  2  0  0  0  0  0  0
  185.5470  179.7700  143.9630 C   0  0  0  0  0  1  0  0  0  0  0  0
  185.7520  178.4390  143.6040 O   0  0  0  0  0  0  0  0  0  0  0  0
  190.9040  171.4150  137.9140 C   0  0  0  0  0  2  0  0  0  0  0  0
  190.0540  171.1050  136.8490 O   0  0  0  0  0  1  0  0  0  0  0  0
  1  3  1  0  0  0  0
  2  9  1  0  0  0  0
  3  2  2  0  0  0  0
  4 10  1  0  0  0  0
  5  7  1  0  0  0  0
  6  8  1  0  0  0  0
  6  4  1  0  0  0  0
  7 22  1  0  0  0  0
  7  9  2  0  0  0  0
  8 29  1  6  0  0  0
  8 11  1  0  0  0  0
  9 12  1  0  0  0  0
 10  5  2  0  0  0  0
 10  3  1  0  0  0  0
 11  1  1  0  0  0  0
 12 20  2  0  0  0  0
 12 18  1  0  0  0  0
 13 16  1  0  0  0  0
 14 19  1  0  0  0  0
 14 16  2  0  0  0  0
 15 21  2  0  0  0  0
 15 20  1  0  0  0  0
 17 19  2  0  0  0  0
 18 13  2  0  0  0  0
 20 14  1  0  0  0  0
 21 17  1  0  0  0  0
 22 23  2  0  0  0  0
 23 26  1  0  0  0  0
 24 22  1  0  0  0  0
 25 24  1  0  0  0  0
 28 27  1  0  0  0  0
 28 26  1  0  0  0  0
 30 29  1  0  0  0  0
M  END
>  <MODEL>
3

>  <REMARK>
 VINA RESULT:      -6.2      3.037      6.168
  Name = 
  6 active torsions:
  status: ('A' for Active; 'I' for Inactive)
    1  A    between atoms: C_1  and  C_23
    2  A    between atoms: C_2  and  N_13
    3  A    between atoms: C_2  and  C_19
    4  A    between atoms: O_9  and  C_27
    5  A    between atoms: C_12  and  C_27
    6  A    between atoms: C_14  and  CA_21
                            x       y       z     vdW  Elec       q    Type
                         _______ _______ _______ _____ _____    ______ ____

>  <TORSDO>
F 6

$$$$
=
 OpenBabel11042413453D

 30 33  0  0  1  0  0  0  0  0999 V2000
  189.6950  176.0310  147.0810 C   0  0  0  0  0  2  0  0  0  0  0  0
  191.3470  174.7390  145.7930 N   0  0  0  0  0  0  0  0  0  0  0  0
  190.5190  175.8120  145.8490 C   0  0  0  0  0  0  0  0  0  0  0  0
  189.5260  177.8500  144.7300 C   0  0  0  0  0  2  0  0  0  0  0  0
  191.2410  176.4390  143.6690 N   0  0  0  0  0  0  0  0  0  0  0  0
  188.1450  177.3840  144.7550 N   0  0  0  0  0  2  0  0  0  0  0  0
  192.0950  175.3810  143.6130 C   0  0  0  0  0  0  0  0  0  0  0  0
  187.7240  177.2850  146.1490 C   0  0  2  0  0  3  0  0  0  0  0  0
  192.1330  174.4830  144.7110 C   0  0  0  0  0  0  0  0  0  0  0  0
  190.4560  176.6810  144.7500 C   0  0  0  0  0  0  0  0  0  0  0  0
  188.2030  175.9760  146.7750 C   0  0  0  0  0  2  0  0  0  0  0  0
  192.9270  173.2330  144.7070 C   0  0  0  0  0  0  0  0  0  0  0  0
  193.0400  170.8460  144.3100 C   0  0  0  0  0  3  0  0  0  0  0  0
  194.9530  171.9630  145.1620 C   0  0  0  0  0  0  0  0  0  0  0  0
  194.9390  174.3440  145.5900 C   0  0  0  0  0  3  0  0  0  0  0  0
  194.3290  170.8320  144.7400 N   0  0  0  0  0  0  0  0  0  0  0  0
  196.9050  173.0170  146.0090 C   0  0  0  0  0  3  0  0  0  0  0  0
  192.3190  172.0420  144.2900 C   0  0  0  0  0  3  0  0  0  0  0  0
  196.2440  171.9070  145.5840 N   0  0  0  0  0  0  0  0  0  0  0  0
  194.2610  173.1950  145.1600 C   0  0  0  0  0  0  0  0  0  0  0  0
  196.2640  174.2570  146.0180 C   0  0  0  0  0  3  0  0  0  0  0  0
  192.9540  175.2550  142.4130 C   0  0  0  0  0  0  0  0  0  0  0  0
  194.0800  175.9840  142.3270 C   0  0  0  0  0  3  0  0  0  0  0  0
  192.4840  174.4160  141.3450 N   0  0  0  0  0  2  0  0  0  0  0  0
  191.3310  173.9410  141.3010 O   0  0  0  0  0  1  0  0  0  0  0  0
  195.0060  176.0270  141.1580 C   0  0  0  0  0  2  0  0  0  0  0  0
  196.5140  176.6020  142.6620 C   0  0  0  0  0  1  0  0  0  0  0  0
  196.0310  176.9420  141.3990 O   0  0  0  0  0  0  0  0  0  0  0  0
  186.2090  177.3920  146.2420 C   0  0  0  0  0  2  0  0  0  0  0  0
  185.8350  178.3190  147.2180 O   0  0  0  0  0  1  0  0  0  0  0  0
  2  3  1  0  0  0  0
  3  1  1  0  0  0  0
  4 10  1  0  0  0  0
  4  6  1  0  0  0  0
  5 10  1  0  0  0  0
  6  8  1  0  0  0  0
  7  5  2  0  0  0  0
  7  9  1  0  0  0  0
  8 29  1  6  0  0  0
  8 11  1  0  0  0  0
  9  2  2  0  0  0  0
 10  3  2  0  0  0  0
 11  1  1  0  0  0  0
 12  9  1  0  0  0  0
 12 20  2  0  0  0  0
 13 16  1  0  0  0  0
 14 19  1  0  0  0  0
 15 21  2  0  0  0  0
 16 14  2  0  0  0  0
 17 21  1  0  0  0  0
 18 13  2  0  0  0  0
 18 12  1  0  0  0  0
 19 17  2  0  0  0  0
 20 14  1  0  0  0  0
 20 15  1  0  0  0  0
 22  7  1  0  0  0  0
 23 22  2  0  0  0  0
 24 22  1  0  0  0  0
 25 24  1  0  0  0  0
 26 28  1  0  0  0  0
 26 23  1  0  0  0  0
 28 27  1  0  0  0  0
 29 30  1  0  0  0  0
M  END
>  <MODEL>
4

>  <REMARK>
 VINA RESULT:      -6.1      2.904      7.547
  Name = 
  6 active torsions:
  status: ('A' for Active; 'I' for Inactive)
    1  A    between atoms: C_1  and  C_23
    2  A    between atoms: C_2  and  N_13
    3  A    between atoms: C_2  and  C_19
    4  A    between atoms: O_9  and  C_27
    5  A    between atoms: C_12  and  C_27
    6  A    between atoms: C_14  and  CA_21
                            x       y       z     vdW  Elec       q    Type
                         _______ _______ _______ _____ _____    ______ ____

>  <TORSDO>
F 6

$$$$
=
 OpenBabel11042413453D

 30 33  0  0  1  0  0  0  0  0999 V2000
  194.4430  175.9270  145.5620 C   0  0  0  0  0  2  0  0  0  0  0  0
  192.0090  175.7180  145.2590 N   0  0  0  0  0  0  0  0  0  0  0  0
  193.2490  175.2540  144.9580 C   0  0  0  0  0  0  0  0  0  0  0  0
  194.7120  173.6390  143.6760 C   0  0  0  0  0  2  0  0  0  0  0  0
  192.2520  173.5840  143.5860 N   0  0  0  0  0  0  0  0  0  0  0  0
  195.4230  174.6510  142.9060 N   0  0  0  0  0  2  0  0  0  0  0  0
  191.0040  174.0240  143.9020 C   0  0  0  0  0  0  0  0  0  0  0  0
  196.2100  175.4590  143.8350 C   0  0  2  0  0  3  0  0  0  0  0  0
  190.8790  175.1500  144.7560 C   0  0  0  0  0  0  0  0  0  0  0  0
  193.3730  174.1620  144.0870 C   0  0  0  0  0  0  0  0  0  0  0  0
  195.3460  176.5330  144.4940 C   0  0  0  0  0  2  0  0  0  0  0  0
  189.5810  175.7910  145.0650 C   0  0  0  0  0  0  0  0  0  0  0  0
  187.7000  176.0500  146.5690 C   0  0  0  0  0  3  0  0  0  0  0  0
  187.6880  177.2150  144.5020 C   0  0  0  0  0  0  0  0  0  0  0  0
  189.5210  177.0220  142.9340 C   0  0  0  0  0  3  0  0  0  0  0  0
  187.1060  176.8960  145.6880 N   0  0  0  0  0  0  0  0  0  0  0  0
  187.6150  178.4140  142.4540 C   0  0  0  0  0  3  0  0  0  0  0  0
  188.9400  175.4830  146.2720 C   0  0  0  0  0  3  0  0  0  0  0  0
  187.0620  178.0660  143.6470 N   0  0  0  0  0  0  0  0  0  0  0  0
  188.9440  176.6630  144.1590 C   0  0  0  0  0  0  0  0  0  0  0  0
  188.8560  177.8980  142.0760 C   0  0  0  0  0  3  0  0  0  0  0  0
  189.8520  173.2730  143.3520 C   0  0  0  0  0  0  0  0  0  0  0  0
  189.3280  173.6400  142.1710 C   0  0  0  0  0  3  0  0  0  0  0  0
  189.2860  172.2340  144.1680 N   0  0  0  0  0  2  0  0  0  0  0  0
  189.5430  172.0950  145.3810 O   0  0  0  0  0  1  0  0  0  0  0  0
  188.1260  173.0370  141.5230 C   0  0  0  0  0  2  0  0  0  0  0  0
  188.4750  174.1240  139.6360 C   0  0  0  0  0  1  0  0  0  0  0  0
  188.3700  172.8390  140.1630 O   0  0  0  0  0  0  0  0  0  0  0  0
  197.3810  176.0970  143.1020 C   0  0  0  0  0  2  0  0  0  0  0  0
  197.0610  176.3320  141.7620 O   0  0  0  0  0  1  0  0  0  0  0  0
  3  2  1  0  0  0  0
  3  1  1  0  0  0  0
  4 10  1  0  0  0  0
  5  7  2  0  0  0  0
  5 10  1  0  0  0  0
  6  4  1  0  0  0  0
  6  8  1  0  0  0  0
  7  9  1  0  0  0  0
  8 29  1  6  0  0  0
  8 11  1  0  0  0  0
  9 12  1  0  0  0  0
  9  2  2  0  0  0  0
 10  3  2  0  0  0  0
 11  1  1  0  0  0  0
 12 18  1  0  0  0  0
 14 16  2  0  0  0  0
 15 20  1  0  0  0  0
 16 13  1  0  0  0  0
 17 19  2  0  0  0  0
 18 13  2  0  0  0  0
 19 14  1  0  0  0  0
 20 14  1  0  0  0  0
 20 12  2  0  0  0  0
 21 17  1  0  0  0  0
 21 15  2  0  0  0  0
 22  7  1  0  0  0  0
 22 24  1  0  0  0  0
 23 22  2  0  0  0  0
 24 25  1  0  0  0  0
 26 23  1  0  0  0  0
 27 28  1  0  0  0  0
 28 26  1  0  0  0  0
 30 29  1  0  0  0  0
M  END
>  <MODEL>
5

>  <REMARK>
 VINA RESULT:      -6.1      2.334      3.703
  Name = 
  6 active torsions:
  status: ('A' for Active; 'I' for Inactive)
    1  A    between atoms: C_1  and  C_23
    2  A    between atoms: C_2  and  N_13
    3  A    between atoms: C_2  and  C_19
    4  A    between atoms: O_9  and  C_27
    5  A    between atoms: C_12  and  C_27
    6  A    between atoms: C_14  and  CA_21
                            x       y       z     vdW  Elec       q    Type
                         _______ _______ _______ _____ _____    ______ ____

>  <TORSDO>
F 6

$$$$
=
 OpenBabel11042413453D

 30 33  0  0  1  0  0  0  0  0999 V2000
  190.7200  176.4430  147.2060 C   0  0  0  0  0  2  0  0  0  0  0  0
  192.6900  175.3570  146.2060 N   0  0  0  0  0  0  0  0  0  0  0  0
  191.6420  176.2060  146.0500 C   0  0  0  0  0  0  0  0  0  0  0  0
  190.2900  177.7360  144.5600 C   0  0  0  0  0  2  0  0  0  0  0  0
  192.3330  176.5900  143.8050 N   0  0  0  0  0  0  0  0  0  0  0  0
  189.0480  176.9790  144.6460 N   0  0  0  0  0  2  0  0  0  0  0  0
  193.4020  175.7620  143.9580 C   0  0  0  0  0  0  0  0  0  0  0  0
  188.5790  177.0310  146.0280 C   0  0  2  0  0  3  0  0  0  0  0  0
  193.5740  175.1020  145.2030 C   0  0  0  0  0  0  0  0  0  0  0  0
  191.4530  176.8320  144.8090 C   0  0  0  0  0  0  0  0  0  0  0  0
  189.2980  175.9960  146.8910 C   0  0  0  0  0  2  0  0  0  0  0  0
  194.6240  174.0850  145.4420 C   0  0  0  0  0  0  0  0  0  0  0  0
  196.8830  173.5590  146.1390 C   0  0  0  0  0  3  0  0  0  0  0  0
  195.4830  171.8090  145.3560 C   0  0  0  0  0  0  0  0  0  0  0  0
  193.2120  172.2350  144.6380 C   0  0  0  0  0  3  0  0  0  0  0  0
  196.6710  172.2490  145.8480 N   0  0  0  0  0  0  0  0  0  0  0  0
  194.1360  170.0110  144.5890 C   0  0  0  0  0  3  0  0  0  0  0  0
  195.8670  174.4960  145.9380 C   0  0  0  0  0  3  0  0  0  0  0  0
  195.3110  170.4900  145.0770 N   0  0  0  0  0  0  0  0  0  0  0  0
  194.4280  172.7240  145.1350 C   0  0  0  0  0  0  0  0  0  0  0  0
  193.0640  170.8760  144.3610 C   0  0  0  0  0  3  0  0  0  0  0  0
  194.3360  175.6270  142.8160 C   0  0  0  0  0  0  0  0  0  0  0  0
  195.4210  176.4160  142.7540 C   0  0  0  0  0  3  0  0  0  0  0  0
  193.9770  174.7090  141.7700 N   0  0  0  0  0  2  0  0  0  0  0  0
  194.4510  173.5590  141.6720 O   0  0  0  0  0  1  0  0  0  0  0  0
  196.4110  176.4550  141.6380 C   0  0  0  0  0  2  0  0  0  0  0  0
  197.9360  175.9020  143.1320 C   0  0  0  0  0  1  0  0  0  0  0  0
  197.4360  175.5410  141.8820 O   0  0  0  0  0  0  0  0  0  0  0  0
  187.0740  176.8050  146.0740 C   0  0  0  0  0  2  0  0  0  0  0  0
  186.5780  177.0190  147.3630 O   0  0  0  0  0  1  0  0  0  0  0  0
  3  2  1  0  0  0  0
  3  1  1  0  0  0  0
  4  6  1  0  0  0  0
  4 10  1  0  0  0  0
  5  7  2  0  0  0  0
  5 10  1  0  0  0  0
  6  8  1  0  0  0  0
  7  9  1  0  0  0  0
  8 29  1  6  0  0  0
  8 11  1  0  0  0  0
  9 12  1  0  0  0  0
  9  2  2  0  0  0  0
 10  3  2  0  0  0  0
 11  1  1  0  0  0  0
 12 18  1  0  0  0  0
 14 16  2  0  0  0  0
 15 20  1  0  0  0  0
 16 13  1  0  0  0  0
 17 19  2  0  0  0  0
 18 13  2  0  0  0  0
 19 14  1  0  0  0  0
 20 14  1  0  0  0  0
 20 12  2  0  0  0  0
 21 17  1  0  0  0  0
 21 15  2  0  0  0  0
 22  7  1  0  0  0  0
 23 22  2  0  0  0  0
 24 22  1  0  0  0  0
 25 24  1  0  0  0  0
 26 28  1  0  0  0  0
 26 23  1  0  0  0  0
 28 27  1  0  0  0  0
 29 30  1  0  0  0  0
M  END
>  <MODEL>
6

>  <REMARK>
 VINA RESULT:      -6.0      2.838      7.836
  Name = 
  6 active torsions:
  status: ('A' for Active; 'I' for Inactive)
    1  A    between atoms: C_1  and  C_23
    2  A    between atoms: C_2  and  N_13
    3  A    between atoms: C_2  and  C_19
    4  A    between atoms: O_9  and  C_27
    5  A    between atoms: C_12  and  C_27
    6  A    between atoms: C_14  and  CA_21
                            x       y       z     vdW  Elec       q    Type
                         _______ _______ _______ _____ _____    ______ ____

>  <TORSDO>
F 6

$$$$
=
 OpenBabel11042413453D

 30 33  0  0  1  0  0  0  0  0999 V2000
  186.7580  178.9800  142.8400 C   0  0  0  0  0  2  0  0  0  0  0  0
  188.2970  177.3830  143.9080 N   0  0  0  0  0  0  0  0  0  0  0  0
  187.6220  177.7570  142.7920 C   0  0  0  0  0  0  0  0  0  0  0  0
  186.9930  177.3150  140.3830 C   0  0  0  0  0  2  0  0  0  0  0  0
  188.5630  175.8970  141.6420 N   0  0  0  0  0  0  0  0  0  0  0  0
  185.5630  177.1670  140.6200 N   0  0  0  0  0  2  0  0  0  0  0  0
  189.2660  175.5290  142.7480 C   0  0  0  0  0  0  0  0  0  0  0  0
  185.0430  178.4520  141.0790 C   0  0  2  0  0  3  0  0  0  0  0  0
  189.1080  176.2900  143.9350 C   0  0  0  0  0  0  0  0  0  0  0  0
  187.7510  176.9850  141.6280 C   0  0  0  0  0  0  0  0  0  0  0  0
  185.2960  178.6450  142.5730 C   0  0  0  0  0  2  0  0  0  0  0  0
  189.7210  175.9100  145.2280 C   0  0  0  0  0  0  0  0  0  0  0  0
  189.4860  174.9180  147.4250 C   0  0  0  0  0  3  0  0  0  0  0  0
  191.5710  175.8690  146.8100 C   0  0  0  0  0  0  0  0  0  0  0  0
  191.9040  176.8820  144.6380 C   0  0  0  0  0  3  0  0  0  0  0  0
  190.7780  175.2280  147.7070 N   0  0  0  0  0  0  0  0  0  0  0  0
  193.6860  176.7970  146.2570 C   0  0  0  0  0  3  0  0  0  0  0  0
  188.9370  175.2560  146.1870 C   0  0  0  0  0  3  0  0  0  0  0  0
  192.8600  176.1610  147.1300 N   0  0  0  0  0  0  0  0  0  0  0  0
  191.0560  176.2320  145.5440 C   0  0  0  0  0  0  0  0  0  0  0  0
  193.2220  177.1690  144.9940 C   0  0  0  0  0  3  0  0  0  0  0  0
  190.1750  174.3660  142.6280 C   0  0  0  0  0  0  0  0  0  0  0  0
  191.4010  174.5380  142.1060 C   0  0  0  0  0  3  0  0  0  0  0  0
  189.6570  173.0770  142.9950 N   0  0  0  0  0  2  0  0  0  0  0  0
  189.8670  172.5410  144.1020 O   0  0  0  0  0  1  0  0  0  0  0  0
  192.4000  173.4590  141.8480 C   0  0  0  0  0  2  0  0  0  0  0  0
  193.6150  173.5580  143.6870 C   0  0  0  0  0  1  0  0  0  0  0  0
  193.6520  173.8500  142.3250 O   0  0  0  0  0  0  0  0  0  0  0  0
  183.5540  178.5460  140.7770 C   0  0  0  0  0  2  0  0  0  0  0  0
  182.7970  178.1170  141.8720 O   0  0  0  0  0  1  0  0  0  0  0  0
  2  9  1  0  0  0  0
  3  1  1  0  0  0  0
  3  2  2  0  0  0  0
  4  6  1  0  0  0  0
  4 10  1  0  0  0  0
  5  7  1  0  0  0  0
  6  8  1  0  0  0  0
  7  9  2  0  0  0  0
  8 29  1  1  0  0  0
  8 11  1  0  0  0  0
  9 12  1  0  0  0  0
 10  5  2  0  0  0  0
 10  3  1  0  0  0  0
 11  1  1  0  0  0  0
 12 20  2  0  0  0  0
 12 18  1  0  0  0  0
 13 16  1  0  0  0  0
 14 19  1  0  0  0  0
 14 16  2  0  0  0  0
 15 21  2  0  0  0  0
 15 20  1  0  0  0  0
 17 19  2  0  0  0  0
 18 13  2  0  0  0  0
 20 14  1  0  0  0  0
 21 17  1  0  0  0  0
 22  7  1  0  0  0  0
 22 24  1  0  0  0  0
 23 22  2  0  0  0  0
 24 25  1  0  0  0  0
 26 23  1  0  0  0  0
 26 28  1  0  0  0  0
 28 27  1  0  0  0  0
 29 30  1  0  0  0  0
M  END
>  <MODEL>
7

>  <REMARK>
 VINA RESULT:      -6.0      2.450      7.761
  Name = 
  6 active torsions:
  status: ('A' for Active; 'I' for Inactive)
    1  A    between atoms: C_1  and  C_23
    2  A    between atoms: C_2  and  N_13
    3  A    between atoms: C_2  and  C_19
    4  A    between atoms: O_9  and  C_27
    5  A    between atoms: C_12  and  C_27
    6  A    between atoms: C_14  and  CA_21
                            x       y       z     vdW  Elec       q    Type
                         _______ _______ _______ _____ _____    ______ ____

>  <TORSDO>
F 6

$$$$
=
 OpenBabel11042413453D

 30 33  0  0  1  0  0  0  0  0999 V2000
  188.6830  178.2850  142.0200 C   0  0  0  0  0  2  0  0  0  0  0  0
  190.4650  177.0560  143.1930 N   0  0  0  0  0  0  0  0  0  0  0  0
  189.2850  177.0090  142.5220 C   0  0  0  0  0  0  0  0  0  0  0  0
  187.3420  175.6540  141.6390 C   0  0  0  0  0  2  0  0  0  0  0  0
  189.2700  174.6430  142.7880 N   0  0  0  0  0  0  0  0  0  0  0  0
  186.3160  176.3180  142.4340 N   0  0  0  0  0  2  0  0  0  0  0  0
  190.4650  174.6760  143.4380 C   0  0  0  0  0  0  0  0  0  0  0  0
  186.2350  177.7100  142.0000 C   0  0  2  0  0  3  0  0  0  0  0  0
  191.0750  175.9370  143.6690 C   0  0  0  0  0  0  0  0  0  0  0  0
  188.6660  175.7660  142.3240 C   0  0  0  0  0  0  0  0  0  0  0  0
  187.3260  178.5540  142.6580 C   0  0  0  0  0  2  0  0  0  0  0  0
  192.3070  176.1040  144.4730 C   0  0  0  0  0  0  0  0  0  0  0  0
  193.3450  176.4370  146.6360 C   0  0  0  0  0  3  0  0  0  0  0  0
  194.7160  176.3730  144.7000 C   0  0  0  0  0  0  0  0  0  0  0  0
  193.7730  176.0450  142.4960 C   0  0  0  0  0  3  0  0  0  0  0  0
  194.5670  176.4950  146.0450 N   0  0  0  0  0  0  0  0  0  0  0  0
  196.1470  176.3150  142.8060 C   0  0  0  0  0  3  0  0  0  0  0  0
  192.1990  176.2440  145.8630 C   0  0  0  0  0  3  0  0  0  0  0  0
  195.9560  176.4370  144.1470 N   0  0  0  0  0  0  0  0  0  0  0  0
  193.5830  176.1790  143.8780 C   0  0  0  0  0  0  0  0  0  0  0  0
  195.0570  176.1150  141.9560 C   0  0  0  0  0  3  0  0  0  0  0  0
  191.0650  173.3830  143.8380 C   0  0  0  0  0  0  0  0  0  0  0  0
  192.0010  172.8190  143.0560 C   0  0  0  0  0  3  0  0  0  0  0  0
  190.5410  172.7420  145.0130 N   0  0  0  0  0  2  0  0  0  0  0  0
  189.5070  172.0420  145.0110 O   0  0  0  0  0  1  0  0  0  0  0  0
  192.6420  171.4900  143.2790 C   0  0  0  0  0  2  0  0  0  0  0  0
  194.5580  172.5650  143.4790 C   0  0  0  0  0  1  0  0  0  0  0  0
  193.7450  171.6330  144.1210 O   0  0  0  0  0  0  0  0  0  0  0  0
  184.8600  178.2750  142.3250 C   0  0  0  0  0  2  0  0  0  0  0  0
  184.6190  178.2370  143.7010 O   0  0  0  0  0  1  0  0  0  0  0  0
  1  3  1  0  0  0  0
  1 11  1  0  0  0  0
  2  9  1  0  0  0  0
  3  2  2  0  0  0  0
  4 10  1  0  0  0  0
  4  6  1  0  0  0  0
  5  7  1  0  0  0  0
  7  9  2  0  0  0  0
  7 22  1  0  0  0  0
  8 29  1  1  0  0  0
  8  6  1  0  0  0  0
  8 11  1  0  0  0  0
  9 12  1  0  0  0  0
 10  3  1  0  0  0  0
 10  5  2  0  0  0  0
 12 18  1  0  0  0  0
 14 16  2  0  0  0  0
 15 20  1  0  0  0  0
 16 13  1  0  0  0  0
 17 19  2  0  0  0  0
 18 13  2  0  0  0  0
 19 14  1  0  0  0  0
 20 12  2  0  0  0  0
 20 14  1  0  0  0  0
 21 15  2  0  0  0  0
 21 17  1  0  0  0  0
 22 24  1  0  0  0  0
 23 26  1  0  0  0  0
 23 22  2  0  0  0  0
 25 24  1  0  0  0  0
 26 28  1  0  0  0  0
 27 28  1  0  0  0  0
 29 30  1  0  0  0  0
M  END
>  <MODEL>
8

>  <REMARK>
 VINA RESULT:      -5.9      2.244      7.453
  Name = 
  6 active torsions:
  status: ('A' for Active; 'I' for Inactive)
    1  A    between atoms: C_1  and  C_23
    2  A    between atoms: C_2  and  N_13
    3  A    between atoms: C_2  and  C_19
    4  A    between atoms: O_9  and  C_27
    5  A    between atoms: C_12  and  C_27
    6  A    between atoms: C_14  and  CA_21
                            x       y       z     vdW  Elec       q    Type
                         _______ _______ _______ _____ _____    ______ ____

>  <TORSDO>
F 6

$$$$
=
 OpenBabel11042413453D

 30 33  0  0  1  0  0  0  0  0999 V2000
  194.6010  176.4980  144.9440 C   0  0  0  0  0  2  0  0  0  0  0  0
  192.2360  176.3260  144.2830 N   0  0  0  0  0  0  0  0  0  0  0  0
  193.4500  175.7260  144.3760 C   0  0  0  0  0  0  0  0  0  0  0  0
  194.9120  173.7050  143.9610 C   0  0  0  0  0  2  0  0  0  0  0  0
  192.5050  173.7500  143.4440 N   0  0  0  0  0  0  0  0  0  0  0  0
  195.8400  174.3680  143.0550 N   0  0  0  0  0  2  0  0  0  0  0  0
  191.2780  174.3330  143.3710 C   0  0  0  0  0  0  0  0  0  0  0  0
  196.5540  175.3960  143.8080 C   0  0  2  0  0  3  0  0  0  0  0  0
  191.1440  175.6830  143.7870 C   0  0  0  0  0  0  0  0  0  0  0  0
  193.5900  174.4030  143.9330 C   0  0  0  0  0  0  0  0  0  0  0  0
  195.7190  176.6700  143.9240 C   0  0  0  0  0  2  0  0  0  0  0  0
  189.8900  176.4560  143.6350 C   0  0  0  0  0  0  0  0  0  0  0  0
  188.5010  177.9150  142.2900 C   0  0  0  0  0  3  0  0  0  0  0  0
  187.7820  177.3360  144.4760 C   0  0  0  0  0  0  0  0  0  0  0  0
  189.0990  175.8840  145.8950 C   0  0  0  0  0  3  0  0  0  0  0  0
  187.5950  177.9890  143.2990 N   0  0  0  0  0  0  0  0  0  0  0  0
  187.0000  176.7920  146.6510 C   0  0  0  0  0  3  0  0  0  0  0  0
  189.6610  177.1530  142.4420 C   0  0  0  0  0  3  0  0  0  0  0  0
  186.8510  177.4350  145.4610 N   0  0  0  0  0  0  0  0  0  0  0  0
  188.9430  176.5540  144.6740 C   0  0  0  0  0  0  0  0  0  0  0  0
  188.1270  176.0040  146.8880 C   0  0  0  0  0  3  0  0  0  0  0  0
  190.1510  173.5030  142.8850 C   0  0  0  0  0  0  0  0  0  0  0  0
  189.9010  173.4360  141.5670 C   0  0  0  0  0  3  0  0  0  0  0  0
  189.3140  172.8770  143.8720 N   0  0  0  0  0  2  0  0  0  0  0  0
  189.7150  172.5510  145.0080 O   0  0  0  0  0  1  0  0  0  0  0  0
  188.7630  172.7090  140.9290 C   0  0  0  0  0  2  0  0  0  0  0  0
  188.1920  173.0440  138.8250 C   0  0  0  0  0  1  0  0  0  0  0  0
  189.1020  172.3530  139.6230 O   0  0  0  0  0  0  0  0  0  0  0  0
  197.8880  175.6960  143.1390 C   0  0  0  0  0  2  0  0  0  0  0  0
  197.8120  175.4810  141.7600 O   0  0  0  0  0  1  0  0  0  0  0  0
  2  3  1  0  0  0  0
  3  1  1  0  0  0  0
  5 10  1  0  0  0  0
  6  8  1  0  0  0  0
  6  4  1  0  0  0  0
  7  5  2  0  0  0  0
  7  9  1  0  0  0  0
  8 29  1  6  0  0  0
  8 11  1  0  0  0  0
  9  2  2  0  0  0  0
 10  4  1  0  0  0  0
 10  3  2  0  0  0  0
 11  1  1  0  0  0  0
 12  9  1  0  0  0  0
 12 20  2  0  0  0  0
 13 18  2  0  0  0  0
 13 16  1  0  0  0  0
 14 20  1  0  0  0  0
 14 19  1  0  0  0  0
 15 21  2  0  0  0  0
 16 14  2  0  0  0  0
 17 21  1  0  0  0  0
 18 12  1  0  0  0  0
 19 17  2  0  0  0  0
 20 15  1  0  0  0  0
 22  7  1  0  0  0  0
 22 24  1  0  0  0  0
 23 22  2  0  0  0  0
 24 25  1  0  0  0  0
 26 23  1  0  0  0  0
 27 28  1  0  0  0  0
 28 26  1  0  0  0  0
 30 29  1  0  0  0  0
M  END
>  <MODEL>
9

>  <REMARK>
 VINA RESULT:      -5.9      2.409      4.182
  Name = 
  6 active torsions:
  status: ('A' for Active; 'I' for Inactive)
    1  A    between atoms: C_1  and  C_23
    2  A    between atoms: C_2  and  N_13
    3  A    between atoms: C_2  and  C_19
    4  A    between atoms: O_9  and  C_27
    5  A    between atoms: C_12  and  C_27
    6  A    between atoms: C_14  and  CA_21
                            x       y       z     vdW  Elec       q    Type
                         _______ _______ _______ _____ _____    ______ ____

>  <TORSDO>
F 6

$$$$
