=
 OpenBabel11042414473D

 28 30  0  0  1  0  0  0  0  0999 V2000
  189.2970  177.5300  143.8150 N   0  0  0  0  0  0  0  0  0  0  0  0
  189.7330  176.4940  145.7040 C   0  0  1  0  0  3  0  0  0  0  0  0
  185.3130  177.7550  145.9880 C   0  0  0  0  0  0  0  0  0  0  0  0
  188.3140  176.9550  145.7260 C   0  0  0  0  0  0  0  0  0  0  0  0
  190.3390  177.0800  144.5670 O   0  0  0  0  0  0  0  0  0  0  0  0
  187.4520  176.6880  146.7660 C   0  0  0  0  0  3  0  0  0  0  0  0
  186.9100  178.2020  144.0710 C   0  0  0  0  0  0  0  0  0  0  0  0
  186.1270  177.0570  146.8700 C   0  0  0  0  0  3  0  0  0  0  0  0
  184.0340  177.9960  146.4740 O   0  0  0  0  0  1  0  0  0  0  0  0
  186.9940  178.7740  142.9490 O   0  0  0  0  0  0  0  0  0  0  0  0
  185.6470  178.2490  144.7010 C   0  0  0  0  0  0  0  0  0  0  0  0
  188.0800  177.5890  144.5500 C   0  0  0  0  0  0  0  0  0  0  0  0
  184.6500  178.8920  143.9420 O   0  0  0  0  0  0  0  0  0  0  0  0
  183.8880  178.2660  142.9170 C   0  0  0  0  0  1  0  0  0  0  0  0
  188.9480  175.8690  142.0580 C   0  0  0  0  0  1  0  0  0  0  0  0
  189.3180  177.3070  142.3740 C   0  0  0  0  0  2  0  0  0  0  0  0
  190.4280  176.9410  146.9030 N   0  0  0  0  0  2  0  0  0  0  0  0
  193.4760  175.6500  145.8500 C   0  0  2  0  0  3  0  0  0  0  0  0
  191.4650  175.9630  147.1910 C   0  0  2  0  0  3  0  0  0  0  0  0
  192.8280  176.5540  146.8800 C   0  0  0  0  0  2  0  0  0  0  0  0
  192.6940  174.3550  145.8810 C   0  0  0  0  0  2  0  0  0  0  0  0
  191.2960  174.7520  146.2940 C   0  0  0  0  0  2  0  0  0  0  0  0
  194.9330  175.4100  146.2080 C   0  0  0  0  0  2  0  0  0  0  0  0
  195.7300  175.2520  145.0020 N   0  0  0  0  0  2  0  0  0  0  0  0
  195.4410  176.3890  144.1440 C   0  0  0  0  0  2  0  0  0  0  0  0
  196.2830  176.8570  141.9730 O   0  0  0  0  0  1  0  0  0  0  0  0
  196.6600  176.7300  143.3090 C   0  0  0  0  0  3  0  0  0  0  0  0
  197.6120  175.7170  143.4270 O   0  0  0  0  0  1  0  0  0  0  0  0
  1 12  1  0  0  0  0
  1  5  1  0  0  0  0
  2  4  1  0  0  0  0
  2 17  1  1  0  0  0
  3  9  1  0  0  0  0
  3  8  1  0  0  0  0
  4  6  1  0  0  0  0
  5  2  1  0  0  0  0
  6  8  2  0  0  0  0
  7 12  1  0  0  0  0
  7 11  1  0  0  0  0
 10  7  2  0  0  0  0
 11  3  2  0  0  0  0
 12  4  2  0  0  0  0
 13 11  1  0  0  0  0
 14 13  1  0  0  0  0
 15 16  1  0  0  0  0
 16  1  1  0  0  0  0
 18 21  1  0  0  0  0
 18 23  1  1  0  0  0
 18 20  1  0  0  0  0
 19 17  1  6  0  0  0
 20 19  1  0  0  0  0
 21 22  1  0  0  0  0
 22 19  1  0  0  0  0
 24 23  1  0  0  0  0
 25 24  1  0  0  0  0
 26 27  1  0  0  0  0
 27 28  1  0  0  0  0
 27 25  1  0  0  0  0
M  END
>  <MODEL>
1

>  <REMARK>
 VINA RESULT:      -6.9      0.000      0.000
  Name = 
  8 active torsions:
  status: ('A' for Active; 'I' for Inactive)
    1  A    between atoms: N_1  and  C_18
    2  A    between atoms: C_2  and  N_19
    3  A    between atoms: C_4  and  N_20
    4  A    between atoms: C_4  and  C_25
    5  A    between atoms: C_6  and  C_23
    6  A    between atoms: C_8  and  N_19
    7  A    between atoms: O_11  and  C_17
    8  A    between atoms: N_20  and  C_23
                            x       y       z     vdW  Elec       q    Type
                         _______ _______ _______ _____ _____    ______ ____

>  <TORSDO>
F 8

$$$$
=
 OpenBabel11042414473D

 28 30  0  0  1  0  0  0  0  0999 V2000
  189.0970  175.9960  143.7530 N   0  0  0  0  0  0  0  0  0  0  0  0
  188.4010  176.6600  145.7290 C   0  0  1  0  0  3  0  0  0  0  0  0
  192.9280  175.9570  146.1950 C   0  0  0  0  0  0  0  0  0  0  0  0
  189.8670  176.3910  145.8010 C   0  0  0  0  0  0  0  0  0  0  0  0
  187.9570  176.1840  144.4720 O   0  0  0  0  0  0  0  0  0  0  0  0
  190.6150  176.6030  146.9380 C   0  0  0  0  0  3  0  0  0  0  0  0
  191.5340  175.6090  144.1070 C   0  0  0  0  0  0  0  0  0  0  0  0
  191.9690  176.3980  147.0970 C   0  0  0  0  0  3  0  0  0  0  0  0
  194.1950  175.8120  146.7460 O   0  0  0  0  0  1  0  0  0  0  0  0
  191.6020  175.2120  142.9100 O   0  0  0  0  0  0  0  0  0  0  0  0
  192.7490  175.6290  144.8260 C   0  0  0  0  0  0  0  0  0  0  0  0
  190.2620  175.9830  144.5700 C   0  0  0  0  0  0  0  0  0  0  0  0
  193.8730  175.2470  144.0680 O   0  0  0  0  0  0  0  0  0  0  0  0
  194.8520  176.1490  143.5680 C   0  0  0  0  0  1  0  0  0  0  0  0
  188.9970  177.9450  142.2830 C   0  0  0  0  0  1  0  0  0  0  0  0
  189.1360  176.4360  142.3620 C   0  0  0  0  0  2  0  0  0  0  0  0
  187.7020  175.9470  146.7870 N   0  0  0  0  0  2  0  0  0  0  0  0
  185.4640  178.4220  145.8230 C   0  0  2  0  0  3  0  0  0  0  0  0
  186.6080  176.7960  147.2320 C   0  0  2  0  0  3  0  0  0  0  0  0
  185.5860  176.9410  146.1190 C   0  0  0  0  0  2  0  0  0  0  0  0
  186.0760  179.1370  147.0080 C   0  0  0  0  0  2  0  0  0  0  0  0
  187.1260  178.1880  147.5360 C   0  0  0  0  0  2  0  0  0  0  0  0
  184.0020  178.8030  145.6580 C   0  0  0  0  0  2  0  0  0  0  0  0
  183.6740  178.9490  144.2480 N   0  0  0  0  0  2  0  0  0  0  0  0
  184.9280  179.1170  143.5310 C   0  0  0  0  0  2  0  0  0  0  0  0
  183.5670  178.1210  141.8580 O   0  0  0  0  0  1  0  0  0  0  0  0
  184.8930  178.3260  142.2380 C   0  0  0  0  0  3  0  0  0  0  0  0
  185.5180  177.0930  142.4190 O   0  0  0  0  0  1  0  0  0  0  0  0
  1  5  1  0  0  0  0
  1 12  1  0  0  0  0
  2  4  1  0  0  0  0
  2 17  1  1  0  0  0
  3  9  1  0  0  0  0
  3  8  1  0  0  0  0
  4  6  1  0  0  0  0
  5  2  1  0  0  0  0
  6  8  2  0  0  0  0
  7 12  1  0  0  0  0
  7 11  1  0  0  0  0
 10  7  2  0  0  0  0
 11  3  2  0  0  0  0
 12  4  2  0  0  0  0
 13 11  1  0  0  0  0
 14 13  1  0  0  0  0
 15 16  1  0  0  0  0
 16  1  1  0  0  0  0
 18 23  1  1  0  0  0
 18 20  1  0  0  0  0
 18 21  1  0  0  0  0
 19 17  1  6  0  0  0
 19 22  1  0  0  0  0
 20 19  1  0  0  0  0
 21 22  1  0  0  0  0
 24 23  1  0  0  0  0
 25 24  1  0  0  0  0
 26 27  1  0  0  0  0
 27 28  1  0  0  0  0
 27 25  1  0  0  0  0
M  END
>  <MODEL>
2

>  <REMARK>
 VINA RESULT:      -6.8      2.329      7.799
  Name = 
  8 active torsions:
  status: ('A' for Active; 'I' for Inactive)
    1  A    between atoms: N_1  and  C_18
    2  A    between atoms: C_2  and  N_19
    3  A    between atoms: C_4  and  N_20
    4  A    between atoms: C_4  and  C_25
    5  A    between atoms: C_6  and  C_23
    6  A    between atoms: C_8  and  N_19
    7  A    between atoms: O_11  and  C_17
    8  A    between atoms: N_20  and  C_23
                            x       y       z     vdW  Elec       q    Type
                         _______ _______ _______ _____ _____    ______ ____

>  <TORSDO>
F 8

$$$$
=
 OpenBabel11042414473D

 28 30  0  0  1  0  0  0  0  0999 V2000
  188.6460  177.8070  142.5670 N   0  0  0  0  0  0  0  0  0  0  0  0
  190.3290  176.9920  143.7220 C   0  0  1  0  0  3  0  0  0  0  0  0
  186.7110  176.8630  146.5670 C   0  0  0  0  0  0  0  0  0  0  0  0
  189.1130  177.0020  144.5870 C   0  0  0  0  0  0  0  0  0  0  0  0
  190.0040  177.7090  142.5460 O   0  0  0  0  0  0  0  0  0  0  0  0
  189.1010  176.5090  145.8730 C   0  0  0  0  0  3  0  0  0  0  0  0
  186.7520  177.7310  144.1870 C   0  0  0  0  0  0  0  0  0  0  0  0
  188.0290  176.4630  146.7390 C   0  0  0  0  0  3  0  0  0  0  0  0
  185.9250  176.7160  147.7040 O   0  0  0  0  0  1  0  0  0  0  0  0
  186.0320  178.2790  143.3060 O   0  0  0  0  0  0  0  0  0  0  0  0
  186.1120  177.4080  145.4030 C   0  0  0  0  0  0  0  0  0  0  0  0
  188.0970  177.5110  143.8460 C   0  0  0  0  0  0  0  0  0  0  0  0
  184.7350  177.7030  145.4240 O   0  0  0  0  0  0  0  0  0  0  0  0
  184.1760  178.9060  145.9380 C   0  0  0  0  0  1  0  0  0  0  0  0
  187.7990  176.0810  141.0590 C   0  0  0  0  0  1  0  0  0  0  0  0
  187.9010  177.5700  141.3350 C   0  0  0  0  0  2  0  0  0  0  0  0
  191.4350  177.6530  144.3970 N   0  0  0  0  0  2  0  0  0  0  0  0
  192.1270  174.3320  145.1470 C   0  0  2  0  0  3  0  0  0  0  0  0
  192.4940  176.6680  144.5570 C   0  0  2  0  0  3  0  0  0  0  0  0
  192.0370  175.3290  144.0080 C   0  0  0  0  0  2  0  0  0  0  0  0
  193.0060  174.9760  146.1970 C   0  0  0  0  0  2  0  0  0  0  0  0
  192.7880  176.4610  146.0310 C   0  0  0  0  0  2  0  0  0  0  0  0
  192.7390  173.0310  144.6540 C   0  0  0  0  0  2  0  0  0  0  0  0
  191.8690  172.4040  143.6710 N   0  0  0  0  0  2  0  0  0  0  0  0
  190.6800  171.9530  144.3760 C   0  0  0  0  0  2  0  0  0  0  0  0
  189.7260  171.4080  142.2700 O   0  0  0  0  0  1  0  0  0  0  0  0
  189.4690  172.0670  143.4700 C   0  0  0  0  0  3  0  0  0  0  0  0
  189.1960  173.4100  143.2120 O   0  0  0  0  0  1  0  0  0  0  0  0
  1 12  1  0  0  0  0
  2 17  1  1  0  0  0
  2  4  1  0  0  0  0
  3  8  1  0  0  0  0
  3  9  1  0  0  0  0
  4  6  1  0  0  0  0
  5  1  1  0  0  0  0
  5  2  1  0  0  0  0
  6  8  2  0  0  0  0
  7 11  1  0  0  0  0
 10  7  2  0  0  0  0
 11 13  1  0  0  0  0
 11  3  2  0  0  0  0
 12  7  1  0  0  0  0
 12  4  2  0  0  0  0
 13 14  1  0  0  0  0
 15 16  1  0  0  0  0
 16  1  1  0  0  0  0
 18 23  1  6  0  0  0
 18 21  1  0  0  0  0
 19 17  1  1  0  0  0
 19 22  1  0  0  0  0
 20 19  1  0  0  0  0
 20 18  1  0  0  0  0
 22 21  1  0  0  0  0
 24 25  1  0  0  0  0
 24 23  1  0  0  0  0
 26 27  1  0  0  0  0
 27 25  1  0  0  0  0
 28 27  1  0  0  0  0
M  END
>  <MODEL>
3

>  <REMARK>
 VINA RESULT:      -6.7      2.722      3.740
  Name = 
  8 active torsions:
  status: ('A' for Active; 'I' for Inactive)
    1  A    between atoms: N_1  and  C_18
    2  A    between atoms: C_2  and  N_19
    3  A    between atoms: C_4  and  N_20
    4  A    between atoms: C_4  and  C_25
    5  A    between atoms: C_6  and  C_23
    6  A    between atoms: C_8  and  N_19
    7  A    between atoms: O_11  and  C_17
    8  A    between atoms: N_20  and  C_23
                            x       y       z     vdW  Elec       q    Type
                         _______ _______ _______ _____ _____    ______ ____

>  <TORSDO>
F 8

$$$$
=
 OpenBabel11042414473D

 28 30  0  0  1  0  0  0  0  0999 V2000
  190.0930  175.6370  145.3320 N   0  0  0  0  0  0  0  0  0  0  0  0
  189.0850  174.7630  143.5850 C   0  0  1  0  0  3  0  0  0  0  0  0
  193.4530  175.4180  142.2820 C   0  0  0  0  0  0  0  0  0  0  0  0
  190.5110  175.0250  143.2350 C   0  0  0  0  0  0  0  0  0  0  0  0
  188.8510  175.3710  144.8420 O   0  0  0  0  0  0  0  0  0  0  0  0
  191.0600  174.6930  142.0160 C   0  0  0  0  0  3  0  0  0  0  0  0
  192.4270  175.9860  144.5280 C   0  0  0  0  0  0  0  0  0  0  0  0
  192.3640  174.8810  141.6080 C   0  0  0  0  0  3  0  0  0  0  0  0
  194.6050  175.5040  141.5100 O   0  0  0  0  0  1  0  0  0  0  0  0
  192.6890  176.5100  145.6470 O   0  0  0  0  0  0  0  0  0  0  0  0
  193.5020  175.8900  143.6180 C   0  0  0  0  0  0  0  0  0  0  0  0
  191.1010  175.5630  144.3310 C   0  0  0  0  0  0  0  0  0  0  0  0
  194.7300  176.3530  144.1290 O   0  0  0  0  0  0  0  0  0  0  0  0
  195.7490  175.5150  144.6620 C   0  0  0  0  0  1  0  0  0  0  0  0
  189.1810  174.6760  147.3850 C   0  0  0  0  0  1  0  0  0  0  0  0
  190.3760  175.3490  146.7340 C   0  0  0  0  0  2  0  0  0  0  0  0
  188.2030  175.3590  142.5920 N   0  0  0  0  0  2  0  0  0  0  0  0
  185.5710  177.6140  142.3720 C   0  0  2  0  0  3  0  0  0  0  0  0
  187.5850  176.5240  143.2050 C   0  0  2  0  0  3  0  0  0  0  0  0
  186.0730  176.4020  143.1300 C   0  0  0  0  0  2  0  0  0  0  0  0
  186.7080  178.6130  142.3800 C   0  0  0  0  0  2  0  0  0  0  0  0
  187.9630  177.7740  142.4350 C   0  0  0  0  0  2  0  0  0  0  0  0
  184.3430  178.1890  143.0600 C   0  0  0  0  0  2  0  0  0  0  0  0
  184.7390  179.1350  144.0910 N   0  0  0  0  0  2  0  0  0  0  0  0
  184.0620  178.7430  145.3160 C   0  0  0  0  0  2  0  0  0  0  0  0
  184.7440  178.5160  147.5810 O   0  0  0  0  0  1  0  0  0  0  0  0
  185.0560  178.1240  146.2800 C   0  0  0  0  0  3  0  0  0  0  0  0
  186.3470  178.5500  145.9660 O   0  0  0  0  0  1  0  0  0  0  0  0
  1 16  1  0  0  0  0
  2 17  1  6  0  0  0
  2  5  1  0  0  0  0
  3 11  2  0  0  0  0
  4  2  1  0  0  0  0
  4 12  2  0  0  0  0
  5  1  1  0  0  0  0
  6  4  1  0  0  0  0
  7 10  2  0  0  0  0
  8  6  2  0  0  0  0
  8  3  1  0  0  0  0
  9  3  1  0  0  0  0
 11 13  1  0  0  0  0
 11  7  1  0  0  0  0
 12  7  1  0  0  0  0
 12  1  1  0  0  0  0
 13 14  1  0  0  0  0
 16 15  1  0  0  0  0
 18 21  1  0  0  0  0
 18 23  1  1  0  0  0
 18 20  1  0  0  0  0
 19 17  1  6  0  0  0
 20 19  1  0  0  0  0
 21 22  1  0  0  0  0
 22 19  1  0  0  0  0
 23 24  1  0  0  0  0
 24 25  1  0  0  0  0
 25 27  1  0  0  0  0
 27 26  1  0  0  0  0
 28 27  1  0  0  0  0
M  END
>  <MODEL>
4

>  <REMARK>
 VINA RESULT:      -6.6      2.258      8.457
  Name = 
  8 active torsions:
  status: ('A' for Active; 'I' for Inactive)
    1  A    between atoms: N_1  and  C_18
    2  A    between atoms: C_2  and  N_19
    3  A    between atoms: C_4  and  N_20
    4  A    between atoms: C_4  and  C_25
    5  A    between atoms: C_6  and  C_23
    6  A    between atoms: C_8  and  N_19
    7  A    between atoms: O_11  and  C_17
    8  A    between atoms: N_20  and  C_23
                            x       y       z     vdW  Elec       q    Type
                         _______ _______ _______ _____ _____    ______ ____

>  <TORSDO>
F 8

$$$$
=
 OpenBabel11042414473D

 28 30  0  0  1  0  0  0  0  0999 V2000
  189.0170  176.1770  143.3790 N   0  0  0  0  0  0  0  0  0  0  0  0
  189.5670  175.1570  145.2470 C   0  0  1  0  0  3  0  0  0  0  0  0
  186.1830  178.0640  146.3880 C   0  0  0  0  0  0  0  0  0  0  0  0
  188.4810  176.1380  145.5370 C   0  0  0  0  0  0  0  0  0  0  0  0
  189.9930  175.3960  143.9180 O   0  0  0  0  0  0  0  0  0  0  0  0
  187.9160  176.2870  146.7850 C   0  0  0  0  0  3  0  0  0  0  0  0
  187.2150  177.7440  144.0950 C   0  0  0  0  0  0  0  0  0  0  0  0
  186.9040  177.1520  147.1460 C   0  0  0  0  0  3  0  0  0  0  0  0
  185.2740  178.8140  147.1240 O   0  0  0  0  0  1  0  0  0  0  0  0
  187.1770  178.1760  142.9090 O   0  0  0  0  0  0  0  0  0  0  0  0
  186.2920  178.3180  144.9960 C   0  0  0  0  0  0  0  0  0  0  0  0
  188.1680  176.7480  144.3680 C   0  0  0  0  0  0  0  0  0  0  0  0
  185.4230  179.2580  144.4090 O   0  0  0  0  0  0  0  0  0  0  0  0
  184.0990  178.9720  143.9760 C   0  0  0  0  0  1  0  0  0  0  0  0
  187.9320  174.4980  141.9750 C   0  0  0  0  0  1  0  0  0  0  0  0
  188.5430  175.8860  142.0300 C   0  0  0  0  0  2  0  0  0  0  0  0
  190.6870  175.3600  146.1540 N   0  0  0  0  0  2  0  0  0  0  0  0
  194.1570  175.4980  146.2490 C   0  0  2  0  0  3  0  0  0  0  0  0
  191.8950  175.4130  145.3450 C   0  0  2  0  0  3  0  0  0  0  0  0
  192.9830  174.5750  145.9910 C   0  0  0  0  0  2  0  0  0  0  0  0
  193.9170  176.7250  145.3970 C   0  0  0  0  0  2  0  0  0  0  0  0
  192.4140  176.8370  145.2860 C   0  0  0  0  0  2  0  0  0  0  0  0
  195.4560  174.8140  145.8560 C   0  0  0  0  0  2  0  0  0  0  0  0
  195.5040  174.6100  144.4170 N   0  0  0  0  0  2  0  0  0  0  0  0
  196.8510  174.9430  143.9820 C   0  0  0  0  0  2  0  0  0  0  0  0
  197.1150  177.2200  143.3580 O   0  0  0  0  0  1  0  0  0  0  0  0
  196.7940  175.9590  142.8580 C   0  0  0  0  0  3  0  0  0  0  0  0
  195.5100  175.9900  142.3130 O   0  0  0  0  0  1  0  0  0  0  0  0
  1  5  1  0  0  0  0
  1 12  1  0  0  0  0
  2  4  1  0  0  0  0
  2 17  1  1  0  0  0
  3  9  1  0  0  0  0
  3  8  1  0  0  0  0
  4  6  1  0  0  0  0
  5  2  1  0  0  0  0
  6  8  2  0  0  0  0
  7 12  1  0  0  0  0
  7 11  1  0  0  0  0
 10  7  2  0  0  0  0
 11  3  2  0  0  0  0
 12  4  2  0  0  0  0
 13 11  1  0  0  0  0
 14 13  1  0  0  0  0
 15 16  1  0  0  0  0
 16  1  1  0  0  0  0
 18 23  1  6  0  0  0
 19 20  1  0  0  0  0
 19 17  1  1  0  0  0
 20 18  1  0  0  0  0
 21 18  1  0  0  0  0
 22 19  1  0  0  0  0
 22 21  1  0  0  0  0
 24 23  1  0  0  0  0
 25 24  1  0  0  0  0
 27 26  1  0  0  0  0
 27 25  1  0  0  0  0
 28 27  1  0  0  0  0
M  END
>  <MODEL>
5

>  <REMARK>
 VINA RESULT:      -6.6      1.229      1.518
  Name = 
  8 active torsions:
  status: ('A' for Active; 'I' for Inactive)
    1  A    between atoms: N_1  and  C_18
    2  A    between atoms: C_2  and  N_19
    3  A    between atoms: C_4  and  N_20
    4  A    between atoms: C_4  and  C_25
    5  A    between atoms: C_6  and  C_23
    6  A    between atoms: C_8  and  N_19
    7  A    between atoms: O_11  and  C_17
    8  A    between atoms: N_20  and  C_23
                            x       y       z     vdW  Elec       q    Type
                         _______ _______ _______ _____ _____    ______ ____

>  <TORSDO>
F 8

$$$$
=
 OpenBabel11042414473D

 28 30  0  0  1  0  0  0  0  0999 V2000
  186.2340  178.0410  145.3210 N   0  0  0  0  0  0  0  0  0  0  0  0
  188.2510  177.2040  145.0710 C   0  0  1  0  0  3  0  0  0  0  0  0
  186.5910  177.7020  140.8050 C   0  0  0  0  0  0  0  0  0  0  0  0
  187.6330  177.3780  143.7240 C   0  0  0  0  0  0  0  0  0  0  0  0
  187.2320  177.4390  146.0250 O   0  0  0  0  0  0  0  0  0  0  0  0
  188.2970  177.0980  142.5500 C   0  0  0  0  0  3  0  0  0  0  0  0
  185.4060  178.2430  142.9780 C   0  0  0  0  0  0  0  0  0  0  0  0
  187.8170  177.2400  141.2650 C   0  0  0  0  0  3  0  0  0  0  0  0
  186.4480  177.6380  139.4240 O   0  0  0  0  0  1  0  0  0  0  0  0
  184.3060  178.6520  143.4470 O   0  0  0  0  0  0  0  0  0  0  0  0
  185.5020  178.1920  141.5710 C   0  0  0  0  0  0  0  0  0  0  0  0
  186.3930  177.8930  143.9150 C   0  0  0  0  0  0  0  0  0  0  0  0
  184.3580  178.6630  140.8980 O   0  0  0  0  0  0  0  0  0  0  0  0
  183.2590  177.8490  140.5090 C   0  0  0  0  0  1  0  0  0  0  0  0
  185.4820  179.0530  147.4130 C   0  0  0  0  0  1  0  0  0  0  0  0
  185.5530  179.1920  145.9040 C   0  0  0  0  0  2  0  0  0  0  0  0
  188.7490  175.8450  145.2260 N   0  0  0  0  0  2  0  0  0  0  0  0
  192.1980  175.9860  144.8370 C   0  0  2  0  0  3  0  0  0  0  0  0
  190.0200  175.9280  145.9290 C   0  0  2  0  0  3  0  0  0  0  0  0
  190.9760  176.8220  145.1590 C   0  0  0  0  0  2  0  0  0  0  0  0
  192.1350  174.7840  145.7550 C   0  0  0  0  0  2  0  0  0  0  0  0
  190.6620  174.5560  145.9990 C   0  0  0  0  0  2  0  0  0  0  0  0
  193.4620  176.7920  145.0890 C   0  0  0  0  0  2  0  0  0  0  0  0
  194.6320  176.0470  144.6490 N   0  0  0  0  0  2  0  0  0  0  0  0
  194.6290  176.0650  143.1950 C   0  0  0  0  0  2  0  0  0  0  0  0
  196.7200  177.1450  143.5140 O   0  0  0  0  0  1  0  0  0  0  0  0
  196.0410  176.2610  142.6780 C   0  0  0  0  0  3  0  0  0  0  0  0
  196.0030  176.7820  141.3850 O   0  0  0  0  0  1  0  0  0  0  0  0
  1 16  1  0  0  0  0
  1  5  1  0  0  0  0
  2 17  1  6  0  0  0
  2  5  1  0  0  0  0
  3  8  1  0  0  0  0
  3 11  2  0  0  0  0
  4 12  2  0  0  0  0
  4  2  1  0  0  0  0
  6  4  1  0  0  0  0
  7 10  2  0  0  0  0
  7 12  1  0  0  0  0
  8  6  2  0  0  0  0
  9  3  1  0  0  0  0
 11  7  1  0  0  0  0
 12  1  1  0  0  0  0
 13 11  1  0  0  0  0
 14 13  1  0  0  0  0
 16 15  1  0  0  0  0
 18 23  1  1  0  0  0
 18 20  1  0  0  0  0
 18 21  1  0  0  0  0
 19 17  1  6  0  0  0
 19 22  1  0  0  0  0
 20 19  1  0  0  0  0
 21 22  1  0  0  0  0
 24 23  1  0  0  0  0
 25 24  1  0  0  0  0
 27 25  1  0  0  0  0
 27 26  1  0  0  0  0
 28 27  1  0  0  0  0
M  END
>  <MODEL>
6

>  <REMARK>
 VINA RESULT:      -6.6      1.916      3.437
  Name = 
  8 active torsions:
  status: ('A' for Active; 'I' for Inactive)
    1  A    between atoms: N_1  and  C_18
    2  A    between atoms: C_2  and  N_19
    3  A    between atoms: C_4  and  N_20
    4  A    between atoms: C_4  and  C_25
    5  A    between atoms: C_6  and  C_23
    6  A    between atoms: C_8  and  N_19
    7  A    between atoms: O_11  and  C_17
    8  A    between atoms: N_20  and  C_23
                            x       y       z     vdW  Elec       q    Type
                         _______ _______ _______ _____ _____    ______ ____

>  <TORSDO>
F 8

$$$$
=
 OpenBabel11042414473D

 28 30  0  0  1  0  0  0  0  0999 V2000
  188.8220  177.7910  142.7060 N   0  0  0  0  0  0  0  0  0  0  0  0
  190.4660  177.0070  143.9360 C   0  0  1  0  0  3  0  0  0  0  0  0
  186.7500  176.9220  146.6540 C   0  0  0  0  0  0  0  0  0  0  0  0
  189.2200  177.0300  144.7570 C   0  0  0  0  0  0  0  0  0  0  0  0
  190.1800  177.6990  142.7350 O   0  0  0  0  0  0  0  0  0  0  0  0
  189.1640  176.5630  146.0520 C   0  0  0  0  0  3  0  0  0  0  0  0
  186.8730  177.7400  144.2590 C   0  0  0  0  0  0  0  0  0  0  0  0
  188.0630  176.5300  146.8810 C   0  0  0  0  0  3  0  0  0  0  0  0
  185.9250  176.7950  147.7650 O   0  0  0  0  0  1  0  0  0  0  0  0
  186.1820  178.2670  143.3420 O   0  0  0  0  0  0  0  0  0  0  0  0
  186.1910  177.4400  145.4580 C   0  0  0  0  0  0  0  0  0  0  0  0
  188.2300  177.5190  143.9710 C   0  0  0  0  0  0  0  0  0  0  0  0
  184.8130  177.7290  145.4240 O   0  0  0  0  0  0  0  0  0  0  0  0
  184.2230  178.9080  145.9590 C   0  0  0  0  0  1  0  0  0  0  0  0
  187.9270  176.0330  141.2660 C   0  0  0  0  0  1  0  0  0  0  0  0
  188.1230  177.5260  141.4530 C   0  0  0  0  0  2  0  0  0  0  0  0
  191.5460  177.6870  144.6370 N   0  0  0  0  0  2  0  0  0  0  0  0
  192.2240  174.3380  145.2640 C   0  0  2  0  0  3  0  0  0  0  0  0
  192.6020  176.7110  144.8540 C   0  0  2  0  0  3  0  0  0  0  0  0
  192.2360  175.3990  144.1820 C   0  0  0  0  0  2  0  0  0  0  0  0
  192.9710  174.9320  146.4390 C   0  0  0  0  0  2  0  0  0  0  0  0
  192.7410  176.4210  146.3360 C   0  0  0  0  0  2  0  0  0  0  0  0
  192.9130  173.0780  144.7670 C   0  0  0  0  0  2  0  0  0  0  0  0
  194.2180  172.9350  145.3940 N   0  0  0  0  0  2  0  0  0  0  0  0
  195.2140  173.0550  144.3420 C   0  0  0  0  0  2  0  0  0  0  0  0
  196.4320  174.0660  146.1130 O   0  0  0  0  0  1  0  0  0  0  0  0
  196.2540  174.0890  144.7310 C   0  0  0  0  0  3  0  0  0  0  0  0
  195.8280  175.3580  144.3400 O   0  0  0  0  0  1  0  0  0  0  0  0
  1  5  1  0  0  0  0
  1 12  1  0  0  0  0
  2 17  1  1  0  0  0
  2  4  1  0  0  0  0
  3  8  1  0  0  0  0
  3  9  1  0  0  0  0
  4  6  1  0  0  0  0
  5  2  1  0  0  0  0
  6  8  2  0  0  0  0
  7 11  1  0  0  0  0
 10  7  2  0  0  0  0
 11  3  2  0  0  0  0
 12  7  1  0  0  0  0
 12  4  2  0  0  0  0
 13 11  1  0  0  0  0
 13 14  1  0  0  0  0
 15 16  1  0  0  0  0
 16  1  1  0  0  0  0
 18 23  1  6  0  0  0
 18 21  1  0  0  0  0
 19 17  1  1  0  0  0
 19 22  1  0  0  0  0
 20 19  1  0  0  0  0
 20 18  1  0  0  0  0
 22 21  1  0  0  0  0
 23 24  1  0  0  0  0
 25 27  1  0  0  0  0
 25 24  1  0  0  0  0
 27 26  1  0  0  0  0
 28 27  1  0  0  0  0
M  END
>  <MODEL>
7

>  <REMARK>
 VINA RESULT:      -6.6      1.744      2.317
  Name = 
  8 active torsions:
  status: ('A' for Active; 'I' for Inactive)
    1  A    between atoms: N_1  and  C_18
    2  A    between atoms: C_2  and  N_19
    3  A    between atoms: C_4  and  N_20
    4  A    between atoms: C_4  and  C_25
    5  A    between atoms: C_6  and  C_23
    6  A    between atoms: C_8  and  N_19
    7  A    between atoms: O_11  and  C_17
    8  A    between atoms: N_20  and  C_23
                            x       y       z     vdW  Elec       q    Type
                         _______ _______ _______ _____ _____    ______ ____

>  <TORSDO>
F 8

$$$$
=
 OpenBabel11042414473D

 28 30  0  0  1  0  0  0  0  0999 V2000
  189.8780  174.0540  144.1450 N   0  0  0  0  0  0  0  0  0  0  0  0
  189.7040  176.2170  144.4900 C   0  0  1  0  0  3  0  0  0  0  0  0
  193.9950  175.1150  145.7460 C   0  0  0  0  0  0  0  0  0  0  0  0
  191.0700  175.7750  144.8940 C   0  0  0  0  0  0  0  0  0  0  0  0
  188.9500  175.0460  144.2350 O   0  0  0  0  0  0  0  0  0  0  0  0
  192.0400  176.6440  145.3450 C   0  0  0  0  0  3  0  0  0  0  0  0
  192.2050  173.5440  144.8800 C   0  0  0  0  0  0  0  0  0  0  0  0
  193.3280  176.3330  145.7260 C   0  0  0  0  0  3  0  0  0  0  0  0
  195.2830  175.1880  146.2620 O   0  0  0  0  0  1  0  0  0  0  0  0
  191.9710  172.3270  144.6340 O   0  0  0  0  0  0  0  0  0  0  0  0
  193.5070  173.8490  145.3320 C   0  0  0  0  0  0  0  0  0  0  0  0
  191.1430  174.4400  144.6700 C   0  0  0  0  0  0  0  0  0  0  0  0
  194.3710  172.7390  145.3890 O   0  0  0  0  0  0  0  0  0  0  0  0
  195.3180  172.4010  144.3820 C   0  0  0  0  0  1  0  0  0  0  0  0
  188.5980  173.4220  142.1620 C   0  0  0  0  0  1  0  0  0  0  0  0
  189.7540  173.0660  143.0780 C   0  0  0  0  0  2  0  0  0  0  0  0
  189.0760  176.9670  145.5670 N   0  0  0  0  0  2  0  0  0  0  0  0
  185.9330  178.3860  145.9870 C   0  0  2  0  0  3  0  0  0  0  0  0
  187.6440  176.7230  145.4870 C   0  0  2  0  0  3  0  0  0  0  0  0
  186.9440  177.9560  144.9430 C   0  0  0  0  0  2  0  0  0  0  0  0
  185.7580  177.2010  146.9110 C   0  0  0  0  0  2  0  0  0  0  0  0
  187.0840  176.4780  146.8750 C   0  0  0  0  0  2  0  0  0  0  0  0
  184.6160  178.7500  145.3210 C   0  0  0  0  0  2  0  0  0  0  0  0
  184.8500  179.2200  143.9640 N   0  0  0  0  0  2  0  0  0  0  0  0
  183.8520  178.5900  143.1150 C   0  0  0  0  0  2  0  0  0  0  0  0
  185.7920  178.5560  141.7440 O   0  0  0  0  0  1  0  0  0  0  0  0
  184.5160  178.0110  141.8810 C   0  0  0  0  0  3  0  0  0  0  0  0
  183.7590  178.3140  140.7490 O   0  0  0  0  0  1  0  0  0  0  0  0
  1  5  1  0  0  0  0
  1 12  1  0  0  0  0
  2  4  1  0  0  0  0
  2 17  1  1  0  0  0
  3  9  1  0  0  0  0
  4  6  1  0  0  0  0
  5  2  1  0  0  0  0
  6  8  2  0  0  0  0
  7 11  1  0  0  0  0
  8  3  1  0  0  0  0
 10  7  2  0  0  0  0
 11 13  1  0  0  0  0
 11  3  2  0  0  0  0
 12  7  1  0  0  0  0
 12  4  2  0  0  0  0
 14 13  1  0  0  0  0
 15 16  1  0  0  0  0
 16  1  1  0  0  0  0
 18 23  1  6  0  0  0
 18 21  1  0  0  0  0
 19 17  1  1  0  0  0
 19 22  1  0  0  0  0
 20 19  1  0  0  0  0
 20 18  1  0  0  0  0
 22 21  1  0  0  0  0
 24 23  1  0  0  0  0
 25 24  1  0  0  0  0
 26 27  1  0  0  0  0
 27 25  1  0  0  0  0
 28 27  1  0  0  0  0
M  END
>  <MODEL>
8

>  <REMARK>
 VINA RESULT:      -6.4      2.489      8.322
  Name = 
  8 active torsions:
  status: ('A' for Active; 'I' for Inactive)
    1  A    between atoms: N_1  and  C_18
    2  A    between atoms: C_2  and  N_19
    3  A    between atoms: C_4  and  N_20
    4  A    between atoms: C_4  and  C_25
    5  A    between atoms: C_6  and  C_23
    6  A    between atoms: C_8  and  N_19
    7  A    between atoms: O_11  and  C_17
    8  A    between atoms: N_20  and  C_23
                            x       y       z     vdW  Elec       q    Type
                         _______ _______ _______ _____ _____    ______ ____

>  <TORSDO>
F 8

$$$$
=
 OpenBabel11042414473D

 28 30  0  0  1  0  0  0  0  0999 V2000
  188.6740  175.2700  143.1440 N   0  0  0  0  0  0  0  0  0  0  0  0
  188.9360  175.4350  145.3200 C   0  0  1  0  0  3  0  0  0  0  0  0
  185.9290  178.7350  144.1920 C   0  0  0  0  0  0  0  0  0  0  0  0
  187.9830  176.4910  144.8700 C   0  0  0  0  0  0  0  0  0  0  0  0
  189.4870  174.8520  144.1540 O   0  0  0  0  0  0  0  0  0  0  0  0
  187.3560  177.3580  145.7370 C   0  0  0  0  0  3  0  0  0  0  0  0
  187.0680  177.1040  142.6220 C   0  0  0  0  0  0  0  0  0  0  0  0
  186.4550  178.3520  145.4190 C   0  0  0  0  0  3  0  0  0  0  0  0
  185.0860  179.8370  144.2610 O   0  0  0  0  0  1  0  0  0  0  0  0
  187.1790  176.7970  141.4020 O   0  0  0  0  0  0  0  0  0  0  0  0
  186.1730  178.1540  142.9210 C   0  0  0  0  0  0  0  0  0  0  0  0
  187.8460  176.3620  143.5270 C   0  0  0  0  0  0  0  0  0  0  0  0
  185.4930  178.6670  141.8000 O   0  0  0  0  0  0  0  0  0  0  0  0
  184.1760  178.2920  141.4140 C   0  0  0  0  0  1  0  0  0  0  0  0
  188.8760  172.9500  142.4050 C   0  0  0  0  0  1  0  0  0  0  0  0
  188.2630  174.3100  142.1250 C   0  0  0  0  0  2  0  0  0  0  0  0
  190.0050  176.0230  146.1140 N   0  0  0  0  0  2  0  0  0  0  0  0
  193.4600  176.3370  146.2770 C   0  0  2  0  0  3  0  0  0  0  0  0
  191.2520  175.7820  145.4060 C   0  0  2  0  0  3  0  0  0  0  0  0
  192.3230  175.3410  146.3890 C   0  0  0  0  0  2  0  0  0  0  0  0
  193.2390  177.0790  144.9770 C   0  0  0  0  0  2  0  0  0  0  0  0
  191.7430  177.0690  144.7710 C   0  0  0  0  0  2  0  0  0  0  0  0
  194.7930  175.6060  146.2620 C   0  0  0  0  0  2  0  0  0  0  0  0
  195.3690  175.6340  144.9270 N   0  0  0  0  0  2  0  0  0  0  0  0
  195.7550  174.2710  144.5980 C   0  0  0  0  0  2  0  0  0  0  0  0
  197.9400  173.4980  144.0760 O   0  0  0  0  0  1  0  0  0  0  0  0
  197.1530  173.9910  145.1160 C   0  0  0  0  0  3  0  0  0  0  0  0
  197.0970  173.0480  146.1420 O   0  0  0  0  0  1  0  0  0  0  0  0
  1 12  1  0  0  0  0
  1  5  1  0  0  0  0
  2 17  1  1  0  0  0
  3  9  1  0  0  0  0
  3  8  1  0  0  0  0
  4  2  1  0  0  0  0
  4  6  1  0  0  0  0
  5  2  1  0  0  0  0
  7 11  1  0  0  0  0
  7 12  1  0  0  0  0
  8  6  2  0  0  0  0
 10  7  2  0  0  0  0
 11  3  2  0  0  0  0
 12  4  2  0  0  0  0
 13 11  1  0  0  0  0
 14 13  1  0  0  0  0
 16 15  1  0  0  0  0
 16  1  1  0  0  0  0
 18 23  1  6  0  0  0
 18 20  1  0  0  0  0
 19 17  1  1  0  0  0
 19 20  1  0  0  0  0
 21 18  1  0  0  0  0
 22 21  1  0  0  0  0
 22 19  1  0  0  0  0
 24 23  1  0  0  0  0
 25 24  1  0  0  0  0
 25 27  1  0  0  0  0
 26 27  1  0  0  0  0
 27 28  1  0  0  0  0
M  END
>  <MODEL>
9

>  <REMARK>
 VINA RESULT:      -6.3      1.864      2.312
  Name = 
  8 active torsions:
  status: ('A' for Active; 'I' for Inactive)
    1  A    between atoms: N_1  and  C_18
    2  A    between atoms: C_2  and  N_19
    3  A    between atoms: C_4  and  N_20
    4  A    between atoms: C_4  and  C_25
    5  A    between atoms: C_6  and  C_23
    6  A    between atoms: C_8  and  N_19
    7  A    between atoms: O_11  and  C_17
    8  A    between atoms: N_20  and  C_23
                            x       y       z     vdW  Elec       q    Type
                         _______ _______ _______ _____ _____    ______ ____

>  <TORSDO>
F 8

$$$$
