=
 OpenBabel11042417163D

 31 35  0  0  1  0  0  0  0  0999 V2000
  187.7860  175.3240  144.1320 O   0  0  0  0  0  1  0  0  0  0  0  0
  187.9630  176.6450  144.5560 C   0  0  2  0  0  3  0  0  0  0  0  0
  184.0810  178.7460  145.6180 C   0  0  0  0  0  3  0  0  0  0  0  0
  188.4380  176.7020  146.0120 C   0  0  1  0  0  3  0  0  0  0  0  0
  186.2110  177.4850  145.8540 C   0  0  0  0  0  0  0  0  0  0  0  0
  184.8560  177.8890  146.2770 C   0  0  0  0  0  3  0  0  0  0  0  0
  187.1990  176.9880  146.8500 C   0  0  2  0  0  3  0  0  0  0  0  0
  185.8390  177.5990  143.3570 C   0  0  0  0  0  0  0  0  0  0  0  0
  184.5420  179.4680  144.3990 C   0  0  0  0  0  2  0  0  0  0  0  0
  187.4960  178.0290  147.8190 N   0  0  0  0  0  1  0  0  0  0  0  0
  186.6360  177.3310  144.5930 C   0  0  0  0  0  0  0  0  0  0  0  0
  184.8750  178.5210  143.2950 C   0  0  0  0  0  3  0  0  0  0  0  0
  186.0800  176.8370  142.1710 N   0  0  0  0  0  2  0  0  0  0  0  0
  187.7310  178.2370  141.2930 O   0  0  0  0  0  0  0  0  0  0  0  0
  187.1070  177.1440  141.2190 C   0  0  0  0  0  0  0  0  0  0  0  0
  189.2990  173.3280  140.1770 C   0  0  0  0  0  2  0  0  0  0  0  0
  187.4180  176.1940  140.1420 C   0  0  0  0  0  0  0  0  0  0  0  0
  189.0110  174.2390  141.2650 C   0  0  0  0  0  2  0  0  0  0  0  0
  187.2560  175.4250  137.7760 C   0  0  0  0  0  3  0  0  0  0  0  0
  188.4850  174.1850  139.2740 C   0  0  0  0  0  0  0  0  0  0  0  0
  188.2030  175.0720  140.3320 C   0  0  0  0  0  0  0  0  0  0  0  0
  188.0420  174.3200  138.0100 N   0  0  0  0  0  0  0  0  0  0  0  0
  186.9360  176.3610  138.8140 C   0  0  0  0  0  3  0  0  0  0  0  0
  189.2440  175.4820  146.4870 C   0  0  2  0  0  3  0  0  0  0  0  0
  188.5720  174.8290  147.5260 O   0  0  0  0  0  1  0  0  0  0  0  0
  190.6760  177.2160  147.3650 O   0  0  0  0  0  1  0  0  0  0  0  0
  190.6550  175.8830  146.9440 C   0  0  2  0  0  3  0  0  0  0  0  0
  192.8810  174.6660  146.1690 C   0  0  0  0  0  2  0  0  0  0  0  0
  192.0940  176.7720  144.9360 C   0  0  0  0  0  1  0  0  0  0  0  0
  191.7630  175.6540  145.9020 C   0  0  0  0  0  0  0  0  0  0  0  0
  191.7370  174.2910  145.2410 C   0  0  0  0  0  2  0  0  0  0  0  0
  2  1  1  1  0  0  0
  2 11  1  0  0  0  0
  2  4  1  0  0  0  0
  3  6  2  0  0  0  0
  4 24  1  1  0  0  0
  4  7  1  0  0  0  0
  5  6  1  0  0  0  0
  5  7  1  0  0  0  0
  7 10  1  1  0  0  0
  8 11  1  0  0  0  0
  9  3  1  0  0  0  0
 11  5  2  0  0  0  0
 12  8  2  0  0  0  0
 12  9  1  0  0  0  0
 13  8  1  0  0  0  0
 15 14  2  0  0  0  0
 15 13  1  0  0  0  0
 16 18  1  0  0  0  0
 17 21  1  0  0  0  0
 17 15  1  0  0  0  0
 19 22  2  0  0  0  0
 19 23  1  0  0  0  0
 20 16  1  0  0  0  0
 20 21  2  0  0  0  0
 21 18  1  0  0  0  0
 22 20  1  0  0  0  0
 23 17  2  0  0  0  0
 24 27  1  0  0  0  0
 24 25  1  1  0  0  0
 27 26  1  6  0  0  0
 29 30  1  0  0  0  0
 30 28  1  0  0  0  0
 30 27  1  0  0  0  0
 31 30  1  0  0  0  0
 31 28  1  0  0  0  0
M  END
>  <MODEL>
1

>  <REMARK>
 VINA RESULT:      -7.5      0.000      0.000
  Name = 
  5 active torsions:
  status: ('A' for Active; 'I' for Inactive)
    1  A    between atoms: C_3  and  C_20
    2  A    between atoms: C_4  and  C_12
    3  A    between atoms: C_4  and  C_22
    4  A    between atoms: N_15  and  C_21
    5  A    between atoms: C_22  and  C_25
                            x       y       z     vdW  Elec       q    Type
                         _______ _______ _______ _____ _____    ______ ____

>  <TORSDO>
F 5

$$$$
=
 OpenBabel11042417163D

 31 35  0  0  1  0  0  0  0  0999 V2000
  188.8480  174.5230  143.1740 O   0  0  0  0  0  1  0  0  0  0  0  0
  190.1370  175.0090  142.9280 C   0  0  2  0  0  3  0  0  0  0  0  0
  192.8120  174.9910  146.5950 C   0  0  0  0  0  3  0  0  0  0  0  0
  191.0060  173.9500  142.2400 C   0  0  1  0  0  3  0  0  0  0  0  0
  191.7470  174.2900  144.4610 C   0  0  0  0  0  0  0  0  0  0  0  0
  192.4500  174.0440  145.7360 C   0  0  0  0  0  3  0  0  0  0  0  0
  191.8520  173.3200  143.3380 C   0  0  2  0  0  3  0  0  0  0  0  0
  190.3820  176.2830  145.2020 C   0  0  0  0  0  0  0  0  0  0  0  0
  192.6160  176.4420  146.3190 C   0  0  0  0  0  2  0  0  0  0  0  0
  193.2320  173.2200  142.8930 N   0  0  0  0  0  1  0  0  0  0  0  0
  190.8310  175.2390  144.2300 C   0  0  0  0  0  0  0  0  0  0  0  0
  191.1710  176.7780  146.1600 C   0  0  0  0  0  3  0  0  0  0  0  0
  189.0440  176.7850  145.1450 N   0  0  0  0  0  2  0  0  0  0  0  0
  188.2020  175.4740  146.8860 O   0  0  0  0  0  0  0  0  0  0  0  0
  188.0150  176.4210  146.0750 C   0  0  0  0  0  0  0  0  0  0  0  0
  184.6320  177.9140  143.4720 C   0  0  0  0  0  2  0  0  0  0  0  0
  186.7310  177.1370  146.0680 C   0  0  0  0  0  0  0  0  0  0  0  0
  185.8920  177.2010  143.4390 C   0  0  0  0  0  2  0  0  0  0  0  0
  184.8890  178.3570  147.2220 C   0  0  0  0  0  3  0  0  0  0  0  0
  184.7790  178.0610  144.9440 C   0  0  0  0  0  0  0  0  0  0  0  0
  186.0040  177.3660  144.9140 C   0  0  0  0  0  0  0  0  0  0  0  0
  184.1980  178.5620  146.0500 N   0  0  0  0  0  0  0  0  0  0  0  0
  186.1400  177.6570  147.2520 C   0  0  0  0  0  3  0  0  0  0  0  0
  190.2420  172.9320  141.3790 C   0  0  2  0  0  3  0  0  0  0  0  0
  190.3830  171.6440  141.9070 O   0  0  0  0  0  1  0  0  0  0  0  0
  191.8360  173.7890  139.7810 O   0  0  0  0  0  1  0  0  0  0  0  0
  190.7210  172.9560  139.9200 C   0  0  2  0  0  3  0  0  0  0  0  0
  188.2470  172.7860  138.9770 C   0  0  0  0  0  2  0  0  0  0  0  0
  190.0930  173.8000  137.5140 C   0  0  0  0  0  1  0  0  0  0  0  0
  189.6490  173.3570  138.8920 C   0  0  0  0  0  0  0  0  0  0  0  0
  188.5240  174.2040  139.4510 C   0  0  0  0  0  2  0  0  0  0  0  0
  2  1  1  1  0  0  0
  2 11  1  0  0  0  0
  4 24  1  1  0  0  0
  4  2  1  0  0  0  0
  4  7  1  0  0  0  0
  5  6  1  0  0  0  0
  6  3  2  0  0  0  0
  7 10  1  6  0  0  0
  7  5  1  0  0  0  0
  8 12  2  0  0  0  0
  9  3  1  0  0  0  0
 11  5  2  0  0  0  0
 11  8  1  0  0  0  0
 12  9  1  0  0  0  0
 13  8  1  0  0  0  0
 13 15  1  0  0  0  0
 15 14  2  0  0  0  0
 16 20  1  0  0  0  0
 17 15  1  0  0  0  0
 17 23  1  0  0  0  0
 18 16  1  0  0  0  0
 18 21  1  0  0  0  0
 19 23  2  0  0  0  0
 20 22  2  0  0  0  0
 21 20  1  0  0  0  0
 21 17  2  0  0  0  0
 22 19  1  0  0  0  0
 24 25  1  1  0  0  0
 27 26  1  1  0  0  0
 27 24  1  0  0  0  0
 28 31  1  0  0  0  0
 29 30  1  0  0  0  0
 30 28  1  0  0  0  0
 30 31  1  0  0  0  0
 30 27  1  0  0  0  0
M  END
>  <MODEL>
2

>  <REMARK>
 VINA RESULT:      -7.4      2.470      7.113
  Name = 
  5 active torsions:
  status: ('A' for Active; 'I' for Inactive)
    1  A    between atoms: C_3  and  C_20
    2  A    between atoms: C_4  and  C_12
    3  A    between atoms: C_4  and  C_22
    4  A    between atoms: N_15  and  C_21
    5  A    between atoms: C_22  and  C_25
                            x       y       z     vdW  Elec       q    Type
                         _______ _______ _______ _____ _____    ______ ____

>  <TORSDO>
F 5

$$$$
=
 OpenBabel11042417163D

 31 35  0  0  1  0  0  0  0  0999 V2000
  191.6680  176.4470  142.8150 O   0  0  0  0  0  1  0  0  0  0  0  0
  192.4210  177.0210  143.8450 C   0  0  2  0  0  3  0  0  0  0  0  0
  191.3590  175.4380  147.9650 C   0  0  0  0  0  3  0  0  0  0  0  0
  193.8200  176.3970  143.9230 C   0  0  1  0  0  3  0  0  0  0  0  0
  192.5300  175.7330  145.7910 C   0  0  0  0  0  0  0  0  0  0  0  0
  192.1170  174.9630  146.9810 C   0  0  0  0  0  3  0  0  0  0  0  0
  193.7600  175.3640  145.0400 C   0  0  2  0  0  3  0  0  0  0  0  0
  190.4560  177.1590  145.5690 C   0  0  0  0  0  0  0  0  0  0  0  0
  190.9050  176.8560  148.0130 C   0  0  0  0  0  2  0  0  0  0  0  0
  194.9270  175.5040  145.8940 N   0  0  0  0  0  1  0  0  0  0  0  0
  191.8060  176.6650  145.1580 C   0  0  0  0  0  0  0  0  0  0  0  0
  190.0460  177.1950  146.8400 C   0  0  0  0  0  3  0  0  0  0  0  0
  189.5250  177.6030  144.5780 N   0  0  0  0  0  2  0  0  0  0  0  0
  188.5340  175.5210  144.2020 O   0  0  0  0  0  0  0  0  0  0  0  0
  188.5170  176.7660  143.9980 C   0  0  0  0  0  0  0  0  0  0  0  0
  184.8720  179.4420  143.9290 C   0  0  0  0  0  2  0  0  0  0  0  0
  187.4750  177.3540  143.1440 C   0  0  0  0  0  0  0  0  0  0  0  0
  185.8850  178.8840  144.8020 C   0  0  0  0  0  2  0  0  0  0  0  0
  186.3740  177.6830  140.9320 C   0  0  0  0  0  3  0  0  0  0  0  0
  185.5000  178.7310  142.7840 C   0  0  0  0  0  0  0  0  0  0  0  0
  186.4860  178.1890  143.6310 C   0  0  0  0  0  0  0  0  0  0  0  0
  185.4080  178.5100  141.4590 N   0  0  0  0  0  0  0  0  0  0  0  0
  187.4020  177.1030  141.7460 C   0  0  0  0  0  3  0  0  0  0  0  0
  194.3690  175.8500  142.5950 C   0  0  2  0  0  3  0  0  0  0  0  0
  194.2510  174.4570  142.5570 O   0  0  0  0  0  1  0  0  0  0  0  0
  195.9480  177.1210  141.2850 O   0  0  0  0  0  1  0  0  0  0  0  0
  195.8340  176.2600  142.3800 C   0  0  2  0  0  3  0  0  0  0  0  0
  196.8720  174.2990  140.9250 C   0  0  0  0  0  2  0  0  0  0  0  0
  197.2730  174.3470  143.4580 C   0  0  0  0  0  1  0  0  0  0  0  0
  196.8170  175.0880  142.2190 C   0  0  0  0  0  0  0  0  0  0  0  0
  197.9410  175.3370  141.2330 C   0  0  0  0  0  2  0  0  0  0  0  0
  2  1  1  6  0  0  0
  2  4  1  0  0  0  0
  2 11  1  0  0  0  0
  3  9  1  0  0  0  0
  4 24  1  6  0  0  0
  4  7  1  0  0  0  0
  5  6  1  0  0  0  0
  6  3  2  0  0  0  0
  7  5  1  0  0  0  0
  7 10  1  1  0  0  0
  8 12  2  0  0  0  0
 11  8  1  0  0  0  0
 11  5  2  0  0  0  0
 12  9  1  0  0  0  0
 13  8  1  0  0  0  0
 15 14  2  0  0  0  0
 15 13  1  0  0  0  0
 16 18  1  0  0  0  0
 17 21  1  0  0  0  0
 17 15  1  0  0  0  0
 19 22  2  0  0  0  0
 19 23  1  0  0  0  0
 20 21  2  0  0  0  0
 20 16  1  0  0  0  0
 21 18  1  0  0  0  0
 22 20  1  0  0  0  0
 23 17  2  0  0  0  0
 24 25  1  1  0  0  0
 27 26  1  6  0  0  0
 27 24  1  0  0  0  0
 28 31  1  0  0  0  0
 28 30  1  0  0  0  0
 30 27  1  0  0  0  0
 30 29  1  0  0  0  0
 31 30  1  0  0  0  0
M  END
>  <MODEL>
3

>  <REMARK>
 VINA RESULT:      -7.4      3.693      6.215
  Name = 
  5 active torsions:
  status: ('A' for Active; 'I' for Inactive)
    1  A    between atoms: C_3  and  C_20
    2  A    between atoms: C_4  and  C_12
    3  A    between atoms: C_4  and  C_22
    4  A    between atoms: N_15  and  C_21
    5  A    between atoms: C_22  and  C_25
                            x       y       z     vdW  Elec       q    Type
                         _______ _______ _______ _____ _____    ______ ____

>  <TORSDO>
F 5

$$$$
=
 OpenBabel11042417163D

 31 35  0  0  1  0  0  0  0  0999 V2000
  189.5820  174.7490  144.0010 O   0  0  0  0  0  1  0  0  0  0  0  0
  189.4610  176.0830  144.4010 C   0  0  2  0  0  3  0  0  0  0  0  0
  185.2650  177.7480  143.9230 C   0  0  0  0  0  3  0  0  0  0  0  0
  189.3750  176.1990  145.9270 C   0  0  1  0  0  3  0  0  0  0  0  0
  187.2860  176.7310  144.9550 C   0  0  0  0  0  0  0  0  0  0  0  0
  185.8350  176.9850  144.8510 C   0  0  0  0  0  3  0  0  0  0  0  0
  187.8960  176.3510  146.2570 C   0  0  2  0  0  3  0  0  0  0  0  0
  187.8220  176.7910  142.4860 C   0  0  0  0  0  0  0  0  0  0  0  0
  186.0560  178.5110  142.9160 C   0  0  0  0  0  2  0  0  0  0  0  0
  187.7210  177.4230  147.2220 N   0  0  0  0  0  1  0  0  0  0  0  0
  188.1470  176.6180  143.9350 C   0  0  0  0  0  0  0  0  0  0  0  0
  186.8560  177.6010  142.0450 C   0  0  0  0  0  3  0  0  0  0  0  0
  188.5470  176.0540  141.4980 N   0  0  0  0  0  2  0  0  0  0  0  0
  187.3980  174.0400  141.7800 O   0  0  0  0  0  0  0  0  0  0  0  0
  188.2300  174.7110  141.1110 C   0  0  0  0  0  0  0  0  0  0  0  0
  191.9340  172.5450  139.6850 C   0  0  0  0  0  2  0  0  0  0  0  0
  188.8930  174.1050  139.9480 C   0  0  0  0  0  0  0  0  0  0  0  0
  191.3110  173.1280  140.8540 C   0  0  0  0  0  2  0  0  0  0  0  0
  188.9710  173.4990  137.5320 C   0  0  0  0  0  3  0  0  0  0  0  0
  190.7460  172.9400  138.8820 C   0  0  0  0  0  0  0  0  0  0  0  0
  190.1380  173.5080  140.0190 C   0  0  0  0  0  0  0  0  0  0  0  0
  190.2110  172.9140  137.6480 N   0  0  0  0  0  0  0  0  0  0  0  0
  188.3040  174.0920  138.6540 C   0  0  0  0  0  3  0  0  0  0  0  0
  190.0770  175.0780  146.7110 C   0  0  2  0  0  3  0  0  0  0  0  0
  189.2330  174.5800  147.7090 O   0  0  0  0  0  1  0  0  0  0  0  0
  191.2570  176.8660  147.8240 O   0  0  0  0  0  1  0  0  0  0  0  0
  191.3950  175.5640  147.3310 C   0  0  2  0  0  3  0  0  0  0  0  0
  192.9690  176.6640  145.5000 C   0  0  0  0  0  2  0  0  0  0  0  0
  193.0890  174.1370  145.9220 C   0  0  0  0  0  1  0  0  0  0  0  0
  192.6160  175.4940  146.3970 C   0  0  0  0  0  0  0  0  0  0  0  0
  193.7560  176.4170  146.7780 C   0  0  0  0  0  2  0  0  0  0  0  0
  2  1  1  1  0  0  0
  2  4  1  0  0  0  0
  3  6  2  0  0  0  0
  4  7  1  0  0  0  0
  4 24  1  1  0  0  0
  5  7  1  0  0  0  0
  6  5  1  0  0  0  0
  7 10  1  1  0  0  0
  8 11  1  0  0  0  0
  9  3  1  0  0  0  0
 11  2  1  0  0  0  0
 11  5  2  0  0  0  0
 12  8  2  0  0  0  0
 12  9  1  0  0  0  0
 13  8  1  0  0  0  0
 15 13  1  0  0  0  0
 15 14  2  0  0  0  0
 16 18  1  0  0  0  0
 17 21  1  0  0  0  0
 17 15  1  0  0  0  0
 19 22  2  0  0  0  0
 19 23  1  0  0  0  0
 20 16  1  0  0  0  0
 20 21  2  0  0  0  0
 21 18  1  0  0  0  0
 22 20  1  0  0  0  0
 23 17  2  0  0  0  0
 24 27  1  0  0  0  0
 24 25  1  1  0  0  0
 27 26  1  6  0  0  0
 28 30  1  0  0  0  0
 28 31  1  0  0  0  0
 29 30  1  0  0  0  0
 30 31  1  0  0  0  0
 30 27  1  0  0  0  0
M  END
>  <MODEL>
4

>  <REMARK>
 VINA RESULT:      -7.3      1.618      2.247
  Name = 
  5 active torsions:
  status: ('A' for Active; 'I' for Inactive)
    1  A    between atoms: C_3  and  C_20
    2  A    between atoms: C_4  and  C_12
    3  A    between atoms: C_4  and  C_22
    4  A    between atoms: N_15  and  C_21
    5  A    between atoms: C_22  and  C_25
                            x       y       z     vdW  Elec       q    Type
                         _______ _______ _______ _____ _____    ______ ____

>  <TORSDO>
F 5

$$$$
=
 OpenBabel11042417163D

 31 35  0  0  1  0  0  0  0  0999 V2000
  189.0480  174.2770  143.1600 O   0  0  0  0  0  1  0  0  0  0  0  0
  190.3110  174.8100  142.8820 C   0  0  2  0  0  3  0  0  0  0  0  0
  193.0930  174.8530  146.4680 C   0  0  0  0  0  3  0  0  0  0  0  0
  191.1970  173.7910  142.1570 C   0  0  1  0  0  3  0  0  0  0  0  0
  191.9900  174.1350  144.3590 C   0  0  0  0  0  0  0  0  0  0  0  0
  192.7390  173.9010  145.6090 C   0  0  0  0  0  3  0  0  0  0  0  0
  192.0970  173.1800  143.2230 C   0  0  2  0  0  3  0  0  0  0  0  0
  190.5780  176.0710  145.1610 C   0  0  0  0  0  0  0  0  0  0  0  0
  192.8370  176.2980  146.2130 C   0  0  0  0  0  2  0  0  0  0  0  0
  193.4650  173.1340  142.7360 N   0  0  0  0  0  1  0  0  0  0  0  0
  191.0350  175.0530  144.1650 C   0  0  0  0  0  0  0  0  0  0  0  0
  191.3770  176.5840  146.1010 C   0  0  0  0  0  3  0  0  0  0  0  0
  189.2220  176.5250  145.1490 N   0  0  0  0  0  2  0  0  0  0  0  0
  189.5520  178.2900  143.6550 O   0  0  0  0  0  0  0  0  0  0  0  0
  188.7390  177.5750  144.3030 C   0  0  0  0  0  0  0  0  0  0  0  0
  184.8100  177.4760  146.5400 C   0  0  0  0  0  2  0  0  0  0  0  0
  187.2960  177.8370  144.2060 C   0  0  0  0  0  0  0  0  0  0  0  0
  186.2270  177.2100  146.6740 C   0  0  0  0  0  2  0  0  0  0  0  0
  185.2720  178.5580  142.9420 C   0  0  0  0  0  3  0  0  0  0  0  0
  185.0440  177.8920  145.1320 C   0  0  0  0  0  0  0  0  0  0  0  0
  186.4230  177.6350  145.2600 C   0  0  0  0  0  0  0  0  0  0  0  0
  184.4400  178.3440  144.0170 N   0  0  0  0  0  0  0  0  0  0  0  0
  186.6840  178.3140  143.0150 C   0  0  0  0  0  3  0  0  0  0  0  0
  190.4440  172.7550  141.3070 C   0  0  2  0  0  3  0  0  0  0  0  0
  190.7300  171.4590  141.7530 O   0  0  0  0  0  1  0  0  0  0  0  0
  191.8580  173.7740  139.6380 O   0  0  0  0  0  1  0  0  0  0  0  0
  190.7930  172.8860  139.8170 C   0  0  2  0  0  3  0  0  0  0  0  0
  188.2410  172.7040  139.1150 C   0  0  0  0  0  2  0  0  0  0  0  0
  189.9230  173.7860  137.5090 C   0  0  0  0  0  1  0  0  0  0  0  0
  189.6210  173.2990  138.9100 C   0  0  0  0  0  0  0  0  0  0  0  0
  188.5450  174.1140  139.6000 C   0  0  0  0  0  2  0  0  0  0  0  0
  2  1  1  1  0  0  0
  2 11  1  0  0  0  0
  4 24  1  1  0  0  0
  4  2  1  0  0  0  0
  4  7  1  0  0  0  0
  5  6  1  0  0  0  0
  6  3  2  0  0  0  0
  7 10  1  6  0  0  0
  7  5  1  0  0  0  0
  8 12  2  0  0  0  0
  9  3  1  0  0  0  0
 11  5  2  0  0  0  0
 11  8  1  0  0  0  0
 12  9  1  0  0  0  0
 13  8  1  0  0  0  0
 14 15  2  0  0  0  0
 15 13  1  0  0  0  0
 16 18  1  0  0  0  0
 17 15  1  0  0  0  0
 17 21  1  0  0  0  0
 19 23  1  0  0  0  0
 19 22  2  0  0  0  0
 20 21  2  0  0  0  0
 20 16  1  0  0  0  0
 21 18  1  0  0  0  0
 22 20  1  0  0  0  0
 23 17  2  0  0  0  0
 24 25  1  1  0  0  0
 27 26  1  1  0  0  0
 27 24  1  0  0  0  0
 28 31  1  0  0  0  0
 29 30  1  0  0  0  0
 30 28  1  0  0  0  0
 30 31  1  0  0  0  0
 30 27  1  0  0  0  0
M  END
>  <MODEL>
5

>  <REMARK>
 VINA RESULT:      -7.2      2.549      6.866
  Name = 
  5 active torsions:
  status: ('A' for Active; 'I' for Inactive)
    1  A    between atoms: C_3  and  C_20
    2  A    between atoms: C_4  and  C_12
    3  A    between atoms: C_4  and  C_22
    4  A    between atoms: N_15  and  C_21
    5  A    between atoms: C_22  and  C_25
                            x       y       z     vdW  Elec       q    Type
                         _______ _______ _______ _____ _____    ______ ____

>  <TORSDO>
F 5

$$$$
=
 OpenBabel11042417163D

 31 35  0  0  1  0  0  0  0  0999 V2000
  190.9400  176.7250  143.2410 O   0  0  0  0  0  1  0  0  0  0  0  0
  191.1530  175.3430  143.2770 C   0  0  2  0  0  3  0  0  0  0  0  0
  189.0430  173.0950  139.9450 C   0  0  0  0  0  3  0  0  0  0  0  0
  192.5280  174.9780  142.7050 C   0  0  1  0  0  3  0  0  0  0  0  0
  190.8210  174.2630  141.2320 C   0  0  0  0  0  0  0  0  0  0  0  0
  190.1760  173.7890  139.9910 C   0  0  0  0  0  3  0  0  0  0  0  0
  192.2840  174.5320  141.2700 C   0  0  2  0  0  3  0  0  0  0  0  0
  188.7200  174.6780  142.5740 C   0  0  0  0  0  0  0  0  0  0  0  0
  188.3300  172.6420  141.1720 C   0  0  0  0  0  2  0  0  0  0  0  0
  193.0230  173.3080  141.0090 N   0  0  0  0  0  1  0  0  0  0  0  0
  190.1980  174.6750  142.3440 C   0  0  0  0  0  0  0  0  0  0  0  0
  187.8900  173.7970  142.0090 C   0  0  0  0  0  3  0  0  0  0  0  0
  188.1300  175.6710  143.4170 N   0  0  0  0  0  2  0  0  0  0  0  0
  187.8770  177.3010  141.7630 O   0  0  0  0  0  0  0  0  0  0  0  0
  187.6340  176.9290  142.9430 C   0  0  0  0  0  0  0  0  0  0  0  0
  186.3760  177.6310  147.2300 C   0  0  0  0  0  2  0  0  0  0  0  0
  186.8600  177.7990  143.8400 C   0  0  0  0  0  0  0  0  0  0  0  0
  187.1520  176.7540  146.3780 C   0  0  0  0  0  2  0  0  0  0  0  0
  185.3820  179.7620  144.2630 C   0  0  0  0  0  3  0  0  0  0  0  0
  186.0150  178.4360  146.0330 C   0  0  0  0  0  0  0  0  0  0  0  0
  186.7700  177.5840  145.2030 C   0  0  0  0  0  0  0  0  0  0  0  0
  185.3220  179.5110  145.6150 N   0  0  0  0  0  0  0  0  0  0  0  0
  186.1360  178.9290  143.3710 C   0  0  0  0  0  3  0  0  0  0  0  0
  193.6060  176.0650  142.8460 C   0  0  2  0  0  3  0  0  0  0  0  0
  194.1070  176.4190  141.5890 O   0  0  0  0  0  1  0  0  0  0  0  0
  195.0270  174.2490  143.5600 O   0  0  0  0  0  1  0  0  0  0  0  0
  194.7530  175.6060  143.7580 C   0  0  2  0  0  3  0  0  0  0  0  0
  193.7350  174.9060  146.1060 C   0  0  0  0  0  2  0  0  0  0  0  0
  194.5720  177.3040  145.7520 C   0  0  0  0  0  1  0  0  0  0  0  0
  194.5360  175.8740  145.2580 C   0  0  0  0  0  0  0  0  0  0  0  0
  195.2540  174.9110  146.1820 C   0  0  0  0  0  2  0  0  0  0  0  0
  2  1  1  6  0  0  0
  3  6  2  0  0  0  0
  3  9  1  0  0  0  0
  4 24  1  6  0  0  0
  4  2  1  0  0  0  0
  5  7  1  0  0  0  0
  5 11  2  0  0  0  0
  6  5  1  0  0  0  0
  7 10  1  1  0  0  0
  7  4  1  0  0  0  0
  8 13  1  0  0  0  0
  9 12  1  0  0  0  0
 11  8  1  0  0  0  0
 11  2  1  0  0  0  0
 12  8  2  0  0  0  0
 14 15  2  0  0  0  0
 15 13  1  0  0  0  0
 15 17  1  0  0  0  0
 17 21  1  0  0  0  0
 18 16  1  0  0  0  0
 19 22  2  0  0  0  0
 20 16  1  0  0  0  0
 21 20  2  0  0  0  0
 21 18  1  0  0  0  0
 22 20  1  0  0  0  0
 23 17  2  0  0  0  0
 23 19  1  0  0  0  0
 24 25  1  6  0  0  0
 24 27  1  0  0  0  0
 27 26  1  1  0  0  0
 27 30  1  0  0  0  0
 28 31  1  0  0  0  0
 30 29  1  0  0  0  0
 30 28  1  0  0  0  0
 30 31  1  0  0  0  0
M  END
>  <MODEL>
6

>  <REMARK>
 VINA RESULT:      -7.1      2.758      6.272
  Name = 
  5 active torsions:
  status: ('A' for Active; 'I' for Inactive)
    1  A    between atoms: C_3  and  C_20
    2  A    between atoms: C_4  and  C_12
    3  A    between atoms: C_4  and  C_22
    4  A    between atoms: N_15  and  C_21
    5  A    between atoms: C_22  and  C_25
                            x       y       z     vdW  Elec       q    Type
                         _______ _______ _______ _____ _____    ______ ____

>  <TORSDO>
F 5

$$$$
=
 OpenBabel11042417163D

 31 35  0  0  1  0  0  0  0  0999 V2000
  190.0100  175.5700  143.1070 O   0  0  0  0  0  1  0  0  0  0  0  0
  189.9600  174.7070  144.2060 C   0  0  2  0  0  3  0  0  0  0  0  0
  194.0390  173.2270  145.5390 C   0  0  0  0  0  3  0  0  0  0  0  0
  189.7720  175.4850  145.5140 C   0  0  1  0  0  3  0  0  0  0  0  0
  191.9520  174.5740  145.4190 C   0  0  0  0  0  0  0  0  0  0  0  0
  193.3760  174.3610  145.7470 C   0  0  0  0  0  3  0  0  0  0  0  0
  191.1560  175.6050  146.1370 C   0  0  2  0  0  3  0  0  0  0  0  0
  191.8480  173.0970  143.3710 C   0  0  0  0  0  0  0  0  0  0  0  0
  193.3800  171.9980  145.0170 C   0  0  0  0  0  2  0  0  0  0  0  0
  191.0810  175.2820  147.5520 N   0  0  0  0  0  1  0  0  0  0  0  0
  191.2910  174.0520  144.3770 C   0  0  0  0  0  0  0  0  0  0  0  0
  192.8130  172.2170  143.6540 C   0  0  0  0  0  3  0  0  0  0  0  0
  191.3620  173.1110  142.0260 N   0  0  0  0  0  2  0  0  0  0  0  0
  189.6540  171.5500  142.3520 O   0  0  0  0  0  0  0  0  0  0  0  0
  190.1990  172.3950  141.5900 C   0  0  0  0  0  0  0  0  0  0  0  0
  189.8440  170.7160  137.4070 C   0  0  0  0  0  2  0  0  0  0  0  0
  189.6540  172.6280  140.2450 C   0  0  0  0  0  0  0  0  0  0  0  0
  190.3930  170.4500  138.7200 C   0  0  0  0  0  2  0  0  0  0  0  0
  188.3910  174.0040  138.5940 C   0  0  0  0  0  3  0  0  0  0  0  0
  189.2930  171.9970  137.9220 C   0  0  0  0  0  0  0  0  0  0  0  0
  189.8250  171.7390  139.2000 C   0  0  0  0  0  0  0  0  0  0  0  0
  188.5850  173.0910  137.5820 N   0  0  0  0  0  0  0  0  0  0  0  0
  188.9100  173.7940  139.9140 C   0  0  0  0  0  3  0  0  0  0  0  0
  189.0300  176.8250  145.3780 C   0  0  2  0  0  3  0  0  0  0  0  0
  189.9130  177.8920  145.5760 O   0  0  0  0  0  1  0  0  0  0  0  0
  187.7400  175.7440  147.1090 O   0  0  0  0  0  1  0  0  0  0  0  0
  187.8590  176.9230  146.3670 C   0  0  2  0  0  3  0  0  0  0  0  0
  186.3690  178.4550  144.7940 C   0  0  0  0  0  2  0  0  0  0  0  0
  185.2360  176.8610  146.4530 C   0  0  0  0  0  1  0  0  0  0  0  0
  186.5020  177.2710  145.7310 C   0  0  0  0  0  0  0  0  0  0  0  0
  186.4280  177.0420  144.2350 C   0  0  0  0  0  2  0  0  0  0  0  0
  2  1  1  6  0  0  0
  2 11  1  0  0  0  0
  2  4  1  0  0  0  0
  3  6  2  0  0  0  0
  4 24  1  6  0  0  0
  4  7  1  0  0  0  0
  5  6  1  0  0  0  0
  5  7  1  0  0  0  0
  7 10  1  1  0  0  0
  8 12  2  0  0  0  0
  8 11  1  0  0  0  0
  9  3  1  0  0  0  0
 11  5  2  0  0  0  0
 12  9  1  0  0  0  0
 13  8  1  0  0  0  0
 15 13  1  0  0  0  0
 15 14  2  0  0  0  0
 16 20  1  0  0  0  0
 16 18  1  0  0  0  0
 17 15  1  0  0  0  0
 18 21  1  0  0  0  0
 19 23  2  0  0  0  0
 20 21  1  0  0  0  0
 21 17  2  0  0  0  0
 22 20  2  0  0  0  0
 22 19  1  0  0  0  0
 23 17  1  0  0  0  0
 24 25  1  1  0  0  0
 24 27  1  0  0  0  0
 27 26  1  6  0  0  0
 28 30  1  0  0  0  0
 30 27  1  0  0  0  0
 30 29  1  0  0  0  0
 31 28  1  0  0  0  0
 31 30  1  0  0  0  0
M  END
>  <MODEL>
7

>  <REMARK>
 VINA RESULT:      -6.9      2.293      5.877
  Name = 
  5 active torsions:
  status: ('A' for Active; 'I' for Inactive)
    1  A    between atoms: C_3  and  C_20
    2  A    between atoms: C_4  and  C_12
    3  A    between atoms: C_4  and  C_22
    4  A    between atoms: N_15  and  C_21
    5  A    between atoms: C_22  and  C_25
                            x       y       z     vdW  Elec       q    Type
                         _______ _______ _______ _____ _____    ______ ____

>  <TORSDO>
F 5

$$$$
=
 OpenBabel11042417163D

 31 35  0  0  1  0  0  0  0  0999 V2000
  189.6380  174.6910  144.6420 O   0  0  0  0  0  1  0  0  0  0  0  0
  189.4830  176.0810  144.6690 C   0  0  2  0  0  3  0  0  0  0  0  0
  185.2900  177.4180  145.7830 C   0  0  0  0  0  3  0  0  0  0  0  0
  190.0580  176.6790  145.9580 C   0  0  1  0  0  3  0  0  0  0  0  0
  187.6980  176.8270  145.9780 C   0  0  0  0  0  0  0  0  0  0  0  0
  186.3290  177.0050  146.5030 C   0  0  0  0  0  3  0  0  0  0  0  0
  188.8720  176.8980  146.8880 C   0  0  2  0  0  3  0  0  0  0  0  0
  187.0760  176.1030  143.6380 C   0  0  0  0  0  0  0  0  0  0  0  0
  185.4170  177.8330  144.3580 C   0  0  0  0  0  2  0  0  0  0  0  0
  188.9610  178.2190  147.4860 N   0  0  0  0  0  1  0  0  0  0  0  0
  188.0290  176.4110  144.7490 C   0  0  0  0  0  0  0  0  0  0  0  0
  185.8930  176.7090  143.5000 C   0  0  0  0  0  3  0  0  0  0  0  0
  187.4060  175.1030  142.6700 N   0  0  0  0  0  2  0  0  0  0  0  0
  188.2220  176.5710  141.0470 O   0  0  0  0  0  0  0  0  0  0  0  0
  188.0690  175.3790  141.4300 C   0  0  0  0  0  0  0  0  0  0  0  0
  188.3070  173.7760  137.2090 C   0  0  0  0  0  2  0  0  0  0  0  0
  188.5520  174.2730  140.5920 C   0  0  0  0  0  0  0  0  0  0  0  0
  187.8200  174.8860  138.0020 C   0  0  0  0  0  2  0  0  0  0  0  0
  189.7020  172.0820  140.2930 C   0  0  0  0  0  3  0  0  0  0  0  0
  188.8380  173.1520  138.4500 C   0  0  0  0  0  0  0  0  0  0  0  0
  188.3660  174.2310  139.2220 C   0  0  0  0  0  0  0  0  0  0  0  0
  189.4960  172.0820  138.9330 N   0  0  0  0  0  0  0  0  0  0  0  0
  189.2450  173.1530  141.1290 C   0  0  0  0  0  3  0  0  0  0  0  0
  191.2100  175.8830  146.5930 C   0  0  2  0  0  3  0  0  0  0  0  0
  191.1680  175.9940  147.9870 O   0  0  0  0  0  1  0  0  0  0  0  0
  192.4150  177.2240  144.9870 O   0  0  0  0  0  1  0  0  0  0  0  0
  192.5750  176.3540  146.0690 C   0  0  2  0  0  3  0  0  0  0  0  0
  193.0290  173.8270  145.4000 C   0  0  0  0  0  2  0  0  0  0  0  0
  194.9830  175.3090  146.1490 C   0  0  0  0  0  1  0  0  0  0  0  0
  193.5450  175.2240  145.6820 C   0  0  0  0  0  0  0  0  0  0  0  0
  193.4170  174.7440  144.2500 C   0  0  0  0  0  2  0  0  0  0  0  0
  2  1  1  1  0  0  0
  2 11  1  0  0  0  0
  2  4  1  0  0  0  0
  3  6  2  0  0  0  0
  4 24  1  1  0  0  0
  4  7  1  0  0  0  0
  5  6  1  0  0  0  0
  5  7  1  0  0  0  0
  7 10  1  6  0  0  0
  8 11  1  0  0  0  0
  9  3  1  0  0  0  0
 11  5  2  0  0  0  0
 12  8  2  0  0  0  0
 12  9  1  0  0  0  0
 13  8  1  0  0  0  0
 14 15  2  0  0  0  0
 15 13  1  0  0  0  0
 16 18  1  0  0  0  0
 16 20  1  0  0  0  0
 17 23  1  0  0  0  0
 17 15  1  0  0  0  0
 18 21  1  0  0  0  0
 19 23  2  0  0  0  0
 20 22  2  0  0  0  0
 20 21  1  0  0  0  0
 21 17  2  0  0  0  0
 22 19  1  0  0  0  0
 24 25  1  1  0  0  0
 27 26  1  6  0  0  0
 27 24  1  0  0  0  0
 28 30  1  0  0  0  0
 30 27  1  0  0  0  0
 30 29  1  0  0  0  0
 31 28  1  0  0  0  0
 31 30  1  0  0  0  0
M  END
>  <MODEL>
8

>  <REMARK>
 VINA RESULT:      -6.9      1.491      2.412
  Name = 
  5 active torsions:
  status: ('A' for Active; 'I' for Inactive)
    1  A    between atoms: C_3  and  C_20
    2  A    between atoms: C_4  and  C_12
    3  A    between atoms: C_4  and  C_22
    4  A    between atoms: N_15  and  C_21
    5  A    between atoms: C_22  and  C_25
                            x       y       z     vdW  Elec       q    Type
                         _______ _______ _______ _____ _____    ______ ____

>  <TORSDO>
F 5

$$$$
=
 OpenBabel11042417163D

 31 35  0  0  1  0  0  0  0  0999 V2000
  188.3930  175.5730  144.1760 O   0  0  0  0  0  1  0  0  0  0  0  0
  188.2600  176.9390  143.9060 C   0  0  2  0  0  3  0  0  0  0  0  0
  184.6680  177.9340  141.3140 C   0  0  0  0  0  3  0  0  0  0  0  0
  187.6530  177.6840  145.1010 C   0  0  1  0  0  3  0  0  0  0  0  0
  186.0960  177.6000  143.3220 C   0  0  0  0  0  0  0  0  0  0  0  0
  184.8040  177.6800  142.6120 C   0  0  0  0  0  3  0  0  0  0  0  0
  186.1730  177.8530  144.7860 C   0  0  2  0  0  3  0  0  0  0  0  0
  187.4700  176.6480  141.4270 C   0  0  0  0  0  0  0  0  0  0  0  0
  185.8280  178.2540  140.4340 C   0  0  0  0  0  2  0  0  0  0  0  0
  185.7660  179.2170  145.0780 N   0  0  0  0  0  1  0  0  0  0  0  0
  187.2470  177.1290  142.8250 C   0  0  0  0  0  0  0  0  0  0  0  0
  186.7980  177.1220  140.3740 C   0  0  0  0  0  3  0  0  0  0  0  0
  188.4270  175.6160  141.1700 N   0  0  0  0  0  2  0  0  0  0  0  0
  187.0720  173.8330  141.8350 O   0  0  0  0  0  0  0  0  0  0  0  0
  188.1460  174.2160  141.2950 C   0  0  0  0  0  0  0  0  0  0  0  0
  190.7940  170.7550  142.5020 C   0  0  0  0  0  2  0  0  0  0  0  0
  189.1190  173.2250  140.8150 C   0  0  0  0  0  0  0  0  0  0  0  0
  189.8360  171.7140  143.0120 C   0  0  0  0  0  2  0  0  0  0  0  0
  190.4910  172.1870  139.0120 C   0  0  0  0  0  3  0  0  0  0  0  0
  190.6380  171.3530  141.1500 C   0  0  0  0  0  0  0  0  0  0  0  0
  189.7060  172.2860  141.6430 C   0  0  0  0  0  0  0  0  0  0  0  0
  191.0500  171.2690  139.8710 N   0  0  0  0  0  0  0  0  0  0  0  0
  189.5360  173.1600  139.4570 C   0  0  0  0  0  3  0  0  0  0  0  0
  187.9310  177.0550  146.4760 C   0  0  2  0  0  3  0  0  0  0  0  0
  187.1410  177.6630  147.4580 O   0  0  0  0  0  1  0  0  0  0  0  0
  190.1260  177.8570  145.8720 O   0  0  0  0  0  1  0  0  0  0  0  0
  189.4150  177.1610  146.8550 C   0  0  2  0  0  3  0  0  0  0  0  0
  191.5000  175.5400  146.6030 C   0  0  0  0  0  2  0  0  0  0  0  0
  189.2520  174.5990  147.4010 C   0  0  0  0  0  1  0  0  0  0  0  0
  190.1100  175.8180  147.1390 C   0  0  0  0  0  0  0  0  0  0  0  0
  191.3060  175.9090  148.0650 C   0  0  0  0  0  2  0  0  0  0  0  0
  2  1  1  1  0  0  0
  2  4  1  0  0  0  0
  3  6  2  0  0  0  0
  4 24  1  1  0  0  0
  5  7  1  0  0  0  0
  6  5  1  0  0  0  0
  7 10  1  6  0  0  0
  7  4  1  0  0  0  0
  8 11  1  0  0  0  0
  9  3  1  0  0  0  0
 11  5  2  0  0  0  0
 11  2  1  0  0  0  0
 12  9  1  0  0  0  0
 12  8  2  0  0  0  0
 13 15  1  0  0  0  0
 13  8  1  0  0  0  0
 15 14  2  0  0  0  0
 16 18  1  0  0  0  0
 17 15  1  0  0  0  0
 17 21  1  0  0  0  0
 19 23  1  0  0  0  0
 19 22  2  0  0  0  0
 20 21  2  0  0  0  0
 20 16  1  0  0  0  0
 21 18  1  0  0  0  0
 22 20  1  0  0  0  0
 23 17  2  0  0  0  0
 24 27  1  0  0  0  0
 24 25  1  1  0  0  0
 27 26  1  6  0  0  0
 27 30  1  0  0  0  0
 28 30  1  0  0  0  0
 28 31  1  0  0  0  0
 30 29  1  0  0  0  0
 30 31  1  0  0  0  0
M  END
>  <MODEL>
9

>  <REMARK>
 VINA RESULT:      -6.9      2.012      3.242
  Name = 
  5 active torsions:
  status: ('A' for Active; 'I' for Inactive)
    1  A    between atoms: C_3  and  C_20
    2  A    between atoms: C_4  and  C_12
    3  A    between atoms: C_4  and  C_22
    4  A    between atoms: N_15  and  C_21
    5  A    between atoms: C_22  and  C_25
                            x       y       z     vdW  Elec       q    Type
                         _______ _______ _______ _____ _____    ______ ____

>  <TORSDO>
F 5

$$$$
