=
 OpenBabel11042418343D

 37 43  0  0  1  0  0  0  0  0999 V2000
  191.5350  177.4060  149.2280 O   0  0  0  0  0  0  0  0  0  0  0  0
  191.6360  174.9190  144.5030 O   0  0  0  0  0  0  0  0  0  0  0  0
  190.4120  174.2920  144.7750 C   0  0  1  0  0  3  0  0  0  0  0  0
  190.0400  172.8020  142.7740 C   0  0  0  0  0  3  0  0  0  0  0  0
  187.4560  175.3920  142.6900 N   0  0  0  0  0  0  0  0  0  0  0  0
  188.6040  174.7470  143.0590 C   0  0  0  0  0  0  0  0  0  0  0  0
  184.9140  178.2700  144.8380 N   0  0  0  0  0  0  0  0  0  0  0  0
  189.2660  175.1190  144.2530 C   0  0  0  0  0  0  0  0  0  0  0  0
  190.3800  172.8540  144.2350 C   0  0  0  0  0  2  0  0  0  0  0  0
  187.5480  176.7820  144.6130 C   0  0  0  0  0  0  0  0  0  0  0  0
  189.1160  176.7660  146.2620 C   0  0  0  0  0  0  0  0  0  0  0  0
  189.1580  173.6480  142.2230 C   0  0  0  0  0  0  0  0  0  0  0  0
  185.8450  177.0390  142.9190 C   0  0  0  0  0  3  0  0  0  0  0  0
  191.7940  176.5740  146.8150 C   0  0  1  0  0  3  0  0  0  0  0  0
  191.3420  177.0370  148.0410 C   0  0  0  0  0  0  0  0  0  0  0  0
  192.1230  175.1000  146.9010 C   0  0  0  0  0  2  0  0  0  0  0  0
  190.4120  176.7550  146.8580 N   0  0  0  0  0  0  0  0  0  0  0  0
  187.1030  177.5330  145.6270 C   0  0  0  0  0  0  0  0  0  0  0  0
  186.9050  176.4020  143.4220 C   0  0  0  0  0  0  0  0  0  0  0  0
  188.7530  176.2120  144.9620 C   0  0  0  0  0  0  0  0  0  0  0  0
  185.1730  178.0850  147.2110 C   0  0  0  0  0  1  0  0  0  0  0  0
  188.1330  177.5510  146.6800 C   0  0  0  0  0  3  0  0  0  0  0  0
  185.7110  177.9940  145.8260 C   0  0  0  0  0  0  0  0  0  0  0  0
  185.3110  178.3380  143.4390 C   0  0  0  0  0  2  0  0  0  0  0  0
  192.5270  174.5470  145.5300 C   0  0  0  0  0  2  0  0  0  0  0  0
  188.6560  174.5370  139.9610 C   0  0  0  0  0  3  0  0  0  0  0  0
  188.5820  172.3660  140.1650 C   0  0  0  0  0  3  0  0  0  0  0  0
  188.2610  172.6370  138.8480 C   0  0  0  0  0  3  0  0  0  0  0  0
  188.3360  174.0130  138.7290 C   0  0  0  0  0  0  0  0  0  0  0  0
  188.8240  173.5170  140.8260 N   0  0  0  0  0  0  0  0  0  0  0  0
  187.9850  174.8290  137.5540 C   0  0  0  0  0  3  0  0  0  0  0  0
  188.6090  174.8710  136.3640 C   0  0  0  0  0  0  0  0  0  0  0  0
  190.9740  174.8110  136.3830 O   0  0  0  0  0  1  0  0  0  0  0  0
  189.9600  172.9080  135.6260 O   0  0  0  0  0  0  0  0  0  0  0  0
  189.9020  174.2140  136.1000 C   0  0  0  0  0  0  0  0  0  0  0  0
  187.9880  176.8730  135.3100 O   0  0  0  0  0  1  0  0  0  0  0  0
  188.0210  175.6240  135.2970 N   0  0  0  0  0  2  0  0  0  0  0  0
  2  3  1  0  0  0  0
  2 25  1  0  0  0  0
  3  9  1  6  0  0  0
  4  9  1  0  0  0  0
  5  6  2  0  0  0  0
  5 19  1  0  0  0  0
  6  8  1  0  0  0  0
  7 23  2  0  0  0  0
  8  3  1  0  0  0  0
  8 20  2  0  0  0  0
 10 20  1  0  0  0  0
 10 18  2  0  0  0  0
 11 22  2  0  0  0  0
 11 17  1  0  0  0  0
 12  4  2  0  0  0  0
 12  6  1  0  0  0  0
 13 19  2  0  0  0  0
 13 24  1  0  0  0  0
 14 17  1  0  0  0  0
 14 16  1  1  0  0  0
 14 15  1  0  0  0  0
 15  1  2  0  0  0  0
 17 15  1  0  0  0  0
 18 23  1  0  0  0  0
 18 22  1  0  0  0  0
 19 10  1  0  0  0  0
 20 11  1  0  0  0  0
 23 21  1  0  0  0  0
 24  7  1  0  0  0  0
 25 16  1  0  0  0  0
 26 30  1  0  0  0  0
 27 30  1  0  0  0  0
 28 27  2  0  0  0  0
 29 28  1  0  0  0  0
 29 26  2  0  0  0  0
 30 12  1  0  0  0  0
 31 29  1  0  0  0  0
 32 31  2  0  0  0  0
 34 35  2  0  0  0  0
 35 32  1  0  0  0  0
 35 33  1  0  0  0  0
 37 36  1  0  0  0  0
 37 32  1  0  0  0  0
M  END
>  <MODEL>
1

>  <REMARK>
 VINA RESULT:      -8.7      0.000      0.000
  Name = 
  4 active torsions:
  status: ('A' for Active; 'I' for Inactive)
    1  A    between atoms: C_5  and  C_33
    2  A    between atoms: C_17  and  N_35
    3  A    between atoms: C_19  and  N_22
    4  A    between atoms: C_19  and  C_31
                            x       y       z     vdW  Elec       q    Type
                         _______ _______ _______ _____ _____    ______ ____

>  <TORSDO>
F 4

$$$$
=
 OpenBabel11042418343D

 37 43  0  0  1  0  0  0  0  0999 V2000
  191.5350  177.5150  149.2810 O   0  0  0  0  0  0  0  0  0  0  0  0
  191.8840  174.8870  144.6450 O   0  0  0  0  0  0  0  0  0  0  0  0
  190.6760  174.2220  144.8980 C   0  0  1  0  0  3  0  0  0  0  0  0
  190.4260  172.6570  142.9350 C   0  0  0  0  0  3  0  0  0  0  0  0
  187.7530  175.1440  142.6830 N   0  0  0  0  0  0  0  0  0  0  0  0
  188.9110  174.5540  143.1100 C   0  0  0  0  0  0  0  0  0  0  0  0
  185.0370  177.9890  144.6530 N   0  0  0  0  0  0  0  0  0  0  0  0
  189.5180  174.9880  144.3120 C   0  0  0  0  0  0  0  0  0  0  0  0
  190.7150  172.7680  144.4040 C   0  0  0  0  0  2  0  0  0  0  0  0
  187.7300  176.5950  144.5620 C   0  0  0  0  0  0  0  0  0  0  0  0
  189.2410  176.6900  146.2600 C   0  0  0  0  0  0  0  0  0  0  0  0
  189.5330  173.4510  142.3290 C   0  0  0  0  0  0  0  0  0  0  0  0
  186.0760  176.7340  142.8060 C   0  0  0  0  0  3  0  0  0  0  0  0
  191.9040  176.6180  146.9050 C   0  0  1  0  0  3  0  0  0  0  0  0
  191.3950  177.1020  148.1010 C   0  0  0  0  0  0  0  0  0  0  0  0
  192.2840  175.1610  147.0510 C   0  0  0  0  0  2  0  0  0  0  0  0
  190.5160  176.7480  146.8980 N   0  0  0  0  0  0  0  0  0  0  0  0
  187.2240  177.3610  145.5360 C   0  0  0  0  0  0  0  0  0  0  0  0
  187.1420  176.1540  143.3640 C   0  0  0  0  0  0  0  0  0  0  0  0
  188.9420  176.0830  144.9680 C   0  0  0  0  0  0  0  0  0  0  0  0
  185.2220  177.8890  147.0380 C   0  0  0  0  0  1  0  0  0  0  0  0
  188.2170  177.4510  146.6210 C   0  0  0  0  0  3  0  0  0  0  0  0
  185.8100  177.7740  145.6740 C   0  0  0  0  0  0  0  0  0  0  0  0
  185.4780  178.0270  143.2660 C   0  0  0  0  0  2  0  0  0  0  0  0
  192.7540  174.5810  145.7120 C   0  0  0  0  0  2  0  0  0  0  0  0
  189.9950  173.7370  139.9070 C   0  0  0  0  0  3  0  0  0  0  0  0
  188.1820  172.6270  140.4030 C   0  0  0  0  0  3  0  0  0  0  0  0
  188.2340  172.6770  139.0220 C   0  0  0  0  0  3  0  0  0  0  0  0
  189.3990  173.3620  138.7250 C   0  0  0  0  0  0  0  0  0  0  0  0
  189.2510  173.2630  140.9260 N   0  0  0  0  0  0  0  0  0  0  0  0
  189.8740  173.7800  137.3950 C   0  0  0  0  0  3  0  0  0  0  0  0
  190.4580  173.0210  136.4520 C   0  0  0  0  0  0  0  0  0  0  0  0
  191.9910  171.4110  137.2610 O   0  0  0  0  0  1  0  0  0  0  0  0
  190.0780  170.5570  136.3500 O   0  0  0  0  0  0  0  0  0  0  0  0
  190.8960  171.6320  136.6820 C   0  0  0  0  0  0  0  0  0  0  0  0
  190.0660  174.5640  134.7290 O   0  0  0  0  0  1  0  0  0  0  0  0
  190.7150  173.5890  135.1620 N   0  0  0  0  0  2  0  0  0  0  0  0
  2  3  1  0  0  0  0
  2 25  1  0  0  0  0
  3  9  1  6  0  0  0
  4  9  1  0  0  0  0
  5  6  2  0  0  0  0
  5 19  1  0  0  0  0
  6  8  1  0  0  0  0
  7 23  2  0  0  0  0
  8  3  1  0  0  0  0
  8 20  2  0  0  0  0
 10 20  1  0  0  0  0
 10 18  2  0  0  0  0
 11 22  2  0  0  0  0
 11 17  1  0  0  0  0
 12  4  2  0  0  0  0
 12  6  1  0  0  0  0
 13 24  1  0  0  0  0
 13 19  2  0  0  0  0
 14 16  1  1  0  0  0
 14 15  1  0  0  0  0
 15  1  2  0  0  0  0
 17 14  1  0  0  0  0
 17 15  1  0  0  0  0
 18 23  1  0  0  0  0
 18 22  1  0  0  0  0
 19 10  1  0  0  0  0
 20 11  1  0  0  0  0
 23 21  1  0  0  0  0
 24  7  1  0  0  0  0
 25 16  1  0  0  0  0
 26 30  1  0  0  0  0
 27 30  1  0  0  0  0
 28 27  2  0  0  0  0
 29 28  1  0  0  0  0
 29 26  2  0  0  0  0
 30 12  1  0  0  0  0
 31 29  1  0  0  0  0
 32 35  1  0  0  0  0
 32 31  2  0  0  0  0
 34 35  2  0  0  0  0
 35 33  1  0  0  0  0
 36 37  1  0  0  0  0
 37 32  1  0  0  0  0
M  END
>  <MODEL>
2

>  <REMARK>
 VINA RESULT:      -8.5      1.146      1.347
  Name = 
  4 active torsions:
  status: ('A' for Active; 'I' for Inactive)
    1  A    between atoms: C_5  and  C_33
    2  A    between atoms: C_17  and  N_35
    3  A    between atoms: C_19  and  N_22
    4  A    between atoms: C_19  and  C_31
                            x       y       z     vdW  Elec       q    Type
                         _______ _______ _______ _____ _____    ______ ____

>  <TORSDO>
F 4

$$$$
=
 OpenBabel11042418343D

 37 43  0  0  1  0  0  0  0  0999 V2000
  191.5670  177.5400  149.1060 O   0  0  0  0  0  0  0  0  0  0  0  0
  191.8700  174.5030  144.7240 O   0  0  0  0  0  0  0  0  0  0  0  0
  190.6000  173.9640  144.9750 C   0  0  1  0  0  3  0  0  0  0  0  0
  190.2940  172.2620  143.1390 C   0  0  0  0  0  3  0  0  0  0  0  0
  187.8550  174.9280  142.5600 N   0  0  0  0  0  0  0  0  0  0  0  0
  188.9410  174.2840  143.0870 C   0  0  0  0  0  0  0  0  0  0  0  0
  185.3180  178.1450  144.1620 N   0  0  0  0  0  0  0  0  0  0  0  0
  189.5360  174.7690  144.2750 C   0  0  0  0  0  0  0  0  0  0  0  0
  190.5340  172.4740  144.6050 C   0  0  0  0  0  2  0  0  0  0  0  0
  187.8830  176.5330  144.3100 C   0  0  0  0  0  0  0  0  0  0  0  0
  189.3300  176.6490  146.0620 C   0  0  0  0  0  0  0  0  0  0  0  0
  189.4960  173.0710  142.4290 C   0  0  0  0  0  0  0  0  0  0  0  0
  186.3160  176.6550  142.4750 C   0  0  0  0  0  3  0  0  0  0  0  0
  191.9500  176.4150  146.8320 C   0  0  1  0  0  3  0  0  0  0  0  0
  191.4380  177.0400  147.9590 C   0  0  0  0  0  0  0  0  0  0  0  0
  192.1980  174.9490  147.1140 C   0  0  0  0  0  2  0  0  0  0  0  0
  190.5790  176.6570  146.7500 N   0  0  0  0  0  0  0  0  0  0  0  0
  187.4070  177.4180  145.1930 C   0  0  0  0  0  0  0  0  0  0  0  0
  187.3060  176.0400  143.1260 C   0  0  0  0  0  0  0  0  0  0  0  0
  189.0300  175.9600  144.8120 C   0  0  0  0  0  0  0  0  0  0  0  0
  185.4010  178.2360  146.5530 C   0  0  0  0  0  1  0  0  0  0  0  0
  188.3610  177.5190  146.3110 C   0  0  0  0  0  3  0  0  0  0  0  0
  186.0290  177.9560  145.2320 C   0  0  0  0  0  0  0  0  0  0  0  0
  185.8140  178.0280  142.7980 C   0  0  0  0  0  2  0  0  0  0  0  0
  192.6680  174.2200  145.8510 C   0  0  0  0  0  2  0  0  0  0  0  0
  190.1400  172.2370  140.1810 C   0  0  0  0  0  3  0  0  0  0  0  0
  188.1270  173.0630  140.3460 C   0  0  0  0  0  3  0  0  0  0  0  0
  188.2750  172.6780  139.0260 C   0  0  0  0  0  3  0  0  0  0  0  0
  189.5450  172.1360  138.9440 C   0  0  0  0  0  0  0  0  0  0  0  0
  189.2540  172.7870  141.0350 N   0  0  0  0  0  0  0  0  0  0  0  0
  190.2400  171.6680  137.7320 C   0  0  0  0  0  3  0  0  0  0  0  0
  190.9610  172.3970  136.8630 C   0  0  0  0  0  0  0  0  0  0  0  0
  190.0660  174.5410  136.4140 O   0  0  0  0  0  0  0  0  0  0  0  0
  192.0710  174.5350  137.5110 O   0  0  0  0  0  1  0  0  0  0  0  0
  191.0200  173.8700  136.8890 C   0  0  0  0  0  0  0  0  0  0  0  0
  191.1090  170.9950  134.9870 O   0  0  0  0  0  1  0  0  0  0  0  0
  191.6820  171.7250  135.8230 N   0  0  0  0  0  2  0  0  0  0  0  0
  2  3  1  0  0  0  0
  2 25  1  0  0  0  0
  3  9  1  6  0  0  0
  4  9  1  0  0  0  0
  5  6  2  0  0  0  0
  5 19  1  0  0  0  0
  6  8  1  0  0  0  0
  7 23  2  0  0  0  0
  8 20  2  0  0  0  0
  8  3  1  0  0  0  0
 10 20  1  0  0  0  0
 10 18  2  0  0  0  0
 11 22  2  0  0  0  0
 11 17  1  0  0  0  0
 12  6  1  0  0  0  0
 12  4  2  0  0  0  0
 13 24  1  0  0  0  0
 13 19  2  0  0  0  0
 14 16  1  1  0  0  0
 14 15  1  0  0  0  0
 15  1  2  0  0  0  0
 17 14  1  0  0  0  0
 17 15  1  0  0  0  0
 18 23  1  0  0  0  0
 18 22  1  0  0  0  0
 19 10  1  0  0  0  0
 20 11  1  0  0  0  0
 23 21  1  0  0  0  0
 24  7  1  0  0  0  0
 25 16  1  0  0  0  0
 26 30  1  0  0  0  0
 27 30  1  0  0  0  0
 28 27  2  0  0  0  0
 29 28  1  0  0  0  0
 29 26  2  0  0  0  0
 30 12  1  0  0  0  0
 31 29  1  0  0  0  0
 32 35  1  0  0  0  0
 32 31  2  0  0  0  0
 33 35  2  0  0  0  0
 35 34  1  0  0  0  0
 36 37  1  0  0  0  0
 37 32  1  0  0  0  0
M  END
>  <MODEL>
3

>  <REMARK>
 VINA RESULT:      -8.1      1.409      1.913
  Name = 
  4 active torsions:
  status: ('A' for Active; 'I' for Inactive)
    1  A    between atoms: C_5  and  C_33
    2  A    between atoms: C_17  and  N_35
    3  A    between atoms: C_19  and  N_22
    4  A    between atoms: C_19  and  C_31
                            x       y       z     vdW  Elec       q    Type
                         _______ _______ _______ _____ _____    ______ ____

>  <TORSDO>
F 4

$$$$
=
 OpenBabel11042418343D

 37 43  0  0  1  0  0  0  0  0999 V2000
  185.4940  179.3890  147.9180 O   0  0  0  0  0  0  0  0  0  0  0  0
  185.3260  177.1790  143.0590 O   0  0  0  0  0  0  0  0  0  0  0  0
  186.6090  177.6600  142.7650 C   0  0  1  0  0  3  0  0  0  0  0  0
  186.9860  176.9510  140.3730 C   0  0  0  0  0  3  0  0  0  0  0  0
  189.3460  175.0710  142.4440 N   0  0  0  0  0  0  0  0  0  0  0  0
  188.2750  175.8610  142.1260 C   0  0  0  0  0  0  0  0  0  0  0  0
  191.7670  174.7820  146.1060 N   0  0  0  0  0  0  0  0  0  0  0  0
  187.6550  176.6390  143.1310 C   0  0  0  0  0  0  0  0  0  0  0  0
  186.7260  178.1040  141.2980 C   0  0  0  0  0  2  0  0  0  0  0  0
  189.2520  175.7540  144.7160 C   0  0  0  0  0  0  0  0  0  0  0  0
  187.7850  177.2110  145.6660 C   0  0  0  0  0  0  0  0  0  0  0  0
  187.7650  175.9210  140.7300 C   0  0  0  0  0  0  0  0  0  0  0  0
  190.8310  174.1020  143.9320 C   0  0  0  0  0  3  0  0  0  0  0  0
  185.1670  178.0130  145.7760 C   0  0  1  0  0  3  0  0  0  0  0  0
  185.6490  178.6580  146.9060 C   0  0  0  0  0  0  0  0  0  0  0  0
  184.9620  179.0080  144.6540 C   0  0  0  0  0  2  0  0  0  0  0  0
  186.5300  177.8090  145.9850 N   0  0  0  0  0  0  0  0  0  0  0  0
  189.6920  176.0560  145.9430 C   0  0  0  0  0  0  0  0  0  0  0  0
  189.8550  174.9840  143.7050 C   0  0  0  0  0  0  0  0  0  0  0  0
  188.1180  176.4870  144.4440 C   0  0  0  0  0  0  0  0  0  0  0  0
  191.6580  176.7910  147.4030 C   0  0  0  0  0  1  0  0  0  0  0  0
  188.7250  176.9730  146.5710 C   0  0  0  0  0  3  0  0  0  0  0  0
  191.0520  175.8030  146.4680 C   0  0  0  0  0  0  0  0  0  0  0  0
  191.2880  173.6740  145.2920 C   0  0  0  0  0  2  0  0  0  0  0  0
  184.5270  178.2980  143.3670 C   0  0  0  0  0  2  0  0  0  0  0  0
  188.5760  173.6690  140.0720 C   0  0  0  0  0  3  0  0  0  0  0  0
  187.8170  174.9160  138.4500 C   0  0  0  0  0  3  0  0  0  0  0  0
  188.2210  173.7300  137.8640 C   0  0  0  0  0  3  0  0  0  0  0  0
  188.6770  172.9440  138.9070 C   0  0  0  0  0  0  0  0  0  0  0  0
  188.0290  174.8660  139.7810 N   0  0  0  0  0  0  0  0  0  0  0  0
  189.3160  171.6200  138.8140 C   0  0  0  0  0  3  0  0  0  0  0  0
  190.6220  171.3450  138.6480 C   0  0  0  0  0  0  0  0  0  0  0  0
  192.0010  172.5460  137.1470 O   0  0  0  0  0  0  0  0  0  0  0  0
  192.1340  173.2070  139.3310 O   0  0  0  0  0  1  0  0  0  0  0  0
  191.6360  172.3690  138.3400 C   0  0  0  0  0  0  0  0  0  0  0  0
  190.4160  169.1180  139.3600 O   0  0  0  0  0  1  0  0  0  0  0  0
  191.0610  169.9840  138.7310 N   0  0  0  0  0  2  0  0  0  0  0  0
  2 25  1  0  0  0  0
  3  9  1  6  0  0  0
  3  2  1  0  0  0  0
  3  8  1  0  0  0  0
  4 12  2  0  0  0  0
  4  9  1  0  0  0  0
  5 19  1  0  0  0  0
  6  5  2  0  0  0  0
  6  8  1  0  0  0  0
  7 23  2  0  0  0  0
  8 20  2  0  0  0  0
 10 18  2  0  0  0  0
 11 17  1  0  0  0  0
 11 22  2  0  0  0  0
 12  6  1  0  0  0  0
 13 24  1  0  0  0  0
 14 16  1  6  0  0  0
 14 17  1  0  0  0  0
 14 15  1  0  0  0  0
 15  1  2  0  0  0  0
 17 15  1  0  0  0  0
 18 23  1  0  0  0  0
 18 22  1  0  0  0  0
 19 13  2  0  0  0  0
 19 10  1  0  0  0  0
 20 10  1  0  0  0  0
 20 11  1  0  0  0  0
 23 21  1  0  0  0  0
 24  7  1  0  0  0  0
 25 16  1  0  0  0  0
 27 30  1  0  0  0  0
 28 27  2  0  0  0  0
 28 29  1  0  0  0  0
 29 26  2  0  0  0  0
 30 26  1  0  0  0  0
 30 12  1  0  0  0  0
 31 29  1  0  0  0  0
 32 37  1  0  0  0  0
 32 31  2  0  0  0  0
 33 35  2  0  0  0  0
 35 32  1  0  0  0  0
 35 34  1  0  0  0  0
 37 36  1  0  0  0  0
M  END
>  <MODEL>
4

>  <REMARK>
 VINA RESULT:      -8.0      2.497      5.102
  Name = 
  4 active torsions:
  status: ('A' for Active; 'I' for Inactive)
    1  A    between atoms: C_5  and  C_33
    2  A    between atoms: C_17  and  N_35
    3  A    between atoms: C_19  and  N_22
    4  A    between atoms: C_19  and  C_31
                            x       y       z     vdW  Elec       q    Type
                         _______ _______ _______ _____ _____    ______ ____

>  <TORSDO>
F 4

$$$$
=
 OpenBabel11042418343D

 37 43  0  0  1  0  0  0  0  0999 V2000
  197.9290  173.1810  140.6900 O   0  0  0  0  0  0  0  0  0  0  0  0
  194.7050  174.5540  144.7200 O   0  0  0  0  0  0  0  0  0  0  0  0
  194.1070  175.5520  143.9380 C   0  0  1  0  0  3  0  0  0  0  0  0
  192.4850  176.6650  145.5190 C   0  0  0  0  0  3  0  0  0  0  0  0
  190.5040  174.9790  142.9450 N   0  0  0  0  0  0  0  0  0  0  0  0
  191.5960  175.3200  143.6960 C   0  0  0  0  0  0  0  0  0  0  0  0
  190.1610  173.4490  138.8340 N   0  0  0  0  0  0  0  0  0  0  0  0
  192.8940  175.0120  143.2270 C   0  0  0  0  0  0  0  0  0  0  0  0
  193.7790  176.8020  144.7700 C   0  0  0  0  0  2  0  0  0  0  0  0
  191.8840  174.0280  141.2630 C   0  0  0  0  0  0  0  0  0  0  0  0
  194.1560  173.9070  141.2370 C   0  0  0  0  0  0  0  0  0  0  0  0
  191.4310  176.0230  144.9960 C   0  0  0  0  0  0  0  0  0  0  0  0
  189.4720  173.9540  141.1440 C   0  0  0  0  0  2  0  0  0  0  0  0
  196.3970  173.4110  142.7360 C   0  0  1  0  0  3  0  0  0  0  0  0
  196.9550  173.3500  141.4670 C   0  0  0  0  0  0  0  0  0  0  0  0
  196.7740  174.7130  143.4100 C   0  0  0  0  0  2  0  0  0  0  0  0
  195.4750  173.6550  141.7180 N   0  0  0  0  0  0  0  0  0  0  0  0
  192.2740  173.6530  140.0390 C   0  0  0  0  0  0  0  0  0  0  0  0
  190.6010  174.3380  141.7460 C   0  0  0  0  0  0  0  0  0  0  0  0
  192.9940  174.2770  142.0380 C   0  0  1  0  0  3  0  0  0  0  0  0
  192.0770  174.0110  137.5140 C   0  0  0  0  0  1  0  0  0  0  0  0
  193.7430  173.5410  140.0320 C   0  0  0  0  0  3  0  0  0  0  0  0
  191.4410  173.6680  138.8160 C   0  0  0  0  0  0  0  0  0  0  0  0
  189.4080  172.9960  139.9960 C   0  0  0  0  0  2  0  0  0  0  0  0
  196.0840  174.8430  144.7720 C   0  0  0  0  0  2  0  0  0  0  0  0
  189.2510  176.9340  145.7580 C   0  0  0  0  0  3  0  0  0  0  0  0
  189.7920  174.9760  146.5550 C   0  0  0  0  0  3  0  0  0  0  0  0
  188.5670  175.2910  147.1130 C   0  0  0  0  0  3  0  0  0  0  0  0
  188.2280  176.5220  146.5800 C   0  0  0  0  0  0  0  0  0  0  0  0
  190.1930  175.9700  145.7350 N   0  0  0  0  0  0  0  0  0  0  0  0
  187.0630  177.3550  146.9260 C   0  0  0  0  0  3  0  0  0  0  0  0
  186.0980  177.8040  146.1060 C   0  0  0  0  0  0  0  0  0  0  0  0
  186.6760  178.5940  143.9520 O   0  0  0  0  0  0  0  0  0  0  0  0
  185.7190  176.5200  144.0010 O   0  0  0  0  0  1  0  0  0  0  0  0
  186.1530  177.6770  144.6380 C   0  0  0  0  0  0  0  0  0  0  0  0
  184.1100  179.0410  145.9520 O   0  0  0  0  0  1  0  0  0  0  0  0
  184.9680  178.4810  146.6680 N   0  0  0  0  0  2  0  0  0  0  0  0
  1 15  2  0  0  0  0
  2 25  1  0  0  0  0
  3  2  1  0  0  0  0
  3  9  1  1  0  0  0
  5  6  1  0  0  0  0
  6 12  1  0  0  0  0
  7 24  1  0  0  0  0
  8  6  2  0  0  0  0
  8  3  1  0  0  0  0
  9  4  1  0  0  0  0
 10 19  1  0  0  0  0
 10 20  1  0  0  0  0
 11 17  1  0  0  0  0
 12  4  2  0  0  0  0
 12 30  1  0  0  0  0
 13 19  1  0  0  0  0
 14 16  1  1  0  0  0
 15 17  1  0  0  0  0
 15 14  1  0  0  0  0
 16 25  1  0  0  0  0
 17 14  1  0  0  0  0
 18 10  2  0  0  0  0
 19  5  2  0  0  0  0
 20 11  1  6  0  0  0
 20  8  1  0  0  0  0
 21 23  1  0  0  0  0
 22 18  1  0  0  0  0
 22 11  2  0  0  0  0
 23  7  2  0  0  0  0
 23 18  1  0  0  0  0
 24 13  1  0  0  0  0
 26 29  2  0  0  0  0
 27 28  2  0  0  0  0
 29 31  1  0  0  0  0
 29 28  1  0  0  0  0
 30 26  1  0  0  0  0
 30 27  1  0  0  0  0
 32 37  1  0  0  0  0
 32 31  2  0  0  0  0
 33 35  2  0  0  0  0
 34 35  1  0  0  0  0
 35 32  1  0  0  0  0
 36 37  1  0  0  0  0
M  END
>  <MODEL>
5

>  <REMARK>
 VINA RESULT:      -7.9      3.714      7.867
  Name = 
  4 active torsions:
  status: ('A' for Active; 'I' for Inactive)
    1  A    between atoms: C_5  and  C_33
    2  A    between atoms: C_17  and  N_35
    3  A    between atoms: C_19  and  N_22
    4  A    between atoms: C_19  and  C_31
                            x       y       z     vdW  Elec       q    Type
                         _______ _______ _______ _____ _____    ______ ____

>  <TORSDO>
F 4

$$$$
=
 OpenBabel11042418343D

 37 43  0  0  1  0  0  0  0  0999 V2000
  184.2460  177.6640  141.0740 O   0  0  0  0  0  0  0  0  0  0  0  0
  188.3050  177.9760  144.5300 O   0  0  0  0  0  0  0  0  0  0  0  0
  188.3300  176.5810  144.6700 C   0  0  1  0  0  3  0  0  0  0  0  0
  190.1120  176.1820  146.4110 C   0  0  0  0  0  3  0  0  0  0  0  0
  191.3520  174.8030  143.2560 N   0  0  0  0  0  0  0  0  0  0  0  0
  190.5620  175.5190  144.1120 C   0  0  0  0  0  0  0  0  0  0  0  0
  190.5190  173.0360  139.3140 N   0  0  0  0  0  0  0  0  0  0  0  0
  189.2910  175.9680  143.6850 C   0  0  0  0  0  0  0  0  0  0  0  0
  188.6410  176.1620  146.1150 C   0  0  0  0  0  2  0  0  0  0  0  0
  189.7140  174.9310  141.5420 C   0  0  0  0  0  0  0  0  0  0  0  0
  187.6830  175.9510  141.6390 C   0  0  0  0  0  0  0  0  0  0  0  0
  191.0210  175.8210  145.4950 C   0  0  0  0  0  0  0  0  0  0  0  0
  191.8650  173.8870  141.1930 C   0  0  0  0  0  2  0  0  0  0  0  0
  186.3200  178.1680  142.4980 C   0  0  1  0  0  3  0  0  0  0  0  0
  185.3690  177.6370  141.6400 C   0  0  0  0  0  0  0  0  0  0  0  0
  185.9250  177.9140  143.9370 C   0  0  0  0  0  2  0  0  0  0  0  0
  186.7260  176.9750  141.9000 N   0  0  0  0  0  0  0  0  0  0  0  0
  189.0040  174.5600  140.4700 C   0  0  0  0  0  0  0  0  0  0  0  0
  190.9770  174.4960  141.9820 C   0  0  0  0  0  0  0  0  0  0  0  0
  188.9370  175.7310  142.3500 C   0  0  1  0  0  3  0  0  0  0  0  0
  188.1800  172.6420  138.9930 C   0  0  0  0  0  1  0  0  0  0  0  0
  187.7010  175.2470  140.5150 C   0  0  0  0  0  3  0  0  0  0  0  0
  189.3070  173.4230  139.5740 C   0  0  0  0  0  0  0  0  0  0  0  0
  191.7260  173.7500  139.7090 C   0  0  0  0  0  2  0  0  0  0  0  0
  187.0130  178.4040  144.8980 C   0  0  0  0  0  2  0  0  0  0  0  0
  193.3370  174.9350  145.3770 C   0  0  0  0  0  3  0  0  0  0  0  0
  193.0310  176.6140  146.7380 C   0  0  0  0  0  3  0  0  0  0  0  0
  194.3690  176.2780  146.8390 C   0  0  0  0  0  3  0  0  0  0  0  0
  194.5510  175.2300  145.9540 C   0  0  0  0  0  0  0  0  0  0  0  0
  192.4200  175.8030  145.8490 N   0  0  0  0  0  0  0  0  0  0  0  0
  195.7740  174.4330  145.7530 C   0  0  0  0  0  3  0  0  0  0  0  0
  196.6720  174.5390  144.7590 C   0  0  0  0  0  0  0  0  0  0  0  0
  196.0780  174.8610  142.4910 O   0  0  0  0  0  0  0  0  0  0  0  0
  196.6190  176.7650  143.6330 O   0  0  0  0  0  1  0  0  0  0  0  0
  196.4710  175.3840  143.5670 C   0  0  0  0  0  0  0  0  0  0  0  0
  197.8730  172.5250  144.6740 O   0  0  0  0  0  1  0  0  0  0  0  0
  197.8750  173.7660  144.8240 N   0  0  0  0  0  2  0  0  0  0  0  0
  1 15  2  0  0  0  0
  2  3  1  0  0  0  0
  2 25  1  0  0  0  0
  3  9  1  1  0  0  0
  5  6  1  0  0  0  0
  6 12  1  0  0  0  0
  7 23  2  0  0  0  0
  7 24  1  0  0  0  0
  8  6  2  0  0  0  0
  8  3  1  0  0  0  0
  9  4  1  0  0  0  0
 10 19  1  0  0  0  0
 11 17  1  0  0  0  0
 11 20  1  0  0  0  0
 12 30  1  0  0  0  0
 12  4  2  0  0  0  0
 13 19  1  0  0  0  0
 14 16  1  1  0  0  0
 15 17  1  0  0  0  0
 15 14  1  0  0  0  0
 16 25  1  0  0  0  0
 17 14  1  0  0  0  0
 18 22  1  0  0  0  0
 18 10  2  0  0  0  0
 19  5  2  0  0  0  0
 20 10  1  1  0  0  0
 20  8  1  0  0  0  0
 21 23  1  0  0  0  0
 22 11  2  0  0  0  0
 23 18  1  0  0  0  0
 24 13  1  0  0  0  0
 26 30  1  0  0  0  0
 26 29  2  0  0  0  0
 27 28  2  0  0  0  0
 29 28  1  0  0  0  0
 30 27  1  0  0  0  0
 31 29  1  0  0  0  0
 32 37  1  0  0  0  0
 32 31  2  0  0  0  0
 33 35  2  0  0  0  0
 35 34  1  0  0  0  0
 35 32  1  0  0  0  0
 36 37  1  0  0  0  0
M  END
>  <MODEL>
6

>  <REMARK>
 VINA RESULT:      -7.8      3.267      8.014
  Name = 
  4 active torsions:
  status: ('A' for Active; 'I' for Inactive)
    1  A    between atoms: C_5  and  C_33
    2  A    between atoms: C_17  and  N_35
    3  A    between atoms: C_19  and  N_22
    4  A    between atoms: C_19  and  C_31
                            x       y       z     vdW  Elec       q    Type
                         _______ _______ _______ _____ _____    ______ ____

>  <TORSDO>
F 4

$$$$
=
 OpenBabel11042418343D

 37 43  0  0  1  0  0  0  0  0999 V2000
  197.6530  172.4980  144.6990 O   0  0  0  0  0  0  0  0  0  0  0  0
  193.2730  175.2320  146.0650 O   0  0  0  0  0  0  0  0  0  0  0  0
  193.1140  175.6900  144.7490 C   0  0  1  0  0  3  0  0  0  0  0  0
  191.1210  177.2300  144.8840 C   0  0  0  0  0  3  0  0  0  0  0  0
  190.1290  174.3530  142.8520 N   0  0  0  0  0  0  0  0  0  0  0  0
  190.8770  175.1120  143.7100 C   0  0  0  0  0  0  0  0  0  0  0  0
  191.2460  171.0740  140.1390 N   0  0  0  0  0  0  0  0  0  0  0  0
  192.2210  174.7590  143.9700 C   0  0  0  0  0  0  0  0  0  0  0  0
  192.6090  177.1400  144.7110 C   0  0  0  0  0  2  0  0  0  0  0  0
  191.9540  172.8820  142.4700 C   0  0  0  0  0  0  0  0  0  0  0  0
  194.0410  173.0000  143.3680 C   0  0  0  0  0  0  0  0  0  0  0  0
  190.2930  176.3150  144.3630 C   0  0  0  0  0  0  0  0  0  0  0  0
  189.7760  172.5120  141.4930 C   0  0  0  0  0  2  0  0  0  0  0  0
  195.4830  173.4860  145.6480 C   0  0  1  0  0  3  0  0  0  0  0  0
  196.4750  172.9050  144.8720 C   0  0  0  0  0  0  0  0  0  0  0  0
  195.6910  174.9820  145.7280 C   0  0  0  0  0  2  0  0  0  0  0  0
  195.0460  173.1360  144.3700 N   0  0  0  0  0  0  0  0  0  0  0  0
  192.7460  172.0280  141.8110 C   0  0  0  0  0  0  0  0  0  0  0  0
  190.6180  173.2450  142.2250 C   0  0  0  0  0  0  0  0  0  0  0  0
  192.7010  173.5740  143.3970 C   0  0  1  0  0  3  0  0  0  0  0  0
  193.5650  171.1590  139.5490 C   0  0  0  0  0  1  0  0  0  0  0  0
  194.0890  172.0790  142.4150 C   0  0  0  0  0  3  0  0  0  0  0  0
  192.4500  171.3910  140.5090 C   0  0  0  0  0  0  0  0  0  0  0  0
  190.0680  171.1320  140.9930 C   0  0  0  0  0  2  0  0  0  0  0  0
  194.5470  175.6540  146.4970 C   0  0  0  0  0  2  0  0  0  0  0  0
  187.9900  176.6520  143.4990 C   0  0  0  0  0  3  0  0  0  0  0  0
  188.1820  176.5340  145.6700 C   0  0  0  0  0  3  0  0  0  0  0  0
  186.8370  176.7340  145.4150 C   0  0  0  0  0  3  0  0  0  0  0  0
  186.7300  176.7820  144.0370 C   0  0  0  0  0  0  0  0  0  0  0  0
  188.8670  176.4800  144.5090 N   0  0  0  0  0  0  0  0  0  0  0  0
  185.5240  177.0810  143.2450 C   0  0  0  0  0  3  0  0  0  0  0  0
  184.7200  178.1540  143.3400 C   0  0  0  0  0  0  0  0  0  0  0  0
  185.5510  180.1680  144.2620 O   0  0  0  0  0  0  0  0  0  0  0  0
  184.0570  179.0430  145.5740 O   0  0  0  0  0  1  0  0  0  0  0  0
  184.8220  179.1540  144.4190 C   0  0  0  0  0  0  0  0  0  0  0  0
  183.9010  178.2900  141.1450 O   0  0  0  0  0  1  0  0  0  0  0  0
  183.6780  178.3290  142.3740 N   0  0  0  0  0  2  0  0  0  0  0  0
  1 15  2  0  0  0  0
  2 25  1  0  0  0  0
  3  9  1  1  0  0  0
  3  2  1  0  0  0  0
  5  6  1  0  0  0  0
  6  8  2  0  0  0  0
  6 12  1  0  0  0  0
  7 23  2  0  0  0  0
  7 24  1  0  0  0  0
  8  3  1  0  0  0  0
  9  4  1  0  0  0  0
 11 20  1  0  0  0  0
 11 17  1  0  0  0  0
 12 30  1  0  0  0  0
 12  4  2  0  0  0  0
 13 19  1  0  0  0  0
 14 16  1  6  0  0  0
 15 14  1  0  0  0  0
 16 25  1  0  0  0  0
 17 15  1  0  0  0  0
 17 14  1  0  0  0  0
 18 22  1  0  0  0  0
 18 10  2  0  0  0  0
 19 10  1  0  0  0  0
 19  5  2  0  0  0  0
 20 10  1  6  0  0  0
 20  8  1  0  0  0  0
 21 23  1  0  0  0  0
 22 11  2  0  0  0  0
 23 18  1  0  0  0  0
 24 13  1  0  0  0  0
 26 29  2  0  0  0  0
 26 30  1  0  0  0  0
 28 27  2  0  0  0  0
 29 28  1  0  0  0  0
 30 27  1  0  0  0  0
 31 32  2  0  0  0  0
 31 29  1  0  0  0  0
 32 35  1  0  0  0  0
 33 35  2  0  0  0  0
 35 34  1  0  0  0  0
 36 37  1  0  0  0  0
 37 32  1  0  0  0  0
M  END
>  <MODEL>
7

>  <REMARK>
 VINA RESULT:      -7.8      3.743      7.333
  Name = 
  4 active torsions:
  status: ('A' for Active; 'I' for Inactive)
    1  A    between atoms: C_5  and  C_33
    2  A    between atoms: C_17  and  N_35
    3  A    between atoms: C_19  and  N_22
    4  A    between atoms: C_19  and  C_31
                            x       y       z     vdW  Elec       q    Type
                         _______ _______ _______ _____ _____    ______ ____

>  <TORSDO>
F 4

$$$$
=
 OpenBabel11042418343D

 37 43  0  0  1  0  0  0  0  0999 V2000
  196.9380  172.0620  139.3030 O   0  0  0  0  0  0  0  0  0  0  0  0
  192.0340  174.1650  139.5120 O   0  0  0  0  0  0  0  0  0  0  0  0
  191.7670  173.4960  140.7140 C   0  0  1  0  0  3  0  0  0  0  0  0
  189.3670  174.0900  141.2160 C   0  0  0  0  0  3  0  0  0  0  0  0
  191.4320  175.6500  143.8030 N   0  0  0  0  0  0  0  0  0  0  0  0
  191.1160  175.0180  142.6320 C   0  0  0  0  0  0  0  0  0  0  0  0
  195.1200  175.6630  146.2010 N   0  0  0  0  0  0  0  0  0  0  0  0
  192.1270  174.3610  141.8940 C   0  0  0  0  0  0  0  0  0  0  0  0
  190.3120  173.0080  140.7800 C   0  0  0  0  0  2  0  0  0  0  0  0
  193.7160  175.0390  143.5860 C   0  0  0  0  0  0  0  0  0  0  0  0
  194.6750  173.8320  141.9120 C   0  0  0  0  0  0  0  0  0  0  0  0
  189.7140  175.0030  142.1330 C   0  0  0  0  0  0  0  0  0  0  0  0
  192.9210  176.4250  145.3980 C   0  0  0  0  0  3  0  0  0  0  0  0
  194.7650  173.4230  139.2030 C   0  0  1  0  0  3  0  0  0  0  0  0
  195.9140  172.7400  139.5740 C   0  0  0  0  0  0  0  0  0  0  0  0
  193.6600  172.4450  138.8670 C   0  0  0  0  0  2  0  0  0  0  0  0
  194.9890  173.4310  140.5800 N   0  0  0  0  0  0  0  0  0  0  0  0
  194.9550  174.7020  143.9640 C   0  0  0  0  0  0  0  0  0  0  0  0
  192.6980  175.6900  144.3050 C   0  0  0  0  0  0  0  0  0  0  0  0
  193.4440  174.4730  142.3600 C   0  0  0  0  0  0  0  0  0  0  0  0
  196.4570  173.7210  145.7860 C   0  0  0  0  0  1  0  0  0  0  0  0
  195.5880  173.9510  142.8660 C   0  0  0  0  0  3  0  0  0  0  0  0
  195.4930  174.7650  145.3400 C   0  0  0  0  0  0  0  0  0  0  0  0
  194.2780  176.8120  145.8970 C   0  0  0  0  0  2  0  0  0  0  0  0
  192.3530  173.1820  138.5540 C   0  0  0  0  0  2  0  0  0  0  0  0
  187.7680  175.7840  143.4620 C   0  0  0  0  0  3  0  0  0  0  0  0
  188.6350  177.2490  142.0970 C   0  0  0  0  0  3  0  0  0  0  0  0
  187.5730  177.8840  142.7150 C   0  0  0  0  0  3  0  0  0  0  0  0
  187.0500  176.9500  143.5930 C   0  0  0  0  0  0  0  0  0  0  0  0
  188.7480  175.9870  142.5590 N   0  0  0  0  0  0  0  0  0  0  0  0
  185.8400  177.0830  144.4220 C   0  0  0  0  0  3  0  0  0  0  0  0
  185.7680  177.2920  145.7480 C   0  0  0  0  0  0  0  0  0  0  0  0
  187.2950  178.2740  147.2650 O   0  0  0  0  0  1  0  0  0  0  0  0
  187.6000  176.0410  146.8880 O   0  0  0  0  0  0  0  0  0  0  0  0
  186.9380  177.2390  146.6440 C   0  0  0  0  0  0  0  0  0  0  0  0
  183.9890  178.6840  146.3830 O   0  0  0  0  0  1  0  0  0  0  0  0
  184.4900  177.5400  146.3440 N   0  0  0  0  0  2  0  0  0  0  0  0
  1 15  2  0  0  0  0
  2  3  1  0  0  0  0
  3  9  1  1  0  0  0
  3  8  1  0  0  0  0
  4 12  2  0  0  0  0
  5 19  1  0  0  0  0
  6  5  2  0  0  0  0
  8 20  2  0  0  0  0
  8  6  1  0  0  0  0
  9  4  1  0  0  0  0
 10 18  2  0  0  0  0
 10 19  1  0  0  0  0
 11 20  1  0  0  0  0
 11 22  2  0  0  0  0
 12 30  1  0  0  0  0
 12  6  1  0  0  0  0
 13 24  1  0  0  0  0
 14 16  1  1  0  0  0
 14 15  1  0  0  0  0
 14 17  1  0  0  0  0
 15 17  1  0  0  0  0
 17 11  1  0  0  0  0
 18 23  1  0  0  0  0
 19 13  2  0  0  0  0
 20 10  1  0  0  0  0
 22 18  1  0  0  0  0
 23 21  1  0  0  0  0
 23  7  2  0  0  0  0
 24  7  1  0  0  0  0
 25 16  1  0  0  0  0
 25  2  1  0  0  0  0
 26 29  2  0  0  0  0
 27 30  1  0  0  0  0
 27 28  2  0  0  0  0
 28 29  1  0  0  0  0
 29 31  1  0  0  0  0
 30 26  1  0  0  0  0
 31 32  2  0  0  0  0
 32 37  1  0  0  0  0
 32 35  1  0  0  0  0
 35 34  2  0  0  0  0
 35 33  1  0  0  0  0
 37 36  1  0  0  0  0
M  END
>  <MODEL>
8

>  <REMARK>
 VINA RESULT:      -7.7      3.714      8.153
  Name = 
  4 active torsions:
  status: ('A' for Active; 'I' for Inactive)
    1  A    between atoms: C_5  and  C_33
    2  A    between atoms: C_17  and  N_35
    3  A    between atoms: C_19  and  N_22
    4  A    between atoms: C_19  and  C_31
                            x       y       z     vdW  Elec       q    Type
                         _______ _______ _______ _____ _____    ______ ____

>  <TORSDO>
F 4

$$$$
=
 OpenBabel11042418343D

 37 43  0  0  1  0  0  0  0  0999 V2000
  186.7260  178.3880  147.8830 O   0  0  0  0  0  0  0  0  0  0  0  0
  186.3920  175.8810  143.1800 O   0  0  0  0  0  0  0  0  0  0  0  0
  187.5840  176.4770  142.7450 C   0  0  1  0  0  3  0  0  0  0  0  0
  187.8310  175.6670  140.3690 C   0  0  0  0  0  3  0  0  0  0  0  0
  190.5540  174.1780  142.3090 N   0  0  0  0  0  0  0  0  0  0  0  0
  189.3790  174.8300  142.0510 C   0  0  0  0  0  0  0  0  0  0  0  0
  193.2960  174.3730  145.7450 N   0  0  0  0  0  0  0  0  0  0  0  0
  188.7640  175.5970  143.0670 C   0  0  0  0  0  0  0  0  0  0  0  0
  187.5240  176.8400  141.2530 C   0  0  0  0  0  2  0  0  0  0  0  0
  190.5780  174.9850  144.5420 C   0  0  0  0  0  0  0  0  0  0  0  0
  189.0450  176.3330  145.5470 C   0  0  0  0  0  0  0  0  0  0  0  0
  188.7480  174.7490  140.7060 C   0  0  0  0  0  0  0  0  0  0  0  0
  192.2590  173.4660  143.7030 C   0  0  0  0  0  3  0  0  0  0  0  0
  186.3730  176.8570  145.8540 C   0  0  1  0  0  3  0  0  0  0  0  0
  186.8740  177.6180  146.9000 C   0  0  0  0  0  0  0  0  0  0  0  0
  185.9630  177.7540  144.7060 C   0  0  0  0  0  2  0  0  0  0  0  0
  187.7640  176.8120  145.9480 N   0  0  0  0  0  0  0  0  0  0  0  0
  191.0850  175.4070  145.7070 C   0  0  0  0  0  0  0  0  0  0  0  0
  191.1750  174.2240  143.5220 C   0  0  0  0  0  0  0  0  0  0  0  0
  189.3510  175.5760  144.3380 C   0  0  0  0  0  0  0  0  0  0  0  0
  193.0750  176.4340  146.9420 C   0  0  0  0  0  1  0  0  0  0  0  0
  190.0790  176.2520  146.3730 C   0  0  0  0  0  3  0  0  0  0  0  0
  192.5050  175.3330  146.1180 C   0  0  0  0  0  0  0  0  0  0  0  0
  192.8750  173.1720  145.0360 C   0  0  0  0  0  2  0  0  0  0  0  0
  185.5020  176.9250  143.5020 C   0  0  0  0  0  2  0  0  0  0  0  0
  190.1870  173.5360  139.0860 C   0  0  0  0  0  3  0  0  0  0  0  0
  188.2250  172.6540  139.4600 C   0  0  0  0  0  3  0  0  0  0  0  0
  188.8420  171.8360  138.5310 C   0  0  0  0  0  3  0  0  0  0  0  0
  190.0910  172.3940  138.3240 C   0  0  0  0  0  0  0  0  0  0  0  0
  189.0460  173.6720  139.7920 N   0  0  0  0  0  0  0  0  0  0  0  0
  191.1090  171.9690  137.3480 C   0  0  0  0  0  3  0  0  0  0  0  0
  191.4070  172.5370  136.1670 C   0  0  0  0  0  0  0  0  0  0  0  0
  189.5800  173.3220  134.8870 O   0  0  0  0  0  0  0  0  0  0  0  0
  190.9100  174.9510  135.7810 O   0  0  0  0  0  1  0  0  0  0  0  0
  190.6050  173.6130  135.5560 C   0  0  0  0  0  0  0  0  0  0  0  0
  192.7250  170.8360  135.2310 O   0  0  0  0  0  1  0  0  0  0  0  0
  192.5360  172.0550  135.4300 N   0  0  0  0  0  2  0  0  0  0  0  0
  2 25  1  0  0  0  0
  3  9  1  6  0  0  0
  3  8  1  0  0  0  0
  3  2  1  0  0  0  0
  4 12  2  0  0  0  0
  4  9  1  0  0  0  0
  5 19  1  0  0  0  0
  6  5  2  0  0  0  0
  6  8  1  0  0  0  0
  7 23  2  0  0  0  0
  8 20  2  0  0  0  0
 10 18  2  0  0  0  0
 11 17  1  0  0  0  0
 11 22  2  0  0  0  0
 12  6  1  0  0  0  0
 13 24  1  0  0  0  0
 14 16  1  6  0  0  0
 14 17  1  0  0  0  0
 14 15  1  0  0  0  0
 15  1  2  0  0  0  0
 17 15  1  0  0  0  0
 18 23  1  0  0  0  0
 18 22  1  0  0  0  0
 19 13  2  0  0  0  0
 19 10  1  0  0  0  0
 20 10  1  0  0  0  0
 20 11  1  0  0  0  0
 23 21  1  0  0  0  0
 24  7  1  0  0  0  0
 25 16  1  0  0  0  0
 26 30  1  0  0  0  0
 27 30  1  0  0  0  0
 28 27  2  0  0  0  0
 29 28  1  0  0  0  0
 29 26  2  0  0  0  0
 30 12  1  0  0  0  0
 31 29  1  0  0  0  0
 32 31  2  0  0  0  0
 33 35  2  0  0  0  0
 35 34  1  0  0  0  0
 35 32  1  0  0  0  0
 36 37  1  0  0  0  0
 37 32  1  0  0  0  0
M  END
>  <MODEL>
9

>  <REMARK>
 VINA RESULT:      -7.5      2.250      4.849
  Name = 
  4 active torsions:
  status: ('A' for Active; 'I' for Inactive)
    1  A    between atoms: C_5  and  C_33
    2  A    between atoms: C_17  and  N_35
    3  A    between atoms: C_19  and  N_22
    4  A    between atoms: C_19  and  C_31
                            x       y       z     vdW  Elec       q    Type
                         _______ _______ _______ _____ _____    ______ ____

>  <TORSDO>
F 4

$$$$
