=
 OpenBabel11042418273D

 28 30  0  0  1  0  0  0  0  0999 V2000
  186.0300  177.9720  141.7660 C   0  0  0  0  0  0  0  0  0  0  0  0
  185.6130  178.2260  140.4560 C   0  0  0  0  0  3  0  0  0  0  0  0
  183.3530  178.1890  141.1260 C   0  0  0  0  0  0  0  0  0  0  0  0
  181.9740  178.2950  140.7980 N   0  0  0  0  0  1  0  0  0  0  0  0
  185.0390  177.8440  142.7630 C   0  0  0  0  0  0  0  0  0  0  0  0
  184.2940  178.3350  140.1610 N   0  0  0  0  0  0  0  0  0  0  0  0
  183.7290  177.9420  142.4070 N   0  0  0  0  0  0  0  0  0  0  0  0
  188.5340  174.3690  142.0750 N   0  0  0  0  0  2  0  0  0  0  0  0
  187.5940  175.3910  141.9280 N   0  0  0  0  0  0  0  0  0  0  0  0
  189.7480  175.0020  142.4330 C   0  0  0  0  0  0  0  0  0  0  0  0
  190.8190  174.3780  142.6470 O   0  0  0  0  0  0  0  0  0  0  0  0
  188.1330  176.5450  142.1650 C   0  0  0  0  0  0  0  0  0  0  0  0
  187.4200  177.7840  142.0800 N   0  0  0  0  0  2  0  0  0  0  0  0
  189.5850  176.4730  142.5190 C   0  0  0  0  0  2  0  0  0  0  0  0
  185.5370  176.3720  144.5310 O   0  0  0  0  0  0  0  0  0  0  0  0
  185.3500  177.5730  144.1870 C   0  0  0  0  0  0  0  0  0  0  0  0
  185.6820  179.8920  144.6290 O   0  0  0  0  0  1  0  0  0  0  0  0
  185.4320  178.6620  145.2450 C   0  0  1  0  0  0  0  0  0  0  0  0
  184.0970  178.7650  145.9660 C   0  0  0  0  0  1  0  0  0  0  0  0
  186.5100  178.3650  146.2710 C   0  0  0  0  0  0  0  0  0  0  0  0
  186.2640  178.5220  147.4980 O   0  0  0  0  0  0  0  0  0  0  0  0
  187.8010  177.9620  145.9090 O   0  0  0  0  0  0  0  0  0  0  0  0
  189.1820  176.0260  146.2040 C   0  0  2  0  0  3  0  0  0  0  0  0
  190.0740  177.2520  146.1490 C   0  0  0  0  0  2  0  0  0  0  0  0
  188.7130  177.3400  146.8030 C   0  0  1  0  0  3  0  0  0  0  0  0
  188.8390  174.2680  147.7820 O   0  0  0  0  0  0  0  0  0  0  0  0
  190.9250  175.2130  147.8010 O   0  0  0  0  0  1  0  0  0  0  0  0
  189.6360  175.1100  147.2920 C   0  0  0  0  0  0  0  0  0  0  0  0
  1 13  1  0  0  0  0
  1  5  1  0  0  0  0
  2  1  2  0  0  0  0
  3  7  1  0  0  0  0
  4  3  1  0  0  0  0
  5 16  1  0  0  0  0
  6  2  1  0  0  0  0
  6  3  2  0  0  0  0
  7  5  2  0  0  0  0
  8 10  1  0  0  0  0
  9  8  1  0  0  0  0
  9 12  2  0  0  0  0
 10 14  1  0  0  0  0
 10 11  2  0  0  0  0
 12 14  1  0  0  0  0
 13 12  1  0  0  0  0
 16 15  2  0  0  0  0
 16 18  1  0  0  0  0
 17 18  1  0  0  0  0
 18 19  1  1  0  0  0
 18 20  1  0  0  0  0
 20 21  2  0  0  0  0
 22 20  1  0  0  0  0
 23 25  1  0  0  0  0
 23 28  1  1  0  0  0
 24 23  1  0  0  0  0
 24 25  1  0  0  0  0
 25 22  1  6  0  0  0
 28 26  2  0  0  0  0
 28 27  1  0  0  0  0
M  END
>  <MODEL>
1

>  <REMARK>
 VINA RESULT:      -7.0      0.000      0.000
  Name = 
  7 active torsions:
  status: ('A' for Active; 'I' for Inactive)
    1  A    between atoms: O_1  and  C_17
    2  A    between atoms: O_1  and  C_20
    3  A    between atoms: C_2  and  C_22
    4  A    between atoms: C_3  and  N_27
    5  A    between atoms: C_10  and  C_17
    6  A    between atoms: C_10  and  C_26
    7  A    between atoms: C_18  and  C_26
                            x       y       z     vdW  Elec       q    Type
                         _______ _______ _______ _____ _____    ______ ____

>  <TORSDO>
F 7

$$$$
=
 OpenBabel11042418273D

 28 30  0  0  1  0  0  0  0  0999 V2000
  190.5420  177.0160  143.8470 C   0  0  0  0  0  0  0  0  0  0  0  0
  190.1780  177.8400  142.7770 C   0  0  0  0  0  3  0  0  0  0  0  0
  188.1580  176.6550  142.5020 C   0  0  0  0  0  0  0  0  0  0  0  0
  186.9320  176.4640  141.8080 N   0  0  0  0  0  1  0  0  0  0  0  0
  189.6440  175.9980  144.2340 C   0  0  0  0  0  0  0  0  0  0  0  0
  189.0000  177.6510  142.1310 N   0  0  0  0  0  0  0  0  0  0  0  0
  188.4850  175.8400  143.5370 N   0  0  0  0  0  0  0  0  0  0  0  0
  194.4510  175.1340  143.1320 N   0  0  0  0  0  2  0  0  0  0  0  0
  193.1470  175.6270  143.2060 N   0  0  0  0  0  0  0  0  0  0  0  0
  195.1700  175.7680  144.1730 C   0  0  0  0  0  0  0  0  0  0  0  0
  196.3890  175.5590  144.4030 O   0  0  0  0  0  0  0  0  0  0  0  0
  193.0350  176.4750  144.1790 C   0  0  0  0  0  0  0  0  0  0  0  0
  191.8160  177.1590  144.4940 N   0  0  0  0  0  2  0  0  0  0  0  0
  194.3040  176.6960  144.9390 C   0  0  0  0  0  2  0  0  0  0  0  0
  190.4470  173.9490  145.0700 O   0  0  0  0  0  0  0  0  0  0  0  0
  189.9130  175.0590  145.3490 C   0  0  0  0  0  0  0  0  0  0  0  0
  188.9830  174.2260  147.3800 O   0  0  0  0  0  1  0  0  0  0  0  0
  189.5570  175.3590  146.7970 C   0  0  1  0  0  0  0  0  0  0  0  0
  190.8250  175.6870  147.5690 C   0  0  0  0  0  1  0  0  0  0  0  0
  188.6090  176.5390  146.9070 C   0  0  0  0  0  0  0  0  0  0  0  0
  189.0590  177.6740  147.2210 O   0  0  0  0  0  0  0  0  0  0  0  0
  187.2270  176.4120  146.7180 O   0  0  0  0  0  0  0  0  0  0  0  0
  185.5690  177.2220  145.1900 C   0  0  2  0  0  3  0  0  0  0  0  0
  184.9270  177.0490  146.5530 C   0  0  0  0  0  2  0  0  0  0  0  0
  186.3640  177.5080  146.4520 C   0  0  1  0  0  3  0  0  0  0  0  0
  183.9680  178.9500  144.8040 O   0  0  0  0  0  1  0  0  0  0  0  0
  185.9640  179.1990  143.7110 O   0  0  0  0  0  0  0  0  0  0  0  0
  185.1240  178.5080  144.5740 C   0  0  0  0  0  0  0  0  0  0  0  0
  1  5  1  0  0  0  0
  1 13  1  0  0  0  0
  2  1  2  0  0  0  0
  3  7  1  0  0  0  0
  4  3  1  0  0  0  0
  5 16  1  0  0  0  0
  6  3  2  0  0  0  0
  6  2  1  0  0  0  0
  7  5  2  0  0  0  0
  8  9  1  0  0  0  0
  8 10  1  0  0  0  0
  9 12  2  0  0  0  0
 10 11  2  0  0  0  0
 10 14  1  0  0  0  0
 12 13  1  0  0  0  0
 12 14  1  0  0  0  0
 15 16  2  0  0  0  0
 16 18  1  0  0  0  0
 18 20  1  0  0  0  0
 18 17  1  0  0  0  0
 18 19  1  1  0  0  0
 20 21  2  0  0  0  0
 22 20  1  0  0  0  0
 23 28  1  6  0  0  0
 23 25  1  0  0  0  0
 23 24  1  0  0  0  0
 25 24  1  0  0  0  0
 25 22  1  1  0  0  0
 27 28  2  0  0  0  0
 28 26  1  0  0  0  0
M  END
>  <MODEL>
2

>  <REMARK>
 VINA RESULT:      -6.7      2.878      5.430
  Name = 
  7 active torsions:
  status: ('A' for Active; 'I' for Inactive)
    1  A    between atoms: O_1  and  C_17
    2  A    between atoms: O_1  and  C_20
    3  A    between atoms: C_2  and  C_22
    4  A    between atoms: C_3  and  N_27
    5  A    between atoms: C_10  and  C_17
    6  A    between atoms: C_10  and  C_26
    7  A    between atoms: C_18  and  C_26
                            x       y       z     vdW  Elec       q    Type
                         _______ _______ _______ _____ _____    ______ ____

>  <TORSDO>
F 7

$$$$
=
 OpenBabel11042418273D

 28 30  0  0  1  0  0  0  0  0999 V2000
  191.2660  175.4020  143.2370 C   0  0  0  0  0  0  0  0  0  0  0  0
  192.3070  175.9590  142.4870 C   0  0  0  0  0  3  0  0  0  0  0  0
  193.7330  175.9160  144.3640 C   0  0  0  0  0  0  0  0  0  0  0  0
  195.0010  176.1860  144.9490 N   0  0  0  0  0  1  0  0  0  0  0  0
  191.5170  175.0920  144.5900 C   0  0  0  0  0  0  0  0  0  0  0  0
  193.5140  176.2010  143.0570 N   0  0  0  0  0  0  0  0  0  0  0  0
  192.7410  175.3750  145.1160 N   0  0  0  0  0  0  0  0  0  0  0  0
  188.0880  178.2160  142.0870 N   0  0  0  0  0  2  0  0  0  0  0  0
  189.2000  177.4810  142.5020 N   0  0  0  0  0  0  0  0  0  0  0  0
  187.1390  177.2680  141.6350 C   0  0  0  0  0  0  0  0  0  0  0  0
  186.0070  177.5800  141.1840 O   0  0  0  0  0  0  0  0  0  0  0  0
  188.9940  176.2110  142.3410 C   0  0  0  0  0  0  0  0  0  0  0  0
  189.9620  175.2060  142.6650 N   0  0  0  0  0  2  0  0  0  0  0  0
  187.6550  175.8840  141.7620 C   0  0  0  0  0  2  0  0  0  0  0  0
  190.1780  173.2930  145.3060 O   0  0  0  0  0  0  0  0  0  0  0  0
  190.4990  174.5010  145.4910 C   0  0  0  0  0  0  0  0  0  0  0  0
  188.9060  174.4490  147.2640 O   0  0  0  0  0  1  0  0  0  0  0  0
  189.8130  175.2810  146.6010 C   0  0  1  0  0  0  0  0  0  0  0  0
  190.8530  175.7350  147.6140 C   0  0  0  0  0  1  0  0  0  0  0  0
  189.0980  176.5070  146.0650 C   0  0  0  0  0  0  0  0  0  0  0  0
  189.6920  177.6200  146.0500 O   0  0  0  0  0  0  0  0  0  0  0  0
  187.7700  176.4680  145.6200 O   0  0  0  0  0  0  0  0  0  0  0  0
  185.6670  177.3710  144.9130 C   0  0  2  0  0  3  0  0  0  0  0  0
  185.5140  176.8360  146.3250 C   0  0  0  0  0  2  0  0  0  0  0  0
  186.8150  177.4800  145.9010 C   0  0  1  0  0  3  0  0  0  0  0  0
  183.9510  178.9340  145.4690 O   0  0  0  0  0  1  0  0  0  0  0  0
  185.4520  179.6430  143.8920 O   0  0  0  0  0  0  0  0  0  0  0  0
  184.9820  178.6920  144.7890 C   0  0  0  0  0  0  0  0  0  0  0  0
  1  5  1  0  0  0  0
  2  6  1  0  0  0  0
  2  1  2  0  0  0  0
  3  4  1  0  0  0  0
  3  7  1  0  0  0  0
  5  7  2  0  0  0  0
  5 16  1  0  0  0  0
  6  3  2  0  0  0  0
  8  9  1  0  0  0  0
 10 14  1  0  0  0  0
 10  8  1  0  0  0  0
 11 10  2  0  0  0  0
 12  9  2  0  0  0  0
 12 13  1  0  0  0  0
 13  1  1  0  0  0  0
 14 12  1  0  0  0  0
 15 16  2  0  0  0  0
 16 18  1  0  0  0  0
 18 17  1  0  0  0  0
 18 19  1  1  0  0  0
 20 18  1  0  0  0  0
 21 20  2  0  0  0  0
 22 20  1  0  0  0  0
 23 28  1  1  0  0  0
 23 25  1  0  0  0  0
 23 24  1  0  0  0  0
 25 22  1  6  0  0  0
 25 24  1  0  0  0  0
 27 28  2  0  0  0  0
 28 26  1  0  0  0  0
M  END
>  <MODEL>
3

>  <REMARK>
 VINA RESULT:      -6.7      2.693      6.469
  Name = 
  7 active torsions:
  status: ('A' for Active; 'I' for Inactive)
    1  A    between atoms: O_1  and  C_17
    2  A    between atoms: O_1  and  C_20
    3  A    between atoms: C_2  and  C_22
    4  A    between atoms: C_3  and  N_27
    5  A    between atoms: C_10  and  C_17
    6  A    between atoms: C_10  and  C_26
    7  A    between atoms: C_18  and  C_26
                            x       y       z     vdW  Elec       q    Type
                         _______ _______ _______ _____ _____    ______ ____

>  <TORSDO>
F 7

$$$$
=
 OpenBabel11042418273D

 28 30  0  0  1  0  0  0  0  0999 V2000
  189.6140  176.0370  146.2710 C   0  0  0  0  0  0  0  0  0  0  0  0
  190.2100  176.5490  147.4290 C   0  0  0  0  0  3  0  0  0  0  0  0
  192.3590  176.1530  146.5450 C   0  0  0  0  0  0  0  0  0  0  0  0
  193.7730  176.2060  146.6850 N   0  0  0  0  0  1  0  0  0  0  0  0
  190.4610  175.5930  145.2330 C   0  0  0  0  0  0  0  0  0  0  0  0
  191.5600  176.6030  147.5430 N   0  0  0  0  0  0  0  0  0  0  0  0
  191.8090  175.6500  145.4100 N   0  0  0  0  0  0  0  0  0  0  0  0
  186.3170  178.7680  147.2740 N   0  0  0  0  0  2  0  0  0  0  0  0
  187.4830  178.0450  147.0130 N   0  0  0  0  0  0  0  0  0  0  0  0
  185.2420  177.9230  146.9080 C   0  0  0  0  0  0  0  0  0  0  0  0
  184.0320  178.2550  147.0090 O   0  0  0  0  0  0  0  0  0  0  0  0
  187.1970  176.8730  146.5400 C   0  0  0  0  0  0  0  0  0  0  0  0
  188.1880  175.9090  146.1650 N   0  0  0  0  0  2  0  0  0  0  0  0
  185.7300  176.6190  146.3980 C   0  0  0  0  0  2  0  0  0  0  0  0
  189.3690  173.9100  144.0000 O   0  0  0  0  0  0  0  0  0  0  0  0
  189.9550  175.0280  143.9590 C   0  0  0  0  0  0  0  0  0  0  0  0
  191.4630  175.6270  142.2120 O   0  0  0  0  0  1  0  0  0  0  0  0
  190.1270  175.7170  142.6140 C   0  0  1  0  0  0  0  0  0  0  0  0
  189.2780  175.0070  141.5710 C   0  0  0  0  0  1  0  0  0  0  0  0
  189.6980  177.1720  142.6720 C   0  0  0  0  0  0  0  0  0  0  0  0
  190.4910  178.0390  143.1310 O   0  0  0  0  0  0  0  0  0  0  0  0
  188.4240  177.5950  142.2730 O   0  0  0  0  0  0  0  0  0  0  0  0
  186.1370  178.2990  142.4070 C   0  0  2  0  0  3  0  0  0  0  0  0
  186.2000  176.8050  142.6660 C   0  0  0  0  0  2  0  0  0  0  0  0
  187.3160  177.7010  143.1550 C   0  0  1  0  0  3  0  0  0  0  0  0
  184.0680  178.4480  143.5870 O   0  0  0  0  0  0  0  0  0  0  0  0
  185.5650  180.1280  144.0120 O   0  0  0  0  0  1  0  0  0  0  0  0
  185.2040  178.9480  143.3750 C   0  0  0  0  0  0  0  0  0  0  0  0
  1  2  2  0  0  0  0
  2  6  1  0  0  0  0
  3  4  1  0  0  0  0
  3  6  2  0  0  0  0
  5  7  2  0  0  0  0
  5  1  1  0  0  0  0
  7  3  1  0  0  0  0
  9  8  1  0  0  0  0
 10 11  2  0  0  0  0
 10  8  1  0  0  0  0
 12  9  2  0  0  0  0
 13  1  1  0  0  0  0
 13 12  1  0  0  0  0
 14 12  1  0  0  0  0
 14 10  1  0  0  0  0
 16 15  2  0  0  0  0
 16  5  1  0  0  0  0
 17 18  1  0  0  0  0
 18 19  1  6  0  0  0
 18 20  1  0  0  0  0
 18 16  1  0  0  0  0
 20 21  2  0  0  0  0
 22 20  1  0  0  0  0
 23 24  1  0  0  0  0
 23 25  1  0  0  0  0
 23 28  1  1  0  0  0
 24 25  1  0  0  0  0
 25 22  1  6  0  0  0
 28 26  2  0  0  0  0
 28 27  1  0  0  0  0
M  END
>  <MODEL>
4

>  <REMARK>
 VINA RESULT:      -6.5      3.296      7.178
  Name = 
  7 active torsions:
  status: ('A' for Active; 'I' for Inactive)
    1  A    between atoms: O_1  and  C_17
    2  A    between atoms: O_1  and  C_20
    3  A    between atoms: C_2  and  C_22
    4  A    between atoms: C_3  and  N_27
    5  A    between atoms: C_10  and  C_17
    6  A    between atoms: C_10  and  C_26
    7  A    between atoms: C_18  and  C_26
                            x       y       z     vdW  Elec       q    Type
                         _______ _______ _______ _____ _____    ______ ____

>  <TORSDO>
F 7

$$$$
=
 OpenBabel11042418273D

 28 30  0  0  1  0  0  0  0  0999 V2000
  189.2720  174.9760  142.1610 C   0  0  0  0  0  0  0  0  0  0  0  0
  189.3620  174.0230  141.1410 C   0  0  0  0  0  3  0  0  0  0  0  0
  191.7170  174.1160  141.2080 C   0  0  0  0  0  0  0  0  0  0  0  0
  192.9770  173.6790  140.7160 N   0  0  0  0  0  1  0  0  0  0  0  0
  190.4740  175.4780  142.7050 C   0  0  0  0  0  0  0  0  0  0  0  0
  190.5710  173.6080  140.6890 N   0  0  0  0  0  0  0  0  0  0  0  0
  191.6600  175.0420  142.1990 N   0  0  0  0  0  0  0  0  0  0  0  0
  186.4620  177.8670  140.4030 N   0  0  0  0  0  2  0  0  0  0  0  0
  187.4640  176.9790  140.8020 N   0  0  0  0  0  0  0  0  0  0  0  0
  185.4810  177.8330  141.4230 C   0  0  0  0  0  0  0  0  0  0  0  0
  184.4260  178.5180  141.3930 O   0  0  0  0  0  0  0  0  0  0  0  0
  187.1680  176.4390  141.9420 C   0  0  0  0  0  0  0  0  0  0  0  0
  187.9990  175.4750  142.6000 N   0  0  0  0  0  2  0  0  0  0  0  0
  185.8610  176.8970  142.5080 C   0  0  0  0  0  2  0  0  0  0  0  0
  190.5810  177.7070  143.4540 O   0  0  0  0  0  0  0  0  0  0  0  0
  190.5140  176.4910  143.7870 C   0  0  0  0  0  0  0  0  0  0  0  0
  190.2920  174.7590  145.4100 O   0  0  0  0  0  1  0  0  0  0  0  0
  190.5020  176.1340  145.2650 C   0  0  1  0  0  0  0  0  0  0  0  0
  191.8560  176.4650  145.8740 C   0  0  0  0  0  1  0  0  0  0  0  0
  189.4350  176.9060  146.0190 C   0  0  0  0  0  0  0  0  0  0  0  0
  189.7620  177.6260  147.0010 O   0  0  0  0  0  0  0  0  0  0  0  0
  188.0750  176.8180  145.6960 O   0  0  0  0  0  0  0  0  0  0  0  0
  185.7140  176.9960  146.0630 C   0  0  2  0  0  3  0  0  0  0  0  0
  186.4080  176.9010  147.4100 C   0  0  0  0  0  2  0  0  0  0  0  0
  187.0730  177.6420  146.2720 C   0  0  1  0  0  3  0  0  0  0  0  0
  184.1950  178.4300  147.2180 O   0  0  0  0  0  1  0  0  0  0  0  0
  184.1200  178.5550  144.9320 O   0  0  0  0  0  0  0  0  0  0  0  0
  184.6480  178.0410  146.1100 C   0  0  0  0  0  0  0  0  0  0  0  0
  1 13  1  0  0  0  0
  1  5  1  0  0  0  0
  2  1  2  0  0  0  0
  3  7  1  0  0  0  0
  4  3  1  0  0  0  0
  5 16  1  0  0  0  0
  6  2  1  0  0  0  0
  6  3  2  0  0  0  0
  7  5  2  0  0  0  0
  8  9  1  0  0  0  0
  8 10  1  0  0  0  0
  9 12  2  0  0  0  0
 10 14  1  0  0  0  0
 11 10  2  0  0  0  0
 12 14  1  0  0  0  0
 12 13  1  0  0  0  0
 15 16  2  0  0  0  0
 16 18  1  0  0  0  0
 18 17  1  0  0  0  0
 18 19  1  1  0  0  0
 18 20  1  0  0  0  0
 20 21  2  0  0  0  0
 22 20  1  0  0  0  0
 23 28  1  1  0  0  0
 23 25  1  0  0  0  0
 23 24  1  0  0  0  0
 25 22  1  6  0  0  0
 25 24  1  0  0  0  0
 27 28  2  0  0  0  0
 28 26  1  0  0  0  0
M  END
>  <MODEL>
5

>  <REMARK>
 VINA RESULT:      -6.5      2.095      5.913
  Name = 
  7 active torsions:
  status: ('A' for Active; 'I' for Inactive)
    1  A    between atoms: O_1  and  C_17
    2  A    between atoms: O_1  and  C_20
    3  A    between atoms: C_2  and  C_22
    4  A    between atoms: C_3  and  N_27
    5  A    between atoms: C_10  and  C_17
    6  A    between atoms: C_10  and  C_26
    7  A    between atoms: C_18  and  C_26
                            x       y       z     vdW  Elec       q    Type
                         _______ _______ _______ _____ _____    ______ ____

>  <TORSDO>
F 7

$$$$
=
 OpenBabel11042418273D

 28 30  0  0  1  0  0  0  0  0999 V2000
  188.2340  176.7580  143.1670 C   0  0  0  0  0  0  0  0  0  0  0  0
  187.7210  176.1470  142.0180 C   0  0  0  0  0  3  0  0  0  0  0  0
  189.6580  174.8200  141.8100 C   0  0  0  0  0  0  0  0  0  0  0  0
  190.3960  173.8260  141.1100 N   0  0  0  0  0  1  0  0  0  0  0  0
  189.5020  176.3420  143.6260 C   0  0  0  0  0  0  0  0  0  0  0  0
  188.4320  175.1930  141.3670 N   0  0  0  0  0  0  0  0  0  0  0  0
  190.1820  175.3950  142.9230 N   0  0  0  0  0  0  0  0  0  0  0  0
  185.2050  176.7550  146.3550 N   0  0  0  0  0  2  0  0  0  0  0  0
  186.1700  176.5620  145.3640 N   0  0  0  0  0  0  0  0  0  0  0  0
  184.9940  178.1530  146.4270 C   0  0  0  0  0  0  0  0  0  0  0  0
  184.1810  178.6920  147.2230 O   0  0  0  0  0  0  0  0  0  0  0  0
  186.5350  177.6960  144.8550 C   0  0  0  0  0  0  0  0  0  0  0  0
  187.5230  177.8180  143.8240 N   0  0  0  0  0  2  0  0  0  0  0  0
  185.8460  178.8790  145.4560 C   0  0  0  0  0  2  0  0  0  0  0  0
  190.8950  177.9240  144.6740 O   0  0  0  0  0  0  0  0  0  0  0  0
  190.1570  176.9110  144.8290 C   0  0  0  0  0  0  0  0  0  0  0  0
  189.1740  177.1550  146.9870 O   0  0  0  0  0  1  0  0  0  0  0  0
  189.9980  176.3240  146.2220 C   0  0  1  0  0  0  0  0  0  0  0  0
  189.3220  174.9650  146.1210 C   0  0  0  0  0  1  0  0  0  0  0  0
  191.3380  176.1430  146.9100 C   0  0  0  0  0  0  0  0  0  0  0  0
  191.5990  176.8040  147.9530 O   0  0  0  0  0  0  0  0  0  0  0  0
  192.3330  175.2960  146.4060 O   0  0  0  0  0  0  0  0  0  0  0  0
  194.2720  174.6790  145.1400 C   0  0  2  0  0  3  0  0  0  0  0  0
  193.6500  175.9090  144.5050 C   0  0  0  0  0  2  0  0  0  0  0  0
  193.6210  175.7430  146.0070 C   0  0  1  0  0  3  0  0  0  0  0  0
  196.3490  175.5560  144.3560 O   0  0  0  0  0  0  0  0  0  0  0  0
  196.4970  174.1250  146.1380 O   0  0  0  0  0  1  0  0  0  0  0  0
  195.7570  174.8260  145.1940 C   0  0  0  0  0  0  0  0  0  0  0  0
  1  5  1  0  0  0  0
  1 13  1  0  0  0  0
  2  1  2  0  0  0  0
  3  7  1  0  0  0  0
  4  3  1  0  0  0  0
  5 16  1  0  0  0  0
  6  3  2  0  0  0  0
  6  2  1  0  0  0  0
  7  5  2  0  0  0  0
  8 10  1  0  0  0  0
  9  8  1  0  0  0  0
 10 11  2  0  0  0  0
 12  9  2  0  0  0  0
 12 14  1  0  0  0  0
 13 12  1  0  0  0  0
 14 10  1  0  0  0  0
 15 16  2  0  0  0  0
 16 18  1  0  0  0  0
 18 19  1  6  0  0  0
 18 20  1  0  0  0  0
 18 17  1  0  0  0  0
 20 21  2  0  0  0  0
 22 20  1  0  0  0  0
 23 28  1  1  0  0  0
 23 25  1  0  0  0  0
 24 23  1  0  0  0  0
 24 25  1  0  0  0  0
 25 22  1  6  0  0  0
 26 28  2  0  0  0  0
 28 27  1  0  0  0  0
M  END
>  <MODEL>
6

>  <REMARK>
 VINA RESULT:      -6.3      3.004      5.808
  Name = 
  7 active torsions:
  status: ('A' for Active; 'I' for Inactive)
    1  A    between atoms: O_1  and  C_17
    2  A    between atoms: O_1  and  C_20
    3  A    between atoms: C_2  and  C_22
    4  A    between atoms: C_3  and  N_27
    5  A    between atoms: C_10  and  C_17
    6  A    between atoms: C_10  and  C_26
    7  A    between atoms: C_18  and  C_26
                            x       y       z     vdW  Elec       q    Type
                         _______ _______ _______ _____ _____    ______ ____

>  <TORSDO>
F 7

$$$$
=
 OpenBabel11042418273D

 28 30  0  0  1  0  0  0  0  0999 V2000
  189.8920  174.2160  142.1800 C   0  0  0  0  0  0  0  0  0  0  0  0
  190.6530  173.3940  141.3420 C   0  0  0  0  0  3  0  0  0  0  0  0
  189.2190  173.8510  139.5270 C   0  0  0  0  0  0  0  0  0  0  0  0
  188.8680  173.6600  138.1630 N   0  0  0  0  0  1  0  0  0  0  0  0
  188.7720  174.8710  141.6240 C   0  0  0  0  0  0  0  0  0  0  0  0
  190.3110  173.2300  140.0400 N   0  0  0  0  0  0  0  0  0  0  0  0
  188.4620  174.6550  140.3160 N   0  0  0  0  0  0  0  0  0  0  0  0
  193.0590  176.3880  144.3220 N   0  0  0  0  0  2  0  0  0  0  0  0
  192.1310  175.7740  143.4780 N   0  0  0  0  0  0  0  0  0  0  0  0
  192.7060  176.0060  145.6380 C   0  0  0  0  0  0  0  0  0  0  0  0
  193.3330  176.3820  146.6620 O   0  0  0  0  0  0  0  0  0  0  0  0
  191.2820  175.0760  144.1650 C   0  0  0  0  0  0  0  0  0  0  0  0
  190.2020  174.3430  143.5770 N   0  0  0  0  0  2  0  0  0  0  0  0
  191.5160  175.1220  145.6420 C   0  0  0  0  0  2  0  0  0  0  0  0
  186.7660  175.3110  142.7750 O   0  0  0  0  0  0  0  0  0  0  0  0
  187.8850  175.7660  142.4050 C   0  0  0  0  0  0  0  0  0  0  0  0
  189.3460  177.6040  141.9940 O   0  0  0  0  0  1  0  0  0  0  0  0
  188.2480  177.1990  142.7590 C   0  0  1  0  0  0  0  0  0  0  0  0
  187.0810  178.1130  142.4160 C   0  0  0  0  0  1  0  0  0  0  0  0
  188.5580  177.3510  144.2360 C   0  0  0  0  0  0  0  0  0  0  0  0
  189.6220  177.9250  144.5950 O   0  0  0  0  0  0  0  0  0  0  0  0
  187.7250  176.8320  145.2360 O   0  0  0  0  0  0  0  0  0  0  0  0
  185.4640  177.1320  145.9710 C   0  0  2  0  0  3  0  0  0  0  0  0
  186.3210  176.7790  147.1720 C   0  0  0  0  0  2  0  0  0  0  0  0
  186.8940  177.6330  146.0640 C   0  0  1  0  0  3  0  0  0  0  0  0
  183.8510  178.8030  145.4190 O   0  0  0  0  0  0  0  0  0  0  0  0
  184.4100  178.6710  147.6360 O   0  0  0  0  0  1  0  0  0  0  0  0
  184.5210  178.2350  146.3220 C   0  0  0  0  0  0  0  0  0  0  0  0
  1 13  1  0  0  0  0
  2  1  2  0  0  0  0
  3  6  2  0  0  0  0
  3  7  1  0  0  0  0
  4  3  1  0  0  0  0
  5  1  1  0  0  0  0
  5 16  1  0  0  0  0
  6  2  1  0  0  0  0
  7  5  2  0  0  0  0
  8 10  1  0  0  0  0
  9 12  2  0  0  0  0
  9  8  1  0  0  0  0
 10 14  1  0  0  0  0
 10 11  2  0  0  0  0
 12 14  1  0  0  0  0
 13 12  1  0  0  0  0
 16 18  1  0  0  0  0
 16 15  2  0  0  0  0
 17 18  1  0  0  0  0
 18 19  1  6  0  0  0
 18 20  1  0  0  0  0
 20 21  2  0  0  0  0
 20 22  1  0  0  0  0
 23 25  1  0  0  0  0
 23 28  1  1  0  0  0
 23 24  1  0  0  0  0
 25 22  1  6  0  0  0
 25 24  1  0  0  0  0
 26 28  2  0  0  0  0
 28 27  1  0  0  0  0
M  END
>  <MODEL>
7

>  <REMARK>
 VINA RESULT:      -6.2      3.030      5.268
  Name = 
  7 active torsions:
  status: ('A' for Active; 'I' for Inactive)
    1  A    between atoms: O_1  and  C_17
    2  A    between atoms: O_1  and  C_20
    3  A    between atoms: C_2  and  C_22
    4  A    between atoms: C_3  and  N_27
    5  A    between atoms: C_10  and  C_17
    6  A    between atoms: C_10  and  C_26
    7  A    between atoms: C_18  and  C_26
                            x       y       z     vdW  Elec       q    Type
                         _______ _______ _______ _____ _____    ______ ____

>  <TORSDO>
F 7

$$$$
=
 OpenBabel11042418273D

 28 30  0  0  1  0  0  0  0  0999 V2000
  187.9680  176.0270  143.4910 C   0  0  0  0  0  0  0  0  0  0  0  0
  186.9040  175.9250  142.5880 C   0  0  0  0  0  3  0  0  0  0  0  0
  186.0920  178.0390  143.2450 C   0  0  0  0  0  0  0  0  0  0  0  0
  185.1250  179.0730  143.1240 N   0  0  0  0  0  1  0  0  0  0  0  0
  188.0660  177.2020  144.2670 C   0  0  0  0  0  0  0  0  0  0  0  0
  185.9950  176.9250  142.4770 N   0  0  0  0  0  0  0  0  0  0  0  0
  187.1140  178.1650  144.1300 N   0  0  0  0  0  0  0  0  0  0  0  0
  192.0550  175.3640  142.0100 N   0  0  0  0  0  2  0  0  0  0  0  0
  190.7660  175.7470  142.3880 N   0  0  0  0  0  0  0  0  0  0  0  0
  192.2710  174.0920  142.5900 C   0  0  0  0  0  0  0  0  0  0  0  0
  193.3400  173.4400  142.4570 O   0  0  0  0  0  0  0  0  0  0  0  0
  190.2140  174.8310  143.1200 C   0  0  0  0  0  0  0  0  0  0  0  0
  188.8960  174.9460  143.6690 N   0  0  0  0  0  2  0  0  0  0  0  0
  191.0890  173.6420  143.3630 C   0  0  0  0  0  2  0  0  0  0  0  0
  190.1600  178.0800  144.8870 O   0  0  0  0  0  0  0  0  0  0  0  0
  189.1430  177.4310  145.2600 C   0  0  0  0  0  0  0  0  0  0  0  0
  189.4550  177.9250  147.5720 O   0  0  0  0  0  1  0  0  0  0  0  0
  189.0880  176.9070  146.6860 C   0  0  1  0  0  0  0  0  0  0  0  0
  187.6620  176.4940  147.0170 C   0  0  0  0  0  1  0  0  0  0  0  0
  189.9920  175.7020  146.8750 C   0  0  0  0  0  0  0  0  0  0  0  0
  189.4960  174.5430  146.8780 O   0  0  0  0  0  0  0  0  0  0  0  0
  191.3700  175.8250  147.0950 O   0  0  0  0  0  0  0  0  0  0  0  0
  193.7250  175.9120  146.6620 C   0  0  2  0  0  3  0  0  0  0  0  0
  193.1780  174.6120  146.1030 C   0  0  0  0  0  2  0  0  0  0  0  0
  192.3350  175.8650  146.0530 C   0  0  1  0  0  3  0  0  0  0  0  0
  195.2910  175.7990  144.8640 O   0  0  0  0  0  0  0  0  0  0  0  0
  194.9290  177.8920  145.7210 O   0  0  0  0  0  1  0  0  0  0  0  0
  194.6790  176.5250  145.6900 C   0  0  0  0  0  0  0  0  0  0  0  0
  1 13  1  0  0  0  0
  1  5  1  0  0  0  0
  2  1  2  0  0  0  0
  3  7  1  0  0  0  0
  4  3  1  0  0  0  0
  5 16  1  0  0  0  0
  6  2  1  0  0  0  0
  6  3  2  0  0  0  0
  7  5  2  0  0  0  0
  8  9  1  0  0  0  0
  8 10  1  0  0  0  0
  9 12  2  0  0  0  0
 10 14  1  0  0  0  0
 11 10  2  0  0  0  0
 12 14  1  0  0  0  0
 12 13  1  0  0  0  0
 15 16  2  0  0  0  0
 16 18  1  0  0  0  0
 18 20  1  0  0  0  0
 18 19  1  1  0  0  0
 18 17  1  0  0  0  0
 20 21  2  0  0  0  0
 20 22  1  0  0  0  0
 23 28  1  6  0  0  0
 24 23  1  0  0  0  0
 25 24  1  0  0  0  0
 25 23  1  0  0  0  0
 25 22  1  1  0  0  0
 26 28  2  0  0  0  0
 28 27  1  0  0  0  0
M  END
>  <MODEL>
8

>  <REMARK>
 VINA RESULT:      -6.1      2.650      4.180
  Name = 
  7 active torsions:
  status: ('A' for Active; 'I' for Inactive)
    1  A    between atoms: O_1  and  C_17
    2  A    between atoms: O_1  and  C_20
    3  A    between atoms: C_2  and  C_22
    4  A    between atoms: C_3  and  N_27
    5  A    between atoms: C_10  and  C_17
    6  A    between atoms: C_10  and  C_26
    7  A    between atoms: C_18  and  C_26
                            x       y       z     vdW  Elec       q    Type
                         _______ _______ _______ _____ _____    ______ ____

>  <TORSDO>
F 7

$$$$
=
 OpenBabel11042418273D

 28 30  0  0  1  0  0  0  0  0999 V2000
  191.5490  174.7590  143.7760 C   0  0  0  0  0  0  0  0  0  0  0  0
  191.8230  173.6210  143.0100 C   0  0  0  0  0  3  0  0  0  0  0  0
  193.1170  172.7080  144.7570 C   0  0  0  0  0  0  0  0  0  0  0  0
  193.9300  171.6570  145.2610 N   0  0  0  0  0  1  0  0  0  0  0  0
  192.0870  174.8230  145.0790 C   0  0  0  0  0  0  0  0  0  0  0  0
  192.5910  172.6210  143.5100 N   0  0  0  0  0  0  0  0  0  0  0  0
  192.8680  173.8010  145.5230 N   0  0  0  0  0  0  0  0  0  0  0  0
  187.3960  175.0860  142.3690 N   0  0  0  0  0  2  0  0  0  0  0  0
  188.6710  174.7960  142.8590 N   0  0  0  0  0  0  0  0  0  0  0  0
  187.4260  176.4460  141.9790 C   0  0  0  0  0  0  0  0  0  0  0  0
  186.4370  177.0500  141.4890 O   0  0  0  0  0  0  0  0  0  0  0  0
  189.4340  175.8410  142.7910 C   0  0  0  0  0  0  0  0  0  0  0  0
  190.7960  175.8550  143.2340 N   0  0  0  0  0  2  0  0  0  0  0  0
  188.7580  177.0490  142.2250 C   0  0  0  0  0  2  0  0  0  0  0  0
  192.6040  176.9910  145.8380 O   0  0  0  0  0  0  0  0  0  0  0  0
  191.8720  175.9740  145.9900 C   0  0  0  0  0  0  0  0  0  0  0  0
  191.2310  175.0900  148.1090 O   0  0  0  0  0  1  0  0  0  0  0  0
  190.8350  175.9750  147.1020 C   0  0  1  0  0  0  0  0  0  0  0  0
  190.7520  177.3660  147.7120 C   0  0  0  0  0  1  0  0  0  0  0  0
  189.4600  175.5950  146.5850 C   0  0  0  0  0  0  0  0  0  0  0  0
  189.1060  174.3840  146.5850 O   0  0  0  0  0  0  0  0  0  0  0  0
  188.5680  176.5380  146.0580 O   0  0  0  0  0  0  0  0  0  0  0  0
  186.6680  177.9880  145.9020 C   0  0  2  0  0  3  0  0  0  0  0  0
  186.2540  176.5980  145.4560 C   0  0  0  0  0  2  0  0  0  0  0  0
  187.2630  176.7610  146.5700 C   0  0  1  0  0  3  0  0  0  0  0  0
  184.4130  178.2240  146.6520 O   0  0  0  0  0  0  0  0  0  0  0  0
  185.9460  179.5530  147.7140 O   0  0  0  0  0  1  0  0  0  0  0  0
  185.6150  178.5790  146.7810 C   0  0  0  0  0  0  0  0  0  0  0  0
  1  5  1  0  0  0  0
  2  6  1  0  0  0  0
  2  1  2  0  0  0  0
  3  4  1  0  0  0  0
  3  7  1  0  0  0  0
  5  7  2  0  0  0  0
  5 16  1  0  0  0  0
  6  3  2  0  0  0  0
  8  9  1  0  0  0  0
 10 14  1  0  0  0  0
 10  8  1  0  0  0  0
 11 10  2  0  0  0  0
 12  9  2  0  0  0  0
 12 13  1  0  0  0  0
 13  1  1  0  0  0  0
 14 12  1  0  0  0  0
 15 16  2  0  0  0  0
 16 18  1  0  0  0  0
 18 19  1  1  0  0  0
 18 17  1  0  0  0  0
 20 21  2  0  0  0  0
 20 18  1  0  0  0  0
 22 20  1  0  0  0  0
 23 25  1  0  0  0  0
 23 28  1  1  0  0  0
 24 23  1  0  0  0  0
 24 25  1  0  0  0  0
 25 22  1  6  0  0  0
 26 28  2  0  0  0  0
 28 27  1  0  0  0  0
M  END
>  <MODEL>
9

>  <REMARK>
 VINA RESULT:      -6.1      2.694      6.658
  Name = 
  7 active torsions:
  status: ('A' for Active; 'I' for Inactive)
    1  A    between atoms: O_1  and  C_17
    2  A    between atoms: O_1  and  C_20
    3  A    between atoms: C_2  and  C_22
    4  A    between atoms: C_3  and  N_27
    5  A    between atoms: C_10  and  C_17
    6  A    between atoms: C_10  and  C_26
    7  A    between atoms: C_18  and  C_26
                            x       y       z     vdW  Elec       q    Type
                         _______ _______ _______ _____ _____    ______ ____

>  <TORSDO>
F 7

$$$$
