=
 OpenBabel11042417303D

 39 42  0  0  1  0  0  0  0  0999 V2000
  188.6200  176.5920  141.5370 C   0  0  2  0  0  3  0  0  0  0  0  0
  191.0450  177.2370  145.1370 O   0  0  0  0  0  0  0  0  0  0  0  0
  189.4350  176.9820  142.7290 C   0  0  0  0  0  0  0  0  0  0  0  0
  190.2200  177.9680  142.6670 O   0  0  0  0  0  0  0  0  0  0  0  0
  189.3190  176.2080  143.9280 N   0  0  0  0  0  2  0  0  0  0  0  0
  190.1170  176.3840  145.1030 C   0  0  0  0  0  0  0  0  0  0  0  0
  189.8390  175.5530  146.3080 C   0  0  0  0  0  2  0  0  0  0  0  0
  188.4660  175.8720  146.8770 C   0  0  0  0  0  2  0  0  0  0  0  0
  188.4070  177.2160  147.2580 O   0  0  0  0  0  0  0  0  0  0  0  0
  184.8210  177.0500  146.3060 C   0  0  0  0  0  3  0  0  0  0  0  0
  186.6560  178.7790  147.6070 C   0  0  0  0  0  3  0  0  0  0  0  0
  184.4120  178.2090  146.8320 C   0  0  0  0  0  3  0  0  0  0  0  0
  186.2070  176.5340  146.5880 C   0  0  0  0  0  2  0  0  0  0  0  0
  187.2080  177.6900  146.7240 C   0  0  2  0  0  3  0  0  0  0  0  0
  185.3440  179.0390  147.6200 C   0  0  0  0  0  3  0  0  0  0  0  0
  186.8990  177.7240  140.3510 O   0  0  0  0  0  0  0  0  0  0  0  0
  186.7240  177.8290  142.6820 N   0  0  0  0  0  2  0  0  0  0  0  0
  187.3670  177.4010  141.4750 C   0  0  0  0  0  0  0  0  0  0  0  0
  184.3980  177.8410  142.9410 O   0  0  0  0  0  1  0  0  0  0  0  0
  185.6180  179.7030  143.8060 C   0  0  0  0  0  1  0  0  0  0  0  0
  185.5160  178.6450  142.7230 C   0  0  1  0  0  3  0  0  0  0  0  0
  188.3020  175.1680  141.5630 N   0  0  0  0  0  2  0  0  0  0  0  0
  189.9510  172.2980  139.8110 C   0  0  0  0  0  3  0  0  0  0  0  0
  189.3720  172.3910  138.5460 C   0  0  0  0  0  3  0  0  0  0  0  0
  188.6900  174.2370  140.5460 C   0  0  0  0  0  0  0  0  0  0  0  0
  188.4510  173.4010  138.2750 C   0  0  0  0  0  3  0  0  0  0  0  0
  188.1100  174.3150  139.2710 C   0  0  0  0  0  3  0  0  0  0  0  0
  189.6250  173.2110  140.8270 C   0  0  0  0  0  0  0  0  0  0  0  0
  192.1200  174.6130  141.8580 N   0  0  0  0  0  0  0  0  0  0  0  0
  190.8250  172.5340  144.3620 C   0  0  0  0  0  3  0  0  0  0  0  0
  191.3670  173.7340  142.5680 C   0  0  0  0  0  0  0  0  0  0  0  0
  192.7950  173.9860  144.4610 C   0  0  0  0  0  0  0  0  0  0  0  0
  190.2830  173.0880  142.1570 C   0  0  0  0  0  0  0  0  0  0  0  0
  193.5390  174.8700  143.7370 N   0  0  0  0  0  2  0  0  0  0  0  0
  193.2100  175.1850  142.4480 C   0  0  0  0  0  0  0  0  0  0  0  0
  194.0470  176.1450  141.6840 C   0  0  0  0  0  1  0  0  0  0  0  0
  193.1550  173.6770  145.8030 N   0  0  0  0  0  1  0  0  0  0  0  0
  189.8100  172.2280  143.2970 C   0  0  0  0  0  3  0  0  0  0  0  0
  191.6820  173.4050  143.8560 C   0  0  0  0  0  0  0  0  0  0  0  0
  1 18  1  1  0  0  0
  1 22  1  0  0  0  0
  1  3  1  0  0  0  0
  3  5  1  0  0  0  0
  4  3  2  0  0  0  0
  5  6  1  0  0  0  0
  6  2  2  0  0  0  0
  6  7  1  0  0  0  0
  7  8  1  0  0  0  0
  8  9  1  0  0  0  0
 10 13  1  0  0  0  0
 10 12  2  0  0  0  0
 11 15  2  0  0  0  0
 12 15  1  0  0  0  0
 13 14  1  0  0  0  0
 14  9  1  1  0  0  0
 14 11  1  0  0  0  0
 16 18  2  0  0  0  0
 17 21  1  0  0  0  0
 18 17  1  0  0  0  0
 21 19  1  0  0  0  0
 21 20  1  1  0  0  0
 23 28  1  0  0  0  0
 24 23  2  0  0  0  0
 25 28  2  0  0  0  0
 25 22  1  0  0  0  0
 26 24  1  0  0  0  0
 26 27  2  0  0  0  0
 27 25  1  0  0  0  0
 28 33  1  0  0  0  0
 29 35  2  0  0  0  0
 29 31  1  0  0  0  0
 31 39  1  0  0  0  0
 32 37  1  0  0  0  0
 33 31  2  0  0  0  0
 33 38  1  0  0  0  0
 34 32  1  0  0  0  0
 35 34  1  0  0  0  0
 36 35  1  0  0  0  0
 38 30  2  0  0  0  0
 39 30  1  0  0  0  0
 39 32  2  0  0  0  0
M  END
>  <MODEL>
1

>  <REMARK>
 VINA RESULT:      -7.5      0.000      0.000
  Name = 
  10 active torsions:
  status: ('A' for Active; 'I' for Inactive)
    1  A    between atoms: C_1  and  C_9
    2  A    between atoms: C_1  and  C_22
    3  A    between atoms: C_1  and  N_31
    4  A    between atoms: C_2  and  C_34
    5  A    between atoms: C_2  and  C_35
    6  A    between atoms: C_13  and  N_31
    7  A    between atoms: C_15  and  C_33
    8  A    between atoms: N_18  and  C_37
    9  A    between atoms: C_25  and  O_32
   10  A    between atoms: O_32  and  C_34
                            x       y       z     vdW  Elec       q    Type
                         _______ _______ _______ _____ _____    ______ ____

>  <TORSDO>
F 10

$$$$
=
 OpenBabel11042417303D

 39 42  0  0  1  0  0  0  0  0999 V2000
  191.5560  174.7260  142.8290 C   0  0  2  0  0  3  0  0  0  0  0  0
  188.0100  175.2980  140.3090 O   0  0  0  0  0  0  0  0  0  0  0  0
  190.3660  174.7540  141.9230 C   0  0  0  0  0  0  0  0  0  0  0  0
  190.3720  174.0940  140.8470 O   0  0  0  0  0  0  0  0  0  0  0  0
  189.2370  175.5540  142.2900 N   0  0  0  0  0  2  0  0  0  0  0  0
  188.0830  175.7750  141.4720 C   0  0  0  0  0  0  0  0  0  0  0  0
  186.9470  176.5740  142.0120 C   0  0  0  0  0  2  0  0  0  0  0  0
  187.4140  177.9580  142.4340 C   0  0  0  0  0  2  0  0  0  0  0  0
  187.6110  177.9940  143.8170 O   0  0  0  0  0  0  0  0  0  0  0  0
  185.2300  176.8600  146.4320 C   0  0  0  0  0  3  0  0  0  0  0  0
  185.6390  179.0230  144.6440 C   0  0  0  0  0  3  0  0  0  0  0  0
  184.3990  177.9070  146.4260 C   0  0  0  0  0  3  0  0  0  0  0  0
  186.5190  176.9070  145.6550 C   0  0  0  0  0  2  0  0  0  0  0  0
  186.3570  177.7280  144.3680 C   0  0  2  0  0  3  0  0  0  0  0  0
  184.6940  179.0850  145.5870 C   0  0  0  0  0  3  0  0  0  0  0  0
  193.1870  173.1130  142.2040 O   0  0  0  0  0  0  0  0  0  0  0  0
  193.4740  175.2300  141.2470 N   0  0  0  0  0  2  0  0  0  0  0  0
  192.7730  174.2970  142.0770 C   0  0  0  0  0  0  0  0  0  0  0  0
  194.5720  175.3610  139.1840 O   0  0  0  0  0  1  0  0  0  0  0  0
  195.9040  175.5330  141.1590 C   0  0  0  0  0  1  0  0  0  0  0  0
  194.6860  174.9130  140.4990 C   0  0  1  0  0  3  0  0  0  0  0  0
  191.3270  173.8420  143.9670 N   0  0  0  0  0  2  0  0  0  0  0  0
  191.6860  175.3470  147.3780 C   0  0  0  0  0  3  0  0  0  0  0  0
  190.3810  175.2360  147.8550 C   0  0  0  0  0  3  0  0  0  0  0  0
  191.0260  174.2960  145.2930 C   0  0  0  0  0  0  0  0  0  0  0  0
  189.3950  174.6600  147.0580 C   0  0  0  0  0  3  0  0  0  0  0  0
  189.7160  174.1960  145.7830 C   0  0  0  0  0  3  0  0  0  0  0  0
  192.0320  174.8840  146.0980 C   0  0  0  0  0  0  0  0  0  0  0  0
  194.1270  172.7000  145.7840 N   0  0  0  0  0  0  0  0  0  0  0  0
  195.4890  175.7800  144.8180 C   0  0  0  0  0  3  0  0  0  0  0  0
  194.3180  174.0140  145.5010 C   0  0  0  0  0  0  0  0  0  0  0  0
  196.5610  173.5780  144.8200 C   0  0  0  0  0  0  0  0  0  0  0  0
  193.4420  175.0020  145.6360 C   0  0  0  0  0  0  0  0  0  0  0  0
  196.3530  172.2610  145.1050 N   0  0  0  0  0  0  0  0  0  0  0  0
  195.1500  171.8200  145.5820 C   0  0  0  0  0  0  0  0  0  0  0  0
  194.9600  170.3800  145.8920 C   0  0  0  0  0  1  0  0  0  0  0  0
  197.8210  174.0120  144.3200 N   0  0  0  0  0  1  0  0  0  0  0  0
  194.1210  176.2720  145.2000 C   0  0  0  0  0  2  0  0  0  0  0  0
  195.5140  174.4730  145.0260 C   0  0  0  0  0  0  0  0  0  0  0  0
  1  3  1  6  0  0  0
  1 22  1  0  0  0  0
  2  6  2  0  0  0  0
  3  5  1  0  0  0  0
  4  3  2  0  0  0  0
  6  7  1  0  0  0  0
  6  5  1  0  0  0  0
  7  8  1  0  0  0  0
  8  9  1  0  0  0  0
 11 15  2  0  0  0  0
 12 10  2  0  0  0  0
 13 10  1  0  0  0  0
 14  9  1  1  0  0  0
 14 11  1  0  0  0  0
 14 13  1  0  0  0  0
 15 12  1  0  0  0  0
 17 18  1  0  0  0  0
 18 16  2  0  0  0  0
 18  1  1  0  0  0  0
 19 21  1  0  0  0  0
 21 20  1  1  0  0  0
 21 17  1  0  0  0  0
 22 25  1  0  0  0  0
 23 24  1  0  0  0  0
 25 27  2  0  0  0  0
 25 28  1  0  0  0  0
 26 24  2  0  0  0  0
 27 26  1  0  0  0  0
 28 23  2  0  0  0  0
 30 39  2  0  0  0  0
 30 38  1  0  0  0  0
 31 33  2  0  0  0  0
 31 29  1  0  0  0  0
 32 39  1  0  0  0  0
 32 34  2  0  0  0  0
 33 28  1  0  0  0  0
 34 35  1  0  0  0  0
 35 29  2  0  0  0  0
 35 36  1  0  0  0  0
 37 32  1  0  0  0  0
 38 33  1  0  0  0  0
 39 31  1  0  0  0  0
M  END
>  <MODEL>
2

>  <REMARK>
 VINA RESULT:      -7.2      2.615      5.897
  Name = 
  10 active torsions:
  status: ('A' for Active; 'I' for Inactive)
    1  A    between atoms: C_1  and  C_9
    2  A    between atoms: C_1  and  C_22
    3  A    between atoms: C_1  and  N_31
    4  A    between atoms: C_2  and  C_34
    5  A    between atoms: C_2  and  C_35
    6  A    between atoms: C_13  and  N_31
    7  A    between atoms: C_15  and  C_33
    8  A    between atoms: N_18  and  C_37
    9  A    between atoms: C_25  and  O_32
   10  A    between atoms: O_32  and  C_34
                            x       y       z     vdW  Elec       q    Type
                         _______ _______ _______ _____ _____    ______ ____

>  <TORSDO>
F 10

$$$$
=
 OpenBabel11042417303D

 39 42  0  0  1  0  0  0  0  0999 V2000
  190.1440  175.9290  145.8490 C   0  0  2  0  0  3  0  0  0  0  0  0
  187.0750  178.3090  147.8900 O   0  0  0  0  0  0  0  0  0  0  0  0
  189.2010  176.8780  146.5180 C   0  0  0  0  0  0  0  0  0  0  0  0
  189.6480  177.8400  147.2030 O   0  0  0  0  0  0  0  0  0  0  0  0
  187.7920  176.6630  146.3830 N   0  0  0  0  0  2  0  0  0  0  0  0
  186.7760  177.4100  147.0600 C   0  0  0  0  0  0  0  0  0  0  0  0
  185.3430  177.1250  146.7690 C   0  0  0  0  0  2  0  0  0  0  0  0
  184.9770  177.5800  145.3650 C   0  0  0  0  0  2  0  0  0  0  0  0
  185.3360  178.9190  145.1890 O   0  0  0  0  0  0  0  0  0  0  0  0
  186.7180  178.2430  141.8080 C   0  0  0  0  0  3  0  0  0  0  0  0
  184.2240  178.5600  143.1230 C   0  0  0  0  0  3  0  0  0  0  0  0
  185.5700  178.1030  141.1380 C   0  0  0  0  0  3  0  0  0  0  0  0
  186.7130  178.3470  143.3110 C   0  0  0  0  0  2  0  0  0  0  0  0
  185.4610  179.0810  143.8080 C   0  0  2  0  0  3  0  0  0  0  0  0
  184.2810  178.1390  141.8550 C   0  0  0  0  0  3  0  0  0  0  0  0
  191.5480  175.3530  147.6790 O   0  0  0  0  0  0  0  0  0  0  0  0
  192.5970  176.5640  145.9730 N   0  0  0  0  0  2  0  0  0  0  0  0
  191.4600  175.9160  146.5550 C   0  0  0  0  0  0  0  0  0  0  0  0
  194.5150  175.3740  146.5910 O   0  0  0  0  0  1  0  0  0  0  0  0
  194.7970  177.6390  145.8890 C   0  0  0  0  0  1  0  0  0  0  0  0
  193.9130  176.6310  146.5990 C   0  0  1  0  0  3  0  0  0  0  0  0
  190.3280  176.2770  144.4440 N   0  0  0  0  0  2  0  0  0  0  0  0
  190.4400  174.0200  141.4570 C   0  0  0  0  0  3  0  0  0  0  0  0
  189.0820  173.7780  141.2570 C   0  0  0  0  0  3  0  0  0  0  0  0
  189.9200  175.4490  143.3480 C   0  0  0  0  0  0  0  0  0  0  0  0
  188.1390  174.3640  142.0980 C   0  0  0  0  0  3  0  0  0  0  0  0
  188.5570  175.1920  143.1390 C   0  0  0  0  0  3  0  0  0  0  0  0
  190.8830  174.8530  142.4970 C   0  0  0  0  0  0  0  0  0  0  0  0
  192.9940  173.0640  143.7600 N   0  0  0  0  0  0  0  0  0  0  0  0
  194.4960  176.0070  142.5970 C   0  0  0  0  0  3  0  0  0  0  0  0
  193.2290  174.2820  143.2090 C   0  0  0  0  0  0  0  0  0  0  0  0
  195.5550  174.0960  143.7030 C   0  0  0  0  0  0  0  0  0  0  0  0
  192.3410  175.1030  142.6620 C   0  0  0  0  0  0  0  0  0  0  0  0
  195.3040  172.8720  144.2490 N   0  0  0  0  0  2  0  0  0  0  0  0
  194.0380  172.3550  144.2800 C   0  0  0  0  0  0  0  0  0  0  0  0
  193.7980  171.0230  144.8910 C   0  0  0  0  0  1  0  0  0  0  0  0
  196.8810  174.6110  143.6780 N   0  0  0  0  0  1  0  0  0  0  0  0
  193.0820  176.3280  142.2000 C   0  0  0  0  0  3  0  0  0  0  0  0
  194.4860  174.8160  143.1720 C   0  0  0  0  0  0  0  0  0  0  0  0
  1 22  1  6  0  0  0
  1  3  1  0  0  0  0
  1 18  1  0  0  0  0
  3  4  2  0  0  0  0
  5  3  1  0  0  0  0
  5  6  1  0  0  0  0
  6  2  2  0  0  0  0
  7  6  1  0  0  0  0
  8  7  1  0  0  0  0
  9  8  1  0  0  0  0
 10 13  1  0  0  0  0
 11 14  1  0  0  0  0
 12 10  2  0  0  0  0
 12 15  1  0  0  0  0
 13 14  1  0  0  0  0
 14  9  1  1  0  0  0
 15 11  2  0  0  0  0
 17 18  1  0  0  0  0
 17 21  1  0  0  0  0
 18 16  2  0  0  0  0
 19 21  1  0  0  0  0
 21 20  1  6  0  0  0
 23 28  1  0  0  0  0
 24 23  2  0  0  0  0
 24 26  1  0  0  0  0
 25 22  1  0  0  0  0
 26 27  2  0  0  0  0
 27 25  1  0  0  0  0
 28 33  1  0  0  0  0
 28 25  2  0  0  0  0
 29 35  2  0  0  0  0
 30 39  1  0  0  0  0
 31 29  1  0  0  0  0
 32 34  1  0  0  0  0
 33 31  2  0  0  0  0
 34 35  1  0  0  0  0
 35 36  1  0  0  0  0
 37 32  1  0  0  0  0
 38 30  2  0  0  0  0
 38 33  1  0  0  0  0
 39 31  1  0  0  0  0
 39 32  2  0  0  0  0
M  END
>  <MODEL>
3

>  <REMARK>
 VINA RESULT:      -7.1      2.211      5.156
  Name = 
  10 active torsions:
  status: ('A' for Active; 'I' for Inactive)
    1  A    between atoms: C_1  and  C_9
    2  A    between atoms: C_1  and  C_22
    3  A    between atoms: C_1  and  N_31
    4  A    between atoms: C_2  and  C_34
    5  A    between atoms: C_2  and  C_35
    6  A    between atoms: C_13  and  N_31
    7  A    between atoms: C_15  and  C_33
    8  A    between atoms: N_18  and  C_37
    9  A    between atoms: C_25  and  O_32
   10  A    between atoms: O_32  and  C_34
                            x       y       z     vdW  Elec       q    Type
                         _______ _______ _______ _____ _____    ______ ____

>  <TORSDO>
F 10

$$$$
=
 OpenBabel11042417303D

 39 42  0  0  1  0  0  0  0  0999 V2000
  191.9250  176.6760  142.8260 C   0  0  2  0  0  3  0  0  0  0  0  0
  188.1830  174.4890  142.1380 O   0  0  0  0  0  0  0  0  0  0  0  0
  190.6920  175.8340  142.7300 C   0  0  0  0  0  0  0  0  0  0  0  0
  190.7380  174.6060  143.0170 O   0  0  0  0  0  0  0  0  0  0  0  0
  189.4720  176.4420  142.2910 N   0  0  0  0  0  2  0  0  0  0  0  0
  188.2490  175.7430  142.0350 C   0  0  0  0  0  0  0  0  0  0  0  0
  187.0340  176.5140  141.6500 C   0  0  0  0  0  2  0  0  0  0  0  0
  186.0970  176.6710  142.8380 C   0  0  0  0  0  2  0  0  0  0  0  0
  186.0000  178.0180  143.1960 O   0  0  0  0  0  0  0  0  0  0  0  0
  185.7300  179.1940  146.7080 C   0  0  0  0  0  3  0  0  0  0  0  0
  185.8570  176.7840  145.2180 C   0  0  0  0  0  3  0  0  0  0  0  0
  185.6470  178.0080  147.3190 C   0  0  0  0  0  3  0  0  0  0  0  0
  185.6650  179.2820  145.2060 C   0  0  0  0  0  2  0  0  0  0  0  0
  186.3170  178.0550  144.5540 C   0  0  2  0  0  3  0  0  0  0  0  0
  185.5810  176.7650  146.5260 C   0  0  0  0  0  3  0  0  0  0  0  0
  192.9410  174.8390  141.7110 O   0  0  0  0  0  0  0  0  0  0  0  0
  194.4370  176.3860  142.6290 N   0  0  0  0  0  2  0  0  0  0  0  0
  193.1150  175.9140  142.3450 C   0  0  0  0  0  0  0  0  0  0  0  0
  195.8670  175.8440  140.8570 O   0  0  0  0  0  1  0  0  0  0  0  0
  196.8540  176.2260  142.9980 C   0  0  0  0  0  1  0  0  0  0  0  0
  195.6580  175.6970  142.2270 C   0  0  1  0  0  3  0  0  0  0  0  0
  192.1380  177.1370  144.1940 N   0  0  0  0  0  2  0  0  0  0  0  0
  191.1760  175.3570  147.3450 C   0  0  0  0  0  3  0  0  0  0  0  0
  189.8990  175.8750  147.5620 C   0  0  0  0  0  3  0  0  0  0  0  0
  191.3830  176.6840  145.3240 C   0  0  0  0  0  0  0  0  0  0  0  0
  189.3610  176.7970  146.6690 C   0  0  0  0  0  3  0  0  0  0  0  0
  190.1010  177.2010  145.5580 C   0  0  0  0  0  3  0  0  0  0  0  0
  191.9370  175.7480  146.2320 C   0  0  0  0  0  0  0  0  0  0  0  0
  192.6750  173.0750  144.9810 N   0  0  0  0  0  0  0  0  0  0  0  0
  195.5900  174.7720  145.9270 C   0  0  0  0  0  3  0  0  0  0  0  0
  193.5610  173.9860  145.4590 C   0  0  0  0  0  0  0  0  0  0  0  0
  195.3890  172.5840  144.8440 C   0  0  0  0  0  0  0  0  0  0  0  0
  193.2860  175.1540  146.0260 C   0  0  0  0  0  0  0  0  0  0  0  0
  194.4880  171.6810  144.3640 N   0  0  0  0  0  0  0  0  0  0  0  0
  193.1430  171.9180  144.4280 C   0  0  0  0  0  0  0  0  0  0  0  0
  192.1880  170.9090  143.9040 C   0  0  0  0  0  1  0  0  0  0  0  0
  196.7840  172.3170  144.7620 N   0  0  0  0  0  1  0  0  0  0  0  0
  194.5960  175.7970  146.3940 C   0  0  0  0  0  2  0  0  0  0  0  0
  194.9080  173.7650  145.4060 C   0  0  0  0  0  0  0  0  0  0  0  0
  1 18  1  1  0  0  0
  1 22  1  0  0  0  0
  3  1  1  0  0  0  0
  3  4  2  0  0  0  0
  5  3  1  0  0  0  0
  6  2  2  0  0  0  0
  6  5  1  0  0  0  0
  7  6  1  0  0  0  0
  7  8  1  0  0  0  0
  8  9  1  0  0  0  0
 10 12  2  0  0  0  0
 11 15  2  0  0  0  0
 13 10  1  0  0  0  0
 14  9  1  6  0  0  0
 14 13  1  0  0  0  0
 14 11  1  0  0  0  0
 15 12  1  0  0  0  0
 16 18  2  0  0  0  0
 18 17  1  0  0  0  0
 19 21  1  0  0  0  0
 21 17  1  0  0  0  0
 21 20  1  1  0  0  0
 22 25  1  0  0  0  0
 23 24  1  0  0  0  0
 25 27  2  0  0  0  0
 25 28  1  0  0  0  0
 26 24  2  0  0  0  0
 27 26  1  0  0  0  0
 28 23  2  0  0  0  0
 29 31  1  0  0  0  0
 30 38  1  0  0  0  0
 31 33  2  0  0  0  0
 32 39  1  0  0  0  0
 33 28  1  0  0  0  0
 33 38  1  0  0  0  0
 34 35  1  0  0  0  0
 34 32  2  0  0  0  0
 35 29  2  0  0  0  0
 36 35  1  0  0  0  0
 37 32  1  0  0  0  0
 39 31  1  0  0  0  0
 39 30  2  0  0  0  0
M  END
>  <MODEL>
4

>  <REMARK>
 VINA RESULT:      -7.1      2.451      5.875
  Name = 
  10 active torsions:
  status: ('A' for Active; 'I' for Inactive)
    1  A    between atoms: C_1  and  C_9
    2  A    between atoms: C_1  and  C_22
    3  A    between atoms: C_1  and  N_31
    4  A    between atoms: C_2  and  C_34
    5  A    between atoms: C_2  and  C_35
    6  A    between atoms: C_13  and  N_31
    7  A    between atoms: C_15  and  C_33
    8  A    between atoms: N_18  and  C_37
    9  A    between atoms: C_25  and  O_32
   10  A    between atoms: O_32  and  C_34
                            x       y       z     vdW  Elec       q    Type
                         _______ _______ _______ _____ _____    ______ ____

>  <TORSDO>
F 10

$$$$
=
 OpenBabel11042417303D

 39 42  0  0  1  0  0  0  0  0999 V2000
  191.5770  173.5880  142.4480 C   0  0  2  0  0  3  0  0  0  0  0  0
  191.8440  177.7950  143.6660 O   0  0  0  0  0  0  0  0  0  0  0  0
  191.7070  175.0580  142.6970 C   0  0  0  0  0  0  0  0  0  0  0  0
  192.5710  175.7340  142.0730 O   0  0  0  0  0  0  0  0  0  0  0  0
  190.8480  175.6730  143.6630 N   0  0  0  0  0  2  0  0  0  0  0  0
  190.9350  177.0350  144.0940 C   0  0  0  0  0  0  0  0  0  0  0  0
  189.9270  177.5630  145.0560 C   0  0  0  0  0  2  0  0  0  0  0  0
  188.8070  176.5580  145.2700 C   0  0  0  0  0  2  0  0  0  0  0  0
  187.7280  176.8600  144.4350 O   0  0  0  0  0  0  0  0  0  0  0  0
  185.0130  179.3240  145.0320 C   0  0  0  0  0  3  0  0  0  0  0  0
  185.9470  176.8280  146.0040 C   0  0  0  0  0  3  0  0  0  0  0  0
  184.3540  178.6780  145.9990 C   0  0  0  0  0  3  0  0  0  0  0  0
  186.1290  178.6410  144.2850 C   0  0  0  0  0  2  0  0  0  0  0  0
  186.8970  177.6790  145.2010 C   0  0  2  0  0  3  0  0  0  0  0  0
  184.7710  177.3220  146.4050 C   0  0  0  0  0  3  0  0  0  0  0  0
  189.4500  172.6250  142.0010 O   0  0  0  0  0  0  0  0  0  0  0  0
  190.3980  173.7980  140.2120 N   0  0  0  0  0  2  0  0  0  0  0  0
  190.4100  173.3120  141.5590 C   0  0  0  0  0  0  0  0  0  0  0  0
  188.3050  174.4970  139.4310 O   0  0  0  0  0  1  0  0  0  0  0  0
  189.8360  173.5970  137.8350 C   0  0  0  0  0  1  0  0  0  0  0  0
  189.3180  173.5550  139.2610 C   0  0  1  0  0  3  0  0  0  0  0  0
  191.4430  172.8540  143.7020 N   0  0  0  0  0  2  0  0  0  0  0  0
  194.3410  171.3560  145.5420 C   0  0  0  0  0  3  0  0  0  0  0  0
  194.2230  170.0160  145.1750 C   0  0  0  0  0  3  0  0  0  0  0  0
  192.4040  171.9090  144.1890 C   0  0  0  0  0  0  0  0  0  0  0  0
  193.1980  169.6150  144.3210 C   0  0  0  0  0  3  0  0  0  0  0  0
  192.2930  170.5570  143.8330 C   0  0  0  0  0  3  0  0  0  0  0  0
  193.4420  172.3210  145.0600 C   0  0  0  0  0  0  0  0  0  0  0  0
  195.2970  174.4200  143.8740 N   0  0  0  0  0  0  0  0  0  0  0  0
  193.4260  175.8430  146.4720 C   0  0  0  0  0  3  0  0  0  0  0  0
  194.4320  174.6300  144.9000 C   0  0  0  0  0  0  0  0  0  0  0  0
  195.1010  176.9140  145.0430 C   0  0  0  0  0  0  0  0  0  0  0  0
  193.6170  173.7440  145.4590 C   0  0  0  0  0  0  0  0  0  0  0  0
  195.9620  176.6890  144.0100 N   0  0  0  0  0  0  0  0  0  0  0  0
  196.0630  175.4570  143.4260 C   0  0  0  0  0  0  0  0  0  0  0  0
  197.0180  175.2430  142.3100 C   0  0  0  0  0  1  0  0  0  0  0  0
  195.0100  178.2070  145.6320 N   0  0  0  0  0  1  0  0  0  0  0  0
  192.8660  174.4500  146.5550 C   0  0  0  0  0  2  0  0  0  0  0  0
  194.3190  175.8540  145.4960 C   0  0  0  0  0  0  0  0  0  0  0  0
  1 18  1  6  0  0  0
  1  3  1  0  0  0  0
  1 22  1  0  0  0  0
  2  6  2  0  0  0  0
  3  5  1  0  0  0  0
  4  3  2  0  0  0  0
  5  6  1  0  0  0  0
  6  7  1  0  0  0  0
  7  8  1  0  0  0  0
  9  8  1  0  0  0  0
 10 12  2  0  0  0  0
 11 15  2  0  0  0  0
 12 15  1  0  0  0  0
 13 10  1  0  0  0  0
 13 14  1  0  0  0  0
 14  9  1  6  0  0  0
 14 11  1  0  0  0  0
 17 18  1  0  0  0  0
 18 16  2  0  0  0  0
 21 20  1  6  0  0  0
 21 19  1  0  0  0  0
 21 17  1  0  0  0  0
 22 25  1  0  0  0  0
 24 23  1  0  0  0  0
 25 28  1  0  0  0  0
 26 24  2  0  0  0  0
 27 25  2  0  0  0  0
 27 26  1  0  0  0  0
 28 33  1  0  0  0  0
 28 23  2  0  0  0  0
 29 31  1  0  0  0  0
 30 38  1  0  0  0  0
 31 33  2  0  0  0  0
 31 39  1  0  0  0  0
 32 39  1  0  0  0  0
 32 37  1  0  0  0  0
 33 38  1  0  0  0  0
 34 32  2  0  0  0  0
 35 29  2  0  0  0  0
 35 34  1  0  0  0  0
 36 35  1  0  0  0  0
 39 30  2  0  0  0  0
M  END
>  <MODEL>
5

>  <REMARK>
 VINA RESULT:      -7.0      2.484      4.786
  Name = 
  10 active torsions:
  status: ('A' for Active; 'I' for Inactive)
    1  A    between atoms: C_1  and  C_9
    2  A    between atoms: C_1  and  C_22
    3  A    between atoms: C_1  and  N_31
    4  A    between atoms: C_2  and  C_34
    5  A    between atoms: C_2  and  C_35
    6  A    between atoms: C_13  and  N_31
    7  A    between atoms: C_15  and  C_33
    8  A    between atoms: N_18  and  C_37
    9  A    between atoms: C_25  and  O_32
   10  A    between atoms: O_32  and  C_34
                            x       y       z     vdW  Elec       q    Type
                         _______ _______ _______ _____ _____    ______ ____

>  <TORSDO>
F 10

$$$$
=
 OpenBabel11042417303D

 39 42  0  0  1  0  0  0  0  0999 V2000
  191.8210  174.8130  142.7360 C   0  0  2  0  0  3  0  0  0  0  0  0
  188.8650  178.0550  142.8000 O   0  0  0  0  0  0  0  0  0  0  0  0
  190.9460  176.0270  142.7280 C   0  0  0  0  0  0  0  0  0  0  0  0
  191.3690  177.1170  143.2040 O   0  0  0  0  0  0  0  0  0  0  0  0
  189.6230  175.9220  142.1910 N   0  0  0  0  0  2  0  0  0  0  0  0
  188.6350  176.9570  142.2260 C   0  0  0  0  0  0  0  0  0  0  0  0
  187.3190  176.7340  141.5630 C   0  0  0  0  0  2  0  0  0  0  0  0
  186.2890  177.7330  142.0640 C   0  0  0  0  0  2  0  0  0  0  0  0
  185.4360  177.1170  142.9850 O   0  0  0  0  0  0  0  0  0  0  0  0
  184.5320  178.9950  146.0590 C   0  0  0  0  0  3  0  0  0  0  0  0
  186.0900  176.7700  145.2400 C   0  0  0  0  0  3  0  0  0  0  0  0
  185.1940  178.2580  146.9560 C   0  0  0  0  0  3  0  0  0  0  0  0
  184.4160  178.5320  144.6310 C   0  0  0  0  0  2  0  0  0  0  0  0
  185.6750  177.7720  144.1940 C   0  0  2  0  0  3  0  0  0  0  0  0
  185.8920  177.0270  146.5380 C   0  0  0  0  0  3  0  0  0  0  0  0
  192.3840  174.4980  140.4470 O   0  0  0  0  0  0  0  0  0  0  0  0
  190.8430  172.9600  141.3050 N   0  0  0  0  0  2  0  0  0  0  0  0
  191.7160  174.0880  141.4340 C   0  0  0  0  0  0  0  0  0  0  0  0
  190.4500  170.8580  140.3540 O   0  0  0  0  0  1  0  0  0  0  0  0
  189.4780  172.7570  139.2810 C   0  0  0  0  0  1  0  0  0  0  0  0
  190.6520  172.2080  140.0710 C   0  0  1  0  0  3  0  0  0  0  0  0
  191.4740  173.9240  143.8390 N   0  0  0  0  0  2  0  0  0  0  0  0
  191.5880  175.3920  147.2830 C   0  0  0  0  0  3  0  0  0  0  0  0
  190.2460  175.3020  147.6530 C   0  0  0  0  0  3  0  0  0  0  0  0
  191.0770  174.3720  145.1410 C   0  0  0  0  0  0  0  0  0  0  0  0
  189.3160  174.7530  146.7740 C   0  0  0  0  0  3  0  0  0  0  0  0
  189.7300  174.2940  145.5240 C   0  0  0  0  0  3  0  0  0  0  0  0
  192.0260  174.9330  146.0300 C   0  0  0  0  0  0  0  0  0  0  0  0
  194.0750  172.6990  145.7670 N   0  0  0  0  0  0  0  0  0  0  0  0
  195.5970  175.7750  145.0650 C   0  0  0  0  0  3  0  0  0  0  0  0
  194.3260  174.0190  145.5660 C   0  0  0  0  0  0  0  0  0  0  0  0
  196.6010  173.5420  145.0370 C   0  0  0  0  0  0  0  0  0  0  0  0
  193.4710  175.0270  145.6840 C   0  0  0  0  0  0  0  0  0  0  0  0
  196.3340  172.2200  145.2380 N   0  0  0  0  0  0  0  0  0  0  0  0
  195.0850  171.7960  145.5990 C   0  0  0  0  0  0  0  0  0  0  0  0
  194.8290  170.3500  145.8200 C   0  0  0  0  0  1  0  0  0  0  0  0
  197.9080  173.9590  144.6570 N   0  0  0  0  0  1  0  0  0  0  0  0
  194.2180  176.2930  145.3650 C   0  0  0  0  0  2  0  0  0  0  0  0
  195.5680  174.4600  145.2070 C   0  0  0  0  0  0  0  0  0  0  0  0
  1 18  1  6  0  0  0
  1 22  1  0  0  0  0
  3  1  1  0  0  0  0
  3  4  2  0  0  0  0
  5  6  1  0  0  0  0
  5  3  1  0  0  0  0
  6  2  2  0  0  0  0
  7  8  1  0  0  0  0
  7  6  1  0  0  0  0
  8  9  1  0  0  0  0
 10 12  2  0  0  0  0
 11 15  2  0  0  0  0
 13 10  1  0  0  0  0
 14  9  1  6  0  0  0
 14 13  1  0  0  0  0
 14 11  1  0  0  0  0
 15 12  1  0  0  0  0
 16 18  2  0  0  0  0
 17 18  1  0  0  0  0
 21 20  1  1  0  0  0
 21 19  1  0  0  0  0
 21 17  1  0  0  0  0
 22 25  1  0  0  0  0
 23 24  1  0  0  0  0
 25 27  2  0  0  0  0
 25 28  1  0  0  0  0
 26 24  2  0  0  0  0
 27 26  1  0  0  0  0
 28 23  2  0  0  0  0
 30 39  2  0  0  0  0
 30 38  1  0  0  0  0
 31 33  2  0  0  0  0
 31 29  1  0  0  0  0
 32 39  1  0  0  0  0
 32 34  2  0  0  0  0
 33 28  1  0  0  0  0
 34 35  1  0  0  0  0
 35 29  2  0  0  0  0
 35 36  1  0  0  0  0
 37 32  1  0  0  0  0
 38 33  1  0  0  0  0
 39 31  1  0  0  0  0
M  END
>  <MODEL>
6

>  <REMARK>
 VINA RESULT:      -6.9      2.521      5.512
  Name = 
  10 active torsions:
  status: ('A' for Active; 'I' for Inactive)
    1  A    between atoms: C_1  and  C_9
    2  A    between atoms: C_1  and  C_22
    3  A    between atoms: C_1  and  N_31
    4  A    between atoms: C_2  and  C_34
    5  A    between atoms: C_2  and  C_35
    6  A    between atoms: C_13  and  N_31
    7  A    between atoms: C_15  and  C_33
    8  A    between atoms: N_18  and  C_37
    9  A    between atoms: C_25  and  O_32
   10  A    between atoms: O_32  and  C_34
                            x       y       z     vdW  Elec       q    Type
                         _______ _______ _______ _____ _____    ______ ____

>  <TORSDO>
F 10

$$$$
=
 OpenBabel11042417303D

 39 42  0  0  1  0  0  0  0  0999 V2000
  189.6210  174.6470  142.3140 C   0  0  2  0  0  3  0  0  0  0  0  0
  186.7040  177.3130  140.4070 O   0  0  0  0  0  0  0  0  0  0  0  0
  188.5520  175.4120  141.6000 C   0  0  0  0  0  0  0  0  0  0  0  0
  188.1260  175.0140  140.4810 O   0  0  0  0  0  0  0  0  0  0  0  0
  188.0390  176.6060  142.2000 N   0  0  0  0  0  2  0  0  0  0  0  0
  187.1080  177.5030  141.5860 C   0  0  0  0  0  0  0  0  0  0  0  0
  186.6020  178.6740  142.3560 C   0  0  0  0  0  2  0  0  0  0  0  0
  185.1000  178.5700  142.5690 C   0  0  0  0  0  2  0  0  0  0  0  0
  184.8150  177.5420  143.4730 O   0  0  0  0  0  0  0  0  0  0  0  0
  184.7660  178.8590  146.9450 C   0  0  0  0  0  3  0  0  0  0  0  0
  185.9400  176.7770  145.4180 C   0  0  0  0  0  3  0  0  0  0  0  0
  185.5620  177.9540  147.5230 C   0  0  0  0  0  3  0  0  0  0  0  0
  184.2960  178.6640  145.5270 C   0  0  0  0  0  2  0  0  0  0  0  0
  185.3680  177.9610  144.6830 C   0  0  2  0  0  3  0  0  0  0  0  0
  186.0610  176.8000  146.7490 C   0  0  0  0  0  3  0  0  0  0  0  0
  190.9430  176.2620  143.4540 O   0  0  0  0  0  0  0  0  0  0  0  0
  189.4720  175.0530  144.8140 N   0  0  0  0  0  2  0  0  0  0  0  0
  190.0500  175.3770  143.5440 C   0  0  0  0  0  0  0  0  0  0  0  0
  189.3720  176.9990  146.1110 O   0  0  0  0  0  1  0  0  0  0  0  0
  189.3080  174.9030  147.2540 C   0  0  0  0  0  1  0  0  0  0  0  0
  189.8460  175.6890  146.0720 C   0  0  1  0  0  3  0  0  0  0  0  0
  190.7660  174.4090  141.4420 N   0  0  0  0  0  2  0  0  0  0  0  0
  192.6260  171.1640  141.6310 C   0  0  0  0  0  3  0  0  0  0  0  0
  192.1850  170.5380  140.4660 C   0  0  0  0  0  3  0  0  0  0  0  0
  191.2720  173.1100  141.1120 C   0  0  0  0  0  0  0  0  0  0  0  0
  191.2880  171.1890  139.6230 C   0  0  0  0  0  3  0  0  0  0  0  0
  190.8320  172.4660  139.9470 C   0  0  0  0  0  3  0  0  0  0  0  0
  192.1820  172.4510  141.9750 C   0  0  0  0  0  0  0  0  0  0  0  0
  194.1930  174.7160  142.2630 N   0  0  0  0  0  0  0  0  0  0  0  0
  193.0860  173.7210  145.4340 C   0  0  0  0  0  3  0  0  0  0  0  0
  193.5650  174.0920  143.2930 C   0  0  0  0  0  0  0  0  0  0  0  0
  194.6820  175.4900  144.8690 C   0  0  0  0  0  0  0  0  0  0  0  0
  192.6950  173.0920  143.2170 C   0  0  0  0  0  0  0  0  0  0  0  0
  195.3010  176.1100  143.8250 N   0  0  0  0  0  0  0  0  0  0  0  0
  195.0630  175.7330  142.5320 C   0  0  0  0  0  0  0  0  0  0  0  0
  195.7620  176.4230  141.4190 C   0  0  0  0  0  1  0  0  0  0  0  0
  194.9430  175.9030  146.2050 N   0  0  0  0  0  1  0  0  0  0  0  0
  192.2860  172.7410  144.6210 C   0  0  0  0  0  2  0  0  0  0  0  0
  193.7930  174.4540  144.5900 C   0  0  0  0  0  0  0  0  0  0  0  0
  1 22  1  6  0  0  0
  1 18  1  0  0  0  0
  2  6  2  0  0  0  0
  3  5  1  0  0  0  0
  3  1  1  0  0  0  0
  4  3  2  0  0  0  0
  6  5  1  0  0  0  0
  6  7  1  0  0  0  0
  7  8  1  0  0  0  0
  8  9  1  0  0  0  0
 10 12  2  0  0  0  0
 11 15  2  0  0  0  0
 13 10  1  0  0  0  0
 14  9  1  6  0  0  0
 14 11  1  0  0  0  0
 14 13  1  0  0  0  0
 15 12  1  0  0  0  0
 16 18  2  0  0  0  0
 17 21  1  0  0  0  0
 18 17  1  0  0  0  0
 21 19  1  0  0  0  0
 21 20  1  1  0  0  0
 23 28  1  0  0  0  0
 24 23  2  0  0  0  0
 25 22  1  0  0  0  0
 25 28  2  0  0  0  0
 26 27  2  0  0  0  0
 26 24  1  0  0  0  0
 27 25  1  0  0  0  0
 28 33  1  0  0  0  0
 29 35  2  0  0  0  0
 29 31  1  0  0  0  0
 31 39  1  0  0  0  0
 32 37  1  0  0  0  0
 33 31  2  0  0  0  0
 33 38  1  0  0  0  0
 34 32  2  0  0  0  0
 35 34  1  0  0  0  0
 36 35  1  0  0  0  0
 38 30  1  0  0  0  0
 39 32  1  0  0  0  0
 39 30  2  0  0  0  0
M  END
>  <MODEL>
7

>  <REMARK>
 VINA RESULT:      -6.8      1.622      3.796
  Name = 
  10 active torsions:
  status: ('A' for Active; 'I' for Inactive)
    1  A    between atoms: C_1  and  C_9
    2  A    between atoms: C_1  and  C_22
    3  A    between atoms: C_1  and  N_31
    4  A    between atoms: C_2  and  C_34
    5  A    between atoms: C_2  and  C_35
    6  A    between atoms: C_13  and  N_31
    7  A    between atoms: C_15  and  C_33
    8  A    between atoms: N_18  and  C_37
    9  A    between atoms: C_25  and  O_32
   10  A    between atoms: O_32  and  C_34
                            x       y       z     vdW  Elec       q    Type
                         _______ _______ _______ _____ _____    ______ ____

>  <TORSDO>
F 10

$$$$
=
 OpenBabel11042417303D

 39 42  0  0  1  0  0  0  0  0999 V2000
  189.3130  174.5110  142.3780 C   0  0  2  0  0  3  0  0  0  0  0  0
  187.0210  176.6610  139.3150 O   0  0  0  0  0  0  0  0  0  0  0  0
  188.4960  175.0880  141.2650 C   0  0  0  0  0  0  0  0  0  0  0  0
  188.5230  174.5600  140.1190 O   0  0  0  0  0  0  0  0  0  0  0  0
  187.7050  176.2540  141.5200 N   0  0  0  0  0  2  0  0  0  0  0  0
  186.9720  176.9850  140.5320 C   0  0  0  0  0  0  0  0  0  0  0  0
  186.1310  178.1410  140.9520 C   0  0  0  0  0  2  0  0  0  0  0  0
  186.2980  178.4170  142.4370 C   0  0  0  0  0  2  0  0  0  0  0  0
  185.1380  179.0060  142.9470 O   0  0  0  0  0  0  0  0  0  0  0  0
  185.6130  176.6570  145.7850 C   0  0  0  0  0  3  0  0  0  0  0  0
  184.1540  178.9940  145.1070 C   0  0  0  0  0  3  0  0  0  0  0  0
  184.8140  177.2470  146.6800 C   0  0  0  0  0  3  0  0  0  0  0  0
  185.9290  177.3410  144.4810 C   0  0  0  0  0  2  0  0  0  0  0  0
  184.7350  178.1690  143.9880 C   0  0  2  0  0  3  0  0  0  0  0  0
  184.1630  178.5340  146.3630 C   0  0  0  0  0  3  0  0  0  0  0  0
  188.8320  175.4410  144.5130 O   0  0  0  0  0  0  0  0  0  0  0  0
  190.4470  176.5960  143.2740 N   0  0  0  0  0  2  0  0  0  0  0  0
  189.5130  175.5250  143.4560 C   0  0  0  0  0  0  0  0  0  0  0  0
  191.1740  178.7930  143.6240 O   0  0  0  0  0  1  0  0  0  0  0  0
  189.4220  177.9710  145.0230 C   0  0  0  0  0  1  0  0  0  0  0  0
  190.6900  177.6480  144.2550 C   0  0  1  0  0  3  0  0  0  0  0  0
  190.6010  174.0320  141.8890 N   0  0  0  0  0  2  0  0  0  0  0  0
  192.9350  171.4970  143.3560 C   0  0  0  0  0  3  0  0  0  0  0  0
  192.2730  170.3120  143.0370 C   0  0  0  0  0  3  0  0  0  0  0  0
  191.1900  172.7800  142.2630 C   0  0  0  0  0  0  0  0  0  0  0  0
  191.0710  170.3530  142.3360 C   0  0  0  0  0  3  0  0  0  0  0  0
  190.5310  171.5800  141.9550 C   0  0  0  0  0  3  0  0  0  0  0  0
  192.4110  172.7440  142.9790 C   0  0  0  0  0  0  0  0  0  0  0  0
  192.2330  174.4510  145.4910 N   0  0  0  0  0  0  0  0  0  0  0  0
  194.6270  175.8050  143.3200 C   0  0  0  0  0  3  0  0  0  0  0  0
  193.0600  174.6890  144.4400 C   0  0  0  0  0  0  0  0  0  0  0  0
  193.9500  176.6140  145.5300 C   0  0  0  0  0  0  0  0  0  0  0  0
  193.1610  173.9840  143.3200 C   0  0  0  0  0  0  0  0  0  0  0  0
  193.1170  176.3600  146.5790 N   0  0  0  0  0  2  0  0  0  0  0  0
  192.2650  175.2900  146.5660 C   0  0  0  0  0  0  0  0  0  0  0  0
  191.3640  175.0480  147.7220 C   0  0  0  0  0  1  0  0  0  0  0  0
  194.8310  177.7300  145.5690 N   0  0  0  0  0  1  0  0  0  0  0  0
  194.2060  174.6440  142.4630 C   0  0  0  0  0  3  0  0  0  0  0  0
  193.9160  175.7540  144.4350 C   0  0  0  0  0  0  0  0  0  0  0  0
  1  3  1  6  0  0  0
  1 18  1  0  0  0  0
  2  6  2  0  0  0  0
  3  5  1  0  0  0  0
  4  3  2  0  0  0  0
  6  7  1  0  0  0  0
  6  5  1  0  0  0  0
  7  8  1  0  0  0  0
  8  9  1  0  0  0  0
 10 12  2  0  0  0  0
 11 15  2  0  0  0  0
 13 10  1  0  0  0  0
 14  9  1  6  0  0  0
 14 13  1  0  0  0  0
 14 11  1  0  0  0  0
 15 12  1  0  0  0  0
 17 18  1  0  0  0  0
 17 21  1  0  0  0  0
 18 16  2  0  0  0  0
 19 21  1  0  0  0  0
 21 20  1  6  0  0  0
 22 25  1  0  0  0  0
 22  1  1  0  0  0  0
 24 23  1  0  0  0  0
 25 28  1  0  0  0  0
 26 24  2  0  0  0  0
 27 25  2  0  0  0  0
 27 26  1  0  0  0  0
 28 33  1  0  0  0  0
 28 23  2  0  0  0  0
 29 35  2  0  0  0  0
 30 39  1  0  0  0  0
 31 29  1  0  0  0  0
 32 37  1  0  0  0  0
 32 34  1  0  0  0  0
 33 31  2  0  0  0  0
 35 34  1  0  0  0  0
 35 36  1  0  0  0  0
 38 33  1  0  0  0  0
 38 30  2  0  0  0  0
 39 31  1  0  0  0  0
 39 32  2  0  0  0  0
M  END
>  <MODEL>
8

>  <REMARK>
 VINA RESULT:      -6.7      1.907      4.407
  Name = 
  10 active torsions:
  status: ('A' for Active; 'I' for Inactive)
    1  A    between atoms: C_1  and  C_9
    2  A    between atoms: C_1  and  C_22
    3  A    between atoms: C_1  and  N_31
    4  A    between atoms: C_2  and  C_34
    5  A    between atoms: C_2  and  C_35
    6  A    between atoms: C_13  and  N_31
    7  A    between atoms: C_15  and  C_33
    8  A    between atoms: N_18  and  C_37
    9  A    between atoms: C_25  and  O_32
   10  A    between atoms: O_32  and  C_34
                            x       y       z     vdW  Elec       q    Type
                         _______ _______ _______ _____ _____    ______ ____

>  <TORSDO>
F 10

$$$$
=
 OpenBabel11042417303D

 39 42  0  0  1  0  0  0  0  0999 V2000
  193.7810  174.9950  145.5410 C   0  0  2  0  0  3  0  0  0  0  0  0
  190.0040  176.9330  146.6520 O   0  0  0  0  0  0  0  0  0  0  0  0
  192.5710  175.6990  146.0700 C   0  0  0  0  0  0  0  0  0  0  0  0
  192.2950  175.6510  147.3000 O   0  0  0  0  0  0  0  0  0  0  0  0
  191.7290  176.4080  145.1540 N   0  0  0  0  0  2  0  0  0  0  0  0
  190.4820  177.0240  145.4900 C   0  0  0  0  0  0  0  0  0  0  0  0
  189.7420  177.7930  144.4490 C   0  0  0  0  0  2  0  0  0  0  0  0
  188.5240  177.0190  143.9720 C   0  0  0  0  0  2  0  0  0  0  0  0
  187.4990  177.9050  143.6290 O   0  0  0  0  0  0  0  0  0  0  0  0
  184.6820  179.0850  145.7420 C   0  0  0  0  0  3  0  0  0  0  0  0
  186.3860  176.8390  145.4340 C   0  0  0  0  0  3  0  0  0  0  0  0
  184.5300  178.0030  146.5120 C   0  0  0  0  0  3  0  0  0  0  0  0
  185.6050  179.0500  144.5530 C   0  0  0  0  0  2  0  0  0  0  0  0
  186.8160  178.1460  144.8220 C   0  0  2  0  0  3  0  0  0  0  0  0
  185.3330  176.7910  146.2560 C   0  0  0  0  0  3  0  0  0  0  0  0
  194.8940  177.0950  145.4770 O   0  0  0  0  0  0  0  0  0  0  0  0
  195.4060  175.6510  143.7080 N   0  0  0  0  0  2  0  0  0  0  0  0
  194.7250  175.9740  144.9260 C   0  0  0  0  0  0  0  0  0  0  0  0
  197.6380  176.1150  143.1730 O   0  0  0  0  0  1  0  0  0  0  0  0
  195.9760  176.6460  141.5430 C   0  0  0  0  0  1  0  0  0  0  0  0
  196.3230  176.5510  143.0170 C   0  0  1  0  0  3  0  0  0  0  0  0
  193.4080  173.9720  144.5700 N   0  0  0  0  0  2  0  0  0  0  0  0
  193.0350  170.2490  144.4070 C   0  0  0  0  0  3  0  0  0  0  0  0
  194.2110  169.8370  145.0330 C   0  0  0  0  0  3  0  0  0  0  0  0
  193.6560  172.5710  144.7400 C   0  0  0  0  0  0  0  0  0  0  0  0
  195.1130  170.7840  145.5110 C   0  0  0  0  0  3  0  0  0  0  0  0
  194.8380  172.1430  145.3620 C   0  0  0  0  0  3  0  0  0  0  0  0
  192.7360  171.6120  144.2490 C   0  0  0  0  0  0  0  0  0  0  0  0
  192.1450  171.9840  141.2890 N   0  0  0  0  0  0  0  0  0  0  0  0
  189.2410  172.5980  143.1500 C   0  0  0  0  0  3  0  0  0  0  0  0
  191.2440  172.1440  142.2920 C   0  0  0  0  0  0  0  0  0  0  0  0
  189.5340  172.6810  140.7200 C   0  0  0  0  0  0  0  0  0  0  0  0
  191.4590  172.0080  143.5950 C   0  0  0  0  0  0  0  0  0  0  0  0
  190.4470  172.5120  139.7230 N   0  0  0  0  0  0  0  0  0  0  0  0
  191.7420  172.1660  139.9970 C   0  0  0  0  0  0  0  0  0  0  0  0
  192.7140  172.0010  138.8880 C   0  0  0  0  0  1  0  0  0  0  0  0
  188.1910  173.0360  140.4100 N   0  0  0  0  0  1  0  0  0  0  0  0
  190.1610  172.2930  144.3000 C   0  0  0  0  0  2  0  0  0  0  0  0
  189.9480  172.4910  142.0370 C   0  0  0  0  0  0  0  0  0  0  0  0
  1 22  1  6  0  0  0
  1  3  1  0  0  0  0
  3  4  2  0  0  0  0
  5  6  1  0  0  0  0
  5  3  1  0  0  0  0
  6  2  2  0  0  0  0
  7  6  1  0  0  0  0
  8  7  1  0  0  0  0
  9  8  1  0  0  0  0
 10 12  2  0  0  0  0
 11 15  2  0  0  0  0
 13 14  1  0  0  0  0
 13 10  1  0  0  0  0
 14  9  1  6  0  0  0
 14 11  1  0  0  0  0
 15 12  1  0  0  0  0
 17 18  1  0  0  0  0
 18 16  2  0  0  0  0
 18  1  1  0  0  0  0
 21 20  1  6  0  0  0
 21 19  1  0  0  0  0
 21 17  1  0  0  0  0
 22 25  1  0  0  0  0
 23 24  1  0  0  0  0
 24 26  2  0  0  0  0
 25 27  2  0  0  0  0
 27 26  1  0  0  0  0
 28 23  2  0  0  0  0
 28 25  1  0  0  0  0
 29 31  1  0  0  0  0
 30 38  1  0  0  0  0
 31 33  2  0  0  0  0
 32 39  1  0  0  0  0
 33 28  1  0  0  0  0
 33 38  1  0  0  0  0
 34 35  1  0  0  0  0
 34 32  2  0  0  0  0
 35 29  2  0  0  0  0
 36 35  1  0  0  0  0
 37 32  1  0  0  0  0
 39 31  1  0  0  0  0
 39 30  2  0  0  0  0
M  END
>  <MODEL>
9

>  <REMARK>
 VINA RESULT:      -6.6      2.492      6.044
  Name = 
  10 active torsions:
  status: ('A' for Active; 'I' for Inactive)
    1  A    between atoms: C_1  and  C_9
    2  A    between atoms: C_1  and  C_22
    3  A    between atoms: C_1  and  N_31
    4  A    between atoms: C_2  and  C_34
    5  A    between atoms: C_2  and  C_35
    6  A    between atoms: C_13  and  N_31
    7  A    between atoms: C_15  and  C_33
    8  A    between atoms: N_18  and  C_37
    9  A    between atoms: C_25  and  O_32
   10  A    between atoms: O_32  and  C_34
                            x       y       z     vdW  Elec       q    Type
                         _______ _______ _______ _____ _____    ______ ____

>  <TORSDO>
F 10

$$$$
