=
 OpenBabel11042415083D

 69 75  0  0  1  0  0  0  0  0999 V2000
  193.5670  171.7550  139.0280 C   0  0  0  0  0  0  0  0  0  0  0  0
  190.0870  172.4690  139.3000 C   0  0  2  0  0  3  0  0  0  0  0  0
  191.0530  172.5670  136.9360 C   0  0  1  0  0  3  0  0  0  0  0  0
  197.9410  168.4190  139.9160 F   0  0  0  0  0  0  0  0  0  0  0  0
  194.7400  171.1500  139.3490 C   0  0  0  0  0  0  0  0  0  0  0  0
  196.9760  170.1380  138.6300 C   0  0  0  0  0  0  0  0  0  0  0  0
  193.4130  172.5650  137.7690 C   0  0  0  0  0  2  0  0  0  0  0  0
  195.9400  171.1770  138.4750 C   0  0  0  0  0  0  0  0  0  0  0  0
  191.4360  172.7230  139.9830 C   0  0  1  0  0  3  0  0  0  0  0  0
  194.8730  170.3990  140.6320 C   0  0  0  0  0  0  0  0  0  0  0  0
  196.1800  169.7280  140.9610 C   0  0  0  0  0  2  0  0  0  0  0  0
  197.0230  169.4010  139.7600 C   0  0  0  0  0  0  0  0  0  0  0  0
  192.0400  172.0900  142.1820 C   0  0  1  0  0  3  0  0  0  0  0  0
  192.7110  171.2110  141.2490 N   0  0  0  0  0  0  0  0  0  0  0  0
  194.0720  169.8770  142.9190 C   0  0  0  0  0  1  0  0  0  0  0  0
  191.2190  173.0190  141.4030 N   0  0  0  0  0  2  0  0  0  0  0  0
  190.2020  171.7810  137.9300 C   0  0  0  0  0  2  0  0  0  0  0  0
  192.3440  171.5070  139.8880 C   0  0  2  0  0  3  0  0  0  0  0  0
  196.0930  172.0710  137.6010 O   0  0  0  0  0  0  0  0  0  0  0  0
  193.9070  170.4850  141.5610 C   0  0  0  0  0  0  0  0  0  0  0  0
  192.4320  171.9320  136.7930 C   0  0  0  0  0  2  0  0  0  0  0  0
  188.7550  174.2630  140.2740 C   0  0  0  0  0  0  0  0  0  0  0  0
  188.2110  174.7800  141.3440 C   0  0  0  0  0  3  0  0  0  0  0  0
  189.2950  173.7360  139.2110 C   0  0  0  0  0  3  0  0  0  0  0  0
  187.6640  176.1690  141.3450 C   0  0  1  0  0  3  0  0  0  0  0  0
  185.9470  177.3330  140.1100 O   0  0  0  0  0  1  0  0  0  0  0  0
  187.0940  176.5470  139.9750 C   0  0  0  0  0  2  0  0  0  0  0  0
  186.6180  176.2940  142.4450 C   0  0  0  0  0  2  0  0  0  0  0  0
  187.5770  178.5400  142.7240 O   0  0  0  0  0  0  0  0  0  0  0  0
  188.1750  177.7200  143.6090 O   0  0  0  0  0  0  0  0  0  0  0  0
  186.8470  177.5280  143.3050 C   0  0  0  0  0  0  0  0  0  0  0  0
  185.9030  177.8920  144.4630 C   0  0  1  0  0  3  0  0  0  0  0  0
  184.2300  178.8640  143.3710 C   0  0  0  0  0  1  0  0  0  0  0  0
  184.5720  177.7020  144.0680 O   0  0  0  0  0  0  0  0  0  0  0  0
  184.9560  176.7030  146.5010 C   0  0  0  0  0  1  0  0  0  0  0  0
  186.2190  177.1280  145.7590 C   0  0  2  0  0  3  0  0  0  0  0  0
  186.3890  178.6230  147.6490 O   0  0  0  0  0  1  0  0  0  0  0  0
  187.1290  177.9700  146.6580 C   0  0  1  0  0  3  0  0  0  0  0  0
  188.2260  177.1080  147.2730 C   0  0  0  0  0  2  0  0  0  0  0  0
  189.6720  178.7710  148.2220 O   0  0  0  0  0  1  0  0  0  0  0  0
  189.5790  177.8000  147.2200 C   0  0  0  0  0  2  0  0  0  0  0  0
  189.3680  171.8500  135.2560 C   0  0  0  0  0  2  0  0  0  0  0  0
  190.3660  172.6630  135.6040 C   0  0  0  0  0  3  0  0  0  0  0  0
  191.1470  171.2830  143.1140 C   0  0  0  0  0  2  0  0  0  0  0  0
  189.3630  171.4420  144.6980 O   0  0  0  0  0  1  0  0  0  0  0  0
  190.2010  172.1980  143.8700 C   0  0  1  0  0  3  0  0  0  0  0  0
  191.0160  173.1620  144.7090 C   0  0  0  0  0  2  0  0  0  0  0  0
  190.2500  174.4610  144.9050 C   0  0  1  0  0  3  0  0  0  0  0  0
  189.6280  174.4480  146.2930 C   0  0  0  0  0  1  0  0  0  0  0  0
  194.5210  176.0750  146.3080 C   0  0  0  0  0  2  0  0  0  0  0  0
  195.0030  174.2860  144.5660 N   0  0  0  0  0  2  0  0  0  0  0  0
  193.2930  175.9610  143.8630 C   0  0  2  0  0  3  0  0  0  0  0  0
  191.1820  175.6660  144.7360 C   0  0  2  0  0  3  0  0  0  0  0  0
  193.0190  175.7400  146.2470 C   0  0  0  0  0  2  0  0  0  0  0  0
  191.0890  176.2120  143.3180 C   0  0  0  0  0  2  0  0  0  0  0  0
  192.5710  175.2700  144.9270 N   0  0  2  0  0  0  0  0  0  0  0  0
  192.4070  176.0950  142.7210 N   0  0  0  0  0  2  0  0  0  0  0  0
  194.5650  175.1950  143.4910 C   0  0  1  0  0  3  0  0  0  0  0  0
  195.4520  174.9620  145.7970 C   0  0  0  0  0  2  0  0  0  0  0  0
  195.6690  176.1530  143.0620 C   0  0  0  0  0  2  0  0  0  0  0  0
  195.8810  176.0700  141.5600 C   0  0  0  0  0  2  0  0  0  0  0  0
  195.9910  174.6200  141.1150 C   0  0  0  0  0  2  0  0  0  0  0  0
  197.9370  173.6160  140.1670 O   0  0  0  0  0  1  0  0  0  0  0  0
  196.9430  175.2410  138.8930 O   0  0  0  0  0  0  0  0  0  0  0  0
  197.0220  174.4700  140.0440 C   0  0  0  0  0  0  0  0  0  0  0  0
  197.8720  169.9180  137.5260 N   0  0  0  0  0  2  0  0  0  0  0  0
  197.7980  168.8250  136.5630 C   0  0  0  0  0  2  0  0  0  0  0  0
  197.9410  170.6390  134.9480 N   0  0  0  0  0  1  0  0  0  0  0  0
  197.3430  169.3420  135.2090 C   0  0  0  0  0  2  0  0  0  0  0  0
  1  5  2  0  0  0  0
  2 24  1  6  0  0  0
  2  9  1  0  0  0  0
  3 43  1  6  0  0  0
  3 17  1  0  0  0  0
  5 10  1  0  0  0  0
  6 12  2  0  0  0  0
  7  1  1  0  0  0  0
  8  6  1  0  0  0  0
  8  5  1  0  0  0  0
  9 16  1  1  0  0  0
 10 11  1  0  0  0  0
 10 20  2  0  0  0  0
 12  4  1  0  0  0  0
 12 11  1  0  0  0  0
 13 44  1  1  0  0  0
 14 20  1  0  0  0  0
 14 13  1  0  0  0  0
 16 13  1  0  0  0  0
 17  2  1  0  0  0  0
 18  1  1  6  0  0  0
 18  9  1  0  0  0  0
 18 14  1  0  0  0  0
 19  8  2  0  0  0  0
 20 15  1  0  0  0  0
 21  3  1  0  0  0  0
 21  7  1  0  0  0  0
 22 23  2  0  0  0  0
 23 25  1  0  0  0  0
 24 22  2  0  0  0  0
 25 27  1  6  0  0  0
 25 28  1  0  0  0  0
 27 26  1  0  0  0  0
 28 31  1  0  0  0  0
 29 31  1  0  0  0  0
 29 30  1  0  0  0  0
 31 30  1  0  0  0  0
 31 32  1  0  0  0  0
 32 34  1  6  0  0  0
 32 36  1  0  0  0  0
 33 34  1  0  0  0  0
 36 35  1  1  0  0  0
 36 38  1  0  0  0  0
 38 39  1  0  0  0  0
 38 37  1  1  0  0  0
 41 39  1  0  0  0  0
 41 40  1  0  0  0  0
 42 43  2  0  0  0  0
 44 46  1  0  0  0  0
 46 45  1  1  0  0  0
 46 47  1  0  0  0  0
 47 48  1  0  0  0  0
 48 49  1  1  0  0  0
 51 59  1  0  0  0  0
 52 57  1  6  0  0  0
 52 56  1  0  0  0  0
 53 48  1  6  0  0  0
 53 56  1  0  0  0  0
 54 50  1  0  0  0  0
 55 53  1  0  0  0  0
 56 54  1  1  0  0  0
 57 55  1  0  0  0  0
 58 60  1  1  0  0  0
 58 52  1  0  0  0  0
 58 51  1  0  0  0  0
 59 50  1  0  0  0  0
 61 60  1  0  0  0  0
 62 61  1  0  0  0  0
 64 65  2  0  0  0  0
 65 63  1  0  0  0  0
 65 62  1  0  0  0  0
 66  6  1  0  0  0  0
 67 66  1  0  0  0  0
 68 69  1  0  0  0  0
 69 67  1  0  0  0  0
M  END
>  <MODEL>
1

>  <REMARK>
 VINA RESULT:      -5.9      0.000      0.000
  Name = 
  24 active torsions:
  status: ('A' for Active; 'I' for Inactive)
    1  A    between atoms: C_3  and  C_53
    2  A    between atoms: C_5  and  C_13
    3  A    between atoms: C_7  and  C_43
    4  A    between atoms: C_7  and  C_67
    5  A    between atoms: C_11  and  N_26
    6  A    between atoms: C_21  and  C_43
    7  A    between atoms: N_26  and  C_27
    8  A    between atoms: C_27  and  C_48
    9  A    between atoms: C_28  and  C_41
   10  A    between atoms: C_30  and  C_35
   11  A    between atoms: C_30  and  C_38
   12  A    between atoms: C_32  and  C_44
   13  A    between atoms: C_32  and  C_55
   14  A    between atoms: C_33  and  C_35
   15  A    between atoms: C_33  and  C_41
   16  A    between atoms: C_37  and  O_40
   17  A    between atoms: C_37  and  C_66
   18  A    between atoms: C_37  and  C_67
   19  A    between atoms: C_43  and  C_65
   20  A    between atoms: C_44  and  C_51
   21  A    between atoms: C_51  and  C_62
   22  A    between atoms: C_59  and  C_60
   23  A    between atoms: C_59  and  C_66
   24  A    between atoms: C_60  and  C_69
                            x       y       z     vdW  Elec       q    Type
                         _______ _______ _______ _____ _____    ______ ____

>  <TORSDO>
F 24

$$$$
=
 OpenBabel11042415083D

 69 75  0  0  1  0  0  0  0  0999 V2000
  184.3020  178.3290  143.3410 C   0  0  0  0  0  0  0  0  0  0  0  0
  187.3760  176.9940  144.5490 C   0  0  2  0  0  3  0  0  0  0  0  0
  185.6670  177.6280  146.3410 C   0  0  1  0  0  3  0  0  0  0  0  0
  179.7570  177.9680  140.1380 F   0  0  0  0  0  0  0  0  0  0  0  0
  183.2640  178.4730  142.4760 C   0  0  0  0  0  0  0  0  0  0  0  0
  180.7730  178.8740  142.0570 C   0  0  0  0  0  0  0  0  0  0  0  0
  184.2700  178.9270  144.7210 C   0  0  0  0  0  2  0  0  0  0  0  0
  181.9980  179.1670  142.8260 C   0  0  0  0  0  0  0  0  0  0  0  0
  186.7960  177.9480  143.4990 C   0  0  1  0  0  3  0  0  0  0  0  0
  183.3510  177.9130  141.0960 C   0  0  0  0  0  0  0  0  0  0  0  0
  182.1840  178.0750  140.1590 C   0  0  0  0  0  2  0  0  0  0  0  0
  180.8650  178.2780  140.8500 C   0  0  0  0  0  0  0  0  0  0  0  0
  186.9920  177.7390  141.1490 C   0  0  1  0  0  3  0  0  0  0  0  0
  185.6420  177.3860  141.5320 N   0  0  0  0  0  0  0  0  0  0  0  0
  184.6910  177.0180  139.2120 C   0  0  0  0  0  1  0  0  0  0  0  0
  187.7290  178.0650  142.3720 N   0  0  0  0  0  2  0  0  0  0  0  0
  186.3460  176.4950  145.5750 C   0  0  0  0  0  2  0  0  0  0  0  0
  185.4680  177.4390  142.9600 C   0  0  2  0  0  3  0  0  0  0  0  0
  181.9480  180.0020  143.7670 O   0  0  0  0  0  0  0  0  0  0  0  0
  184.5240  177.4420  140.6370 C   0  0  0  0  0  0  0  0  0  0  0  0
  184.2570  177.8640  145.8100 C   0  0  0  0  0  2  0  0  0  0  0  0
  189.3860  176.8850  145.9260 C   0  0  0  0  0  0  0  0  0  0  0  0
  190.2000  176.1510  146.6350 C   0  0  0  0  0  3  0  0  0  0  0  0
  188.5620  177.6110  145.2220 C   0  0  0  0  0  3  0  0  0  0  0  0
  191.5280  176.6670  147.0780 C   0  0  1  0  0  3  0  0  0  0  0  0
  190.7390  178.2630  148.7100 O   0  0  0  0  0  1  0  0  0  0  0  0
  191.4980  177.1020  148.5480 C   0  0  0  0  0  2  0  0  0  0  0  0
  192.5890  175.6040  146.8270 C   0  0  0  0  0  2  0  0  0  0  0  0
  193.9890  177.3210  145.7600 O   0  0  0  0  0  0  0  0  0  0  0  0
  193.0200  176.9760  144.8900 O   0  0  0  0  0  0  0  0  0  0  0  0
  193.5510  176.0160  145.7220 C   0  0  0  0  0  0  0  0  0  0  0  0
  194.4180  174.9860  144.9790 C   0  0  1  0  0  3  0  0  0  0  0  0
  196.1730  173.9940  145.9120 C   0  0  0  0  0  1  0  0  0  0  0  0
  194.7780  173.9520  145.8530 O   0  0  0  0  0  0  0  0  0  0  0  0
  192.8450  173.2440  144.0000 C   0  0  0  0  0  1  0  0  0  0  0  0
  193.7460  174.4400  143.7090 C   0  0  2  0  0  3  0  0  0  0  0  0
  194.5660  172.8260  142.1080 O   0  0  0  0  0  1  0  0  0  0  0  0
  194.8080  174.0880  142.6630 C   0  0  1  0  0  3  0  0  0  0  0  0
  194.8730  175.1580  141.5790 C   0  0  0  0  0  2  0  0  0  0  0  0
  196.6810  176.3740  140.5770 O   0  0  0  0  0  1  0  0  0  0  0  0
  196.0460  176.1020  141.7920 C   0  0  0  0  0  2  0  0  0  0  0  0
  186.2380  178.1300  148.7060 C   0  0  0  0  0  2  0  0  0  0  0  0
  185.6440  177.3380  147.8140 C   0  0  0  0  0  3  0  0  0  0  0  0
  187.6640  176.5670  140.4490 C   0  0  0  0  0  2  0  0  0  0  0  0
  187.3830  174.4970  141.6110 O   0  0  0  0  0  1  0  0  0  0  0  0
  188.2370  175.5960  141.4650 C   0  0  1  0  0  3  0  0  0  0  0  0
  189.5960  175.1270  140.9830 C   0  0  0  0  0  2  0  0  0  0  0  0
  189.5420  173.6530  140.6160 C   0  0  1  0  0  3  0  0  0  0  0  0
  189.2350  173.5380  139.1310 C   0  0  0  0  0  1  0  0  0  0  0  0
  191.2680  169.4580  142.1110 C   0  0  0  0  0  2  0  0  0  0  0  0
  190.6500  169.1140  139.6680 N   0  0  0  0  0  2  0  0  0  0  0  0
  192.0130  171.1590  140.0980 C   0  0  2  0  0  3  0  0  0  0  0  0
  190.8680  172.9650  140.9550 C   0  0  2  0  0  3  0  0  0  0  0  0
  190.6610  170.8730  142.0720 C   0  0  0  0  0  2  0  0  0  0  0  0
  191.9670  173.4420  140.0170 C   0  0  0  0  0  2  0  0  0  0  0  0
  190.7620  171.5260  140.7570 N   0  0  2  0  0  0  0  0  0  0  0  0
  192.4490  172.2820  139.2880 N   0  0  0  0  0  2  0  0  0  0  0  0
  191.8230  169.9020  139.2460 C   0  0  1  0  0  3  0  0  0  0  0  0
  190.7660  168.5100  141.0090 C   0  0  0  0  0  2  0  0  0  0  0  0
  193.0970  169.0670  139.2200 C   0  0  0  0  0  2  0  0  0  0  0  0
  194.1720  169.7250  140.0700 C   0  0  0  0  0  2  0  0  0  0  0  0
  195.0780  168.6740  140.6930 C   0  0  0  0  0  2  0  0  0  0  0  0
  195.8580  168.9280  142.9340 O   0  0  0  0  0  1  0  0  0  0  0  0
  196.9290  170.2080  141.3640 O   0  0  0  0  0  0  0  0  0  0  0  0
  195.9620  169.2830  141.7320 C   0  0  0  0  0  0  0  0  0  0  0  0
  179.5110  179.1950  142.6670 N   0  0  0  0  0  2  0  0  0  0  0  0
  178.5260  178.2390  143.1630 C   0  0  0  0  0  2  0  0  0  0  0  0
  178.3180  179.5920  145.1740 N   0  0  0  0  0  1  0  0  0  0  0  0
  178.5070  178.2390  144.6820 C   0  0  0  0  0  2  0  0  0  0  0  0
  1  7  1  0  0  0  0
  2 24  1  1  0  0  0
  2 17  1  0  0  0  0
  3 43  1  1  0  0  0
  4 12  1  0  0  0  0
  5  8  1  0  0  0  0
  5  1  2  0  0  0  0
  6 66  1  0  0  0  0
  6  8  1  0  0  0  0
  7 21  1  0  0  0  0
  8 19  2  0  0  0  0
  9 16  1  6  0  0  0
  9  2  1  0  0  0  0
 10  5  1  0  0  0  0
 11 12  1  0  0  0  0
 11 10  1  0  0  0  0
 12  6  2  0  0  0  0
 13 44  1  1  0  0  0
 13 14  1  0  0  0  0
 13 16  1  0  0  0  0
 14 18  1  0  0  0  0
 15 20  1  0  0  0  0
 17  3  1  0  0  0  0
 18  1  1  6  0  0  0
 18  9  1  0  0  0  0
 20 10  2  0  0  0  0
 20 14  1  0  0  0  0
 21  3  1  0  0  0  0
 22 23  2  0  0  0  0
 24 22  2  0  0  0  0
 25 23  1  1  0  0  0
 25 27  1  0  0  0  0
 27 26  1  0  0  0  0
 28 25  1  0  0  0  0
 30 31  1  0  0  0  0
 30 29  1  0  0  0  0
 31 29  1  0  0  0  0
 31 28  1  0  0  0  0
 32 31  1  0  0  0  0
 32 34  1  1  0  0  0
 34 33  1  0  0  0  0
 36 35  1  1  0  0  0
 36 32  1  0  0  0  0
 38 37  1  6  0  0  0
 38 36  1  0  0  0  0
 39 41  1  0  0  0  0
 39 38  1  0  0  0  0
 40 41  1  0  0  0  0
 43 42  2  0  0  0  0
 44 46  1  0  0  0  0
 46 45  1  6  0  0  0
 47 46  1  0  0  0  0
 48 49  1  6  0  0  0
 48 47  1  0  0  0  0
 51 59  1  0  0  0  0
 52 57  1  6  0  0  0
 52 56  1  0  0  0  0
 53 48  1  6  0  0  0
 54 50  1  0  0  0  0
 55 53  1  0  0  0  0
 56 53  1  0  0  0  0
 56 54  1  1  0  0  0
 57 55  1  0  0  0  0
 58 60  1  1  0  0  0
 58 51  1  0  0  0  0
 58 52  1  0  0  0  0
 59 50  1  0  0  0  0
 60 61  1  0  0  0  0
 61 62  1  0  0  0  0
 62 65  1  0  0  0  0
 64 65  2  0  0  0  0
 65 63  1  0  0  0  0
 66 67  1  0  0  0  0
 67 69  1  0  0  0  0
 69 68  1  0  0  0  0
M  END
>  <MODEL>
2

>  <REMARK>
 VINA RESULT:      -4.9      4.388     11.231
  Name = 
  24 active torsions:
  status: ('A' for Active; 'I' for Inactive)
    1  A    between atoms: C_3  and  C_53
    2  A    between atoms: C_5  and  C_13
    3  A    between atoms: C_7  and  C_43
    4  A    between atoms: C_7  and  C_67
    5  A    between atoms: C_11  and  N_26
    6  A    between atoms: C_21  and  C_43
    7  A    between atoms: N_26  and  C_27
    8  A    between atoms: C_27  and  C_48
    9  A    between atoms: C_28  and  C_41
   10  A    between atoms: C_30  and  C_35
   11  A    between atoms: C_30  and  C_38
   12  A    between atoms: C_32  and  C_44
   13  A    between atoms: C_32  and  C_55
   14  A    between atoms: C_33  and  C_35
   15  A    between atoms: C_33  and  C_41
   16  A    between atoms: C_37  and  O_40
   17  A    between atoms: C_37  and  C_66
   18  A    between atoms: C_37  and  C_67
   19  A    between atoms: C_43  and  C_65
   20  A    between atoms: C_44  and  C_51
   21  A    between atoms: C_51  and  C_62
   22  A    between atoms: C_59  and  C_60
   23  A    between atoms: C_59  and  C_66
   24  A    between atoms: C_60  and  C_69
                            x       y       z     vdW  Elec       q    Type
                         _______ _______ _______ _____ _____    ______ ____

>  <TORSDO>
F 24

$$$$
=
 OpenBabel11042415083D

 69 75  0  0  1  0  0  0  0  0999 V2000
  188.8380  175.6820  142.4490 C   0  0  0  0  0  0  0  0  0  0  0  0
  190.7940  173.1310  143.9840 C   0  0  2  0  0  3  0  0  0  0  0  0
  189.7450  174.8290  145.5800 C   0  0  1  0  0  3  0  0  0  0  0  0
  184.6630  177.2850  139.1250 F   0  0  0  0  0  0  0  0  0  0  0  0
  187.9990  176.2170  141.5240 C   0  0  0  0  0  0  0  0  0  0  0  0
  186.0770  177.7990  140.9350 C   0  0  0  0  0  0  0  0  0  0  0  0
  189.1790  176.4070  143.7220 C   0  0  0  0  0  2  0  0  0  0  0  0
  187.3020  177.5160  141.7080 C   0  0  0  0  0  0  0  0  0  0  0  0
  190.7630  174.0760  142.7780 C   0  0  1  0  0  3  0  0  0  0  0  0
  187.7250  175.4940  140.2480 C   0  0  0  0  0  0  0  0  0  0  0  0
  186.7820  176.1030  139.2440 C   0  0  0  0  0  2  0  0  0  0  0  0
  185.7950  177.0700  139.8340 C   0  0  0  0  0  0  0  0  0  0  0  0
  190.7290  173.4440  140.4970 C   0  0  1  0  0  3  0  0  0  0  0  0
  189.4110  173.9150  140.8640 N   0  0  0  0  0  0  0  0  0  0  0  0
  188.3190  173.7580  138.5830 C   0  0  0  0  0  1  0  0  0  0  0  0
  191.5730  173.5140  141.6910 N   0  0  0  0  0  2  0  0  0  0  0  0
  189.6960  173.4090  145.0230 C   0  0  0  0  0  2  0  0  0  0  0  0
  189.3460  174.2660  142.2590 C   0  0  2  0  0  3  0  0  0  0  0  0
  187.7350  178.3830  142.5110 O   0  0  0  0  0  0  0  0  0  0  0  0
  188.4550  174.4150  139.9200 C   0  0  0  0  0  0  0  0  0  0  0  0
  188.6510  175.6880  144.9540 C   0  0  0  0  0  2  0  0  0  0  0  0
  192.9750  174.1220  144.4380 C   0  0  0  0  0  0  0  0  0  0  0  0
  193.7950  175.1220  144.2510 C   0  0  0  0  0  3  0  0  0  0  0  0
  192.1530  173.1250  144.6130 C   0  0  0  0  0  3  0  0  0  0  0  0
  195.0270  175.2830  145.0780 C   0  0  1  0  0  3  0  0  0  0  0  0
  193.9530  177.4040  145.5030 O   0  0  0  0  0  1  0  0  0  0  0  0
  194.9550  176.5400  145.9510 C   0  0  0  0  0  2  0  0  0  0  0  0
  195.2380  174.0280  145.9130 C   0  0  0  0  0  2  0  0  0  0  0  0
  197.6820  173.7950  146.0510 O   0  0  0  0  0  0  0  0  0  0  0  0
  197.3630  174.0790  144.7730 O   0  0  0  0  0  0  0  0  0  0  0  0
  196.5130  173.2950  145.5210 C   0  0  0  0  0  0  0  0  0  0  0  0
  196.4950  171.8250  145.0720 C   0  0  1  0  0  3  0  0  0  0  0  0
  197.4940  169.9750  145.7910 C   0  0  0  0  0  1  0  0  0  0  0  0
  196.6160  170.9870  146.1890 O   0  0  0  0  0  0  0  0  0  0  0  0
  194.5490  170.2210  144.7500 C   0  0  0  0  0  1  0  0  0  0  0  0
  195.2570  171.4680  144.2330 C   0  0  2  0  0  3  0  0  0  0  0  0
  194.9700  170.2350  142.1750 O   0  0  0  0  0  1  0  0  0  0  0  0
  195.6490  171.3090  142.7610 C   0  0  1  0  0  3  0  0  0  0  0  0
  195.3930  172.6010  141.9930 C   0  0  0  0  0  2  0  0  0  0  0  0
  197.4300  172.3490  140.7500 O   0  0  0  0  0  1  0  0  0  0  0  0
  196.6920  173.2440  141.5300 C   0  0  0  0  0  2  0  0  0  0  0  0
  190.6330  175.1940  147.8720 C   0  0  0  0  0  2  0  0  0  0  0  0
  189.6300  174.8200  147.0770 C   0  0  0  0  0  3  0  0  0  0  0  0
  190.6560  172.0040  140.0100 C   0  0  0  0  0  2  0  0  0  0  0  0
  191.4930  169.9030  140.7850 O   0  0  0  0  0  1  0  0  0  0  0  0
  191.8640  171.2190  140.4850 C   0  0  1  0  0  3  0  0  0  0  0  0
  192.9110  171.2180  139.3870 C   0  0  0  0  0  2  0  0  0  0  0  0
  192.6560  170.0700  138.4230 C   0  0  1  0  0  3  0  0  0  0  0  0
  191.1530  169.9040  138.2570 C   0  0  0  0  0  1  0  0  0  0  0  0
  192.1690  172.7700  134.5130 C   0  0  0  0  0  2  0  0  0  0  0  0
  193.0580  174.3280  136.3160 N   0  0  0  0  0  2  0  0  0  0  0  0
  194.3180  172.1850  136.1070 C   0  0  2  0  0  3  0  0  0  0  0  0
  193.3290  170.3430  137.0730 C   0  0  2  0  0  3  0  0  0  0  0  0
  192.0390  171.6360  135.5480 C   0  0  0  0  0  2  0  0  0  0  0  0
  194.8420  170.2530  137.2080 C   0  0  0  0  0  2  0  0  0  0  0  0
  193.0410  171.6980  136.6230 N   0  0  2  0  0  0  0  0  0  0  0  0
  195.3860  171.5540  136.8600 N   0  0  0  0  0  2  0  0  0  0  0  0
  194.3930  173.7100  136.2120 C   0  0  1  0  0  3  0  0  0  0  0  0
  192.2200  174.1860  135.1110 C   0  0  0  0  0  2  0  0  0  0  0  0
  195.2080  174.2920  135.0640 C   0  0  0  0  0  2  0  0  0  0  0  0
  196.5320  174.8300  135.5820 C   0  0  0  0  0  2  0  0  0  0  0  0
  196.3580  175.4360  136.9660 C   0  0  0  0  0  2  0  0  0  0  0  0
  197.9400  175.8260  138.7090 O   0  0  0  0  0  1  0  0  0  0  0  0
  197.9410  173.7110  137.8280 O   0  0  0  0  0  0  0  0  0  0  0  0
  197.4660  175.0130  137.8740 C   0  0  0  0  0  0  0  0  0  0  0  0
  185.1970  178.8230  141.4300 N   0  0  0  0  0  2  0  0  0  0  0  0
  184.0170  178.6150  142.2630 C   0  0  0  0  0  2  0  0  0  0  0  0
  184.9320  179.5850  144.2970 N   0  0  0  0  0  1  0  0  0  0  0  0
  184.4240  178.3610  143.7040 C   0  0  0  0  0  2  0  0  0  0  0  0
  1  7  1  0  0  0  0
  2 24  1  1  0  0  0
  2 17  1  0  0  0  0
  3 43  1  1  0  0  0
  4 12  1  0  0  0  0
  5  8  1  0  0  0  0
  5  1  2  0  0  0  0
  6 66  1  0  0  0  0
  6  8  1  0  0  0  0
  7 21  1  0  0  0  0
  8 19  2  0  0  0  0
  9 16  1  6  0  0  0
  9  2  1  0  0  0  0
 10  5  1  0  0  0  0
 11 12  1  0  0  0  0
 11 10  1  0  0  0  0
 12  6  2  0  0  0  0
 13 44  1  1  0  0  0
 13 14  1  0  0  0  0
 13 16  1  0  0  0  0
 14 18  1  0  0  0  0
 15 20  1  0  0  0  0
 17  3  1  0  0  0  0
 18  1  1  6  0  0  0
 18  9  1  0  0  0  0
 20 10  2  0  0  0  0
 20 14  1  0  0  0  0
 21  3  1  0  0  0  0
 22 24  2  0  0  0  0
 23 22  2  0  0  0  0
 25 23  1  1  0  0  0
 25 28  1  0  0  0  0
 25 27  1  0  0  0  0
 26 27  1  0  0  0  0
 30 31  1  0  0  0  0
 30 29  1  0  0  0  0
 31 28  1  0  0  0  0
 31 29  1  0  0  0  0
 32 31  1  0  0  0  0
 32 34  1  1  0  0  0
 33 34  1  0  0  0  0
 36 35  1  1  0  0  0
 36 32  1  0  0  0  0
 38 37  1  6  0  0  0
 38 36  1  0  0  0  0
 39 38  1  0  0  0  0
 40 41  1  0  0  0  0
 41 39  1  0  0  0  0
 43 42  2  0  0  0  0
 44 46  1  0  0  0  0
 46 45  1  6  0  0  0
 47 46  1  0  0  0  0
 48 49  1  6  0  0  0
 48 47  1  0  0  0  0
 50 59  1  0  0  0  0
 50 54  1  0  0  0  0
 52 58  1  0  0  0  0
 52 56  1  0  0  0  0
 52 57  1  1  0  0  0
 53 55  1  0  0  0  0
 53 48  1  1  0  0  0
 56 54  1  6  0  0  0
 56 53  1  0  0  0  0
 57 55  1  0  0  0  0
 58 60  1  6  0  0  0
 58 51  1  0  0  0  0
 59 51  1  0  0  0  0
 60 61  1  0  0  0  0
 61 62  1  0  0  0  0
 62 65  1  0  0  0  0
 64 65  2  0  0  0  0
 65 63  1  0  0  0  0
 66 67  1  0  0  0  0
 67 69  1  0  0  0  0
 69 68  1  0  0  0  0
M  END
>  <MODEL>
3

>  <REMARK>
 VINA RESULT:      -4.9      3.470     10.005
  Name = 
  24 active torsions:
  status: ('A' for Active; 'I' for Inactive)
    1  A    between atoms: C_3  and  C_53
    2  A    between atoms: C_5  and  C_13
    3  A    between atoms: C_7  and  C_43
    4  A    between atoms: C_7  and  C_67
    5  A    between atoms: C_11  and  N_26
    6  A    between atoms: C_21  and  C_43
    7  A    between atoms: N_26  and  C_27
    8  A    between atoms: C_27  and  C_48
    9  A    between atoms: C_28  and  C_41
   10  A    between atoms: C_30  and  C_35
   11  A    between atoms: C_30  and  C_38
   12  A    between atoms: C_32  and  C_44
   13  A    between atoms: C_32  and  C_55
   14  A    between atoms: C_33  and  C_35
   15  A    between atoms: C_33  and  C_41
   16  A    between atoms: C_37  and  O_40
   17  A    between atoms: C_37  and  C_66
   18  A    between atoms: C_37  and  C_67
   19  A    between atoms: C_43  and  C_65
   20  A    between atoms: C_44  and  C_51
   21  A    between atoms: C_51  and  C_62
   22  A    between atoms: C_59  and  C_60
   23  A    between atoms: C_59  and  C_66
   24  A    between atoms: C_60  and  C_69
                            x       y       z     vdW  Elec       q    Type
                         _______ _______ _______ _____ _____    ______ ____

>  <TORSDO>
F 24

$$$$
=
 OpenBabel11042415083D

 69 75  0  0  1  0  0  0  0  0999 V2000
  184.5510  178.2990  143.3930 C   0  0  0  0  0  0  0  0  0  0  0  0
  187.5910  176.9090  144.6270 C   0  0  2  0  0  3  0  0  0  0  0  0
  185.8620  177.5340  146.4020 C   0  0  1  0  0  3  0  0  0  0  0  0
  180.0530  178.0420  140.1160 F   0  0  0  0  0  0  0  0  0  0  0  0
  183.5280  178.4690  142.5150 C   0  0  0  0  0  0  0  0  0  0  0  0
  181.0490  178.9060  142.0650 C   0  0  0  0  0  0  0  0  0  0  0  0
  184.5050  178.8750  144.7830 C   0  0  0  0  0  2  0  0  0  0  0  0
  182.2650  179.1710  142.8570 C   0  0  0  0  0  0  0  0  0  0  0  0
  187.0380  177.8870  143.5830 C   0  0  1  0  0  3  0  0  0  0  0  0
  183.6300  177.9300  141.1280 C   0  0  0  0  0  0  0  0  0  0  0  0
  182.4800  178.1210  140.1760 C   0  0  0  0  0  2  0  0  0  0  0  0
  181.1520  178.3280  140.8500 C   0  0  0  0  0  0  0  0  0  0  0  0
  187.2680  177.7140  141.2340 C   0  0  1  0  0  3  0  0  0  0  0  0
  185.9080  177.3700  141.5900 N   0  0  0  0  0  0  0  0  0  0  0  0
  184.9890  177.0500  139.2500 C   0  0  0  0  0  1  0  0  0  0  0  0
  187.9890  178.0110  142.4730 N   0  0  0  0  0  2  0  0  0  0  0  0
  186.5390  176.4060  145.6280 C   0  0  0  0  0  2  0  0  0  0  0  0
  185.7130  177.4020  143.0160 C   0  0  2  0  0  3  0  0  0  0  0  0
  182.2100  179.9920  143.8110 O   0  0  0  0  0  0  0  0  0  0  0  0
  184.8040  177.4530  140.6800 C   0  0  0  0  0  0  0  0  0  0  0  0
  184.4630  177.7950  145.8540 C   0  0  0  0  0  2  0  0  0  0  0  0
  189.5560  176.7620  146.0620 C   0  0  0  0  0  0  0  0  0  0  0  0
  190.3300  176.0130  146.8020 C   0  0  0  0  0  3  0  0  0  0  0  0
  188.7740  177.5020  145.3270 C   0  0  0  0  0  3  0  0  0  0  0  0
  191.6580  176.4990  147.2780 C   0  0  1  0  0  3  0  0  0  0  0  0
  191.4300  178.0710  149.0970 O   0  0  0  0  0  1  0  0  0  0  0  0
  191.6610  176.7280  148.7940 C   0  0  0  0  0  2  0  0  0  0  0  0
  192.7360  175.5090  146.8560 C   0  0  0  0  0  2  0  0  0  0  0  0
  194.8680  176.5710  146.2480 O   0  0  0  0  0  0  0  0  0  0  0  0
  193.8770  177.4410  145.9740 O   0  0  0  0  0  0  0  0  0  0  0  0
  193.6580  176.0940  145.7970 C   0  0  0  0  0  0  0  0  0  0  0  0
  193.5480  175.6890  144.3180 C   0  0  1  0  0  3  0  0  0  0  0  0
  191.7480  176.3680  143.2060 C   0  0  0  0  0  1  0  0  0  0  0  0
  193.0390  176.7600  143.5700 O   0  0  0  0  0  0  0  0  0  0  0  0
  195.4740  176.1500  142.7230 C   0  0  0  0  0  1  0  0  0  0  0  0
  194.8750  175.1780  143.7340 C   0  0  2  0  0  3  0  0  0  0  0  0
  194.6260  173.8690  141.7180 O   0  0  0  0  0  1  0  0  0  0  0  0
  194.6770  173.7910  143.1150 C   0  0  1  0  0  3  0  0  0  0  0  0
  195.7740  172.8360  143.5690 C   0  0  0  0  0  2  0  0  0  0  0  0
  196.1450  172.4700  145.9110 O   0  0  0  0  0  1  0  0  0  0  0  0
  195.3680  172.0700  144.8200 C   0  0  0  0  0  2  0  0  0  0  0  0
  186.4420  176.1680  148.3960 C   0  0  0  0  0  2  0  0  0  0  0  0
  185.8130  177.2200  147.8700 C   0  0  0  0  0  3  0  0  0  0  0  0
  187.9370  176.5450  140.5240 C   0  0  0  0  0  2  0  0  0  0  0  0
  187.1330  174.7510  141.8840 O   0  0  0  0  0  1  0  0  0  0  0  0
  188.2880  175.4500  141.5150 C   0  0  1  0  0  3  0  0  0  0  0  0
  189.2770  174.5010  140.8670 C   0  0  0  0  0  2  0  0  0  0  0  0
  189.8320  173.5370  141.9030 C   0  0  1  0  0  3  0  0  0  0  0  0
  188.8990  172.3400  141.9970 C   0  0  0  0  0  1  0  0  0  0  0  0
  192.9610  170.0160  142.6940 C   0  0  0  0  0  2  0  0  0  0  0  0
  191.2370  169.0550  141.0900 N   0  0  0  0  0  2  0  0  0  0  0  0
  192.1310  171.2820  140.4110 C   0  0  2  0  0  3  0  0  0  0  0  0
  191.2510  173.0970  141.5230 C   0  0  2  0  0  3  0  0  0  0  0  0
  192.1320  171.3070  142.8210 C   0  0  0  0  0  2  0  0  0  0  0  0
  191.5490  173.4660  140.0770 C   0  0  0  0  0  2  0  0  0  0  0  0
  191.3760  171.6480  141.6060 N   0  0  2  0  0  0  0  0  0  0  0  0
  191.8130  172.2310  139.3600 N   0  0  0  0  0  2  0  0  0  0  0  0
  191.8010  169.8500  139.9840 C   0  0  1  0  0  3  0  0  0  0  0  0
  192.1750  168.7910  142.1970 C   0  0  0  0  0  2  0  0  0  0  0  0
  193.0150  169.1800  139.3530 C   0  0  0  0  0  2  0  0  0  0  0  0
  194.2180  170.1060  139.4170 C   0  0  0  0  0  2  0  0  0  0  0  0
  195.1320  169.8790  138.2220 C   0  0  0  0  0  2  0  0  0  0  0  0
  196.7820  171.2700  137.2040 O   0  0  0  0  0  0  0  0  0  0  0  0
  194.7670  172.2750  137.6280 O   0  0  0  0  0  1  0  0  0  0  0  0
  195.6170  171.1790  137.6700 C   0  0  0  0  0  0  0  0  0  0  0  0
  179.7810  179.2310  142.6610 N   0  0  0  0  0  2  0  0  0  0  0  0
  178.4850  178.6770  142.2840 C   0  0  0  0  0  2  0  0  0  0  0  0
  178.1050  176.3430  142.8570 N   0  0  0  0  0  1  0  0  0  0  0  0
  177.9960  177.7060  143.3460 C   0  0  0  0  0  2  0  0  0  0  0  0
  1  7  1  0  0  0  0
  2 24  1  1  0  0  0
  2 17  1  0  0  0  0
  3 43  1  1  0  0  0
  4 12  1  0  0  0  0
  5  8  1  0  0  0  0
  5  1  2  0  0  0  0
  6 66  1  0  0  0  0
  6  8  1  0  0  0  0
  7 21  1  0  0  0  0
  8 19  2  0  0  0  0
  9 16  1  6  0  0  0
  9  2  1  0  0  0  0
 10  5  1  0  0  0  0
 11 12  1  0  0  0  0
 11 10  1  0  0  0  0
 12  6  2  0  0  0  0
 13 44  1  1  0  0  0
 13 14  1  0  0  0  0
 13 16  1  0  0  0  0
 14 18  1  0  0  0  0
 15 20  1  0  0  0  0
 17  3  1  0  0  0  0
 18  1  1  6  0  0  0
 18  9  1  0  0  0  0
 20 10  2  0  0  0  0
 20 14  1  0  0  0  0
 21  3  1  0  0  0  0
 22 23  2  0  0  0  0
 24 22  2  0  0  0  0
 25 23  1  1  0  0  0
 25 27  1  0  0  0  0
 27 26  1  0  0  0  0
 28 25  1  0  0  0  0
 30 29  1  0  0  0  0
 31 30  1  0  0  0  0
 31 29  1  0  0  0  0
 31 28  1  0  0  0  0
 32 34  1  6  0  0  0
 32 31  1  0  0  0  0
 33 34  1  0  0  0  0
 36 35  1  6  0  0  0
 36 32  1  0  0  0  0
 38 37  1  6  0  0  0
 38 39  1  0  0  0  0
 38 36  1  0  0  0  0
 39 41  1  0  0  0  0
 41 40  1  0  0  0  0
 43 42  2  0  0  0  0
 44 46  1  0  0  0  0
 46 45  1  6  0  0  0
 47 46  1  0  0  0  0
 47 48  1  0  0  0  0
 48 49  1  6  0  0  0
 50 54  1  0  0  0  0
 51 59  1  0  0  0  0
 52 57  1  6  0  0  0
 52 56  1  0  0  0  0
 53 56  1  0  0  0  0
 53 48  1  6  0  0  0
 55 53  1  0  0  0  0
 56 54  1  1  0  0  0
 57 55  1  0  0  0  0
 58 60  1  1  0  0  0
 58 52  1  0  0  0  0
 58 51  1  0  0  0  0
 59 50  1  0  0  0  0
 60 61  1  0  0  0  0
 62 61  1  0  0  0  0
 63 65  2  0  0  0  0
 64 65  1  0  0  0  0
 65 62  1  0  0  0  0
 67 66  1  0  0  0  0
 67 69  1  0  0  0  0
 68 69  1  0  0  0  0
M  END
>  <MODEL>
4

>  <REMARK>
 VINA RESULT:      -4.7      4.262     10.891
  Name = 
  24 active torsions:
  status: ('A' for Active; 'I' for Inactive)
    1  A    between atoms: C_3  and  C_53
    2  A    between atoms: C_5  and  C_13
    3  A    between atoms: C_7  and  C_43
    4  A    between atoms: C_7  and  C_67
    5  A    between atoms: C_11  and  N_26
    6  A    between atoms: C_21  and  C_43
    7  A    between atoms: N_26  and  C_27
    8  A    between atoms: C_27  and  C_48
    9  A    between atoms: C_28  and  C_41
   10  A    between atoms: C_30  and  C_35
   11  A    between atoms: C_30  and  C_38
   12  A    between atoms: C_32  and  C_44
   13  A    between atoms: C_32  and  C_55
   14  A    between atoms: C_33  and  C_35
   15  A    between atoms: C_33  and  C_41
   16  A    between atoms: C_37  and  O_40
   17  A    between atoms: C_37  and  C_66
   18  A    between atoms: C_37  and  C_67
   19  A    between atoms: C_43  and  C_65
   20  A    between atoms: C_44  and  C_51
   21  A    between atoms: C_51  and  C_62
   22  A    between atoms: C_59  and  C_60
   23  A    between atoms: C_59  and  C_66
   24  A    between atoms: C_60  and  C_69
                            x       y       z     vdW  Elec       q    Type
                         _______ _______ _______ _____ _____    ______ ____

>  <TORSDO>
F 24

$$$$
=
 OpenBabel11042415083D

 69 75  0  0  1  0  0  0  0  0999 V2000
  192.1840  172.7170  138.7390 C   0  0  0  0  0  0  0  0  0  0  0  0
  189.1930  172.3100  140.6320 C   0  0  2  0  0  3  0  0  0  0  0  0
  188.9890  173.7700  138.5440 C   0  0  1  0  0  3  0  0  0  0  0  0
  196.5210  170.5880  135.9640 F   0  0  0  0  0  0  0  0  0  0  0  0
  193.3820  172.3490  138.2140 C   0  0  0  0  0  0  0  0  0  0  0  0
  195.0640  172.4070  136.2870 C   0  0  0  0  0  0  0  0  0  0  0  0
  191.4700  173.9630  138.2880 C   0  0  0  0  0  2  0  0  0  0  0  0
  194.0580  173.0940  137.1210 C   0  0  0  0  0  0  0  0  0  0  0  0
  190.7020  172.5360  140.7790 C   0  0  1  0  0  3  0  0  0  0  0  0
  194.0860  171.1370  138.7220 C   0  0  0  0  0  0  0  0  0  0  0  0
  195.4080  170.7440  138.1170 C   0  0  0  0  0  2  0  0  0  0  0  0
  195.6220  171.2570  136.7210 C   0  0  0  0  0  0  0  0  0  0  0  0
  192.2390  171.1010  141.8650 C   0  0  1  0  0  3  0  0  0  0  0  0
  192.4260  170.9780  140.4360 N   0  0  0  0  0  0  0  0  0  0  0  0
  194.4080  169.3990  140.4600 C   0  0  0  0  0  1  0  0  0  0  0  0
  191.1470  172.0490  142.0900 N   0  0  0  0  0  2  0  0  0  0  0  0
  188.6850  172.4190  139.1860 C   0  0  0  0  0  2  0  0  0  0  0  0
  191.4820  171.7880  139.7090 C   0  0  2  0  0  3  0  0  0  0  0  0
  193.7920  174.3030  136.8910 O   0  0  0  0  0  0  0  0  0  0  0  0
  193.6420  170.5200  139.8300 C   0  0  0  0  0  0  0  0  0  0  0  0
  190.1620  173.6520  137.5770 C   0  0  0  0  0  2  0  0  0  0  0  0
  188.7690  174.4720  141.6770 C   0  0  0  0  0  0  0  0  0  0  0  0
  189.1170  175.7250  141.8050 C   0  0  0  0  0  3  0  0  0  0  0  0
  188.4340  173.2180  141.5480 C   0  0  0  0  0  3  0  0  0  0  0  0
  188.2260  176.7150  142.4780 C   0  0  1  0  0  3  0  0  0  0  0  0
  188.2740  179.0350  141.8090 O   0  0  0  0  0  1  0  0  0  0  0  0
  187.7350  177.7840  141.4970 C   0  0  0  0  0  2  0  0  0  0  0  0
  187.0670  175.9790  143.1370 C   0  0  0  0  0  2  0  0  0  0  0  0
  185.3840  176.4780  144.8590 O   0  0  0  0  0  0  0  0  0  0  0  0
  185.8360  177.6480  144.3690 O   0  0  0  0  0  0  0  0  0  0  0  0
  186.7040  176.5870  144.4850 C   0  0  0  0  0  0  0  0  0  0  0  0
  187.7540  176.7840  145.5900 C   0  0  1  0  0  3  0  0  0  0  0  0
  187.2950  177.9860  147.4020 C   0  0  0  0  0  1  0  0  0  0  0  0
  187.1380  176.7130  146.8470 O   0  0  0  0  0  0  0  0  0  0  0  0
  188.9670  174.8160  146.6500 C   0  0  0  0  0  1  0  0  0  0  0  0
  188.9300  175.8000  145.4850 C   0  0  2  0  0  3  0  0  0  0  0  0
  190.6600  177.0470  146.6220 O   0  0  0  0  0  1  0  0  0  0  0  0
  190.2500  176.5690  145.3720 C   0  0  1  0  0  3  0  0  0  0  0  0
  191.3290  175.6970  144.7400 C   0  0  0  0  0  2  0  0  0  0  0  0
  193.3590  174.4860  145.1530 O   0  0  0  0  0  1  0  0  0  0  0  0
  192.4060  175.3200  145.7460 C   0  0  0  0  0  2  0  0  0  0  0  0
  187.4260  175.6020  137.9320 C   0  0  0  0  0  2  0  0  0  0  0  0
  187.7740  174.3180  137.8510 C   0  0  0  0  0  3  0  0  0  0  0  0
  191.8710  169.7500  142.4640 C   0  0  0  0  0  2  0  0  0  0  0  0
  193.3500  168.1660  143.4740 O   0  0  0  0  0  1  0  0  0  0  0  0
  192.7700  169.4280  143.6440 C   0  0  1  0  0  3  0  0  0  0  0  0
  193.8550  170.4830  143.7360 C   0  0  0  0  0  2  0  0  0  0  0  0
  194.5720  170.3800  145.0730 C   0  0  1  0  0  3  0  0  0  0  0  0
  194.5620  168.9250  145.5150 C   0  0  0  0  0  1  0  0  0  0  0  0
  197.8720  171.4590  141.7930 C   0  0  0  0  0  2  0  0  0  0  0  0
  196.1840  173.3600  141.7190 N   0  0  0  0  0  2  0  0  0  0  0  0
  196.9650  172.7780  144.0150 C   0  0  2  0  0  3  0  0  0  0  0  0
  196.0070  170.9070  144.9560 C   0  0  2  0  0  3  0  0  0  0  0  0
  196.9830  170.7000  142.7960 C   0  0  0  0  0  2  0  0  0  0  0  0
  196.2760  171.9500  146.0310 C   0  0  0  0  0  2  0  0  0  0  0  0
  196.2020  171.5800  143.6790 N   0  0  2  0  0  0  0  0  0  0  0  0
  196.5930  173.1960  145.3550 N   0  0  0  0  0  2  0  0  0  0  0  0
  196.7010  173.8880  142.9950 C   0  0  1  0  0  3  0  0  0  0  0  0
  197.1420  172.5290  140.9650 C   0  0  0  0  0  2  0  0  0  0  0  0
  197.9410  174.7510  142.8000 C   0  0  0  0  0  2  0  0  0  0  0  0
  197.5590  176.0870  142.1840 C   0  0  0  0  0  2  0  0  0  0  0  0
  196.2130  176.5550  142.7160 C   0  0  0  0  0  2  0  0  0  0  0  0
  195.4980  176.3600  140.4480 O   0  0  0  0  0  0  0  0  0  0  0  0
  193.8220  176.4640  142.0070 O   0  0  0  0  0  1  0  0  0  0  0  0
  195.1640  176.4690  141.6560 C   0  0  0  0  0  0  0  0  0  0  0  0
  195.3670  172.9780  135.0020 N   0  0  0  0  0  2  0  0  0  0  0  0
  196.6860  173.3880  134.5320 C   0  0  0  0  0  2  0  0  0  0  0  0
  197.2220  175.3510  135.8660 N   0  0  0  0  0  1  0  0  0  0  0  0
  196.8060  174.9020  134.5490 C   0  0  0  0  0  2  0  0  0  0  0  0
  2  9  1  0  0  0  0
  2 24  1  1  0  0  0
  3 43  1  6  0  0  0
  3 17  1  0  0  0  0
  4 12  1  0  0  0  0
  5 10  1  0  0  0  0
  5  1  2  0  0  0  0
  6 12  2  0  0  0  0
  6  8  1  0  0  0  0
  7  1  1  0  0  0  0
  8  5  1  0  0  0  0
  9 16  1  1  0  0  0
 10 20  2  0  0  0  0
 11 10  1  0  0  0  0
 12 11  1  0  0  0  0
 13 16  1  0  0  0  0
 13 44  1  6  0  0  0
 14 13  1  0  0  0  0
 17  2  1  0  0  0  0
 18  1  1  6  0  0  0
 18 14  1  0  0  0  0
 18  9  1  0  0  0  0
 19  8  2  0  0  0  0
 20 14  1  0  0  0  0
 20 15  1  0  0  0  0
 21  7  1  0  0  0  0
 21  3  1  0  0  0  0
 22 23  2  0  0  0  0
 23 25  1  0  0  0  0
 24 22  2  0  0  0  0
 25 27  1  6  0  0  0
 25 28  1  0  0  0  0
 27 26  1  0  0  0  0
 28 31  1  0  0  0  0
 30 31  1  0  0  0  0
 30 29  1  0  0  0  0
 31 29  1  0  0  0  0
 31 32  1  0  0  0  0
 32 34  1  1  0  0  0
 34 33  1  0  0  0  0
 36 32  1  0  0  0  0
 36 35  1  1  0  0  0
 38 36  1  0  0  0  0
 38 37  1  1  0  0  0
 39 38  1  0  0  0  0
 39 41  1  0  0  0  0
 40 41  1  0  0  0  0
 43 42  2  0  0  0  0
 44 46  1  0  0  0  0
 46 45  1  6  0  0  0
 46 47  1  0  0  0  0
 47 48  1  0  0  0  0
 48 49  1  6  0  0  0
 50 54  1  0  0  0  0
 51 58  1  0  0  0  0
 52 57  1  1  0  0  0
 53 48  1  6  0  0  0
 53 55  1  0  0  0  0
 56 54  1  6  0  0  0
 56 52  1  0  0  0  0
 56 53  1  0  0  0  0
 57 55  1  0  0  0  0
 58 60  1  6  0  0  0
 58 52  1  0  0  0  0
 59 51  1  0  0  0  0
 59 50  1  0  0  0  0
 61 62  1  0  0  0  0
 61 60  1  0  0  0  0
 63 65  2  0  0  0  0
 65 64  1  0  0  0  0
 65 62  1  0  0  0  0
 66  6  1  0  0  0  0
 67 69  1  0  0  0  0
 67 66  1  0  0  0  0
 69 68  1  0  0  0  0
M  END
>  <MODEL>
5

>  <REMARK>
 VINA RESULT:      -4.7      2.349      3.940
  Name = 
  24 active torsions:
  status: ('A' for Active; 'I' for Inactive)
    1  A    between atoms: C_3  and  C_53
    2  A    between atoms: C_5  and  C_13
    3  A    between atoms: C_7  and  C_43
    4  A    between atoms: C_7  and  C_67
    5  A    between atoms: C_11  and  N_26
    6  A    between atoms: C_21  and  C_43
    7  A    between atoms: N_26  and  C_27
    8  A    between atoms: C_27  and  C_48
    9  A    between atoms: C_28  and  C_41
   10  A    between atoms: C_30  and  C_35
   11  A    between atoms: C_30  and  C_38
   12  A    between atoms: C_32  and  C_44
   13  A    between atoms: C_32  and  C_55
   14  A    between atoms: C_33  and  C_35
   15  A    between atoms: C_33  and  C_41
   16  A    between atoms: C_37  and  O_40
   17  A    between atoms: C_37  and  C_66
   18  A    between atoms: C_37  and  C_67
   19  A    between atoms: C_43  and  C_65
   20  A    between atoms: C_44  and  C_51
   21  A    between atoms: C_51  and  C_62
   22  A    between atoms: C_59  and  C_60
   23  A    between atoms: C_59  and  C_66
   24  A    between atoms: C_60  and  C_69
                            x       y       z     vdW  Elec       q    Type
                         _______ _______ _______ _____ _____    ______ ____

>  <TORSDO>
F 24

$$$$
=
 OpenBabel11042415083D

 69 75  0  0  1  0  0  0  0  0999 V2000
  184.7070  178.3270  143.6380 C   0  0  0  0  0  0  0  0  0  0  0  0
  187.6040  177.1070  145.3150 C   0  0  2  0  0  3  0  0  0  0  0  0
  185.5950  177.6190  146.8110 C   0  0  1  0  0  3  0  0  0  0  0  0
  180.7720  177.8320  139.7250 F   0  0  0  0  0  0  0  0  0  0  0  0
  183.8190  178.4430  142.6160 C   0  0  0  0  0  0  0  0  0  0  0  0
  181.4130  178.7390  141.7990 C   0  0  0  0  0  0  0  0  0  0  0  0
  184.4200  178.8900  145.0040 C   0  0  0  0  0  2  0  0  0  0  0  0
  182.4800  179.0690  142.7640 C   0  0  0  0  0  0  0  0  0  0  0  0
  187.1570  178.0570  144.1990 C   0  0  1  0  0  3  0  0  0  0  0  0
  184.1590  177.9200  141.2610 C   0  0  0  0  0  0  0  0  0  0  0  0
  183.1540  178.0500  140.1470 C   0  0  0  0  0  2  0  0  0  0  0  0
  181.7310  178.1760  140.6140 C   0  0  0  0  0  0  0  0  0  0  0  0
  187.7460  177.9130  141.9110 C   0  0  1  0  0  3  0  0  0  0  0  0
  186.3710  177.4890  142.0600 N   0  0  0  0  0  0  0  0  0  0  0  0
  185.8310  177.1320  139.6100 C   0  0  0  0  0  1  0  0  0  0  0  0
  188.2550  178.2440  143.2430 N   0  0  0  0  0  2  0  0  0  0  0  0
  186.4450  176.5370  146.1490 C   0  0  0  0  0  2  0  0  0  0  0  0
  185.9620  177.5000  143.4410 C   0  0  2  0  0  3  0  0  0  0  0  0
  182.2360  179.8790  143.6960 O   0  0  0  0  0  0  0  0  0  0  0  0
  185.4120  177.5150  140.9940 C   0  0  0  0  0  0  0  0  0  0  0  0
  184.2810  177.8020  146.0580 C   0  0  0  0  0  2  0  0  0  0  0  0
  189.6380  177.0820  146.6600 C   0  0  0  0  0  0  0  0  0  0  0  0
  190.6380  176.3910  147.1370 C   0  0  0  0  0  3  0  0  0  0  0  0
  188.6320  177.7620  146.1840 C   0  0  0  0  0  3  0  0  0  0  0  0
  191.8180  177.0590  147.7620 C   0  0  1  0  0  3  0  0  0  0  0  0
  191.5430  178.2880  149.8220 O   0  0  0  0  0  1  0  0  0  0  0  0
  191.7430  177.0120  149.2910 C   0  0  0  0  0  2  0  0  0  0  0  0
  193.0940  176.4120  147.2390 C   0  0  0  0  0  2  0  0  0  0  0  0
  191.8210  174.6100  146.1540 O   0  0  0  0  0  0  0  0  0  0  0  0
  193.1040  174.2110  146.2530 O   0  0  0  0  0  0  0  0  0  0  0  0
  192.8280  175.5390  146.0210 C   0  0  0  0  0  0  0  0  0  0  0  0
  193.2060  175.9960  144.6030 C   0  0  1  0  0  3  0  0  0  0  0  0
  191.7890  177.5450  143.8760 C   0  0  0  0  0  1  0  0  0  0  0  0
  193.0330  177.3820  144.4890 O   0  0  0  0  0  0  0  0  0  0  0  0
  195.6620  176.6430  144.5060 C   0  0  0  0  0  1  0  0  0  0  0  0
  194.6250  175.5710  144.1920 C   0  0  2  0  0  3  0  0  0  0  0  0
  194.7580  176.3360  141.9040 O   0  0  0  0  0  1  0  0  0  0  0  0
  194.6520  175.1950  142.7070 C   0  0  1  0  0  3  0  0  0  0  0  0
  195.7850  174.2170  142.4200 C   0  0  0  0  0  2  0  0  0  0  0  0
  197.6880  175.5720  141.8700 O   0  0  0  0  0  1  0  0  0  0  0  0
  196.7080  174.7340  141.3270 C   0  0  0  0  0  2  0  0  0  0  0  0
  186.3230  177.2780  149.1620 C   0  0  0  0  0  2  0  0  0  0  0  0
  185.3450  177.2930  148.2550 C   0  0  0  0  0  3  0  0  0  0  0  0
  188.5800  176.7900  141.3120 C   0  0  0  0  0  2  0  0  0  0  0  0
  187.7420  174.5540  141.2030 O   0  0  0  0  0  1  0  0  0  0  0  0
  188.3360  175.4900  142.0560 C   0  0  1  0  0  3  0  0  0  0  0  0
  189.6640  174.9550  142.5580 C   0  0  0  0  0  2  0  0  0  0  0  0
  190.2000  173.9050  141.5990 C   0  0  1  0  0  3  0  0  0  0  0  0
  191.6220  174.2850  141.2140 C   0  0  0  0  0  1  0  0  0  0  0  0
  191.6880  169.4260  140.8620 C   0  0  0  0  0  2  0  0  0  0  0  0
  193.7510  170.7240  141.5890 N   0  0  0  0  0  2  0  0  0  0  0  0
  191.7610  171.0680  143.0530 C   0  0  2  0  0  3  0  0  0  0  0  0
  190.1610  172.5160  142.2460 C   0  0  2  0  0  3  0  0  0  0  0  0
  190.8680  170.7300  140.8410 C   0  0  0  0  0  2  0  0  0  0  0  0
  190.2550  172.6350  143.7600 C   0  0  0  0  0  2  0  0  0  0  0  0
  191.3120  171.7260  141.8290 N   0  0  2  0  0  0  0  0  0  0  0  0
  191.4600  171.9380  144.1760 N   0  0  0  0  0  2  0  0  0  0  0  0
  193.2580  170.7580  142.9780 C   0  0  1  0  0  3  0  0  0  0  0  0
  193.2110  169.6210  140.7720 C   0  0  0  0  0  2  0  0  0  0  0  0
  193.5840  169.4770  143.7360 C   0  0  0  0  0  2  0  0  0  0  0  0
  193.7190  169.7680  145.2220 C   0  0  0  0  0  2  0  0  0  0  0  0
  194.8900  170.7040  145.4800 C   0  0  0  0  0  2  0  0  0  0  0  0
  196.5380  169.6920  146.8770 O   0  0  0  0  0  1  0  0  0  0  0  0
  196.8610  169.4340  144.6230 O   0  0  0  0  0  0  0  0  0  0  0  0
  196.1480  169.9300  145.7050 C   0  0  0  0  0  0  0  0  0  0  0  0
  180.0540  178.9870  142.1980 N   0  0  0  0  0  2  0  0  0  0  0  0
  179.3270  178.2940  143.2560 C   0  0  0  0  0  2  0  0  0  0  0  0
  177.7490  178.1390  141.4110 N   0  0  0  0  0  1  0  0  0  0  0  0
  178.1360  177.5480  142.6800 C   0  0  0  0  0  2  0  0  0  0  0  0
  1  7  1  0  0  0  0
  2 17  1  0  0  0  0
  2 24  1  1  0  0  0
  3 43  1  1  0  0  0
  4 12  1  0  0  0  0
  5  8  1  0  0  0  0
  5  1  2  0  0  0  0
  6 66  1  0  0  0  0
  6  8  1  0  0  0  0
  7 21  1  0  0  0  0
  8 19  2  0  0  0  0
  9 16  1  6  0  0  0
  9  2  1  0  0  0  0
 10  5  1  0  0  0  0
 11 12  1  0  0  0  0
 11 10  1  0  0  0  0
 12  6  2  0  0  0  0
 13 44  1  1  0  0  0
 13 14  1  0  0  0  0
 13 16  1  0  0  0  0
 14 18  1  0  0  0  0
 15 20  1  0  0  0  0
 17  3  1  0  0  0  0
 18  1  1  6  0  0  0
 18  9  1  0  0  0  0
 20 10  2  0  0  0  0
 20 14  1  0  0  0  0
 21  3  1  0  0  0  0
 22 23  2  0  0  0  0
 24 22  2  0  0  0  0
 25 23  1  6  0  0  0
 25 27  1  0  0  0  0
 27 26  1  0  0  0  0
 28 25  1  0  0  0  0
 29 30  1  0  0  0  0
 31 29  1  0  0  0  0
 31 30  1  0  0  0  0
 31 28  1  0  0  0  0
 32 34  1  1  0  0  0
 32 31  1  0  0  0  0
 33 34  1  0  0  0  0
 36 35  1  6  0  0  0
 36 32  1  0  0  0  0
 38 37  1  6  0  0  0
 38 36  1  0  0  0  0
 39 38  1  0  0  0  0
 41 40  1  0  0  0  0
 41 39  1  0  0  0  0
 43 42  2  0  0  0  0
 44 46  1  0  0  0  0
 46 45  1  6  0  0  0
 46 47  1  0  0  0  0
 48 49  1  1  0  0  0
 48 47  1  0  0  0  0
 51 58  1  0  0  0  0
 52 57  1  1  0  0  0
 53 48  1  6  0  0  0
 53 55  1  0  0  0  0
 54 50  1  0  0  0  0
 55 57  1  0  0  0  0
 56 54  1  6  0  0  0
 56 53  1  0  0  0  0
 56 52  1  0  0  0  0
 58 52  1  0  0  0  0
 58 60  1  6  0  0  0
 59 50  1  0  0  0  0
 59 51  1  0  0  0  0
 60 61  1  0  0  0  0
 61 62  1  0  0  0  0
 62 65  1  0  0  0  0
 64 65  2  0  0  0  0
 65 63  1  0  0  0  0
 66 67  1  0  0  0  0
 68 69  1  0  0  0  0
 69 67  1  0  0  0  0
M  END
>  <MODEL>
6

>  <REMARK>
 VINA RESULT:      -4.5      4.291     10.922
  Name = 
  24 active torsions:
  status: ('A' for Active; 'I' for Inactive)
    1  A    between atoms: C_3  and  C_53
    2  A    between atoms: C_5  and  C_13
    3  A    between atoms: C_7  and  C_43
    4  A    between atoms: C_7  and  C_67
    5  A    between atoms: C_11  and  N_26
    6  A    between atoms: C_21  and  C_43
    7  A    between atoms: N_26  and  C_27
    8  A    between atoms: C_27  and  C_48
    9  A    between atoms: C_28  and  C_41
   10  A    between atoms: C_30  and  C_35
   11  A    between atoms: C_30  and  C_38
   12  A    between atoms: C_32  and  C_44
   13  A    between atoms: C_32  and  C_55
   14  A    between atoms: C_33  and  C_35
   15  A    between atoms: C_33  and  C_41
   16  A    between atoms: C_37  and  O_40
   17  A    between atoms: C_37  and  C_66
   18  A    between atoms: C_37  and  C_67
   19  A    between atoms: C_43  and  C_65
   20  A    between atoms: C_44  and  C_51
   21  A    between atoms: C_51  and  C_62
   22  A    between atoms: C_59  and  C_60
   23  A    between atoms: C_59  and  C_66
   24  A    between atoms: C_60  and  C_69
                            x       y       z     vdW  Elec       q    Type
                         _______ _______ _______ _____ _____    ______ ____

>  <TORSDO>
F 24

$$$$
=
 OpenBabel11042415083D

 69 75  0  0  1  0  0  0  0  0999 V2000
  192.2570  172.9410  138.7330 C   0  0  0  0  0  0  0  0  0  0  0  0
  189.3840  172.3670  140.7600 C   0  0  2  0  0  3  0  0  0  0  0  0
  189.0310  173.9160  138.7580 C   0  0  1  0  0  3  0  0  0  0  0  0
  196.4880  171.0600  135.6340 F   0  0  0  0  0  0  0  0  0  0  0  0
  193.4340  172.6300  138.1280 C   0  0  0  0  0  0  0  0  0  0  0  0
  195.0070  172.8230  136.1210 C   0  0  0  0  0  0  0  0  0  0  0  0
  191.4900  174.1870  138.3800 C   0  0  0  0  0  2  0  0  0  0  0  0
  194.0320  173.4430  137.0390 C   0  0  0  0  0  0  0  0  0  0  0  0
  190.8930  172.6250  140.8380 C   0  0  1  0  0  3  0  0  0  0  0  0
  194.1940  171.4140  138.5400 C   0  0  0  0  0  0  0  0  0  0  0  0
  195.4890  171.0860  137.8480 C   0  0  0  0  0  2  0  0  0  0  0  0
  195.6150  171.6690  136.4690 C   0  0  0  0  0  0  0  0  0  0  0  0
  192.5200  171.1830  141.7710 C   0  0  1  0  0  3  0  0  0  0  0  0
  192.6330  171.1320  140.3290 N   0  0  0  0  0  0  0  0  0  0  0  0
  194.6500  169.6070  140.1740 C   0  0  0  0  0  1  0  0  0  0  0  0
  191.4190  172.0900  142.0980 N   0  0  0  0  0  2  0  0  0  0  0  0
  188.7960  172.5290  139.3490 C   0  0  0  0  0  2  0  0  0  0  0  0
  191.6310  171.9490  139.6930 C   0  0  2  0  0  3  0  0  0  0  0  0
  193.7240  174.6540  136.8810 O   0  0  0  0  0  0  0  0  0  0  0  0
  193.8250  170.7350  139.6390 C   0  0  0  0  0  0  0  0  0  0  0  0
  190.1530  173.8750  137.7260 C   0  0  0  0  0  2  0  0  0  0  0  0
  188.9180  174.4820  141.8810 C   0  0  0  0  0  0  0  0  0  0  0  0
  189.1950  175.7520  142.0020 C   0  0  0  0  0  3  0  0  0  0  0  0
  188.6530  173.2100  141.7570 C   0  0  0  0  0  3  0  0  0  0  0  0
  188.3070  176.6730  142.7710 C   0  0  1  0  0  3  0  0  0  0  0  0
  187.4450  176.9650  140.5340 O   0  0  0  0  0  1  0  0  0  0  0  0
  187.2230  177.2820  141.8760 C   0  0  0  0  0  2  0  0  0  0  0  0
  187.7070  175.9200  143.9510 C   0  0  0  0  0  2  0  0  0  0  0  0
  188.8990  177.4140  145.4980 O   0  0  0  0  0  0  0  0  0  0  0  0
  188.6050  176.2790  146.1600 O   0  0  0  0  0  0  0  0  0  0  0  0
  187.7200  176.7580  145.2210 C   0  0  0  0  0  0  0  0  0  0  0  0
  186.4250  177.3100  145.8380 C   0  0  1  0  0  3  0  0  0  0  0  0
  185.6920  176.6950  147.8440 C   0  0  0  0  0  1  0  0  0  0  0  0
  186.6110  177.5340  147.2090 O   0  0  0  0  0  0  0  0  0  0  0  0
  185.8820  179.7850  146.0520 C   0  0  0  0  0  1  0  0  0  0  0  0
  185.9110  178.5730  145.1280 C   0  0  2  0  0  3  0  0  0  0  0  0
  183.5130  178.6680  145.4160 O   0  0  0  0  0  1  0  0  0  0  0  0
  184.5280  178.3080  144.5220 C   0  0  1  0  0  3  0  0  0  0  0  0
  184.3730  179.0420  143.1950 C   0  0  0  0  0  2  0  0  0  0  0  0
  184.0680  178.7630  140.8310 O   0  0  0  0  0  1  0  0  0  0  0  0
  184.1040  178.0770  142.0500 C   0  0  0  0  0  2  0  0  0  0  0  0
  187.7640  175.1610  137.0210 C   0  0  0  0  0  2  0  0  0  0  0  0
  187.7690  174.4630  138.1570 C   0  0  0  0  0  3  0  0  0  0  0  0
  192.2180  169.7970  142.3230 C   0  0  0  0  0  2  0  0  0  0  0  0
  193.0560  168.1700  143.8610 O   0  0  0  0  0  1  0  0  0  0  0  0
  193.0150  169.5420  143.5890 C   0  0  1  0  0  3  0  0  0  0  0  0
  194.4240  170.0670  143.3950 C   0  0  0  0  0  2  0  0  0  0  0  0
  195.3270  169.5680  144.5120 C   0  0  1  0  0  3  0  0  0  0  0  0
  196.6060  169.0260  143.8920 C   0  0  0  0  0  1  0  0  0  0  0  0
  197.9110  173.5680  144.8860 C   0  0  0  0  0  2  0  0  0  0  0  0
  195.9390  174.1620  143.3930 N   0  0  0  0  0  2  0  0  0  0  0  0
  195.3060  172.9780  145.4950 C   0  0  2  0  0  3  0  0  0  0  0  0
  195.6350  170.6980  145.5000 C   0  0  2  0  0  3  0  0  0  0  0  0
  197.4660  172.0930  144.8970 C   0  0  0  0  0  2  0  0  0  0  0  0
  194.3940  171.0470  146.3080 C   0  0  0  0  0  2  0  0  0  0  0  0
  196.0100  171.9120  144.7880 N   0  0  2  0  0  0  0  0  0  0  0  0
  194.0690  172.4350  146.0270 N   0  0  0  0  0  2  0  0  0  0  0  0
  195.0370  174.1580  144.5590 C   0  0  1  0  0  3  0  0  0  0  0  0
  197.3580  174.3990  143.7160 C   0  0  0  0  0  2  0  0  0  0  0  0
  195.0770  175.4760  145.3220 C   0  0  0  0  0  2  0  0  0  0  0  0
  193.9770  175.5090  146.3700 C   0  0  0  0  0  2  0  0  0  0  0  0
  192.8740  176.4720  145.9570 C   0  0  0  0  0  2  0  0  0  0  0  0
  191.7210  174.8060  144.6960 O   0  0  0  0  0  1  0  0  0  0  0  0
  191.9720  176.8340  143.6590 O   0  0  0  0  0  0  0  0  0  0  0  0
  192.1710  175.9800  144.7350 C   0  0  0  0  0  0  0  0  0  0  0  0
  195.2270  173.4600  134.8510 N   0  0  0  0  0  2  0  0  0  0  0  0
  195.4040  174.8910  134.6250 C   0  0  0  0  0  2  0  0  0  0  0  0
  197.8320  174.7820  134.5180 N   0  0  0  0  0  1  0  0  0  0  0  0
  196.7120  175.3640  135.2350 C   0  0  0  0  0  2  0  0  0  0  0  0
  2  9  1  0  0  0  0
  2 24  1  1  0  0  0
  3 43  1  6  0  0  0
  3 17  1  0  0  0  0
  4 12  1  0  0  0  0
  5 10  1  0  0  0  0
  5  1  2  0  0  0  0
  6 12  2  0  0  0  0
  6  8  1  0  0  0  0
  7  1  1  0  0  0  0
  8  5  1  0  0  0  0
  9 16  1  1  0  0  0
 10 20  2  0  0  0  0
 11 10  1  0  0  0  0
 12 11  1  0  0  0  0
 13 16  1  0  0  0  0
 13 44  1  6  0  0  0
 14 13  1  0  0  0  0
 17  2  1  0  0  0  0
 18  1  1  6  0  0  0
 18 14  1  0  0  0  0
 18  9  1  0  0  0  0
 19  8  2  0  0  0  0
 20 15  1  0  0  0  0
 20 14  1  0  0  0  0
 21  7  1  0  0  0  0
 21  3  1  0  0  0  0
 22 23  2  0  0  0  0
 23 25  1  0  0  0  0
 24 22  2  0  0  0  0
 25 27  1  6  0  0  0
 25 28  1  0  0  0  0
 26 27  1  0  0  0  0
 28 31  1  0  0  0  0
 29 30  1  0  0  0  0
 31 29  1  0  0  0  0
 31 32  1  0  0  0  0
 31 30  1  0  0  0  0
 32 34  1  1  0  0  0
 34 33  1  0  0  0  0
 36 32  1  0  0  0  0
 36 35  1  1  0  0  0
 38 36  1  0  0  0  0
 38 37  1  1  0  0  0
 39 38  1  0  0  0  0
 40 41  1  0  0  0  0
 41 39  1  0  0  0  0
 42 43  2  0  0  0  0
 44 46  1  0  0  0  0
 46 45  1  6  0  0  0
 47 46  1  0  0  0  0
 47 48  1  0  0  0  0
 48 49  1  6  0  0  0
 50 54  1  0  0  0  0
 51 59  1  0  0  0  0
 51 58  1  0  0  0  0
 52 57  1  6  0  0  0
 53 48  1  6  0  0  0
 53 55  1  0  0  0  0
 56 54  1  1  0  0  0
 56 52  1  0  0  0  0
 56 53  1  0  0  0  0
 57 55  1  0  0  0  0
 58 60  1  1  0  0  0
 58 52  1  0  0  0  0
 59 50  1  0  0  0  0
 60 61  1  0  0  0  0
 62 61  1  0  0  0  0
 63 65  1  0  0  0  0
 64 65  2  0  0  0  0
 65 62  1  0  0  0  0
 66  6  1  0  0  0  0
 67 66  1  0  0  0  0
 67 69  1  0  0  0  0
 68 69  1  0  0  0  0
M  END
>  <MODEL>
7

>  <REMARK>
 VINA RESULT:      -4.5      2.394      4.317
  Name = 
  24 active torsions:
  status: ('A' for Active; 'I' for Inactive)
    1  A    between atoms: C_3  and  C_53
    2  A    between atoms: C_5  and  C_13
    3  A    between atoms: C_7  and  C_43
    4  A    between atoms: C_7  and  C_67
    5  A    between atoms: C_11  and  N_26
    6  A    between atoms: C_21  and  C_43
    7  A    between atoms: N_26  and  C_27
    8  A    between atoms: C_27  and  C_48
    9  A    between atoms: C_28  and  C_41
   10  A    between atoms: C_30  and  C_35
   11  A    between atoms: C_30  and  C_38
   12  A    between atoms: C_32  and  C_44
   13  A    between atoms: C_32  and  C_55
   14  A    between atoms: C_33  and  C_35
   15  A    between atoms: C_33  and  C_41
   16  A    between atoms: C_37  and  O_40
   17  A    between atoms: C_37  and  C_66
   18  A    between atoms: C_37  and  C_67
   19  A    between atoms: C_43  and  C_65
   20  A    between atoms: C_44  and  C_51
   21  A    between atoms: C_51  and  C_62
   22  A    between atoms: C_59  and  C_60
   23  A    between atoms: C_59  and  C_66
   24  A    between atoms: C_60  and  C_69
                            x       y       z     vdW  Elec       q    Type
                         _______ _______ _______ _____ _____    ______ ____

>  <TORSDO>
F 24

$$$$
=
 OpenBabel11042415083D

 69 75  0  0  1  0  0  0  0  0999 V2000
  193.1700  172.8550  138.2470 C   0  0  0  0  0  0  0  0  0  0  0  0
  190.0940  171.9790  139.8180 C   0  0  2  0  0  3  0  0  0  0  0  0
  189.9040  173.5750  137.8310 C   0  0  1  0  0  3  0  0  0  0  0  0
  197.9410  171.4340  135.7450 F   0  0  0  0  0  0  0  0  0  0  0  0
  194.4420  172.6620  137.8120 C   0  0  0  0  0  0  0  0  0  0  0  0
  196.2640  173.0550  136.0610 C   0  0  0  0  0  0  0  0  0  0  0  0
  192.3610  174.0510  137.8220 C   0  0  0  0  0  2  0  0  0  0  0  0
  195.1200  173.5610  136.8440 C   0  0  0  0  0  0  0  0  0  0  0  0
  191.5500  172.3510  140.1220 C   0  0  1  0  0  3  0  0  0  0  0  0
  195.2340  171.4930  138.2960 C   0  0  0  0  0  0  0  0  0  0  0  0
  196.6370  171.2940  137.7900 C   0  0  0  0  0  2  0  0  0  0  0  0
  196.9100  171.9390  136.4600 C   0  0  0  0  0  0  0  0  0  0  0  0
  193.1420  171.0040  141.2410 C   0  0  1  0  0  3  0  0  0  0  0  0
  193.4620  171.0200  139.8300 N   0  0  0  0  0  0  0  0  0  0  0  0
  195.6010  169.6640  139.9270 C   0  0  0  0  0  1  0  0  0  0  0  0
  191.9340  171.8090  141.4300 N   0  0  0  0  0  2  0  0  0  0  0  0
  189.7020  172.1510  138.3420 C   0  0  0  0  0  2  0  0  0  0  0  0
  192.4980  171.7810  139.0790 C   0  0  2  0  0  3  0  0  0  0  0  0
  194.7390  174.7490  136.6770 O   0  0  0  0  0  0  0  0  0  0  0  0
  194.7690  170.7440  139.3100 C   0  0  0  0  0  0  0  0  0  0  0  0
  191.1610  173.6620  136.9720 C   0  0  0  0  0  2  0  0  0  0  0  0
  189.3950  173.9640  141.0500 C   0  0  0  0  0  0  0  0  0  0  0  0
  189.6410  175.2040  141.3790 C   0  0  0  0  0  3  0  0  0  0  0  0
  189.1620  172.7240  140.7220 C   0  0  0  0  0  3  0  0  0  0  0  0
  188.6060  176.0550  142.0360 C   0  0  1  0  0  3  0  0  0  0  0  0
  186.5350  176.6860  140.9660 O   0  0  0  0  0  1  0  0  0  0  0  0
  187.1920  175.6400  141.6180 C   0  0  0  0  0  2  0  0  0  0  0  0
  188.7890  175.9900  143.5470 C   0  0  0  0  0  2  0  0  0  0  0  0
  189.6380  178.2980  143.5500 O   0  0  0  0  0  0  0  0  0  0  0  0
  190.0630  177.6970  144.6780 O   0  0  0  0  0  0  0  0  0  0  0  0
  188.8240  177.3780  144.1720 C   0  0  0  0  0  0  0  0  0  0  0  0
  187.6650  177.9050  145.0330 C   0  0  1  0  0  3  0  0  0  0  0  0
  185.7790  177.6390  143.8900 C   0  0  0  0  0  1  0  0  0  0  0  0
  186.7470  178.5890  144.2250 O   0  0  0  0  0  0  0  0  0  0  0  0
  185.5640  177.1920  146.2750 C   0  0  0  0  0  1  0  0  0  0  0  0
  186.9780  176.8030  145.8560 C   0  0  2  0  0  3  0  0  0  0  0  0
  187.0680  176.4500  148.2450 O   0  0  0  0  0  1  0  0  0  0  0  0
  187.8350  176.4450  147.0740 C   0  0  1  0  0  3  0  0  0  0  0  0
  188.5180  175.0980  146.8740 C   0  0  0  0  0  2  0  0  0  0  0  0
  190.6400  174.1610  146.2600 O   0  0  0  0  0  1  0  0  0  0  0  0
  190.0330  175.2230  146.9370 C   0  0  0  0  0  2  0  0  0  0  0  0
  187.7790  174.8450  137.6090 C   0  0  0  0  0  2  0  0  0  0  0  0
  188.6990  174.0450  137.0680 C   0  0  0  0  0  3  0  0  0  0  0  0
  192.8790  169.5780  141.7040 C   0  0  0  0  0  2  0  0  0  0  0  0
  192.8020  168.1710  143.6350 O   0  0  0  0  0  1  0  0  0  0  0  0
  193.2190  169.4250  143.1760 C   0  0  1  0  0  3  0  0  0  0  0  0
  194.7190  169.5610  143.3490 C   0  0  0  0  0  2  0  0  0  0  0  0
  195.0810  169.5210  144.8250 C   0  0  1  0  0  3  0  0  0  0  0  0
  196.1750  168.4840  145.0260 C   0  0  0  0  0  1  0  0  0  0  0  0
  197.9410  173.1260  143.5470 C   0  0  0  0  0  2  0  0  0  0  0  0
  195.8950  173.3070  142.0450 N   0  0  0  0  0  2  0  0  0  0  0  0
  195.3630  173.0410  144.4680 C   0  0  2  0  0  3  0  0  0  0  0  0
  195.5420  170.9020  145.3040 C   0  0  2  0  0  3  0  0  0  0  0  0
  197.4040  171.8050  144.1290 C   0  0  0  0  0  2  0  0  0  0  0  0
  194.3970  171.6350  145.9880 C   0  0  0  0  0  2  0  0  0  0  0  0
  195.9350  171.7300  144.1720 N   0  0  2  0  0  0  0  0  0  0  0  0
  194.1410  172.8450  145.2270 N   0  0  0  0  0  2  0  0  0  0  0  0
  195.0940  173.8140  143.1750 C   0  0  1  0  0  3  0  0  0  0  0  0
  197.3490  173.5160  142.1820 C   0  0  0  0  0  2  0  0  0  0  0  0
  195.2830  175.3100  143.3890 C   0  0  0  0  0  2  0  0  0  0  0  0
  194.0820  176.0720  142.8530 C   0  0  0  0  0  2  0  0  0  0  0  0
  193.0980  176.3750  143.9730 C   0  0  0  0  0  2  0  0  0  0  0  0
  194.6480  177.6080  145.3040 O   0  0  0  0  0  0  0  0  0  0  0  0
  193.5410  175.9190  146.3870 O   0  0  0  0  0  1  0  0  0  0  0  0
  193.8190  176.6630  145.2490 C   0  0  0  0  0  0  0  0  0  0  0  0
  196.6090  173.7580  134.8540 N   0  0  0  0  0  2  0  0  0  0  0  0
  197.6560  174.7640  134.7130 C   0  0  0  0  0  2  0  0  0  0  0  0
  196.9390  177.0720  134.9940 N   0  0  0  0  0  1  0  0  0  0  0  0
  197.4340  175.9010  135.6960 C   0  0  0  0  0  2  0  0  0  0  0  0
  2  9  1  0  0  0  0
  2 24  1  1  0  0  0
  3 43  1  6  0  0  0
  3 17  1  0  0  0  0
  4 12  1  0  0  0  0
  5  1  2  0  0  0  0
  5 10  1  0  0  0  0
  6 12  2  0  0  0  0
  6  8  1  0  0  0  0
  7  1  1  0  0  0  0
  8  5  1  0  0  0  0
  9 16  1  1  0  0  0
 10 20  2  0  0  0  0
 11 10  1  0  0  0  0
 12 11  1  0  0  0  0
 13 16  1  0  0  0  0
 13 44  1  6  0  0  0
 14 13  1  0  0  0  0
 17  2  1  0  0  0  0
 18  1  1  1  0  0  0
 18 14  1  0  0  0  0
 18  9  1  0  0  0  0
 19  8  2  0  0  0  0
 20 14  1  0  0  0  0
 20 15  1  0  0  0  0
 21  7  1  0  0  0  0
 21  3  1  0  0  0  0
 22 23  2  0  0  0  0
 24 22  2  0  0  0  0
 25 23  1  6  0  0  0
 25 28  1  0  0  0  0
 26 27  1  0  0  0  0
 27 25  1  0  0  0  0
 28 31  1  0  0  0  0
 29 31  1  0  0  0  0
 29 30  1  0  0  0  0
 31 30  1  0  0  0  0
 31 32  1  0  0  0  0
 32 34  1  6  0  0  0
 32 36  1  0  0  0  0
 33 34  1  0  0  0  0
 36 35  1  1  0  0  0
 36 38  1  0  0  0  0
 38 37  1  1  0  0  0
 39 41  1  0  0  0  0
 39 38  1  0  0  0  0
 40 41  1  0  0  0  0
 43 42  2  0  0  0  0
 44 46  1  0  0  0  0
 46 47  1  0  0  0  0
 46 45  1  6  0  0  0
 47 48  1  0  0  0  0
 48 49  1  6  0  0  0
 50 54  1  0  0  0  0
 51 59  1  0  0  0  0
 51 58  1  0  0  0  0
 52 57  1  6  0  0  0
 53 48  1  6  0  0  0
 53 55  1  0  0  0  0
 56 54  1  1  0  0  0
 56 52  1  0  0  0  0
 56 53  1  0  0  0  0
 57 55  1  0  0  0  0
 58 60  1  1  0  0  0
 58 52  1  0  0  0  0
 59 50  1  0  0  0  0
 61 60  1  0  0  0  0
 61 62  1  0  0  0  0
 62 65  1  0  0  0  0
 65 63  2  0  0  0  0
 65 64  1  0  0  0  0
 66  6  1  0  0  0  0
 67 66  1  0  0  0  0
 67 69  1  0  0  0  0
 68 69  1  0  0  0  0
M  END
>  <MODEL>
8

>  <REMARK>
 VINA RESULT:      -4.3      2.503      3.877
  Name = 
  24 active torsions:
  status: ('A' for Active; 'I' for Inactive)
    1  A    between atoms: C_3  and  C_53
    2  A    between atoms: C_5  and  C_13
    3  A    between atoms: C_7  and  C_43
    4  A    between atoms: C_7  and  C_67
    5  A    between atoms: C_11  and  N_26
    6  A    between atoms: C_21  and  C_43
    7  A    between atoms: N_26  and  C_27
    8  A    between atoms: C_27  and  C_48
    9  A    between atoms: C_28  and  C_41
   10  A    between atoms: C_30  and  C_35
   11  A    between atoms: C_30  and  C_38
   12  A    between atoms: C_32  and  C_44
   13  A    between atoms: C_32  and  C_55
   14  A    between atoms: C_33  and  C_35
   15  A    between atoms: C_33  and  C_41
   16  A    between atoms: C_37  and  O_40
   17  A    between atoms: C_37  and  C_66
   18  A    between atoms: C_37  and  C_67
   19  A    between atoms: C_43  and  C_65
   20  A    between atoms: C_44  and  C_51
   21  A    between atoms: C_51  and  C_62
   22  A    between atoms: C_59  and  C_60
   23  A    between atoms: C_59  and  C_66
   24  A    between atoms: C_60  and  C_69
                            x       y       z     vdW  Elec       q    Type
                         _______ _______ _______ _____ _____    ______ ____

>  <TORSDO>
F 24

$$$$
=
 OpenBabel11042415083D

 69 75  0  0  1  0  0  0  0  0999 V2000
  193.4900  172.1190  143.4680 C   0  0  0  0  0  0  0  0  0  0  0  0
  191.9100  175.2810  143.0190 C   0  0  2  0  0  3  0  0  0  0  0  0
  193.0980  174.9480  145.2570 C   0  0  1  0  0  3  0  0  0  0  0  0
  197.0460  168.1690  141.7970 F   0  0  0  0  0  0  0  0  0  0  0  0
  194.1570  170.9980  143.0880 C   0  0  0  0  0  0  0  0  0  0  0  0
  195.8910  169.1830  143.5780 C   0  0  0  0  0  0  0  0  0  0  0  0
  193.3060  172.4770  144.9180 C   0  0  0  0  0  2  0  0  0  0  0  0
  194.8090  170.0700  144.0470 C   0  0  0  0  0  0  0  0  0  0  0  0
  191.7170  173.7800  142.7710 C   0  0  1  0  0  3  0  0  0  0  0  0
  194.2750  170.6460  141.6430 C   0  0  0  0  0  0  0  0  0  0  0  0
  195.0290  169.4050  141.2460 C   0  0  0  0  0  2  0  0  0  0  0  0
  196.0440  168.9510  142.2570 C   0  0  0  0  0  0  0  0  0  0  0  0
  191.4450  172.7270  140.6690 C   0  0  1  0  0  3  0  0  0  0  0  0
  192.7780  172.4450  141.1560 N   0  0  0  0  0  0  0  0  0  0  0  0
  193.5280  170.8990  139.2930 C   0  0  0  0  0  1  0  0  0  0  0  0
  190.7840  173.5830  141.6560 N   0  0  0  0  0  2  0  0  0  0  0  0
  193.1340  175.6160  143.8860 C   0  0  0  0  0  2  0  0  0  0  0  0
  193.0310  173.1040  142.4120 C   0  0  2  0  0  3  0  0  0  0  0  0
  194.4570  170.0240  145.2550 O   0  0  0  0  0  0  0  0  0  0  0  0
  193.5580  171.3210  140.7290 C   0  0  0  0  0  0  0  0  0  0  0  0
  194.0440  173.7530  145.2960 C   0  0  0  0  0  2  0  0  0  0  0  0
  189.9430  176.7150  142.8740 C   0  0  0  0  0  0  0  0  0  0  0  0
  189.2360  177.5510  142.1620 C   0  0  0  0  0  3  0  0  0  0  0  0
  190.6600  175.8860  143.5800 C   0  0  0  0  0  3  0  0  0  0  0  0
  187.8570  177.9490  142.5710 C   0  0  1  0  0  3  0  0  0  0  0  0
  186.3550  177.0530  140.9060 O   0  0  0  0  0  1  0  0  0  0  0  0
  186.9690  178.2250  141.3530 C   0  0  0  0  0  2  0  0  0  0  0  0
  187.2670  176.8650  143.4640 C   0  0  0  0  0  2  0  0  0  0  0  0
  185.2760  177.3190  144.8340 O   0  0  0  0  0  0  0  0  0  0  0  0
  185.7970  178.5010  144.4540 O   0  0  0  0  0  0  0  0  0  0  0  0
  186.6430  177.4490  144.7230 C   0  0  0  0  0  0  0  0  0  0  0  0
  187.4560  177.6420  146.0130 C   0  0  1  0  0  3  0  0  0  0  0  0
  186.6500  179.5190  146.8860 C   0  0  0  0  0  1  0  0  0  0  0  0
  186.6240  178.1300  147.0300 O   0  0  0  0  0  0  0  0  0  0  0  0
  187.6400  175.8010  147.7580 C   0  0  0  0  0  1  0  0  0  0  0  0
  188.1940  176.3680  146.4550 C   0  0  2  0  0  3  0  0  0  0  0  0
  190.0190  177.8930  146.0270 O   0  0  0  0  0  1  0  0  0  0  0  0
  189.6970  176.6440  146.5690 C   0  0  1  0  0  3  0  0  0  0  0  0
  190.1540  176.5430  148.0190 C   0  0  0  0  0  2  0  0  0  0  0  0
  191.5280  177.7240  149.5930 O   0  0  0  0  0  1  0  0  0  0  0  0
  190.5980  177.8930  148.5630 C   0  0  0  0  0  2  0  0  0  0  0  0
  194.2630  176.9570  146.1410 C   0  0  0  0  0  2  0  0  0  0  0  0
  193.4330  175.9320  146.3400 C   0  0  0  0  0  3  0  0  0  0  0  0
  191.5160  173.4540  139.3330 C   0  0  0  0  0  2  0  0  0  0  0  0
  189.5680  172.2410  138.6640 O   0  0  0  0  0  1  0  0  0  0  0  0
  190.8430  172.6370  138.2450 C   0  0  1  0  0  3  0  0  0  0  0  0
  190.7310  173.4860  136.9940 C   0  0  0  0  0  2  0  0  0  0  0  0
  190.8520  172.6110  135.7560 C   0  0  1  0  0  3  0  0  0  0  0  0
  189.6240  172.8330  134.8870 C   0  0  0  0  0  1  0  0  0  0  0  0
  193.5850  176.3320  134.5320 C   0  0  0  0  0  2  0  0  0  0  0  0
  194.0720  175.9030  136.9910 N   0  0  0  0  0  2  0  0  0  0  0  0
  194.1680  173.8620  135.5610 C   0  0  2  0  0  3  0  0  0  0  0  0
  192.1350  172.9430  134.9860 C   0  0  2  0  0  3  0  0  0  0  0  0
  192.4810  175.2590  134.5570 C   0  0  0  0  0  2  0  0  0  0  0  0
  193.1680  171.8430  135.1790 C   0  0  0  0  0  2  0  0  0  0  0  0
  192.7400  174.1630  135.5040 N   0  0  2  0  0  0  0  0  0  0  0  0
  194.3260  172.4420  135.8200 N   0  0  0  0  0  2  0  0  0  0  0  0
  194.8520  174.7020  136.6420 C   0  0  1  0  0  3  0  0  0  0  0  0
  193.9630  176.9000  135.9100 C   0  0  0  0  0  2  0  0  0  0  0  0
  196.2820  175.0410  136.2400 C   0  0  0  0  0  2  0  0  0  0  0  0
  197.2200  174.8330  137.4170 C   0  0  0  0  0  2  0  0  0  0  0  0
  196.4320  174.6780  138.7080 C   0  0  0  0  0  2  0  0  0  0  0  0
  197.8160  172.7820  139.1360 O   0  0  0  0  0  0  0  0  0  0  0  0
  196.9300  173.7970  140.9900 O   0  0  0  0  0  1  0  0  0  0  0  0
  197.0870  173.6880  139.6150 C   0  0  0  0  0  0  0  0  0  0  0  0
  196.7830  168.6390  144.5670 N   0  0  0  0  0  2  0  0  0  0  0  0
  197.5840  169.4040  145.5170 C   0  0  0  0  0  2  0  0  0  0  0  0
  196.9630  169.0220  147.8380 N   0  0  0  0  0  1  0  0  0  0  0  0
  197.8440  168.5850  146.7700 C   0  0  0  0  0  2  0  0  0  0  0  0
  1  7  1  0  0  0  0
  2 24  1  1  0  0  0
  2 17  1  0  0  0  0
  3 21  1  0  0  0  0
  3 43  1  1  0  0  0
  4 12  1  0  0  0  0
  5  1  2  0  0  0  0
  5  8  1  0  0  0  0
  6  8  1  0  0  0  0
  6 66  1  0  0  0  0
  7 21  1  0  0  0  0
  8 19  2  0  0  0  0
  9 16  1  6  0  0  0
  9  2  1  0  0  0  0
 10  5  1  0  0  0  0
 11 10  1  0  0  0  0
 11 12  1  0  0  0  0
 12  6  2  0  0  0  0
 13 44  1  6  0  0  0
 13 14  1  0  0  0  0
 13 16  1  0  0  0  0
 14 18  1  0  0  0  0
 15 20  1  0  0  0  0
 17  3  1  0  0  0  0
 18  9  1  0  0  0  0
 18  1  1  1  0  0  0
 20 14  1  0  0  0  0
 20 10  2  0  0  0  0
 22 24  2  0  0  0  0
 23 25  1  0  0  0  0
 23 22  2  0  0  0  0
 25 27  1  6  0  0  0
 25 28  1  0  0  0  0
 26 27  1  0  0  0  0
 28 31  1  0  0  0  0
 30 31  1  0  0  0  0
 30 29  1  0  0  0  0
 31 29  1  0  0  0  0
 31 32  1  0  0  0  0
 32 36  1  0  0  0  0
 32 34  1  1  0  0  0
 33 34  1  0  0  0  0
 36 38  1  0  0  0  0
 36 35  1  1  0  0  0
 38 37  1  1  0  0  0
 38 39  1  0  0  0  0
 39 41  1  0  0  0  0
 41 40  1  0  0  0  0
 42 43  2  0  0  0  0
 46 45  1  1  0  0  0
 46 44  1  0  0  0  0
 47 46  1  0  0  0  0
 48 49  1  6  0  0  0
 48 47  1  0  0  0  0
 50 54  1  0  0  0  0
 50 59  1  0  0  0  0
 52 57  1  1  0  0  0
 52 58  1  0  0  0  0
 53 55  1  0  0  0  0
 53 56  1  0  0  0  0
 53 48  1  1  0  0  0
 55 57  1  0  0  0  0
 56 54  1  6  0  0  0
 56 52  1  0  0  0  0
 58 60  1  6  0  0  0
 58 51  1  0  0  0  0
 59 51  1  0  0  0  0
 60 61  1  0  0  0  0
 61 62  1  0  0  0  0
 62 65  1  0  0  0  0
 63 65  2  0  0  0  0
 65 64  1  0  0  0  0
 66 67  1  0  0  0  0
 67 69  1  0  0  0  0
 69 68  1  0  0  0  0
M  END
>  <MODEL>
9

>  <REMARK>
 VINA RESULT:      -4.1      2.657      6.349
  Name = 
  24 active torsions:
  status: ('A' for Active; 'I' for Inactive)
    1  A    between atoms: C_3  and  C_53
    2  A    between atoms: C_5  and  C_13
    3  A    between atoms: C_7  and  C_43
    4  A    between atoms: C_7  and  C_67
    5  A    between atoms: C_11  and  N_26
    6  A    between atoms: C_21  and  C_43
    7  A    between atoms: N_26  and  C_27
    8  A    between atoms: C_27  and  C_48
    9  A    between atoms: C_28  and  C_41
   10  A    between atoms: C_30  and  C_35
   11  A    between atoms: C_30  and  C_38
   12  A    between atoms: C_32  and  C_44
   13  A    between atoms: C_32  and  C_55
   14  A    between atoms: C_33  and  C_35
   15  A    between atoms: C_33  and  C_41
   16  A    between atoms: C_37  and  O_40
   17  A    between atoms: C_37  and  C_66
   18  A    between atoms: C_37  and  C_67
   19  A    between atoms: C_43  and  C_65
   20  A    between atoms: C_44  and  C_51
   21  A    between atoms: C_51  and  C_62
   22  A    between atoms: C_59  and  C_60
   23  A    between atoms: C_59  and  C_66
   24  A    between atoms: C_60  and  C_69
                            x       y       z     vdW  Elec       q    Type
                         _______ _______ _______ _____ _____    ______ ____

>  <TORSDO>
F 24

$$$$
