=
 OpenBabel11042416503D

 29 32  0  0  1  0  0  0  0  0999 V2000
  189.9810  174.7700  145.2990 N   0  0  0  0  0  0  0  0  0  0  0  0
  191.2450  174.9270  145.0420 C   0  0  0  0  0  0  0  0  0  0  0  0
  192.3130  174.6850  146.0740 C   0  0  2  0  0  3  0  0  0  0  0  0
  195.1330  175.3290  145.9360 C   0  0  0  0  0  3  0  0  0  0  0  0
  194.7500  174.1630  145.5120 N   0  0  0  0  0  0  0  0  0  0  0  0
  192.8740  175.9880  146.5850 C   0  0  0  0  0  3  0  0  0  0  0  0
  194.1740  176.2830  146.5130 C   0  0  0  0  0  3  0  0  0  0  0  0
  193.3810  173.7440  145.5730 C   0  0  0  0  0  0  0  0  0  0  0  0
  193.0720  172.5780  145.2150 O   0  0  0  0  0  0  0  0  0  0  0  0
  189.5300  174.4030  146.5470 O   0  0  0  0  0  0  0  0  0  0  0  0
  189.1670  176.7240  146.9790 C   0  0  0  0  0  2  0  0  0  0  0  0
  188.7670  175.3070  147.3230 C   0  0  1  0  0  3  0  0  0  0  0  0
  187.8990  176.1330  146.3980 C   0  0  1  0  0  3  0  0  0  0  0  0
  186.7030  176.6470  147.1780 C   0  0  0  0  0  2  0  0  0  0  0  0
  184.6800  179.0520  144.3930 O   0  0  0  0  0  0  0  0  0  0  0  0
  185.0160  177.7700  143.9180 C   0  0  0  0  0  2  0  0  0  0  0  0
  184.0060  178.8680  145.6150 C   0  0  0  0  0  2  0  0  0  0  0  0
  185.5850  177.0480  146.2320 C   0  0  0  0  0  3  0  0  0  0  0  0
  186.1070  177.1580  144.7980 C   0  0  0  0  0  2  0  0  0  0  0  0
  184.9860  178.3780  146.6810 C   0  0  0  0  0  2  0  0  0  0  0  0
  191.6600  175.2900  143.6570 C   0  0  0  0  0  2  0  0  0  0  0  0
  191.0690  176.6070  143.2630 C   0  0  0  0  0  0  0  0  0  0  0  0
  191.6970  177.6620  143.5510 O   0  0  0  0  0  0  0  0  0  0  0  0
  187.9960  175.5860  141.3110 C   0  0  0  0  0  3  0  0  0  0  0  0
  187.3630  176.8170  141.1240 C   0  0  0  0  0  3  0  0  0  0  0  0
  189.1490  177.9160  142.3320 C   0  0  0  0  0  3  0  0  0  0  0  0
  189.2060  175.5190  142.0090 C   0  0  0  0  0  3  0  0  0  0  0  0
  187.9400  177.9830  141.6350 C   0  0  0  0  0  3  0  0  0  0  0  0
  189.7920  176.6840  142.5250 C   0  0  0  0  0  0  0  0  0  0  0  0
  1 10  1  0  0  0  0
  2  1  2  0  0  0  0
  3  2  1  6  0  0  0
  3  6  1  0  0  0  0
  4  7  1  0  0  0  0
  5  8  1  0  0  0  0
  5  4  2  0  0  0  0
  7  6  2  0  0  0  0
  8  3  1  0  0  0  0
  9  8  2  0  0  0  0
 11 12  1  0  0  0  0
 12 10  1  6  0  0  0
 13 11  1  0  0  0  0
 13 14  1  1  0  0  0
 13 12  1  0  0  0  0
 15 17  1  0  0  0  0
 16 15  1  0  0  0  0
 16 19  1  0  0  0  0
 17 20  1  0  0  0  0
 18 20  1  0  0  0  0
 18 14  1  0  0  0  0
 19 18  1  0  0  0  0
 21  2  1  0  0  0  0
 22 23  2  0  0  0  0
 22 21  1  0  0  0  0
 24 27  1  0  0  0  0
 25 24  2  0  0  0  0
 25 28  1  0  0  0  0
 26 29  1  0  0  0  0
 27 29  2  0  0  0  0
 28 26  2  0  0  0  0
 29 22  1  0  0  0  0
M  END
>  <MODEL>
1

>  <REMARK>
 VINA RESULT:      -7.4      0.000      0.000
  Name = 
  8 active torsions:
  status: ('A' for Active; 'I' for Inactive)
    1  A    between atoms: N_2  and  O_19
    2  A    between atoms: C_5  and  C_9
    3  A    between atoms: C_9  and  C_25
    4  A    between atoms: C_14  and  O_19
    5  A    between atoms: C_16  and  C_22
    6  A    between atoms: C_16  and  C_25
    7  A    between atoms: C_20  and  C_24
    8  A    between atoms: C_21  and  C_24
                            x       y       z     vdW  Elec       q    Type
                         _______ _______ _______ _____ _____    ______ ____

>  <TORSDO>
F 8

$$$$
=
 OpenBabel11042416503D

 29 32  0  0  1  0  0  0  0  0999 V2000
  188.4860  177.2060  143.8520 N   0  0  0  0  0  0  0  0  0  0  0  0
  187.2670  177.5160  144.1800 C   0  0  0  0  0  0  0  0  0  0  0  0
  186.4480  178.5040  143.3940 C   0  0  2  0  0  3  0  0  0  0  0  0
  183.5670  178.7850  143.2940 C   0  0  0  0  0  3  0  0  0  0  0  0
  184.1350  177.9980  142.4320 N   0  0  0  0  0  0  0  0  0  0  0  0
  185.6910  179.4290  144.3130 C   0  0  0  0  0  3  0  0  0  0  0  0
  184.3620  179.5500  144.2680 C   0  0  0  0  0  3  0  0  0  0  0  0
  185.5570  177.8240  142.3830 C   0  0  0  0  0  0  0  0  0  0  0  0
  186.0640  177.1040  141.4830 O   0  0  0  0  0  0  0  0  0  0  0  0
  189.1230  177.7860  142.7790 O   0  0  0  0  0  0  0  0  0  0  0  0
  191.1350  178.5570  143.8120 C   0  0  0  0  0  2  0  0  0  0  0  0
  190.5340  177.7490  142.6840 C   0  0  1  0  0  3  0  0  0  0  0  0
  191.0880  177.0460  143.9050 C   0  0  1  0  0  3  0  0  0  0  0  0
  192.4550  176.4800  143.5670 C   0  0  0  0  0  2  0  0  0  0  0  0
  195.1320  173.9860  145.6270 O   0  0  0  0  0  0  0  0  0  0  0  0
  195.0470  175.2940  146.1370 C   0  0  0  0  0  2  0  0  0  0  0  0
  193.8150  173.4970  145.5410 C   0  0  0  0  0  2  0  0  0  0  0  0
  193.0220  175.7180  144.7510 C   0  0  0  0  0  3  0  0  0  0  0  0
  194.4260  176.2220  145.0930 C   0  0  0  0  0  2  0  0  0  0  0  0
  193.0600  174.2270  144.4300 C   0  0  0  0  0  2  0  0  0  0  0  0
  186.6290  176.8180  145.3330 C   0  0  0  0  0  2  0  0  0  0  0  0
  187.3100  177.1950  146.6120 C   0  0  0  0  0  0  0  0  0  0  0  0
  186.7250  177.9870  147.3980 O   0  0  0  0  0  0  0  0  0  0  0  0
  190.0690  174.7050  147.3100 C   0  0  0  0  0  3  0  0  0  0  0  0
  191.1270  175.5510  147.6540 C   0  0  0  0  0  3  0  0  0  0  0  0
  189.6950  177.4730  147.3200 C   0  0  0  0  0  3  0  0  0  0  0  0
  188.8240  175.2430  146.9710 C   0  0  0  0  0  3  0  0  0  0  0  0
  190.9390  176.9350  147.6590 C   0  0  0  0  0  3  0  0  0  0  0  0
  188.6270  176.6320  146.9730 C   0  0  0  0  0  0  0  0  0  0  0  0
  1  2  2  0  0  0  0
  2 21  1  0  0  0  0
  3  2  1  1  0  0  0
  3  6  1  0  0  0  0
  4  7  1  0  0  0  0
  5  4  2  0  0  0  0
  7  6  2  0  0  0  0
  8  5  1  0  0  0  0
  8  3  1  0  0  0  0
  9  8  2  0  0  0  0
 10  1  1  0  0  0  0
 11 13  1  0  0  0  0
 12 10  1  1  0  0  0
 12 11  1  0  0  0  0
 12 13  1  0  0  0  0
 13 14  1  6  0  0  0
 14 18  1  0  0  0  0
 15 16  1  0  0  0  0
 17 15  1  0  0  0  0
 18 19  1  0  0  0  0
 19 16  1  0  0  0  0
 20 18  1  0  0  0  0
 20 17  1  0  0  0  0
 21 22  1  0  0  0  0
 22 29  1  0  0  0  0
 22 23  2  0  0  0  0
 24 25  1  0  0  0  0
 25 28  2  0  0  0  0
 26 28  1  0  0  0  0
 27 29  1  0  0  0  0
 27 24  2  0  0  0  0
 29 26  2  0  0  0  0
M  END
>  <MODEL>
2

>  <REMARK>
 VINA RESULT:      -7.4      2.476      7.816
  Name = 
  8 active torsions:
  status: ('A' for Active; 'I' for Inactive)
    1  A    between atoms: N_2  and  O_19
    2  A    between atoms: C_5  and  C_9
    3  A    between atoms: C_9  and  C_25
    4  A    between atoms: C_14  and  O_19
    5  A    between atoms: C_16  and  C_22
    6  A    between atoms: C_16  and  C_25
    7  A    between atoms: C_20  and  C_24
    8  A    between atoms: C_21  and  C_24
                            x       y       z     vdW  Elec       q    Type
                         _______ _______ _______ _____ _____    ______ ____

>  <TORSDO>
F 8

$$$$
=
 OpenBabel11042416503D

 29 32  0  0  1  0  0  0  0  0999 V2000
  189.2320  177.7610  142.1550 N   0  0  0  0  0  0  0  0  0  0  0  0
  189.8130  177.4980  143.2870 C   0  0  0  0  0  0  0  0  0  0  0  0
  189.0960  176.8240  144.4250 C   0  0  2  0  0  3  0  0  0  0  0  0
  190.2170  175.2760  146.6010 C   0  0  0  0  0  3  0  0  0  0  0  0
  189.8740  174.6490  145.5170 N   0  0  0  0  0  0  0  0  0  0  0  0
  189.4790  177.4410  145.7460 C   0  0  0  0  0  3  0  0  0  0  0  0
  190.0020  176.7240  146.7440 C   0  0  0  0  0  3  0  0  0  0  0  0
  189.2800  175.3260  144.4020 C   0  0  0  0  0  0  0  0  0  0  0  0
  188.9020  174.6620  143.4020 O   0  0  0  0  0  0  0  0  0  0  0  0
  187.9050  177.4670  141.9310 O   0  0  0  0  0  0  0  0  0  0  0  0
  185.6780  178.1250  141.3730 C   0  0  0  0  0  2  0  0  0  0  0  0
  186.9070  178.4340  142.1980 C   0  0  1  0  0  3  0  0  0  0  0  0
  185.7200  177.7470  142.8390 C   0  0  1  0  0  3  0  0  0  0  0  0
  184.9390  178.7680  143.6440 C   0  0  0  0  0  2  0  0  0  0  0  0
  186.4980  177.7040  147.3940 O   0  0  0  0  0  0  0  0  0  0  0  0
  185.7440  178.8920  147.3940 C   0  0  0  0  0  2  0  0  0  0  0  0
  185.7020  176.7180  146.7840 C   0  0  0  0  0  2  0  0  0  0  0  0
  184.9020  178.3740  145.1090 C   0  0  0  0  0  3  0  0  0  0  0  0
  185.6100  179.4240  145.9670 C   0  0  0  0  0  2  0  0  0  0  0  0
  185.5630  177.0110  145.2900 C   0  0  0  0  0  2  0  0  0  0  0  0
  191.2630  177.8110  143.4440 C   0  0  0  0  0  2  0  0  0  0  0  0
  192.0840  176.5710  143.2880 C   0  0  0  0  0  0  0  0  0  0  0  0
  191.9710  175.8990  142.2270 O   0  0  0  0  0  0  0  0  0  0  0  0
  194.3060  176.6380  146.3470 C   0  0  0  0  0  3  0  0  0  0  0  0
  194.8430  175.3480  146.3300 C   0  0  0  0  0  3  0  0  0  0  0  0
  193.5800  174.8520  144.3250 C   0  0  0  0  0  3  0  0  0  0  0  0
  193.4070  177.0360  145.3530 C   0  0  0  0  0  3  0  0  0  0  0  0
  194.4790  174.4550  145.3190 C   0  0  0  0  0  3  0  0  0  0  0  0
  193.0360  176.1460  144.3340 C   0  0  0  0  0  0  0  0  0  0  0  0
  1  2  2  0  0  0  0
  2 21  1  0  0  0  0
  3  2  1  6  0  0  0
  3  6  1  0  0  0  0
  4  7  1  0  0  0  0
  5  4  2  0  0  0  0
  6  7  2  0  0  0  0
  8  3  1  0  0  0  0
  8  5  1  0  0  0  0
  9  8  2  0  0  0  0
 10  1  1  0  0  0  0
 11 12  1  0  0  0  0
 11 13  1  0  0  0  0
 12 10  1  6  0  0  0
 12 13  1  0  0  0  0
 13 14  1  1  0  0  0
 14 18  1  0  0  0  0
 15 16  1  0  0  0  0
 17 15  1  0  0  0  0
 18 20  1  0  0  0  0
 18 19  1  0  0  0  0
 19 16  1  0  0  0  0
 20 17  1  0  0  0  0
 22 21  1  0  0  0  0
 22 29  1  0  0  0  0
 23 22  2  0  0  0  0
 25 24  1  0  0  0  0
 26 29  2  0  0  0  0
 26 28  1  0  0  0  0
 27 24  2  0  0  0  0
 28 25  2  0  0  0  0
 29 27  1  0  0  0  0
M  END
>  <MODEL>
3

>  <REMARK>
 VINA RESULT:      -7.4      2.107      4.899
  Name = 
  8 active torsions:
  status: ('A' for Active; 'I' for Inactive)
    1  A    between atoms: N_2  and  O_19
    2  A    between atoms: C_5  and  C_9
    3  A    between atoms: C_9  and  C_25
    4  A    between atoms: C_14  and  O_19
    5  A    between atoms: C_16  and  C_22
    6  A    between atoms: C_16  and  C_25
    7  A    between atoms: C_20  and  C_24
    8  A    between atoms: C_21  and  C_24
                            x       y       z     vdW  Elec       q    Type
                         _______ _______ _______ _____ _____    ______ ____

>  <TORSDO>
F 8

$$$$
=
 OpenBabel11042416503D

 29 32  0  0  1  0  0  0  0  0999 V2000
  188.8060  177.5680  141.9250 N   0  0  0  0  0  0  0  0  0  0  0  0
  189.4310  176.5300  142.3930 C   0  0  0  0  0  0  0  0  0  0  0  0
  188.7570  175.1960  142.5710 C   0  0  2  0  0  3  0  0  0  0  0  0
  189.9690  172.5720  142.7590 C   0  0  0  0  0  3  0  0  0  0  0  0
  189.6330  173.0080  141.5830 N   0  0  0  0  0  0  0  0  0  0  0  0
  189.1370  174.5710  143.8890 C   0  0  0  0  0  3  0  0  0  0  0  0
  189.7020  173.3640  143.9710 C   0  0  0  0  0  3  0  0  0  0  0  0
  188.9970  174.2790  141.3970 C   0  0  0  0  0  0  0  0  0  0  0  0
  188.6280  174.6260  140.2440 O   0  0  0  0  0  0  0  0  0  0  0  0
  187.4720  177.5270  141.5880 O   0  0  0  0  0  0  0  0  0  0  0  0
  185.1960  178.2550  141.5800 C   0  0  0  0  0  2  0  0  0  0  0  0
  186.5410  178.3480  142.2670 C   0  0  1  0  0  3  0  0  0  0  0  0
  185.4520  177.4730  142.8510 C   0  0  1  0  0  3  0  0  0  0  0  0
  184.8160  178.1970  144.0230 C   0  0  0  0  0  2  0  0  0  0  0  0
  185.9690  177.4920  147.9980 O   0  0  0  0  0  0  0  0  0  0  0  0
  186.7210  176.7860  147.0410 C   0  0  0  0  0  2  0  0  0  0  0  0
  185.9850  178.8450  147.6090 C   0  0  0  0  0  2  0  0  0  0  0  0
  185.7440  178.1800  145.2240 C   0  0  0  0  0  3  0  0  0  0  0  0
  185.9680  176.7470  145.7120 C   0  0  0  0  0  2  0  0  0  0  0  0
  185.1500  179.0320  146.3420 C   0  0  0  0  0  2  0  0  0  0  0  0
  190.8860  176.6400  142.7010 C   0  0  0  0  0  2  0  0  0  0  0  0
  191.0980  177.4660  143.9310 C   0  0  0  0  0  0  0  0  0  0  0  0
  191.1570  178.7190  143.8150 O   0  0  0  0  0  0  0  0  0  0  0  0
  192.3430  175.3320  146.7930 C   0  0  0  0  0  3  0  0  0  0  0  0
  191.4220  175.6460  147.7960 C   0  0  0  0  0  3  0  0  0  0  0  0
  190.2850  177.1500  146.2770 C   0  0  0  0  0  3  0  0  0  0  0  0
  192.2350  175.9250  145.5320 C   0  0  0  0  0  3  0  0  0  0  0  0
  190.3930  176.5560  147.5380 C   0  0  0  0  0  3  0  0  0  0  0  0
  191.2050  176.8400  145.2640 C   0  0  0  0  0  0  0  0  0  0  0  0
  1  2  2  0  0  0  0
  2 21  1  0  0  0  0
  3  2  1  6  0  0  0
  3  6  1  0  0  0  0
  4  7  1  0  0  0  0
  5  4  2  0  0  0  0
  6  7  2  0  0  0  0
  8  5  1  0  0  0  0
  8  3  1  0  0  0  0
  9  8  2  0  0  0  0
 10  1  1  0  0  0  0
 11 12  1  0  0  0  0
 11 13  1  0  0  0  0
 12 10  1  6  0  0  0
 12 13  1  0  0  0  0
 13 14  1  1  0  0  0
 14 18  1  0  0  0  0
 16 15  1  0  0  0  0
 17 15  1  0  0  0  0
 18 19  1  0  0  0  0
 18 20  1  0  0  0  0
 19 16  1  0  0  0  0
 20 17  1  0  0  0  0
 21 22  1  0  0  0  0
 22 29  1  0  0  0  0
 23 22  2  0  0  0  0
 24 25  1  0  0  0  0
 26 28  1  0  0  0  0
 27 24  2  0  0  0  0
 28 25  2  0  0  0  0
 29 27  1  0  0  0  0
 29 26  2  0  0  0  0
M  END
>  <MODEL>
4

>  <REMARK>
 VINA RESULT:      -7.2      2.601      4.924
  Name = 
  8 active torsions:
  status: ('A' for Active; 'I' for Inactive)
    1  A    between atoms: N_2  and  O_19
    2  A    between atoms: C_5  and  C_9
    3  A    between atoms: C_9  and  C_25
    4  A    between atoms: C_14  and  O_19
    5  A    between atoms: C_16  and  C_22
    6  A    between atoms: C_16  and  C_25
    7  A    between atoms: C_20  and  C_24
    8  A    between atoms: C_21  and  C_24
                            x       y       z     vdW  Elec       q    Type
                         _______ _______ _______ _____ _____    ______ ____

>  <TORSDO>
F 8

$$$$
=
 OpenBabel11042416503D

 29 32  0  0  1  0  0  0  0  0999 V2000
  191.4060  175.9190  142.8840 N   0  0  0  0  0  0  0  0  0  0  0  0
  192.4480  175.7690  143.6450 C   0  0  0  0  0  0  0  0  0  0  0  0
  193.3410  174.5610  143.5590 C   0  0  2  0  0  3  0  0  0  0  0  0
  195.2120  173.5550  145.5280 C   0  0  0  0  0  3  0  0  0  0  0  0
  195.6470  174.4070  144.6500 N   0  0  0  0  0  0  0  0  0  0  0  0
  192.9570  173.5310  144.5910 C   0  0  0  0  0  3  0  0  0  0  0  0
  193.8210  173.0750  145.5010 C   0  0  0  0  0  3  0  0  0  0  0  0
  194.8030  174.9320  143.6180 C   0  0  0  0  0  0  0  0  0  0  0  0
  195.2900  175.7010  142.7490 O   0  0  0  0  0  0  0  0  0  0  0  0
  191.0290  174.9660  141.9650 O   0  0  0  0  0  0  0  0  0  0  0  0
  189.3570  174.1160  143.4450 C   0  0  0  0  0  2  0  0  0  0  0  0
  189.7290  174.4100  142.0090 C   0  0  1  0  0  3  0  0  0  0  0  0
  188.8180  175.3560  142.7630 C   0  0  1  0  0  3  0  0  0  0  0  0
  187.3860  175.1070  142.3280 C   0  0  0  0  0  2  0  0  0  0  0  0
  186.2050  178.7980  143.9450 O   0  0  0  0  0  0  0  0  0  0  0  0
  186.6450  178.8620  142.6100 C   0  0  0  0  0  2  0  0  0  0  0  0
  185.2270  177.7880  144.0030 C   0  0  0  0  0  2  0  0  0  0  0  0
  186.5660  176.3790  142.4500 C   0  0  0  0  0  3  0  0  0  0  0  0
  187.4540  177.6110  142.2670 C   0  0  0  0  0  2  0  0  0  0  0  0
  185.8810  176.4190  143.8130 C   0  0  0  0  0  2  0  0  0  0  0  0
  192.8160  176.8610  144.5910 C   0  0  0  0  0  2  0  0  0  0  0  0
  192.3270  176.5450  145.9690 C   0  0  0  0  0  0  0  0  0  0  0  0
  193.1640  176.4850  146.9100 O   0  0  0  0  0  0  0  0  0  0  0  0
  188.5920  177.1140  146.1240 C   0  0  0  0  0  3  0  0  0  0  0  0
  188.1570  175.9450  146.7550 C   0  0  0  0  0  3  0  0  0  0  0  0
  190.4460  175.1640  146.8760 C   0  0  0  0  0  3  0  0  0  0  0  0
  189.9520  177.3080  145.8700 C   0  0  0  0  0  3  0  0  0  0  0  0
  189.0850  174.9700  147.1310 C   0  0  0  0  0  3  0  0  0  0  0  0
  190.8910  176.3350  146.2430 C   0  0  0  0  0  0  0  0  0  0  0  0
  1  2  2  0  0  0  0
  2 21  1  0  0  0  0
  3  8  1  0  0  0  0
  3  2  1  1  0  0  0
  3  6  1  0  0  0  0
  5  4  2  0  0  0  0
  6  7  2  0  0  0  0
  7  4  1  0  0  0  0
  8  5  1  0  0  0  0
  9  8  2  0  0  0  0
 10  1  1  0  0  0  0
 12 10  1  1  0  0  0
 12 13  1  0  0  0  0
 12 11  1  0  0  0  0
 13 14  1  6  0  0  0
 13 11  1  0  0  0  0
 14 18  1  0  0  0  0
 15 17  1  0  0  0  0
 16 15  1  0  0  0  0
 18 20  1  0  0  0  0
 19 18  1  0  0  0  0
 19 16  1  0  0  0  0
 20 17  1  0  0  0  0
 21 22  1  0  0  0  0
 22 29  1  0  0  0  0
 22 23  2  0  0  0  0
 24 25  1  0  0  0  0
 25 28  2  0  0  0  0
 26 28  1  0  0  0  0
 27 24  2  0  0  0  0
 27 29  1  0  0  0  0
 29 26  2  0  0  0  0
M  END
>  <MODEL>
5

>  <REMARK>
 VINA RESULT:      -7.2      1.985      3.855
  Name = 
  8 active torsions:
  status: ('A' for Active; 'I' for Inactive)
    1  A    between atoms: N_2  and  O_19
    2  A    between atoms: C_5  and  C_9
    3  A    between atoms: C_9  and  C_25
    4  A    between atoms: C_14  and  O_19
    5  A    between atoms: C_16  and  C_22
    6  A    between atoms: C_16  and  C_25
    7  A    between atoms: C_20  and  C_24
    8  A    between atoms: C_21  and  C_24
                            x       y       z     vdW  Elec       q    Type
                         _______ _______ _______ _____ _____    ______ ____

>  <TORSDO>
F 8

$$$$
=
 OpenBabel11042416503D

 29 32  0  0  1  0  0  0  0  0999 V2000
  189.1140  175.8340  144.0680 N   0  0  0  0  0  0  0  0  0  0  0  0
  190.0050  175.6070  144.9870 C   0  0  0  0  0  0  0  0  0  0  0  0
  191.4640  175.4260  144.6670 C   0  0  2  0  0  3  0  0  0  0  0  0
  193.7500  175.7750  146.4120 C   0  0  0  0  0  3  0  0  0  0  0  0
  193.3400  176.8000  145.7270 N   0  0  0  0  0  0  0  0  0  0  0  0
  192.0550  174.2930  145.4670 C   0  0  0  0  0  3  0  0  0  0  0  0
  193.1040  174.4600  146.2750 C   0  0  0  0  0  3  0  0  0  0  0  0
  192.2400  176.7130  144.8130 C   0  0  0  0  0  0  0  0  0  0  0  0
  191.9260  177.7160  144.1220 O   0  0  0  0  0  0  0  0  0  0  0  0
  189.4420  175.8930  142.7320 O   0  0  0  0  0  0  0  0  0  0  0  0
  187.1900  175.3590  142.1430 C   0  0  0  0  0  2  0  0  0  0  0  0
  188.4390  176.1220  141.7620 C   0  0  1  0  0  3  0  0  0  0  0  0
  187.2810  176.8450  142.4170 C   0  0  1  0  0  3  0  0  0  0  0  0
  186.5090  177.6000  141.3520 C   0  0  0  0  0  2  0  0  0  0  0  0
  183.8060  179.0530  144.2190 O   0  0  0  0  0  0  0  0  0  0  0  0
  184.9690  179.8310  144.0690 C   0  0  0  0  0  2  0  0  0  0  0  0
  183.2660  178.8800  142.9310 C   0  0  0  0  0  2  0  0  0  0  0  0
  185.5500  178.5890  141.9910 C   0  0  0  0  0  3  0  0  0  0  0  0
  186.0570  179.0140  143.3710 C   0  0  0  0  0  2  0  0  0  0  0  0
  184.1660  177.9580  142.1070 C   0  0  0  0  0  2  0  0  0  0  0  0
  189.5800  175.5940  146.4160 C   0  0  0  0  0  2  0  0  0  0  0  0
  189.1030  176.9500  146.8310 C   0  0  0  0  0  0  0  0  0  0  0  0
  189.9580  177.8350  147.1030 O   0  0  0  0  0  0  0  0  0  0  0  0
  185.3640  176.7370  146.3110 C   0  0  0  0  0  3  0  0  0  0  0  0
  184.9200  177.8620  147.0120 C   0  0  0  0  0  3  0  0  0  0  0  0
  187.2080  178.3960  147.5960 C   0  0  0  0  0  3  0  0  0  0  0  0
  186.7290  176.4420  146.2520 C   0  0  0  0  0  3  0  0  0  0  0  0
  185.8430  178.6910  147.6550 C   0  0  0  0  0  3  0  0  0  0  0  0
  187.6620  177.2680  146.8950 C   0  0  0  0  0  0  0  0  0  0  0  0
  1  2  2  0  0  0  0
  2 21  1  0  0  0  0
  3  8  1  0  0  0  0
  3  2  1  1  0  0  0
  3  6  1  0  0  0  0
  5  4  2  0  0  0  0
  6  7  2  0  0  0  0
  7  4  1  0  0  0  0
  8  5  1  0  0  0  0
  9  8  2  0  0  0  0
 10  1  1  0  0  0  0
 11 13  1  0  0  0  0
 12 11  1  0  0  0  0
 12 13  1  0  0  0  0
 12 10  1  1  0  0  0
 13 14  1  6  0  0  0
 14 18  1  0  0  0  0
 16 15  1  0  0  0  0
 17 15  1  0  0  0  0
 18 20  1  0  0  0  0
 18 19  1  0  0  0  0
 19 16  1  0  0  0  0
 20 17  1  0  0  0  0
 21 22  1  0  0  0  0
 22 29  1  0  0  0  0
 22 23  2  0  0  0  0
 24 25  1  0  0  0  0
 25 28  2  0  0  0  0
 26 28  1  0  0  0  0
 27 24  2  0  0  0  0
 27 29  1  0  0  0  0
 29 26  2  0  0  0  0
M  END
>  <MODEL>
6

>  <REMARK>
 VINA RESULT:      -7.0      1.777      4.152
  Name = 
  8 active torsions:
  status: ('A' for Active; 'I' for Inactive)
    1  A    between atoms: N_2  and  O_19
    2  A    between atoms: C_5  and  C_9
    3  A    between atoms: C_9  and  C_25
    4  A    between atoms: C_14  and  O_19
    5  A    between atoms: C_16  and  C_22
    6  A    between atoms: C_16  and  C_25
    7  A    between atoms: C_20  and  C_24
    8  A    between atoms: C_21  and  C_24
                            x       y       z     vdW  Elec       q    Type
                         _______ _______ _______ _____ _____    ______ ____

>  <TORSDO>
F 8

$$$$
=
 OpenBabel11042416503D

 29 32  0  0  1  0  0  0  0  0999 V2000
  191.2600  176.5040  145.2330 N   0  0  0  0  0  0  0  0  0  0  0  0
  190.2320  177.0120  144.6230 C   0  0  0  0  0  0  0  0  0  0  0  0
  189.8880  176.6670  143.1990 C   0  0  2  0  0  3  0  0  0  0  0  0
  187.3090  176.7820  141.8870 C   0  0  0  0  0  3  0  0  0  0  0  0
  187.6500  175.6730  142.4690 N   0  0  0  0  0  0  0  0  0  0  0  0
  189.4130  177.8860  142.4480 C   0  0  0  0  0  3  0  0  0  0  0  0
  188.2210  177.9360  141.8500 C   0  0  0  0  0  3  0  0  0  0  0  0
  188.9200  175.5130  143.1130 C   0  0  0  0  0  0  0  0  0  0  0  0
  189.2320  174.3960  143.6030 O   0  0  0  0  0  0  0  0  0  0  0  0
  192.1270  175.6370  144.6050 O   0  0  0  0  0  0  0  0  0  0  0  0
  193.8100  176.3200  146.1570 C   0  0  0  0  0  2  0  0  0  0  0  0
  193.5240  175.7820  144.7730 C   0  0  1  0  0  3  0  0  0  0  0  0
  193.9850  174.8440  145.8680 C   0  0  1  0  0  3  0  0  0  0  0  0
  195.4580  174.5430  145.6680 C   0  0  0  0  0  2  0  0  0  0  0  0
  195.6350  170.3890  146.2590 O   0  0  0  0  0  0  0  0  0  0  0  0
  194.6640  170.8030  145.3280 C   0  0  0  0  0  2  0  0  0  0  0  0
  196.8500  170.9830  145.8680 C   0  0  0  0  0  2  0  0  0  0  0  0
  195.6560  173.0860  145.2870 C   0  0  0  0  0  3  0  0  0  0  0  0
  194.3680  172.2920  145.5110 C   0  0  0  0  0  2  0  0  0  0  0  0
  196.7940  172.4910  146.1110 C   0  0  0  0  0  2  0  0  0  0  0  0
  189.3170  177.9150  145.3780 C   0  0  0  0  0  2  0  0  0  0  0  0
  188.1570  177.1450  145.9240 C   0  0  0  0  0  0  0  0  0  0  0  0
  188.3780  176.0470  146.5020 O   0  0  0  0  0  0  0  0  0  0  0  0
  185.1780  179.2050  144.8380 C   0  0  0  0  0  3  0  0  0  0  0  0
  184.1580  178.6520  145.6170 C   0  0  0  0  0  3  0  0  0  0  0  0
  185.7470  177.1140  146.6010 C   0  0  0  0  0  3  0  0  0  0  0  0
  186.4820  178.7120  144.9400 C   0  0  0  0  0  3  0  0  0  0  0  0
  184.4430  177.6070  146.4980 C   0  0  0  0  0  3  0  0  0  0  0  0
  186.7770  177.6620  145.8220 C   0  0  0  0  0  0  0  0  0  0  0  0
  2  1  2  0  0  0  0
  2 21  1  0  0  0  0
  3  2  1  1  0  0  0
  4  5  2  0  0  0  0
  5  8  1  0  0  0  0
  6  3  1  0  0  0  0
  7  4  1  0  0  0  0
  7  6  2  0  0  0  0
  8  3  1  0  0  0  0
  8  9  2  0  0  0  0
 10  1  1  0  0  0  0
 12 10  1  1  0  0  0
 12 13  1  0  0  0  0
 12 11  1  0  0  0  0
 13 14  1  6  0  0  0
 13 11  1  0  0  0  0
 16 19  1  0  0  0  0
 16 15  1  0  0  0  0
 17 20  1  0  0  0  0
 17 15  1  0  0  0  0
 18 19  1  0  0  0  0
 18 14  1  0  0  0  0
 18 20  1  0  0  0  0
 21 22  1  0  0  0  0
 22 23  2  0  0  0  0
 24 27  2  0  0  0  0
 24 25  1  0  0  0  0
 25 28  2  0  0  0  0
 27 29  1  0  0  0  0
 28 26  1  0  0  0  0
 29 22  1  0  0  0  0
 29 26  2  0  0  0  0
M  END
>  <MODEL>
7

>  <REMARK>
 VINA RESULT:      -7.0      2.066      7.627
  Name = 
  8 active torsions:
  status: ('A' for Active; 'I' for Inactive)
    1  A    between atoms: N_2  and  O_19
    2  A    between atoms: C_5  and  C_9
    3  A    between atoms: C_9  and  C_25
    4  A    between atoms: C_14  and  O_19
    5  A    between atoms: C_16  and  C_22
    6  A    between atoms: C_16  and  C_25
    7  A    between atoms: C_20  and  C_24
    8  A    between atoms: C_21  and  C_24
                            x       y       z     vdW  Elec       q    Type
                         _______ _______ _______ _____ _____    ______ ____

>  <TORSDO>
F 8

$$$$
=
 OpenBabel11042416503D

 29 32  0  0  1  0  0  0  0  0999 V2000
  188.0380  177.8790  144.1580 N   0  0  0  0  0  0  0  0  0  0  0  0
  186.9250  177.2100  144.1980 C   0  0  0  0  0  0  0  0  0  0  0  0
  186.2510  176.6920  142.9560 C   0  0  2  0  0  3  0  0  0  0  0  0
  187.0670  177.0080  140.1950 C   0  0  0  0  0  3  0  0  0  0  0  0
  186.2760  177.9020  140.7050 N   0  0  0  0  0  0  0  0  0  0  0  0
  187.1240  175.6870  142.2480 C   0  0  0  0  0  3  0  0  0  0  0  0
  187.5030  175.8400  140.9770 C   0  0  0  0  0  3  0  0  0  0  0  0
  185.7930  177.8100  142.0520 C   0  0  0  0  0  0  0  0  0  0  0  0
  184.9730  178.6650  142.4770 O   0  0  0  0  0  0  0  0  0  0  0  0
  188.6620  178.1880  142.9700 O   0  0  0  0  0  0  0  0  0  0  0  0
  190.8140  178.1220  144.0060 C   0  0  0  0  0  2  0  0  0  0  0  0
  190.0120  177.8220  142.7590 C   0  0  1  0  0  3  0  0  0  0  0  0
  190.3710  176.7030  143.7140 C   0  0  1  0  0  3  0  0  0  0  0  0
  191.5370  175.9220  143.1370 C   0  0  0  0  0  2  0  0  0  0  0  0
  189.0620  172.7110  142.0440 O   0  0  0  0  0  0  0  0  0  0  0  0
  190.2530  172.8070  141.3000 C   0  0  0  0  0  2  0  0  0  0  0  0
  189.4290  172.7380  143.4020 C   0  0  0  0  0  2  0  0  0  0  0  0
  191.1490  174.4700  142.9210 C   0  0  0  0  0  3  0  0  0  0  0  0
  190.8460  174.2080  141.4450 C   0  0  0  0  0  2  0  0  0  0  0  0
  189.9320  174.1330  143.7770 C   0  0  0  0  0  2  0  0  0  0  0  0
  186.3270  176.8800  145.5240 C   0  0  0  0  0  2  0  0  0  0  0  0
  187.2100  177.3680  146.6290 C   0  0  0  0  0  0  0  0  0  0  0  0
  186.8360  178.3620  147.3080 O   0  0  0  0  0  0  0  0  0  0  0  0
  190.8270  176.8020  147.5760 C   0  0  0  0  0  3  0  0  0  0  0  0
  190.9030  175.4070  147.5660 C   0  0  0  0  0  3  0  0  0  0  0  0
  188.5660  175.2870  146.9430 C   0  0  0  0  0  3  0  0  0  0  0  0
  189.6210  177.4400  147.2690 C   0  0  0  0  0  3  0  0  0  0  0  0
  189.7720  174.6500  147.2500 C   0  0  0  0  0  3  0  0  0  0  0  0
  188.4810  176.6880  146.9500 C   0  0  0  0  0  0  0  0  0  0  0  0
  1  2  2  0  0  0  0
  2 21  1  0  0  0  0
  3  2  1  1  0  0  0
  4  5  2  0  0  0  0
  4  7  1  0  0  0  0
  5  8  1  0  0  0  0
  6  3  1  0  0  0  0
  7  6  2  0  0  0  0
  8  9  2  0  0  0  0
  8  3  1  0  0  0  0
 10  1  1  0  0  0  0
 12 10  1  1  0  0  0
 12 13  1  0  0  0  0
 12 11  1  0  0  0  0
 13 14  1  6  0  0  0
 13 11  1  0  0  0  0
 15 17  1  0  0  0  0
 16 19  1  0  0  0  0
 16 15  1  0  0  0  0
 17 20  1  0  0  0  0
 18 14  1  0  0  0  0
 18 20  1  0  0  0  0
 19 18  1  0  0  0  0
 21 22  1  0  0  0  0
 22 29  1  0  0  0  0
 22 23  2  0  0  0  0
 25 24  1  0  0  0  0
 26 29  2  0  0  0  0
 26 28  1  0  0  0  0
 27 24  2  0  0  0  0
 28 25  2  0  0  0  0
 29 27  1  0  0  0  0
M  END
>  <MODEL>
8

>  <REMARK>
 VINA RESULT:      -7.0      2.840      6.989
  Name = 
  8 active torsions:
  status: ('A' for Active; 'I' for Inactive)
    1  A    between atoms: N_2  and  O_19
    2  A    between atoms: C_5  and  C_9
    3  A    between atoms: C_9  and  C_25
    4  A    between atoms: C_14  and  O_19
    5  A    between atoms: C_16  and  C_22
    6  A    between atoms: C_16  and  C_25
    7  A    between atoms: C_20  and  C_24
    8  A    between atoms: C_21  and  C_24
                            x       y       z     vdW  Elec       q    Type
                         _______ _______ _______ _____ _____    ______ ____

>  <TORSDO>
F 8

$$$$
=
 OpenBabel11042416503D

 29 32  0  0  1  0  0  0  0  0999 V2000
  189.5250  174.6390  144.9510 N   0  0  0  0  0  0  0  0  0  0  0  0
  189.2300  175.7950  144.4380 C   0  0  0  0  0  0  0  0  0  0  0  0
  189.0760  176.0030  142.9550 C   0  0  2  0  0  3  0  0  0  0  0  0
  187.4590  177.9630  141.5660 C   0  0  0  0  0  3  0  0  0  0  0  0
  186.9240  176.8130  141.8400 N   0  0  0  0  0  0  0  0  0  0  0  0
  189.6120  177.3500  142.5410 C   0  0  0  0  0  3  0  0  0  0  0  0
  188.8610  178.2530  141.9070 C   0  0  0  0  0  3  0  0  0  0  0  0
  187.6590  175.7700  142.4940 C   0  0  0  0  0  0  0  0  0  0  0  0
  187.1170  174.6480  142.6750 O   0  0  0  0  0  0  0  0  0  0  0  0
  189.7500  173.5290  144.1690 O   0  0  0  0  0  0  0  0  0  0  0  0
  191.6130  172.6680  142.9450 C   0  0  0  0  0  2  0  0  0  0  0  0
  190.9540  172.7970  144.3000 C   0  0  1  0  0  3  0  0  0  0  0  0
  192.1160  173.6970  143.9360 C   0  0  1  0  0  3  0  0  0  0  0  0
  193.3710  173.1750  144.6090 C   0  0  0  0  0  2  0  0  0  0  0  0
  194.4090  177.1770  145.3390 O   0  0  0  0  0  0  0  0  0  0  0  0
  194.1460  176.4240  146.4990 C   0  0  0  0  0  2  0  0  0  0  0  0
  195.3500  176.4500  144.5880 C   0  0  0  0  0  2  0  0  0  0  0  0
  194.1940  174.3240  145.1620 C   0  0  0  0  0  3  0  0  0  0  0  0
  193.3630  175.1630  146.1340 C   0  0  0  0  0  2  0  0  0  0  0  0
  194.6990  175.1920  144.0130 C   0  0  0  0  0  2  0  0  0  0  0  0
  188.9630  176.9440  145.3500 C   0  0  0  0  0  2  0  0  0  0  0  0
  187.7210  176.6980  146.1490 C   0  0  0  0  0  0  0  0  0  0  0  0
  187.7470  175.8200  147.0520 O   0  0  0  0  0  0  0  0  0  0  0  0
  185.3200  179.2510  144.7280 C   0  0  0  0  0  3  0  0  0  0  0  0
  184.1610  178.9800  145.4600 C   0  0  0  0  0  3  0  0  0  0  0  0
  185.3240  177.2190  146.6460 C   0  0  0  0  0  3  0  0  0  0  0  0
  186.4810  178.5060  144.9550 C   0  0  0  0  0  3  0  0  0  0  0  0
  184.1630  177.9640  146.4190 C   0  0  0  0  0  3  0  0  0  0  0  0
  186.4930  177.4840  145.9150 C   0  0  0  0  0  0  0  0  0  0  0  0
  2  1  2  0  0  0  0
  2 21  1  0  0  0  0
  3  2  1  1  0  0  0
  4  5  2  0  0  0  0
  4  7  1  0  0  0  0
  5  8  1  0  0  0  0
  6  3  1  0  0  0  0
  7  6  2  0  0  0  0
  8  9  2  0  0  0  0
  8  3  1  0  0  0  0
 10  1  1  0  0  0  0
 11 13  1  0  0  0  0
 11 12  1  0  0  0  0
 12 10  1  6  0  0  0
 13 12  1  0  0  0  0
 13 14  1  1  0  0  0
 14 18  1  0  0  0  0
 15 16  1  0  0  0  0
 17 15  1  0  0  0  0
 18 19  1  0  0  0  0
 19 16  1  0  0  0  0
 20 17  1  0  0  0  0
 20 18  1  0  0  0  0
 21 22  1  0  0  0  0
 22 23  2  0  0  0  0
 24 27  2  0  0  0  0
 24 25  1  0  0  0  0
 25 28  2  0  0  0  0
 27 29  1  0  0  0  0
 28 26  1  0  0  0  0
 29 22  1  0  0  0  0
 29 26  2  0  0  0  0
M  END
>  <MODEL>
9

>  <REMARK>
 VINA RESULT:      -6.8      2.040      6.835
  Name = 
  8 active torsions:
  status: ('A' for Active; 'I' for Inactive)
    1  A    between atoms: N_2  and  O_19
    2  A    between atoms: C_5  and  C_9
    3  A    between atoms: C_9  and  C_25
    4  A    between atoms: C_14  and  O_19
    5  A    between atoms: C_16  and  C_22
    6  A    between atoms: C_16  and  C_25
    7  A    between atoms: C_20  and  C_24
    8  A    between atoms: C_21  and  C_24
                            x       y       z     vdW  Elec       q    Type
                         _______ _______ _______ _____ _____    ______ ____

>  <TORSDO>
F 8

$$$$
