=
 OpenBabel11042415353D

 39 42  0  0  1  0  0  0  0  0999 V2000
  189.2820  173.7540  140.8210 N   0  0  0  0  0  0  0  0  0  0  0  0
  189.5050  173.0030  142.0660 C   0  0  2  0  0  3  0  0  0  0  0  0
  188.6350  171.9290  142.1140 F   0  0  0  0  0  0  0  0  0  0  0  0
  188.0010  175.4460  141.9630 C   0  0  0  0  0  0  0  0  0  0  0  0
  189.3130  173.8660  143.2960 C   0  0  0  0  0  0  0  0  0  0  0  0
  188.5660  174.9700  143.2340 C   0  0  0  0  0  3  0  0  0  0  0  0
  188.3760  174.8700  140.8170 C   0  0  0  0  0  3  0  0  0  0  0  0
  189.8570  173.2890  139.5840 C   0  0  0  0  0  0  0  0  0  0  0  0
  190.9080  172.3580  139.5830 C   0  0  0  0  0  3  0  0  0  0  0  0
  191.0050  172.3890  137.2100 C   0  0  0  0  0  3  0  0  0  0  0  0
  189.3920  173.7650  138.3480 C   0  0  0  0  0  3  0  0  0  0  0  0
  191.4510  171.9330  138.4110 N   0  0  0  0  0  0  0  0  0  0  0  0
  189.9640  173.3160  137.1580 C   0  0  0  0  0  3  0  0  0  0  0  0
  187.0800  176.6280  141.9720 C   0  0  2  0  0  3  0  0  0  0  0  0
  187.8570  177.9110  142.2060 C   0  0  0  0  0  1  0  0  0  0  0  0
  186.0530  176.4790  142.9940 N   0  0  0  0  0  2  0  0  0  0  0  0
  185.4700  177.7930  143.2230 C   0  0  2  0  0  3  0  0  0  0  0  0
  186.1460  177.9790  148.0350 N   0  0  0  0  0  1  0  0  0  0  0  0
  185.5600  178.0740  146.7430 C   0  0  0  0  0  0  0  0  0  0  0  0
  184.3010  178.4940  146.5330 N   0  0  0  0  0  0  0  0  0  0  0  0
  184.1110  178.4500  145.2260 N   0  0  0  0  0  0  0  0  0  0  0  0
  185.2640  178.0060  144.6860 C   0  0  0  0  0  0  0  0  0  0  0  0
  186.2110  177.7520  145.6100 N   0  0  0  0  0  2  0  0  0  0  0  0
  184.1980  177.8980  142.5240 N   0  0  0  0  0  2  0  0  0  0  0  0
  183.7360  178.1380  140.4120 C   0  0  0  0  0  1  0  0  0  0  0  0
  184.3850  178.7460  141.4850 O   0  0  0  0  0  0  0  0  0  0  0  0
  189.8910  173.4930  144.6330 C   0  0  0  0  0  2  0  0  0  0  0  0
  190.1440  174.6820  145.5560 C   0  0  0  0  0  2  0  0  0  0  0  0
  191.7760  176.5660  145.0480 C   0  0  0  0  0  0  0  0  0  0  0  0
  191.4920  175.1960  145.3630 N   0  0  0  0  0  2  0  0  0  0  0  0
  190.6700  177.5360  144.8070 C   0  0  0  0  0  1  0  0  0  0  0  0
  193.0010  176.9830  144.9540 N   0  0  0  0  0  0  0  0  0  0  0  0
  194.4730  176.0780  146.5340 O   0  0  0  0  0  1  0  0  0  0  0  0
  194.1640  176.1240  145.1740 C   0  0  2  0  0  3  0  0  0  0  0  0
  196.3810  175.5580  144.3360 O   0  0  0  0  0  0  0  0  0  0  0  0
  195.6130  175.7330  143.1680 C   0  0  1  0  0  3  0  0  0  0  0  0
  195.4000  176.5670  144.3760 C   0  0  1  0  0  3  0  0  0  0  0  0
  196.1720  176.3560  140.9180 N   0  0  0  0  0  2  0  0  0  0  0  0
  196.4110  176.4950  142.1690 C   0  0  0  0  0  3  0  0  0  0  0  0
  1  2  1  0  0  0  0
  2  3  1  1  0  0  0
  2  5  1  0  0  0  0
  4 14  1  0  0  0  0
  4  6  1  0  0  0  0
  5 27  1  0  0  0  0
  6  5  2  0  0  0  0
  7  1  1  0  0  0  0
  7  4  2  0  0  0  0
  8  1  1  0  0  0  0
  9  8  1  0  0  0  0
 10 12  1  0  0  0  0
 11  8  2  0  0  0  0
 12  9  2  0  0  0  0
 13 10  2  0  0  0  0
 13 11  1  0  0  0  0
 14 15  1  1  0  0  0
 14 16  1  0  0  0  0
 16 17  1  0  0  0  0
 17 24  1  6  0  0  0
 17 22  1  0  0  0  0
 19 18  1  0  0  0  0
 20 19  2  0  0  0  0
 21 20  1  0  0  0  0
 22 21  2  0  0  0  0
 22 23  1  0  0  0  0
 23 19  1  0  0  0  0
 25 26  1  0  0  0  0
 26 24  1  0  0  0  0
 27 28  1  0  0  0  0
 29 30  1  0  0  0  0
 30 28  1  0  0  0  0
 31 29  1  0  0  0  0
 32 29  2  0  0  0  0
 32 34  1  0  0  0  0
 34 33  1  1  0  0  0
 35 37  1  0  0  0  0
 36 39  1  6  0  0  0
 36 35  1  0  0  0  0
 36 37  1  0  0  0  0
 37 34  1  1  0  0  0
 38 39  2  0  0  0  0
M  END
>  <MODEL>
1

>  <REMARK>
 VINA RESULT:      -6.9      0.000      0.000
  Name = 
  13 active torsions:
  status: ('A' for Active; 'I' for Inactive)
    1  A    between atoms: C_1  and  C_16
    2  A    between atoms: C_1  and  N_21
    3  A    between atoms: N_2  and  C_5
    4  A    between atoms: C_9  and  C_20
    5  A    between atoms: N_10  and  C_30
    6  A    between atoms: N_10  and  O_35
    7  A    between atoms: N_17  and  C_39
    8  A    between atoms: C_18  and  C_24
    9  A    between atoms: C_18  and  N_29
   10  A    between atoms: N_21  and  C_30
   11  A    between atoms: C_23  and  C_32
   12  A    between atoms: C_28  and  C_30
   13  A    between atoms: C_32  and  C_39
                            x       y       z     vdW  Elec       q    Type
                         _______ _______ _______ _____ _____    ______ ____

>  <TORSDO>
F 13

$$$$
=
 OpenBabel11042415353D

 39 42  0  0  1  0  0  0  0  0999 V2000
  187.6710  176.7050  145.0440 N   0  0  0  0  0  0  0  0  0  0  0  0
  188.7140  176.7080  146.0810 C   0  0  2  0  0  3  0  0  0  0  0  0
  189.4880  177.8470  145.9460 F   0  0  0  0  0  0  0  0  0  0  0  0
  188.8990  175.1400  143.6840 C   0  0  0  0  0  0  0  0  0  0  0  0
  189.6000  175.4820  146.0050 C   0  0  0  0  0  0  0  0  0  0  0  0
  189.7080  174.8000  144.8640 C   0  0  0  0  0  3  0  0  0  0  0  0
  187.9110  176.0320  143.7970 C   0  0  0  0  0  3  0  0  0  0  0  0
  186.4730  177.4870  145.2220 C   0  0  0  0  0  0  0  0  0  0  0  0
  185.4640  177.0690  146.1040 C   0  0  0  0  0  3  0  0  0  0  0  0
  184.1360  178.9630  145.5690 C   0  0  0  0  0  3  0  0  0  0  0  0
  186.2770  178.6780  144.5060 C   0  0  0  0  0  3  0  0  0  0  0  0
  184.3330  177.8080  146.2580 N   0  0  0  0  0  0  0  0  0  0  0  0
  185.1080  179.4200  144.6780 C   0  0  0  0  0  3  0  0  0  0  0  0
  189.1420  174.4100  142.3980 C   0  0  2  0  0  3  0  0  0  0  0  0
  187.8740  173.7270  141.9200 C   0  0  0  0  0  1  0  0  0  0  0  0
  190.2050  173.4260  142.5530 N   0  0  0  0  0  2  0  0  0  0  0  0
  191.1120  173.5810  141.4240 C   0  0  2  0  0  3  0  0  0  0  0  0
  189.9350  169.9380  138.4260 N   0  0  0  0  0  1  0  0  0  0  0  0
  190.6340  170.7610  139.3520 C   0  0  0  0  0  0  0  0  0  0  0  0
  191.8370  170.4450  139.8580 N   0  0  0  0  0  0  0  0  0  0  0  0
  192.1650  171.4330  140.6720 N   0  0  0  0  0  0  0  0  0  0  0  0
  191.1490  172.3180  140.6300 C   0  0  0  0  0  0  0  0  0  0  0  0
  190.1540  171.9330  139.8080 N   0  0  0  0  0  2  0  0  0  0  0  0
  192.4470  173.9040  141.9030 N   0  0  0  0  0  2  0  0  0  0  0  0
  193.9480  175.3960  141.4010 C   0  0  0  0  0  1  0  0  0  0  0  0
  192.6090  175.2400  141.7550 O   0  0  0  0  0  0  0  0  0  0  0  0
  190.4310  175.0220  147.1700 C   0  0  0  0  0  2  0  0  0  0  0  0
  191.6940  175.8460  147.4000 C   0  0  0  0  0  2  0  0  0  0  0  0
  193.3940  175.7870  145.5080 C   0  0  0  0  0  0  0  0  0  0  0  0
  192.8260  175.2460  146.7080 N   0  0  0  0  0  2  0  0  0  0  0  0
  192.7780  176.9710  144.8420 C   0  0  0  0  0  1  0  0  0  0  0  0
  194.4440  175.2490  144.9720 N   0  0  0  0  0  0  0  0  0  0  0  0
  196.4800  174.3910  145.7480 O   0  0  0  0  0  1  0  0  0  0  0  0
  195.1340  174.0890  145.5390 C   0  0  2  0  0  3  0  0  0  0  0  0
  195.3050  171.6630  145.3960 O   0  0  0  0  0  0  0  0  0  0  0  0
  193.9430  171.9220  145.1420 C   0  0  1  0  0  3  0  0  0  0  0  0
  195.0130  172.8310  144.6660 C   0  0  1  0  0  3  0  0  0  0  0  0
  192.3500  170.4660  144.0890 N   0  0  0  0  0  2  0  0  0  0  0  0
  193.4840  171.0580  144.0190 C   0  0  0  0  0  3  0  0  0  0  0  0
  1  8  1  0  0  0  0
  1  2  1  0  0  0  0
  2  3  1  6  0  0  0
  4  7  2  0  0  0  0
  4  6  1  0  0  0  0
  5  2  1  0  0  0  0
  5 27  1  0  0  0  0
  6  5  2  0  0  0  0
  7  1  1  0  0  0  0
  8  9  1  0  0  0  0
  9 12  2  0  0  0  0
 10 12  1  0  0  0  0
 11 13  1  0  0  0  0
 11  8  2  0  0  0  0
 13 10  2  0  0  0  0
 14 15  1  1  0  0  0
 14 16  1  0  0  0  0
 14  4  1  0  0  0  0
 17 24  1  1  0  0  0
 17 16  1  0  0  0  0
 18 19  1  0  0  0  0
 19 23  1  0  0  0  0
 19 20  2  0  0  0  0
 20 21  1  0  0  0  0
 22 21  2  0  0  0  0
 22 17  1  0  0  0  0
 23 22  1  0  0  0  0
 25 26  1  0  0  0  0
 26 24  1  0  0  0  0
 27 28  1  0  0  0  0
 29 30  1  0  0  0  0
 30 28  1  0  0  0  0
 31 29  1  0  0  0  0
 32 29  2  0  0  0  0
 32 34  1  0  0  0  0
 34 33  1  6  0  0  0
 36 39  1  6  0  0  0
 36 35  1  0  0  0  0
 37 36  1  0  0  0  0
 37 35  1  0  0  0  0
 37 34  1  1  0  0  0
 39 38  2  0  0  0  0
M  END
>  <MODEL>
2

>  <REMARK>
 VINA RESULT:      -6.6      2.873      7.417
  Name = 
  13 active torsions:
  status: ('A' for Active; 'I' for Inactive)
    1  A    between atoms: C_1  and  C_16
    2  A    between atoms: C_1  and  N_21
    3  A    between atoms: N_2  and  C_5
    4  A    between atoms: C_9  and  C_20
    5  A    between atoms: N_10  and  C_30
    6  A    between atoms: N_10  and  O_35
    7  A    between atoms: N_17  and  C_39
    8  A    between atoms: C_18  and  C_24
    9  A    between atoms: C_18  and  N_29
   10  A    between atoms: N_21  and  C_30
   11  A    between atoms: C_23  and  C_32
   12  A    between atoms: C_28  and  C_30
   13  A    between atoms: C_32  and  C_39
                            x       y       z     vdW  Elec       q    Type
                         _______ _______ _______ _____ _____    ______ ____

>  <TORSDO>
F 13

$$$$
=
 OpenBabel11042415353D

 39 42  0  0  1  0  0  0  0  0999 V2000
  189.2620  175.7190  144.1630 N   0  0  0  0  0  0  0  0  0  0  0  0
  189.6560  174.5390  143.3790 C   0  0  2  0  0  3  0  0  0  0  0  0
  190.8270  174.8160  142.6960 F   0  0  0  0  0  0  0  0  0  0  0  0
  187.6060  176.3610  142.5340 C   0  0  0  0  0  0  0  0  0  0  0  0
  188.5830  174.1200  142.3960 C   0  0  0  0  0  0  0  0  0  0  0  0
  187.6720  175.0010  141.9790 C   0  0  0  0  0  3  0  0  0  0  0  0
  188.3530  176.6780  143.5950 C   0  0  0  0  0  3  0  0  0  0  0  0
  189.8880  175.9860  145.4330 C   0  0  0  0  0  0  0  0  0  0  0  0
  190.8020  175.0780  145.9900 C   0  0  0  0  0  3  0  0  0  0  0  0
  191.0990  176.4630  147.8960 C   0  0  0  0  0  3  0  0  0  0  0  0
  189.5920  177.1540  146.1530 C   0  0  0  0  0  3  0  0  0  0  0  0
  191.3810  175.3330  147.1940 N   0  0  0  0  0  0  0  0  0  0  0  0
  190.1970  177.3960  147.3860 C   0  0  0  0  0  3  0  0  0  0  0  0
  186.6330  177.3400  141.9490 C   0  0  2  0  0  3  0  0  0  0  0  0
  186.9860  177.6500  140.5060 C   0  0  0  0  0  1  0  0  0  0  0  0
  186.6070  178.5720  142.7260 N   0  0  0  0  0  2  0  0  0  0  0  0
  185.2310  178.7920  143.1490 C   0  0  2  0  0  3  0  0  0  0  0  0
  186.3970  178.6040  147.8660 N   0  0  0  0  0  1  0  0  0  0  0  0
  185.6570  178.6710  146.6530 C   0  0  0  0  0  0  0  0  0  0  0  0
  184.3150  178.7180  146.6090 N   0  0  0  0  0  0  0  0  0  0  0  0
  183.9910  178.7730  145.3290 N   0  0  0  0  0  0  0  0  0  0  0  0
  185.1500  178.7600  144.6390 C   0  0  0  0  0  0  0  0  0  0  0  0
  186.2330  178.6940  145.4370 N   0  0  0  0  0  2  0  0  0  0  0  0
  184.3690  177.7650  142.5840 N   0  0  0  0  0  2  0  0  0  0  0  0
  183.2260  178.1800  140.7800 C   0  0  0  0  0  1  0  0  0  0  0  0
  183.2410  178.3820  142.1600 O   0  0  0  0  0  0  0  0  0  0  0  0
  188.5330  172.7380  141.8070 C   0  0  0  0  0  2  0  0  0  0  0  0
  188.8110  172.6890  140.3070 C   0  0  0  0  0  2  0  0  0  0  0  0
  191.2040  172.1870  139.6040 C   0  0  0  0  0  0  0  0  0  0  0  0
  190.1810  173.0970  140.0310 N   0  0  0  0  0  2  0  0  0  0  0  0
  190.9300  170.7250  139.5090 C   0  0  0  0  0  1  0  0  0  0  0  0
  192.3910  172.6190  139.3070 N   0  0  0  0  0  0  0  0  0  0  0  0
  192.9390  174.5270  138.0660 O   0  0  0  0  0  1  0  0  0  0  0  0
  192.7720  174.0310  139.3590 C   0  0  2  0  0  3  0  0  0  0  0  0
  194.4790  175.6160  140.0740 O   0  0  0  0  0  0  0  0  0  0  0  0
  193.8240  175.2610  141.2700 C   0  0  1  0  0  3  0  0  0  0  0  0
  194.0460  174.2800  140.1800 C   0  0  1  0  0  3  0  0  0  0  0  0
  195.3750  176.0700  142.9150 N   0  0  0  0  0  2  0  0  0  0  0  0
  194.8400  175.0580  142.3400 C   0  0  0  0  0  3  0  0  0  0  0  0
  1  8  1  0  0  0  0
  2  3  1  6  0  0  0
  2  1  1  0  0  0  0
  4  7  2  0  0  0  0
  5  2  1  0  0  0  0
  6  5  2  0  0  0  0
  6  4  1  0  0  0  0
  7  1  1  0  0  0  0
  8  9  2  0  0  0  0
  8 11  1  0  0  0  0
  9 12  1  0  0  0  0
 11 13  2  0  0  0  0
 12 10  2  0  0  0  0
 13 10  1  0  0  0  0
 14 15  1  6  0  0  0
 14  4  1  0  0  0  0
 14 16  1  0  0  0  0
 16 17  1  0  0  0  0
 17 24  1  6  0  0  0
 17 22  1  0  0  0  0
 19 18  1  0  0  0  0
 20 19  2  0  0  0  0
 21 20  1  0  0  0  0
 22 21  2  0  0  0  0
 22 23  1  0  0  0  0
 23 19  1  0  0  0  0
 25 26  1  0  0  0  0
 26 24  1  0  0  0  0
 27  5  1  0  0  0  0
 28 27  1  0  0  0  0
 29 30  1  0  0  0  0
 30 28  1  0  0  0  0
 31 29  1  0  0  0  0
 32 34  1  0  0  0  0
 32 29  2  0  0  0  0
 34 33  1  6  0  0  0
 35 37  1  0  0  0  0
 35 36  1  0  0  0  0
 36 39  1  1  0  0  0
 37 34  1  6  0  0  0
 37 36  1  0  0  0  0
 39 38  2  0  0  0  0
M  END
>  <MODEL>
3

>  <REMARK>
 VINA RESULT:      -6.5      2.164      5.063
  Name = 
  13 active torsions:
  status: ('A' for Active; 'I' for Inactive)
    1  A    between atoms: C_1  and  C_16
    2  A    between atoms: C_1  and  N_21
    3  A    between atoms: N_2  and  C_5
    4  A    between atoms: C_9  and  C_20
    5  A    between atoms: N_10  and  C_30
    6  A    between atoms: N_10  and  O_35
    7  A    between atoms: N_17  and  C_39
    8  A    between atoms: C_18  and  C_24
    9  A    between atoms: C_18  and  N_29
   10  A    between atoms: N_21  and  C_30
   11  A    between atoms: C_23  and  C_32
   12  A    between atoms: C_28  and  C_30
   13  A    between atoms: C_32  and  C_39
                            x       y       z     vdW  Elec       q    Type
                         _______ _______ _______ _____ _____    ______ ____

>  <TORSDO>
F 13

$$$$
=
 OpenBabel11042415353D

 39 42  0  0  1  0  0  0  0  0999 V2000
  190.1730  173.1850  142.8220 N   0  0  0  0  0  0  0  0  0  0  0  0
  190.0390  173.0010  144.2750 C   0  0  2  0  0  3  0  0  0  0  0  0
  188.9990  172.1250  144.5300 F   0  0  0  0  0  0  0  0  0  0  0  0
  189.0290  175.3040  142.8910 C   0  0  0  0  0  0  0  0  0  0  0  0
  189.7880  174.3090  144.9960 C   0  0  0  0  0  0  0  0  0  0  0  0
  189.2690  175.3490  144.3410 C   0  0  0  0  0  3  0  0  0  0  0  0
  189.4930  174.2740  142.1770 C   0  0  0  0  0  3  0  0  0  0  0  0
  190.8660  172.2000  142.0300 C   0  0  0  0  0  0  0  0  0  0  0  0
  192.0150  172.5420  141.2990 C   0  0  0  0  0  3  0  0  0  0  0  0
  192.2150  170.3250  140.4710 C   0  0  0  0  0  3  0  0  0  0  0  0
  190.4040  170.8770  141.9560 C   0  0  0  0  0  3  0  0  0  0  0  0
  192.6570  171.6090  140.5460 N   0  0  0  0  0  0  0  0  0  0  0  0
  191.0770  169.9360  141.1770 C   0  0  0  0  0  3  0  0  0  0  0  0
  188.3420  176.4600  142.2290 C   0  0  2  0  0  3  0  0  0  0  0  0
  189.1800  177.7200  142.3480 C   0  0  0  0  0  1  0  0  0  0  0  0
  187.0270  176.6860  142.8110 N   0  0  0  0  0  2  0  0  0  0  0  0
  186.9140  178.1080  143.0990 C   0  0  2  0  0  3  0  0  0  0  0  0
  186.0180  177.4360  147.8310 N   0  0  0  0  0  1  0  0  0  0  0  0
  186.0750  178.0040  146.5280 C   0  0  0  0  0  0  0  0  0  0  0  0
  185.5470  179.2010  146.2220 N   0  0  0  0  0  0  0  0  0  0  0  0
  185.7900  179.3920  144.9370 N   0  0  0  0  0  0  0  0  0  0  0  0
  186.4610  178.3040  144.5080 C   0  0  0  0  0  0  0  0  0  0  0  0
  186.6620  177.3960  145.4810 N   0  0  0  0  0  2  0  0  0  0  0  0
  185.9650  178.7250  142.1840 N   0  0  0  0  0  2  0  0  0  0  0  0
  184.4670  178.2730  140.6730 C   0  0  0  0  0  1  0  0  0  0  0  0
  185.0900  177.7620  141.8110 O   0  0  0  0  0  0  0  0  0  0  0  0
  190.0470  174.4750  146.4670 C   0  0  0  0  0  2  0  0  0  0  0  0
  191.1350  175.4920  146.7990 C   0  0  0  0  0  2  0  0  0  0  0  0
  193.1960  175.6860  145.3200 C   0  0  0  0  0  0  0  0  0  0  0  0
  192.4300  175.0190  146.3330 N   0  0  0  0  0  2  0  0  0  0  0  0
  192.6440  176.8750  144.6100 C   0  0  0  0  0  1  0  0  0  0  0  0
  194.3750  175.2570  144.9920 N   0  0  0  0  0  0  0  0  0  0  0  0
  196.3520  174.3990  145.9090 O   0  0  0  0  0  1  0  0  0  0  0  0
  195.0180  174.1040  145.6240 C   0  0  2  0  0  3  0  0  0  0  0  0
  195.3740  171.6970  145.4860 O   0  0  0  0  0  0  0  0  0  0  0  0
  193.9810  171.8430  145.3270 C   0  0  1  0  0  3  0  0  0  0  0  0
  194.9390  172.8290  144.7700 C   0  0  1  0  0  3  0  0  0  0  0  0
  193.2390  169.7100  144.5140 N   0  0  0  0  0  2  0  0  0  0  0  0
  193.5160  170.9310  144.2460 C   0  0  0  0  0  3  0  0  0  0  0  0
  1  2  1  0  0  0  0
  2  3  1  6  0  0  0
  2  5  1  0  0  0  0
  4  6  1  0  0  0  0
  5 27  1  0  0  0  0
  6  5  2  0  0  0  0
  7  1  1  0  0  0  0
  7  4  2  0  0  0  0
  8  1  1  0  0  0  0
  9  8  2  0  0  0  0
 10 12  2  0  0  0  0
 10 13  1  0  0  0  0
 11  8  1  0  0  0  0
 12  9  1  0  0  0  0
 13 11  2  0  0  0  0
 14 15  1  1  0  0  0
 14 16  1  0  0  0  0
 14  4  1  0  0  0  0
 16 17  1  0  0  0  0
 17 24  1  6  0  0  0
 17 22  1  0  0  0  0
 19 18  1  0  0  0  0
 20 19  2  0  0  0  0
 21 20  1  0  0  0  0
 22 21  2  0  0  0  0
 22 23  1  0  0  0  0
 23 19  1  0  0  0  0
 25 26  1  0  0  0  0
 26 24  1  0  0  0  0
 27 28  1  0  0  0  0
 29 30  1  0  0  0  0
 30 28  1  0  0  0  0
 31 29  1  0  0  0  0
 32 29  2  0  0  0  0
 32 34  1  0  0  0  0
 34 33  1  6  0  0  0
 36 39  1  6  0  0  0
 36 35  1  0  0  0  0
 37 36  1  0  0  0  0
 37 35  1  0  0  0  0
 37 34  1  1  0  0  0
 39 38  2  0  0  0  0
M  END
>  <MODEL>
4

>  <REMARK>
 VINA RESULT:      -6.5      2.223      2.913
  Name = 
  13 active torsions:
  status: ('A' for Active; 'I' for Inactive)
    1  A    between atoms: C_1  and  C_16
    2  A    between atoms: C_1  and  N_21
    3  A    between atoms: N_2  and  C_5
    4  A    between atoms: C_9  and  C_20
    5  A    between atoms: N_10  and  C_30
    6  A    between atoms: N_10  and  O_35
    7  A    between atoms: N_17  and  C_39
    8  A    between atoms: C_18  and  C_24
    9  A    between atoms: C_18  and  N_29
   10  A    between atoms: N_21  and  C_30
   11  A    between atoms: C_23  and  C_32
   12  A    between atoms: C_28  and  C_30
   13  A    between atoms: C_32  and  C_39
                            x       y       z     vdW  Elec       q    Type
                         _______ _______ _______ _____ _____    ______ ____

>  <TORSDO>
F 13

$$$$
=
 OpenBabel11042415353D

 39 42  0  0  1  0  0  0  0  0999 V2000
  188.0210  176.5860  145.1910 N   0  0  0  0  0  0  0  0  0  0  0  0
  189.1730  176.8060  146.0790 C   0  0  2  0  0  3  0  0  0  0  0  0
  189.8550  177.9380  145.6690 F   0  0  0  0  0  0  0  0  0  0  0  0
  189.1810  174.8670  143.9630 C   0  0  0  0  0  0  0  0  0  0  0  0
  190.1180  175.6230  146.0960 C   0  0  0  0  0  0  0  0  0  0  0  0
  190.1380  174.7640  145.0750 C   0  0  0  0  0  3  0  0  0  0  0  0
  188.1600  175.7240  144.0490 C   0  0  0  0  0  3  0  0  0  0  0  0
  186.8060  177.3360  145.3840 C   0  0  0  0  0  0  0  0  0  0  0  0
  186.5700  178.5210  144.6690 C   0  0  0  0  0  3  0  0  0  0  0  0
  184.4770  178.8210  145.7500 C   0  0  0  0  0  3  0  0  0  0  0  0
  185.8320  176.9100  146.3010 C   0  0  0  0  0  3  0  0  0  0  0  0
  185.4250  179.2280  144.8640 N   0  0  0  0  0  0  0  0  0  0  0  0
  184.6650  177.6510  146.4860 C   0  0  0  0  0  3  0  0  0  0  0  0
  189.3220  173.9430  142.7920 C   0  0  2  0  0  3  0  0  0  0  0  0
  190.1380  172.7200  143.1690 C   0  0  0  0  0  1  0  0  0  0  0  0
  189.9460  174.6240  141.6650 N   0  0  0  0  0  2  0  0  0  0  0  0
  191.1620  173.8970  141.3340 C   0  0  2  0  0  3  0  0  0  0  0  0
  195.7050  175.6170  141.5650 N   0  0  0  0  0  1  0  0  0  0  0  0
  194.3010  175.4640  141.7380 C   0  0  0  0  0  0  0  0  0  0  0  0
  193.5490  176.3200  142.4510 N   0  0  0  0  0  0  0  0  0  0  0  0
  192.3120  175.8600  142.3900 N   0  0  0  0  0  0  0  0  0  0  0  0
  192.3540  174.7410  141.6380 C   0  0  0  0  0  0  0  0  0  0  0  0
  193.5960  174.4500  141.2050 N   0  0  0  0  0  2  0  0  0  0  0  0
  191.1570  173.5390  139.9240 N   0  0  0  0  0  2  0  0  0  0  0  0
  191.8080  171.4770  139.6840 C   0  0  0  0  0  1  0  0  0  0  0  0
  190.6760  172.2760  139.8360 O   0  0  0  0  0  0  0  0  0  0  0  0
  191.1010  175.3990  147.2100 C   0  0  0  0  0  2  0  0  0  0  0  0
  192.3730  176.2340  147.0960 C   0  0  0  0  0  2  0  0  0  0  0  0
  194.5990  176.0070  145.8840 C   0  0  0  0  0  0  0  0  0  0  0  0
  193.4550  175.4370  146.5350 N   0  0  0  0  0  2  0  0  0  0  0  0
  194.6930  177.4790  145.6640 C   0  0  0  0  0  1  0  0  0  0  0  0
  195.5650  175.2520  145.4630 N   0  0  0  0  0  0  0  0  0  0  0  0
  196.7530  173.4060  146.2800 O   0  0  0  0  0  1  0  0  0  0  0  0
  195.5820  173.7980  145.6290 C   0  0  2  0  0  3  0  0  0  0  0  0
  195.9830  171.7400  144.3870 O   0  0  0  0  0  0  0  0  0  0  0  0
  194.5780  171.8450  144.4230 C   0  0  1  0  0  3  0  0  0  0  0  0
  195.4490  173.0400  144.3000 C   0  0  1  0  0  3  0  0  0  0  0  0
  193.1010  170.6080  142.9910 N   0  0  0  0  0  2  0  0  0  0  0  0
  194.0280  171.4860  143.0870 C   0  0  0  0  0  3  0  0  0  0  0  0
  1  8  1  0  0  0  0
  1  2  1  0  0  0  0
  2  3  1  6  0  0  0
  2  5  1  0  0  0  0
  4  7  2  0  0  0  0
  4  6  1  0  0  0  0
  5 27  1  0  0  0  0
  6  5  2  0  0  0  0
  7  1  1  0  0  0  0
  8 11  1  0  0  0  0
  9 12  1  0  0  0  0
  9  8  2  0  0  0  0
 10 13  1  0  0  0  0
 11 13  2  0  0  0  0
 12 10  2  0  0  0  0
 14 15  1  1  0  0  0
 14  4  1  0  0  0  0
 16 14  1  0  0  0  0
 17 24  1  6  0  0  0
 17 22  1  0  0  0  0
 17 16  1  0  0  0  0
 18 19  1  0  0  0  0
 19 20  2  0  0  0  0
 21 20  1  0  0  0  0
 22 21  2  0  0  0  0
 23 22  1  0  0  0  0
 23 19  1  0  0  0  0
 25 26  1  0  0  0  0
 26 24  1  0  0  0  0
 28 27  1  0  0  0  0
 29 30  1  0  0  0  0
 30 28  1  0  0  0  0
 31 29  1  0  0  0  0
 32 34  1  0  0  0  0
 32 29  2  0  0  0  0
 34 33  1  6  0  0  0
 35 36  1  0  0  0  0
 36 39  1  6  0  0  0
 37 35  1  0  0  0  0
 37 36  1  0  0  0  0
 37 34  1  1  0  0  0
 38 39  2  0  0  0  0
M  END
>  <MODEL>
5

>  <REMARK>
 VINA RESULT:      -6.4      2.944      7.119
  Name = 
  13 active torsions:
  status: ('A' for Active; 'I' for Inactive)
    1  A    between atoms: C_1  and  C_16
    2  A    between atoms: C_1  and  N_21
    3  A    between atoms: N_2  and  C_5
    4  A    between atoms: C_9  and  C_20
    5  A    between atoms: N_10  and  C_30
    6  A    between atoms: N_10  and  O_35
    7  A    between atoms: N_17  and  C_39
    8  A    between atoms: C_18  and  C_24
    9  A    between atoms: C_18  and  N_29
   10  A    between atoms: N_21  and  C_30
   11  A    between atoms: C_23  and  C_32
   12  A    between atoms: C_28  and  C_30
   13  A    between atoms: C_32  and  C_39
                            x       y       z     vdW  Elec       q    Type
                         _______ _______ _______ _____ _____    ______ ____

>  <TORSDO>
F 13

$$$$
=
 OpenBabel11042415353D

 39 42  0  0  1  0  0  0  0  0999 V2000
  189.6450  175.8050  143.6920 N   0  0  0  0  0  0  0  0  0  0  0  0
  190.4230  175.0890  142.6700 C   0  0  2  0  0  3  0  0  0  0  0  0
  191.4780  175.8840  142.2590 F   0  0  0  0  0  0  0  0  0  0  0  0
  187.9450  176.4180  142.0970 C   0  0  0  0  0  0  0  0  0  0  0  0
  189.5800  174.7060  141.4720 C   0  0  0  0  0  0  0  0  0  0  0  0
  188.4580  175.3740  141.1980 C   0  0  0  0  0  3  0  0  0  0  0  0
  188.5070  176.5910  143.2960 C   0  0  0  0  0  3  0  0  0  0  0  0
  190.0990  175.8350  145.0590 C   0  0  0  0  0  0  0  0  0  0  0  0
  189.3050  175.3150  146.0930 C   0  0  0  0  0  3  0  0  0  0  0  0
  190.9390  175.8970  147.7140 C   0  0  0  0  0  3  0  0  0  0  0  0
  191.3410  176.3960  145.3950 C   0  0  0  0  0  3  0  0  0  0  0  0
  189.7370  175.3550  147.3820 N   0  0  0  0  0  0  0  0  0  0  0  0
  191.7650  176.4280  146.7230 C   0  0  0  0  0  3  0  0  0  0  0  0
  186.7410  177.2090  141.6830 C   0  0  2  0  0  3  0  0  0  0  0  0
  186.7420  177.4400  140.1830 C   0  0  0  0  0  1  0  0  0  0  0  0
  186.6960  178.4870  142.3790 N   0  0  0  0  0  2  0  0  0  0  0  0
  185.3810  178.6030  142.9940 C   0  0  2  0  0  3  0  0  0  0  0  0
  186.0020  179.3550  147.7590 N   0  0  0  0  0  1  0  0  0  0  0  0
  185.7690  178.7290  146.5030 C   0  0  0  0  0  0  0  0  0  0  0  0
  185.5520  177.4100  146.3650 N   0  0  0  0  0  0  0  0  0  0  0  0
  185.3790  177.1990  145.0720 N   0  0  0  0  0  0  0  0  0  0  0  0
  185.4940  178.3990  144.4680 C   0  0  0  0  0  0  0  0  0  0  0  0
  185.7440  179.3980  145.3360 N   0  0  0  0  0  2  0  0  0  0  0  0
  184.4790  177.6140  142.4250 N   0  0  0  0  0  2  0  0  0  0  0  0
  183.1720  178.2700  140.8150 C   0  0  0  0  0  1  0  0  0  0  0  0
  183.2970  178.2350  142.2030 O   0  0  0  0  0  0  0  0  0  0  0  0
  189.9920  173.6190  140.5180 C   0  0  0  0  0  2  0  0  0  0  0  0
  189.8640  172.2090  141.0860 C   0  0  0  0  0  2  0  0  0  0  0  0
  190.6930  171.7970  143.4560 C   0  0  0  0  0  0  0  0  0  0  0  0
  190.9250  171.9510  142.0490 N   0  0  0  0  0  2  0  0  0  0  0  0
  189.3300  171.9910  144.0280 C   0  0  0  0  0  1  0  0  0  0  0  0
  191.6680  171.5010  144.2580 N   0  0  0  0  0  0  0  0  0  0  0  0
  193.2720  169.9220  143.6130 O   0  0  0  0  0  1  0  0  0  0  0  0
  193.0440  171.2840  143.8100 C   0  0  2  0  0  3  0  0  0  0  0  0
  195.3960  171.7230  144.2710 O   0  0  0  0  0  0  0  0  0  0  0  0
  194.8190  173.0070  144.2050 C   0  0  1  0  0  3  0  0  0  0  0  0
  194.0900  171.8510  144.7810 C   0  0  1  0  0  3  0  0  0  0  0  0
  195.9290  174.9680  145.0330 N   0  0  0  0  0  2  0  0  0  0  0  0
  195.3730  173.8460  145.3030 C   0  0  0  0  0  3  0  0  0  0  0  0
  1  8  1  0  0  0  0
  2  3  1  6  0  0  0
  2  1  1  0  0  0  0
  4  7  2  0  0  0  0
  5  2  1  0  0  0  0
  6  5  2  0  0  0  0
  6  4  1  0  0  0  0
  7  1  1  0  0  0  0
  8 11  2  0  0  0  0
  8  9  1  0  0  0  0
  9 12  2  0  0  0  0
 11 13  1  0  0  0  0
 12 10  1  0  0  0  0
 13 10  2  0  0  0  0
 14 15  1  6  0  0  0
 14  4  1  0  0  0  0
 14 16  1  0  0  0  0
 17 16  1  6  0  0  0
 17 22  1  0  0  0  0
 19 18  1  0  0  0  0
 20 19  2  0  0  0  0
 21 20  1  0  0  0  0
 22 21  2  0  0  0  0
 22 23  1  0  0  0  0
 23 19  1  0  0  0  0
 24 17  1  0  0  0  0
 25 26  1  0  0  0  0
 26 24  1  0  0  0  0
 27 28  1  0  0  0  0
 27  5  1  0  0  0  0
 28 30  1  0  0  0  0
 29 31  1  0  0  0  0
 29 32  2  0  0  0  0
 30 29  1  0  0  0  0
 34 33  1  1  0  0  0
 34 32  1  0  0  0  0
 35 37  1  0  0  0  0
 36 35  1  0  0  0  0
 36 37  1  0  0  0  0
 36 39  1  1  0  0  0
 37 34  1  6  0  0  0
 38 39  2  0  0  0  0
M  END
>  <MODEL>
6

>  <REMARK>
 VINA RESULT:      -6.4      2.450      4.740
  Name = 
  13 active torsions:
  status: ('A' for Active; 'I' for Inactive)
    1  A    between atoms: C_1  and  C_16
    2  A    between atoms: C_1  and  N_21
    3  A    between atoms: N_2  and  C_5
    4  A    between atoms: C_9  and  C_20
    5  A    between atoms: N_10  and  C_30
    6  A    between atoms: N_10  and  O_35
    7  A    between atoms: N_17  and  C_39
    8  A    between atoms: C_18  and  C_24
    9  A    between atoms: C_18  and  N_29
   10  A    between atoms: N_21  and  C_30
   11  A    between atoms: C_23  and  C_32
   12  A    between atoms: C_28  and  C_30
   13  A    between atoms: C_32  and  C_39
                            x       y       z     vdW  Elec       q    Type
                         _______ _______ _______ _____ _____    ______ ____

>  <TORSDO>
F 13

$$$$
=
 OpenBabel11042415353D

 39 42  0  0  1  0  0  0  0  0999 V2000
  189.3630  175.4130  143.8100 N   0  0  0  0  0  0  0  0  0  0  0  0
  189.8700  174.3750  142.8990 C   0  0  2  0  0  3  0  0  0  0  0  0
  191.0550  174.8070  142.3300 F   0  0  0  0  0  0  0  0  0  0  0  0
  187.7550  176.1800  142.1870 C   0  0  0  0  0  0  0  0  0  0  0  0
  188.8770  174.0370  141.8070 C   0  0  0  0  0  0  0  0  0  0  0  0
  187.9350  174.9150  141.4590 C   0  0  0  0  0  3  0  0  0  0  0  0
  188.4250  176.3880  143.3240 C   0  0  0  0  0  3  0  0  0  0  0  0
  189.9050  175.5360  145.1390 C   0  0  0  0  0  0  0  0  0  0  0  0
  191.0690  176.2860  145.3750 C   0  0  0  0  0  3  0  0  0  0  0  0
  190.9930  175.7760  147.6930 C   0  0  0  0  0  3  0  0  0  0  0  0
  189.2950  174.8990  146.2300 C   0  0  0  0  0  3  0  0  0  0  0  0
  191.5800  176.3900  146.6310 N   0  0  0  0  0  0  0  0  0  0  0  0
  189.8360  175.0180  147.5110 C   0  0  0  0  0  3  0  0  0  0  0  0
  186.7540  177.1750  141.6830 C   0  0  2  0  0  3  0  0  0  0  0  0
  187.0160  177.5080  140.2260 C   0  0  0  0  0  1  0  0  0  0  0  0
  186.7860  178.3930  142.4810 N   0  0  0  0  0  2  0  0  0  0  0  0
  185.4550  178.5850  143.0390 C   0  0  2  0  0  3  0  0  0  0  0  0
  185.9610  179.3050  147.8210 N   0  0  0  0  0  1  0  0  0  0  0  0
  185.7190  178.6950  146.5590 C   0  0  0  0  0  0  0  0  0  0  0  0
  185.3880  177.4010  146.4170 N   0  0  0  0  0  0  0  0  0  0  0  0
  185.2450  177.1990  145.1180 N   0  0  0  0  0  0  0  0  0  0  0  0
  185.4920  178.3800  144.5170 C   0  0  0  0  0  0  0  0  0  0  0  0
  185.8000  179.3570  145.3900 N   0  0  0  0  0  2  0  0  0  0  0  0
  184.5240  177.6450  142.4330 N   0  0  0  0  0  2  0  0  0  0  0  0
  183.3330  178.2360  140.7100 C   0  0  0  0  0  1  0  0  0  0  0  0
  183.4140  178.3460  142.0970 O   0  0  0  0  0  0  0  0  0  0  0  0
  188.9440  172.7490  141.0360 C   0  0  0  0  0  2  0  0  0  0  0  0
  188.3790  172.8390  139.6210 C   0  0  0  0  0  2  0  0  0  0  0  0
  190.0270  172.3520  137.7450 C   0  0  0  0  0  0  0  0  0  0  0  0
  189.4160  173.2470  138.6850 N   0  0  0  0  0  2  0  0  0  0  0  0
  189.6850  170.9010  137.7440 C   0  0  0  0  0  1  0  0  0  0  0  0
  190.8980  172.7870  136.8880 N   0  0  0  0  0  0  0  0  0  0  0  0
  190.6580  174.8040  135.7230 O   0  0  0  0  0  1  0  0  0  0  0  0
  191.3070  174.1890  136.7940 C   0  0  2  0  0  3  0  0  0  0  0  0
  193.2070  175.7130  136.7860 O   0  0  0  0  0  0  0  0  0  0  0  0
  193.4480  174.8790  137.8960 C   0  0  1  0  0  3  0  0  0  0  0  0
  192.8260  174.3650  136.6510 C   0  0  1  0  0  3  0  0  0  0  0  0
  195.6520  174.9750  138.8430 N   0  0  0  0  0  2  0  0  0  0  0  0
  194.8900  174.5100  137.9240 C   0  0  0  0  0  3  0  0  0  0  0  0
  1  8  1  0  0  0  0
  2  3  1  6  0  0  0
  2  1  1  0  0  0  0
  4  7  2  0  0  0  0
  5  2  1  0  0  0  0
  6  5  2  0  0  0  0
  6  4  1  0  0  0  0
  7  1  1  0  0  0  0
  8  9  2  0  0  0  0
  8 11  1  0  0  0  0
  9 12  1  0  0  0  0
 11 13  2  0  0  0  0
 12 10  2  0  0  0  0
 13 10  1  0  0  0  0
 14 15  1  6  0  0  0
 14  4  1  0  0  0  0
 14 16  1  0  0  0  0
 16 17  1  0  0  0  0
 17 24  1  6  0  0  0
 17 22  1  0  0  0  0
 19 18  1  0  0  0  0
 20 19  2  0  0  0  0
 21 20  1  0  0  0  0
 22 21  2  0  0  0  0
 22 23  1  0  0  0  0
 23 19  1  0  0  0  0
 25 26  1  0  0  0  0
 26 24  1  0  0  0  0
 27  5  1  0  0  0  0
 28 27  1  0  0  0  0
 29 30  1  0  0  0  0
 30 28  1  0  0  0  0
 31 29  1  0  0  0  0
 32 29  2  0  0  0  0
 34 33  1  6  0  0  0
 34 32  1  0  0  0  0
 35 36  1  0  0  0  0
 36 39  1  6  0  0  0
 37 35  1  0  0  0  0
 37 34  1  1  0  0  0
 37 36  1  0  0  0  0
 39 38  2  0  0  0  0
M  END
>  <MODEL>
7

>  <REMARK>
 VINA RESULT:      -6.3      2.880      5.810
  Name = 
  13 active torsions:
  status: ('A' for Active; 'I' for Inactive)
    1  A    between atoms: C_1  and  C_16
    2  A    between atoms: C_1  and  N_21
    3  A    between atoms: N_2  and  C_5
    4  A    between atoms: C_9  and  C_20
    5  A    between atoms: N_10  and  C_30
    6  A    between atoms: N_10  and  O_35
    7  A    between atoms: N_17  and  C_39
    8  A    between atoms: C_18  and  C_24
    9  A    between atoms: C_18  and  N_29
   10  A    between atoms: N_21  and  C_30
   11  A    between atoms: C_23  and  C_32
   12  A    between atoms: C_28  and  C_30
   13  A    between atoms: C_32  and  C_39
                            x       y       z     vdW  Elec       q    Type
                         _______ _______ _______ _____ _____    ______ ____

>  <TORSDO>
F 13

$$$$
=
 OpenBabel11042415353D

 39 42  0  0  1  0  0  0  0  0999 V2000
  187.0710  176.6460  142.7170 N   0  0  0  0  0  0  0  0  0  0  0  0
  187.6350  177.1800  143.9660 C   0  0  2  0  0  3  0  0  0  0  0  0
  188.4520  178.2580  143.6730 F   0  0  0  0  0  0  0  0  0  0  0  0
  188.6540  174.8300  142.6700 C   0  0  0  0  0  0  0  0  0  0  0  0
  188.4260  176.1370  144.7290 C   0  0  0  0  0  0  0  0  0  0  0  0
  188.9330  175.0800  144.0920 C   0  0  0  0  0  3  0  0  0  0  0  0
  187.7400  175.5710  142.0370 C   0  0  0  0  0  3  0  0  0  0  0  0
  185.9330  177.2860  142.1060 C   0  0  0  0  0  0  0  0  0  0  0  0
  185.9130  177.5570  140.7290 C   0  0  0  0  0  3  0  0  0  0  0  0
  183.7600  178.5440  140.8990 C   0  0  0  0  0  3  0  0  0  0  0  0
  184.8220  177.6690  142.8730 C   0  0  0  0  0  3  0  0  0  0  0  0
  184.8400  178.1710  140.1620 N   0  0  0  0  0  0  0  0  0  0  0  0
  183.7320  178.2980  142.2720 C   0  0  0  0  0  3  0  0  0  0  0  0
  189.3400  173.6890  141.9830 C   0  0  2  0  0  3  0  0  0  0  0  0
  188.8720  172.3610  142.5510 C   0  0  0  0  0  1  0  0  0  0  0  0
  190.7870  173.7980  142.1110 N   0  0  0  0  0  2  0  0  0  0  0  0
  191.3700  173.3930  140.8410 C   0  0  2  0  0  3  0  0  0  0  0  0
  195.3430  176.1240  141.4740 N   0  0  0  0  0  1  0  0  0  0  0  0
  194.3290  175.3210  140.8830 C   0  0  0  0  0  0  0  0  0  0  0  0
  194.3100  174.9990  139.5780 N   0  0  0  0  0  0  0  0  0  0  0  0
  193.2340  174.2530  139.4000 N   0  0  0  0  0  0  0  0  0  0  0  0
  192.6370  174.1450  140.6040 C   0  0  0  0  0  0  0  0  0  0  0  0
  193.2950  174.8080  141.5750 N   0  0  0  0  0  2  0  0  0  0  0  0
  190.4320  173.6520  139.7600 N   0  0  0  0  0  2  0  0  0  0  0  0
  189.0970  172.5750  138.4220 C   0  0  0  0  0  1  0  0  0  0  0  0
  190.3540  172.5200  139.0210 O   0  0  0  0  0  0  0  0  0  0  0  0
  188.7250  176.2740  146.1950 C   0  0  0  0  0  2  0  0  0  0  0  0
  189.9330  177.1510  146.5070 C   0  0  0  0  0  2  0  0  0  0  0  0
  191.9820  176.8140  145.0370 C   0  0  0  0  0  0  0  0  0  0  0  0
  191.1660  176.4590  146.1620 N   0  0  0  0  0  2  0  0  0  0  0  0
  191.5470  177.8780  144.0880 C   0  0  0  0  0  1  0  0  0  0  0  0
  193.1060  176.2060  144.8160 N   0  0  0  0  0  0  0  0  0  0  0  0
  194.6430  175.6630  146.4980 O   0  0  0  0  0  1  0  0  0  0  0  0
  193.6340  175.1500  145.6810 C   0  0  2  0  0  3  0  0  0  0  0  0
  194.4870  172.8690  145.7530 O   0  0  0  0  0  0  0  0  0  0  0  0
  193.2810  172.7560  145.0320 C   0  0  1  0  0  3  0  0  0  0  0  0
  194.1650  173.9400  144.8980 C   0  0  1  0  0  3  0  0  0  0  0  0
  192.5210  171.1230  143.4460 N   0  0  0  0  0  2  0  0  0  0  0  0
  193.4890  171.8430  143.8750 C   0  0  0  0  0  3  0  0  0  0  0  0
  1  2  1  0  0  0  0
  2  3  1  6  0  0  0
  2  5  1  0  0  0  0
  4  6  1  0  0  0  0
  5 27  1  0  0  0  0
  6  5  2  0  0  0  0
  7  4  2  0  0  0  0
  7  1  1  0  0  0  0
  8  1  1  0  0  0  0
  8 11  1  0  0  0  0
  9  8  2  0  0  0  0
 10 13  1  0  0  0  0
 12  9  1  0  0  0  0
 12 10  2  0  0  0  0
 13 11  2  0  0  0  0
 14 16  1  0  0  0  0
 14 15  1  1  0  0  0
 14  4  1  0  0  0  0
 17 24  1  6  0  0  0
 17 16  1  0  0  0  0
 19 18  1  0  0  0  0
 19 23  1  0  0  0  0
 20 19  2  0  0  0  0
 21 20  1  0  0  0  0
 21 22  2  0  0  0  0
 22 17  1  0  0  0  0
 22 23  1  0  0  0  0
 25 26  1  0  0  0  0
 26 24  1  0  0  0  0
 27 28  1  0  0  0  0
 29 30  1  0  0  0  0
 30 28  1  0  0  0  0
 31 29  1  0  0  0  0
 32 29  2  0  0  0  0
 32 34  1  0  0  0  0
 34 33  1  6  0  0  0
 36 39  1  6  0  0  0
 36 35  1  0  0  0  0
 37 36  1  0  0  0  0
 37 34  1  1  0  0  0
 37 35  1  0  0  0  0
 38 39  2  0  0  0  0
M  END
>  <MODEL>
8

>  <REMARK>
 VINA RESULT:      -6.3      2.819      6.639
  Name = 
  13 active torsions:
  status: ('A' for Active; 'I' for Inactive)
    1  A    between atoms: C_1  and  C_16
    2  A    between atoms: C_1  and  N_21
    3  A    between atoms: N_2  and  C_5
    4  A    between atoms: C_9  and  C_20
    5  A    between atoms: N_10  and  C_30
    6  A    between atoms: N_10  and  O_35
    7  A    between atoms: N_17  and  C_39
    8  A    between atoms: C_18  and  C_24
    9  A    between atoms: C_18  and  N_29
   10  A    between atoms: N_21  and  C_30
   11  A    between atoms: C_23  and  C_32
   12  A    between atoms: C_28  and  C_30
   13  A    between atoms: C_32  and  C_39
                            x       y       z     vdW  Elec       q    Type
                         _______ _______ _______ _____ _____    ______ ____

>  <TORSDO>
F 13

$$$$
=
 OpenBabel11042415353D

 39 42  0  0  1  0  0  0  0  0999 V2000
  193.4370  174.0130  144.9370 N   0  0  0  0  0  0  0  0  0  0  0  0
  192.8670  175.1310  145.7050 C   0  0  2  0  0  3  0  0  0  0  0  0
  192.4910  174.6800  146.9570 F   0  0  0  0  0  0  0  0  0  0  0  0
  191.3950  173.7050  143.6950 C   0  0  0  0  0  0  0  0  0  0  0  0
  191.6730  175.7520  145.0100 C   0  0  0  0  0  0  0  0  0  0  0  0
  190.9740  175.0500  144.1170 C   0  0  0  0  0  3  0  0  0  0  0  0
  192.5870  173.2380  144.0750 C   0  0  0  0  0  3  0  0  0  0  0  0
  194.8030  173.6080  145.1540 C   0  0  0  0  0  0  0  0  0  0  0  0
  195.8460  174.5480  145.1220 C   0  0  0  0  0  3  0  0  0  0  0  0
  197.4560  172.8550  145.5470 C   0  0  0  0  0  3  0  0  0  0  0  0
  195.1290  172.2640  145.3890 C   0  0  0  0  0  3  0  0  0  0  0  0
  197.1330  174.1560  145.3180 N   0  0  0  0  0  0  0  0  0  0  0  0
  196.4560  171.8830  145.5870 C   0  0  0  0  0  3  0  0  0  0  0  0
  190.5110  172.9210  142.7730 C   0  0  2  0  0  3  0  0  0  0  0  0
  191.1330  171.5750  142.4500 C   0  0  0  0  0  1  0  0  0  0  0  0
  190.2610  173.6580  141.5420 N   0  0  0  0  0  2  0  0  0  0  0  0
  188.9280  173.2990  141.0810 C   0  0  2  0  0  3  0  0  0  0  0  0
  190.0120  171.4890  136.6990 N   0  0  0  0  0  1  0  0  0  0  0  0
  189.4310  172.2630  137.7420 C   0  0  0  0  0  0  0  0  0  0  0  0
  188.5150  173.2230  137.5260 N   0  0  0  0  0  0  0  0  0  0  0  0
  188.2130  173.7170  138.7140 N   0  0  0  0  0  0  0  0  0  0  0  0
  188.9550  173.0380  139.6120 C   0  0  0  0  0  0  0  0  0  0  0  0
  189.7440  172.1080  139.0410 N   0  0  0  0  0  2  0  0  0  0  0  0
  187.9960  174.3770  141.3740 N   0  0  0  0  0  2  0  0  0  0  0  0
  187.7800  176.5390  141.4810 C   0  0  0  0  0  1  0  0  0  0  0  0
  188.7240  175.5140  141.4820 O   0  0  0  0  0  0  0  0  0  0  0  0
  191.1910  177.1390  145.3340 C   0  0  0  0  0  2  0  0  0  0  0  0
  190.6080  177.2850  146.7360 C   0  0  0  0  0  2  0  0  0  0  0  0
  188.2880  176.2620  146.9440 C   0  0  0  0  0  0  0  0  0  0  0  0
  189.1570  177.3720  146.6760 N   0  0  0  0  0  2  0  0  0  0  0  0
  188.8480  174.9070  147.2150 C   0  0  0  0  0  1  0  0  0  0  0  0
  187.0000  176.4140  146.9420 N   0  0  0  0  0  0  0  0  0  0  0  0
  185.8540  178.2220  147.8920 O   0  0  0  0  0  1  0  0  0  0  0  0
  186.3410  177.6970  146.6940 C   0  0  2  0  0  3  0  0  0  0  0  0
  184.5480  178.8350  145.4990 O   0  0  0  0  0  0  0  0  0  0  0  0
  185.4440  178.4520  144.4810 C   0  0  1  0  0  3  0  0  0  0  0  0
  185.2010  177.5990  145.6690 C   0  0  1  0  0  3  0  0  0  0  0  0
  184.7800  178.4850  142.1740 N   0  0  0  0  0  2  0  0  0  0  0  0
  184.6700  177.9280  143.3220 C   0  0  0  0  0  3  0  0  0  0  0  0
  1  8  1  0  0  0  0
  1  2  1  0  0  0  0
  2  3  1  1  0  0  0
  4  7  2  0  0  0  0
  4  6  1  0  0  0  0
  5 27  1  0  0  0  0
  5  2  1  0  0  0  0
  6  5  2  0  0  0  0
  7  1  1  0  0  0  0
  8 11  1  0  0  0  0
  9  8  2  0  0  0  0
  9 12  1  0  0  0  0
 10 13  1  0  0  0  0
 11 13  2  0  0  0  0
 12 10  2  0  0  0  0
 14 15  1  6  0  0  0
 14  4  1  0  0  0  0
 16 14  1  0  0  0  0
 17 24  1  6  0  0  0
 17 16  1  0  0  0  0
 18 19  1  0  0  0  0
 19 23  1  0  0  0  0
 20 19  2  0  0  0  0
 20 21  1  0  0  0  0
 21 22  2  0  0  0  0
 22 17  1  0  0  0  0
 23 22  1  0  0  0  0
 24 26  1  0  0  0  0
 25 26  1  0  0  0  0
 27 28  1  0  0  0  0
 29 31  1  0  0  0  0
 30 28  1  0  0  0  0
 30 29  1  0  0  0  0
 32 29  2  0  0  0  0
 34 32  1  0  0  0  0
 34 33  1  1  0  0  0
 35 37  1  0  0  0  0
 36 39  1  6  0  0  0
 36 35  1  0  0  0  0
 36 37  1  0  0  0  0
 37 34  1  1  0  0  0
 38 39  2  0  0  0  0
M  END
>  <MODEL>
9

>  <REMARK>
 VINA RESULT:      -6.3      2.967      7.983
  Name = 
  13 active torsions:
  status: ('A' for Active; 'I' for Inactive)
    1  A    between atoms: C_1  and  C_16
    2  A    between atoms: C_1  and  N_21
    3  A    between atoms: N_2  and  C_5
    4  A    between atoms: C_9  and  C_20
    5  A    between atoms: N_10  and  C_30
    6  A    between atoms: N_10  and  O_35
    7  A    between atoms: N_17  and  C_39
    8  A    between atoms: C_18  and  C_24
    9  A    between atoms: C_18  and  N_29
   10  A    between atoms: N_21  and  C_30
   11  A    between atoms: C_23  and  C_32
   12  A    between atoms: C_28  and  C_30
   13  A    between atoms: C_32  and  C_39
                            x       y       z     vdW  Elec       q    Type
                         _______ _______ _______ _____ _____    ______ ____

>  <TORSDO>
F 13

$$$$
