=
 OpenBabel11042416593D

 38 43  0  0  1  0  0  0  0  0999 V2000
  191.3050  174.4060  143.8940 C   0  0  0  0  0  0  0  0  0  0  0  0
  191.3490  175.5470  146.4940 C   0  0  0  0  0  3  0  0  0  0  0  0
  195.0250  174.5030  143.4300 C   0  0  0  0  0  2  0  0  0  0  0  0
  192.5660  175.3280  145.8460 C   0  0  0  0  0  0  0  0  0  0  0  0
  192.5130  174.7760  144.5030 C   0  0  0  0  0  0  0  0  0  0  0  0
  190.1340  175.2640  145.8670 C   0  0  0  0  0  0  0  0  0  0  0  0
  193.7730  174.6600  144.0140 C   0  0  0  0  0  0  0  0  0  0  0  0
  195.1030  175.4680  145.9790 N   0  0  0  0  0  0  0  0  0  0  0  0
  190.1170  174.6510  144.5900 C   0  0  0  0  0  3  0  0  0  0  0  0
  193.8340  175.6340  146.5400 C   0  0  0  0  0  3  0  0  0  0  0  0
  194.9740  175.0000  144.7270 C   0  0  0  0  0  0  0  0  0  0  0  0
  186.9090  177.0520  146.0490 C   0  0  0  0  0  0  0  0  0  0  0  0
  186.2870  177.0660  144.7200 C   0  0  0  0  0  3  0  0  0  0  0  0
  183.2540  179.0880  145.4490 O   0  0  0  0  0  1  0  0  0  0  0  0
  186.4240  177.9700  147.1280 C   0  0  2  0  0  3  0  0  0  0  0  0
  188.9130  175.4770  146.6450 C   0  0  0  0  0  3  0  0  0  0  0  0
  187.9270  176.2640  146.2950 C   0  0  0  0  0  0  0  0  0  0  0  0
  186.3710  177.3190  148.3470 F   0  0  0  0  0  0  0  0  0  0  0  0
  184.4910  178.4790  145.6230 C   0  0  0  0  0  0  0  0  0  0  0  0
  185.1530  177.7430  144.4950 C   0  0  0  0  0  0  0  0  0  0  0  0
  185.0670  178.5560  146.8280 C   0  0  0  0  0  3  0  0  0  0  0  0
  184.6170  177.7000  143.1970 O   0  0  0  0  0  0  0  0  0  0  0  0
  185.1920  178.3530  142.0740 C   0  0  0  0  0  1  0  0  0  0  0  0
  191.5120  172.1460  142.7440 C   0  0  0  0  0  0  0  0  0  0  0  0
  191.5370  171.4060  141.5550 C   0  0  0  0  0  3  0  0  0  0  0  0
  191.2920  173.5360  142.6930 C   0  0  0  0  0  0  0  0  0  0  0  0
  191.1390  173.4100  140.2670 C   0  0  0  0  0  3  0  0  0  0  0  0
  191.0980  174.1500  141.4500 C   0  0  0  0  0  3  0  0  0  0  0  0
  191.3490  172.0350  140.3090 C   0  0  0  0  0  0  0  0  0  0  0  0
  191.6940  171.4400  144.0480 C   0  0  0  0  0  1  0  0  0  0  0  0
  191.5190  171.3320  139.0730 N   0  0  0  0  0  2  0  0  0  0  0  0
  189.2780  171.0350  138.4210 O   0  0  0  0  0  0  0  0  0  0  0  0
  190.4920  170.7270  138.2670 C   0  0  0  0  0  0  0  0  0  0  0  0
  192.7650  169.5030  135.6470 C   0  0  0  0  0  2  0  0  0  0  0  0
  191.5010  169.7730  134.8430 C   0  0  0  0  0  2  0  0  0  0  0  0
  192.3510  169.4810  137.1070 C   0  0  0  0  0  2  0  0  0  0  0  0
  190.8570  169.8030  137.1430 C   0  0  0  0  0  3  0  0  0  0  0  0
  190.5450  170.4380  135.8120 C   0  0  0  0  0  2  0  0  0  0  0  0
  1  5  2  0  0  0  0
  1  9  1  0  0  0  0
  3  7  1  0  0  0  0
  3 11  1  0  0  0  0
  4  2  2  0  0  0  0
  4 10  1  0  0  0  0
  5  4  1  0  0  0  0
  6  2  1  0  0  0  0
  6 16  1  0  0  0  0
  7  5  1  0  0  0  0
  7 11  2  0  0  0  0
  8 10  2  0  0  0  0
  9  6  2  0  0  0  0
 11  8  1  0  0  0  0
 12 17  2  0  0  0  0
 12 15  1  0  0  0  0
 13 12  1  0  0  0  0
 14 19  1  0  0  0  0
 15 18  1  1  0  0  0
 17 16  2  0  0  0  0
 19 21  2  0  0  0  0
 20 13  2  0  0  0  0
 20 19  1  0  0  0  0
 21 15  1  0  0  0  0
 22 20  1  0  0  0  0
 23 22  1  0  0  0  0
 24 30  1  0  0  0  0
 25 24  2  0  0  0  0
 26 24  1  0  0  0  0
 26  1  1  0  0  0  0
 27 29  2  0  0  0  0
 27 28  1  0  0  0  0
 28 26  2  0  0  0  0
 29 25  1  0  0  0  0
 31 29  1  0  0  0  0
 33 32  2  0  0  0  0
 33 31  1  0  0  0  0
 34 36  1  0  0  0  0
 35 34  1  0  0  0  0
 35 38  1  0  0  0  0
 36 37  1  0  0  0  0
 37 33  1  0  0  0  0
 38 37  1  0  0  0  0
M  END
>  <MODEL>
1

>  <REMARK>
 VINA RESULT:      -8.3      0.000      0.000
  Name = 
  5 active torsions:
  status: ('A' for Active; 'I' for Inactive)
    1  A    between atoms: N_2  and  C_35
    2  A    between atoms: C_3  and  C_14
    3  A    between atoms: O_12  and  C_30
    4  A    between atoms: C_17  and  C_23
    5  A    between atoms: C_19  and  C_25
                            x       y       z     vdW  Elec       q    Type
                         _______ _______ _______ _____ _____    ______ ____

>  <TORSDO>
F 5

$$$$
=
 OpenBabel11042416593D

 38 43  0  0  1  0  0  0  0  0999 V2000
  193.0190  175.1200  142.7720 C   0  0  0  0  0  0  0  0  0  0  0  0
  195.3900  174.7130  141.2630 C   0  0  0  0  0  3  0  0  0  0  0  0
  194.7320  175.0270  146.1070 C   0  0  0  0  0  2  0  0  0  0  0  0
  195.4950  174.7930  142.6540 C   0  0  0  0  0  0  0  0  0  0  0  0
  194.2620  174.9660  143.4030 C   0  0  0  0  0  0  0  0  0  0  0  0
  194.1500  174.7790  140.6260 C   0  0  0  0  0  0  0  0  0  0  0  0
  194.5420  174.9900  144.7300 C   0  0  0  0  0  0  0  0  0  0  0  0
  197.0400  174.7780  144.6750 N   0  0  0  0  0  0  0  0  0  0  0  0
  192.9750  175.0290  141.3770 C   0  0  0  0  0  3  0  0  0  0  0  0
  196.8240  174.7240  143.2950 C   0  0  0  0  0  3  0  0  0  0  0  0
  195.8570  174.8920  145.3020 C   0  0  0  0  0  0  0  0  0  0  0  0
  192.3590  173.6170  137.6140 C   0  0  0  0  0  0  0  0  0  0  0  0
  190.9170  173.8190  137.7980 C   0  0  0  0  0  3  0  0  0  0  0  0
  189.6480  172.3510  134.6280 O   0  0  0  0  0  1  0  0  0  0  0  0
  192.8710  172.7270  136.5240 C   0  0  2  0  0  3  0  0  0  0  0  0
  194.1450  174.7390  139.1630 C   0  0  0  0  0  3  0  0  0  0  0  0
  193.2160  174.1800  138.4290 C   0  0  0  0  0  0  0  0  0  0  0  0
  193.9770  173.2820  135.9070 F   0  0  0  0  0  0  0  0  0  0  0  0
  190.5280  172.7020  135.6440 C   0  0  0  0  0  0  0  0  0  0  0  0
  190.0370  173.3850  136.8880 C   0  0  0  0  0  0  0  0  0  0  0  0
  191.8270  172.4290  135.4760 C   0  0  0  0  0  3  0  0  0  0  0  0
  188.6740  173.6260  137.1340 O   0  0  0  0  0  0  0  0  0  0  0  0
  188.1670  174.1780  138.3420 C   0  0  0  0  0  1  0  0  0  0  0  0
  190.9000  174.8030  144.1440 C   0  0  0  0  0  0  0  0  0  0  0  0
  189.7900  175.3730  144.7810 C   0  0  0  0  0  3  0  0  0  0  0  0
  191.8460  175.6380  143.5170 C   0  0  0  0  0  0  0  0  0  0  0  0
  190.5410  177.5860  144.1720 C   0  0  0  0  0  3  0  0  0  0  0  0
  191.6580  177.0240  143.5480 C   0  0  0  0  0  3  0  0  0  0  0  0
  189.6060  176.7680  144.7990 C   0  0  0  0  0  0  0  0  0  0  0  0
  191.0730  173.3200  144.1650 C   0  0  0  0  0  1  0  0  0  0  0  0
  188.4100  177.3680  145.3090 N   0  0  0  0  0  2  0  0  0  0  0  0
  187.1280  177.5410  143.3440 O   0  0  0  0  0  0  0  0  0  0  0  0
  187.2960  177.8710  144.5490 C   0  0  0  0  0  0  0  0  0  0  0  0
  184.7070  178.4520  147.0980 C   0  0  0  0  0  2  0  0  0  0  0  0
  183.9300  178.7210  145.8160 C   0  0  0  0  0  2  0  0  0  0  0  0
  186.1780  178.4820  146.7250 C   0  0  0  0  0  2  0  0  0  0  0  0
  186.2410  178.7070  145.2140 C   0  0  0  0  0  3  0  0  0  0  0  0
  184.8740  178.3500  144.6910 C   0  0  0  0  0  2  0  0  0  0  0  0
  1  5  1  0  0  0  0
  1 26  1  0  0  0  0
  2  4  1  0  0  0  0
  4 10  2  0  0  0  0
  4  5  1  0  0  0  0
  5  7  2  0  0  0  0
  6  2  2  0  0  0  0
  6  9  1  0  0  0  0
  7 11  1  0  0  0  0
  7  3  1  0  0  0  0
  8 11  2  0  0  0  0
  9  1  2  0  0  0  0
 10  8  1  0  0  0  0
 11  3  1  0  0  0  0
 12 13  1  0  0  0  0
 12 17  2  0  0  0  0
 14 19  1  0  0  0  0
 15 18  1  6  0  0  0
 15 12  1  0  0  0  0
 16  6  1  0  0  0  0
 17 16  2  0  0  0  0
 19 20  1  0  0  0  0
 20 22  1  0  0  0  0
 20 13  2  0  0  0  0
 21 19  2  0  0  0  0
 21 15  1  0  0  0  0
 22 23  1  0  0  0  0
 24 30  1  0  0  0  0
 24 25  1  0  0  0  0
 25 29  2  0  0  0  0
 26 28  1  0  0  0  0
 26 24  2  0  0  0  0
 27 29  1  0  0  0  0
 28 27  2  0  0  0  0
 29 31  1  0  0  0  0
 32 33  2  0  0  0  0
 33 37  1  0  0  0  0
 33 31  1  0  0  0  0
 35 34  1  0  0  0  0
 36 34  1  0  0  0  0
 37 36  1  0  0  0  0
 38 37  1  0  0  0  0
 38 35  1  0  0  0  0
M  END
>  <MODEL>
2

>  <REMARK>
 VINA RESULT:      -7.8      3.554      9.218
  Name = 
  5 active torsions:
  status: ('A' for Active; 'I' for Inactive)
    1  A    between atoms: N_2  and  C_35
    2  A    between atoms: C_3  and  C_14
    3  A    between atoms: O_12  and  C_30
    4  A    between atoms: C_17  and  C_23
    5  A    between atoms: C_19  and  C_25
                            x       y       z     vdW  Elec       q    Type
                         _______ _______ _______ _____ _____    ______ ____

>  <TORSDO>
F 5

$$$$
=
 OpenBabel11042416593D

 38 43  0  0  1  0  0  0  0  0999 V2000
  189.5280  175.6580  143.3980 C   0  0  0  0  0  0  0  0  0  0  0  0
  186.9650  175.9850  142.2180 C   0  0  0  0  0  3  0  0  0  0  0  0
  188.4800  176.8530  146.7950 C   0  0  0  0  0  2  0  0  0  0  0  0
  187.1140  176.2850  143.5740 C   0  0  0  0  0  0  0  0  0  0  0  0
  188.4430  176.1430  144.1430 C   0  0  0  0  0  0  0  0  0  0  0  0
  188.0550  175.5830  141.4420 C   0  0  0  0  0  0  0  0  0  0  0  0
  188.4140  176.5040  145.4510 C   0  0  0  0  0  0  0  0  0  0  0  0
  185.9800  177.0420  145.7220 N   0  0  0  0  0  0  0  0  0  0  0  0
  189.3200  175.3760  142.0440 C   0  0  0  0  0  3  0  0  0  0  0  0
  185.9390  176.7030  144.3660 C   0  0  0  0  0  3  0  0  0  0  0  0
  187.2430  176.9310  146.1660 C   0  0  0  0  0  0  0  0  0  0  0  0
  189.0300  173.4480  138.5930 C   0  0  0  0  0  0  0  0  0  0  0  0
  189.2880  172.0860  139.0740 C   0  0  0  0  0  3  0  0  0  0  0  0
  190.3690  170.4770  135.9030 O   0  0  0  0  0  1  0  0  0  0  0  0
  189.4930  173.8790  137.2360 C   0  0  2  0  0  3  0  0  0  0  0  0
  187.7910  175.2400  140.0450 C   0  0  0  0  0  3  0  0  0  0  0  0
  188.4280  174.3200  139.3640 C   0  0  0  0  0  0  0  0  0  0  0  0
  188.5320  174.6450  136.6020 F   0  0  0  0  0  0  0  0  0  0  0  0
  190.0000  171.4660  136.8050 C   0  0  0  0  0  0  0  0  0  0  0  0
  189.7560  171.1400  138.2500 C   0  0  0  0  0  0  0  0  0  0  0  0
  189.8530  172.7140  136.3460 C   0  0  0  0  0  3  0  0  0  0  0  0
  189.9690  169.8580  138.7860 O   0  0  0  0  0  0  0  0  0  0  0  0
  190.8060  169.5890  139.9020 C   0  0  0  0  0  1  0  0  0  0  0  0
  191.8490  176.0440  144.3640 C   0  0  0  0  0  0  0  0  0  0  0  0
  193.0050  175.5120  144.9510 C   0  0  0  0  0  3  0  0  0  0  0  0
  190.7660  175.1930  144.0690 C   0  0  0  0  0  0  0  0  0  0  0  0
  192.0260  173.3040  144.9460 C   0  0  0  0  0  3  0  0  0  0  0  0
  190.8660  173.8310  144.3750 C   0  0  0  0  0  3  0  0  0  0  0  0
  193.0990  174.1390  145.2460 C   0  0  0  0  0  0  0  0  0  0  0  0
  191.7790  177.5090  144.0850 C   0  0  0  0  0  1  0  0  0  0  0  0
  194.3180  173.5440  145.7050 N   0  0  0  0  0  2  0  0  0  0  0  0
  195.4930  173.3230  143.6790 O   0  0  0  0  0  0  0  0  0  0  0  0
  195.3880  173.0200  144.8980 C   0  0  0  0  0  0  0  0  0  0  0  0
  197.9390  170.3700  144.8180 C   0  0  0  0  0  2  0  0  0  0  0  0
  197.0980  169.9390  146.0120 C   0  0  0  0  0  2  0  0  0  0  0  0
  197.5720  171.8150  144.5320 C   0  0  0  0  0  2  0  0  0  0  0  0
  196.4730  172.1920  145.5240 C   0  0  0  0  0  3  0  0  0  0  0  0
  195.9160  170.8870  146.0320 C   0  0  0  0  0  2  0  0  0  0  0  0
  1 26  1  0  0  0  0
  1  5  1  0  0  0  0
  2  4  1  0  0  0  0
  4  5  2  0  0  0  0
  4 10  1  0  0  0  0
  5  7  1  0  0  0  0
  6  9  1  0  0  0  0
  6  2  2  0  0  0  0
  7 11  2  0  0  0  0
  7  3  1  0  0  0  0
  8 11  1  0  0  0  0
  9  1  2  0  0  0  0
 10  8  2  0  0  0  0
 11  3  1  0  0  0  0
 12 13  1  0  0  0  0
 12 17  2  0  0  0  0
 14 19  1  0  0  0  0
 15 18  1  6  0  0  0
 15 12  1  0  0  0  0
 16  6  1  0  0  0  0
 17 16  2  0  0  0  0
 19 20  1  0  0  0  0
 20 22  1  0  0  0  0
 20 13  2  0  0  0  0
 21 19  2  0  0  0  0
 21 15  1  0  0  0  0
 22 23  1  0  0  0  0
 24 25  1  0  0  0  0
 25 29  2  0  0  0  0
 26 24  2  0  0  0  0
 26 28  1  0  0  0  0
 27 29  1  0  0  0  0
 28 27  2  0  0  0  0
 29 31  1  0  0  0  0
 30 24  1  0  0  0  0
 32 33  2  0  0  0  0
 33 37  1  0  0  0  0
 33 31  1  0  0  0  0
 34 35  1  0  0  0  0
 35 38  1  0  0  0  0
 36 34  1  0  0  0  0
 36 37  1  0  0  0  0
 37 38  1  0  0  0  0
M  END
>  <MODEL>
3

>  <REMARK>
 VINA RESULT:      -7.8      4.072      8.537
  Name = 
  5 active torsions:
  status: ('A' for Active; 'I' for Inactive)
    1  A    between atoms: N_2  and  C_35
    2  A    between atoms: C_3  and  C_14
    3  A    between atoms: O_12  and  C_30
    4  A    between atoms: C_17  and  C_23
    5  A    between atoms: C_19  and  C_25
                            x       y       z     vdW  Elec       q    Type
                         _______ _______ _______ _____ _____    ______ ____

>  <TORSDO>
F 5

$$$$
=
 OpenBabel11042416593D

 38 43  0  0  1  0  0  0  0  0999 V2000
  189.6520  174.9860  143.2690 C   0  0  0  0  0  0  0  0  0  0  0  0
  187.2270  175.9530  142.1500 C   0  0  0  0  0  3  0  0  0  0  0  0
  188.9270  176.2170  146.7360 C   0  0  0  0  0  2  0  0  0  0  0  0
  187.4490  176.1420  143.5160 C   0  0  0  0  0  0  0  0  0  0  0  0
  188.7130  175.6690  144.0550 C   0  0  0  0  0  0  0  0  0  0  0  0
  188.1910  175.3520  141.3370 C   0  0  0  0  0  0  0  0  0  0  0  0
  188.7750  175.9610  145.3790 C   0  0  0  0  0  0  0  0  0  0  0  0
  186.5320  177.0290  145.7180 N   0  0  0  0  0  0  0  0  0  0  0  0
  189.3770  174.8290  141.9070 C   0  0  0  0  0  3  0  0  0  0  0  0
  186.4070  176.7780  144.3480 C   0  0  0  0  0  3  0  0  0  0  0  0
  187.7380  176.6080  146.1340 C   0  0  0  0  0  0  0  0  0  0  0  0
  188.9970  173.5180  138.2370 C   0  0  0  0  0  0  0  0  0  0  0  0
  189.2800  172.1150  138.5630 C   0  0  0  0  0  3  0  0  0  0  0  0
  190.1760  170.8360  135.1900 O   0  0  0  0  0  1  0  0  0  0  0  0
  189.3830  174.0840  136.9060 C   0  0  2  0  0  3  0  0  0  0  0  0
  187.8470  175.1490  139.9300 C   0  0  0  0  0  3  0  0  0  0  0  0
  188.4420  174.3040  139.1250 C   0  0  0  0  0  0  0  0  0  0  0  0
  188.3880  174.9060  136.4080 F   0  0  0  0  0  0  0  0  0  0  0  0
  189.8600  171.7290  136.2060 C   0  0  0  0  0  0  0  0  0  0  0  0
  189.6990  171.2580  137.6230 C   0  0  0  0  0  0  0  0  0  0  0  0
  189.6890  173.0160  135.8840 C   0  0  0  0  0  3  0  0  0  0  0  0
  189.9400  169.9300  138.0140 O   0  0  0  0  0  0  0  0  0  0  0  0
  190.5830  169.5590  139.2260 C   0  0  0  0  0  1  0  0  0  0  0  0
  191.9990  174.7840  144.2300 C   0  0  0  0  0  0  0  0  0  0  0  0
  193.0060  173.9720  144.7690 C   0  0  0  0  0  3  0  0  0  0  0  0
  190.7540  174.2160  143.8960 C   0  0  0  0  0  0  0  0  0  0  0  0
  191.5600  172.0430  144.6390 C   0  0  0  0  0  3  0  0  0  0  0  0
  190.5470  172.8500  144.1160 C   0  0  0  0  0  3  0  0  0  0  0  0
  192.7900  172.5970  144.9780 C   0  0  0  0  0  0  0  0  0  0  0  0
  192.2580  176.2430  144.0420 C   0  0  0  0  0  1  0  0  0  0  0  0
  193.8450  171.7180  145.3840 N   0  0  0  0  0  2  0  0  0  0  0  0
  194.1780  170.4830  143.4100 O   0  0  0  0  0  0  0  0  0  0  0  0
  194.3820  170.6040  144.6490 C   0  0  0  0  0  0  0  0  0  0  0  0
  195.4200  168.5210  147.4980 C   0  0  0  0  0  2  0  0  0  0  0  0
  196.6830  169.3320  147.2460 C   0  0  0  0  0  2  0  0  0  0  0  0
  194.5550  168.6720  146.2600 C   0  0  0  0  0  2  0  0  0  0  0  0
  195.2980  169.6230  145.3220 C   0  0  0  0  0  3  0  0  0  0  0  0
  196.3040  170.3430  146.1830 C   0  0  0  0  0  2  0  0  0  0  0  0
  1 26  1  0  0  0  0
  1  5  1  0  0  0  0
  2  4  1  0  0  0  0
  4  5  2  0  0  0  0
  4 10  1  0  0  0  0
  5  7  1  0  0  0  0
  6  9  1  0  0  0  0
  6  2  2  0  0  0  0
  7 11  2  0  0  0  0
  7  3  1  0  0  0  0
  8 11  1  0  0  0  0
  9  1  2  0  0  0  0
 10  8  2  0  0  0  0
 11  3  1  0  0  0  0
 12 13  1  0  0  0  0
 12 17  2  0  0  0  0
 14 19  1  0  0  0  0
 15 18  1  6  0  0  0
 15 12  1  0  0  0  0
 16  6  1  0  0  0  0
 17 16  2  0  0  0  0
 19 20  1  0  0  0  0
 20 22  1  0  0  0  0
 20 13  2  0  0  0  0
 21 19  2  0  0  0  0
 21 15  1  0  0  0  0
 22 23  1  0  0  0  0
 24 25  1  0  0  0  0
 25 29  2  0  0  0  0
 26 28  1  0  0  0  0
 26 24  2  0  0  0  0
 27 29  1  0  0  0  0
 28 27  2  0  0  0  0
 29 31  1  0  0  0  0
 30 24  1  0  0  0  0
 32 33  2  0  0  0  0
 33 37  1  0  0  0  0
 33 31  1  0  0  0  0
 35 34  1  0  0  0  0
 36 34  1  0  0  0  0
 37 38  1  0  0  0  0
 37 36  1  0  0  0  0
 38 35  1  0  0  0  0
M  END
>  <MODEL>
4

>  <REMARK>
 VINA RESULT:      -7.5      4.158      8.470
  Name = 
  5 active torsions:
  status: ('A' for Active; 'I' for Inactive)
    1  A    between atoms: N_2  and  C_35
    2  A    between atoms: C_3  and  C_14
    3  A    between atoms: O_12  and  C_30
    4  A    between atoms: C_17  and  C_23
    5  A    between atoms: C_19  and  C_25
                            x       y       z     vdW  Elec       q    Type
                         _______ _______ _______ _____ _____    ______ ____

>  <TORSDO>
F 5

$$$$
=
 OpenBabel11042416593D

 38 43  0  0  1  0  0  0  0  0999 V2000
  193.1270  174.6610  143.1930 C   0  0  0  0  0  0  0  0  0  0  0  0
  194.9630  173.3330  141.4800 C   0  0  0  0  0  3  0  0  0  0  0  0
  195.6470  177.0780  144.5620 C   0  0  0  0  0  2  0  0  0  0  0  0
  195.4260  174.4080  142.2420 C   0  0  0  0  0  0  0  0  0  0  0  0
  194.4750  175.0460  143.1360 C   0  0  0  0  0  0  0  0  0  0  0  0
  193.6450  172.8830  141.5890 C   0  0  0  0  0  0  0  0  0  0  0  0
  195.0960  176.0400  143.8190 C   0  0  0  0  0  0  0  0  0  0  0  0
  197.3940  175.9130  142.8230 N   0  0  0  0  0  0  0  0  0  0  0  0
  192.7220  173.5760  142.4090 C   0  0  0  0  0  3  0  0  0  0  0  0
  196.8250  174.8610  142.0980 C   0  0  0  0  0  3  0  0  0  0  0  0
  196.4720  176.4220  143.6570 C   0  0  0  0  0  0  0  0  0  0  0  0
  191.4710  171.8720  138.7830 C   0  0  0  0  0  0  0  0  0  0  0  0
  191.4640  172.9330  137.7680 C   0  0  0  0  0  3  0  0  0  0  0  0
  189.0470  171.4880  135.3420 O   0  0  0  0  0  1  0  0  0  0  0  0
  190.4360  170.7900  138.7630 C   0  0  2  0  0  3  0  0  0  0  0  0
  193.2380  171.7850  140.7120 C   0  0  0  0  0  3  0  0  0  0  0  0
  192.3600  171.8830  139.7450 C   0  0  0  0  0  0  0  0  0  0  0  0
  190.9980  169.5590  139.0440 F   0  0  0  0  0  0  0  0  0  0  0  0
  189.7890  171.6530  136.5040 C   0  0  0  0  0  0  0  0  0  0  0  0
  190.6690  172.8550  136.6930 C   0  0  0  0  0  0  0  0  0  0  0  0
  189.7090  170.7040  137.4430 C   0  0  0  0  0  3  0  0  0  0  0  0
  190.7270  173.9070  135.7640 O   0  0  0  0  0  0  0  0  0  0  0  0
  189.7330  174.9160  135.6380 C   0  0  0  0  0  1  0  0  0  0  0  0
  191.7910  175.4630  145.2040 C   0  0  0  0  0  0  0  0  0  0  0  0
  190.7800  176.2850  145.7180 C   0  0  0  0  0  3  0  0  0  0  0  0
  192.1120  175.5320  143.8340 C   0  0  0  0  0  0  0  0  0  0  0  0
  190.3990  177.2330  143.5300 C   0  0  0  0  0  3  0  0  0  0  0  0
  191.4160  176.4270  143.0150 C   0  0  0  0  0  3  0  0  0  0  0  0
  190.0800  177.1760  144.8840 C   0  0  0  0  0  0  0  0  0  0  0  0
  192.5270  174.5450  146.1250 C   0  0  0  0  0  1  0  0  0  0  0  0
  188.9450  177.9160  145.3480 N   0  0  0  0  0  2  0  0  0  0  0  0
  187.2170  176.3680  144.9600 O   0  0  0  0  0  0  0  0  0  0  0  0
  187.5580  177.5530  145.2240 C   0  0  0  0  0  0  0  0  0  0  0  0
  184.0670  178.5080  145.8800 C   0  0  0  0  0  2  0  0  0  0  0  0
  184.4090  179.4160  144.7070 C   0  0  0  0  0  2  0  0  0  0  0  0
  185.3860  177.9930  146.4260 C   0  0  0  0  0  2  0  0  0  0  0  0
  186.4830  178.5570  145.5230 C   0  0  0  0  0  3  0  0  0  0  0  0
  185.7890  178.9820  144.2550 C   0  0  0  0  0  2  0  0  0  0  0  0
  1 26  1  0  0  0  0
  2  6  2  0  0  0  0
  2  4  1  0  0  0  0
  4  5  1  0  0  0  0
  5  1  1  0  0  0  0
  5  7  2  0  0  0  0
  6  9  1  0  0  0  0
  7  3  1  0  0  0  0
  8 11  2  0  0  0  0
  9  1  2  0  0  0  0
 10  4  2  0  0  0  0
 10  8  1  0  0  0  0
 11  7  1  0  0  0  0
 11  3  1  0  0  0  0
 12 17  2  0  0  0  0
 13 12  1  0  0  0  0
 14 19  1  0  0  0  0
 15 12  1  0  0  0  0
 15 18  1  6  0  0  0
 16  6  1  0  0  0  0
 17 16  2  0  0  0  0
 19 20  1  0  0  0  0
 19 21  2  0  0  0  0
 20 13  2  0  0  0  0
 21 15  1  0  0  0  0
 22 20  1  0  0  0  0
 23 22  1  0  0  0  0
 24 25  1  0  0  0  0
 24 30  1  0  0  0  0
 26 24  2  0  0  0  0
 27 29  1  0  0  0  0
 28 27  2  0  0  0  0
 28 26  1  0  0  0  0
 29 31  1  0  0  0  0
 29 25  2  0  0  0  0
 32 33  2  0  0  0  0
 33 31  1  0  0  0  0
 33 37  1  0  0  0  0
 34 36  1  0  0  0  0
 35 34  1  0  0  0  0
 37 36  1  0  0  0  0
 38 35  1  0  0  0  0
 38 37  1  0  0  0  0
M  END
>  <MODEL>
5

>  <REMARK>
 VINA RESULT:      -7.4      3.245      9.069
  Name = 
  5 active torsions:
  status: ('A' for Active; 'I' for Inactive)
    1  A    between atoms: N_2  and  C_35
    2  A    between atoms: C_3  and  C_14
    3  A    between atoms: O_12  and  C_30
    4  A    between atoms: C_17  and  C_23
    5  A    between atoms: C_19  and  C_25
                            x       y       z     vdW  Elec       q    Type
                         _______ _______ _______ _____ _____    ______ ____

>  <TORSDO>
F 5

$$$$
=
 OpenBabel11042416593D

 38 43  0  0  1  0  0  0  0  0999 V2000
  190.2400  176.0920  143.8850 C   0  0  0  0  0  0  0  0  0  0  0  0
  192.9780  176.1500  144.6410 C   0  0  0  0  0  3  0  0  0  0  0  0
  188.9890  175.0500  147.2630 C   0  0  0  0  0  2  0  0  0  0  0  0
  192.0280  175.8260  145.6130 C   0  0  0  0  0  0  0  0  0  0  0  0
  190.6390  175.7690  145.1900 C   0  0  0  0  0  0  0  0  0  0  0  0
  192.6050  176.3900  143.3170 C   0  0  0  0  0  0  0  0  0  0  0  0
  189.8620  175.4100  146.2430 C   0  0  0  0  0  0  0  0  0  0  0  0
  191.5930  175.2350  148.0490 N   0  0  0  0  0  0  0  0  0  0  0  0
  191.2360  176.4070  142.9540 C   0  0  0  0  0  3  0  0  0  0  0  0
  192.4560  175.5820  147.0050 C   0  0  0  0  0  3  0  0  0  0  0  0
  190.3390  175.1580  147.5760 C   0  0  0  0  0  0  0  0  0  0  0  0
  194.6730  175.3280  140.4500 C   0  0  0  0  0  0  0  0  0  0  0  0
  193.8350  174.5990  139.4900 C   0  0  0  0  0  3  0  0  0  0  0  0
  196.4050  173.6470  136.9800 O   0  0  0  0  0  1  0  0  0  0  0  0
  196.1660  175.2520  140.3690 C   0  0  2  0  0  3  0  0  0  0  0  0
  193.6630  176.7750  142.3820 C   0  0  0  0  0  3  0  0  0  0  0  0
  194.1230  176.0200  141.4170 C   0  0  0  0  0  0  0  0  0  0  0  0
  196.7390  176.4910  140.5910 F   0  0  0  0  0  0  0  0  0  0  0  0
  195.8430  174.1330  138.1530 C   0  0  0  0  0  0  0  0  0  0  0  0
  194.3680  174.0180  138.4080 C   0  0  0  0  0  0  0  0  0  0  0  0
  196.6520  174.7210  139.0430 C   0  0  0  0  0  3  0  0  0  0  0  0
  193.4970  173.3470  137.5340 O   0  0  0  0  0  0  0  0  0  0  0  0
  192.1270  173.6840  137.3580 C   0  0  0  0  0  1  0  0  0  0  0  0
  188.0030  175.4770  142.8400 C   0  0  0  0  0  0  0  0  0  0  0  0
  186.6840  175.8390  142.5380 C   0  0  0  0  0  3  0  0  0  0  0  0
  188.8170  176.3670  143.5690 C   0  0  0  0  0  0  0  0  0  0  0  0
  186.9760  177.9550  143.6630 C   0  0  0  0  0  3  0  0  0  0  0  0
  188.2870  177.5950  143.9800 C   0  0  0  0  0  3  0  0  0  0  0  0
  186.1630  177.0800  142.9490 C   0  0  0  0  0  0  0  0  0  0  0  0
  188.5140  174.1430  142.4060 C   0  0  0  0  0  1  0  0  0  0  0  0
  184.8740  177.5370  142.5270 N   0  0  0  0  0  2  0  0  0  0  0  0
  185.2450  177.8450  140.2240 O   0  0  0  0  0  0  0  0  0  0  0  0
  184.5120  178.0470  141.2300 C   0  0  0  0  0  0  0  0  0  0  0  0
  180.9600  178.6020  142.0130 C   0  0  0  0  0  2  0  0  0  0  0  0
  180.8960  178.3140  140.5190 C   0  0  0  0  0  2  0  0  0  0  0  0
  182.4130  178.9070  142.3310 C   0  0  0  0  0  2  0  0  0  0  0  0
  183.1920  178.7320  141.0270 C   0  0  0  0  0  3  0  0  0  0  0  0
  182.3030  177.9120  140.1280 C   0  0  0  0  0  2  0  0  0  0  0  0
  1  5  1  0  0  0  0
  2  4  1  0  0  0  0
  3 11  1  0  0  0  0
  4 10  1  0  0  0  0
  5  4  2  0  0  0  0
  5  7  1  0  0  0  0
  6  2  2  0  0  0  0
  7  3  1  0  0  0  0
  7 11  2  0  0  0  0
  9  6  1  0  0  0  0
  9  1  2  0  0  0  0
 10  8  2  0  0  0  0
 11  8  1  0  0  0  0
 12 17  2  0  0  0  0
 13 12  1  0  0  0  0
 14 19  1  0  0  0  0
 15 12  1  0  0  0  0
 15 18  1  6  0  0  0
 16  6  1  0  0  0  0
 17 16  2  0  0  0  0
 19 20  1  0  0  0  0
 19 21  2  0  0  0  0
 20 13  2  0  0  0  0
 21 15  1  0  0  0  0
 22 20  1  0  0  0  0
 23 22  1  0  0  0  0
 24 26  1  0  0  0  0
 25 24  2  0  0  0  0
 25 29  1  0  0  0  0
 26  1  1  0  0  0  0
 26 28  2  0  0  0  0
 27 28  1  0  0  0  0
 29 27  2  0  0  0  0
 30 24  1  0  0  0  0
 31 29  1  0  0  0  0
 32 33  2  0  0  0  0
 33 31  1  0  0  0  0
 34 36  1  0  0  0  0
 35 34  1  0  0  0  0
 37 33  1  0  0  0  0
 37 36  1  0  0  0  0
 38 35  1  0  0  0  0
 38 37  1  0  0  0  0
M  END
>  <MODEL>
6

>  <REMARK>
 VINA RESULT:      -7.4      4.041      9.313
  Name = 
  5 active torsions:
  status: ('A' for Active; 'I' for Inactive)
    1  A    between atoms: N_2  and  C_35
    2  A    between atoms: C_3  and  C_14
    3  A    between atoms: O_12  and  C_30
    4  A    between atoms: C_17  and  C_23
    5  A    between atoms: C_19  and  C_25
                            x       y       z     vdW  Elec       q    Type
                         _______ _______ _______ _____ _____    ______ ____

>  <TORSDO>
F 5

$$$$
=
 OpenBabel11042416593D

 38 43  0  0  1  0  0  0  0  0999 V2000
  191.8060  174.7880  143.9050 C   0  0  0  0  0  0  0  0  0  0  0  0
  191.2060  176.0710  146.3670 C   0  0  0  0  0  3  0  0  0  0  0  0
  195.3950  175.8720  143.8370 C   0  0  0  0  0  2  0  0  0  0  0  0
  192.5120  176.1510  145.8790 C   0  0  0  0  0  0  0  0  0  0  0  0
  192.7820  175.5160  144.6000 C   0  0  0  0  0  0  0  0  0  0  0  0
  190.2010  175.4230  145.6450 C   0  0  0  0  0  0  0  0  0  0  0  0
  194.0810  175.7170  144.2630 C   0  0  0  0  0  0  0  0  0  0  0  0
  194.8820  176.9910  146.2690 N   0  0  0  0  0  0  0  0  0  0  0  0
  190.5150  174.7440  144.4420 C   0  0  0  0  0  3  0  0  0  0  0  0
  193.5510  176.8400  146.6710 C   0  0  0  0  0  3  0  0  0  0  0  0
  195.0450  176.4220  145.0640 C   0  0  0  0  0  0  0  0  0  0  0  0
  186.9040  177.0440  145.9980 C   0  0  0  0  0  0  0  0  0  0  0  0
  186.4700  177.5500  144.6900 C   0  0  0  0  0  3  0  0  0  0  0  0
  183.2760  179.1860  145.6590 O   0  0  0  0  0  1  0  0  0  0  0  0
  186.2340  177.5050  147.2550 C   0  0  2  0  0  3  0  0  0  0  0  0
  188.8770  175.3450  146.2610 C   0  0  0  0  0  3  0  0  0  0  0  0
  187.9130  176.2130  146.0840 C   0  0  0  0  0  0  0  0  0  0  0  0
  186.0430  176.4520  148.1310 F   0  0  0  0  0  0  0  0  0  0  0  0
  184.5040  178.5470  145.7770 C   0  0  0  0  0  0  0  0  0  0  0  0
  185.3480  178.2710  144.5660 C   0  0  0  0  0  0  0  0  0  0  0  0
  184.9050  178.1710  146.9960 C   0  0  0  0  0  3  0  0  0  0  0  0
  184.9970  178.7120  143.2790 O   0  0  0  0  0  0  0  0  0  0  0  0
  184.1170  178.0130  142.4090 C   0  0  0  0  0  1  0  0  0  0  0  0
  192.6760  172.5680  143.0180 C   0  0  0  0  0  0  0  0  0  0  0  0
  193.0580  171.7850  141.9210 C   0  0  0  0  0  3  0  0  0  0  0  0
  192.1800  173.8690  142.8030 C   0  0  0  0  0  0  0  0  0  0  0  0
  192.4710  173.5710  140.4050 C   0  0  0  0  0  3  0  0  0  0  0  0
  192.0750  174.3510  141.4930 C   0  0  0  0  0  3  0  0  0  0  0  0
  192.9560  172.2820  140.6080 C   0  0  0  0  0  0  0  0  0  0  0  0
  192.7780  171.9980  144.3950 C   0  0  0  0  0  1  0  0  0  0  0  0
  193.4770  171.5650  139.4840 N   0  0  0  0  0  2  0  0  0  0  0  0
  195.7600  172.1120  139.6280 O   0  0  0  0  0  0  0  0  0  0  0  0
  194.8110  171.6330  138.9490 C   0  0  0  0  0  0  0  0  0  0  0  0
  196.1900  168.9820  136.8030 C   0  0  0  0  0  2  0  0  0  0  0  0
  196.9260  170.2060  136.2760 C   0  0  0  0  0  2  0  0  0  0  0  0
  195.0210  169.5010  137.6210 C   0  0  0  0  0  2  0  0  0  0  0  0
  195.1240  171.0250  137.6130 C   0  0  0  0  0  3  0  0  0  0  0  0
  196.5430  171.3360  137.2090 C   0  0  0  0  0  2  0  0  0  0  0  0
  1  9  2  0  0  0  0
  1  5  1  0  0  0  0
  3  7  1  0  0  0  0
  3 11  1  0  0  0  0
  4  2  1  0  0  0  0
  4 10  1  0  0  0  0
  5  4  2  0  0  0  0
  6 16  1  0  0  0  0
  6  2  2  0  0  0  0
  7  5  1  0  0  0  0
  7 11  2  0  0  0  0
  8 10  2  0  0  0  0
  9  6  1  0  0  0  0
 11  8  1  0  0  0  0
 12 17  2  0  0  0  0
 12 15  1  0  0  0  0
 13 12  1  0  0  0  0
 14 19  1  0  0  0  0
 15 18  1  1  0  0  0
 17 16  2  0  0  0  0
 19 21  2  0  0  0  0
 20 13  2  0  0  0  0
 20 19  1  0  0  0  0
 21 15  1  0  0  0  0
 22 20  1  0  0  0  0
 23 22  1  0  0  0  0
 24 30  1  0  0  0  0
 25 24  2  0  0  0  0
 26 24  1  0  0  0  0
 26  1  1  0  0  0  0
 27 29  2  0  0  0  0
 27 28  1  0  0  0  0
 28 26  2  0  0  0  0
 29 25  1  0  0  0  0
 31 29  1  0  0  0  0
 33 31  1  0  0  0  0
 33 32  2  0  0  0  0
 34 36  1  0  0  0  0
 35 34  1  0  0  0  0
 35 38  1  0  0  0  0
 37 36  1  0  0  0  0
 37 33  1  0  0  0  0
 38 37  1  0  0  0  0
M  END
>  <MODEL>
7

>  <REMARK>
 VINA RESULT:      -7.3      2.111      2.343
  Name = 
  5 active torsions:
  status: ('A' for Active; 'I' for Inactive)
    1  A    between atoms: N_2  and  C_35
    2  A    between atoms: C_3  and  C_14
    3  A    between atoms: O_12  and  C_30
    4  A    between atoms: C_17  and  C_23
    5  A    between atoms: C_19  and  C_25
                            x       y       z     vdW  Elec       q    Type
                         _______ _______ _______ _____ _____    ______ ____

>  <TORSDO>
F 5

$$$$
=
 OpenBabel11042416593D

 38 43  0  0  1  0  0  0  0  0999 V2000
  187.6120  177.1440  142.7840 C   0  0  0  0  0  0  0  0  0  0  0  0
  185.1890  177.8500  141.4800 C   0  0  0  0  0  3  0  0  0  0  0  0
  186.6030  178.5250  146.1210 C   0  0  0  0  0  2  0  0  0  0  0  0
  185.3190  178.1390  142.8410 C   0  0  0  0  0  0  0  0  0  0  0  0
  186.5820  177.7990  143.4740 C   0  0  0  0  0  0  0  0  0  0  0  0
  186.2380  177.2760  140.7590 C   0  0  0  0  0  0  0  0  0  0  0  0
  186.5470  178.1750  144.7770 C   0  0  0  0  0  0  0  0  0  0  0  0
  184.2160  179.0850  144.9290 N   0  0  0  0  0  0  0  0  0  0  0  0
  187.4260  176.8830  141.4220 C   0  0  0  0  0  3  0  0  0  0  0  0
  184.1870  178.7420  143.5740 C   0  0  0  0  0  3  0  0  0  0  0  0
  185.4240  178.7850  145.4340 C   0  0  0  0  0  0  0  0  0  0  0  0
  187.5980  175.7240  137.6980 C   0  0  0  0  0  0  0  0  0  0  0  0
  188.2790  174.4730  138.0500 C   0  0  0  0  0  3  0  0  0  0  0  0
  189.5620  173.4740  134.7080 O   0  0  0  0  0  1  0  0  0  0  0  0
  187.8170  176.3620  136.3610 C   0  0  2  0  0  3  0  0  0  0  0  0
  185.9900  176.9620  139.3520 C   0  0  0  0  0  3  0  0  0  0  0  0
  186.8210  176.3220  138.5680 C   0  0  0  0  0  0  0  0  0  0  0  0
  186.6300  176.8440  135.8400 F   0  0  0  0  0  0  0  0  0  0  0  0
  188.9820  174.2450  135.7070 C   0  0  0  0  0  0  0  0  0  0  0  0
  188.9470  173.7670  137.1290 C   0  0  0  0  0  0  0  0  0  0  0  0
  188.4410  175.4190  135.3610 C   0  0  0  0  0  3  0  0  0  0  0  0
  189.5660  172.5760  137.5450 O   0  0  0  0  0  0  0  0  0  0  0  0
  189.1500  171.8110  138.6690 C   0  0  0  0  0  1  0  0  0  0  0  0
  189.9780  177.1230  143.7170 C   0  0  0  0  0  0  0  0  0  0  0  0
  191.0000  176.4240  144.3720 C   0  0  0  0  0  3  0  0  0  0  0  0
  188.7310  176.5010  143.5150 C   0  0  0  0  0  0  0  0  0  0  0  0
  189.5640  174.4980  144.6180 C   0  0  0  0  0  3  0  0  0  0  0  0
  188.5360  175.1960  143.9790 C   0  0  0  0  0  3  0  0  0  0  0  0
  190.7980  175.1070  144.8270 C   0  0  0  0  0  0  0  0  0  0  0  0
  190.2240  178.5260  143.2670 C   0  0  0  0  0  1  0  0  0  0  0  0
  191.8660  174.3180  145.3620 N   0  0  0  0  0  2  0  0  0  0  0  0
  192.8610  173.5200  143.3860 O   0  0  0  0  0  0  0  0  0  0  0  0
  192.7460  173.4390  144.6390 C   0  0  0  0  0  0  0  0  0  0  0  0
  195.9820  171.8060  145.2710 C   0  0  0  0  0  2  0  0  0  0  0  0
  195.0750  170.6020  145.0670 C   0  0  0  0  0  2  0  0  0  0  0  0
  195.0710  172.9970  145.5090 C   0  0  0  0  0  2  0  0  0  0  0  0
  193.6370  172.4830  145.3790 C   0  0  0  0  0  3  0  0  0  0  0  0
  193.7390  171.1740  144.6380 C   0  0  0  0  0  2  0  0  0  0  0  0
  1  5  1  0  0  0  0
  1 26  1  0  0  0  0
  2  4  1  0  0  0  0
  4  5  2  0  0  0  0
  4 10  1  0  0  0  0
  5  7  1  0  0  0  0
  6  9  1  0  0  0  0
  6  2  2  0  0  0  0
  7 11  2  0  0  0  0
  7  3  1  0  0  0  0
  8 11  1  0  0  0  0
  9  1  2  0  0  0  0
 10  8  2  0  0  0  0
 11  3  1  0  0  0  0
 12 13  1  0  0  0  0
 12 17  2  0  0  0  0
 14 19  1  0  0  0  0
 15 18  1  6  0  0  0
 15 12  1  0  0  0  0
 16  6  1  0  0  0  0
 17 16  2  0  0  0  0
 19 20  1  0  0  0  0
 20 22  1  0  0  0  0
 20 13  2  0  0  0  0
 21 19  2  0  0  0  0
 21 15  1  0  0  0  0
 22 23  1  0  0  0  0
 24 25  1  0  0  0  0
 25 29  2  0  0  0  0
 26 24  2  0  0  0  0
 26 28  1  0  0  0  0
 27 29  1  0  0  0  0
 28 27  2  0  0  0  0
 29 31  1  0  0  0  0
 30 24  1  0  0  0  0
 32 33  2  0  0  0  0
 33 31  1  0  0  0  0
 33 37  1  0  0  0  0
 34 36  1  0  0  0  0
 35 34  1  0  0  0  0
 37 36  1  0  0  0  0
 38 35  1  0  0  0  0
 38 37  1  0  0  0  0
M  END
>  <MODEL>
8

>  <REMARK>
 VINA RESULT:      -7.2      4.121      8.669
  Name = 
  5 active torsions:
  status: ('A' for Active; 'I' for Inactive)
    1  A    between atoms: N_2  and  C_35
    2  A    between atoms: C_3  and  C_14
    3  A    between atoms: O_12  and  C_30
    4  A    between atoms: C_17  and  C_23
    5  A    between atoms: C_19  and  C_25
                            x       y       z     vdW  Elec       q    Type
                         _______ _______ _______ _____ _____    ______ ____

>  <TORSDO>
F 5

$$$$
=
 OpenBabel11042416593D

 38 43  0  0  1  0  0  0  0  0999 V2000
  187.1470  177.7850  143.8410 C   0  0  0  0  0  0  0  0  0  0  0  0
  184.3820  178.4020  143.6300 C   0  0  0  0  0  3  0  0  0  0  0  0
  187.2550  178.0380  147.5810 C   0  0  0  0  0  2  0  0  0  0  0  0
  184.9520  178.3350  144.9040 C   0  0  0  0  0  0  0  0  0  0  0  0
  186.3750  178.0520  144.9810 C   0  0  0  0  0  0  0  0  0  0  0  0
  185.1560  178.2240  142.4810 C   0  0  0  0  0  0  0  0  0  0  0  0
  186.7650  178.0560  146.2800 C   0  0  0  0  0  0  0  0  0  0  0  0
  184.5720  178.4940  147.4150 N   0  0  0  0  0  0  0  0  0  0  0  0
  186.5230  177.8690  142.5920 C   0  0  0  0  0  3  0  0  0  0  0  0
  184.1030  178.5250  146.0980 C   0  0  0  0  0  3  0  0  0  0  0  0
  185.8970  178.2740  147.4050 C   0  0  0  0  0  0  0  0  0  0  0  0
  181.8810  178.1310  140.7810 C   0  0  0  0  0  0  0  0  0  0  0  0
  180.9210  178.9490  141.5320 C   0  0  0  0  0  3  0  0  0  0  0  0
  177.8540  178.3550  139.5190 O   0  0  0  0  0  1  0  0  0  0  0  0
  181.4080  177.1580  139.7460 C   0  0  2  0  0  3  0  0  0  0  0  0
  184.4630  178.2600  141.1940 C   0  0  0  0  0  3  0  0  0  0  0  0
  183.1630  178.2110  141.0390 C   0  0  0  0  0  0  0  0  0  0  0  0
  182.2220  177.1870  138.6280 F   0  0  0  0  0  0  0  0  0  0  0  0
  179.1580  178.2270  139.9810 C   0  0  0  0  0  0  0  0  0  0  0  0
  179.6310  178.9980  141.1790 C   0  0  0  0  0  0  0  0  0  0  0  0
  179.9830  177.4090  139.3180 C   0  0  0  0  0  3  0  0  0  0  0  0
  178.7780  179.8120  141.9440 O   0  0  0  0  0  0  0  0  0  0  0  0
  178.0630  179.3640  143.0880 C   0  0  0  0  0  1  0  0  0  0  0  0
  188.7760  175.8580  143.5140 C   0  0  0  0  0  0  0  0  0  0  0  0
  190.0570  175.3280  143.7120 C   0  0  0  0  0  3  0  0  0  0  0  0
  188.4890  177.1640  143.9580 C   0  0  0  0  0  0  0  0  0  0  0  0
  190.7660  177.3680  144.7930 C   0  0  0  0  0  3  0  0  0  0  0  0
  189.4950  177.9080  144.5850 C   0  0  0  0  0  3  0  0  0  0  0  0
  191.0600  176.0810  144.3510 C   0  0  0  0  0  0  0  0  0  0  0  0
  187.7450  175.0370  142.8120 C   0  0  0  0  0  1  0  0  0  0  0  0
  192.3270  175.5140  144.7010 N   0  0  0  0  0  2  0  0  0  0  0  0
  193.5340  177.4480  145.2820 O   0  0  0  0  0  0  0  0  0  0  0  0
  193.5460  176.2200  144.9950 C   0  0  0  0  0  0  0  0  0  0  0  0
  196.5500  174.7010  143.5100 C   0  0  0  0  0  2  0  0  0  0  0  0
  195.9780  173.5270  144.2930 C   0  0  0  0  0  2  0  0  0  0  0  0
  195.8630  175.9470  144.0380 C   0  0  0  0  0  2  0  0  0  0  0  0
  194.8490  175.4790  145.0810 C   0  0  0  0  0  3  0  0  0  0  0  0
  194.6400  174.0100  144.8170 C   0  0  0  0  0  2  0  0  0  0  0  0
  1 26  1  0  0  0  0
  1  5  1  0  0  0  0
  2  4  1  0  0  0  0
  4  5  2  0  0  0  0
  4 10  1  0  0  0  0
  5  7  1  0  0  0  0
  6  9  1  0  0  0  0
  6  2  2  0  0  0  0
  7 11  2  0  0  0  0
  7  3  1  0  0  0  0
  9  1  2  0  0  0  0
 10  8  2  0  0  0  0
 11  8  1  0  0  0  0
 11  3  1  0  0  0  0
 12 17  2  0  0  0  0
 12 13  1  0  0  0  0
 14 19  1  0  0  0  0
 15 18  1  6  0  0  0
 15 12  1  0  0  0  0
 16  6  1  0  0  0  0
 17 16  2  0  0  0  0
 19 20  1  0  0  0  0
 20 13  2  0  0  0  0
 20 22  1  0  0  0  0
 21 15  1  0  0  0  0
 21 19  2  0  0  0  0
 22 23  1  0  0  0  0
 24 25  2  0  0  0  0
 24 26  1  0  0  0  0
 25 29  1  0  0  0  0
 26 28  2  0  0  0  0
 28 27  1  0  0  0  0
 29 31  1  0  0  0  0
 29 27  2  0  0  0  0
 30 24  1  0  0  0  0
 31 33  1  0  0  0  0
 33 37  1  0  0  0  0
 33 32  2  0  0  0  0
 34 36  1  0  0  0  0
 34 35  1  0  0  0  0
 35 38  1  0  0  0  0
 36 37  1  0  0  0  0
 38 37  1  0  0  0  0
M  END
>  <MODEL>
9

>  <REMARK>
 VINA RESULT:      -7.2      5.084      8.099
  Name = 
  5 active torsions:
  status: ('A' for Active; 'I' for Inactive)
    1  A    between atoms: N_2  and  C_35
    2  A    between atoms: C_3  and  C_14
    3  A    between atoms: O_12  and  C_30
    4  A    between atoms: C_17  and  C_23
    5  A    between atoms: C_19  and  C_25
                            x       y       z     vdW  Elec       q    Type
                         _______ _______ _______ _____ _____    ______ ____

>  <TORSDO>
F 5

$$$$
