=
 OpenBabel11042417593D

 36 42  0  0  1  0  0  0  0  0999 V2000
  185.8670  178.4790  143.4170 C   0  0  2  0  0  3  0  0  0  0  0  0
  187.1060  177.7070  143.9580 C   0  0  2  0  0  3  0  0  0  0  0  0
  187.4800  176.2270  139.8130 N   0  0  0  0  0  2  0  0  0  0  0  0
  190.2710  173.9770  143.2710 C   0  0  2  0  0  3  0  0  0  0  0  0
  189.5820  173.9940  140.4700 C   0  0  0  0  0  0  0  0  0  0  0  0
  188.7060  173.5750  138.1180 O   0  0  0  0  0  0  0  0  0  0  0  0
  186.6300  177.2410  139.9670 N   0  0  0  0  0  0  0  0  0  0  0  0
  187.1630  176.2660  143.4010 C   0  0  2  0  0  3  0  0  0  0  0  0
  186.2840  177.2860  141.2680 C   0  0  0  0  0  0  0  0  0  0  0  0
  191.8250  174.5850  141.3290 C   0  0  0  0  0  2  0  0  0  0  0  0
  187.6640  175.6470  141.0200 C   0  0  0  0  0  0  0  0  0  0  0  0
  189.1310  173.7770  139.2620 C   0  0  0  0  0  0  0  0  0  0  0  0
  190.9460  173.4590  140.8020 C   0  0  1  0  0  3  0  0  0  0  0  0
  191.3490  173.4980  142.2770 C   0  0  2  0  0  3  0  0  0  0  0  0
  185.8150  178.4490  141.9490 N   0  0  0  0  0  2  0  0  0  0  0  0
  185.8900  179.9250  143.8780 C   0  0  0  0  0  1  0  0  0  0  0  0
  188.4340  175.6450  143.6630 O   0  0  0  0  0  0  0  0  0  0  0  0
  189.1440  174.8320  142.7420 C   0  0  0  0  0  0  0  0  0  0  0  0
  188.7960  174.7960  141.4360 C   0  0  0  0  0  0  0  0  0  0  0  0
  186.9060  176.2900  141.9400 C   0  0  0  0  0  0  0  0  0  0  0  0
  191.3800  174.9280  146.5450 N   0  0  0  0  0  0  0  0  0  0  0  0
  190.8890  174.5750  144.4950 C   0  0  0  0  0  0  0  0  0  0  0  0
  192.1400  175.6830  145.7290 C   0  0  0  0  0  0  0  0  0  0  0  0
  191.8480  175.4700  144.4700 O   0  0  0  0  0  0  0  0  0  0  0  0
  190.5820  174.2210  145.7600 N   0  0  0  0  0  0  0  0  0  0  0  0
  194.5670  176.0630  146.2730 N   0  0  0  0  0  0  0  0  0  0  0  0
  193.2200  176.6240  146.1940 C   0  0  1  0  0  3  0  0  0  0  0  0
  194.1310  176.8320  145.2050 O   0  0  0  0  0  0  0  0  0  0  0  0
  194.6930  174.6950  145.7730 C   0  0  0  0  0  2  0  0  0  0  0  0
  196.1470  174.2720  145.8120 C   0  0  0  0  0  1  0  0  0  0  0  0
  187.0950  177.6660  145.4810 C   0  0  0  0  0  2  0  0  0  0  0  0
  186.0610  176.6930  145.9590 C   0  0  0  0  0  3  0  0  0  0  0  0
  184.9950  177.0580  146.6780 C   0  0  0  0  0  3  0  0  0  0  0  0
  184.7230  178.4740  147.0950 C   0  0  0  0  0  2  0  0  0  0  0  0
  185.7400  178.9490  148.0820 C   0  0  0  0  0  3  0  0  0  0  0  0
  186.1810  180.0860  148.0240 O   0  0  0  0  0  0  0  0  0  0  0  0
  1 16  1  6  0  0  0
  1  2  1  0  0  0  0
  2 31  1  1  0  0  0
  3  7  1  0  0  0  0
  3 11  1  0  0  0  0
  4 22  1  1  0  0  0
  5 13  1  0  0  0  0
  5 19  1  0  0  0  0
  6 12  2  0  0  0  0
  7  9  2  0  0  0  0
  8 20  1  6  0  0  0
  8 17  1  0  0  0  0
  8  2  1  0  0  0  0
  9 20  1  0  0  0  0
  9 15  1  0  0  0  0
 11 19  1  0  0  0  0
 11 20  2  0  0  0  0
 12  5  2  0  0  0  0
 13 10  1  6  0  0  0
 13 14  1  0  0  0  0
 14 10  1  6  0  0  0
 14  4  1  0  0  0  0
 15  1  1  0  0  0  0
 18  4  1  0  0  0  0
 18 17  1  0  0  0  0
 19 18  2  0  0  0  0
 22 25  2  0  0  0  0
 23 21  2  0  0  0  0
 24 22  1  0  0  0  0
 24 23  1  0  0  0  0
 25 21  1  0  0  0  0
 27 23  1  6  0  0  0
 27 26  1  0  0  0  0
 28 27  1  0  0  0  0
 28 26  1  0  0  0  0
 29 30  1  0  0  0  0
 29 26  1  0  0  0  0
 31 32  1  0  0  0  0
 32 33  2  0  0  0  0
 33 34  1  0  0  0  0
 34 35  1  0  0  0  0
 36 35  2  0  0  0  0
M  END
>  <MODEL>
1

>  <REMARK>
 VINA RESULT:      -7.8      0.000      0.000
  Name = 
  7 active torsions:
  status: ('A' for Active; 'I' for Inactive)
    1  A    between atoms: C_3  and  C_6
    2  A    between atoms: C_4  and  C_29
    3  A    between atoms: C_11  and  C_23
    4  A    between atoms: C_12  and  C_22
    5  A    between atoms: N_16  and  C_28
    6  A    between atoms: C_23  and  C_36
    7  A    between atoms: C_29  and  C_33
                            x       y       z     vdW  Elec       q    Type
                         _______ _______ _______ _____ _____    ______ ____

>  <TORSDO>
F 7

$$$$
=
 OpenBabel11042417593D

 36 42  0  0  1  0  0  0  0  0999 V2000
  186.4580  178.1120  147.6770 C   0  0  2  0  0  3  0  0  0  0  0  0
  187.3120  177.5500  146.5030 C   0  0  2  0  0  3  0  0  0  0  0  0
  184.0570  179.0900  143.9440 N   0  0  0  0  0  2  0  0  0  0  0  0
  187.3870  176.0760  141.7890 C   0  0  2  0  0  3  0  0  0  0  0  0
  184.9870  177.6110  141.3390 C   0  0  0  0  0  0  0  0  0  0  0  0
  182.6350  178.4980  140.9380 O   0  0  0  0  0  0  0  0  0  0  0  0
  184.0200  179.5130  145.2060 N   0  0  0  0  0  0  0  0  0  0  0  0
  186.4290  176.8380  145.4520 C   0  0  2  0  0  3  0  0  0  0  0  0
  184.7520  178.6560  145.9440 C   0  0  0  0  0  0  0  0  0  0  0  0
  187.1650  178.1430  140.2940 C   0  0  0  0  0  2  0  0  0  0  0  0
  184.8170  177.9720  143.8990 C   0  0  0  0  0  0  0  0  0  0  0  0
  183.7780  178.0650  141.1320 C   0  0  0  0  0  0  0  0  0  0  0  0
  185.8530  177.3880  140.1320 C   0  0  1  0  0  3  0  0  0  0  0  0
  187.1590  176.6260  140.3660 C   0  0  2  0  0  3  0  0  0  0  0  0
  185.3730  178.9730  147.1890 N   0  0  0  0  0  2  0  0  0  0  0  0
  187.3220  178.9090  148.6380 C   0  0  0  0  0  1  0  0  0  0  0  0
  187.1580  176.5670  144.2420 O   0  0  0  0  0  0  0  0  0  0  0  0
  186.6390  176.7230  142.9300 C   0  0  0  0  0  0  0  0  0  0  0  0
  185.4890  177.3990  142.7160 C   0  0  0  0  0  0  0  0  0  0  0  0
  185.2450  177.6780  145.1490 C   0  0  0  0  0  0  0  0  0  0  0  0
  190.8370  176.4260  142.6980 N   0  0  0  0  0  0  0  0  0  0  0  0
  188.8460  175.9420  142.0910 C   0  0  0  0  0  0  0  0  0  0  0  0
  190.7150  175.1080  142.4470 C   0  0  0  0  0  0  0  0  0  0  0  0
  189.4960  174.8030  142.0770 O   0  0  0  0  0  0  0  0  0  0  0  0
  189.6460  176.9580  142.4710 N   0  0  0  0  0  0  0  0  0  0  0  0
  191.7820  173.2950  143.8270 N   0  0  0  0  0  0  0  0  0  0  0  0
  191.8220  174.1010  142.6080 C   0  0  1  0  0  3  0  0  0  0  0  0
  191.3220  172.8350  142.6020 O   0  0  0  0  0  0  0  0  0  0  0  0
  190.5990  173.5020  144.6610 C   0  0  0  0  0  2  0  0  0  0  0  0
  189.8210  172.2070  144.7700 C   0  0  0  0  0  1  0  0  0  0  0  0
  188.3730  176.5850  147.0190 C   0  0  0  0  0  2  0  0  0  0  0  0
  189.6140  176.6990  146.1870 C   0  0  0  0  0  3  0  0  0  0  0  0
  190.8450  176.6440  146.7050 C   0  0  0  0  0  3  0  0  0  0  0  0
  191.1190  176.4740  148.1710 C   0  0  0  0  0  2  0  0  0  0  0  0
  191.4170  177.7880  148.8180 C   0  0  0  0  0  3  0  0  0  0  0  0
  191.5600  177.8680  150.0280 O   0  0  0  0  0  0  0  0  0  0  0  0
  1 16  1  1  0  0  0
  2 31  1  1  0  0  0
  2  1  1  0  0  0  0
  3  7  1  0  0  0  0
  4 22  1  1  0  0  0
  4 18  1  0  0  0  0
  5 19  1  0  0  0  0
  6 12  2  0  0  0  0
  7  9  2  0  0  0  0
  8 17  1  6  0  0  0
  8  2  1  0  0  0  0
  9 15  1  0  0  0  0
 11  3  1  0  0  0  0
 11 20  2  0  0  0  0
 12  5  2  0  0  0  0
 13 10  1  1  0  0  0
 13 14  1  0  0  0  0
 13  5  1  0  0  0  0
 14 10  1  1  0  0  0
 14  4  1  0  0  0  0
 15  1  1  0  0  0  0
 18 17  1  0  0  0  0
 19 18  2  0  0  0  0
 19 11  1  0  0  0  0
 20  8  1  0  0  0  0
 20  9  1  0  0  0  0
 22 25  2  0  0  0  0
 23 21  2  0  0  0  0
 24 22  1  0  0  0  0
 24 23  1  0  0  0  0
 25 21  1  0  0  0  0
 26 29  1  0  0  0  0
 27 23  1  1  0  0  0
 27 26  1  0  0  0  0
 28 27  1  0  0  0  0
 28 26  1  0  0  0  0
 29 30  1  0  0  0  0
 32 33  2  0  0  0  0
 32 31  1  0  0  0  0
 33 34  1  0  0  0  0
 34 35  1  0  0  0  0
 35 36  2  0  0  0  0
M  END
>  <MODEL>
2

>  <REMARK>
 VINA RESULT:      -7.7      2.748      5.040
  Name = 
  7 active torsions:
  status: ('A' for Active; 'I' for Inactive)
    1  A    between atoms: C_3  and  C_6
    2  A    between atoms: C_4  and  C_29
    3  A    between atoms: C_11  and  C_23
    4  A    between atoms: C_12  and  C_22
    5  A    between atoms: N_16  and  C_28
    6  A    between atoms: C_23  and  C_36
    7  A    between atoms: C_29  and  C_33
                            x       y       z     vdW  Elec       q    Type
                         _______ _______ _______ _____ _____    ______ ____

>  <TORSDO>
F 7

$$$$
=
 OpenBabel11042417593D

 36 42  0  0  1  0  0  0  0  0999 V2000
  186.9370  177.3140  145.7070 C   0  0  2  0  0  3  0  0  0  0  0  0
  187.5730  176.4200  144.6030 C   0  0  2  0  0  3  0  0  0  0  0  0
  191.2470  176.7460  147.0360 N   0  0  0  0  0  2  0  0  0  0  0  0
  191.7330  174.8380  142.4600 C   0  0  2  0  0  3  0  0  0  0  0  0
  193.1680  175.5690  144.8530 C   0  0  0  0  0  0  0  0  0  0  0  0
  194.6030  176.6170  146.6750 O   0  0  0  0  0  0  0  0  0  0  0  0
  190.1380  177.1670  147.6420 N   0  0  0  0  0  0  0  0  0  0  0  0
  188.9930  176.9050  144.2300 C   0  0  2  0  0  3  0  0  0  0  0  0
  189.2260  177.4290  146.6860 C   0  0  0  0  0  0  0  0  0  0  0  0
  192.9130  173.2360  144.0720 C   0  0  0  0  0  2  0  0  0  0  0  0
  191.0190  176.7420  145.7030 C   0  0  0  0  0  0  0  0  0  0  0  0
  193.9060  176.1080  145.7880 C   0  0  0  0  0  0  0  0  0  0  0  0
  193.7910  174.4790  144.0280 C   0  0  1  0  0  3  0  0  0  0  0  0
  193.0120  174.0390  142.7870 C   0  0  2  0  0  3  0  0  0  0  0  0
  187.8130  177.4240  146.8810 N   0  0  0  0  0  2  0  0  0  0  0  0
  185.5950  176.7560  146.1460 C   0  0  0  0  0  1  0  0  0  0  0  0
  189.6930  175.9360  143.4300 O   0  0  0  0  0  0  0  0  0  0  0  0
  191.0630  175.5980  143.5790 C   0  0  0  0  0  0  0  0  0  0  0  0
  191.7550  175.9790  144.6760 C   0  0  0  0  0  0  0  0  0  0  0  0
  189.7620  177.1860  145.4670 C   0  0  0  0  0  0  0  0  0  0  0  0
  189.5130  172.3620  141.1210 N   0  0  0  0  0  0  0  0  0  0  0  0
  190.7540  174.0040  141.6950 C   0  0  0  0  0  0  0  0  0  0  0  0
  189.2760  173.4400  140.3490 C   0  0  0  0  0  0  0  0  0  0  0  0
  190.0310  174.4520  140.6970 O   0  0  0  0  0  0  0  0  0  0  0  0
  190.4550  172.7200  141.9790 N   0  0  0  0  0  0  0  0  0  0  0  0
  188.7650  173.4580  137.8850 N   0  0  0  0  0  0  0  0  0  0  0  0
  188.2470  173.4970  139.2510 C   0  0  1  0  0  3  0  0  0  0  0  0
  188.2530  172.3420  138.5310 O   0  0  0  0  0  0  0  0  0  0  0  0
  190.2080  173.2490  137.7810 C   0  0  0  0  0  2  0  0  0  0  0  0
  190.7810  174.1720  136.7260 C   0  0  0  0  0  1  0  0  0  0  0  0
  186.6970  176.3930  143.3570 C   0  0  0  0  0  2  0  0  0  0  0  0
  186.8330  177.6840  142.6090 C   0  0  0  0  0  3  0  0  0  0  0  0
  185.7910  178.4690  142.3170 C   0  0  0  0  0  3  0  0  0  0  0  0
  184.3760  178.1400  142.6930 C   0  0  0  0  0  2  0  0  0  0  0  0
  183.9330  178.9420  143.8730 C   0  0  0  0  0  3  0  0  0  0  0  0
  184.6430  179.8250  144.3280 O   0  0  0  0  0  0  0  0  0  0  0  0
  1 16  1  1  0  0  0
  1 15  1  0  0  0  0
  2 31  1  6  0  0  0
  2  1  1  0  0  0  0
  3  7  1  0  0  0  0
  4 22  1  1  0  0  0
  4 14  1  0  0  0  0
  4 18  1  0  0  0  0
  5 12  2  0  0  0  0
  8 17  1  1  0  0  0
  8  2  1  0  0  0  0
  8 20  1  0  0  0  0
  9 15  1  0  0  0  0
  9  7  2  0  0  0  0
 11  3  1  0  0  0  0
 12  6  2  0  0  0  0
 13 10  1  1  0  0  0
 13  5  1  0  0  0  0
 14 13  1  0  0  0  0
 14 10  1  1  0  0  0
 17 18  1  0  0  0  0
 18 19  2  0  0  0  0
 19  5  1  0  0  0  0
 19 11  1  0  0  0  0
 20 11  2  0  0  0  0
 20  9  1  0  0  0  0
 21 25  1  0  0  0  0
 22 25  2  0  0  0  0
 23 24  1  0  0  0  0
 23 21  2  0  0  0  0
 24 22  1  0  0  0  0
 26 28  1  0  0  0  0
 26 27  1  0  0  0  0
 27 23  1  1  0  0  0
 28 27  1  0  0  0  0
 29 26  1  0  0  0  0
 30 29  1  0  0  0  0
 32 31  1  0  0  0  0
 33 32  2  0  0  0  0
 33 34  1  0  0  0  0
 34 35  1  0  0  0  0
 35 36  2  0  0  0  0
M  END
>  <MODEL>
3

>  <REMARK>
 VINA RESULT:      -7.6      2.246      5.987
  Name = 
  7 active torsions:
  status: ('A' for Active; 'I' for Inactive)
    1  A    between atoms: C_3  and  C_6
    2  A    between atoms: C_4  and  C_29
    3  A    between atoms: C_11  and  C_23
    4  A    between atoms: C_12  and  C_22
    5  A    between atoms: N_16  and  C_28
    6  A    between atoms: C_23  and  C_36
    7  A    between atoms: C_29  and  C_33
                            x       y       z     vdW  Elec       q    Type
                         _______ _______ _______ _____ _____    ______ ____

>  <TORSDO>
F 7

$$$$
=
 OpenBabel11042417593D

 36 42  0  0  1  0  0  0  0  0999 V2000
  186.1530  178.3740  143.3220 C   0  0  2  0  0  3  0  0  0  0  0  0
  187.4660  177.6850  143.7960 C   0  0  2  0  0  3  0  0  0  0  0  0
  187.5270  175.9370  139.7390 N   0  0  0  0  0  2  0  0  0  0  0  0
  190.7090  174.0310  143.0650 C   0  0  2  0  0  3  0  0  0  0  0  0
  189.7710  173.8310  140.3440 C   0  0  0  0  0  0  0  0  0  0  0  0
  188.7050  173.2190  138.1150 O   0  0  0  0  0  0  0  0  0  0  0  0
  186.6530  176.9280  139.9050 N   0  0  0  0  0  0  0  0  0  0  0  0
  187.5330  176.2120  143.3310 C   0  0  2  0  0  3  0  0  0  0  0  0
  186.4240  177.0510  141.2260 C   0  0  0  0  0  0  0  0  0  0  0  0
  192.0560  174.5580  140.9510 C   0  0  0  0  0  2  0  0  0  0  0  0
  187.8430  175.4490  140.9600 C   0  0  0  0  0  0  0  0  0  0  0  0
  189.2230  173.5150  139.2000 C   0  0  0  0  0  0  0  0  0  0  0  0
  191.1800  173.3680  140.5830 C   0  0  1  0  0  3  0  0  0  0  0  0
  191.7130  173.5230  142.0090 C   0  0  2  0  0  3  0  0  0  0  0  0
  185.9700  178.2410  141.8700 N   0  0  0  0  0  2  0  0  0  0  0  0
  186.1570  179.8480  143.6830 C   0  0  0  0  0  1  0  0  0  0  0  0
  188.8470  175.6560  143.5140 O   0  0  0  0  0  0  0  0  0  0  0  0
  189.5050  174.8070  142.5870 C   0  0  0  0  0  0  0  0  0  0  0  0
  189.0420  174.6690  141.3240 C   0  0  0  0  0  0  0  0  0  0  0  0
  187.1450  176.1260  141.9020 C   0  0  0  0  0  0  0  0  0  0  0  0
  192.5990  176.1560  145.2480 N   0  0  0  0  0  0  0  0  0  0  0  0
  191.4100  174.7340  144.1840 C   0  0  0  0  0  0  0  0  0  0  0  0
  191.9830  175.3090  146.0960 C   0  0  0  0  0  0  0  0  0  0  0  0
  191.2500  174.4360  145.4510 O   0  0  0  0  0  0  0  0  0  0  0  0
  192.2340  175.7900  144.0290 N   0  0  0  0  0  0  0  0  0  0  0  0
  191.2650  176.3930  148.2500 N   0  0  0  0  0  0  0  0  0  0  0  0
  192.0870  175.3760  147.5970 C   0  0  1  0  0  3  0  0  0  0  0  0
  190.8960  175.0580  148.1720 O   0  0  0  0  0  0  0  0  0  0  0  0
  190.3660  177.1220  147.3570 C   0  0  0  0  0  2  0  0  0  0  0  0
  189.7760  178.3100  148.0890 C   0  0  0  0  0  1  0  0  0  0  0  0
  187.5940  177.7500  145.3130 C   0  0  0  0  0  2  0  0  0  0  0  0
  186.8140  176.6350  145.9390 C   0  0  0  0  0  3  0  0  0  0  0  0
  185.9910  176.8160  146.9770 C   0  0  0  0  0  3  0  0  0  0  0  0
  185.7690  178.1470  147.6350 C   0  0  0  0  0  2  0  0  0  0  0  0
  184.6650  178.9000  146.9650 C   0  0  0  0  0  3  0  0  0  0  0  0
  183.9080  178.3370  146.1900 O   0  0  0  0  0  0  0  0  0  0  0  0
  1 16  1  6  0  0  0
  1  2  1  0  0  0  0
  2 31  1  1  0  0  0
  3  7  1  0  0  0  0
  3 11  1  0  0  0  0
  4 22  1  1  0  0  0
  5 13  1  0  0  0  0
  5 19  1  0  0  0  0
  6 12  2  0  0  0  0
  7  9  2  0  0  0  0
  8 20  1  6  0  0  0
  8 17  1  0  0  0  0
  8  2  1  0  0  0  0
  9 15  1  0  0  0  0
  9 20  1  0  0  0  0
 11 19  1  0  0  0  0
 11 20  2  0  0  0  0
 12  5  2  0  0  0  0
 13 10  1  6  0  0  0
 13 14  1  0  0  0  0
 14 10  1  6  0  0  0
 14  4  1  0  0  0  0
 15  1  1  0  0  0  0
 18  4  1  0  0  0  0
 18 17  1  0  0  0  0
 19 18  2  0  0  0  0
 21 23  2  0  0  0  0
 22 24  1  0  0  0  0
 24 23  1  0  0  0  0
 25 22  2  0  0  0  0
 25 21  1  0  0  0  0
 27 23  1  6  0  0  0
 27 28  1  0  0  0  0
 27 26  1  0  0  0  0
 28 26  1  0  0  0  0
 29 30  1  0  0  0  0
 29 26  1  0  0  0  0
 31 32  1  0  0  0  0
 32 33  2  0  0  0  0
 33 34  1  0  0  0  0
 35 34  1  0  0  0  0
 36 35  2  0  0  0  0
M  END
>  <MODEL>
4

>  <REMARK>
 VINA RESULT:      -7.4      1.505      2.156
  Name = 
  7 active torsions:
  status: ('A' for Active; 'I' for Inactive)
    1  A    between atoms: C_3  and  C_6
    2  A    between atoms: C_4  and  C_29
    3  A    between atoms: C_11  and  C_23
    4  A    between atoms: C_12  and  C_22
    5  A    between atoms: N_16  and  C_28
    6  A    between atoms: C_23  and  C_36
    7  A    between atoms: C_29  and  C_33
                            x       y       z     vdW  Elec       q    Type
                         _______ _______ _______ _____ _____    ______ ____

>  <TORSDO>
F 7

$$$$
=
 OpenBabel11042417593D

 36 42  0  0  1  0  0  0  0  0999 V2000
  190.7970  171.9500  142.0690 C   0  0  2  0  0  3  0  0  0  0  0  0
  190.2630  173.1810  142.8590 C   0  0  2  0  0  3  0  0  0  0  0  0
  187.8570  173.9460  139.2330 N   0  0  0  0  0  2  0  0  0  0  0  0
  188.0340  177.5830  142.6320 C   0  0  2  0  0  3  0  0  0  0  0  0
  186.9720  176.8400  140.0550 C   0  0  0  0  0  0  0  0  0  0  0  0
  186.3960  176.5140  137.5980 O   0  0  0  0  0  0  0  0  0  0  0  0
  188.4360  172.7470  139.2740 N   0  0  0  0  0  0  0  0  0  0  0  0
  190.1640  174.4320  141.9570 C   0  0  2  0  0  3  0  0  0  0  0  0
  189.4510  172.8150  140.1570 C   0  0  0  0  0  0  0  0  0  0  0  0
  185.5670  177.2100  142.0580 C   0  0  0  0  0  2  0  0  0  0  0  0
  188.5110  174.7560  140.0950 C   0  0  0  0  0  0  0  0  0  0  0  0
  186.6770  176.6740  138.7930 C   0  0  0  0  0  0  0  0  0  0  0  0
  186.1740  177.8570  140.8200 C   0  0  1  0  0  3  0  0  0  0  0  0
  186.6920  178.2180  142.2130 C   0  0  2  0  0  3  0  0  0  0  0  0
  190.0010  171.7020  140.8590 N   0  0  0  0  0  2  0  0  0  0  0  0
  190.7760  170.7040  142.9340 C   0  0  0  0  0  1  0  0  0  0  0  0
  189.4160  175.4860  142.5900 O   0  0  0  0  0  0  0  0  0  0  0  0
  188.4710  176.3160  141.9350 C   0  0  0  0  0  0  0  0  0  0  0  0
  188.0050  176.0010  140.7060 C   0  0  0  0  0  0  0  0  0  0  0  0
  189.5250  174.0660  140.6690 C   0  0  0  0  0  0  0  0  0  0  0  0
  188.8850  177.6070  146.1150 N   0  0  0  0  0  0  0  0  0  0  0  0
  188.1340  177.4570  144.1200 C   0  0  0  0  0  0  0  0  0  0  0  0
  187.6240  177.1310  146.1070 C   0  0  0  0  0  0  0  0  0  0  0  0
  187.1550  177.0400  144.8870 O   0  0  0  0  0  0  0  0  0  0  0  0
  189.2100  177.8140  144.8480 N   0  0  0  0  0  0  0  0  0  0  0  0
  185.8370  177.7730  147.7590 N   0  0  0  0  0  0  0  0  0  0  0  0
  186.8320  176.7870  147.3400 C   0  0  1  0  0  3  0  0  0  0  0  0
  185.5150  176.6340  147.0350 O   0  0  0  0  0  0  0  0  0  0  0  0
  185.6700  178.9020  146.8460 C   0  0  0  0  0  2  0  0  0  0  0  0
  184.3280  178.8010  146.1510 C   0  0  0  0  0  1  0  0  0  0  0  0
  191.1540  173.4820  144.0570 C   0  0  0  0  0  2  0  0  0  0  0  0
  190.3140  173.9010  145.2250 C   0  0  0  0  0  3  0  0  0  0  0  0
  190.8020  174.5890  146.2630 C   0  0  0  0  0  3  0  0  0  0  0  0
  192.2390  175.0070  146.3770 C   0  0  0  0  0  2  0  0  0  0  0  0
  192.3930  176.4750  146.1410 C   0  0  0  0  0  3  0  0  0  0  0  0
  192.6630  176.9010  145.0300 O   0  0  0  0  0  0  0  0  0  0  0  0
  1  2  1  0  0  0  0
  1 16  1  1  0  0  0
  2 31  1  1  0  0  0
  3  7  1  0  0  0  0
  3 11  1  0  0  0  0
  4 22  1  1  0  0  0
  5 19  1  0  0  0  0
  5 13  1  0  0  0  0
  6 12  2  0  0  0  0
  7  9  2  0  0  0  0
  8 20  1  6  0  0  0
  8 17  1  0  0  0  0
  8  2  1  0  0  0  0
  9 20  1  0  0  0  0
  9 15  1  0  0  0  0
 11 20  2  0  0  0  0
 11 19  1  0  0  0  0
 12  5  2  0  0  0  0
 13 10  1  1  0  0  0
 13 14  1  0  0  0  0
 14 10  1  1  0  0  0
 14  4  1  0  0  0  0
 15  1  1  0  0  0  0
 18 17  1  0  0  0  0
 18  4  1  0  0  0  0
 19 18  2  0  0  0  0
 22 25  2  0  0  0  0
 22 24  1  0  0  0  0
 23 21  2  0  0  0  0
 24 23  1  0  0  0  0
 25 21  1  0  0  0  0
 27 23  1  6  0  0  0
 27 26  1  0  0  0  0
 28 27  1  0  0  0  0
 28 26  1  0  0  0  0
 29 26  1  0  0  0  0
 30 29  1  0  0  0  0
 31 32  1  0  0  0  0
 32 33  2  0  0  0  0
 33 34  1  0  0  0  0
 35 34  1  0  0  0  0
 36 35  2  0  0  0  0
M  END
>  <MODEL>
5

>  <REMARK>
 VINA RESULT:      -7.3      2.359      6.258
  Name = 
  7 active torsions:
  status: ('A' for Active; 'I' for Inactive)
    1  A    between atoms: C_3  and  C_6
    2  A    between atoms: C_4  and  C_29
    3  A    between atoms: C_11  and  C_23
    4  A    between atoms: C_12  and  C_22
    5  A    between atoms: N_16  and  C_28
    6  A    between atoms: C_23  and  C_36
    7  A    between atoms: C_29  and  C_33
                            x       y       z     vdW  Elec       q    Type
                         _______ _______ _______ _____ _____    ______ ____

>  <TORSDO>
F 7

$$$$
=
 OpenBabel11042417593D

 36 42  0  0  1  0  0  0  0  0999 V2000
  189.9120  173.7360  143.9320 C   0  0  2  0  0  3  0  0  0  0  0  0
  188.9340  174.9240  144.1620 C   0  0  2  0  0  3  0  0  0  0  0  0
  188.0170  174.4650  139.8650 N   0  0  0  0  0  2  0  0  0  0  0  0
  186.3150  178.5750  142.1090 C   0  0  2  0  0  3  0  0  0  0  0  0
  186.4510  177.1690  139.5930 C   0  0  0  0  0  0  0  0  0  0  0  0
  186.9190  176.2980  137.2480 O   0  0  0  0  0  0  0  0  0  0  0  0
  188.7120  173.4610  140.3960 N   0  0  0  0  0  0  0  0  0  0  0  0
  188.9970  175.9430  143.0010 C   0  0  2  0  0  3  0  0  0  0  0  0
  189.2870  173.9170  141.5260 C   0  0  0  0  0  0  0  0  0  0  0  0
  184.3460  177.5410  140.8400 C   0  0  0  0  0  2  0  0  0  0  0  0
  188.1570  175.5430  140.6690 C   0  0  0  0  0  0  0  0  0  0  0  0
  186.6920  176.7230  138.3880 C   0  0  0  0  0  0  0  0  0  0  0  0
  185.2740  178.0880  139.7630 C   0  0  1  0  0  3  0  0  0  0  0  0
  185.1560  178.7960  141.1150 C   0  0  2  0  0  3  0  0  0  0  0  0
  189.6900  173.1020  142.6250 N   0  0  0  0  0  2  0  0  0  0  0  0
  189.7520  172.6880  145.0180 C   0  0  0  0  0  1  0  0  0  0  0  0
  187.9110  176.8840  143.0600 O   0  0  0  0  0  0  0  0  0  0  0  0
  187.1740  177.3450  141.9380 C   0  0  0  0  0  0  0  0  0  0  0  0
  187.2700  176.7210  140.7430 C   0  0  0  0  0  0  0  0  0  0  0  0
  188.9660  175.2200  141.7060 C   0  0  0  0  0  0  0  0  0  0  0  0
  185.1420  179.6320  145.3270 N   0  0  0  0  0  0  0  0  0  0  0  0
  185.8540  178.7350  143.5230 C   0  0  0  0  0  0  0  0  0  0  0  0
  185.1840  178.2900  145.4380 C   0  0  0  0  0  0  0  0  0  0  0  0
  185.6160  177.7330  144.3340 O   0  0  0  0  0  0  0  0  0  0  0  0
  185.5700  179.9160  144.1060 N   0  0  0  0  0  0  0  0  0  0  0  0
  185.7840  177.2760  147.6610 N   0  0  0  0  0  0  0  0  0  0  0  0
  184.7510  177.5190  146.6560 C   0  0  1  0  0  3  0  0  0  0  0  0
  184.8480  178.2930  147.7710 O   0  0  0  0  0  0  0  0  0  0  0  0
  187.0670  177.9220  147.3910 C   0  0  0  0  0  2  0  0  0  0  0  0
  187.2910  179.0410  148.3870 C   0  0  0  0  0  1  0  0  0  0  0  0
  189.2390  175.6290  145.4780 C   0  0  0  0  0  2  0  0  0  0  0  0
  190.3320  176.6330  145.2780 C   0  0  0  0  0  3  0  0  0  0  0  0
  191.5380  176.5180  145.8440 C   0  0  0  0  0  3  0  0  0  0  0  0
  191.9240  175.3840  146.7480 C   0  0  0  0  0  2  0  0  0  0  0  0
  192.9580  174.5140  146.1080 C   0  0  0  0  0  3  0  0  0  0  0  0
  193.2610  174.6680  144.9360 O   0  0  0  0  0  0  0  0  0  0  0  0
  1  2  1  0  0  0  0
  1 16  1  1  0  0  0
  2 31  1  1  0  0  0
  3  7  1  0  0  0  0
  3 11  1  0  0  0  0
  4 22  1  1  0  0  0
  5 13  1  0  0  0  0
  5 19  1  0  0  0  0
  6 12  2  0  0  0  0
  7  9  2  0  0  0  0
  8 20  1  6  0  0  0
  8 17  1  0  0  0  0
  8  2  1  0  0  0  0
  9 20  1  0  0  0  0
  9 15  1  0  0  0  0
 11 19  1  0  0  0  0
 11 20  2  0  0  0  0
 12  5  2  0  0  0  0
 13 10  1  1  0  0  0
 13 14  1  0  0  0  0
 14 10  1  1  0  0  0
 14  4  1  0  0  0  0
 15  1  1  0  0  0  0
 18  4  1  0  0  0  0
 18 17  1  0  0  0  0
 19 18  2  0  0  0  0
 21 23  2  0  0  0  0
 22 25  2  0  0  0  0
 22 24  1  0  0  0  0
 24 23  1  0  0  0  0
 25 21  1  0  0  0  0
 26 28  1  0  0  0  0
 27 23  1  6  0  0  0
 27 26  1  0  0  0  0
 27 28  1  0  0  0  0
 29 26  1  0  0  0  0
 29 30  1  0  0  0  0
 32 31  1  0  0  0  0
 32 33  2  0  0  0  0
 33 34  1  0  0  0  0
 35 34  1  0  0  0  0
 36 35  2  0  0  0  0
M  END
>  <MODEL>
6

>  <REMARK>
 VINA RESULT:      -7.3      2.300      6.450
  Name = 
  7 active torsions:
  status: ('A' for Active; 'I' for Inactive)
    1  A    between atoms: C_3  and  C_6
    2  A    between atoms: C_4  and  C_29
    3  A    between atoms: C_11  and  C_23
    4  A    between atoms: C_12  and  C_22
    5  A    between atoms: N_16  and  C_28
    6  A    between atoms: C_23  and  C_36
    7  A    between atoms: C_29  and  C_33
                            x       y       z     vdW  Elec       q    Type
                         _______ _______ _______ _____ _____    ______ ____

>  <TORSDO>
F 7

$$$$
=
 OpenBabel11042417593D

 36 42  0  0  1  0  0  0  0  0999 V2000
  189.3470  172.8550  140.3040 C   0  0  2  0  0  3  0  0  0  0  0  0
  189.0240  173.7430  141.5410 C   0  0  2  0  0  3  0  0  0  0  0  0
  193.1870  172.8750  142.7370 N   0  0  0  0  0  2  0  0  0  0  0  0
  190.2540  175.0020  146.1560 C   0  0  2  0  0  3  0  0  0  0  0  0
  192.9030  173.9730  145.6610 C   0  0  0  0  0  0  0  0  0  0  0  0
  195.0830  172.6670  145.5250 O   0  0  0  0  0  0  0  0  0  0  0  0
  192.8860  172.5380  141.4840 N   0  0  0  0  0  0  0  0  0  0  0  0
  189.5950  173.1330  142.8410 C   0  0  2  0  0  3  0  0  0  0  0  0
  191.5460  172.4350  141.4020 C   0  0  0  0  0  0  0  0  0  0  0  0
  192.4200  176.3650  146.0710 C   0  0  0  0  0  2  0  0  0  0  0  0
  192.0310  172.9860  143.4300 C   0  0  0  0  0  0  0  0  0  0  0  0
  194.0220  173.3010  145.5930 C   0  0  0  0  0  0  0  0  0  0  0  0
  192.8050  175.0400  146.7150 C   0  0  1  0  0  3  0  0  0  0  0  0
  191.4160  175.6370  146.9480 C   0  0  2  0  0  3  0  0  0  0  0  0
  190.7870  172.5790  140.2020 N   0  0  0  0  0  2  0  0  0  0  0  0
  188.8840  173.5250  139.0230 C   0  0  0  0  0  1  0  0  0  0  0  0
  189.5510  174.0700  143.9320 O   0  0  0  0  0  0  0  0  0  0  0  0
  190.5830  174.2500  144.8890 C   0  0  0  0  0  0  0  0  0  0  0  0
  191.8140  173.7280  144.6870 C   0  0  0  0  0  0  0  0  0  0  0  0
  190.9930  172.6950  142.6100 C   0  0  0  0  0  0  0  0  0  0  0  0
  188.0700  177.7070  145.2820 N   0  0  0  0  0  0  0  0  0  0  0  0
  189.1430  175.9820  145.9440 C   0  0  0  0  0  0  0  0  0  0  0  0
  187.2460  176.8250  145.8830 C   0  0  0  0  0  0  0  0  0  0  0  0
  187.8970  175.7630  146.2880 O   0  0  0  0  0  0  0  0  0  0  0  0
  189.2790  177.1700  145.3210 N   0  0  0  0  0  0  0  0  0  0  0  0
  185.3240  177.7530  147.2150 N   0  0  0  0  0  0  0  0  0  0  0  0
  185.7600  177.0110  146.0340 C   0  0  1  0  0  3  0  0  0  0  0  0
  185.4320  178.3290  145.9580 O   0  0  0  0  0  0  0  0  0  0  0  0
  186.4070  178.3150  148.0210 C   0  0  0  0  0  2  0  0  0  0  0  0
  186.3110  179.8260  148.0200 C   0  0  0  0  0  1  0  0  0  0  0  0
  187.5200  173.9420  141.6860 C   0  0  0  0  0  2  0  0  0  0  0  0
  187.2430  175.1760  142.4880 C   0  0  0  0  0  3  0  0  0  0  0  0
  187.1290  176.3900  141.9390 C   0  0  0  0  0  3  0  0  0  0  0  0
  187.2780  176.6520  140.4690 C   0  0  0  0  0  2  0  0  0  0  0  0
  186.2340  177.6050  139.9840 C   0  0  0  0  0  3  0  0  0  0  0  0
  185.5490  178.2330  140.7750 O   0  0  0  0  0  0  0  0  0  0  0  0
  1 16  1  6  0  0  0
  1  2  1  0  0  0  0
  2 31  1  1  0  0  0
  2  8  1  0  0  0  0
  3 11  1  0  0  0  0
  4 22  1  6  0  0  0
  4 14  1  0  0  0  0
  5 13  1  0  0  0  0
  6 12  2  0  0  0  0
  7  3  1  0  0  0  0
  8 20  1  6  0  0  0
  8 17  1  0  0  0  0
  9  7  2  0  0  0  0
  9 20  1  0  0  0  0
 11 19  1  0  0  0  0
 12  5  2  0  0  0  0
 13 10  1  6  0  0  0
 13 14  1  0  0  0  0
 14 10  1  6  0  0  0
 15  1  1  0  0  0  0
 15  9  1  0  0  0  0
 17 18  1  0  0  0  0
 18  4  1  0  0  0  0
 19 18  2  0  0  0  0
 19  5  1  0  0  0  0
 20 11  2  0  0  0  0
 21 25  1  0  0  0  0
 21 23  2  0  0  0  0
 22 24  1  0  0  0  0
 23 24  1  0  0  0  0
 25 22  2  0  0  0  0
 26 29  1  0  0  0  0
 27 23  1  1  0  0  0
 27 26  1  0  0  0  0
 28 27  1  0  0  0  0
 28 26  1  0  0  0  0
 30 29  1  0  0  0  0
 31 32  1  0  0  0  0
 33 32  2  0  0  0  0
 34 33  1  0  0  0  0
 35 34  1  0  0  0  0
 35 36  2  0  0  0  0
M  END
>  <MODEL>
7

>  <REMARK>
 VINA RESULT:      -7.2      2.644      6.597
  Name = 
  7 active torsions:
  status: ('A' for Active; 'I' for Inactive)
    1  A    between atoms: C_3  and  C_6
    2  A    between atoms: C_4  and  C_29
    3  A    between atoms: C_11  and  C_23
    4  A    between atoms: C_12  and  C_22
    5  A    between atoms: N_16  and  C_28
    6  A    between atoms: C_23  and  C_36
    7  A    between atoms: C_29  and  C_33
                            x       y       z     vdW  Elec       q    Type
                         _______ _______ _______ _____ _____    ______ ____

>  <TORSDO>
F 7

$$$$
=
 OpenBabel11042417593D

 36 42  0  0  1  0  0  0  0  0999 V2000
  184.5030  178.3120  140.9760 C   0  0  2  0  0  3  0  0  0  0  0  0
  185.8830  177.6240  141.1860 C   0  0  2  0  0  3  0  0  0  0  0  0
  185.0770  178.2480  145.4850 N   0  0  0  0  0  2  0  0  0  0  0  0
  189.6950  176.8620  144.2340 C   0  0  2  0  0  3  0  0  0  0  0  0
  187.9840  177.5670  146.4460 C   0  0  0  0  0  0  0  0  0  0  0  0
  186.7460  178.6370  148.3960 O   0  0  0  0  0  0  0  0  0  0  0  0
  184.0290  178.4480  144.6870 N   0  0  0  0  0  0  0  0  0  0  0  0
  186.7120  178.3410  142.2760 C   0  0  2  0  0  3  0  0  0  0  0  0
  184.5000  178.6630  143.4440 C   0  0  0  0  0  0  0  0  0  0  0  0
  188.9260  175.3040  146.1150 C   0  0  0  0  0  2  0  0  0  0  0  0
  186.1980  178.3350  144.7330 C   0  0  0  0  0  0  0  0  0  0  0  0
  187.3490  178.1180  147.4480 C   0  0  0  0  0  0  0  0  0  0  0  0
  189.1340  176.6600  146.7760 C   0  0  1  0  0  3  0  0  0  0  0  0
  190.0170  176.2290  145.6030 C   0  0  2  0  0  3  0  0  0  0  0  0
  183.7670  178.4370  142.2410 N   0  0  0  0  0  2  0  0  0  0  0  0
  183.6550  177.5280  139.9900 C   0  0  0  0  0  1  0  0  0  0  0  0
  187.8530  177.5610  142.6760 O   0  0  0  0  0  0  0  0  0  0  0  0
  188.3060  177.4110  144.0120 C   0  0  0  0  0  0  0  0  0  0  0  0
  187.5290  177.7850  145.0530 C   0  0  0  0  0  0  0  0  0  0  0  0
  185.8520  178.6140  143.4540 C   0  0  0  0  0  0  0  0  0  0  0  0
  191.3660  174.9040  141.7390 N   0  0  0  0  0  0  0  0  0  0  0  0
  190.1230  175.9710  143.1110 C   0  0  0  0  0  0  0  0  0  0  0  0
  190.0740  174.5500  141.5960 C   0  0  0  0  0  0  0  0  0  0  0  0
  189.3060  175.1980  142.4370 O   0  0  0  0  0  0  0  0  0  0  0  0
  191.3980  175.8100  142.7040 N   0  0  0  0  0  0  0  0  0  0  0  0
  189.4210  172.1600  141.1570 N   0  0  0  0  0  0  0  0  0  0  0  0
  189.5740  173.5140  140.6260 C   0  0  1  0  0  3  0  0  0  0  0  0
  188.3590  173.0410  141.0160 O   0  0  0  0  0  0  0  0  0  0  0  0
  189.6640  172.0340  142.5940 C   0  0  0  0  0  2  0  0  0  0  0  0
  190.9010  171.1920  142.8280 C   0  0  0  0  0  1  0  0  0  0  0  0
  186.6730  177.5870  139.8840 C   0  0  0  0  0  2  0  0  0  0  0  0
  187.0990  176.1820  139.5850 C   0  0  0  0  0  3  0  0  0  0  0  0
  187.0840  175.6640  138.3530 C   0  0  0  0  0  3  0  0  0  0  0  0
  186.6300  176.4230  137.1400 C   0  0  0  0  0  2  0  0  0  0  0  0
  187.4000  176.0110  135.9280 C   0  0  0  0  0  3  0  0  0  0  0  0
  188.3820  175.2930  136.0280 O   0  0  0  0  0  0  0  0  0  0  0  0
  1 16  1  6  0  0  0
  1  2  1  0  0  0  0
  1 15  1  0  0  0  0
  2 31  1  6  0  0  0
  2  8  1  0  0  0  0
  4 22  1  6  0  0  0
  4 14  1  0  0  0  0
  5 13  1  0  0  0  0
  5 12  2  0  0  0  0
  7  3  1  0  0  0  0
  8 17  1  1  0  0  0
  8 20  1  0  0  0  0
  9 20  1  0  0  0  0
  9  7  2  0  0  0  0
 11 19  1  0  0  0  0
 11  3  1  0  0  0  0
 12  6  2  0  0  0  0
 13 10  1  6  0  0  0
 14 10  1  6  0  0  0
 14 13  1  0  0  0  0
 15  9  1  0  0  0  0
 17 18  1  0  0  0  0
 18  4  1  0  0  0  0
 18 19  2  0  0  0  0
 19  5  1  0  0  0  0
 20 11  2  0  0  0  0
 21 25  1  0  0  0  0
 23 21  2  0  0  0  0
 23 24  1  0  0  0  0
 24 22  1  0  0  0  0
 25 22  2  0  0  0  0
 26 29  1  0  0  0  0
 27 28  1  0  0  0  0
 27 26  1  0  0  0  0
 27 23  1  1  0  0  0
 28 26  1  0  0  0  0
 29 30  1  0  0  0  0
 32 31  1  0  0  0  0
 33 32  2  0  0  0  0
 34 33  1  0  0  0  0
 35 36  2  0  0  0  0
 35 34  1  0  0  0  0
M  END
>  <MODEL>
8

>  <REMARK>
 VINA RESULT:      -7.2      2.817      6.512
  Name = 
  7 active torsions:
  status: ('A' for Active; 'I' for Inactive)
    1  A    between atoms: C_3  and  C_6
    2  A    between atoms: C_4  and  C_29
    3  A    between atoms: C_11  and  C_23
    4  A    between atoms: C_12  and  C_22
    5  A    between atoms: N_16  and  C_28
    6  A    between atoms: C_23  and  C_36
    7  A    between atoms: C_29  and  C_33
                            x       y       z     vdW  Elec       q    Type
                         _______ _______ _______ _____ _____    ______ ____

>  <TORSDO>
F 7

$$$$
=
 OpenBabel11042417593D

 36 42  0  0  1  0  0  0  0  0999 V2000
  195.1650  175.5870  142.4530 C   0  0  2  0  0  3  0  0  0  0  0  0
  193.6180  175.4380  142.3640 C   0  0  2  0  0  3  0  0  0  0  0  0
  193.6270  177.1990  146.4150 N   0  0  0  0  0  2  0  0  0  0  0  0
  189.3420  175.2160  144.8270 C   0  0  2  0  0  3  0  0  0  0  0  0
  190.6270  176.5370  147.0460 C   0  0  0  0  0  0  0  0  0  0  0  0
  191.7500  177.2280  149.2230 O   0  0  0  0  0  0  0  0  0  0  0  0
  194.7890  177.2840  145.7690 N   0  0  0  0  0  0  0  0  0  0  0  0
  193.0220  174.9190  143.6930 C   0  0  2  0  0  3  0  0  0  0  0  0
  194.7790  176.3560  144.7930 C   0  0  0  0  0  0  0  0  0  0  0  0
  188.8030  177.5550  145.7200 C   0  0  0  0  0  2  0  0  0  0  0  0
  192.8960  176.2210  145.8360 C   0  0  0  0  0  0  0  0  0  0  0  0
  191.2030  176.8900  148.1650 C   0  0  0  0  0  0  0  0  0  0  0  0
  189.1390  176.7230  146.9500 C   0  0  1  0  0  3  0  0  0  0  0  0
  188.4510  176.0770  145.7460 C   0  0  2  0  0  3  0  0  0  0  0  0
  195.5600  176.4170  143.6000 N   0  0  0  0  0  2  0  0  0  0  0  0
  195.7210  176.2080  141.1850 C   0  0  0  0  0  1  0  0  0  0  0  0
  191.5890  175.0450  143.7170 O   0  0  0  0  0  0  0  0  0  0  0  0
  190.8310  175.4680  144.8400 C   0  0  0  0  0  0  0  0  0  0  0  0
  191.4320  176.0430  145.9060 C   0  0  0  0  0  0  0  0  0  0  0  0
  193.6130  175.6710  144.8270 C   0  0  0  0  0  0  0  0  0  0  0  0
  188.0170  174.4260  141.5910 N   0  0  0  0  0  0  0  0  0  0  0  0
  188.8020  175.1740  143.4330 C   0  0  0  0  0  0  0  0  0  0  0  0
  187.9970  175.7730  141.6130 C   0  0  0  0  0  0  0  0  0  0  0  0
  188.4740  176.2390  142.7410 O   0  0  0  0  0  0  0  0  0  0  0  0
  188.5300  174.0440  142.7500 N   0  0  0  0  0  0  0  0  0  0  0  0
  186.2460  177.3940  140.8140 N   0  0  0  0  0  0  0  0  0  0  0  0
  187.4590  176.6390  140.5060 C   0  0  1  0  0  3  0  0  0  0  0  0
  187.5150  177.9520  140.8550 O   0  0  0  0  0  0  0  0  0  0  0  0
  185.7950  177.2900  142.2010 C   0  0  0  0  0  2  0  0  0  0  0  0
  185.7750  178.6670  142.8330 C   0  0  0  0  0  1  0  0  0  0  0  0
  193.2300  174.5000  141.2280 C   0  0  0  0  0  2  0  0  0  0  0  0
  193.7920  173.1340  141.4790 C   0  0  0  0  0  3  0  0  0  0  0  0
  193.0260  172.0520  141.6540 C   0  0  0  0  0  3  0  0  0  0  0  0
  191.5250  172.0880  141.6290 C   0  0  0  0  0  2  0  0  0  0  0  0
  190.9520  171.4340  142.8440 C   0  0  0  0  0  3  0  0  0  0  0  0
  191.3710  171.7110  143.9570 O   0  0  0  0  0  0  0  0  0  0  0  0
  1 16  1  6  0  0  0
  1 15  1  0  0  0  0
  2 31  1  6  0  0  0
  2  1  1  0  0  0  0
  2  8  1  0  0  0  0
  4 22  1  6  0  0  0
  4 18  1  0  0  0  0
  4 14  1  0  0  0  0
  5 12  2  0  0  0  0
  7  3  1  0  0  0  0
  8 17  1  6  0  0  0
  8 20  1  0  0  0  0
  9 20  1  0  0  0  0
  9  7  2  0  0  0  0
 11 19  1  0  0  0  0
 11  3  1  0  0  0  0
 12  6  2  0  0  0  0
 13 10  1  6  0  0  0
 13  5  1  0  0  0  0
 14 10  1  6  0  0  0
 14 13  1  0  0  0  0
 15  9  1  0  0  0  0
 17 18  1  0  0  0  0
 18 19  2  0  0  0  0
 19  5  1  0  0  0  0
 20 11  2  0  0  0  0
 21 23  2  0  0  0  0
 21 25  1  0  0  0  0
 23 24  1  0  0  0  0
 24 22  1  0  0  0  0
 25 22  2  0  0  0  0
 26 28  1  0  0  0  0
 26 29  1  0  0  0  0
 27 26  1  0  0  0  0
 27 28  1  0  0  0  0
 27 23  1  1  0  0  0
 29 30  1  0  0  0  0
 31 32  1  0  0  0  0
 32 33  2  0  0  0  0
 34 33  1  0  0  0  0
 34 35  1  0  0  0  0
 35 36  2  0  0  0  0
M  END
>  <MODEL>
9

>  <REMARK>
 VINA RESULT:      -7.1      2.537      8.191
  Name = 
  7 active torsions:
  status: ('A' for Active; 'I' for Inactive)
    1  A    between atoms: C_3  and  C_6
    2  A    between atoms: C_4  and  C_29
    3  A    between atoms: C_11  and  C_23
    4  A    between atoms: C_12  and  C_22
    5  A    between atoms: N_16  and  C_28
    6  A    between atoms: C_23  and  C_36
    7  A    between atoms: C_29  and  C_33
                            x       y       z     vdW  Elec       q    Type
                         _______ _______ _______ _____ _____    ______ ____

>  <TORSDO>
F 7

$$$$
