=
 OpenBabel11042417463D

 25 26  0  0  1  0  0  0  0  0999 V2000
  186.8780  177.5160  141.8340 C   0  0  1  0  0  3  0  0  0  0  0  0
  186.4070  177.4730  140.4130 C   0  0  0  0  0  0  0  0  0  0  0  0
  185.4350  178.1940  140.0640 O   0  0  0  0  0  0  0  0  0  0  0  0
  186.5730  176.5190  138.1960 O   0  0  0  0  0  1  0  0  0  0  0  0
  187.0190  176.5920  139.4710 N   0  0  0  0  0  2  0  0  0  0  0  0
  185.8790  176.9630  142.7550 N   0  0  0  0  0  2  0  0  0  0  0  0
  184.8910  177.7180  144.9070 C   0  0  1  0  0  3  0  0  0  0  0  0
  184.8330  179.0920  145.5140 C   0  0  0  0  0  2  0  0  0  0  0  0
  185.8730  179.2320  143.3770 O   0  0  0  0  0  0  0  0  0  0  0  0
  185.3700  180.0100  144.4320 C   0  0  0  0  0  2  0  0  0  0  0  0
  185.1540  178.0320  143.4430 C   0  0  1  0  0  3  0  0  0  0  0  0
  186.0350  176.9350  145.5510 C   0  0  0  0  0  2  0  0  0  0  0  0
  187.2920  177.7350  147.4180 O   0  0  0  0  0  1  0  0  0  0  0  0
  186.0740  177.1610  147.0540 C   0  0  0  0  0  2  0  0  0  0  0  0
  188.1730  176.8560  141.9880 N   0  0  0  0  0  2  0  0  0  0  0  0
  189.5290  175.1770  144.9810 N   0  0  0  0  0  0  0  0  0  0  0  0
  188.9310  175.3750  143.7760 C   0  0  0  0  0  3  0  0  0  0  0  0
  190.0300  176.2140  145.7070 C   0  0  0  0  0  0  0  0  0  0  0  0
  188.8100  176.6650  143.2540 C   0  0  0  0  0  0  0  0  0  0  0  0
  189.9270  177.5200  145.2240 C   0  0  0  0  0  3  0  0  0  0  0  0
  189.3160  177.7440  143.9900 C   0  0  0  0  0  3  0  0  0  0  0  0
  190.6530  175.9580  147.0350 C   0  0  0  0  0  2  0  0  0  0  0  0
  192.0140  175.3140  146.8520 C   0  0  0  0  0  2  0  0  0  0  0  0
  193.0750  176.3900  146.7710 C   0  0  0  0  0  2  0  0  0  0  0  0
  193.9050  176.1860  145.5230 C   0  0  0  0  0  1  0  0  0  0  0  0
  1  2  1  6  0  0  0
  1 15  1  0  0  0  0
  1  6  1  0  0  0  0
  3  2  2  0  0  0  0
  4  5  1  0  0  0  0
  5  2  1  0  0  0  0
  7  8  1  0  0  0  0
  7 12  1  1  0  0  0
  9 11  1  0  0  0  0
  9 10  1  0  0  0  0
 10  8  1  0  0  0  0
 11  6  1  1  0  0  0
 11  7  1  0  0  0  0
 12 14  1  0  0  0  0
 14 13  1  0  0  0  0
 15 19  1  0  0  0  0
 16 18  1  0  0  0  0
 17 16  2  0  0  0  0
 18 22  1  0  0  0  0
 19 17  1  0  0  0  0
 19 21  2  0  0  0  0
 20 18  2  0  0  0  0
 21 20  1  0  0  0  0
 23 22  1  0  0  0  0
 24 23  1  0  0  0  0
 25 24  1  0  0  0  0
M  END
>  <MODEL>
1

>  <REMARK>
 VINA RESULT:      -5.9      0.000      0.000
  Name = 
  10 active torsions:
  status: ('A' for Active; 'I' for Inactive)
    1  A    between atoms: C_1  and  C_10
    2  A    between atoms: C_1  and  C_21
    3  A    between atoms: C_2  and  C_24
    4  A    between atoms: C_6  and  C_11
    5  A    between atoms: C_6  and  C_20
    6  A    between atoms: C_7  and  C_21
    7  A    between atoms: N_13  and  C_24
    8  A    between atoms: N_13  and  C_25
    9  A    between atoms: C_17  and  N_22
   10  A    between atoms: N_22  and  C_24
                            x       y       z     vdW  Elec       q    Type
                         _______ _______ _______ _____ _____    ______ ____

>  <TORSDO>
F 10

$$$$
=
 OpenBabel11042417463D

 25 26  0  0  1  0  0  0  0  0999 V2000
  186.1850  177.7940  142.0750 C   0  0  1  0  0  3  0  0  0  0  0  0
  185.0990  177.8560  141.0470 C   0  0  0  0  0  0  0  0  0  0  0  0
  185.3780  177.6300  139.8400 O   0  0  0  0  0  0  0  0  0  0  0  0
  182.7880  178.3090  140.4900 O   0  0  0  0  0  1  0  0  0  0  0  0
  183.7670  178.2120  141.4190 N   0  0  0  0  0  2  0  0  0  0  0  0
  185.8730  176.8330  143.1390 N   0  0  0  0  0  2  0  0  0  0  0  0
  185.9560  176.8780  145.6220 C   0  0  1  0  0  3  0  0  0  0  0  0
  186.0020  178.0460  146.5660 C   0  0  0  0  0  2  0  0  0  0  0  0
  185.8410  178.8590  144.3340 O   0  0  0  0  0  0  0  0  0  0  0  0
  185.8070  179.2620  145.6790 C   0  0  0  0  0  2  0  0  0  0  0  0
  185.4270  177.5220  144.3510 C   0  0  1  0  0  3  0  0  0  0  0  0
  187.3690  176.3190  145.4500 C   0  0  0  0  0  2  0  0  0  0  0  0
  188.7060  175.0830  146.9950 O   0  0  0  0  0  1  0  0  0  0  0  0
  188.1260  176.3310  146.7680 C   0  0  0  0  0  2  0  0  0  0  0  0
  187.4840  177.5160  141.4650 N   0  0  0  0  0  2  0  0  0  0  0  0
  190.2830  175.5850  142.8990 N   0  0  0  0  0  0  0  0  0  0  0  0
  189.1730  175.9030  142.1800 C   0  0  0  0  0  3  0  0  0  0  0  0
  190.9220  176.5070  143.6680 C   0  0  0  0  0  0  0  0  0  0  0  0
  188.6550  177.1990  142.2220 C   0  0  0  0  0  0  0  0  0  0  0  0
  190.4360  177.8150  143.7420 C   0  0  0  0  0  3  0  0  0  0  0  0
  189.2980  178.1600  143.0120 C   0  0  0  0  0  3  0  0  0  0  0  0
  192.1180  176.1120  144.4620 C   0  0  0  0  0  2  0  0  0  0  0  0
  191.8510  176.3240  145.9390 C   0  0  0  0  0  2  0  0  0  0  0  0
  192.8350  175.5110  146.7520 C   0  0  0  0  0  2  0  0  0  0  0  0
  194.2430  175.9800  146.4550 C   0  0  0  0  0  1  0  0  0  0  0  0
  1  2  1  6  0  0  0
  1  6  1  0  0  0  0
  2  5  1  0  0  0  0
  3  2  2  0  0  0  0
  4  5  1  0  0  0  0
  7 12  1  6  0  0  0
  7  8  1  0  0  0  0
  9 11  1  0  0  0  0
  9 10  1  0  0  0  0
 10  8  1  0  0  0  0
 11  6  1  6  0  0  0
 11  7  1  0  0  0  0
 12 14  1  0  0  0  0
 14 13  1  0  0  0  0
 15  1  1  0  0  0  0
 15 19  1  0  0  0  0
 16 18  1  0  0  0  0
 17 19  1  0  0  0  0
 17 16  2  0  0  0  0
 18 20  2  0  0  0  0
 18 22  1  0  0  0  0
 19 21  2  0  0  0  0
 21 20  1  0  0  0  0
 22 23  1  0  0  0  0
 23 24  1  0  0  0  0
 25 24  1  0  0  0  0
M  END
>  <MODEL>
2

>  <REMARK>
 VINA RESULT:      -5.7      1.580      2.017
  Name = 
  10 active torsions:
  status: ('A' for Active; 'I' for Inactive)
    1  A    between atoms: C_1  and  C_10
    2  A    between atoms: C_1  and  C_21
    3  A    between atoms: C_2  and  C_24
    4  A    between atoms: C_6  and  C_11
    5  A    between atoms: C_6  and  C_20
    6  A    between atoms: C_7  and  C_21
    7  A    between atoms: N_13  and  C_24
    8  A    between atoms: N_13  and  C_25
    9  A    between atoms: C_17  and  N_22
   10  A    between atoms: N_22  and  C_24
                            x       y       z     vdW  Elec       q    Type
                         _______ _______ _______ _____ _____    ______ ____

>  <TORSDO>
F 10

$$$$
=
 OpenBabel11042417463D

 25 26  0  0  1  0  0  0  0  0999 V2000
  187.7790  177.1630  143.6720 C   0  0  1  0  0  3  0  0  0  0  0  0
  187.3720  177.5460  142.2820 C   0  0  0  0  0  0  0  0  0  0  0  0
  188.2120  178.1020  141.5250 O   0  0  0  0  0  0  0  0  0  0  0  0
  185.6510  177.7070  140.5900 O   0  0  0  0  0  1  0  0  0  0  0  0
  186.0360  177.3270  141.8300 N   0  0  0  0  0  2  0  0  0  0  0  0
  186.6170  176.8520  144.5110 N   0  0  0  0  0  2  0  0  0  0  0  0
  185.8080  178.6780  145.9900 C   0  0  1  0  0  3  0  0  0  0  0  0
  185.5750  178.6870  147.4750 C   0  0  0  0  0  2  0  0  0  0  0  0
  186.4500  176.5660  146.8410 O   0  0  0  0  0  0  0  0  0  0  0  0
  186.1170  177.3540  147.9540 C   0  0  0  0  0  2  0  0  0  0  0  0
  186.7370  177.4860  145.8250 C   0  0  1  0  0  3  0  0  0  0  0  0
  184.4700  178.4800  145.2760 C   0  0  0  0  0  2  0  0  0  0  0  0
  185.5000  180.1580  143.9240 O   0  0  0  0  0  1  0  0  0  0  0  0
  184.3000  179.4820  144.1460 C   0  0  0  0  0  2  0  0  0  0  0  0
  188.7440  176.0650  143.6630 N   0  0  0  0  0  2  0  0  0  0  0  0
  192.1150  177.4720  144.1890 N   0  0  0  0  0  0  0  0  0  0  0  0
  190.8310  177.3300  143.7640 C   0  0  0  0  0  3  0  0  0  0  0  0
  192.7130  176.5340  144.9740 C   0  0  0  0  0  0  0  0  0  0  0  0
  190.0910  176.2010  144.1230 C   0  0  0  0  0  0  0  0  0  0  0  0
  192.0110  175.3870  145.3530 C   0  0  0  0  0  3  0  0  0  0  0  0
  190.6930  175.2240  144.9260 C   0  0  0  0  0  3  0  0  0  0  0  0
  194.1300  176.7120  145.3950 C   0  0  0  0  0  2  0  0  0  0  0  0
  194.5340  175.5940  146.3360 C   0  0  0  0  0  2  0  0  0  0  0  0
  195.6770  174.8100  145.7280 C   0  0  0  0  0  2  0  0  0  0  0  0
  195.2470  173.3750  145.5140 C   0  0  0  0  0  1  0  0  0  0  0  0
  1  2  1  6  0  0  0
  1  6  1  0  0  0  0
  3  2  2  0  0  0  0
  4  5  1  0  0  0  0
  5  2  1  0  0  0  0
  7 12  1  6  0  0  0
  7  8  1  0  0  0  0
  8 10  1  0  0  0  0
  9 10  1  0  0  0  0
 11  6  1  6  0  0  0
 11  7  1  0  0  0  0
 11  9  1  0  0  0  0
 13 14  1  0  0  0  0
 14 12  1  0  0  0  0
 15  1  1  0  0  0  0
 15 19  1  0  0  0  0
 16 18  1  0  0  0  0
 17 19  1  0  0  0  0
 17 16  2  0  0  0  0
 18 20  2  0  0  0  0
 18 22  1  0  0  0  0
 19 21  2  0  0  0  0
 21 20  1  0  0  0  0
 22 23  1  0  0  0  0
 24 23  1  0  0  0  0
 25 24  1  0  0  0  0
M  END
>  <MODEL>
3

>  <REMARK>
 VINA RESULT:      -5.6      1.693      3.035
  Name = 
  10 active torsions:
  status: ('A' for Active; 'I' for Inactive)
    1  A    between atoms: C_1  and  C_10
    2  A    between atoms: C_1  and  C_21
    3  A    between atoms: C_2  and  C_24
    4  A    between atoms: C_6  and  C_11
    5  A    between atoms: C_6  and  C_20
    6  A    between atoms: C_7  and  C_21
    7  A    between atoms: N_13  and  C_24
    8  A    between atoms: N_13  and  C_25
    9  A    between atoms: C_17  and  N_22
   10  A    between atoms: N_22  and  C_24
                            x       y       z     vdW  Elec       q    Type
                         _______ _______ _______ _____ _____    ______ ____

>  <TORSDO>
F 10

$$$$
=
 OpenBabel11042417463D

 25 26  0  0  1  0  0  0  0  0999 V2000
  187.2800  177.4470  142.3760 C   0  0  1  0  0  3  0  0  0  0  0  0
  186.3750  177.7880  141.2330 C   0  0  0  0  0  0  0  0  0  0  0  0
  186.8080  177.6940  140.0540 O   0  0  0  0  0  0  0  0  0  0  0  0
  184.2380  178.6050  140.4460 O   0  0  0  0  0  1  0  0  0  0  0  0
  185.0490  178.2580  141.4720 N   0  0  0  0  0  2  0  0  0  0  0  0
  186.5260  177.0050  143.5530 N   0  0  0  0  0  2  0  0  0  0  0  0
  186.3440  178.1730  145.7400 C   0  0  1  0  0  3  0  0  0  0  0  0
  186.9320  177.8180  147.0760 C   0  0  0  0  0  2  0  0  0  0  0  0
  187.6620  176.2280  145.4610 O   0  0  0  0  0  0  0  0  0  0  0  0
  187.8480  176.6420  146.7900 C   0  0  0  0  0  2  0  0  0  0  0  0
  187.2190  177.3730  144.7880 C   0  0  1  0  0  3  0  0  0  0  0  0
  184.8820  177.7260  145.7030 C   0  0  0  0  0  2  0  0  0  0  0  0
  184.6540  179.7800  144.5060 O   0  0  0  0  0  1  0  0  0  0  0  0
  183.9670  178.8770  145.3180 C   0  0  0  0  0  2  0  0  0  0  0  0
  188.2900  176.4660  141.9850 N   0  0  0  0  0  2  0  0  0  0  0  0
  191.5530  175.2340  143.1900 N   0  0  0  0  0  0  0  0  0  0  0  0
  190.2860  175.2510  142.6970 C   0  0  0  0  0  3  0  0  0  0  0  0
  192.2150  176.3840  143.4950 C   0  0  0  0  0  0  0  0  0  0  0  0
  189.6250  176.4660  142.4980 C   0  0  0  0  0  0  0  0  0  0  0  0
  191.5890  177.6200  143.3160 C   0  0  0  0  0  3  0  0  0  0  0  0
  190.2890  177.6580  142.8120 C   0  0  0  0  0  3  0  0  0  0  0  0
  193.5910  176.3210  144.0590 C   0  0  0  0  0  2  0  0  0  0  0  0
  193.6990  175.1650  145.0330 C   0  0  0  0  0  2  0  0  0  0  0  0
  194.5790  175.5660  146.1980 C   0  0  0  0  0  2  0  0  0  0  0  0
  194.2050  176.9590  146.6550 C   0  0  0  0  0  1  0  0  0  0  0  0
  1  2  1  6  0  0  0
  1  6  1  0  0  0  0
  2  5  1  0  0  0  0
  3  2  2  0  0  0  0
  4  5  1  0  0  0  0
  7 12  1  1  0  0  0
  7  8  1  0  0  0  0
  9 10  1  0  0  0  0
 10  8  1  0  0  0  0
 11  6  1  6  0  0  0
 11  9  1  0  0  0  0
 11  7  1  0  0  0  0
 13 14  1  0  0  0  0
 14 12  1  0  0  0  0
 15  1  1  0  0  0  0
 15 19  1  0  0  0  0
 16 18  1  0  0  0  0
 17 16  2  0  0  0  0
 18 22  1  0  0  0  0
 19 17  1  0  0  0  0
 19 21  2  0  0  0  0
 20 18  2  0  0  0  0
 21 20  1  0  0  0  0
 22 23  1  0  0  0  0
 23 24  1  0  0  0  0
 24 25  1  0  0  0  0
M  END
>  <MODEL>
4

>  <REMARK>
 VINA RESULT:      -5.6      1.827      2.674
  Name = 
  10 active torsions:
  status: ('A' for Active; 'I' for Inactive)
    1  A    between atoms: C_1  and  C_10
    2  A    between atoms: C_1  and  C_21
    3  A    between atoms: C_2  and  C_24
    4  A    between atoms: C_6  and  C_11
    5  A    between atoms: C_6  and  C_20
    6  A    between atoms: C_7  and  C_21
    7  A    between atoms: N_13  and  C_24
    8  A    between atoms: N_13  and  C_25
    9  A    between atoms: C_17  and  N_22
   10  A    between atoms: N_22  and  C_24
                            x       y       z     vdW  Elec       q    Type
                         _______ _______ _______ _____ _____    ______ ____

>  <TORSDO>
F 10

$$$$
=
 OpenBabel11042417463D

 25 26  0  0  1  0  0  0  0  0999 V2000
  185.5950  178.1450  142.2040 C   0  0  1  0  0  3  0  0  0  0  0  0
  184.3350  178.2560  141.4040 C   0  0  0  0  0  0  0  0  0  0  0  0
  184.4080  178.4140  140.1570 O   0  0  0  0  0  0  0  0  0  0  0  0
  181.9190  178.3670  141.3370 O   0  0  0  0  0  1  0  0  0  0  0  0
  183.0610  178.2280  142.0480 N   0  0  0  0  0  2  0  0  0  0  0  0
  185.4940  177.1070  143.2370 N   0  0  0  0  0  2  0  0  0  0  0  0
  185.9330  176.9710  145.6790 C   0  0  1  0  0  3  0  0  0  0  0  0
  186.1110  178.0680  146.6910 C   0  0  0  0  0  2  0  0  0  0  0  0
  185.6280  179.0400  144.5720 O   0  0  0  0  0  0  0  0  0  0  0  0
  185.7860  179.3420  145.9340 C   0  0  0  0  0  2  0  0  0  0  0  0
  185.2250  177.6990  144.5480 C   0  0  1  0  0  3  0  0  0  0  0  0
  187.3090  176.4470  145.2650 C   0  0  0  0  0  2  0  0  0  0  0  0
  189.4480  176.7450  146.2840 O   0  0  0  0  0  1  0  0  0  0  0  0
  188.1840  176.1900  146.4810 C   0  0  0  0  0  2  0  0  0  0  0  0
  186.7580  177.9350  141.3450 N   0  0  0  0  0  2  0  0  0  0  0  0
  189.4360  175.5030  142.0770 N   0  0  0  0  0  0  0  0  0  0  0  0
  188.2670  176.0350  141.6300 C   0  0  0  0  0  3  0  0  0  0  0  0
  190.3710  176.2660  142.7060 C   0  0  0  0  0  0  0  0  0  0  0  0
  187.9950  177.3930  141.8160 C   0  0  0  0  0  0  0  0  0  0  0  0
  190.1380  177.6270  142.9170 C   0  0  0  0  0  3  0  0  0  0  0  0
  188.9440  178.1910  142.4660 C   0  0  0  0  0  3  0  0  0  0  0  0
  191.6260  175.6400  143.2060 C   0  0  0  0  0  2  0  0  0  0  0  0
  191.4050  174.1590  143.4470 C   0  0  0  0  0  2  0  0  0  0  0  0
  191.0450  173.9320  144.8990 C   0  0  0  0  0  2  0  0  0  0  0  0
  189.8510  173.0070  144.9850 C   0  0  0  0  0  1  0  0  0  0  0  0
  1 15  1  6  0  0  0
  1  6  1  0  0  0  0
  2  5  1  0  0  0  0
  2  1  1  0  0  0  0
  3  2  2  0  0  0  0
  4  5  1  0  0  0  0
  7 12  1  6  0  0  0
  7  8  1  0  0  0  0
  9 10  1  0  0  0  0
 10  8  1  0  0  0  0
 11  6  1  6  0  0  0
 11  9  1  0  0  0  0
 11  7  1  0  0  0  0
 12 14  1  0  0  0  0
 13 14  1  0  0  0  0
 15 19  1  0  0  0  0
 16 18  1  0  0  0  0
 17 19  1  0  0  0  0
 17 16  2  0  0  0  0
 18 20  2  0  0  0  0
 18 22  1  0  0  0  0
 19 21  2  0  0  0  0
 21 20  1  0  0  0  0
 22 23  1  0  0  0  0
 23 24  1  0  0  0  0
 24 25  1  0  0  0  0
M  END
>  <MODEL>
5

>  <REMARK>
 VINA RESULT:      -5.5      2.072      2.854
  Name = 
  10 active torsions:
  status: ('A' for Active; 'I' for Inactive)
    1  A    between atoms: C_1  and  C_10
    2  A    between atoms: C_1  and  C_21
    3  A    between atoms: C_2  and  C_24
    4  A    between atoms: C_6  and  C_11
    5  A    between atoms: C_6  and  C_20
    6  A    between atoms: C_7  and  C_21
    7  A    between atoms: N_13  and  C_24
    8  A    between atoms: N_13  and  C_25
    9  A    between atoms: C_17  and  N_22
   10  A    between atoms: N_22  and  C_24
                            x       y       z     vdW  Elec       q    Type
                         _______ _______ _______ _____ _____    ______ ____

>  <TORSDO>
F 10

$$$$
=
 OpenBabel11042417463D

 25 26  0  0  1  0  0  0  0  0999 V2000
  187.3560  176.7700  145.9560 C   0  0  1  0  0  3  0  0  0  0  0  0
  186.0190  177.1270  146.5260 C   0  0  0  0  0  0  0  0  0  0  0  0
  185.0130  176.4310  146.2230 O   0  0  0  0  0  0  0  0  0  0  0  0
  184.6580  178.6210  147.8570 O   0  0  0  0  0  1  0  0  0  0  0  0
  185.8700  178.2690  147.3690 N   0  0  0  0  0  2  0  0  0  0  0  0
  187.8420  177.7960  145.0270 N   0  0  0  0  0  2  0  0  0  0  0  0
  186.3180  178.0250  143.0770 C   0  0  1  0  0  3  0  0  0  0  0  0
  186.6320  178.1010  141.6100 C   0  0  0  0  0  2  0  0  0  0  0  0
  188.6580  177.7900  142.8200 O   0  0  0  0  0  0  0  0  0  0  0  0
  188.1220  177.8260  141.5230 C   0  0  0  0  0  2  0  0  0  0  0  0
  187.5890  177.4070  143.6390 C   0  0  1  0  0  3  0  0  0  0  0  0
  186.0710  179.4370  143.6090 C   0  0  0  0  0  2  0  0  0  0  0  0
  183.8610  178.5390  143.7400 O   0  0  0  0  0  1  0  0  0  0  0  0
  184.6860  179.5550  144.2240 C   0  0  0  0  0  2  0  0  0  0  0  0
  188.3310  176.4940  147.0090 N   0  0  0  0  0  2  0  0  0  0  0  0
  192.0000  176.1250  147.1500 N   0  0  0  0  0  0  0  0  0  0  0  0
  190.7420  176.5820  147.3900 C   0  0  0  0  0  3  0  0  0  0  0  0
  192.2320  175.0900  146.2960 C   0  0  0  0  0  0  0  0  0  0  0  0
  189.6470  175.9970  146.7500 C   0  0  0  0  0  0  0  0  0  0  0  0
  191.1650  174.4790  145.6320 C   0  0  0  0  0  3  0  0  0  0  0  0
  189.8670  174.9350  145.8650 C   0  0  0  0  0  3  0  0  0  0  0  0
  193.6260  174.6370  146.0390 C   0  0  0  0  0  2  0  0  0  0  0  0
  194.5720  175.8210  146.0920 C   0  0  0  0  0  2  0  0  0  0  0  0
  194.5660  176.5330  144.7570 C   0  0  0  0  0  2  0  0  0  0  0  0
  195.8610  176.2490  144.0280 C   0  0  0  0  0  1  0  0  0  0  0  0
  1  6  1  1  0  0  0
  1  2  1  0  0  0  0
  1 15  1  0  0  0  0
  2  5  1  0  0  0  0
  3  2  2  0  0  0  0
  5  4  1  0  0  0  0
  7 12  1  1  0  0  0
  7 11  1  0  0  0  0
  8  7  1  0  0  0  0
  9 11  1  0  0  0  0
 10  8  1  0  0  0  0
 10  9  1  0  0  0  0
 11  6  1  1  0  0  0
 12 14  1  0  0  0  0
 13 14  1  0  0  0  0
 16 17  1  0  0  0  0
 18 16  2  0  0  0  0
 19 15  1  0  0  0  0
 19 17  2  0  0  0  0
 20 21  2  0  0  0  0
 20 18  1  0  0  0  0
 21 19  1  0  0  0  0
 22 23  1  0  0  0  0
 22 18  1  0  0  0  0
 24 23  1  0  0  0  0
 25 24  1  0  0  0  0
M  END
>  <MODEL>
6

>  <REMARK>
 VINA RESULT:      -5.5      2.443      4.547
  Name = 
  10 active torsions:
  status: ('A' for Active; 'I' for Inactive)
    1  A    between atoms: C_1  and  C_10
    2  A    between atoms: C_1  and  C_21
    3  A    between atoms: C_2  and  C_24
    4  A    between atoms: C_6  and  C_11
    5  A    between atoms: C_6  and  C_20
    6  A    between atoms: C_7  and  C_21
    7  A    between atoms: N_13  and  C_24
    8  A    between atoms: N_13  and  C_25
    9  A    between atoms: C_17  and  N_22
   10  A    between atoms: N_22  and  C_24
                            x       y       z     vdW  Elec       q    Type
                         _______ _______ _______ _____ _____    ______ ____

>  <TORSDO>
F 10

$$$$
=
 OpenBabel11042417463D

 25 26  0  0  1  0  0  0  0  0999 V2000
  187.9680  176.4650  143.9660 C   0  0  1  0  0  3  0  0  0  0  0  0
  187.8180  176.0920  142.5240 C   0  0  0  0  0  0  0  0  0  0  0  0
  186.8960  176.6160  141.8430 O   0  0  0  0  0  0  0  0  0  0  0  0
  188.5230  174.7460  140.6410 O   0  0  0  0  0  1  0  0  0  0  0  0
  188.6780  175.1170  141.9330 N   0  0  0  0  0  2  0  0  0  0  0  0
  186.6690  176.7150  144.6000 N   0  0  0  0  0  2  0  0  0  0  0  0
  185.7780  178.7460  145.7220 C   0  0  1  0  0  3  0  0  0  0  0  0
  185.6410  179.0600  147.1850 C   0  0  0  0  0  2  0  0  0  0  0  0
  186.6810  176.9330  146.9430 O   0  0  0  0  0  0  0  0  0  0  0  0
  186.3430  177.9140  147.8890 C   0  0  0  0  0  2  0  0  0  0  0  0
  186.8090  177.6290  145.7350 C   0  0  1  0  0  3  0  0  0  0  0  0
  184.4240  178.2850  145.1810 C   0  0  0  0  0  2  0  0  0  0  0  0
  184.0510  178.1100  142.8280 O   0  0  0  0  0  1  0  0  0  0  0  0
  184.0730  179.0120  143.8930 C   0  0  0  0  0  2  0  0  0  0  0  0
  188.7410  175.4660  144.7000 N   0  0  0  0  0  2  0  0  0  0  0  0
  192.0840  176.9720  145.1180 N   0  0  0  0  0  0  0  0  0  0  0  0
  190.8290  176.7340  144.6530 C   0  0  0  0  0  3  0  0  0  0  0  0
  192.6230  176.2330  146.1260 C   0  0  0  0  0  0  0  0  0  0  0  0
  190.0580  175.7080  145.2040 C   0  0  0  0  0  0  0  0  0  0  0  0
  191.8880  175.1940  146.7020 C   0  0  0  0  0  3  0  0  0  0  0  0
  190.5990  174.9350  146.2390 C   0  0  0  0  0  3  0  0  0  0  0  0
  194.0120  176.5080  146.5870 C   0  0  0  0  0  2  0  0  0  0  0  0
  194.9150  176.7470  145.3930 C   0  0  0  0  0  2  0  0  0  0  0  0
  195.2650  175.4230  144.7500 C   0  0  0  0  0  2  0  0  0  0  0  0
  195.9370  174.5290  145.7700 C   0  0  0  0  0  1  0  0  0  0  0  0
  1  2  1  6  0  0  0
  1  6  1  0  0  0  0
  1 15  1  0  0  0  0
  3  2  2  0  0  0  0
  4  5  1  0  0  0  0
  5  2  1  0  0  0  0
  7 12  1  1  0  0  0
  7 11  1  0  0  0  0
  7  8  1  0  0  0  0
  8 10  1  0  0  0  0
  9 10  1  0  0  0  0
 11  6  1  6  0  0  0
 11  9  1  0  0  0  0
 13 14  1  0  0  0  0
 14 12  1  0  0  0  0
 15 19  1  0  0  0  0
 16 18  1  0  0  0  0
 17 16  2  0  0  0  0
 17 19  1  0  0  0  0
 18 22  1  0  0  0  0
 18 20  2  0  0  0  0
 19 21  2  0  0  0  0
 21 20  1  0  0  0  0
 23 22  1  0  0  0  0
 24 23  1  0  0  0  0
 24 25  1  0  0  0  0
M  END
>  <MODEL>
7

>  <REMARK>
 VINA RESULT:      -5.5      1.786      3.229
  Name = 
  10 active torsions:
  status: ('A' for Active; 'I' for Inactive)
    1  A    between atoms: C_1  and  C_10
    2  A    between atoms: C_1  and  C_21
    3  A    between atoms: C_2  and  C_24
    4  A    between atoms: C_6  and  C_11
    5  A    between atoms: C_6  and  C_20
    6  A    between atoms: C_7  and  C_21
    7  A    between atoms: N_13  and  C_24
    8  A    between atoms: N_13  and  C_25
    9  A    between atoms: C_17  and  N_22
   10  A    between atoms: N_22  and  C_24
                            x       y       z     vdW  Elec       q    Type
                         _______ _______ _______ _____ _____    ______ ____

>  <TORSDO>
F 10

$$$$
=
 OpenBabel11042417463D

 25 26  0  0  1  0  0  0  0  0999 V2000
  188.7780  174.7220  141.9790 C   0  0  1  0  0  3  0  0  0  0  0  0
  188.5970  173.5080  141.1210 C   0  0  0  0  0  0  0  0  0  0  0  0
  188.6370  172.3660  141.6520 O   0  0  0  0  0  0  0  0  0  0  0  0
  188.3020  172.5420  138.9230 O   0  0  0  0  0  1  0  0  0  0  0  0
  188.4270  173.6350  139.7100 N   0  0  0  0  0  2  0  0  0  0  0  0
  190.1950  174.9930  142.2460 N   0  0  0  0  0  2  0  0  0  0  0  0
  191.2050  175.6000  144.4340 C   0  0  1  0  0  3  0  0  0  0  0  0
  190.8530  175.1410  145.8210 C   0  0  0  0  0  2  0  0  0  0  0  0
  189.4620  174.0100  144.2540 O   0  0  0  0  0  0  0  0  0  0  0  0
  189.8210  174.0490  145.6110 C   0  0  0  0  0  2  0  0  0  0  0  0
  190.5780  174.5140  143.5740 C   0  0  1  0  0  3  0  0  0  0  0  0
  190.5780  176.9740  144.1880 C   0  0  0  0  0  2  0  0  0  0  0  0
  188.6330  177.8120  145.2910 O   0  0  0  0  0  1  0  0  0  0  0  0
  189.9900  177.5430  145.4690 C   0  0  0  0  0  2  0  0  0  0  0  0
  188.1070  175.8860  141.4060 N   0  0  0  0  0  2  0  0  0  0  0  0
  185.5570  177.0340  143.8160 N   0  0  0  0  0  0  0  0  0  0  0  0
  186.3690  176.2180  143.0910 C   0  0  0  0  0  3  0  0  0  0  0  0
  185.5930  178.3870  143.6710 C   0  0  0  0  0  0  0  0  0  0  0  0
  187.2640  176.7590  142.1650 C   0  0  0  0  0  0  0  0  0  0  0  0
  186.4710  178.9690  142.7530 C   0  0  0  0  0  3  0  0  0  0  0  0
  187.3110  178.1480  142.0000 C   0  0  0  0  0  3  0  0  0  0  0  0
  184.6690  179.2440  144.4630 C   0  0  0  0  0  2  0  0  0  0  0  0
  184.3810  178.5930  145.8020 C   0  0  0  0  0  2  0  0  0  0  0  0
  185.3830  179.0800  146.8260 C   0  0  0  0  0  2  0  0  0  0  0  0
  186.0010  177.8920  147.5300 C   0  0  0  0  0  1  0  0  0  0  0  0
  1  2  1  6  0  0  0
  1  6  1  0  0  0  0
  2  3  2  0  0  0  0
  4  5  1  0  0  0  0
  5  2  1  0  0  0  0
  7 12  1  6  0  0  0
  7  8  1  0  0  0  0
  9 10  1  0  0  0  0
 10  8  1  0  0  0  0
 11  6  1  6  0  0  0
 11  9  1  0  0  0  0
 11  7  1  0  0  0  0
 12 14  1  0  0  0  0
 13 14  1  0  0  0  0
 15  1  1  0  0  0  0
 15 19  1  0  0  0  0
 17 16  2  0  0  0  0
 18 16  1  0  0  0  0
 18 22  1  0  0  0  0
 19 17  1  0  0  0  0
 20 18  2  0  0  0  0
 21 19  2  0  0  0  0
 21 20  1  0  0  0  0
 22 23  1  0  0  0  0
 23 24  1  0  0  0  0
 24 25  1  0  0  0  0
M  END
>  <MODEL>
8

>  <REMARK>
 VINA RESULT:      -5.5      2.459      5.528
  Name = 
  10 active torsions:
  status: ('A' for Active; 'I' for Inactive)
    1  A    between atoms: C_1  and  C_10
    2  A    between atoms: C_1  and  C_21
    3  A    between atoms: C_2  and  C_24
    4  A    between atoms: C_6  and  C_11
    5  A    between atoms: C_6  and  C_20
    6  A    between atoms: C_7  and  C_21
    7  A    between atoms: N_13  and  C_24
    8  A    between atoms: N_13  and  C_25
    9  A    between atoms: C_17  and  N_22
   10  A    between atoms: N_22  and  C_24
                            x       y       z     vdW  Elec       q    Type
                         _______ _______ _______ _____ _____    ______ ____

>  <TORSDO>
F 10

$$$$
=
 OpenBabel11042417463D

 25 26  0  0  1  0  0  0  0  0999 V2000
  190.3250  174.8720  143.2110 C   0  0  1  0  0  3  0  0  0  0  0  0
  190.3880  173.8070  142.1600 C   0  0  0  0  0  0  0  0  0  0  0  0
  190.9760  174.0480  141.0720 O   0  0  0  0  0  0  0  0  0  0  0  0
  189.7720  171.5920  141.4050 O   0  0  0  0  0  1  0  0  0  0  0  0
  189.7520  172.5450  142.3650 N   0  0  0  0  0  2  0  0  0  0  0  0
  191.5230  174.8720  144.0570 N   0  0  0  0  0  2  0  0  0  0  0  0
  192.0690  175.2120  146.4570 C   0  0  1  0  0  3  0  0  0  0  0  0
  191.1620  175.2760  147.6540 C   0  0  0  0  0  2  0  0  0  0  0  0
  189.8550  174.8260  145.7160 O   0  0  0  0  0  0  0  0  0  0  0  0
  189.7930  174.9050  147.1160 C   0  0  0  0  0  2  0  0  0  0  0  0
  191.1900  174.5090  145.4350 C   0  0  1  0  0  3  0  0  0  0  0  0
  192.4360  176.6340  146.0330 C   0  0  0  0  0  2  0  0  0  0  0  0
  194.5780  175.7030  146.5310 O   0  0  0  0  0  1  0  0  0  0  0  0
  193.9440  176.8170  145.9820 C   0  0  0  0  0  2  0  0  0  0  0  0
  190.0810  176.1880  142.6240 N   0  0  0  0  0  2  0  0  0  0  0  0
  186.9420  178.0430  142.0560 N   0  0  0  0  0  0  0  0  0  0  0  0
  188.0620  177.3080  141.8260 C   0  0  0  0  0  3  0  0  0  0  0  0
  186.6020  178.4520  143.3090 C   0  0  0  0  0  0  0  0  0  0  0  0
  188.9030  176.9570  142.8850 C   0  0  0  0  0  0  0  0  0  0  0  0
  187.4170  178.1260  144.3960 C   0  0  0  0  0  3  0  0  0  0  0  0
  188.5710  177.3720  144.1800 C   0  0  0  0  0  3  0  0  0  0  0  0
  185.3820  179.2790  143.5160 C   0  0  0  0  0  2  0  0  0  0  0  0
  185.1820  179.5450  144.9950 C   0  0  0  0  0  2  0  0  0  0  0  0
  184.0710  178.6630  145.5220 C   0  0  0  0  0  2  0  0  0  0  0  0
  184.4500  178.1370  146.8890 C   0  0  0  0  0  1  0  0  0  0  0  0
  1  2  1  6  0  0  0
  1  6  1  0  0  0  0
  2  5  1  0  0  0  0
  3  2  2  0  0  0  0
  4  5  1  0  0  0  0
  7 12  1  6  0  0  0
  7  8  1  0  0  0  0
  9 10  1  0  0  0  0
 10  8  1  0  0  0  0
 11  6  1  6  0  0  0
 11  9  1  0  0  0  0
 11  7  1  0  0  0  0
 14 12  1  0  0  0  0
 14 13  1  0  0  0  0
 15 19  1  0  0  0  0
 15  1  1  0  0  0  0
 16 18  1  0  0  0  0
 17 16  2  0  0  0  0
 17 19  1  0  0  0  0
 18 22  1  0  0  0  0
 18 20  2  0  0  0  0
 19 21  2  0  0  0  0
 21 20  1  0  0  0  0
 22 23  1  0  0  0  0
 23 24  1  0  0  0  0
 24 25  1  0  0  0  0
M  END
>  <MODEL>
9

>  <REMARK>
 VINA RESULT:      -5.4      2.916      6.370
  Name = 
  10 active torsions:
  status: ('A' for Active; 'I' for Inactive)
    1  A    between atoms: C_1  and  C_10
    2  A    between atoms: C_1  and  C_21
    3  A    between atoms: C_2  and  C_24
    4  A    between atoms: C_6  and  C_11
    5  A    between atoms: C_6  and  C_20
    6  A    between atoms: C_7  and  C_21
    7  A    between atoms: N_13  and  C_24
    8  A    between atoms: N_13  and  C_25
    9  A    between atoms: C_17  and  N_22
   10  A    between atoms: N_22  and  C_24
                            x       y       z     vdW  Elec       q    Type
                         _______ _______ _______ _____ _____    ______ ____

>  <TORSDO>
F 10

$$$$
