=
 OpenBabel11042417023D

 44 50  0  0  1  0  0  0  0  0999 V2000
  192.0150  175.9380  146.1220 C   0  0  0  0  0  0  0  0  0  0  0  0
  191.0470  174.6150  141.6000 C   0  0  0  0  0  2  0  0  0  0  0  0
  189.3060  173.4000  142.8340 C   0  0  0  0  0  3  0  0  0  0  0  0
  194.5670  176.0530  143.7780 C   0  0  2  0  0  3  0  0  0  0  0  0
  190.3180  173.9530  143.8170 C   0  0  0  0  0  3  0  0  0  0  0  0
  192.7100  175.5890  144.9830 C   0  0  0  0  0  0  0  0  0  0  0  0
  191.2620  174.7220  143.0310 N   0  0  0  0  0  0  0  0  0  0  0  0
  193.9730  175.9280  145.1030 N   0  0  0  0  0  0  0  0  0  0  0  0
  193.5110  175.5590  142.8810 N   0  0  0  0  0  0  0  0  0  0  0  0
  189.7530  173.8360  141.4350 C   0  0  2  0  0  3  0  0  0  0  0  0
  192.9600  176.5200  146.9770 C   0  0  0  0  0  3  0  0  0  0  0  0
  194.1740  176.5390  146.2820 C   0  0  0  0  0  3  0  0  0  0  0  0
  192.4380  175.3230  143.5830 C   0  0  0  0  0  0  0  0  0  0  0  0
  189.9380  172.6850  140.4820 C   0  0  0  0  0  0  0  0  0  0  0  0
  190.2700  170.5770  138.6400 C   0  0  0  0  0  0  0  0  0  0  0  0
  189.7430  171.8070  138.2170 C   0  0  0  0  0  0  0  0  0  0  0  0
  189.5750  172.8510  139.1360 C   0  0  0  0  0  3  0  0  0  0  0  0
  190.4950  171.4600  140.9020 C   0  0  0  0  0  3  0  0  0  0  0  0
  190.6510  170.4110  139.9890 C   0  0  0  0  0  3  0  0  0  0  0  0
  189.3830  171.9970  136.8880 O   0  0  0  0  0  1  0  0  0  0  0  0
  190.4150  169.5400  137.7070 O   0  0  0  0  0  0  0  0  0  0  0  0
  190.5420  168.1730  138.0920 C   0  0  0  0  0  1  0  0  0  0  0  0
  190.5610  176.0000  146.3220 C   0  0  0  0  0  0  0  0  0  0  0  0
  188.4050  176.9440  145.7990 C   0  0  0  0  0  0  0  0  0  0  0  0
  188.6220  175.1550  147.3510 N   0  0  0  0  0  0  0  0  0  0  0  0
  189.7890  176.9170  145.6060 C   0  0  0  0  0  3  0  0  0  0  0  0
  187.8320  176.0440  146.6950 C   0  0  0  0  0  3  0  0  0  0  0  0
  189.9440  175.1310  147.1690 N   0  0  0  0  0  0  0  0  0  0  0  0
  187.5720  177.8970  145.1290 N   0  0  0  0  0  2  0  0  0  0  0  0
  186.3190  177.5240  144.4830 C   0  0  0  0  0  2  0  0  0  0  0  0
  186.5720  177.4410  140.2250 C   0  0  0  0  0  3  0  0  0  0  0  0
  185.6130  178.1730  140.8550 N   0  0  0  0  0  0  0  0  0  0  0  0
  187.5040  176.7140  140.9690 C   0  0  0  0  0  3  0  0  0  0  0  0
  186.4730  177.5460  142.9970 C   0  0  0  0  0  0  0  0  0  0  0  0
  187.4450  176.7620  142.3640 C   0  0  0  0  0  3  0  0  0  0  0  0
  185.5400  178.2330  142.2130 C   0  0  0  0  0  3  0  0  0  0  0  0
  195.8350  175.2520  143.6120 C   0  0  0  0  0  0  0  0  0  0  0  0
  196.6760  175.5050  142.6410 C   0  0  0  0  0  0  0  0  0  0  0  0
  197.4780  175.7400  141.7240 O   0  0  0  0  0  0  0  0  0  0  0  0
  195.2920  172.5630  144.2340 S   0  0  0  0  0  0  0  0  0  0  0  0
  196.9210  174.0040  145.4920 N   0  0  0  0  0  0  0  0  0  0  0  0
  196.0830  171.8230  145.5350 C   0  0  0  0  0  3  0  0  0  0  0  0
  196.0500  174.0550  144.4510 C   0  0  0  0  0  0  0  0  0  0  0  0
  196.9450  172.7800  146.0910 C   0  0  0  0  0  3  0  0  0  0  0  0
  1 23  1  0  0  0  0
  1 11  1  0  0  0  0
  2  7  1  0  0  0  0
  3  5  2  0  0  0  0
  4 37  1  1  0  0  0
  4  8  1  0  0  0  0
  6  8  1  0  0  0  0
  6  1  2  0  0  0  0
  7 13  1  0  0  0  0
  7  5  1  0  0  0  0
  8 12  1  0  0  0  0
  9 13  2  0  0  0  0
  9  4  1  0  0  0  0
 10 14  1  6  0  0  0
 10  2  1  0  0  0  0
 10  3  1  0  0  0  0
 12 11  2  0  0  0  0
 13  6  1  0  0  0  0
 14 18  1  0  0  0  0
 15 19  1  0  0  0  0
 16 15  2  0  0  0  0
 16 17  1  0  0  0  0
 17 14  2  0  0  0  0
 19 18  2  0  0  0  0
 20 16  1  0  0  0  0
 21 22  1  0  0  0  0
 21 15  1  0  0  0  0
 23 28  1  0  0  0  0
 24 27  2  0  0  0  0
 26 24  1  0  0  0  0
 26 23  2  0  0  0  0
 27 25  1  0  0  0  0
 28 25  2  0  0  0  0
 29 24  1  0  0  0  0
 30 29  1  0  0  0  0
 31 32  2  0  0  0  0
 31 33  1  0  0  0  0
 32 36  1  0  0  0  0
 33 35  2  0  0  0  0
 34 30  1  0  0  0  0
 35 34  1  0  0  0  0
 36 34  2  0  0  0  0
 37 43  1  0  0  0  0
 38 37  2  0  0  0  0
 39 38  2  0  0  0  0
 40 43  1  0  0  0  0
 40 42  1  0  0  0  0
 41 44  1  0  0  0  0
 42 44  2  0  0  0  0
 43 41  2  0  0  0  0
M  END
>  <MODEL>
1

>  <REMARK>
 VINA RESULT:      -8.1      0.000      0.000
  Name = 
  8 active torsions:
  status: ('A' for Active; 'I' for Inactive)
    1  A    between atoms: C_1  and  C_35
    2  A    between atoms: O_2  and  C_13
    3  A    between atoms: N_3  and  C_9
    4  A    between atoms: N_3  and  C_40
    5  A    between atoms: C_4  and  C_7
    6  A    between atoms: C_15  and  C_17
    7  A    between atoms: C_17  and  C_36
    8  A    between atoms: C_30  and  C_40
                            x       y       z     vdW  Elec       q    Type
                         _______ _______ _______ _____ _____    ______ ____

>  <TORSDO>
F 8

$$$$
=
 OpenBabel11042417023D

 44 50  0  0  1  0  0  0  0  0999 V2000
  191.9890  175.8750  146.2660 C   0  0  0  0  0  0  0  0  0  0  0  0
  191.0290  174.5570  141.7420 C   0  0  0  0  0  2  0  0  0  0  0  0
  189.2700  173.3600  142.9680 C   0  0  0  0  0  3  0  0  0  0  0  0
  194.5530  175.9630  143.9330 C   0  0  2  0  0  3  0  0  0  0  0  0
  190.2830  173.9040  143.9550 C   0  0  0  0  0  3  0  0  0  0  0  0
  192.6860  175.5180  145.1310 C   0  0  0  0  0  0  0  0  0  0  0  0
  191.2380  174.6630  143.1730 N   0  0  0  0  0  0  0  0  0  0  0  0
  193.9510  175.8450  145.2560 N   0  0  0  0  0  0  0  0  0  0  0  0
  193.4950  175.4780  143.0330 N   0  0  0  0  0  0  0  0  0  0  0  0
  189.7280  173.7900  141.5720 C   0  0  2  0  0  3  0  0  0  0  0  0
  192.9350  176.4480  147.1250 C   0  0  0  0  0  3  0  0  0  0  0  0
  194.1530  176.4550  146.4360 C   0  0  0  0  0  3  0  0  0  0  0  0
  192.4170  175.2530  143.7300 C   0  0  0  0  0  0  0  0  0  0  0  0
  189.9050  172.6360  140.6200 C   0  0  0  0  0  0  0  0  0  0  0  0
  190.2240  170.5230  138.7810 C   0  0  0  0  0  0  0  0  0  0  0  0
  189.6860  171.7500  138.3610 C   0  0  0  0  0  0  0  0  0  0  0  0
  189.5250  172.7960  139.2780 C   0  0  0  0  0  3  0  0  0  0  0  0
  190.4730  171.4160  141.0370 C   0  0  0  0  0  3  0  0  0  0  0  0
  190.6230  170.3640  140.1270 C   0  0  0  0  0  3  0  0  0  0  0  0
  189.3090  171.9330  137.0360 O   0  0  0  0  0  1  0  0  0  0  0  0
  190.3620  169.4840  137.8510 O   0  0  0  0  0  0  0  0  0  0  0  0
  191.6040  169.1760  137.2210 C   0  0  0  0  0  1  0  0  0  0  0  0
  190.5350  175.9510  146.4600 C   0  0  0  0  0  0  0  0  0  0  0  0
  188.4030  176.9790  145.9980 C   0  0  0  0  0  0  0  0  0  0  0  0
  188.5700  175.0670  147.4040 N   0  0  0  0  0  0  0  0  0  0  0  0
  189.7890  176.9380  145.8130 C   0  0  0  0  0  3  0  0  0  0  0  0
  187.8040  176.0220  146.8150 C   0  0  0  0  0  3  0  0  0  0  0  0
  189.8930  175.0310  147.2300 N   0  0  0  0  0  0  0  0  0  0  0  0
  187.5960  177.9990  145.4010 N   0  0  0  0  0  2  0  0  0  0  0  0
  186.2410  177.7460  144.9230 C   0  0  0  0  0  2  0  0  0  0  0  0
  185.9900  177.9170  140.6680 C   0  0  0  0  0  3  0  0  0  0  0  0
  184.8680  177.9570  141.4370 N   0  0  0  0  0  0  0  0  0  0  0  0
  187.2490  177.8350  141.2650 C   0  0  0  0  0  3  0  0  0  0  0  0
  186.1780  177.8860  143.4370 C   0  0  0  0  0  0  0  0  0  0  0  0
  187.3400  177.8100  142.6590 C   0  0  0  0  0  3  0  0  0  0  0  0
  184.9360  177.9350  142.7970 C   0  0  0  0  0  3  0  0  0  0  0  0
  195.8130  175.1500  143.7740 C   0  0  0  0  0  0  0  0  0  0  0  0
  196.3670  174.5480  144.7970 C   0  0  0  0  0  0  0  0  0  0  0  0
  196.8960  173.9740  145.7610 O   0  0  0  0  0  0  0  0  0  0  0  0
  196.4310  176.4020  141.3320 S   0  0  0  0  0  0  0  0  0  0  0  0
  197.3940  174.2050  142.0780 N   0  0  0  0  0  0  0  0  0  0  0  0
  197.5110  175.6650  140.2570 C   0  0  0  0  0  3  0  0  0  0  0  0
  196.5310  175.1720  142.4830 C   0  0  0  0  0  0  0  0  0  0  0  0
  197.9380  174.4710  140.8570 C   0  0  0  0  0  3  0  0  0  0  0  0
  1 23  1  0  0  0  0
  1 11  1  0  0  0  0
  2  7  1  0  0  0  0
  3  5  2  0  0  0  0
  4 37  1  1  0  0  0
  4  8  1  0  0  0  0
  6  8  1  0  0  0  0
  6  1  2  0  0  0  0
  7 13  1  0  0  0  0
  7  5  1  0  0  0  0
  8 12  1  0  0  0  0
  9 13  2  0  0  0  0
  9  4  1  0  0  0  0
 10 14  1  6  0  0  0
 10  2  1  0  0  0  0
 10  3  1  0  0  0  0
 12 11  2  0  0  0  0
 13  6  1  0  0  0  0
 14 18  1  0  0  0  0
 15 19  1  0  0  0  0
 16 15  2  0  0  0  0
 16 17  1  0  0  0  0
 17 14  2  0  0  0  0
 19 18  2  0  0  0  0
 20 16  1  0  0  0  0
 21 15  1  0  0  0  0
 22 21  1  0  0  0  0
 23 28  1  0  0  0  0
 24 27  2  0  0  0  0
 26 24  1  0  0  0  0
 26 23  2  0  0  0  0
 27 25  1  0  0  0  0
 28 25  2  0  0  0  0
 29 24  1  0  0  0  0
 30 29  1  0  0  0  0
 31 33  2  0  0  0  0
 31 32  1  0  0  0  0
 32 36  2  0  0  0  0
 33 35  1  0  0  0  0
 34 30  1  0  0  0  0
 35 34  2  0  0  0  0
 36 34  1  0  0  0  0
 37 38  2  0  0  0  0
 38 39  2  0  0  0  0
 40 43  1  0  0  0  0
 41 43  2  0  0  0  0
 42 44  2  0  0  0  0
 42 40  1  0  0  0  0
 43 37  1  0  0  0  0
 44 41  1  0  0  0  0
M  END
>  <MODEL>
2

>  <REMARK>
 VINA RESULT:      -7.7      1.343      1.862
  Name = 
  8 active torsions:
  status: ('A' for Active; 'I' for Inactive)
    1  A    between atoms: C_1  and  C_35
    2  A    between atoms: O_2  and  C_13
    3  A    between atoms: N_3  and  C_9
    4  A    between atoms: N_3  and  C_40
    5  A    between atoms: C_4  and  C_7
    6  A    between atoms: C_15  and  C_17
    7  A    between atoms: C_17  and  C_36
    8  A    between atoms: C_30  and  C_40
                            x       y       z     vdW  Elec       q    Type
                         _______ _______ _______ _____ _____    ______ ____

>  <TORSDO>
F 8

$$$$
=
 OpenBabel11042417023D

 44 50  0  0  1  0  0  0  0  0999 V2000
  191.5290  175.9780  145.4440 C   0  0  0  0  0  0  0  0  0  0  0  0
  189.8220  173.6610  141.5900 C   0  0  0  0  0  2  0  0  0  0  0  0
  192.1610  174.0160  140.9340 C   0  0  0  0  0  3  0  0  0  0  0  0
  188.1270  176.1280  144.7900 C   0  0  2  0  0  3  0  0  0  0  0  0
  191.8600  174.8420  142.1680 C   0  0  0  0  0  3  0  0  0  0  0  0
  190.3800  175.9620  144.6810 C   0  0  0  0  0  0  0  0  0  0  0  0
  190.4980  174.5210  142.5430 N   0  0  0  0  0  0  0  0  0  0  0  0
  189.4100  176.5820  145.3110 N   0  0  0  0  0  0  0  0  0  0  0  0
  188.5020  175.2890  143.6420 N   0  0  0  0  0  0  0  0  0  0  0  0
  190.8810  173.2530  140.5810 C   0  0  2  0  0  3  0  0  0  0  0  0
  191.1960  176.6760  146.6110 C   0  0  0  0  0  3  0  0  0  0  0  0
  189.8390  177.0020  146.5130 C   0  0  0  0  0  3  0  0  0  0  0  0
  189.8000  175.1780  143.6060 C   0  0  0  0  0  0  0  0  0  0  0  0
  190.4060  173.5030  139.1730 C   0  0  0  0  0  0  0  0  0  0  0  0
  189.5870  173.9520  136.5130 C   0  0  0  0  0  0  0  0  0  0  0  0
  190.9480  173.7850  136.8140 C   0  0  0  0  0  0  0  0  0  0  0  0
  191.3520  173.5670  138.1370 C   0  0  0  0  0  3  0  0  0  0  0  0
  189.0370  173.6400  138.8690 C   0  0  0  0  0  3  0  0  0  0  0  0
  188.6320  173.8720  137.5500 C   0  0  0  0  0  3  0  0  0  0  0  0
  191.9010  173.8370  135.8040 O   0  0  0  0  0  1  0  0  0  0  0  0
  189.2050  174.1850  135.1850 O   0  0  0  0  0  0  0  0  0  0  0  0
  188.9100  175.4880  134.6870 C   0  0  0  0  0  1  0  0  0  0  0  0
  192.7540  175.1880  145.2670 C   0  0  0  0  0  0  0  0  0  0  0  0
  195.1070  175.0450  144.7580 C   0  0  0  0  0  0  0  0  0  0  0  0
  193.8590  173.1150  145.3690 N   0  0  0  0  0  0  0  0  0  0  0  0
  193.9480  175.8140  144.9020 C   0  0  0  0  0  3  0  0  0  0  0  0
  195.0400  173.6740  144.9940 C   0  0  0  0  0  3  0  0  0  0  0  0
  192.7530  173.8490  145.5040 N   0  0  0  0  0  0  0  0  0  0  0  0
  196.3460  175.6260  144.3370 N   0  0  0  0  0  2  0  0  0  0  0  0
  196.4200  176.6390  143.2890 C   0  0  0  0  0  2  0  0  0  0  0  0
  196.6540  174.9880  139.3630 C   0  0  0  0  0  3  0  0  0  0  0  0
  197.7450  175.0180  140.1750 N   0  0  0  0  0  0  0  0  0  0  0  0
  195.4290  175.4850  139.8120 C   0  0  0  0  0  3  0  0  0  0  0  0
  196.4620  175.9930  141.9430 C   0  0  0  0  0  0  0  0  0  0  0  0
  195.3380  175.9990  141.1080 C   0  0  0  0  0  3  0  0  0  0  0  0
  197.6770  175.5140  141.4410 C   0  0  0  0  0  3  0  0  0  0  0  0
  187.2200  177.2560  144.3630 C   0  0  0  0  0  0  0  0  0  0  0  0
  187.4350  177.9160  143.2530 C   0  0  0  0  0  0  0  0  0  0  0  0
  187.6320  178.5450  142.2020 O   0  0  0  0  0  0  0  0  0  0  0  0
  186.2010  177.5500  146.9680 S   0  0  0  0  0  0  0  0  0  0  0  0
  185.0740  178.4270  144.9010 N   0  0  0  0  0  0  0  0  0  0  0  0
  184.7330  178.3570  147.2120 C   0  0  0  0  0  3  0  0  0  0  0  0
  186.1770  177.7380  145.2910 C   0  0  0  0  0  0  0  0  0  0  0  0
  184.2770  178.7730  145.9520 C   0  0  0  0  0  3  0  0  0  0  0  0
  1 11  1  0  0  0  0
  2  7  1  0  0  0  0
  3  5  2  0  0  0  0
  4 37  1  6  0  0  0
  4  8  1  0  0  0  0
  5  7  1  0  0  0  0
  6  8  1  0  0  0  0
  6  1  2  0  0  0  0
  7 13  1  0  0  0  0
  8 12  1  0  0  0  0
  9  4  1  0  0  0  0
 10 14  1  6  0  0  0
 10  3  1  0  0  0  0
 10  2  1  0  0  0  0
 12 11  2  0  0  0  0
 13  9  2  0  0  0  0
 13  6  1  0  0  0  0
 15 16  2  0  0  0  0
 15 19  1  0  0  0  0
 16 17  1  0  0  0  0
 17 14  2  0  0  0  0
 18 14  1  0  0  0  0
 19 18  2  0  0  0  0
 20 16  1  0  0  0  0
 21 15  1  0  0  0  0
 22 21  1  0  0  0  0
 23  1  1  0  0  0  0
 23 28  1  0  0  0  0
 24 26  1  0  0  0  0
 24 27  2  0  0  0  0
 25 28  2  0  0  0  0
 26 23  2  0  0  0  0
 27 25  1  0  0  0  0
 29 24  1  0  0  0  0
 30 29  1  0  0  0  0
 31 33  2  0  0  0  0
 31 32  1  0  0  0  0
 32 36  2  0  0  0  0
 33 35  1  0  0  0  0
 34 30  1  0  0  0  0
 35 34  2  0  0  0  0
 36 34  1  0  0  0  0
 37 43  1  0  0  0  0
 38 37  2  0  0  0  0
 39 38  2  0  0  0  0
 40 42  1  0  0  0  0
 41 43  2  0  0  0  0
 41 44  1  0  0  0  0
 43 40  1  0  0  0  0
 44 42  2  0  0  0  0
M  END
>  <MODEL>
3

>  <REMARK>
 VINA RESULT:      -7.6      2.993      7.353
  Name = 
  8 active torsions:
  status: ('A' for Active; 'I' for Inactive)
    1  A    between atoms: C_1  and  C_35
    2  A    between atoms: O_2  and  C_13
    3  A    between atoms: N_3  and  C_9
    4  A    between atoms: N_3  and  C_40
    5  A    between atoms: C_4  and  C_7
    6  A    between atoms: C_15  and  C_17
    7  A    between atoms: C_17  and  C_36
    8  A    between atoms: C_30  and  C_40
                            x       y       z     vdW  Elec       q    Type
                         _______ _______ _______ _____ _____    ______ ____

>  <TORSDO>
F 8

$$$$
=
 OpenBabel11042417023D

 44 50  0  0  1  0  0  0  0  0999 V2000
  192.5030  175.4610  145.7830 C   0  0  0  0  0  0  0  0  0  0  0  0
  190.4630  173.2810  142.0130 C   0  0  0  0  0  2  0  0  0  0  0  0
  192.7120  173.7340  141.1400 C   0  0  0  0  0  3  0  0  0  0  0  0
  189.0490  175.5440  145.4890 C   0  0  2  0  0  3  0  0  0  0  0  0
  192.5210  174.4920  142.4380 C   0  0  0  0  0  3  0  0  0  0  0  0
  191.2830  175.4490  145.1420 C   0  0  0  0  0  0  0  0  0  0  0  0
  191.2130  174.1140  142.9330 N   0  0  0  0  0  0  0  0  0  0  0  0
  190.3680  176.0100  145.8980 N   0  0  0  0  0  0  0  0  0  0  0  0
  189.3240  174.7710  144.2670 N   0  0  0  0  0  0  0  0  0  0  0  0
  191.4220  172.9520  140.8810 C   0  0  2  0  0  3  0  0  0  0  0  0
  192.2760  176.0940  147.0120 C   0  0  0  0  0  3  0  0  0  0  0  0
  190.9090  176.3840  147.0700 C   0  0  0  0  0  3  0  0  0  0  0  0
  190.6140  174.7000  144.0940 C   0  0  0  0  0  0  0  0  0  0  0  0
  190.7980  173.2540  139.5440 C   0  0  0  0  0  0  0  0  0  0  0  0
  189.5760  173.8590  137.0760 C   0  0  0  0  0  0  0  0  0  0  0  0
  188.8940  174.0990  138.2790 C   0  0  0  0  0  0  0  0  0  0  0  0
  189.5030  173.7930  139.5030 C   0  0  0  0  0  3  0  0  0  0  0  0
  191.4960  173.0400  138.3380 C   0  0  0  0  0  3  0  0  0  0  0  0
  190.8860  173.3320  137.1140 C   0  0  0  0  0  3  0  0  0  0  0  0
  187.6140  174.6390  138.2640 O   0  0  0  0  0  1  0  0  0  0  0  0
  188.9430  174.1570  135.8620 O   0  0  0  0  0  0  0  0  0  0  0  0
  189.1350  175.3940  135.1780 C   0  0  0  0  0  1  0  0  0  0  0  0
  193.7230  174.7170  145.4430 C   0  0  0  0  0  0  0  0  0  0  0  0
  195.9910  174.6600  144.6270 C   0  0  0  0  0  0  0  0  0  0  0  0
  194.9060  172.6850  145.3900 N   0  0  0  0  0  0  0  0  0  0  0  0
  194.8350  175.3860  144.9260 C   0  0  0  0  0  3  0  0  0  0  0  0
  196.0050  173.2870  144.8650 C   0  0  0  0  0  3  0  0  0  0  0  0
  193.8010  173.3780  145.6720 N   0  0  0  0  0  0  0  0  0  0  0  0
  197.1420  175.2850  144.0490 N   0  0  0  0  0  2  0  0  0  0  0  0
  197.0430  176.4380  143.1610 C   0  0  0  0  0  2  0  0  0  0  0  0
  196.4800  174.9790  139.1910 C   0  0  0  0  0  3  0  0  0  0  0  0
  195.4810  175.6320  139.8450 N   0  0  0  0  0  0  0  0  0  0  0  0
  197.7180  174.7900  139.8090 C   0  0  0  0  0  3  0  0  0  0  0  0
  196.8910  175.9920  141.7430 C   0  0  0  0  0  0  0  0  0  0  0  0
  197.9190  175.2930  141.0970 C   0  0  0  0  0  3  0  0  0  0  0  0
  195.6570  176.1300  141.0990 C   0  0  0  0  0  3  0  0  0  0  0  0
  188.0770  176.6640  145.2130 C   0  0  0  0  0  0  0  0  0  0  0  0
  187.4360  177.2610  146.1860 C   0  0  0  0  0  0  0  0  0  0  0  0
  186.8260  177.8320  147.1020 O   0  0  0  0  0  0  0  0  0  0  0  0
  186.3150  176.4480  143.0310 S   0  0  0  0  0  0  0  0  0  0  0  0
  188.4520  177.7680  142.9970 N   0  0  0  0  0  0  0  0  0  0  0  0
  186.6760  177.2350  141.5760 C   0  0  0  0  0  3  0  0  0  0  0  0
  187.7110  176.9780  143.8160 C   0  0  0  0  0  0  0  0  0  0  0  0
  187.8880  177.9160  141.7650 C   0  0  0  0  0  3  0  0  0  0  0  0
  1 11  1  0  0  0  0
  2  7  1  0  0  0  0
  3  5  2  0  0  0  0
  4 37  1  6  0  0  0
  4  8  1  0  0  0  0
  5  7  1  0  0  0  0
  6  1  2  0  0  0  0
  6  8  1  0  0  0  0
  7 13  1  0  0  0  0
  8 12  1  0  0  0  0
  9  4  1  0  0  0  0
 10 14  1  6  0  0  0
 10  3  1  0  0  0  0
 10  2  1  0  0  0  0
 11 12  2  0  0  0  0
 13  9  2  0  0  0  0
 13  6  1  0  0  0  0
 15 19  2  0  0  0  0
 15 16  1  0  0  0  0
 16 17  2  0  0  0  0
 17 14  1  0  0  0  0
 18 14  2  0  0  0  0
 19 18  1  0  0  0  0
 20 16  1  0  0  0  0
 21 15  1  0  0  0  0
 22 21  1  0  0  0  0
 23 28  1  0  0  0  0
 23  1  1  0  0  0  0
 24 27  2  0  0  0  0
 24 26  1  0  0  0  0
 25 28  2  0  0  0  0
 26 23  2  0  0  0  0
 27 25  1  0  0  0  0
 29 24  1  0  0  0  0
 30 29  1  0  0  0  0
 31 33  2  0  0  0  0
 31 32  1  0  0  0  0
 32 36  2  0  0  0  0
 33 35  1  0  0  0  0
 34 30  1  0  0  0  0
 35 34  2  0  0  0  0
 36 34  1  0  0  0  0
 37 38  2  0  0  0  0
 38 39  2  0  0  0  0
 40 43  1  0  0  0  0
 41 43  2  0  0  0  0
 42 44  2  0  0  0  0
 42 40  1  0  0  0  0
 43 37  1  0  0  0  0
 44 41  1  0  0  0  0
M  END
>  <MODEL>
4

>  <REMARK>
 VINA RESULT:      -7.6      3.037      7.118
  Name = 
  8 active torsions:
  status: ('A' for Active; 'I' for Inactive)
    1  A    between atoms: C_1  and  C_35
    2  A    between atoms: O_2  and  C_13
    3  A    between atoms: N_3  and  C_9
    4  A    between atoms: N_3  and  C_40
    5  A    between atoms: C_4  and  C_7
    6  A    between atoms: C_15  and  C_17
    7  A    between atoms: C_17  and  C_36
    8  A    between atoms: C_30  and  C_40
                            x       y       z     vdW  Elec       q    Type
                         _______ _______ _______ _____ _____    ______ ____

>  <TORSDO>
F 8

$$$$
=
 OpenBabel11042417023D

 44 50  0  0  1  0  0  0  0  0999 V2000
  193.1010  175.8500  145.6520 C   0  0  0  0  0  0  0  0  0  0  0  0
  191.3940  173.3670  141.9030 C   0  0  0  0  0  2  0  0  0  0  0  0
  193.4840  174.2550  140.9720 C   0  0  0  0  0  3  0  0  0  0  0  0
  189.6880  175.2700  145.4620 C   0  0  2  0  0  3  0  0  0  0  0  0
  193.1940  174.9460  142.2890 C   0  0  0  0  0  3  0  0  0  0  0  0
  191.8850  175.6110  145.0460 C   0  0  0  0  0  0  0  0  0  0  0  0
  192.0000  174.3160  142.8160 N   0  0  0  0  0  0  0  0  0  0  0  0
  190.9050  175.9760  145.8400 N   0  0  0  0  0  0  0  0  0  0  0  0
  190.0650  174.5810  144.2190 N   0  0  0  0  0  0  0  0  0  0  0  0
  192.3600  173.2420  140.7370 C   0  0  2  0  0  3  0  0  0  0  0  0
  192.7980  176.4110  146.8980 C   0  0  0  0  0  3  0  0  0  0  0  0
  191.4030  176.4320  147.0020 C   0  0  0  0  0  3  0  0  0  0  0  0
  191.3380  174.7610  144.0050 C   0  0  0  0  0  0  0  0  0  0  0  0
  191.6460  173.4360  139.4250 C   0  0  0  0  0  0  0  0  0  0  0  0
  190.2440  173.8030  137.0070 C   0  0  0  0  0  0  0  0  0  0  0  0
  189.5460  173.5230  138.1920 C   0  0  0  0  0  0  0  0  0  0  0  0
  190.2460  173.3370  139.3910 C   0  0  0  0  0  3  0  0  0  0  0  0
  192.3460  173.7470  138.2420 C   0  0  0  0  0  3  0  0  0  0  0  0
  191.6510  173.9200  137.0410 C   0  0  0  0  0  3  0  0  0  0  0  0
  188.1600  173.4270  138.1840 O   0  0  0  0  0  1  0  0  0  0  0  0
  189.5260  173.9700  135.8150 O   0  0  0  0  0  0  0  0  0  0  0  0
  190.1490  174.3410  134.5870 C   0  0  0  0  0  1  0  0  0  0  0  0
  194.4290  175.3590  145.2600 C   0  0  0  0  0  0  0  0  0  0  0  0
  196.1360  173.6560  145.2990 C   0  0  0  0  0  0  0  0  0  0  0  0
  196.4170  175.6540  144.0400 N   0  0  0  0  0  0  0  0  0  0  0  0
  194.8760  174.1110  145.7000 C   0  0  0  0  0  3  0  0  0  0  0  0
  196.9060  174.4580  144.4600 C   0  0  0  0  0  3  0  0  0  0  0  0
  195.2160  176.0900  144.4250 N   0  0  0  0  0  0  0  0  0  0  0  0
  196.6650  172.4090  145.7610 N   0  0  0  0  0  2  0  0  0  0  0  0
  196.4520  171.1550  145.0460 C   0  0  0  0  0  2  0  0  0  0  0  0
  195.5560  168.1660  147.9550 C   0  0  0  0  0  3  0  0  0  0  0  0
  194.5620  168.8190  147.2940 N   0  0  0  0  0  0  0  0  0  0  0  0
  196.8930  168.4560  147.6770 C   0  0  0  0  0  3  0  0  0  0  0  0
  196.1590  170.0510  146.0080 C   0  0  0  0  0  0  0  0  0  0  0  0
  197.1930  169.4110  146.7030 C   0  0  0  0  0  3  0  0  0  0  0  0
  194.8340  169.7520  146.3410 C   0  0  0  0  0  3  0  0  0  0  0  0
  188.5100  176.1860  145.2370 C   0  0  0  0  0  0  0  0  0  0  0  0
  187.6350  176.4120  146.1840 C   0  0  0  0  0  0  0  0  0  0  0  0
  186.8030  176.6320  147.0780 O   0  0  0  0  0  0  0  0  0  0  0  0
  186.9310  176.2610  142.9100 S   0  0  0  0  0  0  0  0  0  0  0  0
  189.0140  177.6240  143.2500 N   0  0  0  0  0  0  0  0  0  0  0  0
  187.3730  177.2690  141.6240 C   0  0  0  0  0  3  0  0  0  0  0  0
  188.2420  176.6990  143.8780 C   0  0  0  0  0  0  0  0  0  0  0  0
  188.5410  177.9430  142.0120 C   0  0  0  0  0  3  0  0  0  0  0  0
  1 11  1  0  0  0  0
  2  7  1  0  0  0  0
  3  5  2  0  0  0  0
  4 37  1  6  0  0  0
  4  8  1  0  0  0  0
  5  7  1  0  0  0  0
  6  1  2  0  0  0  0
  6  8  1  0  0  0  0
  7 13  1  0  0  0  0
  8 12  1  0  0  0  0
  9  4  1  0  0  0  0
 10 14  1  6  0  0  0
 10  3  1  0  0  0  0
 10  2  1  0  0  0  0
 11 12  2  0  0  0  0
 13  9  2  0  0  0  0
 13  6  1  0  0  0  0
 15 19  2  0  0  0  0
 15 16  1  0  0  0  0
 16 17  2  0  0  0  0
 17 14  1  0  0  0  0
 18 14  2  0  0  0  0
 19 18  1  0  0  0  0
 20 16  1  0  0  0  0
 21 15  1  0  0  0  0
 22 21  1  0  0  0  0
 23  1  1  0  0  0  0
 23 26  1  0  0  0  0
 24 26  2  0  0  0  0
 24 29  1  0  0  0  0
 25 28  1  0  0  0  0
 25 27  2  0  0  0  0
 27 24  1  0  0  0  0
 28 23  2  0  0  0  0
 30 29  1  0  0  0  0
 30 34  1  0  0  0  0
 32 31  2  0  0  0  0
 33 31  1  0  0  0  0
 34 36  2  0  0  0  0
 34 35  1  0  0  0  0
 35 33  2  0  0  0  0
 36 32  1  0  0  0  0
 37 38  2  0  0  0  0
 38 39  2  0  0  0  0
 40 43  1  0  0  0  0
 41 43  2  0  0  0  0
 42 44  2  0  0  0  0
 42 40  1  0  0  0  0
 43 37  1  0  0  0  0
 44 41  1  0  0  0  0
M  END
>  <MODEL>
5

>  <REMARK>
 VINA RESULT:      -7.4      3.120      7.871
  Name = 
  8 active torsions:
  status: ('A' for Active; 'I' for Inactive)
    1  A    between atoms: C_1  and  C_35
    2  A    between atoms: O_2  and  C_13
    3  A    between atoms: N_3  and  C_9
    4  A    between atoms: N_3  and  C_40
    5  A    between atoms: C_4  and  C_7
    6  A    between atoms: C_15  and  C_17
    7  A    between atoms: C_17  and  C_36
    8  A    between atoms: C_30  and  C_40
                            x       y       z     vdW  Elec       q    Type
                         _______ _______ _______ _____ _____    ______ ____

>  <TORSDO>
F 8

$$$$
=
 OpenBabel11042417023D

 44 50  0  0  1  0  0  0  0  0999 V2000
  192.4470  176.0340  146.0190 C   0  0  0  0  0  0  0  0  0  0  0  0
  190.6290  173.5030  142.3560 C   0  0  0  0  0  2  0  0  0  0  0  0
  192.7310  174.3130  141.3780 C   0  0  0  0  0  3  0  0  0  0  0  0
  189.0170  175.5400  145.8850 C   0  0  2  0  0  3  0  0  0  0  0  0
  192.4740  175.0440  142.6800 C   0  0  0  0  0  3  0  0  0  0  0  0
  191.2170  175.8120  145.4350 C   0  0  0  0  0  0  0  0  0  0  0  0
  191.2720  174.4590  143.2370 N   0  0  0  0  0  0  0  0  0  0  0  0
  190.2570  176.2230  146.2300 N   0  0  0  0  0  0  0  0  0  0  0  0
  189.3610  174.8090  144.6550 N   0  0  0  0  0  0  0  0  0  0  0  0
  191.5780  173.3240  141.1820 C   0  0  2  0  0  3  0  0  0  0  0  0
  192.1730  176.6350  147.2550 C   0  0  0  0  0  3  0  0  0  0  0  0
  190.7810  176.6950  147.3740 C   0  0  0  0  0  3  0  0  0  0  0  0
  190.6360  174.9510  144.4220 C   0  0  0  0  0  0  0  0  0  0  0  0
  190.8530  173.5040  139.8740 C   0  0  0  0  0  0  0  0  0  0  0  0
  189.5600  173.8190  137.3890 C   0  0  0  0  0  0  0  0  0  0  0  0
  190.9540  173.6690  137.4450 C   0  0  0  0  0  0  0  0  0  0  0  0
  191.5940  173.5170  138.6820 C   0  0  0  0  0  3  0  0  0  0  0  0
  189.4500  173.6240  139.8170 C   0  0  0  0  0  3  0  0  0  0  0  0
  188.8100  173.7900  138.5850 C   0  0  0  0  0  3  0  0  0  0  0  0
  191.7080  173.6720  136.2780 O   0  0  0  0  0  1  0  0  0  0  0  0
  188.9410  173.9860  136.1420 O   0  0  0  0  0  0  0  0  0  0  0  0
  188.5720  175.2660  135.6320 C   0  0  0  0  0  1  0  0  0  0  0  0
  193.7560  175.4990  145.6250 C   0  0  0  0  0  0  0  0  0  0  0  0
  195.2890  173.6520  145.3940 C   0  0  0  0  0  0  0  0  0  0  0  0
  195.8740  175.8380  144.6610 N   0  0  0  0  0  0  0  0  0  0  0  0
  194.0420  174.1430  145.7940 C   0  0  0  0  0  3  0  0  0  0  0  0
  196.2080  174.5310  144.8250 C   0  0  0  0  0  3  0  0  0  0  0  0
  194.6850  176.3060  145.0460 N   0  0  0  0  0  0  0  0  0  0  0  0
  195.6540  172.2810  145.5900 N   0  0  0  0  0  2  0  0  0  0  0  0
  195.9730  171.3900  144.4800 C   0  0  0  0  0  2  0  0  0  0  0  0
  192.4860  169.6810  142.7150 C   0  0  0  0  0  3  0  0  0  0  0  0
  192.6940  169.6150  144.0580 N   0  0  0  0  0  0  0  0  0  0  0  0
  193.4090  170.3280  141.8910 C   0  0  0  0  0  3  0  0  0  0  0  0
  194.7210  170.8690  143.8550 C   0  0  0  0  0  0  0  0  0  0  0  0
  194.5380  170.9160  142.4670 C   0  0  0  0  0  3  0  0  0  0  0  0
  193.7860  170.1830  144.6380 C   0  0  0  0  0  3  0  0  0  0  0  0
  187.8610  176.4800  145.6500 C   0  0  0  0  0  0  0  0  0  0  0  0
  187.0210  176.7760  146.6090 C   0  0  0  0  0  0  0  0  0  0  0  0
  186.2220  177.0610  147.5140 O   0  0  0  0  0  0  0  0  0  0  0  0
  186.2770  176.4160  143.3260 S   0  0  0  0  0  0  0  0  0  0  0  0
  188.3000  177.8780  143.6190 N   0  0  0  0  0  0  0  0  0  0  0  0
  186.6740  177.4020  142.0090 C   0  0  0  0  0  3  0  0  0  0  0  0
  187.5690  176.9400  144.2770 C   0  0  0  0  0  0  0  0  0  0  0  0
  187.8120  178.1380  142.3730 C   0  0  0  0  0  3  0  0  0  0  0  0
  1 11  1  0  0  0  0
  2  7  1  0  0  0  0
  3  5  2  0  0  0  0
  4 37  1  6  0  0  0
  4  8  1  0  0  0  0
  5  7  1  0  0  0  0
  6  1  2  0  0  0  0
  6  8  1  0  0  0  0
  7 13  1  0  0  0  0
  8 12  1  0  0  0  0
  9  4  1  0  0  0  0
 10 14  1  6  0  0  0
 10  3  1  0  0  0  0
 10  2  1  0  0  0  0
 11 12  2  0  0  0  0
 13  9  2  0  0  0  0
 13  6  1  0  0  0  0
 15 16  2  0  0  0  0
 15 19  1  0  0  0  0
 16 17  1  0  0  0  0
 17 14  2  0  0  0  0
 18 14  1  0  0  0  0
 19 18  2  0  0  0  0
 20 16  1  0  0  0  0
 21 15  1  0  0  0  0
 22 21  1  0  0  0  0
 23 26  1  0  0  0  0
 23  1  1  0  0  0  0
 24 29  1  0  0  0  0
 24 26  2  0  0  0  0
 25 27  2  0  0  0  0
 25 28  1  0  0  0  0
 27 24  1  0  0  0  0
 28 23  2  0  0  0  0
 30 29  1  0  0  0  0
 31 32  1  0  0  0  0
 32 36  2  0  0  0  0
 33 35  1  0  0  0  0
 33 31  2  0  0  0  0
 34 30  1  0  0  0  0
 34 36  1  0  0  0  0
 35 34  2  0  0  0  0
 37 38  2  0  0  0  0
 38 39  2  0  0  0  0
 40 43  1  0  0  0  0
 41 43  2  0  0  0  0
 42 44  2  0  0  0  0
 42 40  1  0  0  0  0
 43 37  1  0  0  0  0
 44 41  1  0  0  0  0
M  END
>  <MODEL>
6

>  <REMARK>
 VINA RESULT:      -7.3      3.111      7.177
  Name = 
  8 active torsions:
  status: ('A' for Active; 'I' for Inactive)
    1  A    between atoms: C_1  and  C_35
    2  A    between atoms: O_2  and  C_13
    3  A    between atoms: N_3  and  C_9
    4  A    between atoms: N_3  and  C_40
    5  A    between atoms: C_4  and  C_7
    6  A    between atoms: C_15  and  C_17
    7  A    between atoms: C_17  and  C_36
    8  A    between atoms: C_30  and  C_40
                            x       y       z     vdW  Elec       q    Type
                         _______ _______ _______ _____ _____    ______ ____

>  <TORSDO>
F 8

$$$$
=
 OpenBabel11042417023D

 44 50  0  0  1  0  0  0  0  0999 V2000
  190.9390  176.0680  144.3300 C   0  0  0  0  0  0  0  0  0  0  0  0
  192.1030  173.9340  140.1800 C   0  0  0  0  0  2  0  0  0  0  0  0
  189.6540  173.7640  140.1310 C   0  0  0  0  0  3  0  0  0  0  0  0
  194.0950  174.6660  144.0130 C   0  0  2  0  0  3  0  0  0  0  0  0
  190.0950  174.2000  141.5140 C   0  0  0  0  0  3  0  0  0  0  0  0
  191.9030  175.2040  143.8550 C   0  0  0  0  0  0  0  0  0  0  0  0
  191.5330  174.3590  141.4440 N   0  0  0  0  0  0  0  0  0  0  0  0
  192.8980  175.1220  144.7080 N   0  0  0  0  0  0  0  0  0  0  0  0
  193.6010  174.3230  142.6710 N   0  0  0  0  0  0  0  0  0  0  0  0
  190.9200  173.6170  139.2810 C   0  0  2  0  0  3  0  0  0  0  0  0
  191.4130  176.5160  145.5700 C   0  0  0  0  0  3  0  0  0  0  0  0
  192.6720  175.9350  145.7540 C   0  0  0  0  0  3  0  0  0  0  0  0
  192.3450  174.6630  142.5830 C   0  0  0  0  0  0  0  0  0  0  0  0
  191.0660  172.2520  138.6610 C   0  0  0  0  0  0  0  0  0  0  0  0
  191.4160  169.7010  137.5150 C   0  0  0  0  0  0  0  0  0  0  0  0
  192.5310  170.5060  137.7970 C   0  0  0  0  0  0  0  0  0  0  0  0
  192.3520  171.7760  138.3630 C   0  0  0  0  0  3  0  0  0  0  0  0
  189.9490  171.4320  138.4060 C   0  0  0  0  0  3  0  0  0  0  0  0
  190.1220  170.1700  137.8290 C   0  0  0  0  0  3  0  0  0  0  0  0
  193.8130  170.0520  137.5160 O   0  0  0  0  0  1  0  0  0  0  0  0
  191.6150  168.4400  136.9340 O   0  0  0  0  0  0  0  0  0  0  0  0
  191.5970  168.2320  135.5240 C   0  0  0  0  0  1  0  0  0  0  0  0
  189.8080  176.6630  143.6060 C   0  0  0  0  0  0  0  0  0  0  0  0
  187.4370  176.8820  143.2260 C   0  0  0  0  0  0  0  0  0  0  0  0
  189.0070  178.1910  142.0080 N   0  0  0  0  0  0  0  0  0  0  0  0
  188.4990  176.2880  143.9150 C   0  0  0  0  0  3  0  0  0  0  0  0
  187.7170  177.8430  142.2560 C   0  0  0  0  0  3  0  0  0  0  0  0
  190.0200  177.6210  142.6640 N   0  0  0  0  0  0  0  0  0  0  0  0
  186.0790  176.4990  143.4650 N   0  0  0  0  0  2  0  0  0  0  0  0
  185.0790  177.4340  143.9710 C   0  0  0  0  0  2  0  0  0  0  0  0
  186.1030  178.4500  147.9850 C   0  0  0  0  0  3  0  0  0  0  0  0
  185.9120  179.4160  147.0460 N   0  0  0  0  0  0  0  0  0  0  0  0
  185.9500  177.1030  147.6500 C   0  0  0  0  0  3  0  0  0  0  0  0
  185.3590  177.7730  145.3980 C   0  0  0  0  0  0  0  0  0  0  0  0
  185.5850  176.7650  146.3440 C   0  0  0  0  0  3  0  0  0  0  0  0
  185.5550  179.1070  145.7690 C   0  0  0  0  0  3  0  0  0  0  0  0
  194.7520  173.4770  144.6690 C   0  0  0  0  0  0  0  0  0  0  0  0
  195.7810  173.6230  145.4650 C   0  0  0  0  0  0  0  0  0  0  0  0
  196.7550  173.7540  146.2210 O   0  0  0  0  0  0  0  0  0  0  0  0
  195.2120  171.0860  143.2590 S   0  0  0  0  0  0  0  0  0  0  0  0
  193.2080  171.5060  144.7150 N   0  0  0  0  0  0  0  0  0  0  0  0
  194.0940  169.8200  143.3600 C   0  0  0  0  0  3  0  0  0  0  0  0
  194.3400  172.1140  144.2740 C   0  0  0  0  0  0  0  0  0  0  0  0
  193.0680  170.2440  144.2190 C   0  0  0  0  0  3  0  0  0  0  0  0
  1 11  1  0  0  0  0
  2  7  1  0  0  0  0
  3  5  2  0  0  0  0
  4 37  1  1  0  0  0
  4  8  1  0  0  0  0
  6  1  2  0  0  0  0
  6  8  1  0  0  0  0
  7  5  1  0  0  0  0
  7 13  1  0  0  0  0
  8 12  1  0  0  0  0
  9  4  1  0  0  0  0
 10 14  1  1  0  0  0
 10  3  1  0  0  0  0
 10  2  1  0  0  0  0
 11 12  2  0  0  0  0
 13  9  2  0  0  0  0
 13  6  1  0  0  0  0
 15 16  2  0  0  0  0
 15 19  1  0  0  0  0
 16 17  1  0  0  0  0
 17 14  2  0  0  0  0
 18 14  1  0  0  0  0
 19 18  2  0  0  0  0
 20 16  1  0  0  0  0
 21 15  1  0  0  0  0
 22 21  1  0  0  0  0
 23 26  1  0  0  0  0
 23  1  1  0  0  0  0
 24 29  1  0  0  0  0
 24 26  2  0  0  0  0
 25 27  2  0  0  0  0
 25 28  1  0  0  0  0
 27 24  1  0  0  0  0
 28 23  2  0  0  0  0
 29 30  1  0  0  0  0
 30 34  1  0  0  0  0
 32 31  2  0  0  0  0
 33 31  1  0  0  0  0
 34 36  2  0  0  0  0
 34 35  1  0  0  0  0
 35 33  2  0  0  0  0
 36 32  1  0  0  0  0
 37 38  2  0  0  0  0
 38 39  2  0  0  0  0
 40 42  1  0  0  0  0
 40 43  1  0  0  0  0
 42 44  2  0  0  0  0
 43 37  1  0  0  0  0
 43 41  2  0  0  0  0
 44 41  1  0  0  0  0
M  END
>  <MODEL>
7

>  <REMARK>
 VINA RESULT:      -7.0      2.232      3.489
  Name = 
  8 active torsions:
  status: ('A' for Active; 'I' for Inactive)
    1  A    between atoms: C_1  and  C_35
    2  A    between atoms: O_2  and  C_13
    3  A    between atoms: N_3  and  C_9
    4  A    between atoms: N_3  and  C_40
    5  A    between atoms: C_4  and  C_7
    6  A    between atoms: C_15  and  C_17
    7  A    between atoms: C_17  and  C_36
    8  A    between atoms: C_30  and  C_40
                            x       y       z     vdW  Elec       q    Type
                         _______ _______ _______ _____ _____    ______ ____

>  <TORSDO>
F 8

$$$$
=
 OpenBabel11042417023D

 44 50  0  0  1  0  0  0  0  0999 V2000
  192.2420  175.7320  145.7910 C   0  0  0  0  0  0  0  0  0  0  0  0
  190.4530  173.3840  141.9940 C   0  0  0  0  0  2  0  0  0  0  0  0
  192.7820  173.7160  141.2930 C   0  0  0  0  0  3  0  0  0  0  0  0
  188.8300  175.8990  145.1950 C   0  0  2  0  0  3  0  0  0  0  0  0
  192.5080  174.5580  142.5220 C   0  0  0  0  0  3  0  0  0  0  0  0
  191.0810  175.7160  145.0480 C   0  0  0  0  0  0  0  0  0  0  0  0
  191.1510  174.2500  142.9250 N   0  0  0  0  0  0  0  0  0  0  0  0
  190.1260  176.3500  145.6880 N   0  0  0  0  0  0  0  0  0  0  0  0
  189.1800  175.0440  144.0490 N   0  0  0  0  0  0  0  0  0  0  0  0
  191.4910  172.9570  140.9710 C   0  0  2  0  0  3  0  0  0  0  0  0
  191.9350  176.4460  146.9560 C   0  0  0  0  0  3  0  0  0  0  0  0
  190.5780  176.7800  146.8780 C   0  0  0  0  0  3  0  0  0  0  0  0
  190.4770  174.9240  143.9930 C   0  0  0  0  0  0  0  0  0  0  0  0
  190.9940  173.1950  139.5690 C   0  0  0  0  0  0  0  0  0  0  0  0
  189.9980  173.6690  136.9740 C   0  0  0  0  0  0  0  0  0  0  0  0
  189.1520  173.7880  138.0870 C   0  0  0  0  0  0  0  0  0  0  0  0
  189.6490  173.5470  139.3750 C   0  0  0  0  0  3  0  0  0  0  0  0
  191.8520  173.1040  138.4550 C   0  0  0  0  0  3  0  0  0  0  0  0
  191.3560  173.3300  137.1670 C   0  0  0  0  0  3  0  0  0  0  0  0
  187.8190  174.1430  137.9200 O   0  0  0  0  0  1  0  0  0  0  0  0
  189.4780  173.8980  135.6930 O   0  0  0  0  0  0  0  0  0  0  0  0
  189.6570  172.9820  134.6150 C   0  0  0  0  0  1  0  0  0  0  0  0
  193.4600  174.9330  145.6010 C   0  0  0  0  0  0  0  0  0  0  0  0
  194.5910  172.8030  145.5600 C   0  0  0  0  0  0  0  0  0  0  0  0
  195.7350  174.8170  145.0160 N   0  0  0  0  0  0  0  0  0  0  0  0
  193.4240  173.5460  145.7650 C   0  0  0  0  0  3  0  0  0  0  0  0
  195.7560  173.4690  145.1860 C   0  0  0  0  0  3  0  0  0  0  0  0
  194.6210  175.5260  145.2150 N   0  0  0  0  0  0  0  0  0  0  0  0
  194.6240  171.3870  145.7630 N   0  0  0  0  0  2  0  0  0  0  0  0
  195.2360  170.4730  144.8050 C   0  0  0  0  0  2  0  0  0  0  0  0
  192.5450  169.2460  141.7300 C   0  0  0  0  0  3  0  0  0  0  0  0
  192.3280  168.9020  143.0290 N   0  0  0  0  0  0  0  0  0  0  0  0
  193.6520  170.0240  141.3850 C   0  0  0  0  0  3  0  0  0  0  0  0
  194.2640  170.1210  143.7270 C   0  0  0  0  0  0  0  0  0  0  0  0
  194.5200  170.4550  142.3920 C   0  0  0  0  0  3  0  0  0  0  0  0
  193.1610  169.3130  144.0240 C   0  0  0  0  0  3  0  0  0  0  0  0
  187.9250  177.0280  144.7700 C   0  0  0  0  0  0  0  0  0  0  0  0
  188.0940  177.6410  143.6260 C   0  0  0  0  0  0  0  0  0  0  0  0
  188.2480  178.2260  142.5430 O   0  0  0  0  0  0  0  0  0  0  0  0
  185.6280  178.5510  145.3360 S   0  0  0  0  0  0  0  0  0  0  0  0
  186.9550  177.2990  147.0630 N   0  0  0  0  0  0  0  0  0  0  0  0
  185.0670  178.6690  146.9280 C   0  0  0  0  0  3  0  0  0  0  0  0
  186.9390  177.5660  145.7310 C   0  0  0  0  0  0  0  0  0  0  0  0
  185.9270  177.9010  147.7260 C   0  0  0  0  0  3  0  0  0  0  0  0
  1 11  1  0  0  0  0
  2  7  1  0  0  0  0
  3  5  2  0  0  0  0
  4 37  1  6  0  0  0
  4  8  1  0  0  0  0
  5  7  1  0  0  0  0
  6  8  1  0  0  0  0
  6  1  2  0  0  0  0
  7 13  1  0  0  0  0
  8 12  1  0  0  0  0
  9  4  1  0  0  0  0
 10 14  1  6  0  0  0
 10  3  1  0  0  0  0
 10  2  1  0  0  0  0
 12 11  2  0  0  0  0
 13  9  2  0  0  0  0
 13  6  1  0  0  0  0
 15 19  2  0  0  0  0
 15 16  1  0  0  0  0
 16 17  2  0  0  0  0
 17 14  1  0  0  0  0
 18 14  2  0  0  0  0
 19 18  1  0  0  0  0
 20 16  1  0  0  0  0
 21 15  1  0  0  0  0
 22 21  1  0  0  0  0
 23 26  1  0  0  0  0
 23  1  1  0  0  0  0
 24 29  1  0  0  0  0
 24 26  2  0  0  0  0
 25 27  2  0  0  0  0
 25 28  1  0  0  0  0
 27 24  1  0  0  0  0
 28 23  2  0  0  0  0
 30 29  1  0  0  0  0
 31 32  1  0  0  0  0
 32 36  2  0  0  0  0
 33 31  2  0  0  0  0
 33 35  1  0  0  0  0
 34 36  1  0  0  0  0
 34 30  1  0  0  0  0
 35 34  2  0  0  0  0
 37 43  1  0  0  0  0
 38 37  2  0  0  0  0
 39 38  2  0  0  0  0
 40 43  1  0  0  0  0
 40 42  1  0  0  0  0
 41 44  1  0  0  0  0
 42 44  2  0  0  0  0
 43 41  2  0  0  0  0
M  END
>  <MODEL>
8

>  <REMARK>
 VINA RESULT:      -7.0      3.173      7.183
  Name = 
  8 active torsions:
  status: ('A' for Active; 'I' for Inactive)
    1  A    between atoms: C_1  and  C_35
    2  A    between atoms: O_2  and  C_13
    3  A    between atoms: N_3  and  C_9
    4  A    between atoms: N_3  and  C_40
    5  A    between atoms: C_4  and  C_7
    6  A    between atoms: C_15  and  C_17
    7  A    between atoms: C_17  and  C_36
    8  A    between atoms: C_30  and  C_40
                            x       y       z     vdW  Elec       q    Type
                         _______ _______ _______ _____ _____    ______ ____

>  <TORSDO>
F 8

$$$$
=
 OpenBabel11042417023D

 44 50  0  0  1  0  0  0  0  0999 V2000
  192.8930  171.2460  141.7800 C   0  0  0  0  0  0  0  0  0  0  0  0
  191.0060  175.3680  143.3870 C   0  0  0  0  0  2  0  0  0  0  0  0
  191.0060  174.0150  145.4350 C   0  0  0  0  0  3  0  0  0  0  0  0
  191.3100  173.3390  139.5140 C   0  0  2  0  0  3  0  0  0  0  0  0
  191.3050  173.1210  144.2490 C   0  0  0  0  0  3  0  0  0  0  0  0
  192.0040  172.2060  141.3450 C   0  0  0  0  0  0  0  0  0  0  0  0
  191.3720  173.9950  143.0960 N   0  0  0  0  0  0  0  0  0  0  0  0
  191.7920  172.0750  140.0570 N   0  0  0  0  0  0  0  0  0  0  0  0
  191.1030  174.1680  140.7120 N   0  0  0  0  0  0  0  0  0  0  0  0
  190.8390  175.4380  144.8950 C   0  0  2  0  0  3  0  0  0  0  0  0
  193.2130  170.4880  140.6470 C   0  0  0  0  0  3  0  0  0  0  0  0
  192.5360  171.0690  139.5690 C   0  0  0  0  0  3  0  0  0  0  0  0
  191.5330  173.5160  141.7560 C   0  0  0  0  0  0  0  0  0  0  0  0
  189.5180  176.0640  145.2600 C   0  0  0  0  0  0  0  0  0  0  0  0
  187.0360  177.2540  145.8700 C   0  0  0  0  0  0  0  0  0  0  0  0
  187.6390  177.4800  144.6230 C   0  0  0  0  0  0  0  0  0  0  0  0
  188.8750  176.8900  144.3250 C   0  0  0  0  0  3  0  0  0  0  0  0
  188.8990  175.8120  146.5010 C   0  0  0  0  0  3  0  0  0  0  0  0
  187.6720  176.4100  146.8070 C   0  0  0  0  0  3  0  0  0  0  0  0
  187.0180  178.2880  143.6790 O   0  0  0  0  0  1  0  0  0  0  0  0
  185.8080  177.8660  146.1540 O   0  0  0  0  0  0  0  0  0  0  0  0
  185.6240  178.7430  147.2640 C   0  0  0  0  0  1  0  0  0  0  0  0
  193.6160  171.1810  143.0570 C   0  0  0  0  0  0  0  0  0  0  0  0
  195.3750  171.9460  144.5180 C   0  0  0  0  0  0  0  0  0  0  0  0
  193.8230  170.2870  145.2230 N   0  0  0  0  0  0  0  0  0  0  0  0
  194.7140  172.0120  143.2880 C   0  0  0  0  0  3  0  0  0  0  0  0
  194.9100  171.0590  145.4860 C   0  0  0  0  0  3  0  0  0  0  0  0
  193.1940  170.3480  144.0470 N   0  0  0  0  0  0  0  0  0  0  0  0
  196.5360  172.7380  144.7900 N   0  0  0  0  0  2  0  0  0  0  0  0
  196.5880  173.7040  145.8820 C   0  0  0  0  0  2  0  0  0  0  0  0
  194.2260  177.1720  145.1140 C   0  0  0  0  0  3  0  0  0  0  0  0
  195.1960  176.7790  144.2440 N   0  0  0  0  0  0  0  0  0  0  0  0
  193.9780  176.4320  146.2720 C   0  0  0  0  0  3  0  0  0  0  0  0
  195.6980  174.8680  145.5910 C   0  0  0  0  0  0  0  0  0  0  0  0
  194.7270  175.2770  146.5130 C   0  0  0  0  0  3  0  0  0  0  0  0
  195.9350  175.6570  144.4610 C   0  0  0  0  0  3  0  0  0  0  0  0
  190.0330  173.2050  138.7230 C   0  0  0  0  0  0  0  0  0  0  0  0
  188.8970  172.9270  139.3100 C   0  0  0  0  0  0  0  0  0  0  0  0
  187.8160  172.6650  139.8600 O   0  0  0  0  0  0  0  0  0  0  0  0
  189.6970  171.9160  136.2450 S   0  0  0  0  0  0  0  0  0  0  0  0
  190.4460  174.3000  136.5090 N   0  0  0  0  0  0  0  0  0  0  0  0
  190.0130  172.7550  134.8100 C   0  0  0  0  0  3  0  0  0  0  0  0
  190.0920  173.2150  137.2470 C   0  0  0  0  0  0  0  0  0  0  0  0
  190.4020  174.0540  135.1690 C   0  0  0  0  0  3  0  0  0  0  0  0
  1 23  1  0  0  0  0
  2 10  1  0  0  0  0
  4 37  1  1  0  0  0
  4  8  1  0  0  0  0
  4  9  1  0  0  0  0
  5  3  2  0  0  0  0
  6 13  1  0  0  0  0
  6  1  2  0  0  0  0
  7  2  1  0  0  0  0
  7  5  1  0  0  0  0
  8  6  1  0  0  0  0
  9 13  2  0  0  0  0
 10 14  1  6  0  0  0
 10  3  1  0  0  0  0
 11  1  1  0  0  0  0
 12  8  1  0  0  0  0
 12 11  2  0  0  0  0
 13  7  1  0  0  0  0
 14 18  1  0  0  0  0
 15 21  1  0  0  0  0
 15 19  1  0  0  0  0
 16 15  2  0  0  0  0
 17 16  1  0  0  0  0
 17 14  2  0  0  0  0
 18 19  2  0  0  0  0
 20 16  1  0  0  0  0
 21 22  1  0  0  0  0
 23 26  2  0  0  0  0
 23 28  1  0  0  0  0
 24 29  1  0  0  0  0
 24 27  2  0  0  0  0
 25 27  1  0  0  0  0
 26 24  1  0  0  0  0
 28 25  2  0  0  0  0
 29 30  1  0  0  0  0
 31 33  1  0  0  0  0
 32 36  1  0  0  0  0
 32 31  2  0  0  0  0
 33 35  2  0  0  0  0
 34 30  1  0  0  0  0
 34 35  1  0  0  0  0
 36 34  2  0  0  0  0
 37 38  2  0  0  0  0
 38 39  2  0  0  0  0
 40 43  1  0  0  0  0
 41 43  2  0  0  0  0
 42 44  2  0  0  0  0
 42 40  1  0  0  0  0
 43 37  1  0  0  0  0
 44 41  1  0  0  0  0
M  END
>  <MODEL>
9

>  <REMARK>
 VINA RESULT:      -7.0      3.585      8.566
  Name = 
  8 active torsions:
  status: ('A' for Active; 'I' for Inactive)
    1  A    between atoms: C_1  and  C_35
    2  A    between atoms: O_2  and  C_13
    3  A    between atoms: N_3  and  C_9
    4  A    between atoms: N_3  and  C_40
    5  A    between atoms: C_4  and  C_7
    6  A    between atoms: C_15  and  C_17
    7  A    between atoms: C_17  and  C_36
    8  A    between atoms: C_30  and  C_40
                            x       y       z     vdW  Elec       q    Type
                         _______ _______ _______ _____ _____    ______ ____

>  <TORSDO>
F 8

$$$$
