=
 OpenBabel11042416073D

 34 36  0  0  1  0  0  0  0  0999 V2000
  190.4440  175.2340  142.2620 C   0  0  0  0  0  0  0  0  0  0  0  0
  190.2310  174.1680  141.4670 C   0  0  0  0  0  3  0  0  0  0  0  0
  192.9330  175.1560  141.9130 C   0  0  0  0  0  3  0  0  0  0  0  0
  193.3850  176.4540  144.3430 C   0  0  0  0  0  3  0  0  0  0  0  0
  194.2390  175.4310  142.3260 C   0  0  0  0  0  3  0  0  0  0  0  0
  191.8350  175.5230  142.7080 C   0  0  0  0  0  0  0  0  0  0  0  0
  192.0790  176.1780  143.9290 C   0  0  0  0  0  3  0  0  0  0  0  0
  194.4670  176.0840  143.5380 C   0  0  0  0  0  0  0  0  0  0  0  0
  195.8600  176.3530  143.9920 C   0  0  0  0  0  2  0  0  0  0  0  0
  196.1250  174.4750  145.6100 C   0  0  0  0  0  3  0  0  0  0  0  0
  197.7770  173.4720  144.7270 C   0  0  0  0  0  3  0  0  0  0  0  0
  197.5000  174.5260  143.9350 N   0  0  0  0  0  0  0  0  0  0  0  0
  196.9350  173.4120  145.7830 N   0  0  0  0  0  0  0  0  0  0  0  0
  196.4690  175.1320  144.4940 N   0  0  0  0  0  0  0  0  0  0  0  0
  189.0620  177.1670  142.1270 O   0  0  0  0  0  0  0  0  0  0  0  0
  189.3330  176.0950  142.7320 C   0  0  0  0  0  0  0  0  0  0  0  0
  188.5420  175.6900  143.8490 N   0  0  0  0  0  2  0  0  0  0  0  0
  187.4830  176.4800  144.3070 N   0  0  0  0  0  0  0  0  0  0  0  0
  187.6650  177.3000  145.2870 C   0  0  0  0  0  3  0  0  0  0  0  0
  186.0420  179.0080  144.6540 C   0  0  0  0  0  3  0  0  0  0  0  0
  185.8620  176.6460  147.5180 F   0  0  0  0  0  0  0  0  0  0  0  0
  185.4200  177.2950  146.3800 C   0  0  2  0  0  3  0  0  0  0  0  0
  183.8240  178.9680  145.5810 N   0  0  0  0  0  2  0  0  0  0  0  0
  184.7660  179.3980  144.5910 C   0  0  0  0  0  3  0  0  0  0  0  0
  186.5450  178.1510  145.7830 C   0  0  1  0  0  3  0  0  0  0  0  0
  184.2410  178.1940  146.7460 C   0  0  0  0  0  2  0  0  0  0  0  0
  188.2900  172.7890  141.3000 O   0  0  0  0  0  0  0  0  0  0  0  0
  188.9670  173.7460  140.8350 C   0  0  0  0  0  0  0  0  0  0  0  0
  188.5020  174.4690  139.7340 O   0  0  0  0  0  0  0  0  0  0  0  0
  188.2690  173.8660  138.4670 C   0  0  1  0  0  3  0  0  0  0  0  0
  187.7420  174.8960  137.4810 C   0  0  0  0  0  1  0  0  0  0  0  0
  190.4570  174.0030  137.5100 O   0  0  0  0  0  0  0  0  0  0  0  0
  189.6850  171.8540  137.9210 N   0  0  0  0  0  1  0  0  0  0  0  0
  189.5330  173.2680  137.9470 C   0  0  0  0  0  0  0  0  0  0  0  0
  1  6  1  0  0  0  0
  1 16  1  0  0  0  0
  2  1  2  0  0  0  0
  3  5  2  0  0  0  0
  3  6  1  0  0  0  0
  5  8  1  0  0  0  0
  6  7  2  0  0  0  0
  7  4  1  0  0  0  0
  8  9  1  0  0  0  0
  8  4  2  0  0  0  0
  9 14  1  0  0  0  0
 10 13  2  0  0  0  0
 11 13  1  0  0  0  0
 12 14  1  0  0  0  0
 12 11  2  0  0  0  0
 14 10  1  0  0  0  0
 15 16  2  0  0  0  0
 16 17  1  0  0  0  0
 17 18  1  0  0  0  0
 18 19  2  0  0  0  0
 20 25  1  0  0  0  0
 22 26  1  0  0  0  0
 22 21  1  1  0  0  0
 23 26  1  0  0  0  0
 24 20  2  0  0  0  0
 24 23  1  0  0  0  0
 25 19  1  6  0  0  0
 25 22  1  0  0  0  0
 28 27  2  0  0  0  0
 28  2  1  0  0  0  0
 29 28  1  0  0  0  0
 30 31  1  6  0  0  0
 30 29  1  0  0  0  0
 32 34  2  0  0  0  0
 33 34  1  0  0  0  0
 34 30  1  0  0  0  0
M  END
>  <MODEL>
1

>  <REMARK>
 VINA RESULT:      -6.7      0.000      0.000
  Name = 
  10 active torsions:
  status: ('A' for Active; 'I' for Inactive)
    1  A    between atoms: N_7  and  N_24
    2  A    between atoms: C_12  and  C_18
    3  A    between atoms: O_13  and  C_17
    4  A    between atoms: O_13  and  C_33
    5  A    between atoms: C_16  and  C_30
    6  A    between atoms: C_17  and  C_27
    7  A    between atoms: C_18  and  C_19
    8  A    between atoms: C_25  and  C_28
    9  A    between atoms: C_28  and  N_34
   10  A    between atoms: C_32  and  C_33
                            x       y       z     vdW  Elec       q    Type
                         _______ _______ _______ _____ _____    ______ ____

>  <TORSDO>
F 10

$$$$
=
 OpenBabel11042416073D

 34 36  0  0  1  0  0  0  0  0999 V2000
  191.8170  176.1470  145.5410 C   0  0  0  0  0  0  0  0  0  0  0  0
  192.8040  176.2750  146.4480 C   0  0  0  0  0  3  0  0  0  0  0  0
  189.7000  177.4850  145.7760 C   0  0  0  0  0  3  0  0  0  0  0  0
  188.4260  175.3700  147.0820 C   0  0  0  0  0  3  0  0  0  0  0  0
  188.3750  177.6210  146.1990 C   0  0  0  0  0  3  0  0  0  0  0  0
  190.4070  176.2920  145.9990 C   0  0  0  0  0  0  0  0  0  0  0  0
  189.7510  175.2350  146.6580 C   0  0  0  0  0  3  0  0  0  0  0  0
  187.7350  176.5630  146.8480 C   0  0  0  0  0  0  0  0  0  0  0  0
  186.3320  176.7190  147.3240 C   0  0  0  0  0  2  0  0  0  0  0  0
  184.8070  178.5690  146.6420 C   0  0  0  0  0  3  0  0  0  0  0  0
  184.6230  178.1340  144.5710 C   0  0  0  0  0  3  0  0  0  0  0  0
  185.4520  177.2060  145.0850 N   0  0  0  0  0  0  0  0  0  0  0  0
  184.2030  179.0020  145.5180 N   0  0  0  0  0  0  0  0  0  0  0  0
  185.5600  177.4950  146.3680 N   0  0  0  0  0  0  0  0  0  0  0  0
  192.4770  176.7370  143.3320 O   0  0  0  0  0  0  0  0  0  0  0  0
  192.0930  175.8310  144.1210 C   0  0  0  0  0  0  0  0  0  0  0  0
  191.9650  174.4890  143.6530 N   0  0  0  0  0  2  0  0  0  0  0  0
  192.2280  174.1620  142.3180 N   0  0  0  0  0  0  0  0  0  0  0  0
  191.2570  173.8640  141.5220 C   0  0  0  0  0  3  0  0  0  0  0  0
  192.5810  172.4490  140.0380 C   0  0  0  0  0  2  0  0  0  0  0  0
  189.3470  174.1270  139.2990 F   0  0  0  0  0  0  0  0  0  0  0  0
  190.2390  173.0740  139.3820 C   0  0  2  0  0  3  0  0  0  0  0  0
  191.6030  171.5570  138.0310 N   0  0  0  0  0  0  0  0  0  0  0  0
  192.6120  171.5530  139.0490 C   0  0  0  0  0  3  0  0  0  0  0  0
  191.5240  173.5180  140.0960 C   0  0  1  0  0  3  0  0  0  0  0  0
  190.5830  172.6000  137.9730 C   0  0  0  0  0  2  0  0  0  0  0  0
  194.8960  177.3300  145.9870 O   0  0  0  0  0  0  0  0  0  0  0  0
  194.2600  176.2640  146.2110 C   0  0  0  0  0  0  0  0  0  0  0  0
  194.9360  175.0450  146.2950 O   0  0  0  0  0  0  0  0  0  0  0  0
  196.0450  174.7270  145.4620 C   0  0  1  0  0  3  0  0  0  0  0  0
  196.9100  173.6630  146.1200 C   0  0  0  0  0  1  0  0  0  0  0  0
  195.1410  173.0640  144.0010 O   0  0  0  0  0  0  0  0  0  0  0  0
  195.6110  175.1090  143.0100 N   0  0  0  0  0  1  0  0  0  0  0  0
  195.5650  174.2420  144.1360 C   0  0  0  0  0  0  0  0  0  0  0  0
  1  6  1  0  0  0  0
  1  2  2  0  0  0  0
  3  6  2  0  0  0  0
  3  5  1  0  0  0  0
  5  8  2  0  0  0  0
  6  7  1  0  0  0  0
  7  4  2  0  0  0  0
  8  4  1  0  0  0  0
  8  9  1  0  0  0  0
 11 12  2  0  0  0  0
 11 13  1  0  0  0  0
 12 14  1  0  0  0  0
 13 10  2  0  0  0  0
 14 10  1  0  0  0  0
 14  9  1  0  0  0  0
 15 16  2  0  0  0  0
 16  1  1  0  0  0  0
 17 16  1  0  0  0  0
 18 17  1  0  0  0  0
 19 18  2  0  0  0  0
 20 25  1  0  0  0  0
 22 21  1  6  0  0  0
 22 25  1  0  0  0  0
 23 24  2  0  0  0  0
 24 20  1  0  0  0  0
 25 19  1  1  0  0  0
 26 23  1  0  0  0  0
 26 22  1  0  0  0  0
 27 28  2  0  0  0  0
 28 29  1  0  0  0  0
 28  2  1  0  0  0  0
 30 31  1  1  0  0  0
 30 29  1  0  0  0  0
 32 34  2  0  0  0  0
 33 34  1  0  0  0  0
 34 30  1  0  0  0  0
M  END
>  <MODEL>
2

>  <REMARK>
 VINA RESULT:      -6.7      3.413      9.122
  Name = 
  10 active torsions:
  status: ('A' for Active; 'I' for Inactive)
    1  A    between atoms: N_7  and  N_24
    2  A    between atoms: C_12  and  C_18
    3  A    between atoms: O_13  and  C_17
    4  A    between atoms: O_13  and  C_33
    5  A    between atoms: C_16  and  C_30
    6  A    between atoms: C_17  and  C_27
    7  A    between atoms: C_18  and  C_19
    8  A    between atoms: C_25  and  C_28
    9  A    between atoms: C_28  and  N_34
   10  A    between atoms: C_32  and  C_33
                            x       y       z     vdW  Elec       q    Type
                         _______ _______ _______ _____ _____    ______ ____

>  <TORSDO>
F 10

$$$$
=
 OpenBabel11042416073D

 34 36  0  0  1  0  0  0  0  0999 V2000
  189.0530  176.4400  146.3100 C   0  0  0  0  0  0  0  0  0  0  0  0
  189.8930  177.2300  147.0040 C   0  0  0  0  0  3  0  0  0  0  0  0
  186.5580  176.7570  146.3100 C   0  0  0  0  0  3  0  0  0  0  0  0
  186.7080  178.4830  144.1190 C   0  0  0  0  0  3  0  0  0  0  0  0
  185.3930  177.3250  145.7870 C   0  0  0  0  0  3  0  0  0  0  0  0
  187.8130  177.0420  145.7460 C   0  0  0  0  0  0  0  0  0  0  0  0
  187.8710  177.9140  144.6440 C   0  0  0  0  0  3  0  0  0  0  0  0
  185.4670  178.1920  144.6950 C   0  0  0  0  0  0  0  0  0  0  0  0
  184.2220  178.7750  144.1200 C   0  0  0  0  0  2  0  0  0  0  0  0
  183.0940  178.2920  141.9490 C   0  0  0  0  0  3  0  0  0  0  0  0
  184.7860  178.2700  140.6650 C   0  0  0  0  0  3  0  0  0  0  0  0
  185.2470  178.5420  141.9010 N   0  0  0  0  0  0  0  0  0  0  0  0
  183.4440  178.1090  140.6610 N   0  0  0  0  0  0  0  0  0  0  0  0
  184.1840  178.5590  142.6830 N   0  0  0  0  0  0  0  0  0  0  0  0
  189.1500  174.1920  147.0890 O   0  0  0  0  0  0  0  0  0  0  0  0
  189.3090  174.9920  146.1260 C   0  0  0  0  0  0  0  0  0  0  0  0
  189.6970  174.4950  144.8460 N   0  0  0  0  0  2  0  0  0  0  0  0
  189.9360  173.1310  144.6440 N   0  0  0  0  0  0  0  0  0  0  0  0
  190.7620  172.7490  143.7290 C   0  0  0  0  0  3  0  0  0  0  0  0
  190.4420  170.8860  142.1840 C   0  0  0  0  0  2  0  0  0  0  0  0
  193.0150  171.2220  144.8460 F   0  0  0  0  0  0  0  0  0  0  0  0
  192.5330  170.9940  143.5700 C   0  0  2  0  0  3  0  0  0  0  0  0
  192.1730  169.2420  141.9010 N   0  0  0  0  0  0  0  0  0  0  0  0
  190.9820  169.9050  141.4580 C   0  0  0  0  0  3  0  0  0  0  0  0
  191.0290  171.2980  143.5060 C   0  0  1  0  0  3  0  0  0  0  0  0
  192.7680  169.5320  143.2020 C   0  0  0  0  0  2  0  0  0  0  0  0
  191.5130  177.1710  148.7580 O   0  0  0  0  0  0  0  0  0  0  0  0
  191.2100  176.8780  147.5690 C   0  0  0  0  0  0  0  0  0  0  0  0
  192.1020  176.1580  146.7710 O   0  0  0  0  0  0  0  0  0  0  0  0
  193.0010  176.7910  145.8680 C   0  0  1  0  0  3  0  0  0  0  0  0
  194.4310  176.3700  146.1660 C   0  0  0  0  0  1  0  0  0  0  0  0
  193.1240  175.3920  143.9320 O   0  0  0  0  0  0  0  0  0  0  0  0
  191.7940  177.2820  143.7120 N   0  0  0  0  0  1  0  0  0  0  0  0
  192.6500  176.4310  144.4640 C   0  0  0  0  0  0  0  0  0  0  0  0
  1  2  2  0  0  0  0
  2 28  1  0  0  0  0
  4  7  2  0  0  0  0
  4  8  1  0  0  0  0
  5  3  1  0  0  0  0
  6  1  1  0  0  0  0
  6  3  2  0  0  0  0
  7  6  1  0  0  0  0
  8  5  2  0  0  0  0
  9  8  1  0  0  0  0
 10 14  1  0  0  0  0
 11 12  2  0  0  0  0
 12 14  1  0  0  0  0
 13 11  1  0  0  0  0
 13 10  2  0  0  0  0
 14  9  1  0  0  0  0
 16  1  1  0  0  0  0
 16 15  2  0  0  0  0
 17 16  1  0  0  0  0
 18 17  1  0  0  0  0
 19 18  2  0  0  0  0
 20 25  1  0  0  0  0
 22 21  1  1  0  0  0
 23 26  1  0  0  0  0
 24 23  2  0  0  0  0
 24 20  1  0  0  0  0
 25 22  1  0  0  0  0
 25 19  1  6  0  0  0
 26 22  1  0  0  0  0
 28 27  2  0  0  0  0
 29 28  1  0  0  0  0
 30 31  1  1  0  0  0
 30 29  1  0  0  0  0
 32 34  2  0  0  0  0
 33 34  1  0  0  0  0
 34 30  1  0  0  0  0
M  END
>  <MODEL>
3

>  <REMARK>
 VINA RESULT:      -6.6      4.161      9.455
  Name = 
  10 active torsions:
  status: ('A' for Active; 'I' for Inactive)
    1  A    between atoms: N_7  and  N_24
    2  A    between atoms: C_12  and  C_18
    3  A    between atoms: O_13  and  C_17
    4  A    between atoms: O_13  and  C_33
    5  A    between atoms: C_16  and  C_30
    6  A    between atoms: C_17  and  C_27
    7  A    between atoms: C_18  and  C_19
    8  A    between atoms: C_25  and  C_28
    9  A    between atoms: C_28  and  N_34
   10  A    between atoms: C_32  and  C_33
                            x       y       z     vdW  Elec       q    Type
                         _______ _______ _______ _____ _____    ______ ____

>  <TORSDO>
F 10

$$$$
=
 OpenBabel11042416073D

 34 36  0  0  1  0  0  0  0  0999 V2000
  189.0950  176.9020  144.1820 C   0  0  0  0  0  0  0  0  0  0  0  0
  188.1820  177.5910  144.8930 C   0  0  0  0  0  3  0  0  0  0  0  0
  191.5990  177.0930  144.0360 C   0  0  0  0  0  3  0  0  0  0  0  0
  191.9000  176.0030  146.5890 C   0  0  0  0  0  3  0  0  0  0  0  0
  192.8750  176.9260  144.5780 C   0  0  0  0  0  3  0  0  0  0  0  0
  190.4550  176.7170  144.7600 C   0  0  0  0  0  0  0  0  0  0  0  0
  190.6240  176.1710  146.0460 C   0  0  0  0  0  3  0  0  0  0  0  0
  193.0280  176.3860  145.8570 C   0  0  0  0  0  0  0  0  0  0  0  0
  194.3910  176.1820  146.4230 C   0  0  0  0  0  2  0  0  0  0  0  0
  195.2340  174.0070  145.5410 C   0  0  0  0  0  3  0  0  0  0  0  0
  196.5790  174.7200  144.0590 C   0  0  0  0  0  3  0  0  0  0  0  0
  196.0200  175.8070  144.6250 N   0  0  0  0  0  0  0  0  0  0  0  0
  196.1080  173.5790  144.6100 N   0  0  0  0  0  0  0  0  0  0  0  0
  195.1830  175.3470  145.5360 N   0  0  0  0  0  0  0  0  0  0  0  0
  188.8230  177.1150  141.8270 O   0  0  0  0  0  0  0  0  0  0  0  0
  188.7950  176.3600  142.8370 C   0  0  0  0  0  0  0  0  0  0  0  0
  188.5130  174.9700  142.6760 N   0  0  0  0  0  2  0  0  0  0  0  0
  188.2350  174.4310  141.4150 N   0  0  0  0  0  0  0  0  0  0  0  0
  188.9880  173.5020  140.9290 C   0  0  0  0  0  3  0  0  0  0  0  0
  188.3630  174.0250  138.6280 C   0  0  0  0  0  2  0  0  0  0  0  0
  190.0650  170.9700  139.8870 F   0  0  0  0  0  0  0  0  0  0  0  0
  189.8820  172.0780  139.0820 C   0  0  2  0  0  3  0  0  0  0  0  0
  189.2990  172.7660  136.8070 N   0  0  0  0  0  0  0  0  0  0  0  0
  188.6330  173.9240  137.3250 C   0  0  0  0  0  3  0  0  0  0  0  0
  188.7000  172.9160  139.5880 C   0  0  1  0  0  3  0  0  0  0  0  0
  189.6000  171.6160  137.6550 C   0  0  0  0  0  2  0  0  0  0  0  0
  186.4060  178.7680  143.8160 O   0  0  0  0  0  0  0  0  0  0  0  0
  186.7620  177.8180  144.5660 C   0  0  0  0  0  0  0  0  0  0  0  0
  185.8150  176.9200  145.0630 O   0  0  0  0  0  0  0  0  0  0  0  0
  185.2530  177.0450  146.3640 C   0  0  1  0  0  3  0  0  0  0  0  0
  186.2760  176.6600  147.4200 C   0  0  0  0  0  1  0  0  0  0  0  0
  183.7850  178.8950  145.9860 O   0  0  0  0  0  0  0  0  0  0  0  0
  185.5230  179.2910  147.4720 N   0  0  0  0  0  1  0  0  0  0  0  0
  184.7960  178.4460  146.5890 C   0  0  0  0  0  0  0  0  0  0  0  0
  1  6  1  0  0  0  0
  1  2  2  0  0  0  0
  3  5  2  0  0  0  0
  3  6  1  0  0  0  0
  5  8  1  0  0  0  0
  6  7  2  0  0  0  0
  7  4  1  0  0  0  0
  8  9  1  0  0  0  0
  8  4  2  0  0  0  0
 11 13  1  0  0  0  0
 11 12  2  0  0  0  0
 12 14  1  0  0  0  0
 13 10  2  0  0  0  0
 14 10  1  0  0  0  0
 14  9  1  0  0  0  0
 15 16  2  0  0  0  0
 16  1  1  0  0  0  0
 17 16  1  0  0  0  0
 18 17  1  0  0  0  0
 19 18  2  0  0  0  0
 20 25  1  0  0  0  0
 22 25  1  0  0  0  0
 22 21  1  1  0  0  0
 23 24  2  0  0  0  0
 23 26  1  0  0  0  0
 24 20  1  0  0  0  0
 25 19  1  1  0  0  0
 26 22  1  0  0  0  0
 27 28  2  0  0  0  0
 28  2  1  0  0  0  0
 28 29  1  0  0  0  0
 29 30  1  0  0  0  0
 30 34  1  0  0  0  0
 30 31  1  1  0  0  0
 32 34  2  0  0  0  0
 34 33  1  0  0  0  0
M  END
>  <MODEL>
4

>  <REMARK>
 VINA RESULT:      -6.6      2.752      6.937
  Name = 
  10 active torsions:
  status: ('A' for Active; 'I' for Inactive)
    1  A    between atoms: N_7  and  N_24
    2  A    between atoms: C_12  and  C_18
    3  A    between atoms: O_13  and  C_17
    4  A    between atoms: O_13  and  C_33
    5  A    between atoms: C_16  and  C_30
    6  A    between atoms: C_17  and  C_27
    7  A    between atoms: C_18  and  C_19
    8  A    between atoms: C_25  and  C_28
    9  A    between atoms: C_28  and  N_34
   10  A    between atoms: C_32  and  C_33
                            x       y       z     vdW  Elec       q    Type
                         _______ _______ _______ _____ _____    ______ ____

>  <TORSDO>
F 10

$$$$
=
 OpenBabel11042416073D

 34 36  0  0  1  0  0  0  0  0999 V2000
  189.1810  176.5170  145.1550 C   0  0  0  0  0  0  0  0  0  0  0  0
  188.3690  177.0690  146.0770 C   0  0  0  0  0  3  0  0  0  0  0  0
  191.5800  176.9350  144.5230 C   0  0  0  0  0  3  0  0  0  0  0  0
  192.4780  175.8280  146.9250 C   0  0  0  0  0  3  0  0  0  0  0  0
  192.9490  176.8730  144.7960 C   0  0  0  0  0  3  0  0  0  0  0  0
  190.6400  176.4440  145.4450 C   0  0  0  0  0  0  0  0  0  0  0  0
  191.1090  175.8910  146.6510 C   0  0  0  0  0  3  0  0  0  0  0  0
  193.3990  176.3240  145.9980 C   0  0  0  0  0  0  0  0  0  0  0  0
  194.8600  176.2330  146.2750 C   0  0  0  0  0  2  0  0  0  0  0  0
  196.2160  175.4150  144.3490 C   0  0  0  0  0  3  0  0  0  0  0  0
  195.9910  173.3200  144.6190 C   0  0  0  0  0  3  0  0  0  0  0  0
  195.3100  173.9100  145.6200 N   0  0  0  0  0  0  0  0  0  0  0  0
  196.5690  174.2330  143.8070 N   0  0  0  0  0  0  0  0  0  0  0  0
  195.4670  175.2080  145.4410 N   0  0  0  0  0  0  0  0  0  0  0  0
  188.1010  176.8110  143.0540 O   0  0  0  0  0  0  0  0  0  0  0  0
  188.6710  176.0210  143.8560 C   0  0  0  0  0  0  0  0  0  0  0  0
  188.8600  174.6540  143.4920 N   0  0  0  0  0  2  0  0  0  0  0  0
  188.3960  174.1630  142.2670 N   0  0  0  0  0  0  0  0  0  0  0  0
  189.2140  173.5960  141.4460 C   0  0  0  0  0  3  0  0  0  0  0  0
  188.3270  174.2140  139.2580 C   0  0  0  0  0  2  0  0  0  0  0  0
  190.0290  171.0510  140.2150 F   0  0  0  0  0  0  0  0  0  0  0  0
  189.7980  172.1900  139.4660 C   0  0  2  0  0  3  0  0  0  0  0  0
  188.9640  172.9700  137.3020 N   0  0  0  0  0  0  0  0  0  0  0  0
  188.4250  174.1400  137.9290 C   0  0  0  0  0  3  0  0  0  0  0  0
  188.7310  173.0640  140.1400 C   0  0  1  0  0  3  0  0  0  0  0  0
  189.3150  171.7830  138.0770 C   0  0  0  0  0  2  0  0  0  0  0  0
  186.1760  176.3730  146.7150 O   0  0  0  0  0  0  0  0  0  0  0  0
  186.8970  177.1640  146.0470 C   0  0  0  0  0  0  0  0  0  0  0  0
  186.3140  178.1910  145.3020 O   0  0  0  0  0  0  0  0  0  0  0  0
  185.0120  178.0810  144.7380 C   0  0  1  0  0  3  0  0  0  0  0  0
  184.0190  178.9060  145.5390 C   0  0  0  0  0  1  0  0  0  0  0  0
  185.9030  179.3650  142.9270 O   0  0  0  0  0  0  0  0  0  0  0  0
  184.0390  178.0810  142.4130 N   0  0  0  0  0  1  0  0  0  0  0  0
  185.0300  178.5460  143.3210 C   0  0  0  0  0  0  0  0  0  0  0  0
  1  6  1  0  0  0  0
  1  2  2  0  0  0  0
  3  5  2  0  0  0  0
  3  6  1  0  0  0  0
  5  8  1  0  0  0  0
  6  7  2  0  0  0  0
  7  4  1  0  0  0  0
  8  9  1  0  0  0  0
  8  4  2  0  0  0  0
 10 14  1  0  0  0  0
 11 12  2  0  0  0  0
 13 10  2  0  0  0  0
 13 11  1  0  0  0  0
 14 12  1  0  0  0  0
 14  9  1  0  0  0  0
 15 16  2  0  0  0  0
 16  1  1  0  0  0  0
 17 16  1  0  0  0  0
 18 17  1  0  0  0  0
 19 18  2  0  0  0  0
 20 25  1  0  0  0  0
 22 25  1  0  0  0  0
 22 21  1  1  0  0  0
 23 24  2  0  0  0  0
 23 26  1  0  0  0  0
 24 20  1  0  0  0  0
 25 19  1  1  0  0  0
 26 22  1  0  0  0  0
 28  2  1  0  0  0  0
 28 27  2  0  0  0  0
 29 28  1  0  0  0  0
 30 29  1  0  0  0  0
 30 31  1  1  0  0  0
 32 34  2  0  0  0  0
 33 34  1  0  0  0  0
 34 30  1  0  0  0  0
M  END
>  <MODEL>
5

>  <REMARK>
 VINA RESULT:      -6.6      2.812      6.404
  Name = 
  10 active torsions:
  status: ('A' for Active; 'I' for Inactive)
    1  A    between atoms: N_7  and  N_24
    2  A    between atoms: C_12  and  C_18
    3  A    between atoms: O_13  and  C_17
    4  A    between atoms: O_13  and  C_33
    5  A    between atoms: C_16  and  C_30
    6  A    between atoms: C_17  and  C_27
    7  A    between atoms: C_18  and  C_19
    8  A    between atoms: C_25  and  C_28
    9  A    between atoms: C_28  and  N_34
   10  A    between atoms: C_32  and  C_33
                            x       y       z     vdW  Elec       q    Type
                         _______ _______ _______ _____ _____    ______ ____

>  <TORSDO>
F 10

$$$$
=
 OpenBabel11042416073D

 34 36  0  0  1  0  0  0  0  0999 V2000
  190.8520  176.4050  145.4970 C   0  0  0  0  0  0  0  0  0  0  0  0
  190.3170  176.1470  146.7060 C   0  0  0  0  0  3  0  0  0  0  0  0
  192.7330  175.5160  144.0840 C   0  0  0  0  0  3  0  0  0  0  0  0
  194.6060  176.1470  146.0570 C   0  0  0  0  0  3  0  0  0  0  0  0
  194.0870  175.2420  143.8760 C   0  0  0  0  0  3  0  0  0  0  0  0
  192.2950  176.1080  145.2800 C   0  0  0  0  0  0  0  0  0  0  0  0
  193.2510  176.4200  146.2640 C   0  0  0  0  0  3  0  0  0  0  0  0
  195.0260  175.5610  144.8590 C   0  0  0  0  0  0  0  0  0  0  0  0
  196.4660  175.2420  144.6480 C   0  0  0  0  0  2  0  0  0  0  0  0
  196.7150  173.1740  146.0180 C   0  0  0  0  0  3  0  0  0  0  0  0
  197.1730  171.7810  144.4810 C   0  0  0  0  0  3  0  0  0  0  0  0
  196.9890  172.9710  143.8780 N   0  0  0  0  0  0  0  0  0  0  0  0
  197.0080  171.8740  145.8190 N   0  0  0  0  0  0  0  0  0  0  0  0
  196.7000  173.8220  144.8440 N   0  0  0  0  0  0  0  0  0  0  0  0
  190.3960  178.1170  143.9080 O   0  0  0  0  0  0  0  0  0  0  0  0
  190.0580  177.0060  144.4000 C   0  0  0  0  0  0  0  0  0  0  0  0
  188.9320  176.3070  143.8710 N   0  0  0  0  0  2  0  0  0  0  0  0
  188.1710  176.8480  142.8290 N   0  0  0  0  0  0  0  0  0  0  0  0
  187.1690  177.6170  143.0940 C   0  0  0  0  0  3  0  0  0  0  0  0
  186.8490  177.6750  140.6750 C   0  0  0  0  0  2  0  0  0  0  0  0
  184.3860  178.5450  143.3190 F   0  0  0  0  0  0  0  0  0  0  0  0
  184.8590  177.9060  142.1880 C   0  0  2  0  0  3  0  0  0  0  0  0
  184.6340  177.8200  139.7530 N   0  0  0  0  0  0  0  0  0  0  0  0
  186.0300  177.5230  139.6320 C   0  0  0  0  0  3  0  0  0  0  0  0
  186.3520  178.2040  141.9920 C   0  0  1  0  0  3  0  0  0  0  0  0
  184.0810  178.4030  140.9720 C   0  0  0  0  0  2  0  0  0  0  0  0
  188.2520  175.2750  147.5260 O   0  0  0  0  0  0  0  0  0  0  0  0
  188.9060  176.2730  147.1180 C   0  0  0  0  0  0  0  0  0  0  0  0
  188.3200  177.5400  147.1000 O   0  0  0  0  0  0  0  0  0  0  0  0
  187.0230  177.7900  147.6300 C   0  0  1  0  0  3  0  0  0  0  0  0
  187.0290  179.0650  148.4570 C   0  0  0  0  0  1  0  0  0  0  0  0
  185.7830  179.0330  146.0060 O   0  0  0  0  0  0  0  0  0  0  0  0
  185.3510  176.7530  146.0550 N   0  0  0  0  0  1  0  0  0  0  0  0
  186.0340  177.9110  146.5200 C   0  0  0  0  0  0  0  0  0  0  0  0
  1  2  2  0  0  0  0
  2 28  1  0  0  0  0
  3  6  1  0  0  0  0
  4  7  1  0  0  0  0
  5  3  2  0  0  0  0
  5  8  1  0  0  0  0
  6  1  1  0  0  0  0
  6  7  2  0  0  0  0
  8  4  2  0  0  0  0
  9 14  1  0  0  0  0
  9  8  1  0  0  0  0
 11 13  1  0  0  0  0
 12 11  2  0  0  0  0
 12 14  1  0  0  0  0
 13 10  2  0  0  0  0
 14 10  1  0  0  0  0
 15 16  2  0  0  0  0
 16  1  1  0  0  0  0
 17 16  1  0  0  0  0
 18 19  2  0  0  0  0
 18 17  1  0  0  0  0
 20 25  1  0  0  0  0
 22 21  1  1  0  0  0
 23 26  1  0  0  0  0
 24 23  2  0  0  0  0
 24 20  1  0  0  0  0
 25 22  1  0  0  0  0
 25 19  1  1  0  0  0
 26 22  1  0  0  0  0
 28 27  2  0  0  0  0
 29 28  1  0  0  0  0
 29 30  1  0  0  0  0
 30 31  1  6  0  0  0
 32 34  2  0  0  0  0
 33 34  1  0  0  0  0
 34 30  1  0  0  0  0
M  END
>  <MODEL>
6

>  <REMARK>
 VINA RESULT:      -6.5      3.359      5.443
  Name = 
  10 active torsions:
  status: ('A' for Active; 'I' for Inactive)
    1  A    between atoms: N_7  and  N_24
    2  A    between atoms: C_12  and  C_18
    3  A    between atoms: O_13  and  C_17
    4  A    between atoms: O_13  and  C_33
    5  A    between atoms: C_16  and  C_30
    6  A    between atoms: C_17  and  C_27
    7  A    between atoms: C_18  and  C_19
    8  A    between atoms: C_25  and  C_28
    9  A    between atoms: C_28  and  N_34
   10  A    between atoms: C_32  and  C_33
                            x       y       z     vdW  Elec       q    Type
                         _______ _______ _______ _____ _____    ______ ____

>  <TORSDO>
F 10

$$$$
=
 OpenBabel11042416073D

 34 36  0  0  1  0  0  0  0  0999 V2000
  191.8410  175.7640  145.3280 C   0  0  0  0  0  0  0  0  0  0  0  0
  192.7560  176.7500  145.3920 C   0  0  0  0  0  3  0  0  0  0  0  0
  189.7550  175.0750  146.5530 C   0  0  0  0  0  3  0  0  0  0  0  0
  188.5470  177.5360  146.0200 C   0  0  0  0  0  3  0  0  0  0  0  0
  188.4630  175.3340  147.0170 C   0  0  0  0  0  3  0  0  0  0  0  0
  190.4610  176.0400  145.8160 C   0  0  0  0  0  0  0  0  0  0  0  0
  189.8390  177.2760  145.5570 C   0  0  0  0  0  3  0  0  0  0  0  0
  187.8590  176.5660  146.7560 C   0  0  0  0  0  0  0  0  0  0  0  0
  186.4710  176.8310  147.2260 C   0  0  0  0  0  2  0  0  0  0  0  0
  185.0800  178.7130  146.3670 C   0  0  0  0  0  3  0  0  0  0  0  0
  184.7570  178.0400  144.3780 C   0  0  0  0  0  3  0  0  0  0  0  0
  185.5270  177.1110  144.9770 N   0  0  0  0  0  0  0  0  0  0  0  0
  184.4610  179.0550  145.2200 N   0  0  0  0  0  0  0  0  0  0  0  0
  185.7230  177.5480  146.2070 N   0  0  0  0  0  0  0  0  0  0  0  0
  191.7600  174.0310  143.6990 O   0  0  0  0  0  0  0  0  0  0  0  0
  192.1790  174.4120  144.8250 C   0  0  0  0  0  0  0  0  0  0  0  0
  193.0170  173.5540  145.5990 N   0  0  0  0  0  2  0  0  0  0  0  0
  193.3590  172.2760  145.1430 N   0  0  0  0  0  0  0  0  0  0  0  0
  194.3610  171.6510  145.6630 C   0  0  0  0  0  3  0  0  0  0  0  0
  195.5750  170.4090  143.9480 C   0  0  0  0  0  3  0  0  0  0  0  0
  194.6100  169.2510  147.3470 F   0  0  0  0  0  0  0  0  0  0  0  0
  195.4610  169.4970  146.2850 C   0  0  2  0  0  3  0  0  0  0  0  0
  196.7590  168.3980  144.5260 N   0  0  0  0  0  2  0  0  0  0  0  0
  196.5050  169.5000  143.6460 C   0  0  0  0  0  3  0  0  0  0  0  0
  194.7330  170.2870  145.1890 C   0  0  1  0  0  3  0  0  0  0  0  0
  195.9420  168.1660  145.7140 C   0  0  0  0  0  2  0  0  0  0  0  0
  195.1120  177.0550  145.6290 O   0  0  0  0  0  0  0  0  0  0  0  0
  194.1420  176.7350  144.8880 C   0  0  0  0  0  0  0  0  0  0  0  0
  194.3680  176.3010  143.5800 O   0  0  0  0  0  0  0  0  0  0  0  0
  195.4840  175.4920  143.2260 C   0  0  1  0  0  3  0  0  0  0  0  0
  195.0340  174.3270  142.3580 C   0  0  0  0  0  1  0  0  0  0  0  0
  197.3450  176.9900  143.1230 O   0  0  0  0  0  0  0  0  0  0  0  0
  196.4770  176.3400  141.0710 N   0  0  0  0  0  1  0  0  0  0  0  0
  196.4930  176.3090  142.4930 C   0  0  0  0  0  0  0  0  0  0  0  0
  1  2  2  0  0  0  0
  1  6  1  0  0  0  0
  3  5  1  0  0  0  0
  4  8  1  0  0  0  0
  6  3  2  0  0  0  0
  7  6  1  0  0  0  0
  7  4  2  0  0  0  0
  8  5  2  0  0  0  0
  8  9  1  0  0  0  0
 11 12  2  0  0  0  0
 11 13  1  0  0  0  0
 12 14  1  0  0  0  0
 13 10  2  0  0  0  0
 14 10  1  0  0  0  0
 14  9  1  0  0  0  0
 15 16  2  0  0  0  0
 16  1  1  0  0  0  0
 16 17  1  0  0  0  0
 18 17  1  0  0  0  0
 18 19  2  0  0  0  0
 20 25  1  0  0  0  0
 22 21  1  1  0  0  0
 23 26  1  0  0  0  0
 24 20  2  0  0  0  0
 24 23  1  0  0  0  0
 25 19  1  1  0  0  0
 25 22  1  0  0  0  0
 26 22  1  0  0  0  0
 28  2  1  0  0  0  0
 28 27  2  0  0  0  0
 29 28  1  0  0  0  0
 30 31  1  6  0  0  0
 30 29  1  0  0  0  0
 33 34  1  0  0  0  0
 34 32  2  0  0  0  0
 34 30  1  0  0  0  0
M  END
>  <MODEL>
7

>  <REMARK>
 VINA RESULT:      -6.5      4.355      9.766
  Name = 
  10 active torsions:
  status: ('A' for Active; 'I' for Inactive)
    1  A    between atoms: N_7  and  N_24
    2  A    between atoms: C_12  and  C_18
    3  A    between atoms: O_13  and  C_17
    4  A    between atoms: O_13  and  C_33
    5  A    between atoms: C_16  and  C_30
    6  A    between atoms: C_17  and  C_27
    7  A    between atoms: C_18  and  C_19
    8  A    between atoms: C_25  and  C_28
    9  A    between atoms: C_28  and  N_34
   10  A    between atoms: C_32  and  C_33
                            x       y       z     vdW  Elec       q    Type
                         _______ _______ _______ _____ _____    ______ ____

>  <TORSDO>
F 10

$$$$
=
 OpenBabel11042416073D

 34 36  0  0  1  0  0  0  0  0999 V2000
  191.6640  175.6340  145.3480 C   0  0  0  0  0  0  0  0  0  0  0  0
  192.7490  176.2090  145.9020 C   0  0  0  0  0  3  0  0  0  0  0  0
  189.8540  177.3770  145.4430 C   0  0  0  0  0  3  0  0  0  0  0  0
  188.2040  175.6820  146.9280 C   0  0  0  0  0  3  0  0  0  0  0  0
  188.5870  177.8090  145.8430 C   0  0  0  0  0  3  0  0  0  0  0  0
  190.3150  176.0940  145.7810 C   0  0  0  0  0  0  0  0  0  0  0  0
  189.4720  175.2510  146.5280 C   0  0  0  0  0  3  0  0  0  0  0  0
  187.7590  176.9610  146.5810 C   0  0  0  0  0  0  0  0  0  0  0  0
  186.4190  177.4320  147.0300 C   0  0  0  0  0  2  0  0  0  0  0  0
  185.1970  177.3540  144.8580 C   0  0  0  0  0  3  0  0  0  0  0  0
  184.8060  179.4260  144.5940 C   0  0  0  0  0  3  0  0  0  0  0  0
  185.4630  179.3060  145.7640 N   0  0  0  0  0  0  0  0  0  0  0  0
  184.6240  178.2240  144.0040 N   0  0  0  0  0  0  0  0  0  0  0  0
  185.6910  178.0150  145.9150 N   0  0  0  0  0  0  0  0  0  0  0  0
  192.3010  173.4380  144.6860 O   0  0  0  0  0  0  0  0  0  0  0  0
  191.7780  174.5370  144.3580 C   0  0  0  0  0  0  0  0  0  0  0  0
  191.2580  174.7120  143.0410 N   0  0  0  0  0  2  0  0  0  0  0  0
  191.3440  173.6900  142.0890 N   0  0  0  0  0  0  0  0  0  0  0  0
  190.2740  173.2420  141.5230 C   0  0  0  0  0  3  0  0  0  0  0  0
  191.1760  172.6330  139.3380 C   0  0  0  0  0  2  0  0  0  0  0  0
  190.0750  170.3570  142.0630 F   0  0  0  0  0  0  0  0  0  0  0  0
  190.9340  170.8690  141.1080 C   0  0  2  0  0  3  0  0  0  0  0  0
  191.9450  170.3920  138.9320 N   0  0  0  0  0  0  0  0  0  0  0  0
  191.8970  171.7850  138.6010 C   0  0  0  0  0  3  0  0  0  0  0  0
  190.3540  172.1560  140.5040 C   0  0  1  0  0  3  0  0  0  0  0  0
  191.1250  169.8340  140.0030 C   0  0  0  0  0  2  0  0  0  0  0  0
  194.9040  175.2590  146.2890 O   0  0  0  0  0  0  0  0  0  0  0  0
  194.1670  175.9830  145.5660 C   0  0  0  0  0  0  0  0  0  0  0  0
  194.6670  176.5450  144.3900 O   0  0  0  0  0  0  0  0  0  0  0  0
  195.1650  175.7540  143.3160 C   0  0  1  0  0  3  0  0  0  0  0  0
  194.3820  176.0390  142.0450 C   0  0  0  0  0  1  0  0  0  0  0  0
  197.0900  177.1710  143.3950 O   0  0  0  0  0  0  0  0  0  0  0  0
  197.4500  175.0520  142.5200 N   0  0  0  0  0  1  0  0  0  0  0  0
  196.6110  176.0450  143.0960 C   0  0  0  0  0  0  0  0  0  0  0  0
  1  6  1  0  0  0  0
  1  2  2  0  0  0  0
  3  6  2  0  0  0  0
  3  5  1  0  0  0  0
  5  8  2  0  0  0  0
  6  7  1  0  0  0  0
  7  4  2  0  0  0  0
  8  4  1  0  0  0  0
  8  9  1  0  0  0  0
 10 14  1  0  0  0  0
 11 12  2  0  0  0  0
 12 14  1  0  0  0  0
 13 11  1  0  0  0  0
 13 10  2  0  0  0  0
 14  9  1  0  0  0  0
 16 15  2  0  0  0  0
 16  1  1  0  0  0  0
 17 16  1  0  0  0  0
 18 17  1  0  0  0  0
 19 18  2  0  0  0  0
 20 25  1  0  0  0  0
 22 21  1  1  0  0  0
 23 26  1  0  0  0  0
 24 23  2  0  0  0  0
 24 20  1  0  0  0  0
 25 22  1  0  0  0  0
 25 19  1  1  0  0  0
 26 22  1  0  0  0  0
 28  2  1  0  0  0  0
 28 27  2  0  0  0  0
 29 28  1  0  0  0  0
 30 31  1  6  0  0  0
 30 29  1  0  0  0  0
 33 34  1  0  0  0  0
 34 30  1  0  0  0  0
 34 32  2  0  0  0  0
M  END
>  <MODEL>
8

>  <REMARK>
 VINA RESULT:      -6.4      3.488      8.923
  Name = 
  10 active torsions:
  status: ('A' for Active; 'I' for Inactive)
    1  A    between atoms: N_7  and  N_24
    2  A    between atoms: C_12  and  C_18
    3  A    between atoms: O_13  and  C_17
    4  A    between atoms: O_13  and  C_33
    5  A    between atoms: C_16  and  C_30
    6  A    between atoms: C_17  and  C_27
    7  A    between atoms: C_18  and  C_19
    8  A    between atoms: C_25  and  C_28
    9  A    between atoms: C_28  and  N_34
   10  A    between atoms: C_32  and  C_33
                            x       y       z     vdW  Elec       q    Type
                         _______ _______ _______ _____ _____    ______ ____

>  <TORSDO>
F 10

$$$$
=
 OpenBabel11042416073D

 34 36  0  0  1  0  0  0  0  0999 V2000
  191.8500  176.1520  145.3720 C   0  0  0  0  0  0  0  0  0  0  0  0
  192.7190  176.4260  146.3640 C   0  0  0  0  0  3  0  0  0  0  0  0
  189.6990  175.4800  146.4890 C   0  0  0  0  0  3  0  0  0  0  0  0
  188.3260  177.5800  145.2620 C   0  0  0  0  0  3  0  0  0  0  0  0
  188.3360  175.6620  146.7340 C   0  0  0  0  0  3  0  0  0  0  0  0
  190.3960  176.3440  145.6270 C   0  0  0  0  0  0  0  0  0  0  0  0
  189.6900  177.3970  145.0180 C   0  0  0  0  0  3  0  0  0  0  0  0
  187.6490  176.7140  146.1260 C   0  0  0  0  0  0  0  0  0  0  0  0
  186.1890  176.8900  146.3660 C   0  0  0  0  0  2  0  0  0  0  0  0
  184.8730  178.6820  145.2370 C   0  0  0  0  0  3  0  0  0  0  0  0
  184.8430  177.9100  143.2580 C   0  0  0  0  0  3  0  0  0  0  0  0
  185.5510  177.0360  144.0000 N   0  0  0  0  0  0  0  0  0  0  0  0
  184.4060  178.9500  144.0020 N   0  0  0  0  0  0  0  0  0  0  0  0
  185.5660  177.5340  145.2220 N   0  0  0  0  0  0  0  0  0  0  0  0
  191.8870  174.5140  143.6450 O   0  0  0  0  0  0  0  0  0  0  0  0
  192.2980  175.6320  144.0580 C   0  0  0  0  0  0  0  0  0  0  0  0
  193.1640  176.4180  143.2400 N   0  0  0  0  0  2  0  0  0  0  0  0
  193.5950  175.9550  141.9920 N   0  0  0  0  0  0  0  0  0  0  0  0
  194.7280  175.3460  141.8850 C   0  0  0  0  0  3  0  0  0  0  0  0
  194.0480  174.8720  139.5890 C   0  0  0  0  0  2  0  0  0  0  0  0
  197.4840  175.4860  140.8660 F   0  0  0  0  0  0  0  0  0  0  0  0
  196.3860  175.6640  140.0450 C   0  0  2  0  0  3  0  0  0  0  0  0
  195.5660  175.2860  137.7710 N   0  0  0  0  0  0  0  0  0  0  0  0
  194.2470  175.0590  138.2820 C   0  0  0  0  0  3  0  0  0  0  0  0
  195.1960  174.8440  140.5610 C   0  0  1  0  0  3  0  0  0  0  0  0
  196.7420  175.2060  138.6330 C   0  0  0  0  0  2  0  0  0  0  0  0
  194.8630  177.4580  146.1740 O   0  0  0  0  0  0  0  0  0  0  0  0
  194.1930  176.3980  146.3110 C   0  0  0  0  0  0  0  0  0  0  0  0
  194.8400  175.1710  146.4730 O   0  0  0  0  0  0  0  0  0  0  0  0
  195.3370  174.4190  145.3720 C   0  0  1  0  0  3  0  0  0  0  0  0
  196.8570  174.4100  145.3830 C   0  0  0  0  0  1  0  0  0  0  0  0
  193.6280  172.7920  145.7650 O   0  0  0  0  0  0  0  0  0  0  0  0
  195.6940  171.9350  145.1490 N   0  0  0  0  0  1  0  0  0  0  0  0
  194.8220  173.0200  145.4370 C   0  0  0  0  0  0  0  0  0  0  0  0
  1  6  1  0  0  0  0
  1  2  2  0  0  0  0
  3  5  1  0  0  0  0
  4  8  1  0  0  0  0
  6  3  2  0  0  0  0
  7  4  2  0  0  0  0
  7  6  1  0  0  0  0
  8  9  1  0  0  0  0
  8  5  2  0  0  0  0
 11 12  2  0  0  0  0
 11 13  1  0  0  0  0
 12 14  1  0  0  0  0
 13 10  2  0  0  0  0
 14 10  1  0  0  0  0
 14  9  1  0  0  0  0
 15 16  2  0  0  0  0
 16  1  1  0  0  0  0
 17 16  1  0  0  0  0
 18 17  1  0  0  0  0
 19 18  2  0  0  0  0
 20 25  1  0  0  0  0
 22 25  1  0  0  0  0
 22 21  1  1  0  0  0
 23 24  2  0  0  0  0
 23 26  1  0  0  0  0
 24 20  1  0  0  0  0
 25 19  1  1  0  0  0
 26 22  1  0  0  0  0
 27 28  2  0  0  0  0
 28  2  1  0  0  0  0
 28 29  1  0  0  0  0
 30 31  1  1  0  0  0
 30 34  1  0  0  0  0
 30 29  1  0  0  0  0
 33 34  1  0  0  0  0
 34 32  2  0  0  0  0
M  END
>  <MODEL>
9

>  <REMARK>
 VINA RESULT:      -6.4      4.067      9.674
  Name = 
  10 active torsions:
  status: ('A' for Active; 'I' for Inactive)
    1  A    between atoms: N_7  and  N_24
    2  A    between atoms: C_12  and  C_18
    3  A    between atoms: O_13  and  C_17
    4  A    between atoms: O_13  and  C_33
    5  A    between atoms: C_16  and  C_30
    6  A    between atoms: C_17  and  C_27
    7  A    between atoms: C_18  and  C_19
    8  A    between atoms: C_25  and  C_28
    9  A    between atoms: C_28  and  N_34
   10  A    between atoms: C_32  and  C_33
                            x       y       z     vdW  Elec       q    Type
                         _______ _______ _______ _____ _____    ______ ____

>  <TORSDO>
F 10

$$$$
