=
 OpenBabel11042417553D

 55 60  0  0  1  0  0  0  0  0999 V2000
  187.2740  177.5950  146.4410 C   0  0  0  0  0  0  0  0  0  0  0  0
  188.7310  175.5080  145.1720 C   0  0  0  0  0  3  0  0  0  0  0  0
  183.8700  179.0390  143.5960 S   0  0  0  0  0  0  0  0  0  0  0  0
  187.3440  175.8100  143.0790 C   0  0  0  0  0  0  0  0  0  0  0  0
  185.5250  177.3330  143.0640 C   0  0  0  0  0  0  0  0  0  0  0  0
  186.9060  177.1990  145.0570 C   0  0  0  0  0  0  0  0  0  0  0  0
  184.4390  177.9420  142.4540 C   0  0  0  0  0  3  0  0  0  0  0  0
  188.5750  177.1450  147.0360 C   0  0  0  0  0  2  0  0  0  0  0  0
  186.2760  176.3850  142.4570 N   0  0  0  0  0  0  0  0  0  0  0  0
  185.8230  177.7670  144.3630 C   0  0  0  0  0  0  0  0  0  0  0  0
  187.6670  176.1960  144.4120 C   0  0  0  0  0  0  0  0  0  0  0  0
  189.1320  175.9110  146.3820 C   0  0  0  0  0  0  0  0  0  0  0  0
  184.9690  178.7590  144.8410 C   0  0  0  0  0  3  0  0  0  0  0  0
  186.5260  178.3410  147.1270 O   0  0  0  0  0  0  0  0  0  0  0  0
  190.2800  174.0720  141.4540 C   0  0  0  0  0  0  0  0  0  0  0  0
  189.5110  175.0310  142.1190 C   0  0  0  0  0  3  0  0  0  0  0  0
  188.3700  172.6870  141.1870 C   0  0  0  0  0  3  0  0  0  0  0  0
  189.6970  172.9240  141.0110 N   0  0  0  0  0  0  0  0  0  0  0  0
  187.5720  173.6260  141.8410 C   0  0  0  0  0  3  0  0  0  0  0  0
  188.1380  174.8190  142.3060 C   0  0  0  0  0  0  0  0  0  0  0  0
  195.2780  176.7940  140.9100 Cl  0  0  0  0  0  0  0  0  0  0  0  0
  192.2660  175.1540  142.4030 C   0  0  0  0  0  3  0  0  0  0  0  0
  191.7470  174.2990  141.2860 C   0  0  1  0  0  3  0  0  0  0  0  0
  194.5230  174.2060  140.5070 C   0  0  1  0  0  3  0  0  0  0  0  0
  193.7780  172.9590  140.9010 C   0  0  0  0  0  3  0  0  0  0  0  0
  194.7110  175.2600  141.6170 C   0  0  2  0  0  3  0  0  0  0  0  0
  193.5430  175.5490  142.5360 C   0  0  0  0  0  3  0  0  0  0  0  0
  192.4890  172.9980  141.2440 C   0  0  0  0  0  3  0  0  0  0  0  0
  195.7690  173.8940  139.7930 N   0  0  0  0  0  2  0  0  0  0  0  0
  195.5840  173.9450  138.0310 P   0  0  2  0  0  0  0  0  0  0  0  0
  196.3860  172.8150  137.4190 O   0  0  0  0  0  0  0  0  0  0  0  0
  196.1910  175.4290  137.4670 O   0  0  0  0  0  0  0  0  0  0  0  0
  197.5810  175.3000  137.4700 C   0  0  0  0  0  1  0  0  0  0  0  0
  193.9470  173.7510  137.5940 O   0  0  0  0  0  0  0  0  0  0  0  0
  193.6810  174.6080  136.1450 P   0  0  0  0  0  0  0  0  0  0  0  0
  194.9910  174.4680  135.0800 O   0  0  0  0  0  0  0  0  0  0  0  0
  192.4280  174.0980  135.4690 O   0  0  0  0  0  1  0  0  0  0  0  0
  193.4650  176.2420  136.5210 O   0  0  0  0  0  1  0  0  0  0  0  0
  190.1850  175.1420  147.1060 C   0  0  0  0  0  2  0  0  0  0  0  0
  191.3110  176.0530  147.5690 C   0  0  0  0  0  2  0  0  0  0  0  0
  193.5570  175.3570  146.6640 N   0  0  0  0  0  2  0  0  0  0  0  0
  192.3630  176.1290  146.5180 C   0  0  0  0  0  0  0  0  0  0  0  0
  192.1860  176.8550  145.5030 O   0  0  0  0  0  0  0  0  0  0  0  0
  194.6010  175.3210  145.6490 C   0  0  1  0  0  3  0  0  0  0  0  0
  195.3740  177.0400  144.6140 O   0  0  0  0  0  1  0  0  0  0  0  0
  195.4360  176.4340  145.7820 O   0  0  0  0  0  0  0  0  0  0  0  0
  195.4020  174.0260  145.7840 C   0  0  2  0  0  3  0  0  0  0  0  0
  196.7670  174.2910  145.6170 O   0  0  0  0  0  1  0  0  0  0  0  0
  195.6970  171.6490  144.8570 C   0  0  2  0  0  3  0  0  0  0  0  0
  194.9380  172.9760  144.7710 C   0  0  1  0  0  3  0  0  0  0  0  0
  194.6550  170.6510  144.5230 C   0  0  0  0  0  0  0  0  0  0  0  0
  193.4530  172.6400  144.9280 C   0  0  0  0  0  2  0  0  0  0  0  0
  196.1520  171.4040  146.1420 F   0  0  0  0  0  0  0  0  0  0  0  0
  194.9040  169.4750  144.3150 O   0  0  0  0  0  0  0  0  0  0  0  0
  193.2820  171.2040  144.4590 C   0  0  0  0  0  2  0  0  0  0  0  0
  1  8  1  0  0  0  0
  1 14  2  0  0  0  0
  2 12  2  0  0  0  0
  3 13  1  0  0  0  0
  4 11  1  0  0  0  0
  5 10  1  0  0  0  0
  6  1  1  0  0  0  0
  7  5  2  0  0  0  0
  7  3  1  0  0  0  0
  9  5  1  0  0  0  0
  9  4  2  0  0  0  0
 10 13  2  0  0  0  0
 10  6  1  0  0  0  0
 11  6  2  0  0  0  0
 11  2  1  0  0  0  0
 12  8  1  0  0  0  0
 12 39  1  0  0  0  0
 15 16  1  0  0  0  0
 16 20  2  0  0  0  0
 17 19  2  0  0  0  0
 18 17  1  0  0  0  0
 18 15  2  0  0  0  0
 19 20  1  0  0  0  0
 20  4  1  0  0  0  0
 22 27  2  0  0  0  0
 23 15  1  1  0  0  0
 23 22  1  0  0  0  0
 24 29  1  1  0  0  0
 24 25  1  0  0  0  0
 24 26  1  0  0  0  0
 25 28  2  0  0  0  0
 26 21  1  6  0  0  0
 26 27  1  0  0  0  0
 28 23  1  0  0  0  0
 30 31  2  6  0  0  0
 30 29  1  0  0  0  0
 32 33  1  0  0  0  0
 32 30  1  0  0  0  0
 34 30  1  0  0  0  0
 35 38  1  0  0  0  0
 35 34  1  0  0  0  0
 36 35  2  0  0  0  0
 37 35  1  0  0  0  0
 39 40  1  0  0  0  0
 42 41  1  0  0  0  0
 42 40  1  0  0  0  0
 43 42  2  0  0  0  0
 44 46  1  1  0  0  0
 44 47  1  0  0  0  0
 44 41  1  0  0  0  0
 45 46  1  0  0  0  0
 47 48  1  6  0  0  0
 49 53  1  1  0  0  0
 50 49  1  0  0  0  0
 50 52  1  0  0  0  0
 50 47  1  1  0  0  0
 51 49  1  0  0  0  0
 54 51  2  0  0  0  0
 55 51  1  0  0  0  0
 55 52  1  0  0  0  0
M  END
>  <MODEL>
1

>  <REMARK>
 VINA RESULT:      -7.3      0.000      0.000
  Name = 
  14 active torsions:
  status: ('A' for Active; 'I' for Inactive)
    1  A    between atoms: C_2  and  C_28
    2  A    between atoms: C_4  and  C_27
    3  A    between atoms: C_4  and  C_44
    4  A    between atoms: C_6  and  C_20
    5  A    between atoms: C_6  and  C_31
    6  A    between atoms: O_7  and  P_17
    7  A    between atoms: N_10  and  P_17
    8  A    between atoms: N_10  and  C_29
    9  A    between atoms: O_13  and  P_17
   10  A    between atoms: O_13  and  P_18
   11  A    between atoms: C_14  and  C_49
   12  A    between atoms: C_20  and  N_25
   13  A    between atoms: C_20  and  O_53
   14  A    between atoms: C_27  and  C_46
                            x       y       z     vdW  Elec       q    Type
                         _______ _______ _______ _____ _____    ______ ____

>  <TORSDO>
F 14

$$$$
=
 OpenBabel11042417553D

 55 60  0  0  1  0  0  0  0  0999 V2000
  195.8020  171.1540  139.9360 C   0  0  0  0  0  0  0  0  0  0  0  0
  193.2650  171.3050  141.2110 C   0  0  0  0  0  3  0  0  0  0  0  0
  196.2160  174.6900  136.9190 S   0  0  0  0  0  0  0  0  0  0  0  0
  192.6450  173.2740  139.7500 C   0  0  0  0  0  0  0  0  0  0  0  0
  194.2440  174.2060  138.2660 C   0  0  0  0  0  0  0  0  0  0  0  0
  194.8560  172.2260  139.5310 C   0  0  0  0  0  0  0  0  0  0  0  0
  194.6490  175.1460  137.3290 C   0  0  0  0  0  3  0  0  0  0  0  0
  195.3230  169.9900  140.7500 C   0  0  0  0  0  2  0  0  0  0  0  0
  193.0180  174.2170  138.8380 N   0  0  0  0  0  0  0  0  0  0  0  0
  195.1830  173.2160  138.5870 C   0  0  0  0  0  0  0  0  0  0  0  0
  193.5760  172.2660  140.1320 C   0  0  0  0  0  0  0  0  0  0  0  0
  194.0670  170.2830  141.5240 C   0  0  0  0  0  0  0  0  0  0  0  0
  196.3890  173.3320  137.9010 C   0  0  0  0  0  3  0  0  0  0  0  0
  197.0090  171.1790  139.5760 O   0  0  0  0  0  0  0  0  0  0  0  0
  189.7110  174.0900  141.9860 C   0  0  0  0  0  0  0  0  0  0  0  0
  191.0190  173.9610  141.5130 C   0  0  0  0  0  3  0  0  0  0  0  0
  188.8700  173.0370  140.0310 C   0  0  0  0  0  3  0  0  0  0  0  0
  188.6700  173.6340  141.2350 N   0  0  0  0  0  0  0  0  0  0  0  0
  190.1640  172.8850  139.5320 C   0  0  0  0  0  3  0  0  0  0  0  0
  191.2580  173.3400  140.2790 C   0  0  0  0  0  0  0  0  0  0  0  0
  188.5510  174.8640  147.5300 Cl  0  0  0  0  0  0  0  0  0  0  0  0
  190.3940  174.2340  144.3370 C   0  0  0  0  0  3  0  0  0  0  0  0
  189.4700  174.7790  143.2900 C   0  0  1  0  0  3  0  0  0  0  0  0
  188.6580  176.5660  145.4040 C   0  0  1  0  0  3  0  0  0  0  0  0
  189.2950  177.0830  144.1430 C   0  0  0  0  0  3  0  0  0  0  0  0
  189.5460  175.6720  146.2930 C   0  0  2  0  0  3  0  0  0  0  0  0
  190.4210  174.6350  145.6190 C   0  0  0  0  0  3  0  0  0  0  0  0
  189.6550  176.2600  143.1560 C   0  0  0  0  0  3  0  0  0  0  0  0
  187.9870  177.6370  146.1550 N   0  0  0  0  0  2  0  0  0  0  0  0
  186.2790  177.8170  145.7160 P   0  0  2  0  0  0  0  0  0  0  0  0
  185.9800  179.2860  145.4960 O   0  0  0  0  0  0  0  0  0  0  0  0
  185.3280  177.2420  147.0030 O   0  0  0  0  0  0  0  0  0  0  0  0
  184.4750  178.2930  147.3470 C   0  0  0  0  0  1  0  0  0  0  0  0
  185.9350  176.9680  144.2780 O   0  0  0  0  0  0  0  0  0  0  0  0
  185.2760  178.0700  143.1570 P   0  0  0  0  0  0  0  0  0  0  0  0
  186.3640  179.3130  142.7830 O   0  0  0  0  0  1  0  0  0  0  0  0
  184.8890  177.3430  141.8890 O   0  0  0  0  0  0  0  0  0  0  0  0
  183.8860  178.7550  143.8340 O   0  0  0  0  0  1  0  0  0  0  0  0
  193.7060  169.3770  142.6520 C   0  0  0  0  0  2  0  0  0  0  0  0
  194.7600  169.4140  143.7470 C   0  0  0  0  0  2  0  0  0  0  0  0
  196.0420  171.5480  144.1330 N   0  0  0  0  0  2  0  0  0  0  0  0
  194.8480  170.7860  144.3170 C   0  0  0  0  0  0  0  0  0  0  0  0
  193.8650  171.2720  144.9410 O   0  0  0  0  0  0  0  0  0  0  0  0
  196.1820  172.9210  144.5970 C   0  0  1  0  0  3  0  0  0  0  0  0
  197.1310  173.5070  146.4350 O   0  0  0  0  0  1  0  0  0  0  0  0
  197.4220  173.0920  145.2210 O   0  0  0  0  0  0  0  0  0  0  0  0
  196.0360  173.8800  143.4150 C   0  0  2  0  0  3  0  0  0  0  0  0
  196.9830  174.9060  143.5150 O   0  0  0  0  0  1  0  0  0  0  0  0
  194.2260  175.2820  144.5800 C   0  0  2  0  0  3  0  0  0  0  0  0
  194.6230  174.4670  143.3460 C   0  0  1  0  0  3  0  0  0  0  0  0
  193.3750  176.3500  144.0080 C   0  0  0  0  0  0  0  0  0  0  0  0
  194.4400  175.3870  142.1370 C   0  0  0  0  0  2  0  0  0  0  0  0
  195.3290  175.8670  145.1810 F   0  0  0  0  0  0  0  0  0  0  0  0
  192.7160  177.1140  144.6950 O   0  0  0  0  0  0  0  0  0  0  0  0
  193.3860  176.4110  142.5280 C   0  0  0  0  0  2  0  0  0  0  0  0
  1  8  1  0  0  0  0
  2 12  2  0  0  0  0
  3  7  1  0  0  0  0
  3 13  1  0  0  0  0
  4 11  1  0  0  0  0
  4 20  1  0  0  0  0
  5 10  1  0  0  0  0
  5  9  1  0  0  0  0
  6  1  1  0  0  0  0
  6 11  2  0  0  0  0
  7  5  2  0  0  0  0
  8 12  1  0  0  0  0
  9  4  2  0  0  0  0
 10  6  1  0  0  0  0
 11  2  1  0  0  0  0
 12 39  1  0  0  0  0
 13 10  2  0  0  0  0
 14  1  2  0  0  0  0
 16 15  1  0  0  0  0
 17 18  1  0  0  0  0
 18 15  2  0  0  0  0
 19 17  2  0  0  0  0
 19 20  1  0  0  0  0
 20 16  2  0  0  0  0
 22 27  2  0  0  0  0
 23 15  1  6  0  0  0
 23 22  1  0  0  0  0
 24 29  1  1  0  0  0
 24 26  1  0  0  0  0
 25 24  1  0  0  0  0
 26 21  1  1  0  0  0
 27 26  1  0  0  0  0
 28 23  1  0  0  0  0
 28 25  2  0  0  0  0
 30 31  2  6  0  0  0
 30 29  1  0  0  0  0
 30 32  1  0  0  0  0
 32 33  1  0  0  0  0
 34 30  1  0  0  0  0
 35 38  1  0  0  0  0
 35 34  1  0  0  0  0
 36 35  1  0  0  0  0
 37 35  2  0  0  0  0
 39 40  1  0  0  0  0
 40 42  1  0  0  0  0
 41 42  1  0  0  0  0
 42 43  2  0  0  0  0
 44 41  1  6  0  0  0
 44 46  1  0  0  0  0
 46 45  1  0  0  0  0
 47 48  1  1  0  0  0
 47 44  1  0  0  0  0
 49 53  1  6  0  0  0
 50 47  1  1  0  0  0
 50 49  1  0  0  0  0
 51 49  1  0  0  0  0
 51 54  2  0  0  0  0
 52 55  1  0  0  0  0
 52 50  1  0  0  0  0
 55 51  1  0  0  0  0
M  END
>  <MODEL>
2

>  <REMARK>
 VINA RESULT:      -7.1      4.272      8.770
  Name = 
  14 active torsions:
  status: ('A' for Active; 'I' for Inactive)
    1  A    between atoms: C_2  and  C_28
    2  A    between atoms: C_4  and  C_27
    3  A    between atoms: C_4  and  C_44
    4  A    between atoms: C_6  and  C_20
    5  A    between atoms: C_6  and  C_31
    6  A    between atoms: O_7  and  P_17
    7  A    between atoms: N_10  and  P_17
    8  A    between atoms: N_10  and  C_29
    9  A    between atoms: O_13  and  P_17
   10  A    between atoms: O_13  and  P_18
   11  A    between atoms: C_14  and  C_49
   12  A    between atoms: C_20  and  N_25
   13  A    between atoms: C_20  and  O_53
   14  A    between atoms: C_27  and  C_46
                            x       y       z     vdW  Elec       q    Type
                         _______ _______ _______ _____ _____    ______ ____

>  <TORSDO>
F 14

$$$$
=
 OpenBabel11042417553D

 55 60  0  0  1  0  0  0  0  0999 V2000
  196.5480  171.4720  141.5510 C   0  0  0  0  0  0  0  0  0  0  0  0
  195.7980  174.0260  142.5540 C   0  0  0  0  0  3  0  0  0  0  0  0
  194.2140  168.1670  143.8740 S   0  0  0  0  0  0  0  0  0  0  0  0
  194.3620  172.9160  144.3140 C   0  0  0  0  0  0  0  0  0  0  0  0
  194.0830  170.5600  144.3130 C   0  0  0  0  0  0  0  0  0  0  0  0
  195.5930  171.5470  142.6870 C   0  0  0  0  0  0  0  0  0  0  0  0
  193.5300  169.3890  144.8080 C   0  0  0  0  0  3  0  0  0  0  0  0
  197.3480  172.6770  141.1540 C   0  0  0  0  0  2  0  0  0  0  0  0
  193.7950  171.7820  144.8160 N   0  0  0  0  0  0  0  0  0  0  0  0
  194.9880  170.4110  143.2520 C   0  0  0  0  0  0  0  0  0  0  0  0
  195.2630  172.8180  143.2150 C   0  0  0  0  0  0  0  0  0  0  0  0
  196.7240  173.9740  141.5910 C   0  0  0  0  0  0  0  0  0  0  0  0
  195.1930  169.0900  142.8610 C   0  0  0  0  0  3  0  0  0  0  0  0
  196.7340  170.3950  140.9260 O   0  0  0  0  0  0  0  0  0  0  0  0
  192.3710  175.8890  145.5290 C   0  0  0  0  0  0  0  0  0  0  0  0
  192.7210  174.7150  144.8570 C   0  0  0  0  0  3  0  0  0  0  0  0
  194.5530  176.0430  146.4520 C   0  0  0  0  0  3  0  0  0  0  0  0
  193.2890  176.5200  146.3130 N   0  0  0  0  0  0  0  0  0  0  0  0
  194.9380  174.8770  145.7890 C   0  0  0  0  0  3  0  0  0  0  0  0
  194.0210  174.2040  144.9720 C   0  0  0  0  0  0  0  0  0  0  0  0
  186.7550  176.4580  146.4330 Cl  0  0  0  0  0  0  0  0  0  0  0  0
  190.4640  176.8020  146.7720 C   0  0  0  0  0  3  0  0  0  0  0  0
  190.9740  176.4060  145.4180 C   0  0  1  0  0  3  0  0  0  0  0  0
  188.4330  177.4380  144.5220 C   0  0  1  0  0  3  0  0  0  0  0  0
  189.7310  178.0600  144.0810 C   0  0  0  0  0  3  0  0  0  0  0  0
  188.1150  177.5350  146.0280 C   0  0  2  0  0  3  0  0  0  0  0  0
  189.2380  177.2940  147.0150 C   0  0  0  0  0  3  0  0  0  0  0  0
  190.9070  177.5730  144.4800 C   0  0  0  0  0  3  0  0  0  0  0  0
  187.3110  177.8550  143.6700 N   0  0  0  0  0  2  0  0  0  0  0  0
  187.1450  176.8560  142.2150 P   0  0  2  0  0  0  0  0  0  0  0  0
  188.3330  177.1060  141.3080 O   0  0  0  0  0  0  0  0  0  0  0  0
  185.7210  177.3110  141.4070 O   0  0  0  0  0  0  0  0  0  0  0  0
  184.9990  178.0900  142.3130 C   0  0  0  0  0  1  0  0  0  0  0  0
  187.1100  175.2010  142.6240 O   0  0  0  0  0  0  0  0  0  0  0  0
  188.3810  174.4240  141.7960 P   0  0  0  0  0  0  0  0  0  0  0  0
  188.3210  174.7180  140.1290 O   0  0  0  0  0  0  0  0  0  0  0  0
  189.7110  174.8920  142.3410 O   0  0  0  0  0  1  0  0  0  0  0  0
  188.2480  172.7580  142.0540 O   0  0  0  0  0  1  0  0  0  0  0  0
  197.1890  175.2340  140.9420 C   0  0  0  0  0  2  0  0  0  0  0  0
  196.9030  175.2210  139.4480 C   0  0  0  0  0  2  0  0  0  0  0  0
  195.0270  173.8620  138.4580 N   0  0  0  0  0  2  0  0  0  0  0  0
  195.4500  174.9990  139.2140 C   0  0  0  0  0  0  0  0  0  0  0  0
  194.6050  175.8000  139.6970 O   0  0  0  0  0  0  0  0  0  0  0  0
  193.6240  173.5350  138.2430 C   0  0  1  0  0  3  0  0  0  0  0  0
  192.2970  174.7560  137.0720 O   0  0  0  0  0  1  0  0  0  0  0  0
  193.2520  173.8590  136.9350 O   0  0  0  0  0  0  0  0  0  0  0  0
  193.3970  172.0490  138.5160 C   0  0  2  0  0  3  0  0  0  0  0  0
  193.1260  171.3800  137.3160 O   0  0  0  0  0  1  0  0  0  0  0  0
  192.1360  170.3960  140.0240 C   0  0  2  0  0  3  0  0  0  0  0  0
  192.2530  171.8340  139.5120 C   0  0  1  0  0  3  0  0  0  0  0  0
  191.6830  170.5810  141.4230 C   0  0  0  0  0  0  0  0  0  0  0  0
  192.3890  172.7270  140.7470 C   0  0  0  0  0  2  0  0  0  0  0  0
  193.3640  169.7560  140.0360 F   0  0  0  0  0  0  0  0  0  0  0  0
  191.3050  169.6580  142.1260 O   0  0  0  0  0  0  0  0  0  0  0  0
  191.7240  171.9850  141.8940 C   0  0  0  0  0  2  0  0  0  0  0  0
  1  6  1  0  0  0  0
  2 11  1  0  0  0  0
  3  7  1  0  0  0  0
  4  9  2  0  0  0  0
  4 20  1  0  0  0  0
  5  7  2  0  0  0  0
  5  9  1  0  0  0  0
  6 11  2  0  0  0  0
  6 10  1  0  0  0  0
  8  1  1  0  0  0  0
  8 12  1  0  0  0  0
 10  5  1  0  0  0  0
 11  4  1  0  0  0  0
 12  2  2  0  0  0  0
 13 10  2  0  0  0  0
 13  3  1  0  0  0  0
 14  1  2  0  0  0  0
 15 18  1  0  0  0  0
 16 20  1  0  0  0  0
 16 15  2  0  0  0  0
 18 17  2  0  0  0  0
 19 17  1  0  0  0  0
 20 19  2  0  0  0  0
 22 27  2  0  0  0  0
 23 15  1  1  0  0  0
 23 22  1  0  0  0  0
 24 29  1  6  0  0  0
 24 26  1  0  0  0  0
 25 28  2  0  0  0  0
 25 24  1  0  0  0  0
 26 21  1  1  0  0  0
 26 27  1  0  0  0  0
 28 23  1  0  0  0  0
 30 31  2  6  0  0  0
 30 34  1  0  0  0  0
 30 29  1  0  0  0  0
 32 30  1  0  0  0  0
 32 33  1  0  0  0  0
 35 38  1  0  0  0  0
 35 37  1  0  0  0  0
 35 34  1  0  0  0  0
 36 35  2  0  0  0  0
 39 12  1  0  0  0  0
 40 39  1  0  0  0  0
 41 42  1  0  0  0  0
 42 40  1  0  0  0  0
 42 43  2  0  0  0  0
 44 46  1  6  0  0  0
 44 41  1  0  0  0  0
 44 47  1  0  0  0  0
 46 45  1  0  0  0  0
 47 48  1  6  0  0  0
 49 53  1  1  0  0  0
 49 51  1  0  0  0  0
 50 47  1  6  0  0  0
 50 49  1  0  0  0  0
 50 52  1  0  0  0  0
 51 55  1  0  0  0  0
 51 54  2  0  0  0  0
 52 55  1  0  0  0  0
M  END
>  <MODEL>
3

>  <REMARK>
 VINA RESULT:      -7.0      4.111      8.908
  Name = 
  14 active torsions:
  status: ('A' for Active; 'I' for Inactive)
    1  A    between atoms: C_2  and  C_28
    2  A    between atoms: C_4  and  C_27
    3  A    between atoms: C_4  and  C_44
    4  A    between atoms: C_6  and  C_20
    5  A    between atoms: C_6  and  C_31
    6  A    between atoms: O_7  and  P_17
    7  A    between atoms: N_10  and  P_17
    8  A    between atoms: N_10  and  C_29
    9  A    between atoms: O_13  and  P_17
   10  A    between atoms: O_13  and  P_18
   11  A    between atoms: C_14  and  C_49
   12  A    between atoms: C_20  and  N_25
   13  A    between atoms: C_20  and  O_53
   14  A    between atoms: C_27  and  C_46
                            x       y       z     vdW  Elec       q    Type
                         _______ _______ _______ _____ _____    ______ ____

>  <TORSDO>
F 14

$$$$
=
 OpenBabel11042417553D

 55 60  0  0  1  0  0  0  0  0999 V2000
  186.3280  176.4230  143.3370 C   0  0  0  0  0  0  0  0  0  0  0  0
  189.0780  175.7860  143.6810 C   0  0  0  0  0  3  0  0  0  0  0  0
  184.7910  178.6790  147.1210 S   0  0  0  0  0  0  0  0  0  0  0  0
  189.0050  176.7250  146.0270 C   0  0  0  0  0  0  0  0  0  0  0  0
  187.0380  177.7860  146.8250 C   0  0  0  0  0  0  0  0  0  0  0  0
  186.9930  176.7760  144.6180 C   0  0  0  0  0  0  0  0  0  0  0  0
  186.3220  178.4780  147.7910 C   0  0  0  0  0  3  0  0  0  0  0  0
  186.9830  175.4710  142.3810 C   0  0  0  0  0  2  0  0  0  0  0  0
  188.3280  177.4130  146.9920 N   0  0  0  0  0  0  0  0  0  0  0  0
  186.3410  177.4730  145.6500 C   0  0  0  0  0  0  0  0  0  0  0  0
  188.3480  176.4120  144.8030 C   0  0  0  0  0  0  0  0  0  0  0  0
  188.4730  175.3830  142.5590 C   0  0  0  0  0  0  0  0  0  0  0  0
  185.0190  177.9100  145.6400 C   0  0  0  0  0  3  0  0  0  0  0  0
  185.1910  176.8800  143.0450 O   0  0  0  0  0  0  0  0  0  0  0  0
  192.4450  175.2140  145.6360 C   0  0  0  0  0  0  0  0  0  0  0  0
  191.1110  175.5480  145.3930 C   0  0  0  0  0  3  0  0  0  0  0  0
  192.3990  176.4040  147.6900 C   0  0  0  0  0  3  0  0  0  0  0  0
  193.0590  175.6530  146.7690 N   0  0  0  0  0  0  0  0  0  0  0  0
  191.0630  176.7500  147.4820 C   0  0  0  0  0  3  0  0  0  0  0  0
  190.4000  176.3130  146.3290 C   0  0  0  0  0  0  0  0  0  0  0  0
  196.3980  171.7910  143.3240 Cl  0  0  0  0  0  0  0  0  0  0  0  0
  193.3080  172.9920  145.0570 C   0  0  0  0  0  3  0  0  0  0  0  0
  193.1980  174.4220  144.6170 C   0  0  1  0  0  3  0  0  0  0  0  0
  194.5240  173.4520  142.2460 C   0  0  1  0  0  3  0  0  0  0  0  0
  193.1380  174.0340  142.1850 C   0  0  0  0  0  3  0  0  0  0  0  0
  194.6730  172.1440  143.0500 C   0  0  2  0  0  3  0  0  0  0  0  0
  193.9360  172.0250  144.3680 C   0  0  0  0  0  3  0  0  0  0  0  0
  192.5300  174.5000  143.2770 C   0  0  0  0  0  3  0  0  0  0  0  0
  195.1460  173.3820  140.9160 N   0  0  0  0  0  2  0  0  0  0  0  0
  196.4160  174.5970  140.6870 P   0  0  2  0  0  0  0  0  0  0  0  0
  197.7110  173.8950  140.3310 O   0  0  0  0  0  0  0  0  0  0  0  0
  196.6240  175.4430  142.1470 O   0  0  0  0  0  0  0  0  0  0  0  0
  196.2920  176.7710  141.8700 C   0  0  0  0  0  1  0  0  0  0  0  0
  196.0070  175.6620  139.4200 O   0  0  0  0  0  0  0  0  0  0  0  0
  196.3430  174.8820  137.9420 P   0  0  0  0  0  0  0  0  0  0  0  0
  197.9400  175.1410  137.4410 O   0  0  0  0  0  1  0  0  0  0  0  0
  196.0940  173.3960  138.0780 O   0  0  0  0  0  1  0  0  0  0  0  0
  195.3010  175.4990  136.7620 O   0  0  0  0  0  0  0  0  0  0  0  0
  189.2820  174.7960  141.4520 C   0  0  0  0  0  2  0  0  0  0  0  0
  188.4530  174.6410  140.1870 C   0  0  0  0  0  2  0  0  0  0  0  0
  190.0270  173.7090  138.4550 N   0  0  0  0  0  2  0  0  0  0  0  0
  188.9640  173.4960  139.3860 C   0  0  0  0  0  0  0  0  0  0  0  0
  188.4700  172.3460  139.5450 O   0  0  0  0  0  0  0  0  0  0  0  0
  190.6300  172.6300  137.6850 C   0  0  1  0  0  3  0  0  0  0  0  0
  189.5800  173.0740  135.8630 O   0  0  0  0  0  1  0  0  0  0  0  0
  190.8000  173.0270  136.3560 O   0  0  0  0  0  0  0  0  0  0  0  0
  191.9720  172.2430  138.3080 C   0  0  2  0  0  3  0  0  0  0  0  0
  193.0000  172.4280  137.3760 O   0  0  0  0  0  1  0  0  0  0  0  0
  191.9050  170.6570  140.3270 C   0  0  2  0  0  3  0  0  0  0  0  0
  191.9590  170.7940  138.8030 C   0  0  1  0  0  3  0  0  0  0  0  0
  191.0830  169.4400  140.5190 C   0  0  0  0  0  0  0  0  0  0  0  0
  190.7680  170.0070  138.2520 C   0  0  0  0  0  2  0  0  0  0  0  0
  191.2530  171.7300  140.9130 F   0  0  0  0  0  0  0  0  0  0  0  0
  190.9500  168.8920  141.6020 O   0  0  0  0  0  0  0  0  0  0  0  0
  190.4400  168.9390  139.2820 C   0  0  0  0  0  2  0  0  0  0  0  0
  1  6  1  0  0  0  0
  2 11  1  0  0  0  0
  3  7  1  0  0  0  0
  4 20  1  0  0  0  0
  4  9  2  0  0  0  0
  5  9  1  0  0  0  0
  5  7  2  0  0  0  0
  6 11  2  0  0  0  0
  6 10  1  0  0  0  0
  8 12  1  0  0  0  0
  8  1  1  0  0  0  0
 10  5  1  0  0  0  0
 11  4  1  0  0  0  0
 12  2  2  0  0  0  0
 13 10  2  0  0  0  0
 13  3  1  0  0  0  0
 14  1  2  0  0  0  0
 15 18  1  0  0  0  0
 16 15  2  0  0  0  0
 16 20  1  0  0  0  0
 18 17  2  0  0  0  0
 19 17  1  0  0  0  0
 20 19  2  0  0  0  0
 23 22  1  0  0  0  0
 23 15  1  1  0  0  0
 24 29  1  6  0  0  0
 24 26  1  0  0  0  0
 25 24  1  0  0  0  0
 25 28  2  0  0  0  0
 26 21  1  1  0  0  0
 26 27  1  0  0  0  0
 27 22  2  0  0  0  0
 28 23  1  0  0  0  0
 30 31  2  6  0  0  0
 30 29  1  0  0  0  0
 30 32  1  0  0  0  0
 33 32  1  0  0  0  0
 34 30  1  0  0  0  0
 35 37  1  0  0  0  0
 35 34  1  0  0  0  0
 36 35  1  0  0  0  0
 38 35  2  0  0  0  0
 39 12  1  0  0  0  0
 40 39  1  0  0  0  0
 41 42  1  0  0  0  0
 42 43  2  0  0  0  0
 42 40  1  0  0  0  0
 44 46  1  6  0  0  0
 44 47  1  0  0  0  0
 44 41  1  0  0  0  0
 45 46  1  0  0  0  0
 47 48  1  6  0  0  0
 49 51  1  0  0  0  0
 49 53  1  1  0  0  0
 50 47  1  1  0  0  0
 50 49  1  0  0  0  0
 51 54  2  0  0  0  0
 52 50  1  0  0  0  0
 52 55  1  0  0  0  0
 55 51  1  0  0  0  0
M  END
>  <MODEL>
4

>  <REMARK>
 VINA RESULT:      -6.9      2.762      5.635
  Name = 
  14 active torsions:
  status: ('A' for Active; 'I' for Inactive)
    1  A    between atoms: C_2  and  C_28
    2  A    between atoms: C_4  and  C_27
    3  A    between atoms: C_4  and  C_44
    4  A    between atoms: C_6  and  C_20
    5  A    between atoms: C_6  and  C_31
    6  A    between atoms: O_7  and  P_17
    7  A    between atoms: N_10  and  P_17
    8  A    between atoms: N_10  and  C_29
    9  A    between atoms: O_13  and  P_17
   10  A    between atoms: O_13  and  P_18
   11  A    between atoms: C_14  and  C_49
   12  A    between atoms: C_20  and  N_25
   13  A    between atoms: C_20  and  O_53
   14  A    between atoms: C_27  and  C_46
                            x       y       z     vdW  Elec       q    Type
                         _______ _______ _______ _____ _____    ______ ____

>  <TORSDO>
F 14

$$$$
=
 OpenBabel11042417553D

 55 60  0  0  1  0  0  0  0  0999 V2000
  188.6890  175.3370  145.5240 C   0  0  0  0  0  0  0  0  0  0  0  0
  189.3360  173.7840  143.2310 C   0  0  0  0  0  3  0  0  0  0  0  0
  186.0190  178.9390  144.2340 S   0  0  0  0  0  0  0  0  0  0  0  0
  188.1530  175.4640  141.7570 C   0  0  0  0  0  0  0  0  0  0  0  0
  186.9780  177.2820  142.7280 C   0  0  0  0  0  0  0  0  0  0  0  0
  188.2150  175.7900  144.1910 C   0  0  0  0  0  0  0  0  0  0  0  0
  186.1760  178.4100  142.6440 C   0  0  0  0  0  3  0  0  0  0  0  0
  189.7490  174.2810  145.6310 C   0  0  0  0  0  2  0  0  0  0  0  0
  187.3550  176.5640  141.6440 N   0  0  0  0  0  0  0  0  0  0  0  0
  187.4010  176.9240  144.0150 C   0  0  0  0  0  0  0  0  0  0  0  0
  188.5820  175.0420  143.0480 C   0  0  0  0  0  0  0  0  0  0  0  0
  189.8440  173.4090  144.4090 C   0  0  0  0  0  0  0  0  0  0  0  0
  186.9440  177.7720  145.0200 C   0  0  0  0  0  3  0  0  0  0  0  0
  188.2450  175.8510  146.5840 O   0  0  0  0  0  0  0  0  0  0  0  0
  189.9870  173.1870  139.3630 C   0  0  0  0  0  0  0  0  0  0  0  0
  189.6430  173.8910  140.5200 C   0  0  0  0  0  3  0  0  0  0  0  0
  188.1870  174.1900  138.1840 C   0  0  0  0  0  3  0  0  0  0  0  0
  189.2510  173.3470  138.2290 N   0  0  0  0  0  0  0  0  0  0  0  0
  187.8200  174.9140  139.3200 C   0  0  0  0  0  3  0  0  0  0  0  0
  188.5570  174.7770  140.5020 C   0  0  0  0  0  0  0  0  0  0  0  0
  194.0650  169.7590  141.4380 Cl  0  0  0  0  0  0  0  0  0  0  0  0
  190.7620  171.0240  140.2210 C   0  0  0  0  0  3  0  0  0  0  0  0
  191.1300  172.2260  139.4040 C   0  0  1  0  0  3  0  0  0  0  0  0
  193.5740  170.7610  138.9510 C   0  0  1  0  0  3  0  0  0  0  0  0
  192.6510  171.1160  137.8160 C   0  0  0  0  0  3  0  0  0  0  0  0
  193.0060  169.7890  140.0050 C   0  0  2  0  0  3  0  0  0  0  0  0
  191.5750  169.9820  140.4610 C   0  0  0  0  0  3  0  0  0  0  0  0
  191.5300  171.8090  138.0210 C   0  0  0  0  0  3  0  0  0  0  0  0
  194.9070  170.3720  138.4690 N   0  0  0  0  0  2  0  0  0  0  0  0
  196.0540  171.7230  138.4570 P   0  0  2  0  0  0  0  0  0  0  0  0
  197.3240  171.2840  137.7550 O   0  0  0  0  0  0  0  0  0  0  0  0
  196.4200  172.1350  140.0640 O   0  0  0  0  0  0  0  0  0  0  0  0
  197.2970  171.1500  140.5220 C   0  0  0  0  0  1  0  0  0  0  0  0
  195.4020  173.0580  137.6190 O   0  0  0  0  0  0  0  0  0  0  0  0
  196.1960  174.4640  138.1650 P   0  0  0  0  0  0  0  0  0  0  0  0
  197.8440  174.1900  138.4410 O   0  0  0  0  0  1  0  0  0  0  0  0
  196.0340  175.5720  137.1490 O   0  0  0  0  0  0  0  0  0  0  0  0
  195.4810  174.9530  139.6170 O   0  0  0  0  0  1  0  0  0  0  0  0
  190.5600  172.1060  144.5260 C   0  0  0  0  0  2  0  0  0  0  0  0
  191.6530  171.9820  143.4760 C   0  0  0  0  0  2  0  0  0  0  0  0
  193.6470  173.4730  143.0950 N   0  0  0  0  0  2  0  0  0  0  0  0
  192.9020  172.6230  143.9690 C   0  0  0  0  0  0  0  0  0  0  0  0
  193.2830  172.4270  145.1550 O   0  0  0  0  0  0  0  0  0  0  0  0
  194.8390  174.1920  143.5210 C   0  0  1  0  0  3  0  0  0  0  0  0
  196.7350  173.2100  143.7740 O   0  0  0  0  0  1  0  0  0  0  0  0
  195.9590  173.7110  142.8360 O   0  0  0  0  0  0  0  0  0  0  0  0
  194.6530  175.6880  143.2680 C   0  0  2  0  0  3  0  0  0  0  0  0
  195.8240  176.2270  142.7210 O   0  0  0  0  0  1  0  0  0  0  0  0
  192.7940  176.7810  144.6640 C   0  0  2  0  0  3  0  0  0  0  0  0
  194.2800  176.4290  144.5560 C   0  0  1  0  0  3  0  0  0  0  0  0
  192.5300  176.6490  146.1150 C   0  0  0  0  0  0  0  0  0  0  0  0
  194.6290  175.6200  145.8080 C   0  0  0  0  0  2  0  0  0  0  0  0
  192.0030  175.8690  143.9840 F   0  0  0  0  0  0  0  0  0  0  0  0
  191.4890  177.0160  146.6360 O   0  0  0  0  0  0  0  0  0  0  0  0
  193.6390  176.0370  146.8830 C   0  0  0  0  0  2  0  0  0  0  0  0
  1  8  1  0  0  0  0
  1 14  2  0  0  0  0
  2 12  2  0  0  0  0
  3 13  1  0  0  0  0
  4 11  1  0  0  0  0
  5 10  1  0  0  0  0
  6  1  1  0  0  0  0
  7  5  2  0  0  0  0
  7  3  1  0  0  0  0
  9  4  2  0  0  0  0
  9  5  1  0  0  0  0
 10  6  1  0  0  0  0
 10 13  2  0  0  0  0
 11  2  1  0  0  0  0
 11  6  2  0  0  0  0
 12 39  1  0  0  0  0
 12  8  1  0  0  0  0
 15 16  1  0  0  0  0
 17 18  1  0  0  0  0
 17 19  2  0  0  0  0
 18 15  2  0  0  0  0
 19 20  1  0  0  0  0
 20 16  2  0  0  0  0
 20  4  1  0  0  0  0
 22 27  2  0  0  0  0
 23 15  1  6  0  0  0
 23 22  1  0  0  0  0
 24 29  1  6  0  0  0
 24 26  1  0  0  0  0
 25 28  2  0  0  0  0
 25 24  1  0  0  0  0
 26 27  1  0  0  0  0
 26 21  1  1  0  0  0
 28 23  1  0  0  0  0
 30 31  2  6  0  0  0
 30 29  1  0  0  0  0
 30 32  1  0  0  0  0
 32 33  1  0  0  0  0
 34 35  1  0  0  0  0
 34 30  1  0  0  0  0
 35 36  1  0  0  0  0
 35 38  1  0  0  0  0
 37 35  2  0  0  0  0
 40 42  1  0  0  0  0
 40 39  1  0  0  0  0
 41 44  1  0  0  0  0
 41 42  1  0  0  0  0
 42 43  2  0  0  0  0
 44 46  1  6  0  0  0
 46 45  1  0  0  0  0
 47 48  1  1  0  0  0
 47 44  1  0  0  0  0
 49 53  1  6  0  0  0
 49 51  1  0  0  0  0
 50 47  1  6  0  0  0
 50 49  1  0  0  0  0
 50 52  1  0  0  0  0
 51 54  2  0  0  0  0
 51 55  1  0  0  0  0
 52 55  1  0  0  0  0
M  END
>  <MODEL>
5

>  <REMARK>
 VINA RESULT:      -6.8      2.597      3.969
  Name = 
  14 active torsions:
  status: ('A' for Active; 'I' for Inactive)
    1  A    between atoms: C_2  and  C_28
    2  A    between atoms: C_4  and  C_27
    3  A    between atoms: C_4  and  C_44
    4  A    between atoms: C_6  and  C_20
    5  A    between atoms: C_6  and  C_31
    6  A    between atoms: O_7  and  P_17
    7  A    between atoms: N_10  and  P_17
    8  A    between atoms: N_10  and  C_29
    9  A    between atoms: O_13  and  P_17
   10  A    between atoms: O_13  and  P_18
   11  A    between atoms: C_14  and  C_49
   12  A    between atoms: C_20  and  N_25
   13  A    between atoms: C_20  and  O_53
   14  A    between atoms: C_27  and  C_46
                            x       y       z     vdW  Elec       q    Type
                         _______ _______ _______ _____ _____    ______ ____

>  <TORSDO>
F 14

$$$$
=
 OpenBabel11042417553D

 55 60  0  0  1  0  0  0  0  0999 V2000
  190.8000  170.9260  140.4710 C   0  0  0  0  0  0  0  0  0  0  0  0
  189.3260  173.3300  140.8430 C   0  0  0  0  0  3  0  0  0  0  0  0
  191.1050  170.0050  135.9080 S   0  0  0  0  0  0  0  0  0  0  0  0
  188.8940  173.4530  138.3550 C   0  0  0  0  0  0  0  0  0  0  0  0
  189.8980  171.8780  136.8920 C   0  0  0  0  0  0  0  0  0  0  0  0
  190.2340  171.6150  139.2820 C   0  0  0  0  0  0  0  0  0  0  0  0
  190.1620  171.3700  135.6290 C   0  0  0  0  0  3  0  0  0  0  0  0
  190.3380  171.2950  141.8500 C   0  0  0  0  0  2  0  0  0  0  0  0
  189.1440  172.9820  137.1000 N   0  0  0  0  0  0  0  0  0  0  0  0
  190.4500  171.1670  137.9670 C   0  0  0  0  0  0  0  0  0  0  0  0
  189.4590  172.7820  139.4780 C   0  0  0  0  0  0  0  0  0  0  0  0
  189.7510  172.6770  141.9300 C   0  0  0  0  0  0  0  0  0  0  0  0
  191.1840  170.0450  137.5900 C   0  0  0  0  0  3  0  0  0  0  0  0
  191.6430  169.9990  140.3490 O   0  0  0  0  0  0  0  0  0  0  0  0
  187.0230  176.3690  139.8610 C   0  0  0  0  0  0  0  0  0  0  0  0
  187.7970  175.2120  139.7420 C   0  0  0  0  0  3  0  0  0  0  0  0
  186.6920  176.4240  137.5110 C   0  0  0  0  0  3  0  0  0  0  0  0
  186.4960  176.9500  138.7480 N   0  0  0  0  0  0  0  0  0  0  0  0
  187.4540  175.2650  137.3570 C   0  0  0  0  0  3  0  0  0  0  0  0
  188.0080  174.6400  138.4800 C   0  0  0  0  0  0  0  0  0  0  0  0
  185.6000  180.1660  143.8910 Cl  0  0  0  0  0  0  0  0  0  0  0  0
  185.3980  177.3980  141.3840 C   0  0  0  0  0  3  0  0  0  0  0  0
  186.8290  176.9840  141.2090 C   0  0  1  0  0  3  0  0  0  0  0  0
  187.0780  177.8770  143.9410 C   0  0  1  0  0  3  0  0  0  0  0  0
  187.3240  176.4420  143.5610 C   0  0  0  0  0  3  0  0  0  0  0  0
  185.6370  178.3910  143.7430 C   0  0  2  0  0  3  0  0  0  0  0  0
  184.9010  177.9920  142.4820 C   0  0  0  0  0  3  0  0  0  0  0  0
  187.2270  176.0310  142.2950 C   0  0  0  0  0  3  0  0  0  0  0  0
  187.6230  178.1900  145.2700 N   0  0  0  0  0  2  0  0  0  0  0  0
  187.0270  177.0980  146.5310 P   0  0  2  0  0  0  0  0  0  0  0  0
  185.7670  176.4160  146.0380 O   0  0  0  0  0  0  0  0  0  0  0  0
  186.6580  178.0180  147.9120 O   0  0  0  0  0  0  0  0  0  0  0  0
  185.6460  178.8990  147.5260 C   0  0  0  0  0  1  0  0  0  0  0  0
  188.1890  175.9020  146.8890 O   0  0  0  0  0  0  0  0  0  0  0  0
  189.7260  176.6390  146.8850 P   0  0  0  0  0  0  0  0  0  0  0  0
  190.2540  176.9870  145.3140 O   0  0  0  0  0  0  0  0  0  0  0  0
  189.6860  177.9140  147.6970 O   0  0  0  0  0  1  0  0  0  0  0  0
  190.8300  175.5770  147.6010 O   0  0  0  0  0  1  0  0  0  0  0  0
  189.6180  173.3100  143.2730 C   0  0  0  0  0  2  0  0  0  0  0  0
  190.6380  172.7470  144.2510 C   0  0  0  0  0  2  0  0  0  0  0  0
  192.1440  174.7640  144.3300 N   0  0  0  0  0  2  0  0  0  0  0  0
  191.9640  173.3810  144.0190 C   0  0  0  0  0  0  0  0  0  0  0  0
  192.9200  172.6930  143.5680 O   0  0  0  0  0  0  0  0  0  0  0  0
  193.4270  175.4410  144.1980 C   0  0  1  0  0  3  0  0  0  0  0  0
  192.4620  176.7840  142.8240 O   0  0  0  0  0  1  0  0  0  0  0  0
  193.2270  176.7910  143.8960 O   0  0  0  0  0  0  0  0  0  0  0  0
  194.2210  175.2920  145.4960 C   0  0  2  0  0  3  0  0  0  0  0  0
  194.1840  176.4900  146.2180 O   0  0  0  0  0  1  0  0  0  0  0  0
  196.0490  173.5070  145.7630 C   0  0  2  0  0  3  0  0  0  0  0  0
  195.6720  174.8860  145.2170 C   0  0  1  0  0  3  0  0  0  0  0  0
  197.0010  173.0000  144.7490 C   0  0  0  0  0  0  0  0  0  0  0  0
  195.9870  174.8630  143.7200 C   0  0  0  0  0  2  0  0  0  0  0  0
  194.9540  172.6580  145.8070 F   0  0  0  0  0  0  0  0  0  0  0  0
  197.6670  171.9900  144.9090 O   0  0  0  0  0  0  0  0  0  0  0  0
  197.0810  173.8270  143.5220 C   0  0  0  0  0  2  0  0  0  0  0  0
  1  8  1  0  0  0  0
  2 12  2  0  0  0  0
  3 13  1  0  0  0  0
  4 20  1  0  0  0  0
  4 11  1  0  0  0  0
  5  9  1  0  0  0  0
  5 10  1  0  0  0  0
  6 11  2  0  0  0  0
  6  1  1  0  0  0  0
  7  3  1  0  0  0  0
  7  5  2  0  0  0  0
  8 12  1  0  0  0  0
  9  4  2  0  0  0  0
 10  6  1  0  0  0  0
 11  2  1  0  0  0  0
 12 39  1  0  0  0  0
 13 10  2  0  0  0  0
 14  1  2  0  0  0  0
 16 15  1  0  0  0  0
 17 18  1  0  0  0  0
 18 15  2  0  0  0  0
 19 17  2  0  0  0  0
 19 20  1  0  0  0  0
 20 16  2  0  0  0  0
 22 27  2  0  0  0  0
 23 15  1  6  0  0  0
 23 22  1  0  0  0  0
 23 28  1  0  0  0  0
 24 29  1  1  0  0  0
 25 24  1  0  0  0  0
 26 21  1  6  0  0  0
 26 24  1  0  0  0  0
 27 26  1  0  0  0  0
 28 25  2  0  0  0  0
 29 30  1  0  0  0  0
 30 31  2  6  0  0  0
 30 34  1  0  0  0  0
 30 32  1  0  0  0  0
 33 32  1  0  0  0  0
 35 34  1  0  0  0  0
 35 38  1  0  0  0  0
 35 37  1  0  0  0  0
 36 35  2  0  0  0  0
 39 40  1  0  0  0  0
 42 40  1  0  0  0  0
 42 41  1  0  0  0  0
 43 42  2  0  0  0  0
 44 46  1  1  0  0  0
 44 41  1  0  0  0  0
 44 47  1  0  0  0  0
 45 46  1  0  0  0  0
 47 48  1  6  0  0  0
 49 53  1  6  0  0  0
 50 47  1  6  0  0  0
 50 49  1  0  0  0  0
 51 54  2  0  0  0  0
 51 49  1  0  0  0  0
 52 50  1  0  0  0  0
 55 52  1  0  0  0  0
 55 51  1  0  0  0  0
M  END
>  <MODEL>
6

>  <REMARK>
 VINA RESULT:      -6.8      4.531      8.232
  Name = 
  14 active torsions:
  status: ('A' for Active; 'I' for Inactive)
    1  A    between atoms: C_2  and  C_28
    2  A    between atoms: C_4  and  C_27
    3  A    between atoms: C_4  and  C_44
    4  A    between atoms: C_6  and  C_20
    5  A    between atoms: C_6  and  C_31
    6  A    between atoms: O_7  and  P_17
    7  A    between atoms: N_10  and  P_17
    8  A    between atoms: N_10  and  C_29
    9  A    between atoms: O_13  and  P_17
   10  A    between atoms: O_13  and  P_18
   11  A    between atoms: C_14  and  C_49
   12  A    between atoms: C_20  and  N_25
   13  A    between atoms: C_20  and  O_53
   14  A    between atoms: C_27  and  C_46
                            x       y       z     vdW  Elec       q    Type
                         _______ _______ _______ _____ _____    ______ ____

>  <TORSDO>
F 14

$$$$
=
 OpenBabel11042417553D

 55 60  0  0  1  0  0  0  0  0999 V2000
  192.4780  169.2760  139.9690 C   0  0  0  0  0  0  0  0  0  0  0  0
  191.0660  171.5510  140.9280 C   0  0  0  0  0  3  0  0  0  0  0  0
  191.9780  169.0020  135.3380 S   0  0  0  0  0  0  0  0  0  0  0  0
  190.1960  171.9980  138.5970 C   0  0  0  0  0  0  0  0  0  0  0  0
  190.9430  170.6770  136.7730 C   0  0  0  0  0  0  0  0  0  0  0  0
  191.7020  170.1010  139.0060 C   0  0  0  0  0  0  0  0  0  0  0  0
  190.9840  170.3570  135.4240 C   0  0  0  0  0  3  0  0  0  0  0  0
  192.2640  169.4350  141.4450 C   0  0  0  0  0  2  0  0  0  0  0  0
  190.2250  171.7140  137.2630 N   0  0  0  0  0  0  0  0  0  0  0  0
  191.6860  169.8460  137.6230 C   0  0  0  0  0  0  0  0  0  0  0  0
  190.9610  171.2010  139.4970 C   0  0  0  0  0  0  0  0  0  0  0  0
  191.6850  170.7710  141.8210 C   0  0  0  0  0  0  0  0  0  0  0  0
  192.3540  168.8140  136.9690 C   0  0  0  0  0  3  0  0  0  0  0  0
  193.2970  168.4070  139.5710 O   0  0  0  0  0  0  0  0  0  0  0  0
  188.6610  174.6770  140.7740 C   0  0  0  0  0  0  0  0  0  0  0  0
  189.4170  173.5750  140.3650 C   0  0  0  0  0  3  0  0  0  0  0  0
  187.7700  174.9130  138.5860 C   0  0  0  0  0  3  0  0  0  0  0  0
  187.8640  175.3220  139.8790 N   0  0  0  0  0  0  0  0  0  0  0  0
  188.5060  173.8120  138.1460 C   0  0  0  0  0  3  0  0  0  0  0  0
  189.3330  173.1230  139.0410 C   0  0  0  0  0  0  0  0  0  0  0  0
  189.0470  174.6130  146.4780 Cl  0  0  0  0  0  0  0  0  0  0  0  0
  189.9570  174.5170  142.8510 C   0  0  0  0  0  3  0  0  0  0  0  0
  188.7810  175.1640  142.1820 C   0  0  1  0  0  3  0  0  0  0  0  0
  188.5700  176.6000  144.6740 C   0  0  1  0  0  3  0  0  0  0  0  0
  188.8410  177.3160  143.3780 C   0  0  0  0  0  3  0  0  0  0  0  0
  189.6680  175.6280  145.1510 C   0  0  2  0  0  3  0  0  0  0  0  0
  190.3290  174.7340  144.1230 C   0  0  0  0  0  3  0  0  0  0  0  0
  188.9210  176.6560  142.2220 C   0  0  0  0  0  3  0  0  0  0  0  0
  188.1260  177.5260  145.7260 N   0  0  0  0  0  2  0  0  0  0  0  0
  186.3850  177.8520  145.6640 P   0  0  2  0  0  0  0  0  0  0  0  0
  186.1700  179.3380  145.4560 O   0  0  0  0  0  0  0  0  0  0  0  0
  185.6960  177.3920  147.1480 O   0  0  0  0  0  0  0  0  0  0  0  0
  184.4520  178.0250  147.2050 C   0  0  0  0  0  1  0  0  0  0  0  0
  185.6610  177.0100  144.3700 O   0  0  0  0  0  0  0  0  0  0  0  0
  185.1720  178.1510  143.2030 P   0  0  0  0  0  0  0  0  0  0  0  0
  186.2170  179.4840  143.1470 O   0  0  0  0  0  1  0  0  0  0  0  0
  185.1160  177.5000  141.8390 O   0  0  0  0  0  0  0  0  0  0  0  0
  183.6230  178.6980  143.6050 O   0  0  0  0  0  1  0  0  0  0  0  0
  191.7850  171.2090  143.2430 C   0  0  0  0  0  2  0  0  0  0  0  0
  193.0850  170.7340  143.8740 C   0  0  0  0  0  2  0  0  0  0  0  0
  195.1430  171.9520  144.6650 N   0  0  0  0  0  2  0  0  0  0  0  0
  193.7180  171.8520  144.6250 C   0  0  0  0  0  0  0  0  0  0  0  0
  192.9970  172.7090  145.2050 O   0  0  0  0  0  0  0  0  0  0  0  0
  195.8390  173.0530  145.3180 C   0  0  1  0  0  3  0  0  0  0  0  0
  196.7730  171.3520  146.2450 O   0  0  0  0  0  1  0  0  0  0  0  0
  197.0290  172.5940  145.8910 O   0  0  0  0  0  0  0  0  0  0  0  0
  196.1200  174.1570  144.3000 C   0  0  2  0  0  3  0  0  0  0  0  0
  197.5020  174.3140  144.1370 O   0  0  0  0  0  1  0  0  0  0  0  0
  194.4080  175.9960  143.7650 C   0  0  2  0  0  3  0  0  0  0  0  0
  195.4830  175.4840  144.7270 C   0  0  1  0  0  3  0  0  0  0  0  0
  193.4370  176.6470  144.6740 C   0  0  0  0  0  0  0  0  0  0  0  0
  194.8270  175.3900  146.1060 C   0  0  0  0  0  2  0  0  0  0  0  0
  193.7720  174.9540  143.1090 F   0  0  0  0  0  0  0  0  0  0  0  0
  192.5110  177.3350  144.2750 O   0  0  0  0  0  0  0  0  0  0  0  0
  193.6880  176.3970  146.1130 C   0  0  0  0  0  2  0  0  0  0  0  0
  1  8  1  0  0  0  0
  2 12  2  0  0  0  0
  3  7  1  0  0  0  0
  3 13  1  0  0  0  0
  4 20  1  0  0  0  0
  4 11  1  0  0  0  0
  5  9  1  0  0  0  0
  5 10  1  0  0  0  0
  6 11  2  0  0  0  0
  6  1  1  0  0  0  0
  7  5  2  0  0  0  0
  8 12  1  0  0  0  0
  9  4  2  0  0  0  0
 10  6  1  0  0  0  0
 11  2  1  0  0  0  0
 12 39  1  0  0  0  0
 13 10  2  0  0  0  0
 14  1  2  0  0  0  0
 16 15  1  0  0  0  0
 17 18  1  0  0  0  0
 18 15  2  0  0  0  0
 19 17  2  0  0  0  0
 19 20  1  0  0  0  0
 20 16  2  0  0  0  0
 22 27  2  0  0  0  0
 23 15  1  6  0  0  0
 23 28  1  0  0  0  0
 23 22  1  0  0  0  0
 24 26  1  0  0  0  0
 24 29  1  1  0  0  0
 25 24  1  0  0  0  0
 26 21  1  1  0  0  0
 27 26  1  0  0  0  0
 28 25  2  0  0  0  0
 30 31  2  6  0  0  0
 30 29  1  0  0  0  0
 30 32  1  0  0  0  0
 32 33  1  0  0  0  0
 34 30  1  0  0  0  0
 35 38  1  0  0  0  0
 35 34  1  0  0  0  0
 36 35  1  0  0  0  0
 37 35  2  0  0  0  0
 39 40  1  0  0  0  0
 40 42  1  0  0  0  0
 42 41  1  0  0  0  0
 42 43  2  0  0  0  0
 44 41  1  6  0  0  0
 44 46  1  0  0  0  0
 46 45  1  0  0  0  0
 47 48  1  1  0  0  0
 47 44  1  0  0  0  0
 49 53  1  1  0  0  0
 49 51  1  0  0  0  0
 49 50  1  0  0  0  0
 50 47  1  6  0  0  0
 50 52  1  0  0  0  0
 51 55  1  0  0  0  0
 52 55  1  0  0  0  0
 54 51  2  0  0  0  0
M  END
>  <MODEL>
7

>  <REMARK>
 VINA RESULT:      -6.8      4.694      8.590
  Name = 
  14 active torsions:
  status: ('A' for Active; 'I' for Inactive)
    1  A    between atoms: C_2  and  C_28
    2  A    between atoms: C_4  and  C_27
    3  A    between atoms: C_4  and  C_44
    4  A    between atoms: C_6  and  C_20
    5  A    between atoms: C_6  and  C_31
    6  A    between atoms: O_7  and  P_17
    7  A    between atoms: N_10  and  P_17
    8  A    between atoms: N_10  and  C_29
    9  A    between atoms: O_13  and  P_17
   10  A    between atoms: O_13  and  P_18
   11  A    between atoms: C_14  and  C_49
   12  A    between atoms: C_20  and  N_25
   13  A    between atoms: C_20  and  O_53
   14  A    between atoms: C_27  and  C_46
                            x       y       z     vdW  Elec       q    Type
                         _______ _______ _______ _____ _____    ______ ____

>  <TORSDO>
F 14

$$$$
=
 OpenBabel11042417553D

 55 60  0  0  1  0  0  0  0  0999 V2000
  186.6010  176.5500  142.4790 C   0  0  0  0  0  0  0  0  0  0  0  0
  189.1280  175.6320  143.4040 C   0  0  0  0  0  3  0  0  0  0  0  0
  184.5420  179.0300  145.8520 S   0  0  0  0  0  0  0  0  0  0  0  0
  188.6550  176.6190  145.6830 C   0  0  0  0  0  0  0  0  0  0  0  0
  186.6900  177.8980  146.0430 C   0  0  0  0  0  0  0  0  0  0  0  0
  187.0110  176.8550  143.8740 C   0  0  0  0  0  0  0  0  0  0  0  0
  185.8620  178.6810  146.8340 C   0  0  0  0  0  3  0  0  0  0  0  0
  187.3390  175.5150  141.6830 C   0  0  0  0  0  2  0  0  0  0  0  0
  187.8660  177.3930  146.4820 N   0  0  0  0  0  0  0  0  0  0  0  0
  186.2310  177.6380  144.7450 C   0  0  0  0  0  0  0  0  0  0  0  0
  188.2460  176.3530  144.3450 C   0  0  0  0  0  0  0  0  0  0  0  0
  188.7380  175.2730  142.1770 C   0  0  0  0  0  0  0  0  0  0  0  0
  184.9970  178.2120  144.4520 C   0  0  0  0  0  3  0  0  0  0  0  0
  185.6090  177.1200  141.9510 O   0  0  0  0  0  0  0  0  0  0  0  0
  192.2490  175.5140  146.0530 C   0  0  0  0  0  0  0  0  0  0  0  0
  191.0550  175.9660  145.4870 C   0  0  0  0  0  3  0  0  0  0  0  0
  191.1950  175.2910  148.1690 C   0  0  0  0  0  3  0  0  0  0  0  0
  192.2940  175.1950  147.3760 N   0  0  0  0  0  0  0  0  0  0  0  0
  189.9840  175.7320  147.6340 C   0  0  0  0  0  3  0  0  0  0  0  0
  189.9010  176.0660  146.2770 C   0  0  0  0  0  0  0  0  0  0  0  0
  196.0880  176.7870  142.0120 Cl  0  0  0  0  0  0  0  0  0  0  0  0
  194.2120  176.7450  145.2480 C   0  0  0  0  0  3  0  0  0  0  0  0
  193.4780  175.4390  145.2060 C   0  0  1  0  0  3  0  0  0  0  0  0
  195.7250  174.6030  143.6020 C   0  0  1  0  0  3  0  0  0  0  0  0
  195.4240  173.9550  144.9260 C   0  0  0  0  0  3  0  0  0  0  0  0
  196.1200  176.0930  143.6530 C   0  0  2  0  0  3  0  0  0  0  0  0
  195.3500  177.0060  144.5830 C   0  0  0  0  0  3  0  0  0  0  0  0
  194.3750  174.3270  145.6610 C   0  0  0  0  0  3  0  0  0  0  0  0
  196.6470  173.7920  142.7940 N   0  0  0  0  0  2  0  0  0  0  0  0
  195.8990  173.1720  141.3120 P   0  0  2  0  0  0  0  0  0  0  0  0
  194.4130  173.4640  141.3510 O   0  0  0  0  0  0  0  0  0  0  0  0
  196.1350  171.4900  141.2500 O   0  0  0  0  0  0  0  0  0  0  0  0
  195.5090  170.9740  142.3870 C   0  0  0  0  0  1  0  0  0  0  0  0
  196.5680  173.9310  139.9390 O   0  0  0  0  0  0  0  0  0  0  0  0
  195.5780  173.5700  138.6000 P   0  0  0  0  0  0  0  0  0  0  0  0
  195.0110  171.9750  138.6460 O   0  0  0  0  0  1  0  0  0  0  0  0
  194.4020  174.5200  138.5590 O   0  0  0  0  0  1  0  0  0  0  0  0
  196.4880  173.7780  137.1900 O   0  0  0  0  0  0  0  0  0  0  0  0
  189.6970  174.5810  141.2680 C   0  0  0  0  0  2  0  0  0  0  0  0
  189.2590  173.1520  140.9880 C   0  0  0  0  0  2  0  0  0  0  0  0
  189.1290  174.0950  138.6560 N   0  0  0  0  0  2  0  0  0  0  0  0
  189.0510  172.9650  139.5270 C   0  0  0  0  0  0  0  0  0  0  0  0
  188.8260  171.8130  139.0660 O   0  0  0  0  0  0  0  0  0  0  0  0
  189.0080  173.9860  137.2090 C   0  0  1  0  0  3  0  0  0  0  0  0
  187.3930  175.2880  137.7750 O   0  0  0  0  0  1  0  0  0  0  0  0
  188.1180  174.9520  136.7290 O   0  0  0  0  0  0  0  0  0  0  0  0
  190.3840  174.1540  136.5650 C   0  0  2  0  0  3  0  0  0  0  0  0
  190.3230  175.1230  135.5570 O   0  0  0  0  0  1  0  0  0  0  0  0
  192.0160  172.1870  136.8210 C   0  0  2  0  0  3  0  0  0  0  0  0
  190.8970  172.8270  135.9950 C   0  0  1  0  0  3  0  0  0  0  0  0
  191.7480  170.7380  136.6690 C   0  0  0  0  0  0  0  0  0  0  0  0
  189.7860  171.7820  135.8790 C   0  0  0  0  0  2  0  0  0  0  0  0
  191.9150  172.5190  138.1620 F   0  0  0  0  0  0  0  0  0  0  0  0
  192.5280  169.8760  137.0410 O   0  0  0  0  0  0  0  0  0  0  0  0
  190.4540  170.4230  136.0210 C   0  0  0  0  0  2  0  0  0  0  0  0
  1  6  1  0  0  0  0
  2 11  1  0  0  0  0
  3  7  1  0  0  0  0
  4 20  1  0  0  0  0
  4  9  2  0  0  0  0
  5  9  1  0  0  0  0
  5  7  2  0  0  0  0
  6 11  2  0  0  0  0
  6 10  1  0  0  0  0
  8 12  1  0  0  0  0
  8  1  1  0  0  0  0
 10  5  1  0  0  0  0
 11  4  1  0  0  0  0
 12  2  2  0  0  0  0
 13 10  2  0  0  0  0
 13  3  1  0  0  0  0
 14  1  2  0  0  0  0
 15 18  1  0  0  0  0
 16 15  2  0  0  0  0
 16 20  1  0  0  0  0
 18 17  2  0  0  0  0
 19 17  1  0  0  0  0
 20 19  2  0  0  0  0
 23 22  1  0  0  0  0
 23 28  1  0  0  0  0
 23 15  1  1  0  0  0
 24 29  1  1  0  0  0
 24 26  1  0  0  0  0
 24 25  1  0  0  0  0
 25 28  2  0  0  0  0
 26 21  1  6  0  0  0
 26 27  1  0  0  0  0
 27 22  2  0  0  0  0
 30 31  2  1  0  0  0
 30 29  1  0  0  0  0
 32 30  1  0  0  0  0
 32 33  1  0  0  0  0
 34 30  1  0  0  0  0
 35 36  1  0  0  0  0
 35 34  1  0  0  0  0
 37 35  1  0  0  0  0
 38 35  2  0  0  0  0
 39 12  1  0  0  0  0
 40 39  1  0  0  0  0
 41 42  1  0  0  0  0
 42 40  1  0  0  0  0
 43 42  2  0  0  0  0
 44 46  1  6  0  0  0
 44 41  1  0  0  0  0
 46 45  1  0  0  0  0
 47 48  1  6  0  0  0
 47 44  1  0  0  0  0
 49 53  1  1  0  0  0
 50 47  1  1  0  0  0
 50 49  1  0  0  0  0
 51 49  1  0  0  0  0
 51 54  2  0  0  0  0
 52 50  1  0  0  0  0
 52 55  1  0  0  0  0
 55 51  1  0  0  0  0
M  END
>  <MODEL>
8

>  <REMARK>
 VINA RESULT:      -6.7      3.185      6.299
  Name = 
  14 active torsions:
  status: ('A' for Active; 'I' for Inactive)
    1  A    between atoms: C_2  and  C_28
    2  A    between atoms: C_4  and  C_27
    3  A    between atoms: C_4  and  C_44
    4  A    between atoms: C_6  and  C_20
    5  A    between atoms: C_6  and  C_31
    6  A    between atoms: O_7  and  P_17
    7  A    between atoms: N_10  and  P_17
    8  A    between atoms: N_10  and  C_29
    9  A    between atoms: O_13  and  P_17
   10  A    between atoms: O_13  and  P_18
   11  A    between atoms: C_14  and  C_49
   12  A    between atoms: C_20  and  N_25
   13  A    between atoms: C_20  and  O_53
   14  A    between atoms: C_27  and  C_46
                            x       y       z     vdW  Elec       q    Type
                         _______ _______ _______ _____ _____    ______ ____

>  <TORSDO>
F 14

$$$$
=
 OpenBabel11042417553D

 55 60  0  0  1  0  0  0  0  0999 V2000
  186.6500  176.4250  142.8970 C   0  0  0  0  0  0  0  0  0  0  0  0
  189.3290  176.0060  143.7530 C   0  0  0  0  0  3  0  0  0  0  0  0
  184.3020  178.6650  146.2490 S   0  0  0  0  0  0  0  0  0  0  0  0
  188.7670  177.0020  146.0080 C   0  0  0  0  0  0  0  0  0  0  0  0
  186.6210  177.9350  146.3970 C   0  0  0  0  0  0  0  0  0  0  0  0
  187.0460  176.8630  144.2610 C   0  0  0  0  0  0  0  0  0  0  0  0
  185.6960  178.5980  147.1890 C   0  0  0  0  0  3  0  0  0  0  0  0
  187.5310  175.4980  142.1140 C   0  0  0  0  0  2  0  0  0  0  0  0
  187.8820  177.6640  146.8060 N   0  0  0  0  0  0  0  0  0  0  0  0
  186.1710  177.5370  145.1300 C   0  0  0  0  0  0  0  0  0  0  0  0
  188.3660  176.6060  144.6990 C   0  0  0  0  0  0  0  0  0  0  0  0
  188.9670  175.5270  142.5580 C   0  0  0  0  0  0  0  0  0  0  0  0
  184.8460  177.8740  144.8660 C   0  0  0  0  0  3  0  0  0  0  0  0
  185.5570  176.7880  142.3880 O   0  0  0  0  0  0  0  0  0  0  0  0
  192.3890  175.9520  146.2390 C   0  0  0  0  0  0  0  0  0  0  0  0
  191.1040  176.1710  145.7380 C   0  0  0  0  0  3  0  0  0  0  0  0
  191.7390  176.8060  148.3570 C   0  0  0  0  0  3  0  0  0  0  0  0
  192.6790  176.2790  147.5290 N   0  0  0  0  0  0  0  0  0  0  0  0
  190.4430  177.0310  147.8910 C   0  0  0  0  0  3  0  0  0  0  0  0
  190.1100  176.7040  146.5710 C   0  0  0  0  0  0  0  0  0  0  0  0
  194.8530  173.5970  141.6490 Cl  0  0  0  0  0  0  0  0  0  0  0  0
  193.3930  176.1070  144.0070 C   0  0  0  0  0  3  0  0  0  0  0  0
  193.4460  175.4090  145.3320 C   0  0  1  0  0  3  0  0  0  0  0  0
  195.7390  174.0930  144.1790 C   0  0  1  0  0  3  0  0  0  0  0  0
  195.8680  174.9670  145.3970 C   0  0  0  0  0  3  0  0  0  0  0  0
  195.3010  174.8030  142.8810 C   0  0  2  0  0  3  0  0  0  0  0  0
  194.2030  175.8420  142.9690 C   0  0  0  0  0  3  0  0  0  0  0  0
  194.8060  175.5610  145.9430 C   0  0  0  0  0  3  0  0  0  0  0  0
  196.9180  173.2350  143.9950 N   0  0  0  0  0  2  0  0  0  0  0  0
  196.5910  171.5310  144.3540 P   0  0  2  0  0  0  0  0  0  0  0  0
  196.9940  171.2430  145.7860 O   0  0  0  0  0  0  0  0  0  0  0  0
  197.5250  170.5700  143.3090 O   0  0  0  0  0  0  0  0  0  0  0  0
  196.8870  170.6230  142.0680 C   0  0  0  0  0  1  0  0  0  0  0  0
  194.9300  171.1870  144.1750 O   0  0  0  0  0  0  0  0  0  0  0  0
  194.5910  169.7540  145.0330 P   0  0  0  0  0  0  0  0  0  0  0  0
  195.7270  168.5410  144.7080 O   0  0  0  0  0  1  0  0  0  0  0  0
  194.5690  170.0370  146.5180 O   0  0  0  0  0  1  0  0  0  0  0  0
  193.0630  169.2000  144.5660 O   0  0  0  0  0  0  0  0  0  0  0  0
  190.0010  174.9710  141.6390 C   0  0  0  0  0  2  0  0  0  0  0  0
  190.5540  173.6550  142.1630 C   0  0  0  0  0  2  0  0  0  0  0  0
  190.1070  172.7900  139.8400 N   0  0  0  0  0  2  0  0  0  0  0  0
  190.9080  172.7660  141.0230 C   0  0  0  0  0  0  0  0  0  0  0  0
  191.9180  172.0150  141.1010 O   0  0  0  0  0  0  0  0  0  0  0  0
  190.4270  172.0050  138.6550 C   0  0  1  0  0  3  0  0  0  0  0  0
  189.7020  169.9980  138.3910 O   0  0  0  0  0  1  0  0  0  0  0  0
  189.3150  171.2500  138.2670 O   0  0  0  0  0  0  0  0  0  0  0  0
  190.8670  172.9360  137.5260 C   0  0  2  0  0  3  0  0  0  0  0  0
  190.0920  172.7010  136.3850 O   0  0  0  0  0  1  0  0  0  0  0  0
  193.2400  173.9060  137.6900 C   0  0  2  0  0  3  0  0  0  0  0  0
  192.3540  172.7560  137.2040 C   0  0  1  0  0  3  0  0  0  0  0  0
  194.4960  173.2170  138.0650 C   0  0  0  0  0  0  0  0  0  0  0  0
  192.9250  171.4760  137.8160 C   0  0  0  0  0  2  0  0  0  0  0  0
  192.7130  174.5150  138.8180 F   0  0  0  0  0  0  0  0  0  0  0  0
  195.5240  173.8140  138.3420 O   0  0  0  0  0  0  0  0  0  0  0  0
  194.4000  171.7390  138.0710 C   0  0  0  0  0  2  0  0  0  0  0  0
  1  6  1  0  0  0  0
  2 11  1  0  0  0  0
  3  7  1  0  0  0  0
  4 20  1  0  0  0  0
  4  9  2  0  0  0  0
  5  9  1  0  0  0  0
  5  7  2  0  0  0  0
  6 11  2  0  0  0  0
  6 10  1  0  0  0  0
  8 12  1  0  0  0  0
  8  1  1  0  0  0  0
 10  5  1  0  0  0  0
 11  4  1  0  0  0  0
 12  2  2  0  0  0  0
 13 10  2  0  0  0  0
 13  3  1  0  0  0  0
 14  1  2  0  0  0  0
 15 18  1  0  0  0  0
 16 15  2  0  0  0  0
 16 20  1  0  0  0  0
 18 17  2  0  0  0  0
 19 17  1  0  0  0  0
 20 19  2  0  0  0  0
 22 23  1  0  0  0  0
 23 28  1  0  0  0  0
 23 15  1  1  0  0  0
 24 29  1  6  0  0  0
 24 25  1  0  0  0  0
 25 28  2  0  0  0  0
 26 21  1  6  0  0  0
 26 27  1  0  0  0  0
 26 24  1  0  0  0  0
 27 22  2  0  0  0  0
 29 30  1  0  0  0  0
 30 31  2  1  0  0  0
 32 30  1  0  0  0  0
 33 32  1  0  0  0  0
 34 30  1  0  0  0  0
 34 35  1  0  0  0  0
 35 37  1  0  0  0  0
 36 35  1  0  0  0  0
 38 35  2  0  0  0  0
 39 40  1  0  0  0  0
 39 12  1  0  0  0  0
 41 42  1  0  0  0  0
 42 43  2  0  0  0  0
 42 40  1  0  0  0  0
 44 46  1  6  0  0  0
 44 41  1  0  0  0  0
 46 45  1  0  0  0  0
 47 48  1  6  0  0  0
 47 44  1  0  0  0  0
 49 51  1  0  0  0  0
 49 53  1  1  0  0  0
 50 47  1  1  0  0  0
 50 49  1  0  0  0  0
 50 52  1  0  0  0  0
 51 55  1  0  0  0  0
 51 54  2  0  0  0  0
 52 55  1  0  0  0  0
M  END
>  <MODEL>
9

>  <REMARK>
 VINA RESULT:      -6.7      3.233      6.738
  Name = 
  14 active torsions:
  status: ('A' for Active; 'I' for Inactive)
    1  A    between atoms: C_2  and  C_28
    2  A    between atoms: C_4  and  C_27
    3  A    between atoms: C_4  and  C_44
    4  A    between atoms: C_6  and  C_20
    5  A    between atoms: C_6  and  C_31
    6  A    between atoms: O_7  and  P_17
    7  A    between atoms: N_10  and  P_17
    8  A    between atoms: N_10  and  C_29
    9  A    between atoms: O_13  and  P_17
   10  A    between atoms: O_13  and  P_18
   11  A    between atoms: C_14  and  C_49
   12  A    between atoms: C_20  and  N_25
   13  A    between atoms: C_20  and  O_53
   14  A    between atoms: C_27  and  C_46
                            x       y       z     vdW  Elec       q    Type
                         _______ _______ _______ _____ _____    ______ ____

>  <TORSDO>
F 14

$$$$
