=
 OpenBabel11042414463D

 36 39  0  0  1  0  0  0  0  0999 V2000
  194.3090  175.3010  143.1870 C   0  0  1  0  0  3  0  0  0  0  0  0
  194.3400  173.2910  141.1030 N   0  0  0  0  0  1  0  0  0  0  0  0
  195.5180  175.0630  142.3330 C   0  0  0  0  0  0  0  0  0  0  0  0
  197.8070  175.5840  141.7270 C   0  0  0  0  0  3  0  0  0  0  0  0
  195.5050  174.0790  141.3310 C   0  0  0  0  0  0  0  0  0  0  0  0
  197.7480  174.5990  140.7400 C   0  0  0  0  0  3  0  0  0  0  0  0
  196.6860  175.8150  142.5240 C   0  0  0  0  0  3  0  0  0  0  0  0
  196.6110  173.8740  140.5660 N   0  0  0  0  0  0  0  0  0  0  0  0
  194.7220  175.7440  144.5860 C   0  0  0  0  0  2  0  0  0  0  0  0
  193.5320  176.2960  145.3440 C   0  0  2  0  0  3  0  0  0  0  0  0
  193.8930  176.4700  146.8000 C   0  0  0  0  0  2  0  0  0  0  0  0
  193.0730  175.2670  146.3650 C   0  0  1  0  0  3  0  0  0  0  0  0
  190.2400  177.4420  147.2490 C   0  0  0  0  0  3  0  0  0  0  0  0
  190.7350  174.6320  146.1080 C   0  0  0  0  0  3  0  0  0  0  0  0
  188.5330  175.7560  146.5670 C   0  0  0  0  0  3  0  0  0  0  0  0
  191.6180  175.4700  146.6580 C   0  0  0  0  0  0  0  0  0  0  0  0
  189.0370  177.1280  146.7680 C   0  0  0  0  0  3  0  0  0  0  0  0
  189.2690  174.6740  146.2840 C   0  0  0  0  0  3  0  0  0  0  0  0
  191.2150  176.4240  147.7400 C   0  0  0  0  0  2  0  0  0  0  0  0
  193.4420  176.2970  142.5680 N   0  0  0  0  0  2  0  0  0  0  0  0
  191.0710  174.8900  142.3230 S   0  0  0  0  0  0  0  0  0  0  0  0
  192.0190  176.2360  142.6630 C   0  0  0  0  0  0  0  0  0  0  0  0
  189.6140  175.6500  142.6790 C   0  0  0  0  0  0  0  0  0  0  0  0
  191.2180  177.3010  143.0470 C   0  0  0  0  0  3  0  0  0  0  0  0
  189.8560  176.9680  143.0570 C   0  0  0  0  0  3  0  0  0  0  0  0
  188.2920  175.0210  142.6100 C   0  0  0  0  0  0  0  0  0  0  0  0
  188.1480  173.9240  142.0030 O   0  0  0  0  0  0  0  0  0  0  0  0
  187.1980  175.6400  143.2120 O   0  0  0  0  0  0  0  0  0  0  0  0
  185.8340  177.8490  144.3760 N   0  0  0  0  0  2  0  0  0  0  0  0
  186.2810  176.3440  142.4640 N   0  0  0  0  0  2  0  0  0  0  0  0
  184.7240  178.0580  142.3260 O   0  0  0  0  0  0  0  0  0  0  0  0
  185.5720  177.4440  143.0270 C   0  0  0  0  0  0  0  0  0  0  0  0
  185.5130  180.1520  144.3880 O   0  0  0  0  0  1  0  0  0  0  0  0
  183.7950  178.8010  144.9750 F   0  0  0  0  0  0  0  0  0  0  0  0
  185.1680  178.9670  145.0360 C   0  0  1  0  0  0  0  0  0  0  0  0
  185.6050  179.0530  146.4860 C   0  0  0  0  0  1  0  0  0  0  0  0
  1  9  1  1  0  0  0
  2  5  1  0  0  0  0
  3  7  1  0  0  0  0
  3  1  1  0  0  0  0
  4  7  2  0  0  0  0
  5  3  2  0  0  0  0
  6  4  1  0  0  0  0
  8  6  2  0  0  0  0
  8  5  1  0  0  0  0
 10  9  1  6  0  0  0
 10 12  1  0  0  0  0
 10 11  1  0  0  0  0
 12 16  1  1  0  0  0
 12 11  1  0  0  0  0
 13 19  1  0  0  0  0
 14 18  1  0  0  0  0
 14 16  2  0  0  0  0
 15 17  1  0  0  0  0
 16 19  1  0  0  0  0
 17 13  2  0  0  0  0
 18 15  2  0  0  0  0
 20 22  1  0  0  0  0
 20  1  1  0  0  0  0
 21 22  1  0  0  0  0
 21 23  1  0  0  0  0
 22 24  2  0  0  0  0
 23 25  2  0  0  0  0
 24 25  1  0  0  0  0
 26 23  1  0  0  0  0
 26 28  1  0  0  0  0
 27 26  2  0  0  0  0
 29 35  1  0  0  0  0
 30 32  1  0  0  0  0
 30 28  1  0  0  0  0
 31 32  2  0  0  0  0
 32 29  1  0  0  0  0
 33 35  1  0  0  0  0
 34 35  1  0  0  0  0
 35 36  1  1  0  0  0
M  END
>  <MODEL>
1

>  <REMARK>
 VINA RESULT:      -7.4      0.000      0.000
  Name = 
  10 active torsions:
  status: ('A' for Active; 'I' for Inactive)
    1  A    between atoms: C_2  and  O_13
    2  A    between atoms: C_2  and  C_19
    3  A    between atoms: C_4  and  C_31
    4  A    between atoms: C_7  and  C_8
    5  A    between atoms: C_7  and  C_31
    6  A    between atoms: N_11  and  C_33
    7  A    between atoms: O_13  and  N_16
    8  A    between atoms: C_15  and  C_32
    9  A    between atoms: C_17  and  N_22
   10  A    between atoms: N_22  and  C_31
                            x       y       z     vdW  Elec       q    Type
                         _______ _______ _______ _____ _____    ______ ____

>  <TORSDO>
F 10

$$$$
=
 OpenBabel11042414463D

 36 39  0  0  1  0  0  0  0  0999 V2000
  188.9930  175.4420  141.9280 C   0  0  1  0  0  3  0  0  0  0  0  0
  191.6720  174.4130  141.5410 N   0  0  0  0  0  1  0  0  0  0  0  0
  189.2730  174.2820  141.0210 C   0  0  0  0  0  0  0  0  0  0  0  0
  188.5030  172.5780  139.4770 C   0  0  0  0  0  3  0  0  0  0  0  0
  190.5840  173.8050  140.8520 C   0  0  0  0  0  0  0  0  0  0  0  0
  189.8190  172.1360  139.3420 C   0  0  0  0  0  3  0  0  0  0  0  0
  188.2320  173.6550  140.3220 C   0  0  0  0  0  3  0  0  0  0  0  0
  190.8220  172.7520  140.0230 N   0  0  0  0  0  0  0  0  0  0  0  0
  187.9030  176.3300  141.3390 C   0  0  0  0  0  2  0  0  0  0  0  0
  186.8620  176.6640  142.3880 C   0  0  2  0  0  3  0  0  0  0  0  0
  185.8300  177.5980  141.8000 C   0  0  0  0  0  2  0  0  0  0  0  0
  186.9270  178.1520  142.6940 C   0  0  1  0  0  3  0  0  0  0  0  0
  184.1880  178.8880  145.0370 C   0  0  0  0  0  3  0  0  0  0  0  0
  187.0800  177.8510  145.1070 C   0  0  0  0  0  3  0  0  0  0  0  0
  185.5130  178.2120  147.0390 C   0  0  0  0  0  3  0  0  0  0  0  0
  186.4200  178.3980  144.0820 C   0  0  0  0  0  0  0  0  0  0  0  0
  184.2660  178.3840  146.2690 C   0  0  0  0  0  3  0  0  0  0  0  0
  186.7320  177.9850  146.5360 C   0  0  0  0  0  3  0  0  0  0  0  0
  185.3640  179.4380  144.3020 C   0  0  0  0  0  2  0  0  0  0  0  0
  188.6090  174.9670  143.2520 N   0  0  0  0  0  2  0  0  0  0  0  0
  190.6100  176.3470  144.5770 S   0  0  0  0  0  0  0  0  0  0  0  0
  189.4350  175.1570  144.4020 C   0  0  0  0  0  0  0  0  0  0  0  0
  191.0580  175.8730  146.1270 C   0  0  0  0  0  0  0  0  0  0  0  0
  189.3800  174.3660  145.5390 C   0  0  0  0  0  3  0  0  0  0  0  0
  190.2990  174.7740  146.5170 C   0  0  0  0  0  3  0  0  0  0  0  0
  192.0850  176.5230  146.9470 C   0  0  0  0  0  0  0  0  0  0  0  0
  191.8160  176.8770  148.1280 O   0  0  0  0  0  0  0  0  0  0  0  0
  193.3530  176.7500  146.4170 O   0  0  0  0  0  0  0  0  0  0  0  0
  195.0710  176.1430  144.2310 N   0  0  0  0  0  2  0  0  0  0  0  0
  194.3660  175.8320  146.5820 N   0  0  0  0  0  2  0  0  0  0  0  0
  196.1360  174.6410  145.6740 O   0  0  0  0  0  0  0  0  0  0  0  0
  195.2310  175.4980  145.5000 C   0  0  0  0  0  0  0  0  0  0  0  0
  197.1320  176.5290  143.2280 O   0  0  0  0  0  1  0  0  0  0  0  0
  196.1370  174.5160  142.9530 F   0  0  0  0  0  0  0  0  0  0  0  0
  195.9110  175.8760  143.0690 C   0  0  1  0  0  0  0  0  0  0  0  0
  195.2380  176.3880  141.8090 C   0  0  0  0  0  1  0  0  0  0  0  0
  1  9  1  6  0  0  0
  1 20  1  0  0  0  0
  3  1  1  0  0  0  0
  4  7  1  0  0  0  0
  5  3  1  0  0  0  0
  5  2  1  0  0  0  0
  6  4  2  0  0  0  0
  6  8  1  0  0  0  0
  7  3  2  0  0  0  0
  8  5  2  0  0  0  0
 10  9  1  6  0  0  0
 10 12  1  0  0  0  0
 11 10  1  0  0  0  0
 11 12  1  0  0  0  0
 12 16  1  1  0  0  0
 13 17  2  0  0  0  0
 14 18  1  0  0  0  0
 16 19  1  0  0  0  0
 16 14  2  0  0  0  0
 17 15  1  0  0  0  0
 18 15  2  0  0  0  0
 19 13  1  0  0  0  0
 20 22  1  0  0  0  0
 21 23  1  0  0  0  0
 22 21  1  0  0  0  0
 22 24  2  0  0  0  0
 23 25  2  0  0  0  0
 23 26  1  0  0  0  0
 24 25  1  0  0  0  0
 26 27  2  0  0  0  0
 28 30  1  0  0  0  0
 28 26  1  0  0  0  0
 29 32  1  0  0  0  0
 32 31  2  0  0  0  0
 32 30  1  0  0  0  0
 34 35  1  0  0  0  0
 35 36  1  6  0  0  0
 35 33  1  0  0  0  0
 35 29  1  0  0  0  0
M  END
>  <MODEL>
2

>  <REMARK>
 VINA RESULT:      -7.3      4.050      7.667
  Name = 
  10 active torsions:
  status: ('A' for Active; 'I' for Inactive)
    1  A    between atoms: C_2  and  O_13
    2  A    between atoms: C_2  and  C_19
    3  A    between atoms: C_4  and  C_31
    4  A    between atoms: C_7  and  C_8
    5  A    between atoms: C_7  and  C_31
    6  A    between atoms: N_11  and  C_33
    7  A    between atoms: O_13  and  N_16
    8  A    between atoms: C_15  and  C_32
    9  A    between atoms: C_17  and  N_22
   10  A    between atoms: N_22  and  C_31
                            x       y       z     vdW  Elec       q    Type
                         _______ _______ _______ _____ _____    ______ ____

>  <TORSDO>
F 10

$$$$
=
 OpenBabel11042414463D

 36 39  0  0  1  0  0  0  0  0999 V2000
  188.9990  173.4750  140.7550 C   0  0  1  0  0  3  0  0  0  0  0  0
  187.9780  174.4020  138.2090 N   0  0  0  0  0  1  0  0  0  0  0  0
  189.7890  173.3400  139.4880 C   0  0  0  0  0  0  0  0  0  0  0  0
  191.7860  172.6260  138.3140 C   0  0  0  0  0  3  0  0  0  0  0  0
  189.2670  173.7970  138.2660 C   0  0  0  0  0  0  0  0  0  0  0  0
  191.2300  173.0970  137.1240 C   0  0  0  0  0  3  0  0  0  0  0  0
  191.0610  172.7500  139.4990 C   0  0  0  0  0  3  0  0  0  0  0  0
  189.9950  173.6660  137.1250 N   0  0  0  0  0  0  0  0  0  0  0  0
  189.4260  172.4160  141.7650 C   0  0  0  0  0  2  0  0  0  0  0  0
  190.3870  173.0030  142.7790 C   0  0  2  0  0  3  0  0  0  0  0  0
  190.9590  171.8970  143.6350 C   0  0  0  0  0  2  0  0  0  0  0  0
  189.8380  172.7680  144.1770 C   0  0  1  0  0  3  0  0  0  0  0  0
  189.5150  174.8770  147.1740 C   0  0  0  0  0  3  0  0  0  0  0  0
  191.6930  173.9670  145.2070 C   0  0  0  0  0  3  0  0  0  0  0  0
  191.9340  175.4800  147.2000 C   0  0  0  0  0  3  0  0  0  0  0  0
  190.3690  173.8180  145.1040 C   0  0  0  0  0  0  0  0  0  0  0  0
  190.6270  175.2090  147.8290 C   0  0  0  0  0  3  0  0  0  0  0  0
  192.3940  174.9450  146.0620 C   0  0  0  0  0  3  0  0  0  0  0  0
  189.4260  174.8260  145.6850 C   0  0  0  0  0  2  0  0  0  0  0  0
  189.1630  174.8120  141.3120 N   0  0  0  0  0  2  0  0  0  0  0  0
  187.5650  177.0610  141.0880 S   0  0  0  0  0  0  0  0  0  0  0  0
  188.0550  175.5970  141.7540 C   0  0  0  0  0  0  0  0  0  0  0  0
  186.2720  177.2690  142.1430 C   0  0  0  0  0  0  0  0  0  0  0  0
  187.2310  175.2530  142.8130 C   0  0  0  0  0  3  0  0  0  0  0  0
  186.2200  176.2000  143.0330 C   0  0  0  0  0  3  0  0  0  0  0  0
  185.3380  178.3990  142.1250 C   0  0  0  0  0  0  0  0  0  0  0  0
  184.5050  178.5110  141.1840 O   0  0  0  0  0  0  0  0  0  0  0  0
  185.3770  179.3450  143.1470 O   0  0  0  0  0  0  0  0  0  0  0  0
  186.2120  178.4820  145.7260 N   0  0  0  0  0  2  0  0  0  0  0  0
  184.4680  179.3110  144.1800 N   0  0  0  0  0  2  0  0  0  0  0  0
  183.9990  178.8290  146.4000 O   0  0  0  0  0  0  0  0  0  0  0  0
  184.8550  178.8690  145.4780 C   0  0  0  0  0  0  0  0  0  0  0  0
  188.0970  177.9430  146.9760 O   0  0  0  0  0  1  0  0  0  0  0  0
  186.3380  178.9200  148.0090 F   0  0  0  0  0  0  0  0  0  0  0  0
  186.7060  178.0250  147.0210 C   0  0  1  0  0  0  0  0  0  0  0  0
  186.1420  176.6530  147.3410 C   0  0  0  0  0  1  0  0  0  0  0  0
  1 20  1  0  0  0  0
  1  9  1  1  0  0  0
  2  5  1  0  0  0  0
  3  7  1  0  0  0  0
  3  1  1  0  0  0  0
  4  7  2  0  0  0  0
  5  3  2  0  0  0  0
  6  8  2  0  0  0  0
  6  4  1  0  0  0  0
  8  5  1  0  0  0  0
 10  9  1  6  0  0  0
 10 11  1  0  0  0  0
 10 12  1  0  0  0  0
 11 12  1  0  0  0  0
 12 16  1  1  0  0  0
 13 17  2  0  0  0  0
 14 18  1  0  0  0  0
 15 17  1  0  0  0  0
 16 14  2  0  0  0  0
 16 19  1  0  0  0  0
 18 15  2  0  0  0  0
 19 13  1  0  0  0  0
 20 22  1  0  0  0  0
 21 22  1  0  0  0  0
 21 23  1  0  0  0  0
 22 24  2  0  0  0  0
 23 25  2  0  0  0  0
 24 25  1  0  0  0  0
 26 23  1  0  0  0  0
 26 28  1  0  0  0  0
 27 26  2  0  0  0  0
 28 30  1  0  0  0  0
 29 35  1  0  0  0  0
 30 32  1  0  0  0  0
 32 29  1  0  0  0  0
 32 31  2  0  0  0  0
 33 35  1  0  0  0  0
 35 36  1  1  0  0  0
 35 34  1  0  0  0  0
M  END
>  <MODEL>
3

>  <REMARK>
 VINA RESULT:      -7.3      3.625      4.889
  Name = 
  10 active torsions:
  status: ('A' for Active; 'I' for Inactive)
    1  A    between atoms: C_2  and  O_13
    2  A    between atoms: C_2  and  C_19
    3  A    between atoms: C_4  and  C_31
    4  A    between atoms: C_7  and  C_8
    5  A    between atoms: C_7  and  C_31
    6  A    between atoms: N_11  and  C_33
    7  A    between atoms: O_13  and  N_16
    8  A    between atoms: C_15  and  C_32
    9  A    between atoms: C_17  and  N_22
   10  A    between atoms: N_22  and  C_31
                            x       y       z     vdW  Elec       q    Type
                         _______ _______ _______ _____ _____    ______ ____

>  <TORSDO>
F 10

$$$$
=
 OpenBabel11042414463D

 36 39  0  0  1  0  0  0  0  0999 V2000
  190.4350  176.0810  146.1490 C   0  0  1  0  0  3  0  0  0  0  0  0
  190.8220  177.9490  143.9700 N   0  0  0  0  0  1  0  0  0  0  0  0
  190.1010  175.7250  144.7310 C   0  0  0  0  0  0  0  0  0  0  0  0
  189.2700  174.1410  143.0950 C   0  0  0  0  0  3  0  0  0  0  0  0
  190.2980  176.6530  143.6950 C   0  0  0  0  0  0  0  0  0  0  0  0
  189.4850  175.0920  142.0960 C   0  0  0  0  0  3  0  0  0  0  0  0
  189.5820  174.4620  144.4170 C   0  0  0  0  0  3  0  0  0  0  0  0
  189.9880  176.3150  142.4140 N   0  0  0  0  0  0  0  0  0  0  0  0
  189.1770  176.0810  147.0100 C   0  0  0  0  0  2  0  0  0  0  0  0
  188.1800  177.1010  146.4980 C   0  0  2  0  0  3  0  0  0  0  0  0
  187.0900  177.3030  147.5240 C   0  0  0  0  0  2  0  0  0  0  0  0
  186.8310  176.4250  146.3120 C   0  0  1  0  0  3  0  0  0  0  0  0
  185.1360  179.4570  145.1010 C   0  0  0  0  0  3  0  0  0  0  0  0
  186.1760  176.7860  143.9930 C   0  0  0  0  0  3  0  0  0  0  0  0
  185.0310  178.6440  142.7450 C   0  0  0  0  0  3  0  0  0  0  0  0
  186.0450  177.1590  145.2690 C   0  0  0  0  0  0  0  0  0  0  0  0
  185.1240  179.6840  143.7870 C   0  0  0  0  0  3  0  0  0  0  0  0
  185.4840  177.3870  142.8360 C   0  0  0  0  0  3  0  0  0  0  0  0
  184.9610  178.1000  145.6970 C   0  0  0  0  0  2  0  0  0  0  0  0
  191.4240  175.1530  146.6830 N   0  0  0  0  0  2  0  0  0  0  0  0
  193.7850  174.0040  145.8060 S   0  0  0  0  0  0  0  0  0  0  0  0
  192.8150  175.2540  146.3720 C   0  0  0  0  0  0  0  0  0  0  0  0
  195.1790  174.9400  145.7120 C   0  0  0  0  0  0  0  0  0  0  0  0
  193.5600  176.4150  146.5080 C   0  0  0  0  0  3  0  0  0  0  0  0
  194.8990  176.2370  146.1320 C   0  0  0  0  0  3  0  0  0  0  0  0
  196.4870  174.4670  145.2490 C   0  0  0  0  0  0  0  0  0  0  0  0
  197.1940  173.7400  145.9990 O   0  0  0  0  0  0  0  0  0  0  0  0
  196.9450  174.8250  143.9830 O   0  0  0  0  0  0  0  0  0  0  0  0
  197.0910  174.9840  141.1460 N   0  0  0  0  0  2  0  0  0  0  0  0
  196.4480  175.9350  143.3370 N   0  0  0  0  0  2  0  0  0  0  0  0
  196.0780  177.0810  141.3550 O   0  0  0  0  0  0  0  0  0  0  0  0
  196.5220  176.0470  141.9180 C   0  0  0  0  0  0  0  0  0  0  0  0
  195.9250  175.0110  139.1350 O   0  0  0  0  0  1  0  0  0  0  0  0
  197.8820  176.1350  139.2830 F   0  0  0  0  0  0  0  0  0  0  0  0
  197.2030  175.0010  139.6910 C   0  0  1  0  0  0  0  0  0  0  0  0
  197.9410  173.7660  139.2090 C   0  0  0  0  0  1  0  0  0  0  0  0
  1 20  1  0  0  0  0
  1  9  1  1  0  0  0
  3  1  1  0  0  0  0
  4  7  2  0  0  0  0
  5  2  1  0  0  0  0
  5  3  2  0  0  0  0
  6  8  2  0  0  0  0
  6  4  1  0  0  0  0
  7  3  1  0  0  0  0
  8  5  1  0  0  0  0
 10  9  1  1  0  0  0
 10 11  1  0  0  0  0
 12 16  1  6  0  0  0
 12 10  1  0  0  0  0
 12 11  1  0  0  0  0
 13 19  1  0  0  0  0
 14 16  2  0  0  0  0
 15 18  2  0  0  0  0
 15 17  1  0  0  0  0
 16 19  1  0  0  0  0
 17 13  2  0  0  0  0
 18 14  1  0  0  0  0
 21 22  1  0  0  0  0
 22 24  2  0  0  0  0
 22 20  1  0  0  0  0
 23 21  1  0  0  0  0
 23 25  2  0  0  0  0
 25 24  1  0  0  0  0
 26 23  1  0  0  0  0
 26 27  2  0  0  0  0
 28 26  1  0  0  0  0
 29 32  1  0  0  0  0
 30 28  1  0  0  0  0
 31 32  2  0  0  0  0
 32 30  1  0  0  0  0
 33 35  1  0  0  0  0
 34 35  1  0  0  0  0
 35 36  1  6  0  0  0
 35 29  1  0  0  0  0
M  END
>  <MODEL>
4

>  <REMARK>
 VINA RESULT:      -7.3      4.655      8.410
  Name = 
  10 active torsions:
  status: ('A' for Active; 'I' for Inactive)
    1  A    between atoms: C_2  and  O_13
    2  A    between atoms: C_2  and  C_19
    3  A    between atoms: C_4  and  C_31
    4  A    between atoms: C_7  and  C_8
    5  A    between atoms: C_7  and  C_31
    6  A    between atoms: N_11  and  C_33
    7  A    between atoms: O_13  and  N_16
    8  A    between atoms: C_15  and  C_32
    9  A    between atoms: C_17  and  N_22
   10  A    between atoms: N_22  and  C_31
                            x       y       z     vdW  Elec       q    Type
                         _______ _______ _______ _____ _____    ______ ____

>  <TORSDO>
F 10

$$$$
=
 OpenBabel11042414463D

 36 39  0  0  1  0  0  0  0  0999 V2000
  190.5060  176.5580  145.8100 C   0  0  1  0  0  3  0  0  0  0  0  0
  190.4790  177.9710  143.2830 N   0  0  0  0  0  1  0  0  0  0  0  0
  190.0590  175.9000  144.5390 C   0  0  0  0  0  0  0  0  0  0  0  0
  189.2150  173.9630  143.3500 C   0  0  0  0  0  3  0  0  0  0  0  0
  190.0550  176.6110  143.3270 C   0  0  0  0  0  0  0  0  0  0  0  0
  189.2320  174.7060  142.1690 C   0  0  0  0  0  3  0  0  0  0  0  0
  189.6320  174.5650  144.5380 C   0  0  0  0  0  3  0  0  0  0  0  0
  189.6450  176.0010  142.1830 N   0  0  0  0  0  0  0  0  0  0  0  0
  189.3870  176.5320  146.8450 C   0  0  0  0  0  2  0  0  0  0  0  0
  188.2150  177.3770  146.3860 C   0  0  2  0  0  3  0  0  0  0  0  0
  187.2020  177.4880  147.5010 C   0  0  0  0  0  2  0  0  0  0  0  0
  186.9640  176.5150  146.3590 C   0  0  1  0  0  3  0  0  0  0  0  0
  184.5880  179.1140  145.2920 C   0  0  0  0  0  3  0  0  0  0  0  0
  186.1550  176.7670  144.0740 C   0  0  0  0  0  3  0  0  0  0  0  0
  184.5770  178.3470  142.9190 C   0  0  0  0  0  3  0  0  0  0  0  0
  185.9940  177.0750  145.3650 C   0  0  0  0  0  0  0  0  0  0  0  0
  184.4750  179.3600  143.9870 C   0  0  0  0  0  3  0  0  0  0  0  0
  185.3020  177.2220  142.9580 C   0  0  0  0  0  3  0  0  0  0  0  0
  184.7440  177.7400  145.8550 C   0  0  0  0  0  2  0  0  0  0  0  0
  191.6990  175.8990  146.3260 N   0  0  0  0  0  2  0  0  0  0  0  0
  193.6810  175.3730  144.4670 S   0  0  0  0  0  0  0  0  0  0  0  0
  193.0010  176.1490  145.7940 C   0  0  0  0  0  0  0  0  0  0  0  0
  195.1290  176.2240  144.5340 C   0  0  0  0  0  0  0  0  0  0  0  0
  193.8920  177.0730  146.3170 C   0  0  0  0  0  3  0  0  0  0  0  0
  195.0970  177.1170  145.6010 C   0  0  0  0  0  3  0  0  0  0  0  0
  196.2520  176.0600  143.6050 C   0  0  0  0  0  0  0  0  0  0  0  0
  196.4380  176.9060  142.6880 O   0  0  0  0  0  0  0  0  0  0  0  0
  197.1050  174.9670  143.7370 O   0  0  0  0  0  0  0  0  0  0  0  0
  196.0060  172.4020  144.2920 N   0  0  0  0  0  2  0  0  0  0  0  0
  197.3260  174.3830  144.9650 N   0  0  0  0  0  2  0  0  0  0  0  0
  196.9750  172.6050  146.4120 O   0  0  0  0  0  0  0  0  0  0  0  0
  196.7740  173.1060  145.2740 C   0  0  0  0  0  0  0  0  0  0  0  0
  195.2000  170.4700  143.2800 O   0  0  0  0  0  1  0  0  0  0  0  0
  196.2600  170.3040  145.2710 F   0  0  0  0  0  0  0  0  0  0  0  0
  195.4100  171.0880  144.5110 C   0  0  1  0  0  0  0  0  0  0  0  0
  194.0780  171.2310  145.2250 C   0  0  0  0  0  1  0  0  0  0  0  0
  1 20  1  0  0  0  0
  1  9  1  1  0  0  0
  2  5  1  0  0  0  0
  3  1  1  0  0  0  0
  4  7  2  0  0  0  0
  5  3  2  0  0  0  0
  6  8  2  0  0  0  0
  6  4  1  0  0  0  0
  7  3  1  0  0  0  0
  8  5  1  0  0  0  0
 10  9  1  1  0  0  0
 10 11  1  0  0  0  0
 12 16  1  6  0  0  0
 12 10  1  0  0  0  0
 12 11  1  0  0  0  0
 13 19  1  0  0  0  0
 14 16  2  0  0  0  0
 15 18  2  0  0  0  0
 15 17  1  0  0  0  0
 16 19  1  0  0  0  0
 17 13  2  0  0  0  0
 18 14  1  0  0  0  0
 21 23  1  0  0  0  0
 21 22  1  0  0  0  0
 22 24  2  0  0  0  0
 22 20  1  0  0  0  0
 23 25  2  0  0  0  0
 25 24  1  0  0  0  0
 26 28  1  0  0  0  0
 26 23  1  0  0  0  0
 27 26  2  0  0  0  0
 28 30  1  0  0  0  0
 29 35  1  0  0  0  0
 29 32  1  0  0  0  0
 30 32  1  0  0  0  0
 32 31  2  0  0  0  0
 33 35  1  0  0  0  0
 35 36  1  1  0  0  0
 35 34  1  0  0  0  0
M  END
>  <MODEL>
5

>  <REMARK>
 VINA RESULT:      -7.2      4.733      8.343
  Name = 
  10 active torsions:
  status: ('A' for Active; 'I' for Inactive)
    1  A    between atoms: C_2  and  O_13
    2  A    between atoms: C_2  and  C_19
    3  A    between atoms: C_4  and  C_31
    4  A    between atoms: C_7  and  C_8
    5  A    between atoms: C_7  and  C_31
    6  A    between atoms: N_11  and  C_33
    7  A    between atoms: O_13  and  N_16
    8  A    between atoms: C_15  and  C_32
    9  A    between atoms: C_17  and  N_22
   10  A    between atoms: N_22  and  C_31
                            x       y       z     vdW  Elec       q    Type
                         _______ _______ _______ _____ _____    ______ ____

>  <TORSDO>
F 10

$$$$
=
 OpenBabel11042414463D

 36 39  0  0  1  0  0  0  0  0999 V2000
  190.4970  173.8470  143.0930 C   0  0  1  0  0  3  0  0  0  0  0  0
  192.0200  176.3020  142.9060 N   0  0  0  0  0  1  0  0  0  0  0  0
  190.7790  174.6980  144.2950 C   0  0  0  0  0  0  0  0  0  0  0  0
  190.5820  175.1180  146.6740 C   0  0  0  0  0  3  0  0  0  0  0  0
  191.5230  175.8830  144.1740 C   0  0  0  0  0  0  0  0  0  0  0  0
  191.3210  176.2900  146.5070 C   0  0  0  0  0  3  0  0  0  0  0  0
  190.3110  174.3210  145.5610 C   0  0  0  0  0  3  0  0  0  0  0  0
  191.7720  176.6440  145.2740 N   0  0  0  0  0  0  0  0  0  0  0  0
  191.0510  172.4400  143.2930 C   0  0  0  0  0  2  0  0  0  0  0  0
  192.5600  172.4760  143.4330 C   0  0  2  0  0  3  0  0  0  0  0  0
  193.1000  171.0660  143.4720 C   0  0  0  0  0  2  0  0  0  0  0  0
  192.9490  171.8520  144.7640 C   0  0  1  0  0  3  0  0  0  0  0  0
  196.6250  171.7490  144.8690 C   0  0  0  0  0  3  0  0  0  0  0  0
  194.3460  173.7240  145.4590 C   0  0  0  0  0  3  0  0  0  0  0  0
  196.8220  174.0980  145.6830 C   0  0  0  0  0  3  0  0  0  0  0  0
  194.2640  172.4130  145.2120 C   0  0  0  0  0  0  0  0  0  0  0  0
  197.2810  172.9070  144.9430 C   0  0  0  0  0  3  0  0  0  0  0  0
  195.5500  174.4500  145.9090 C   0  0  0  0  0  3  0  0  0  0  0  0
  195.3610  171.4760  145.6140 C   0  0  0  0  0  2  0  0  0  0  0  0
  189.0640  173.8020  142.8320 N   0  0  0  0  0  2  0  0  0  0  0  0
  187.5220  176.0910  143.0430 S   0  0  0  0  0  0  0  0  0  0  0  0
  188.3630  174.8880  142.2240 C   0  0  0  0  0  0  0  0  0  0  0  0
  187.0440  176.9020  141.6500 C   0  0  0  0  0  0  0  0  0  0  0  0
  188.2760  175.0900  140.8560 C   0  0  0  0  0  3  0  0  0  0  0  0
  187.5300  176.2320  140.5310 C   0  0  0  0  0  3  0  0  0  0  0  0
  186.2460  178.1310  141.6170 C   0  0  0  0  0  0  0  0  0  0  0  0
  185.5750  178.4170  140.5880 O   0  0  0  0  0  0  0  0  0  0  0  0
  186.2340  178.9780  142.7220 O   0  0  0  0  0  0  0  0  0  0  0  0
  185.9200  177.9140  145.3430 N   0  0  0  0  0  2  0  0  0  0  0  0
  185.0710  179.2190  143.4200 N   0  0  0  0  0  2  0  0  0  0  0  0
  183.8000  178.9050  145.3340 O   0  0  0  0  0  0  0  0  0  0  0  0
  184.8820  178.6860  144.7270 C   0  0  0  0  0  0  0  0  0  0  0  0
  185.6660  178.3600  147.6100 O   0  0  0  0  0  1  0  0  0  0  0  0
  184.7320  176.4890  146.7480 F   0  0  0  0  0  0  0  0  0  0  0  0
  185.8240  177.3350  146.6780 C   0  0  1  0  0  0  0  0  0  0  0  0
  187.0880  176.5620  147.0050 C   0  0  0  0  0  1  0  0  0  0  0  0
  1  9  1  1  0  0  0
  1  3  1  0  0  0  0
  2  5  1  0  0  0  0
  3  7  1  0  0  0  0
  5  3  2  0  0  0  0
  5  8  1  0  0  0  0
  6  4  1  0  0  0  0
  7  4  2  0  0  0  0
  8  6  2  0  0  0  0
 10  9  1  1  0  0  0
 10 11  1  0  0  0  0
 10 12  1  0  0  0  0
 11 12  1  0  0  0  0
 12 16  1  6  0  0  0
 13 17  2  0  0  0  0
 13 19  1  0  0  0  0
 14 18  1  0  0  0  0
 15 18  2  0  0  0  0
 16 14  2  0  0  0  0
 16 19  1  0  0  0  0
 17 15  1  0  0  0  0
 20  1  1  0  0  0  0
 22 20  1  0  0  0  0
 22 21  1  0  0  0  0
 23 21  1  0  0  0  0
 24 22  2  0  0  0  0
 25 24  1  0  0  0  0
 25 23  2  0  0  0  0
 26 23  1  0  0  0  0
 26 28  1  0  0  0  0
 27 26  2  0  0  0  0
 28 30  1  0  0  0  0
 29 35  1  0  0  0  0
 30 32  1  0  0  0  0
 32 31  2  0  0  0  0
 32 29  1  0  0  0  0
 35 34  1  0  0  0  0
 35 36  1  1  0  0  0
 35 33  1  0  0  0  0
M  END
>  <MODEL>
6

>  <REMARK>
 VINA RESULT:      -7.2      2.789      5.330
  Name = 
  10 active torsions:
  status: ('A' for Active; 'I' for Inactive)
    1  A    between atoms: C_2  and  O_13
    2  A    between atoms: C_2  and  C_19
    3  A    between atoms: C_4  and  C_31
    4  A    between atoms: C_7  and  C_8
    5  A    between atoms: C_7  and  C_31
    6  A    between atoms: N_11  and  C_33
    7  A    between atoms: O_13  and  N_16
    8  A    between atoms: C_15  and  C_32
    9  A    between atoms: C_17  and  N_22
   10  A    between atoms: N_22  and  C_31
                            x       y       z     vdW  Elec       q    Type
                         _______ _______ _______ _____ _____    ______ ____

>  <TORSDO>
F 10

$$$$
=
 OpenBabel11042414463D

 36 39  0  0  1  0  0  0  0  0999 V2000
  189.5150  174.1610  143.1200 C   0  0  1  0  0  3  0  0  0  0  0  0
  190.9580  171.9120  144.2370 N   0  0  0  0  0  1  0  0  0  0  0  0
  190.6520  173.5080  142.3930 C   0  0  0  0  0  0  0  0  0  0  0  0
  192.1190  173.3660  140.4680 C   0  0  0  0  0  3  0  0  0  0  0  0
  191.3350  172.4200  142.9600 C   0  0  0  0  0  0  0  0  0  0  0  0
  192.7660  172.2850  141.0680 C   0  0  0  0  0  3  0  0  0  0  0  0
  191.0580  173.9770  141.1350 C   0  0  0  0  0  3  0  0  0  0  0  0
  192.3660  171.8400  142.2890 N   0  0  0  0  0  0  0  0  0  0  0  0
  189.8970  175.5720  143.5520 C   0  0  0  0  0  2  0  0  0  0  0  0
  191.1880  175.5560  144.3470 C   0  0  2  0  0  3  0  0  0  0  0  0
  191.3640  176.8780  145.0560 C   0  0  0  0  0  2  0  0  0  0  0  0
  192.1340  176.5990  143.7760 C   0  0  1  0  0  3  0  0  0  0  0  0
  194.7790  175.6330  146.1450 C   0  0  0  0  0  3  0  0  0  0  0  0
  194.2490  175.5830  143.1180 C   0  0  0  0  0  3  0  0  0  0  0  0
  196.2880  174.7820  144.3510 C   0  0  0  0  0  3  0  0  0  0  0  0
  193.5490  176.2040  144.0720 C   0  0  0  0  0  0  0  0  0  0  0  0
  195.7290  174.8020  145.7160 C   0  0  0  0  0  3  0  0  0  0  0  0
  195.6480  175.1240  143.2260 C   0  0  0  0  0  3  0  0  0  0  0  0
  194.2140  176.7310  145.3070 C   0  0  0  0  0  2  0  0  0  0  0  0
  188.3250  174.1860  142.2780 N   0  0  0  0  0  2  0  0  0  0  0  0
  186.3800  176.0290  142.9680 S   0  0  0  0  0  0  0  0  0  0  0  0
  187.6030  175.3890  142.0110 C   0  0  0  0  0  0  0  0  0  0  0  0
  186.1120  177.3630  141.9800 C   0  0  0  0  0  0  0  0  0  0  0  0
  187.8160  176.1930  140.9020 C   0  0  0  0  0  3  0  0  0  0  0  0
  186.9710  177.3130  140.8860 C   0  0  0  0  0  3  0  0  0  0  0  0
  185.1300  178.4220  142.2340 C   0  0  0  0  0  0  0  0  0  0  0  0
  184.1410  178.5600  141.4640 O   0  0  0  0  0  0  0  0  0  0  0  0
  185.2970  179.2730  143.3240 O   0  0  0  0  0  0  0  0  0  0  0  0
  186.2160  178.2310  145.8080 N   0  0  0  0  0  2  0  0  0  0  0  0
  184.4400  179.2240  144.4000 N   0  0  0  0  0  2  0  0  0  0  0  0
  184.0580  178.6420  146.6130 O   0  0  0  0  0  0  0  0  0  0  0  0
  184.8690  178.6930  145.6510 C   0  0  0  0  0  0  0  0  0  0  0  0
  186.7960  178.6870  148.0130 O   0  0  0  0  0  1  0  0  0  0  0  0
  185.9380  176.6580  147.5010 F   0  0  0  0  0  0  0  0  0  0  0  0
  186.7510  177.6820  147.0480 C   0  0  1  0  0  0  0  0  0  0  0  0
  188.1550  177.1530  146.8230 C   0  0  0  0  0  1  0  0  0  0  0  0
  1  9  1  6  0  0  0
  3  5  1  0  0  0  0
  3  1  1  0  0  0  0
  4  6  2  0  0  0  0
  4  7  1  0  0  0  0
  5  2  1  0  0  0  0
  6  8  1  0  0  0  0
  7  3  2  0  0  0  0
  8  5  2  0  0  0  0
 10  9  1  6  0  0  0
 10 11  1  0  0  0  0
 12 16  1  1  0  0  0
 12 10  1  0  0  0  0
 12 11  1  0  0  0  0
 14 18  1  0  0  0  0
 14 16  2  0  0  0  0
 15 17  1  0  0  0  0
 16 19  1  0  0  0  0
 17 13  2  0  0  0  0
 18 15  2  0  0  0  0
 19 13  1  0  0  0  0
 20  1  1  0  0  0  0
 22 20  1  0  0  0  0
 22 21  1  0  0  0  0
 23 26  1  0  0  0  0
 23 21  1  0  0  0  0
 24 22  2  0  0  0  0
 25 24  1  0  0  0  0
 25 23  2  0  0  0  0
 26 28  1  0  0  0  0
 27 26  2  0  0  0  0
 28 30  1  0  0  0  0
 29 35  1  0  0  0  0
 30 32  1  0  0  0  0
 32 29  1  0  0  0  0
 32 31  2  0  0  0  0
 35 36  1  6  0  0  0
 35 34  1  0  0  0  0
 35 33  1  0  0  0  0
M  END
>  <MODEL>
7

>  <REMARK>
 VINA RESULT:      -7.0      2.567      4.753
  Name = 
  10 active torsions:
  status: ('A' for Active; 'I' for Inactive)
    1  A    between atoms: C_2  and  O_13
    2  A    between atoms: C_2  and  C_19
    3  A    between atoms: C_4  and  C_31
    4  A    between atoms: C_7  and  C_8
    5  A    between atoms: C_7  and  C_31
    6  A    between atoms: N_11  and  C_33
    7  A    between atoms: O_13  and  N_16
    8  A    between atoms: C_15  and  C_32
    9  A    between atoms: C_17  and  N_22
   10  A    between atoms: N_22  and  C_31
                            x       y       z     vdW  Elec       q    Type
                         _______ _______ _______ _____ _____    ______ ____

>  <TORSDO>
F 10

$$$$
=
 OpenBabel11042414463D

 36 39  0  0  1  0  0  0  0  0999 V2000
  190.1370  176.1530  146.0430 C   0  0  1  0  0  3  0  0  0  0  0  0
  190.6680  178.2740  144.1450 N   0  0  0  0  0  1  0  0  0  0  0  0
  189.7390  176.0450  144.6020 C   0  0  0  0  0  0  0  0  0  0  0  0
  188.7150  174.8090  142.7840 C   0  0  0  0  0  3  0  0  0  0  0  0
  190.0080  177.0910  143.7040 C   0  0  0  0  0  0  0  0  0  0  0  0
  189.0060  175.8710  141.9270 C   0  0  0  0  0  3  0  0  0  0  0  0
  189.0850  174.8990  144.1260 C   0  0  0  0  0  3  0  0  0  0  0  0
  189.6380  176.9780  142.3990 N   0  0  0  0  0  0  0  0  0  0  0  0
  188.9030  176.1590  146.9390 C   0  0  0  0  0  2  0  0  0  0  0  0
  187.9400  177.2480  146.5130 C   0  0  2  0  0  3  0  0  0  0  0  0
  186.8370  177.3790  147.5370 C   0  0  0  0  0  2  0  0  0  0  0  0
  186.5780  176.6280  146.2420 C   0  0  1  0  0  3  0  0  0  0  0  0
  185.4880  177.3880  142.8110 C   0  0  0  0  0  3  0  0  0  0  0  0
  184.7630  178.1590  145.6970 C   0  0  0  0  0  3  0  0  0  0  0  0
  183.7030  178.9610  143.5630 C   0  0  0  0  0  3  0  0  0  0  0  0
  185.8280  177.4790  145.2630 C   0  0  0  0  0  0  0  0  0  0  0  0
  184.2990  177.9680  142.6480 C   0  0  0  0  0  3  0  0  0  0  0  0
  183.9080  179.0460  144.8830 C   0  0  0  0  0  3  0  0  0  0  0  0
  186.4260  177.7450  143.9160 C   0  0  0  0  0  2  0  0  0  0  0  0
  191.0290  175.0580  146.4040 N   0  0  0  0  0  2  0  0  0  0  0  0
  193.4360  173.9570  145.5970 S   0  0  0  0  0  0  0  0  0  0  0  0
  192.4470  175.1460  146.2540 C   0  0  0  0  0  0  0  0  0  0  0  0
  194.8570  174.8340  145.7910 C   0  0  0  0  0  0  0  0  0  0  0  0
  193.2050  176.2380  146.6450 C   0  0  0  0  0  3  0  0  0  0  0  0
  194.5710  176.0620  146.3810 C   0  0  0  0  0  3  0  0  0  0  0  0
  196.1940  174.3810  145.3920 C   0  0  0  0  0  0  0  0  0  0  0  0
  196.9620  173.8610  146.2460 O   0  0  0  0  0  0  0  0  0  0  0  0
  196.6100  174.5300  144.0710 O   0  0  0  0  0  0  0  0  0  0  0  0
  194.6660  174.1460  142.0280 N   0  0  0  0  0  2  0  0  0  0  0  0
  196.1960  175.6030  143.3140 N   0  0  0  0  0  2  0  0  0  0  0  0
  194.8910  176.4320  141.5850 O   0  0  0  0  0  0  0  0  0  0  0  0
  195.2360  175.4360  142.2750 C   0  0  0  0  0  0  0  0  0  0  0  0
  194.0780  174.4710  139.8030 O   0  0  0  0  0  1  0  0  0  0  0  0
  193.5490  172.5120  140.8020 F   0  0  0  0  0  0  0  0  0  0  0  0
  193.6710  173.8760  140.9960 C   0  0  1  0  0  0  0  0  0  0  0  0
  192.3280  174.4540  141.4010 C   0  0  0  0  0  1  0  0  0  0  0  0
  1 20  1  0  0  0  0
  1  9  1  1  0  0  0
  3  1  1  0  0  0  0
  4  7  2  0  0  0  0
  5  2  1  0  0  0  0
  5  3  2  0  0  0  0
  6  8  2  0  0  0  0
  6  4  1  0  0  0  0
  7  3  1  0  0  0  0
  8  5  1  0  0  0  0
 10  9  1  1  0  0  0
 10 11  1  0  0  0  0
 12 16  1  6  0  0  0
 12 10  1  0  0  0  0
 12 11  1  0  0  0  0
 13 19  1  0  0  0  0
 15 18  2  0  0  0  0
 16 14  2  0  0  0  0
 17 13  2  0  0  0  0
 17 15  1  0  0  0  0
 18 14  1  0  0  0  0
 19 16  1  0  0  0  0
 21 23  1  0  0  0  0
 21 22  1  0  0  0  0
 22 20  1  0  0  0  0
 22 24  2  0  0  0  0
 23 25  2  0  0  0  0
 25 24  1  0  0  0  0
 26 23  1  0  0  0  0
 26 27  2  0  0  0  0
 28 26  1  0  0  0  0
 29 32  1  0  0  0  0
 30 28  1  0  0  0  0
 31 32  2  0  0  0  0
 32 30  1  0  0  0  0
 33 35  1  0  0  0  0
 34 35  1  0  0  0  0
 35 36  1  1  0  0  0
 35 29  1  0  0  0  0
M  END
>  <MODEL>
8

>  <REMARK>
 VINA RESULT:      -7.0      4.036      7.821
  Name = 
  10 active torsions:
  status: ('A' for Active; 'I' for Inactive)
    1  A    between atoms: C_2  and  O_13
    2  A    between atoms: C_2  and  C_19
    3  A    between atoms: C_4  and  C_31
    4  A    between atoms: C_7  and  C_8
    5  A    between atoms: C_7  and  C_31
    6  A    between atoms: N_11  and  C_33
    7  A    between atoms: O_13  and  N_16
    8  A    between atoms: C_15  and  C_32
    9  A    between atoms: C_17  and  N_22
   10  A    between atoms: N_22  and  C_31
                            x       y       z     vdW  Elec       q    Type
                         _______ _______ _______ _____ _____    ______ ____

>  <TORSDO>
F 10

$$$$
=
 OpenBabel11042414463D

 36 39  0  0  1  0  0  0  0  0999 V2000
  193.7130  173.2110  145.2490 C   0  0  1  0  0  3  0  0  0  0  0  0
  193.2770  170.3990  144.7140 N   0  0  0  0  0  1  0  0  0  0  0  0
  194.8340  172.2150  145.2770 C   0  0  0  0  0  0  0  0  0  0  0  0
  197.1780  171.6880  145.5990 C   0  0  0  0  0  3  0  0  0  0  0  0
  194.5920  170.8570  145.0150 C   0  0  0  0  0  0  0  0  0  0  0  0
  196.8930  170.3490  145.3290 C   0  0  0  0  0  3  0  0  0  0  0  0
  196.1430  172.6230  145.5710 C   0  0  0  0  0  3  0  0  0  0  0  0
  195.6190  169.9650  145.0470 N   0  0  0  0  0  0  0  0  0  0  0  0
  194.1680  174.5440  145.8330 C   0  0  0  0  0  2  0  0  0  0  0  0
  193.0200  175.5330  145.8610 C   0  0  2  0  0  3  0  0  0  0  0  0
  193.2460  176.5410  146.9620 C   0  0  0  0  0  2  0  0  0  0  0  0
  192.2760  175.3920  147.1790 C   0  0  1  0  0  3  0  0  0  0  0  0
  189.7540  177.5300  145.5630 C   0  0  0  0  0  3  0  0  0  0  0  0
  189.8770  174.9700  147.2610 C   0  0  0  0  0  3  0  0  0  0  0  0
  187.8440  176.1240  146.3350 C   0  0  0  0  0  3  0  0  0  0  0  0
  190.8580  175.8410  147.0010 C   0  0  0  0  0  0  0  0  0  0  0  0
  188.5290  177.0330  145.3960 C   0  0  0  0  0  3  0  0  0  0  0  0
  188.4290  175.2330  147.1460 C   0  0  0  0  0  3  0  0  0  0  0  0
  190.5710  177.2960  146.7910 C   0  0  0  0  0  2  0  0  0  0  0  0
  193.2290  173.3860  143.8850 N   0  0  0  0  0  2  0  0  0  0  0  0
  191.2090  174.3680  142.2670 S   0  0  0  0  0  0  0  0  0  0  0  0
  191.8410  173.5300  143.5800 C   0  0  0  0  0  0  0  0  0  0  0  0
  189.6050  174.0450  142.6530 C   0  0  0  0  0  0  0  0  0  0  0  0
  190.8160  172.9970  144.3460 C   0  0  0  0  0  3  0  0  0  0  0  0
  189.5490  173.2880  143.8190 C   0  0  0  0  0  3  0  0  0  0  0  0
  188.4420  174.4860  141.8770 C   0  0  0  0  0  0  0  0  0  0  0  0
  188.1810  173.9410  140.7700 O   0  0  0  0  0  0  0  0  0  0  0  0
  187.6310  175.5090  142.3640 O   0  0  0  0  0  0  0  0  0  0  0  0
  185.7360  177.3990  143.3300 N   0  0  0  0  0  2  0  0  0  0  0  0
  187.2220  176.5400  141.5490 N   0  0  0  0  0  2  0  0  0  0  0  0
  185.8920  178.4130  141.2280 O   0  0  0  0  0  0  0  0  0  0  0  0
  186.2630  177.4910  142.0020 C   0  0  0  0  0  0  0  0  0  0  0  0
  183.6980  178.4660  142.9940 O   0  0  0  0  0  1  0  0  0  0  0  0
  184.2770  177.8430  145.0890 F   0  0  0  0  0  0  0  0  0  0  0  0
  184.7590  178.3280  143.8870 C   0  0  1  0  0  0  0  0  0  0  0  0
  185.3970  179.6870  144.1070 C   0  0  0  0  0  1  0  0  0  0  0  0
  1  3  1  0  0  0  0
  1  9  1  6  0  0  0
  2  5  1  0  0  0  0
  3  7  1  0  0  0  0
  5  8  1  0  0  0  0
  5  3  2  0  0  0  0
  6  4  1  0  0  0  0
  7  4  2  0  0  0  0
  8  6  2  0  0  0  0
 10  9  1  1  0  0  0
 10 11  1  0  0  0  0
 10 12  1  0  0  0  0
 11 12  1  0  0  0  0
 12 16  1  6  0  0  0
 13 19  1  0  0  0  0
 15 18  2  0  0  0  0
 16 14  2  0  0  0  0
 17 13  2  0  0  0  0
 17 15  1  0  0  0  0
 18 14  1  0  0  0  0
 19 16  1  0  0  0  0
 20  1  1  0  0  0  0
 21 23  1  0  0  0  0
 21 22  1  0  0  0  0
 22 20  1  0  0  0  0
 22 24  2  0  0  0  0
 23 25  2  0  0  0  0
 25 24  1  0  0  0  0
 26 28  1  0  0  0  0
 26 23  1  0  0  0  0
 27 26  2  0  0  0  0
 29 35  1  0  0  0  0
 30 32  1  0  0  0  0
 30 28  1  0  0  0  0
 31 32  2  0  0  0  0
 32 29  1  0  0  0  0
 33 35  1  0  0  0  0
 35 36  1  1  0  0  0
 35 34  1  0  0  0  0
M  END
>  <MODEL>
9

>  <REMARK>
 VINA RESULT:      -7.0      2.494      2.900
  Name = 
  10 active torsions:
  status: ('A' for Active; 'I' for Inactive)
    1  A    between atoms: C_2  and  O_13
    2  A    between atoms: C_2  and  C_19
    3  A    between atoms: C_4  and  C_31
    4  A    between atoms: C_7  and  C_8
    5  A    between atoms: C_7  and  C_31
    6  A    between atoms: N_11  and  C_33
    7  A    between atoms: O_13  and  N_16
    8  A    between atoms: C_15  and  C_32
    9  A    between atoms: C_17  and  N_22
   10  A    between atoms: N_22  and  C_31
                            x       y       z     vdW  Elec       q    Type
                         _______ _______ _______ _____ _____    ______ ____

>  <TORSDO>
F 10

$$$$
