=
 OpenBabel11042414413D

 28 30  0  0  1  0  0  0  0  0999 V2000
  190.5900  175.5250  145.0480 C   0  0  2  0  0  3  0  0  0  0  0  0
  188.4130  176.7990  144.4840 C   0  0  0  0  0  0  0  0  0  0  0  0
  186.6060  176.8150  146.1330 C   0  0  0  0  0  0  0  0  0  0  0  0
  186.3570  178.1420  143.9520 C   0  0  0  0  0  2  0  0  0  0  0  0
  184.3570  179.0220  144.2440 C   0  0  0  0  0  2  0  0  0  0  0  0
  183.8170  178.9380  145.6680 C   0  0  0  0  0  2  0  0  0  0  0  0
  188.6620  175.6230  146.5940 C   0  0  0  0  0  3  0  0  0  0  0  0
  184.9210  178.6060  146.6630 C   0  0  0  0  0  2  0  0  0  0  0  0
  184.9970  177.8310  143.8830 O   0  0  0  0  0  0  0  0  0  0  0  0
  187.1110  177.2040  144.8630 C   0  0  0  0  0  0  0  0  0  0  0  0
  189.1870  175.9950  145.3560 C   0  0  0  0  0  0  0  0  0  0  0  0
  185.2130  177.1150  146.6030 C   0  0  0  0  0  2  0  0  0  0  0  0
  188.9620  177.2190  143.1540 C   0  0  0  0  0  1  0  0  0  0  0  0
  187.3850  176.0230  146.9730 C   0  0  0  0  0  3  0  0  0  0  0  0
  191.1810  173.2530  142.0650 C   0  0  0  0  0  3  0  0  0  0  0  0
  189.9280  172.0060  143.7160 C   0  0  0  0  0  3  0  0  0  0  0  0
  190.5770  174.3010  144.1670 C   0  0  0  0  0  0  0  0  0  0  0  0
  189.9400  173.1170  144.5640 C   0  0  0  0  0  3  0  0  0  0  0  0
  190.5500  172.0660  142.4620 C   0  0  0  0  0  0  0  0  0  0  0  0
  191.1920  174.3640  142.9120 C   0  0  0  0  0  3  0  0  0  0  0  0
  190.6880  169.7340  142.0440 O   0  0  0  0  0  1  0  0  0  0  0  0
  190.5350  170.8930  141.5740 C   0  0  0  0  0  0  0  0  0  0  0  0
  190.3520  171.0520  140.2050 O   0  0  0  0  0  0  0  0  0  0  0  0
  191.4350  175.3740  146.2490 N   0  0  0  0  0  0  0  0  0  0  0  0
  193.6570  175.5620  145.4520 O   0  0  0  0  0  1  0  0  0  0  0  0
  192.6780  174.6720  145.9080 C   0  0  0  0  0  2  0  0  0  0  0  0
  191.5760  176.6800  148.1390 C   0  0  0  0  0  1  0  0  0  0  0  0
  191.7950  176.6560  146.7030 N   0  0  0  0  0  2  0  0  0  0  0  0
  1 11  1  0  0  0  0
  1 24  1  1  0  0  0
  2 10  2  0  0  0  0
  2 11  1  0  0  0  0
  3 12  1  0  0  0  0
  3 14  2  0  0  0  0
  4 10  1  0  0  0  0
  5  6  1  0  0  0  0
  6  8  1  0  0  0  0
  7 14  1  0  0  0  0
  9  4  1  0  0  0  0
  9  5  1  0  0  0  0
 10  3  1  0  0  0  0
 11  7  2  0  0  0  0
 12  8  1  0  0  0  0
 13  2  1  0  0  0  0
 15 19  2  0  0  0  0
 15 20  1  0  0  0  0
 16 18  2  0  0  0  0
 17 18  1  0  0  0  0
 17  1  1  0  0  0  0
 19 16  1  0  0  0  0
 20 17  2  0  0  0  0
 22 21  1  0  0  0  0
 22 19  1  0  0  0  0
 23 22  2  0  0  0  0
 24 28  1  0  0  0  0
 25 26  1  0  0  0  0
 26 24  1  0  0  0  0
 28 27  1  0  0  0  0
M  END
>  <MODEL>
1

>  <REMARK>
 VINA RESULT:      -7.0      0.000      0.000
  Name = 
  6 active torsions:
  status: ('A' for Active; 'I' for Inactive)
    1  A    between atoms: C_5  and  N_10
    2  A    between atoms: C_5  and  C_15
    3  A    between atoms: C_5  and  C_21
    4  A    between atoms: N_10  and  C_16
    5  A    between atoms: N_10  and  N_17
    6  A    between atoms: C_18  and  C_26
                            x       y       z     vdW  Elec       q    Type
                         _______ _______ _______ _____ _____    ______ ____

>  <TORSDO>
F 6

$$$$
=
 OpenBabel11042414413D

 28 30  0  0  1  0  0  0  0  0999 V2000
  190.7310  174.3770  144.3020 C   0  0  2  0  0  3  0  0  0  0  0  0
  188.9160  175.6310  145.6480 C   0  0  0  0  0  0  0  0  0  0  0  0
  187.6730  177.4270  144.5470 C   0  0  0  0  0  0  0  0  0  0  0  0
  187.0800  176.7500  146.9490 C   0  0  0  0  0  2  0  0  0  0  0  0
  185.4200  178.1410  147.3590 C   0  0  0  0  0  2  0  0  0  0  0  0
  184.8460  178.8410  146.1310 C   0  0  0  0  0  2  0  0  0  0  0  0
  189.3990  176.2280  143.3450 C   0  0  0  0  0  3  0  0  0  0  0  0
  185.2840  178.1540  144.8450 C   0  0  0  0  0  2  0  0  0  0  0  0
  186.8160  178.0790  147.2900 O   0  0  0  0  0  0  0  0  0  0  0  0
  187.9230  176.6390  145.7020 C   0  0  0  0  0  0  0  0  0  0  0  0
  189.6630  175.4350  144.4610 C   0  0  0  0  0  0  0  0  0  0  0  0
  186.7070  178.5750  144.5150 C   0  0  0  0  0  2  0  0  0  0  0  0
  189.1740  174.7810  146.8560 C   0  0  0  0  0  1  0  0  0  0  0  0
  188.4210  177.2170  143.3910 C   0  0  0  0  0  3  0  0  0  0  0  0
  193.7730  175.1870  142.1790 C   0  0  0  0  0  3  0  0  0  0  0  0
  193.9880  176.3740  144.2770 C   0  0  0  0  0  3  0  0  0  0  0  0
  192.0410  174.9840  143.8650 C   0  0  0  0  0  0  0  0  0  0  0  0
  192.7670  175.8430  144.7020 C   0  0  0  0  0  3  0  0  0  0  0  0
  194.4980  176.0510  143.0120 C   0  0  0  0  0  0  0  0  0  0  0  0
  192.5530  174.6550  142.6050 C   0  0  0  0  0  3  0  0  0  0  0  0
  195.9850  176.8630  141.3500 O   0  0  0  0  0  0  0  0  0  0  0  0
  195.7830  176.6130  142.5690 C   0  0  0  0  0  0  0  0  0  0  0  0
  196.7900  176.8750  143.4910 O   0  0  0  0  0  1  0  0  0  0  0  0
  190.3060  173.2360  143.4680 N   0  0  0  0  0  0  0  0  0  0  0  0
  189.4420  171.8160  145.1550 O   0  0  0  0  0  1  0  0  0  0  0  0
  190.4630  171.9800  144.2120 C   0  0  0  0  0  2  0  0  0  0  0  0
  188.7200  172.8720  141.8400 C   0  0  0  0  0  1  0  0  0  0  0  0
  188.9350  173.3790  143.1850 N   0  0  0  0  0  2  0  0  0  0  0  0
  1 24  1  6  0  0  0
  1 11  1  0  0  0  0
  2 10  1  0  0  0  0
  2 13  1  0  0  0  0
  3 10  2  0  0  0  0
  4  9  1  0  0  0  0
  6  5  1  0  0  0  0
  7 14  2  0  0  0  0
  7 11  1  0  0  0  0
  8  6  1  0  0  0  0
  9  5  1  0  0  0  0
 10  4  1  0  0  0  0
 11  2  2  0  0  0  0
 12  3  1  0  0  0  0
 12  8  1  0  0  0  0
 14  3  1  0  0  0  0
 15 20  2  0  0  0  0
 15 19  1  0  0  0  0
 16 18  1  0  0  0  0
 17  1  1  0  0  0  0
 17 18  2  0  0  0  0
 19 16  2  0  0  0  0
 20 17  1  0  0  0  0
 21 22  2  0  0  0  0
 22 19  1  0  0  0  0
 22 23  1  0  0  0  0
 24 26  1  0  0  0  0
 26 25  1  0  0  0  0
 27 28  1  0  0  0  0
 28 24  1  0  0  0  0
M  END
>  <MODEL>
2

>  <REMARK>
 VINA RESULT:      -6.9      2.528      4.588
  Name = 
  6 active torsions:
  status: ('A' for Active; 'I' for Inactive)
    1  A    between atoms: C_5  and  N_10
    2  A    between atoms: C_5  and  C_15
    3  A    between atoms: C_5  and  C_21
    4  A    between atoms: N_10  and  C_16
    5  A    between atoms: N_10  and  N_17
    6  A    between atoms: C_18  and  C_26
                            x       y       z     vdW  Elec       q    Type
                         _______ _______ _______ _____ _____    ______ ____

>  <TORSDO>
F 6

$$$$
=
 OpenBabel11042414413D

 28 30  0  0  1  0  0  0  0  0999 V2000
  190.1760  174.2580  143.2870 C   0  0  2  0  0  3  0  0  0  0  0  0
  188.8330  175.4870  145.1210 C   0  0  0  0  0  0  0  0  0  0  0  0
  187.3900  177.3500  144.4660 C   0  0  0  0  0  0  0  0  0  0  0  0
  187.4540  176.5850  146.9130 C   0  0  0  0  0  2  0  0  0  0  0  0
  186.0090  177.9870  147.8110 C   0  0  0  0  0  2  0  0  0  0  0  0
  185.1440  178.7480  146.8110 C   0  0  0  0  0  2  0  0  0  0  0  0
  188.6880  176.1720  142.7970 C   0  0  0  0  0  3  0  0  0  0  0  0
  185.1940  178.1080  145.4310 C   0  0  0  0  0  2  0  0  0  0  0  0
  187.3310  177.9030  147.3600 O   0  0  0  0  0  0  0  0  0  0  0  0
  187.9220  176.5100  145.4800 C   0  0  0  0  0  0  0  0  0  0  0  0
  189.2220  175.3270  143.7690 C   0  0  0  0  0  0  0  0  0  0  0  0
  186.4850  178.5160  144.7400 C   0  0  0  0  0  2  0  0  0  0  0  0
  189.3860  174.5830  146.1820 C   0  0  0  0  0  1  0  0  0  0  0  0
  187.7880  177.1750  143.1430 C   0  0  0  0  0  3  0  0  0  0  0  0
  193.7670  174.0940  144.5050 C   0  0  0  0  0  3  0  0  0  0  0  0
  193.4490  176.2250  143.4040 C   0  0  0  0  0  3  0  0  0  0  0  0
  191.6100  174.6460  143.5450 C   0  0  0  0  0  0  0  0  0  0  0  0
  192.1200  175.8860  143.1330 C   0  0  0  0  0  3  0  0  0  0  0  0
  194.2810  175.3310  144.0900 C   0  0  0  0  0  0  0  0  0  0  0  0
  192.4390  173.7560  144.2360 C   0  0  0  0  0  3  0  0  0  0  0  0
  196.3650  175.0090  145.1780 O   0  0  0  0  0  1  0  0  0  0  0  0
  195.6790  175.6930  144.3720 C   0  0  0  0  0  0  0  0  0  0  0  0
  196.2570  176.7940  143.7520 O   0  0  0  0  0  0  0  0  0  0  0  0
  189.9240  173.8320  141.8960 N   0  0  0  0  0  0  0  0  0  0  0  0
  191.5780  173.8110  140.2010 O   0  0  0  0  0  1  0  0  0  0  0  0
  191.1100  173.1620  141.3500 C   0  0  0  0  0  2  0  0  0  0  0  0
  188.2530  172.9320  140.5940 C   0  0  0  0  0  1  0  0  0  0  0  0
  188.8820  172.8870  141.9030 N   0  0  0  0  0  2  0  0  0  0  0  0
  1 24  1  6  0  0  0
  1 17  1  0  0  0  0
  1 11  1  0  0  0  0
  2 10  1  0  0  0  0
  2 13  1  0  0  0  0
  3 12  1  0  0  0  0
  3 10  2  0  0  0  0
  4  9  1  0  0  0  0
  6  5  1  0  0  0  0
  7 14  2  0  0  0  0
  7 11  1  0  0  0  0
  8  6  1  0  0  0  0
  9  5  1  0  0  0  0
 10  4  1  0  0  0  0
 11  2  2  0  0  0  0
 12  8  1  0  0  0  0
 14  3  1  0  0  0  0
 16 19  1  0  0  0  0
 17 20  2  0  0  0  0
 18 16  2  0  0  0  0
 18 17  1  0  0  0  0
 19 22  1  0  0  0  0
 19 15  2  0  0  0  0
 20 15  1  0  0  0  0
 22 21  1  0  0  0  0
 23 22  2  0  0  0  0
 24 28  1  0  0  0  0
 25 26  1  0  0  0  0
 26 24  1  0  0  0  0
 27 28  1  0  0  0  0
M  END
>  <MODEL>
3

>  <REMARK>
 VINA RESULT:      -6.6      2.444      4.747
  Name = 
  6 active torsions:
  status: ('A' for Active; 'I' for Inactive)
    1  A    between atoms: C_5  and  N_10
    2  A    between atoms: C_5  and  C_15
    3  A    between atoms: C_5  and  C_21
    4  A    between atoms: N_10  and  C_16
    5  A    between atoms: N_10  and  N_17
    6  A    between atoms: C_18  and  C_26
                            x       y       z     vdW  Elec       q    Type
                         _______ _______ _______ _____ _____    ______ ____

>  <TORSDO>
F 6

$$$$
=
 OpenBabel11042414413D

 28 30  0  0  1  0  0  0  0  0999 V2000
  188.8360  176.2120  143.2440 C   0  0  2  0  0  3  0  0  0  0  0  0
  191.3200  176.2560  143.9580 C   0  0  0  0  0  0  0  0  0  0  0  0
  192.2660  174.2700  145.0270 C   0  0  0  0  0  0  0  0  0  0  0  0
  193.7660  176.2910  144.5340 C   0  0  0  0  0  2  0  0  0  0  0  0
  195.6980  175.5530  145.2960 C   0  0  0  0  0  2  0  0  0  0  0  0
  195.7530  174.0530  145.5680 C   0  0  0  0  0  2  0  0  0  0  0  0
  189.9410  174.2980  144.3540 C   0  0  0  0  0  3  0  0  0  0  0  0
  194.5930  173.3240  144.9030 C   0  0  0  0  0  2  0  0  0  0  0  0
  194.4780  176.0900  145.7190 O   0  0  0  0  0  0  0  0  0  0  0  0
  192.4250  175.5980  144.5500 C   0  0  0  0  0  0  0  0  0  0  0  0
  190.0680  175.6000  143.8700 C   0  0  0  0  0  0  0  0  0  0  0  0
  193.3410  173.5090  145.7450 C   0  0  0  0  0  2  0  0  0  0  0  0
  191.4830  177.6520  143.4340 C   0  0  0  0  0  1  0  0  0  0  0  0
  191.0250  173.6440  144.9310 C   0  0  0  0  0  3  0  0  0  0  0  0
  187.0580  176.9480  146.5160 C   0  0  0  0  0  3  0  0  0  0  0  0
  186.5170  178.7180  144.9580 C   0  0  0  0  0  3  0  0  0  0  0  0
  187.9870  176.9110  144.2770 C   0  0  0  0  0  0  0  0  0  0  0  0
  187.3120  178.1040  143.9860 C   0  0  0  0  0  3  0  0  0  0  0  0
  186.3860  178.1450  146.2300 C   0  0  0  0  0  0  0  0  0  0  0  0
  187.8520  176.3340  145.5440 C   0  0  0  0  0  3  0  0  0  0  0  0
  184.3630  178.4130  147.4410 O   0  0  0  0  0  0  0  0  0  0  0  0
  185.5480  178.7950  147.2500 C   0  0  0  0  0  0  0  0  0  0  0  0
  186.0570  179.8390  148.0140 O   0  0  0  0  0  1  0  0  0  0  0  0
  188.0770  175.2690  142.4010 N   0  0  0  0  0  0  0  0  0  0  0  0
  187.2450  176.7470  140.7480 O   0  0  0  0  0  1  0  0  0  0  0  0
  186.8980  175.9340  141.8330 C   0  0  0  0  0  2  0  0  0  0  0  0
  188.5320  173.5170  140.9780 C   0  0  0  0  0  1  0  0  0  0  0  0
  188.8930  174.8820  141.3220 N   0  0  0  0  0  2  0  0  0  0  0  0
  1 24  1  1  0  0  0
  1 11  1  0  0  0  0
  1 17  1  0  0  0  0
  2 10  1  0  0  0  0
  3 12  1  0  0  0  0
  4 10  1  0  0  0  0
  4  9  1  0  0  0  0
  5  6  1  0  0  0  0
  5  9  1  0  0  0  0
  7 14  2  0  0  0  0
  8  6  1  0  0  0  0
  8 12  1  0  0  0  0
 10  3  2  0  0  0  0
 11  2  2  0  0  0  0
 11  7  1  0  0  0  0
 13  2  1  0  0  0  0
 14  3  1  0  0  0  0
 16 19  2  0  0  0  0
 17 20  1  0  0  0  0
 18 17  2  0  0  0  0
 18 16  1  0  0  0  0
 19 15  1  0  0  0  0
 19 22  1  0  0  0  0
 20 15  2  0  0  0  0
 22 21  2  0  0  0  0
 22 23  1  0  0  0  0
 25 26  1  0  0  0  0
 26 24  1  0  0  0  0
 27 28  1  0  0  0  0
 28 24  1  0  0  0  0
M  END
>  <MODEL>
4

>  <REMARK>
 VINA RESULT:      -6.5      3.042      7.824
  Name = 
  6 active torsions:
  status: ('A' for Active; 'I' for Inactive)
    1  A    between atoms: C_5  and  N_10
    2  A    between atoms: C_5  and  C_15
    3  A    between atoms: C_5  and  C_21
    4  A    between atoms: N_10  and  C_16
    5  A    between atoms: N_10  and  N_17
    6  A    between atoms: C_18  and  C_26
                            x       y       z     vdW  Elec       q    Type
                         _______ _______ _______ _____ _____    ______ ____

>  <TORSDO>
F 6

$$$$
=
 OpenBabel11042414413D

 28 30  0  0  1  0  0  0  0  0999 V2000
  187.6850  176.9410  145.7470 C   0  0  2  0  0  3  0  0  0  0  0  0
  189.9470  175.6910  145.6950 C   0  0  0  0  0  0  0  0  0  0  0  0
  191.8490  176.7570  144.5850 C   0  0  0  0  0  0  0  0  0  0  0  0
  192.1590  174.5000  145.7630 C   0  0  0  0  0  2  0  0  0  0  0  0
  194.3040  174.1480  145.3980 C   0  0  0  0  0  2  0  0  0  0  0  0
  195.0820  175.3640  144.9060 C   0  0  0  0  0  2  0  0  0  0  0  0
  189.6990  177.8680  144.6500 C   0  0  0  0  0  3  0  0  0  0  0  0
  194.3010  176.6520  145.1300 C   0  0  0  0  0  2  0  0  0  0  0  0
  193.0520  174.0740  144.7770 O   0  0  0  0  0  0  0  0  0  0  0  0
  191.3050  175.6550  145.2990 C   0  0  0  0  0  0  0  0  0  0  0  0
  189.1400  176.8040  145.3570 C   0  0  0  0  0  0  0  0  0  0  0  0
  193.2470  176.7910  144.0430 C   0  0  0  0  0  2  0  0  0  0  0  0
  189.3700  174.5410  146.4650 C   0  0  0  0  0  1  0  0  0  0  0  0
  191.0340  177.8410  144.2630 C   0  0  0  0  0  3  0  0  0  0  0  0
  185.3200  178.8440  143.4680 C   0  0  0  0  0  3  0  0  0  0  0  0
  185.8770  176.7520  142.3870 C   0  0  0  0  0  3  0  0  0  0  0  0
  186.8290  177.2880  144.5550 C   0  0  0  0  0  0  0  0  0  0  0  0
  186.6930  176.4110  143.4690 C   0  0  0  0  0  3  0  0  0  0  0  0
  185.1860  177.9710  142.3790 C   0  0  0  0  0  0  0  0  0  0  0  0
  186.1350  178.5020  144.5500 C   0  0  0  0  0  3  0  0  0  0  0  0
  184.8400  178.6660  140.1360 O   0  0  0  0  0  0  0  0  0  0  0  0
  184.3290  178.3260  141.2370 C   0  0  0  0  0  0  0  0  0  0  0  0
  182.9450  178.2890  141.3610 O   0  0  0  0  0  1  0  0  0  0  0  0
  187.4700  177.8330  146.9030 N   0  0  0  0  0  0  0  0  0  0  0  0
  185.3840  178.4120  147.8640 O   0  0  0  0  0  1  0  0  0  0  0  0
  186.3110  177.3790  147.6820 C   0  0  0  0  0  2  0  0  0  0  0  0
  188.7490  179.0410  148.3880 C   0  0  0  0  0  1  0  0  0  0  0  0
  188.5940  177.7470  147.7460 N   0  0  0  0  0  2  0  0  0  0  0  0
  1 24  1  1  0  0  0
  2 13  1  0  0  0  0
  3 10  1  0  0  0  0
  6  8  1  0  0  0  0
  6  5  1  0  0  0  0
  7 11  2  0  0  0  0
  9  5  1  0  0  0  0
  9  4  1  0  0  0  0
 10  2  2  0  0  0  0
 10  4  1  0  0  0  0
 11  2  1  0  0  0  0
 11  1  1  0  0  0  0
 12  3  1  0  0  0  0
 12  8  1  0  0  0  0
 14  3  2  0  0  0  0
 14  7  1  0  0  0  0
 15 20  1  0  0  0  0
 16 18  2  0  0  0  0
 17  1  1  0  0  0  0
 18 17  1  0  0  0  0
 19 16  1  0  0  0  0
 19 15  2  0  0  0  0
 20 17  2  0  0  0  0
 21 22  2  0  0  0  0
 22 23  1  0  0  0  0
 22 19  1  0  0  0  0
 24 26  1  0  0  0  0
 24 28  1  0  0  0  0
 26 25  1  0  0  0  0
 28 27  1  0  0  0  0
M  END
>  <MODEL>
5

>  <REMARK>
 VINA RESULT:      -6.3      2.978      7.180
  Name = 
  6 active torsions:
  status: ('A' for Active; 'I' for Inactive)
    1  A    between atoms: C_5  and  N_10
    2  A    between atoms: C_5  and  C_15
    3  A    between atoms: C_5  and  C_21
    4  A    between atoms: N_10  and  C_16
    5  A    between atoms: N_10  and  N_17
    6  A    between atoms: C_18  and  C_26
                            x       y       z     vdW  Elec       q    Type
                         _______ _______ _______ _____ _____    ______ ____

>  <TORSDO>
F 6

$$$$
=
 OpenBabel11042414413D

 28 30  0  0  1  0  0  0  0  0999 V2000
  190.3230  175.2710  145.9300 C   0  0  2  0  0  3  0  0  0  0  0  0
  190.3620  173.4470  144.0990 C   0  0  0  0  0  0  0  0  0  0  0  0
  191.3580  173.9850  141.9310 C   0  0  0  0  0  0  0  0  0  0  0  0
  190.4860  171.6160  142.3820 C   0  0  0  0  0  2  0  0  0  0  0  0
  190.9580  170.6420  140.4620 C   0  0  0  0  0  2  0  0  0  0  0  0
  191.9120  171.4200  139.5610 C   0  0  0  0  0  2  0  0  0  0  0  0
  191.2750  175.6570  143.6800 C   0  0  0  0  0  3  0  0  0  0  0  0
  192.6310  172.5200  140.3320 C   0  0  0  0  0  2  0  0  0  0  0  0
  190.0320  171.5000  141.0660 O   0  0  0  0  0  0  0  0  0  0  0  0
  190.7080  173.0540  142.7840 C   0  0  0  0  0  0  0  0  0  0  0  0
  190.6410  174.7620  144.5420 C   0  0  0  0  0  0  0  0  0  0  0  0
  191.6950  173.7070  140.4960 C   0  0  0  0  0  2  0  0  0  0  0  0
  189.6910  172.4650  145.0130 C   0  0  0  0  0  1  0  0  0  0  0  0
  191.6220  175.2740  142.3890 C   0  0  0  0  0  3  0  0  0  0  0  0
  186.9160  176.6430  146.8880 C   0  0  0  0  0  3  0  0  0  0  0  0
  187.7290  177.9160  144.9970 C   0  0  0  0  0  3  0  0  0  0  0  0
  189.0830  176.1290  145.9280 C   0  0  0  0  0  0  0  0  0  0  0  0
  188.8980  177.1500  144.9850 C   0  0  0  0  0  3  0  0  0  0  0  0
  186.7320  177.6690  145.9490 C   0  0  0  0  0  0  0  0  0  0  0  0
  188.0850  175.8770  146.8750 C   0  0  0  0  0  3  0  0  0  0  0  0
  185.3470  179.4100  145.1240 O   0  0  0  0  0  0  0  0  0  0  0  0
  185.5030  178.4780  145.9580 C   0  0  0  0  0  0  0  0  0  0  0  0
  184.5010  178.2230  146.8870 O   0  0  0  0  0  1  0  0  0  0  0  0
  191.4760  175.9050  146.6000 N   0  0  0  0  0  0  0  0  0  0  0  0
  191.2430  177.4410  148.3880 O   0  0  0  0  0  1  0  0  0  0  0  0
  191.1910  176.0890  148.0280 C   0  0  0  0  0  2  0  0  0  0  0  0
  193.7750  175.8590  146.4980 C   0  0  0  0  0  1  0  0  0  0  0  0
  192.5770  175.0360  146.5060 N   0  0  0  0  0  2  0  0  0  0  0  0
  1 24  1  6  0  0  0
  2 11  1  0  0  0  0
  2 13  1  0  0  0  0
  3 14  2  0  0  0  0
  3 10  1  0  0  0  0
  4 10  1  0  0  0  0
  5  9  1  0  0  0  0
  6  8  1  0  0  0  0
  6  5  1  0  0  0  0
  7 11  2  0  0  0  0
  8 12  1  0  0  0  0
  9  4  1  0  0  0  0
 10  2  2  0  0  0  0
 11  1  1  0  0  0  0
 12  3  1  0  0  0  0
 14  7  1  0  0  0  0
 16 19  1  0  0  0  0
 17  1  1  0  0  0  0
 17 20  2  0  0  0  0
 18 16  2  0  0  0  0
 18 17  1  0  0  0  0
 19 22  1  0  0  0  0
 19 15  2  0  0  0  0
 20 15  1  0  0  0  0
 21 22  2  0  0  0  0
 22 23  1  0  0  0  0
 24 26  1  0  0  0  0
 26 25  1  0  0  0  0
 27 28  1  0  0  0  0
 28 24  1  0  0  0  0
M  END
>  <MODEL>
6

>  <REMARK>
 VINA RESULT:      -6.2      1.540      7.181
  Name = 
  6 active torsions:
  status: ('A' for Active; 'I' for Inactive)
    1  A    between atoms: C_5  and  N_10
    2  A    between atoms: C_5  and  C_15
    3  A    between atoms: C_5  and  C_21
    4  A    between atoms: N_10  and  C_16
    5  A    between atoms: N_10  and  N_17
    6  A    between atoms: C_18  and  C_26
                            x       y       z     vdW  Elec       q    Type
                         _______ _______ _______ _____ _____    ______ ____

>  <TORSDO>
F 6

$$$$
=
 OpenBabel11042414413D

 28 30  0  0  1  0  0  0  0  0999 V2000
  192.8070  174.8980  144.4580 C   0  0  2  0  0  3  0  0  0  0  0  0
  190.5010  176.0530  144.2880 C   0  0  0  0  0  0  0  0  0  0  0  0
  188.9890  175.9380  146.2080 C   0  0  0  0  0  0  0  0  0  0  0  0
  188.3160  177.2840  144.1310 C   0  0  0  0  0  2  0  0  0  0  0  0
  186.3460  178.0430  144.7660 C   0  0  0  0  0  2  0  0  0  0  0  0
  186.0520  177.9040  146.2560 C   0  0  0  0  0  2  0  0  0  0  0  0
  191.1550  174.8600  146.2980 C   0  0  0  0  0  3  0  0  0  0  0  0
  187.3200  177.6200  147.0500 C   0  0  0  0  0  2  0  0  0  0  0  0
  186.9810  176.8970  144.2760 O   0  0  0  0  0  0  0  0  0  0  0  0
  189.2580  176.3760  144.8830 C   0  0  0  0  0  0  0  0  0  0  0  0
  191.4490  175.2810  145.0020 C   0  0  0  0  0  0  0  0  0  0  0  0
  187.6780  176.1500  146.9050 C   0  0  0  0  0  2  0  0  0  0  0  0
  190.8010  176.5270  142.8970 C   0  0  0  0  0  1  0  0  0  0  0  0
  189.9380  175.1790  146.8900 C   0  0  0  0  0  3  0  0  0  0  0  0
  192.3240  171.1770  143.8830 C   0  0  0  0  0  3  0  0  0  0  0  0
  194.2150  171.4640  145.3650 C   0  0  0  0  0  3  0  0  0  0  0  0
  193.0240  173.4070  144.5280 C   0  0  0  0  0  0  0  0  0  0  0  0
  194.0510  172.8510  145.3040 C   0  0  0  0  0  3  0  0  0  0  0  0
  193.3540  170.6180  144.6530 C   0  0  0  0  0  0  0  0  0  0  0  0
  192.1600  172.5630  143.8240 C   0  0  0  0  0  3  0  0  0  0  0  0
  193.4140  168.4540  143.6820 O   0  0  0  0  0  0  0  0  0  0  0  0
  193.5310  169.1590  144.7200 C   0  0  0  0  0  0  0  0  0  0  0  0
  193.8300  168.5430  145.9300 O   0  0  0  0  0  1  0  0  0  0  0  0
  193.9140  175.6810  145.0410 N   0  0  0  0  0  0  0  0  0  0  0  0
  196.1510  175.6490  144.2630 O   0  0  0  0  0  1  0  0  0  0  0  0
  194.8510  176.0920  143.9890 C   0  0  0  0  0  2  0  0  0  0  0  0
  194.1800  177.1760  146.7720 C   0  0  0  0  0  1  0  0  0  0  0  0
  193.3800  176.8560  145.6010 N   0  0  0  0  0  2  0  0  0  0  0  0
  1 17  1  0  0  0  0
  1 11  1  0  0  0  0
  1 24  1  1  0  0  0
  2 10  2  0  0  0  0
  2 11  1  0  0  0  0
  3 14  2  0  0  0  0
  3 12  1  0  0  0  0
  4  9  1  0  0  0  0
  4 10  1  0  0  0  0
  5  6  1  0  0  0  0
  6  8  1  0  0  0  0
  7 14  1  0  0  0  0
  9  5  1  0  0  0  0
 10  3  1  0  0  0  0
 11  7  2  0  0  0  0
 12  8  1  0  0  0  0
 13  2  1  0  0  0  0
 15 19  1  0  0  0  0
 17 18  2  0  0  0  0
 18 16  1  0  0  0  0
 19 22  1  0  0  0  0
 19 16  2  0  0  0  0
 20 15  2  0  0  0  0
 20 17  1  0  0  0  0
 21 22  2  0  0  0  0
 22 23  1  0  0  0  0
 24 28  1  0  0  0  0
 26 25  1  0  0  0  0
 26 24  1  0  0  0  0
 28 27  1  0  0  0  0
M  END
>  <MODEL>
7

>  <REMARK>
 VINA RESULT:      -6.2      2.449      3.157
  Name = 
  6 active torsions:
  status: ('A' for Active; 'I' for Inactive)
    1  A    between atoms: C_5  and  N_10
    2  A    between atoms: C_5  and  C_15
    3  A    between atoms: C_5  and  C_21
    4  A    between atoms: N_10  and  C_16
    5  A    between atoms: N_10  and  N_17
    6  A    between atoms: C_18  and  C_26
                            x       y       z     vdW  Elec       q    Type
                         _______ _______ _______ _____ _____    ______ ____

>  <TORSDO>
F 6

$$$$
=
 OpenBabel11042414413D

 28 30  0  0  1  0  0  0  0  0999 V2000
  189.0120  176.1000  145.0860 C   0  0  2  0  0  3  0  0  0  0  0  0
  191.1650  174.6920  144.8300 C   0  0  0  0  0  0  0  0  0  0  0  0
  193.2680  175.8460  144.3470 C   0  0  0  0  0  0  0  0  0  0  0  0
  193.2570  173.3050  144.7020 C   0  0  0  0  0  2  0  0  0  0  0  0
  195.4000  172.8560  144.4520 C   0  0  0  0  0  2  0  0  0  0  0  0
  196.3220  174.0710  144.4870 C   0  0  0  0  0  2  0  0  0  0  0  0
  191.2140  177.1060  144.5780 C   0  0  0  0  0  3  0  0  0  0  0  0
  195.6140  175.2900  145.0620 C   0  0  0  0  0  2  0  0  0  0  0  0
  194.2390  173.1340  143.7230 O   0  0  0  0  0  0  0  0  0  0  0  0
  192.5570  174.6380  144.5820 C   0  0  0  0  0  0  0  0  0  0  0  0
  190.4910  175.9380  144.8180 C   0  0  0  0  0  0  0  0  0  0  0  0
  194.7240  175.9000  143.9910 C   0  0  0  0  0  2  0  0  0  0  0  0
  190.4100  173.4240  145.0970 C   0  0  0  0  0  1  0  0  0  0  0  0
  192.5830  177.0590  144.3390 C   0  0  0  0  0  3  0  0  0  0  0  0
  187.4410  175.9350  141.6340 C   0  0  0  0  0  3  0  0  0  0  0  0
  187.1070  178.1690  142.5010 C   0  0  0  0  0  3  0  0  0  0  0  0
  188.2720  176.5120  143.8380 C   0  0  0  0  0  0  0  0  0  0  0  0
  187.7730  177.8120  143.6770 C   0  0  0  0  0  3  0  0  0  0  0  0
  186.9360  177.2330  141.4730 C   0  0  0  0  0  0  0  0  0  0  0  0
  188.1070  175.5780  142.8100 C   0  0  0  0  0  3  0  0  0  0  0  0
  185.2140  178.3520  140.2830 O   0  0  0  0  0  1  0  0  0  0  0  0
  186.2350  177.6140  140.2370 C   0  0  0  0  0  0  0  0  0  0  0  0
  186.6900  177.1610  139.0040 O   0  0  0  0  0  0  0  0  0  0  0  0
  188.7180  176.9550  146.2520 N   0  0  0  0  0  0  0  0  0  0  0  0
  186.6200  177.7920  146.9650 O   0  0  0  0  0  1  0  0  0  0  0  0
  187.3910  176.6360  146.7910 C   0  0  0  0  0  2  0  0  0  0  0  0
  189.9770  177.9200  147.9210 C   0  0  0  0  0  1  0  0  0  0  0  0
  189.6540  176.6660  147.2620 N   0  0  0  0  0  2  0  0  0  0  0  0
  1 24  1  1  0  0  0
  2 13  1  0  0  0  0
  3 10  1  0  0  0  0
  5  6  1  0  0  0  0
  6  8  1  0  0  0  0
  7 11  2  0  0  0  0
  9  5  1  0  0  0  0
  9  4  1  0  0  0  0
 10  4  1  0  0  0  0
 10  2  2  0  0  0  0
 11  2  1  0  0  0  0
 11  1  1  0  0  0  0
 12  3  1  0  0  0  0
 12  8  1  0  0  0  0
 14  3  2  0  0  0  0
 14  7  1  0  0  0  0
 15 20  1  0  0  0  0
 16 18  2  0  0  0  0
 17  1  1  0  0  0  0
 18 17  1  0  0  0  0
 19 15  2  0  0  0  0
 19 16  1  0  0  0  0
 20 17  2  0  0  0  0
 22 21  1  0  0  0  0
 22 19  1  0  0  0  0
 23 22  2  0  0  0  0
 24 26  1  0  0  0  0
 24 28  1  0  0  0  0
 26 25  1  0  0  0  0
 28 27  1  0  0  0  0
M  END
>  <MODEL>
8

>  <REMARK>
 VINA RESULT:      -6.2      2.674      7.093
  Name = 
  6 active torsions:
  status: ('A' for Active; 'I' for Inactive)
    1  A    between atoms: C_5  and  N_10
    2  A    between atoms: C_5  and  C_15
    3  A    between atoms: C_5  and  C_21
    4  A    between atoms: N_10  and  C_16
    5  A    between atoms: N_10  and  N_17
    6  A    between atoms: C_18  and  C_26
                            x       y       z     vdW  Elec       q    Type
                         _______ _______ _______ _____ _____    ______ ____

>  <TORSDO>
F 6

$$$$
=
 OpenBabel11042414413D

 28 30  0  0  1  0  0  0  0  0999 V2000
  190.7680  175.8220  143.9680 C   0  0  2  0  0  3  0  0  0  0  0  0
  188.6190  176.4390  145.2650 C   0  0  0  0  0  0  0  0  0  0  0  0
  187.1260  178.1310  144.3190 C   0  0  0  0  0  0  0  0  0  0  0  0
  186.4830  176.9320  146.4930 C   0  0  0  0  0  2  0  0  0  0  0  0
  184.5380  177.8790  146.9140 C   0  0  0  0  0  2  0  0  0  0  0  0
  183.9390  178.6650  145.7520 C   0  0  0  0  0  2  0  0  0  0  0  0
  189.1640  177.5230  143.1620 C   0  0  0  0  0  3  0  0  0  0  0  0
  184.6210  178.3180  144.4350 C   0  0  0  0  0  2  0  0  0  0  0  0
  185.9160  178.1010  147.0060 O   0  0  0  0  0  0  0  0  0  0  0  0
  187.4360  177.2110  145.3560 C   0  0  0  0  0  0  0  0  0  0  0  0
  189.4910  176.6070  144.1620 C   0  0  0  0  0  0  0  0  0  0  0  0
  185.9470  179.0580  144.3520 C   0  0  0  0  0  2  0  0  0  0  0  0
  188.9450  175.4520  146.3450 C   0  0  0  0  0  1  0  0  0  0  0  0
  188.0000  178.2800  143.2440 C   0  0  0  0  0  3  0  0  0  0  0  0
  191.2610  173.5550  140.9630 C   0  0  0  0  0  3  0  0  0  0  0  0
  189.3630  172.7300  142.2170 C   0  0  0  0  0  3  0  0  0  0  0  0
  190.5700  174.6880  142.9930 C   0  0  0  0  0  0  0  0  0  0  0  0
  189.5320  173.7590  143.1480 C   0  0  0  0  0  3  0  0  0  0  0  0
  190.2270  172.6210  141.1190 C   0  0  0  0  0  0  0  0  0  0  0  0
  191.4290  174.5840  141.8930 C   0  0  0  0  0  3  0  0  0  0  0  0
  190.5720  170.4080  140.3350 O   0  0  0  0  0  1  0  0  0  0  0  0
  190.0450  171.5360  140.1420 C   0  0  0  0  0  0  0  0  0  0  0  0
  189.2890  171.7460  138.9940 O   0  0  0  0  0  0  0  0  0  0  0  0
  191.3960  175.4020  145.2360 N   0  0  0  0  0  0  0  0  0  0  0  0
  193.0350  173.9610  146.1550 O   0  0  0  0  0  1  0  0  0  0  0  0
  192.3170  174.2840  144.9980 C   0  0  0  0  0  2  0  0  0  0  0  0
  193.0060  176.9330  144.6330 C   0  0  0  0  0  1  0  0  0  0  0  0
  192.1650  176.4740  145.7260 N   0  0  0  0  0  2  0  0  0  0  0  0
  1 11  1  0  0  0  0
  1 24  1  1  0  0  0
  2 10  1  0  0  0  0
  2 13  1  0  0  0  0
  3 12  1  0  0  0  0
  3 10  2  0  0  0  0
  4  9  1  0  0  0  0
  5  9  1  0  0  0  0
  6  5  1  0  0  0  0
  7 14  2  0  0  0  0
  7 11  1  0  0  0  0
  8  6  1  0  0  0  0
 10  4  1  0  0  0  0
 11  2  2  0  0  0  0
 12  8  1  0  0  0  0
 14  3  1  0  0  0  0
 15 19  2  0  0  0  0
 15 20  1  0  0  0  0
 16 18  2  0  0  0  0
 17 18  1  0  0  0  0
 17  1  1  0  0  0  0
 19 16  1  0  0  0  0
 20 17  2  0  0  0  0
 22 21  1  0  0  0  0
 22 19  1  0  0  0  0
 23 22  2  0  0  0  0
 24 28  1  0  0  0  0
 26 24  1  0  0  0  0
 26 25  1  0  0  0  0
 27 28  1  0  0  0  0
M  END
>  <MODEL>
9

>  <REMARK>
 VINA RESULT:      -6.1      1.403      2.250
  Name = 
  6 active torsions:
  status: ('A' for Active; 'I' for Inactive)
    1  A    between atoms: C_5  and  N_10
    2  A    between atoms: C_5  and  C_15
    3  A    between atoms: C_5  and  C_21
    4  A    between atoms: N_10  and  C_16
    5  A    between atoms: N_10  and  N_17
    6  A    between atoms: C_18  and  C_26
                            x       y       z     vdW  Elec       q    Type
                         _______ _______ _______ _____ _____    ______ ____

>  <TORSDO>
F 6

$$$$
