=
 OpenBabel11042414203D

 27 31  0  0  1  0  0  0  0  0999 V2000
  193.1240  176.1220  146.8400 C   0  0  0  0  0  2  0  0  0  0  0  0
  192.6540  174.9730  142.3180 C   0  0  0  0  0  3  0  0  0  0  0  0
  190.7290  176.9470  144.0120 C   0  0  2  0  0  3  0  0  0  0  0  0
  193.4980  176.0160  144.4340 C   0  0  2  0  0  3  0  0  0  0  0  0
  194.4360  176.7860  146.5130 C   0  0  0  0  0  2  0  0  0  0  0  0
  189.3300  174.8800  143.6970 C   0  0  2  0  0  3  0  0  0  0  0  0
  189.1060  177.5260  145.7380 C   0  0  1  0  0  3  0  0  0  0  0  0
  194.7600  174.3880  143.1640 O   0  0  0  0  0  1  0  0  0  0  0  0
  188.2260  175.7550  143.1800 C   0  0  0  0  0  0  0  0  0  0  0  0
  193.4720  174.7600  143.5550 C   0  0  2  0  0  3  0  0  0  0  0  0
  191.4000  176.9830  145.3180 N   0  0  1  0  0  0  0  0  0  0  0  0
  187.0830  175.2120  142.3880 C   0  0  0  0  0  1  0  0  0  0  0  0
  190.3230  176.8010  146.2830 C   0  0  0  0  0  2  0  0  0  0  0  0
  191.3630  175.3010  142.2990 C   0  0  0  0  0  3  0  0  0  0  0  0
  188.2870  177.0200  143.4220 N   0  0  0  0  0  0  0  0  0  0  0  0
  189.3510  177.6140  144.2270 C   0  0  2  0  0  3  0  0  0  0  0  0
  190.6050  175.5730  143.4830 N   0  0  0  0  0  0  0  0  0  0  0  0
  194.8140  176.2060  145.1720 C   0  0  0  0  0  2  0  0  0  0  0  0
  192.4070  175.9290  145.5080 C   0  0  2  0  0  3  0  0  0  0  0  0
  189.3170  173.4540  143.1580 C   0  0  0  0  0  2  0  0  0  0  0  0
  189.7350  172.5070  144.2340 C   0  0  0  0  0  3  0  0  0  0  0  0
  190.9360  172.0640  144.2620 N   0  0  0  0  0  2  0  0  0  0  0  0
  187.8250  176.8090  146.1530 C   0  0  0  0  0  2  0  0  0  0  0  0
  185.9340  177.2030  147.6890 C   0  0  0  0  0  2  0  0  0  0  0  0
  184.3990  178.3570  146.1380 C   0  0  0  0  0  1  0  0  0  0  0  0
  186.7670  177.8070  146.5800 C   0  0  2  0  0  3  0  0  0  0  0  0
  185.4050  177.2290  146.2710 C   0  0  1  0  0  3  0  0  0  0  0  0
  2 10  1  0  0  0  0
  3 17  1  1  0  0  0
  3 16  1  0  0  0  0
  3 11  1  0  0  0  0
  4 18  1  1  0  0  0
  4 19  1  0  0  0  0
  5  1  1  0  0  0  0
  6 20  1  6  0  0  0
  7 23  1  6  0  0  0
  7 13  1  0  0  0  0
  9 15  2  0  0  0  0
  9  6  1  0  0  0  0
 10  8  1  6  0  0  0
 10  4  1  0  0  0  0
 11 19  1  0  0  0  0
 11 13  1  1  0  0  0
 12  9  1  0  0  0  0
 14  2  2  0  0  0  0
 14 17  1  0  0  0  0
 16 15  1  6  0  0  0
 16  7  1  0  0  0  0
 17  6  1  0  0  0  0
 18  5  1  0  0  0  0
 19  1  1  1  0  0  0
 20 21  1  0  0  0  0
 21 22  2  0  0  0  0
 26 23  1  6  0  0  0
 26 24  1  0  0  0  0
 27 25  1  1  0  0  0
 27 26  1  0  0  0  0
 27 24  1  0  0  0  0
M  END
>  <MODEL>
1

>  <REMARK>
 VINA RESULT:      -7.3      0.000      0.000
  Name = 
  4 active torsions:
  status: ('A' for Active; 'I' for Inactive)
    1  A    between atoms: C_5  and  C_8
    2  A    between atoms: C_8  and  C_9
    3  A    between atoms: C_10  and  C_18
    4  A    between atoms: C_18  and  C_20
                            x       y       z     vdW  Elec       q    Type
                         _______ _______ _______ _____ _____    ______ ____

>  <TORSDO>
F 4

$$$$
=
 OpenBabel11042414203D

 27 31  0  0  1  0  0  0  0  0999 V2000
  191.5820  176.0630  147.3330 C   0  0  0  0  0  2  0  0  0  0  0  0
  193.0270  175.4720  142.9110 C   0  0  0  0  0  3  0  0  0  0  0  0
  190.4670  177.1950  143.8850 C   0  0  2  0  0  3  0  0  0  0  0  0
  192.8900  176.2600  145.2860 C   0  0  2  0  0  3  0  0  0  0  0  0
  192.8720  176.7820  147.6360 C   0  0  0  0  0  2  0  0  0  0  0  0
  189.4420  175.1620  142.8150 C   0  0  2  0  0  3  0  0  0  0  0  0
  188.2580  177.5340  144.8610 C   0  0  1  0  0  3  0  0  0  0  0  0
  194.6540  174.8180  144.4670 O   0  0  0  0  0  1  0  0  0  0  0  0
  188.5830  176.0780  141.9920 C   0  0  0  0  0  0  0  0  0  0  0  0
  193.2960  175.1210  144.3420 C   0  0  2  0  0  3  0  0  0  0  0  0
  190.5570  177.0790  145.3470 N   0  0  1  0  0  0  0  0  0  0  0  0
  187.8860  175.6200  140.7540 C   0  0  0  0  0  1  0  0  0  0  0  0
  189.1990  176.7650  145.7690 C   0  0  0  0  0  2  0  0  0  0  0  0
  191.8330  175.7820  142.4080 C   0  0  0  0  0  3  0  0  0  0  0  0
  188.4630  177.3040  142.3720 N   0  0  0  0  0  0  0  0  0  0  0  0
  189.0790  177.8100  143.5960 C   0  0  2  0  0  3  0  0  0  0  0  0
  190.6500  175.8950  143.2080 N   0  0  0  0  0  0  0  0  0  0  0  0
  193.7880  176.3760  146.5080 C   0  0  0  0  0  2  0  0  0  0  0  0
  191.4690  176.0250  145.8130 C   0  0  2  0  0  3  0  0  0  0  0  0
  189.7350  173.8140  142.1660 C   0  0  0  0  0  2  0  0  0  0  0  0
  190.0020  172.7960  143.2260 C   0  0  0  0  0  3  0  0  0  0  0  0
  189.1740  171.8380  143.4120 N   0  0  0  0  0  2  0  0  0  0  0  0
  186.9650  176.7520  144.6450 C   0  0  0  0  0  2  0  0  0  0  0  0
  184.8570  177.9190  145.1800 C   0  0  0  0  0  2  0  0  0  0  0  0
  185.4560  178.8190  147.4000 C   0  0  0  0  0  1  0  0  0  0  0  0
  185.9650  177.0580  145.7430 C   0  0  2  0  0  3  0  0  0  0  0  0
  185.9660  178.5480  145.9960 C   0  0  1  0  0  3  0  0  0  0  0  0
  1  5  1  0  0  0  0
  2 10  1  0  0  0  0
  3 17  1  6  0  0  0
  3 11  1  0  0  0  0
  4 19  1  0  0  0  0
  4 18  1  1  0  0  0
  6 20  1  6  0  0  0
  6 17  1  0  0  0  0
  7 23  1  6  0  0  0
  7 13  1  0  0  0  0
  9 15  2  0  0  0  0
  9  6  1  0  0  0  0
 10  8  1  6  0  0  0
 10  4  1  0  0  0  0
 11 13  1  6  0  0  0
 11 19  1  0  0  0  0
 12  9  1  0  0  0  0
 14  2  2  0  0  0  0
 14 17  1  0  0  0  0
 16 15  1  6  0  0  0
 16  3  1  0  0  0  0
 16  7  1  0  0  0  0
 18  5  1  0  0  0  0
 19  1  1  1  0  0  0
 20 21  1  0  0  0  0
 21 22  2  0  0  0  0
 24 26  1  0  0  0  0
 24 27  1  0  0  0  0
 26 23  1  6  0  0  0
 26 27  1  0  0  0  0
 27 25  1  1  0  0  0
M  END
>  <MODEL>
2

>  <REMARK>
 VINA RESULT:      -6.9      1.153      1.378
  Name = 
  4 active torsions:
  status: ('A' for Active; 'I' for Inactive)
    1  A    between atoms: C_5  and  C_8
    2  A    between atoms: C_8  and  C_9
    3  A    between atoms: C_10  and  C_18
    4  A    between atoms: C_18  and  C_20
                            x       y       z     vdW  Elec       q    Type
                         _______ _______ _______ _____ _____    ______ ____

>  <TORSDO>
F 4

$$$$
=
 OpenBabel11042414203D

 27 31  0  0  1  0  0  0  0  0999 V2000
  187.1420  177.7690  142.3540 C   0  0  0  0  0  2  0  0  0  0  0  0
  187.5110  176.6290  146.8870 C   0  0  0  0  0  3  0  0  0  0  0  0
  189.9240  177.5230  144.9260 C   0  0  2  0  0  3  0  0  0  0  0  0
  186.9990  177.8900  144.7840 C   0  0  2  0  0  3  0  0  0  0  0  0
  186.2880  178.9490  142.7420 C   0  0  0  0  0  2  0  0  0  0  0  0
  190.3100  175.0590  145.2570 C   0  0  2  0  0  3  0  0  0  0  0  0
  191.4580  177.2950  143.0430 C   0  0  1  0  0  3  0  0  0  0  0  0
  185.2870  177.0070  146.2500 O   0  0  0  0  0  1  0  0  0  0  0  0
  191.7300  175.3740  145.6290 C   0  0  0  0  0  0  0  0  0  0  0  0
  186.5640  176.7690  145.7360 C   0  0  2  0  0  3  0  0  0  0  0  0
  189.2100  177.8200  143.6770 N   0  0  1  0  0  0  0  0  0  0  0  0
  192.5970  174.4020  146.3600 C   0  0  0  0  0  1  0  0  0  0  0  0
  190.0000  177.1640  142.6430 C   0  0  0  0  0  2  0  0  0  0  0  0
  188.8110  176.3590  146.7830 C   0  0  0  0  0  3  0  0  0  0  0  0
  192.2000  176.5320  145.3140 N   0  0  0  0  0  0  0  0  0  0  0  0
  191.4260  177.5140  144.5600 C   0  0  2  0  0  3  0  0  0  0  0  0
  189.4910  176.2460  145.5280 N   0  0  0  0  0  0  0  0  0  0  0  0
  185.8300  178.6210  144.1420 C   0  0  0  0  0  2  0  0  0  0  0  0
  187.8320  177.3100  143.6340 C   0  0  2  0  0  3  0  0  0  0  0  0
  189.7570  173.7840  145.8820 C   0  0  0  0  0  2  0  0  0  0  0  0
  189.7310  172.6950  144.8610 C   0  0  0  0  0  3  0  0  0  0  0  0
  189.7440  172.9900  143.6150 N   0  0  0  0  0  2  0  0  0  0  0  0
  192.2520  176.0800  142.5740 C   0  0  0  0  0  2  0  0  0  0  0  0
  194.3390  175.3090  141.5050 C   0  0  0  0  0  2  0  0  0  0  0  0
  195.9740  176.3560  143.0300 C   0  0  0  0  0  1  0  0  0  0  0  0
  193.6590  176.4820  142.1750 C   0  0  2  0  0  3  0  0  0  0  0  0
  194.6410  175.6350  142.9520 C   0  0  1  0  0  3  0  0  0  0  0  0
  1  5  1  0  0  0  0
  3 17  1  6  0  0  0
  4 18  1  6  0  0  0
  4 10  1  0  0  0  0
  5 18  1  0  0  0  0
  6 17  1  0  0  0  0
  6  9  1  0  0  0  0
  6 20  1  1  0  0  0
  7 23  1  1  0  0  0
  7 16  1  0  0  0  0
  9 12  1  0  0  0  0
 10  8  1  1  0  0  0
 10  2  1  0  0  0  0
 11 13  1  6  0  0  0
 11  3  1  0  0  0  0
 13  7  1  0  0  0  0
 14  2  2  0  0  0  0
 15  9  2  0  0  0  0
 16  3  1  0  0  0  0
 16 15  1  1  0  0  0
 17 14  1  0  0  0  0
 19  1  1  6  0  0  0
 19 11  1  0  0  0  0
 19  4  1  0  0  0  0
 21 20  1  0  0  0  0
 22 21  2  0  0  0  0
 24 26  1  0  0  0  0
 24 27  1  0  0  0  0
 26 23  1  1  0  0  0
 26 27  1  0  0  0  0
 27 25  1  6  0  0  0
M  END
>  <MODEL>
3

>  <REMARK>
 VINA RESULT:      -6.9      2.623      6.527
  Name = 
  4 active torsions:
  status: ('A' for Active; 'I' for Inactive)
    1  A    between atoms: C_5  and  C_8
    2  A    between atoms: C_8  and  C_9
    3  A    between atoms: C_10  and  C_18
    4  A    between atoms: C_18  and  C_20
                            x       y       z     vdW  Elec       q    Type
                         _______ _______ _______ _____ _____    ______ ____

>  <TORSDO>
F 4

$$$$
=
 OpenBabel11042414203D

 27 31  0  0  1  0  0  0  0  0999 V2000
  186.3010  176.6060  142.4160 C   0  0  0  0  0  2  0  0  0  0  0  0
  187.0270  177.5540  146.9510 C   0  0  0  0  0  3  0  0  0  0  0  0
  189.1720  177.8800  144.5500 C   0  0  2  0  0  3  0  0  0  0  0  0
  186.2250  177.7190  144.5830 C   0  0  2  0  0  3  0  0  0  0  0  0
  185.2650  177.6990  142.3760 C   0  0  0  0  0  2  0  0  0  0  0  0
  190.0020  175.8730  145.8190 C   0  0  2  0  0  3  0  0  0  0  0  0
  190.6540  177.1070  142.7750 C   0  0  1  0  0  3  0  0  0  0  0  0
  184.7500  177.2960  146.4560 O   0  0  0  0  0  1  0  0  0  0  0  0
  191.3550  176.5200  145.8760 C   0  0  0  0  0  0  0  0  0  0  0  0
  186.0300  177.0540  145.9510 C   0  0  2  0  0  3  0  0  0  0  0  0
  188.3720  177.5140  143.3730 N   0  0  1  0  0  0  0  0  0  0  0  0
  192.4060  176.0870  146.8440 C   0  0  0  0  0  1  0  0  0  0  0  0
  189.2300  176.6070  142.6220 C   0  0  0  0  0  2  0  0  0  0  0  0
  188.3500  177.4600  146.8290 C   0  0  0  0  0  3  0  0  0  0  0  0
  191.6000  177.4920  145.0650 N   0  0  0  0  0  0  0  0  0  0  0  0
  190.6370  177.9390  144.0630 C   0  0  2  0  0  3  0  0  0  0  0  0
  188.9950  176.9280  145.6660 N   0  0  0  0  0  0  0  0  0  0  0  0
  184.9220  177.9300  143.8270 C   0  0  0  0  0  2  0  0  0  0  0  0
  187.1060  176.8370  143.6910 C   0  0  2  0  0  3  0  0  0  0  0  0
  189.7070  174.9150  146.9680 C   0  0  0  0  0  2  0  0  0  0  0  0
  189.3310  173.5780  146.4200 C   0  0  0  0  0  3  0  0  0  0  0  0
  189.6910  173.2500  145.2360 N   0  0  0  0  0  2  0  0  0  0  0  0
  191.6350  175.9390  142.7630 C   0  0  0  0  0  2  0  0  0  0  0  0
  191.8820  173.5050  142.4340 C   0  0  0  0  0  2  0  0  0  0  0  0
  190.9920  173.3240  140.1380 C   0  0  0  0  0  1  0  0  0  0  0  0
  190.9800  174.6950  142.1940 C   0  0  2  0  0  3  0  0  0  0  0  0
  191.8440  174.1650  141.0720 C   0  0  1  0  0  3  0  0  0  0  0  0
  3 17  1  1  0  0  0
  4 18  1  6  0  0  0
  4 10  1  0  0  0  0
  5  1  1  0  0  0  0
  5 18  1  0  0  0  0
  6  9  1  0  0  0  0
  6 20  1  1  0  0  0
  7 23  1  1  0  0  0
  7 16  1  0  0  0  0
  9 12  1  0  0  0  0
 10  8  1  1  0  0  0
 10  2  1  0  0  0  0
 11 13  1  6  0  0  0
 11 19  1  0  0  0  0
 11  3  1  0  0  0  0
 13  7  1  0  0  0  0
 14  2  2  0  0  0  0
 15  9  2  0  0  0  0
 16  3  1  0  0  0  0
 16 15  1  1  0  0  0
 17  6  1  0  0  0  0
 17 14  1  0  0  0  0
 19  1  1  6  0  0  0
 19  4  1  0  0  0  0
 21 20  1  0  0  0  0
 22 21  2  0  0  0  0
 26 24  1  0  0  0  0
 26 23  1  1  0  0  0
 27 25  1  6  0  0  0
 27 26  1  0  0  0  0
 27 24  1  0  0  0  0
M  END
>  <MODEL>
4

>  <REMARK>
 VINA RESULT:      -6.6      2.675      6.495
  Name = 
  4 active torsions:
  status: ('A' for Active; 'I' for Inactive)
    1  A    between atoms: C_5  and  C_8
    2  A    between atoms: C_8  and  C_9
    3  A    between atoms: C_10  and  C_18
    4  A    between atoms: C_18  and  C_20
                            x       y       z     vdW  Elec       q    Type
                         _______ _______ _______ _____ _____    ______ ____

>  <TORSDO>
F 4

$$$$
=
 OpenBabel11042414203D

 27 31  0  0  1  0  0  0  0  0999 V2000
  189.2410  173.0540  142.8320 C   0  0  0  0  0  2  0  0  0  0  0  0
  189.2090  177.4920  144.3460 C   0  0  0  0  0  3  0  0  0  0  0  0
  191.8060  175.7850  143.4470 C   0  0  2  0  0  3  0  0  0  0  0  0
  188.9240  175.4700  142.8940 C   0  0  2  0  0  3  0  0  0  0  0  0
  188.4250  173.4780  141.6380 C   0  0  0  0  0  2  0  0  0  0  0  0
  192.0320  175.9370  145.9480 C   0  0  2  0  0  3  0  0  0  0  0  0
  193.4610  174.0010  143.6180 C   0  0  1  0  0  3  0  0  0  0  0  0
  187.0620  176.7350  143.7850 O   0  0  0  0  0  1  0  0  0  0  0  0
  193.4350  176.4320  145.7500 C   0  0  0  0  0  0  0  0  0  0  0  0
  188.3590  176.2930  144.0590 C   0  0  2  0  0  3  0  0  0  0  0  0
  191.2040  174.5180  143.0100 N   0  0  1  0  0  0  0  0  0  0  0  0
  194.1910  177.1380  146.8270 C   0  0  0  0  0  1  0  0  0  0  0  0
  192.0320  173.4910  143.6290 C   0  0  0  0  0  2  0  0  0  0  0  0
  190.4970  177.4570  144.6850 C   0  0  0  0  0  3  0  0  0  0  0  0
  193.9900  176.2470  144.6010 N   0  0  0  0  0  0  0  0  0  0  0  0
  193.3280  175.5250  143.5180 C   0  0  2  0  0  3  0  0  0  0  0  0
  191.2610  176.2470  144.7400 N   0  0  0  0  0  0  0  0  0  0  0  0
  187.8480  174.8110  142.0460 C   0  0  0  0  0  2  0  0  0  0  0  0
  189.8070  174.3370  143.4310 C   0  0  2  0  0  3  0  0  0  0  0  0
  191.3650  176.4140  147.2330 C   0  0  0  0  0  2  0  0  0  0  0  0
  190.5760  175.2970  147.8330 C   0  0  0  0  0  3  0  0  0  0  0  0
  189.4790  174.9270  147.2860 N   0  0  0  0  0  2  0  0  0  0  0  0
  194.2210  173.4890  144.8380 C   0  0  0  0  0  2  0  0  0  0  0  0
  196.3040  172.3890  145.5770 C   0  0  0  0  0  2  0  0  0  0  0  0
  197.9170  174.1640  144.9920 C   0  0  0  0  0  1  0  0  0  0  0  0
  195.6780  173.2430  144.4970 C   0  0  2  0  0  3  0  0  0  0  0  0
  196.5380  173.8840  145.5620 C   0  0  1  0  0  3  0  0  0  0  0  0
  2 14  2  0  0  0  0
  3 16  1  0  0  0  0
  3 17  1  1  0  0  0
  4 18  1  1  0  0  0
  4 19  1  0  0  0  0
  4 10  1  0  0  0  0
  5 18  1  0  0  0  0
  5  1  1  0  0  0  0
  6 20  1  1  0  0  0
  7 13  1  0  0  0  0
  7 23  1  1  0  0  0
  9  6  1  0  0  0  0
  9 12  1  0  0  0  0
 10  8  1  6  0  0  0
 10  2  1  0  0  0  0
 11 19  1  0  0  0  0
 11  3  1  0  0  0  0
 11 13  1  1  0  0  0
 14 17  1  0  0  0  0
 15  9  2  0  0  0  0
 16  7  1  0  0  0  0
 16 15  1  1  0  0  0
 17  6  1  0  0  0  0
 19  1  1  6  0  0  0
 20 21  1  0  0  0  0
 22 21  2  0  0  0  0
 26 23  1  1  0  0  0
 26 27  1  0  0  0  0
 26 24  1  0  0  0  0
 27 25  1  6  0  0  0
 27 24  1  0  0  0  0
M  END
>  <MODEL>
5

>  <REMARK>
 VINA RESULT:      -6.4      2.589      6.906
  Name = 
  4 active torsions:
  status: ('A' for Active; 'I' for Inactive)
    1  A    between atoms: C_5  and  C_8
    2  A    between atoms: C_8  and  C_9
    3  A    between atoms: C_10  and  C_18
    4  A    between atoms: C_18  and  C_20
                            x       y       z     vdW  Elec       q    Type
                         _______ _______ _______ _____ _____    ______ ____

>  <TORSDO>
F 4

$$$$
=
 OpenBabel11042414203D

 27 31  0  0  1  0  0  0  0  0999 V2000
  186.8570  178.8070  147.0890 C   0  0  0  0  0  2  0  0  0  0  0  0
  185.9410  176.3400  143.2070 C   0  0  0  0  0  3  0  0  0  0  0  0
  188.1510  175.6290  145.4610 C   0  0  2  0  0  3  0  0  0  0  0  0
  185.7420  177.3350  145.4980 C   0  0  2  0  0  3  0  0  0  0  0  0
  185.4630  178.5130  147.5780 C   0  0  0  0  0  2  0  0  0  0  0  0
  189.5280  176.3970  143.5010 C   0  0  2  0  0  3  0  0  0  0  0  0
  190.1910  175.9600  146.7550 C   0  0  1  0  0  3  0  0  0  0  0  0
  184.2670  177.9150  143.6690 O   0  0  0  0  0  1  0  0  0  0  0  0
  190.3380  175.1400  143.6310 C   0  0  0  0  0  0  0  0  0  0  0  0
  185.5800  177.5650  143.9900 C   0  0  2  0  0  3  0  0  0  0  0  0
  187.9330  176.6930  146.4510 N   0  0  1  0  0  0  0  0  0  0  0  0
  191.2060  174.6330  142.5270 C   0  0  0  0  0  1  0  0  0  0  0  0
  189.2720  177.1680  146.7720 C   0  0  0  0  0  2  0  0  0  0  0  0
  187.1290  175.7380  143.2280 C   0  0  0  0  0  3  0  0  0  0  0  0
  190.2620  174.4770  144.7340 N   0  0  0  0  0  0  0  0  0  0  0  0
  189.4690  174.9360  145.8720 C   0  0  2  0  0  3  0  0  0  0  0  0
  188.2030  176.1500  144.0800 N   0  0  0  0  0  0  0  0  0  0  0  0
  184.7210  178.0910  146.3340 C   0  0  0  0  0  2  0  0  0  0  0  0
  187.1230  177.8170  145.9590 C   0  0  2  0  0  3  0  0  0  0  0  0
  189.4760  176.9770  142.0930 C   0  0  0  0  0  2  0  0  0  0  0  0
  188.9040  178.3550  142.1390 C   0  0  0  0  0  3  0  0  0  0  0  0
  187.9280  178.6660  141.3710 N   0  0  0  0  0  2  0  0  0  0  0  0
  191.5880  176.3580  146.2880 C   0  0  0  0  0  2  0  0  0  0  0  0
  193.9970  175.9310  146.6210 C   0  0  0  0  0  2  0  0  0  0  0  0
  194.1100  173.6190  145.7620 C   0  0  0  0  0  1  0  0  0  0  0  0
  192.6130  175.3310  146.7290 C   0  0  2  0  0  3  0  0  0  0  0  0
  193.4930  174.9890  145.5480 C   0  0  1  0  0  3  0  0  0  0  0  0
  1  5  1  0  0  0  0
  2 14  2  0  0  0  0
  2 10  1  0  0  0  0
  3 17  1  6  0  0  0
  3 16  1  0  0  0  0
  3 11  1  0  0  0  0
  4 19  1  0  0  0  0
  4 18  1  1  0  0  0
  6 20  1  6  0  0  0
  6  9  1  0  0  0  0
  6 17  1  0  0  0  0
  7 23  1  6  0  0  0
  7 13  1  0  0  0  0
  9 15  2  0  0  0  0
 10  8  1  1  0  0  0
 10  4  1  0  0  0  0
 11 13  1  6  0  0  0
 12  9  1  0  0  0  0
 14 17  1  0  0  0  0
 16 15  1  6  0  0  0
 16  7  1  0  0  0  0
 18  5  1  0  0  0  0
 19 11  1  0  0  0  0
 19  1  1  1  0  0  0
 20 21  1  0  0  0  0
 22 21  2  0  0  0  0
 24 26  1  0  0  0  0
 26 23  1  6  0  0  0
 27 25  1  1  0  0  0
 27 24  1  0  0  0  0
 27 26  1  0  0  0  0
M  END
>  <MODEL>
6

>  <REMARK>
 VINA RESULT:      -6.3      2.659      6.383
  Name = 
  4 active torsions:
  status: ('A' for Active; 'I' for Inactive)
    1  A    between atoms: C_5  and  C_8
    2  A    between atoms: C_8  and  C_9
    3  A    between atoms: C_10  and  C_18
    4  A    between atoms: C_18  and  C_20
                            x       y       z     vdW  Elec       q    Type
                         _______ _______ _______ _____ _____    ______ ____

>  <TORSDO>
F 4

$$$$
=
 OpenBabel11042414203D

 27 31  0  0  1  0  0  0  0  0999 V2000
  190.2760  174.2070  141.4560 C   0  0  0  0  0  2  0  0  0  0  0  0
  193.2810  172.9680  144.8370 C   0  0  0  0  0  3  0  0  0  0  0  0
  190.3100  174.1790  145.2530 C   0  0  2  0  0  3  0  0  0  0  0  0
  191.6170  172.8440  142.9680 C   0  0  2  0  0  3  0  0  0  0  0  0
  190.2230  172.7700  141.0060 C   0  0  0  0  0  2  0  0  0  0  0  0
  191.8210  176.0750  145.9210 C   0  0  2  0  0  3  0  0  0  0  0  0
  188.5690  175.8830  145.1440 C   0  0  1  0  0  3  0  0  0  0  0  0
  193.9220  172.1410  142.7390 O   0  0  0  0  0  1  0  0  0  0  0  0
  191.0450  176.1880  147.2010 C   0  0  0  0  0  0  0  0  0  0  0  0
  193.0830  173.0720  143.3550 C   0  0  2  0  0  3  0  0  0  0  0  0
  189.8300  174.2980  143.8690 N   0  0  1  0  0  0  0  0  0  0  0  0
  191.5770  176.9100  148.3950 C   0  0  0  0  0  1  0  0  0  0  0  0
  189.2360  175.6270  143.8060 C   0  0  0  0  0  2  0  0  0  0  0  0
  192.6750  173.7280  145.7470 C   0  0  0  0  0  3  0  0  0  0  0  0
  189.8870  175.6260  147.2630 N   0  0  0  0  0  0  0  0  0  0  0  0
  189.2850  174.9430  146.1210 C   0  0  2  0  0  3  0  0  0  0  0  0
  191.6800  174.7040  145.4190 N   0  0  0  0  0  0  0  0  0  0  0  0
  191.4510  172.1480  141.6250 C   0  0  0  0  0  2  0  0  0  0  0  0
  190.8870  174.1880  142.8530 C   0  0  2  0  0  3  0  0  0  0  0  0
  193.2700  176.5410  146.0130 C   0  0  0  0  0  2  0  0  0  0  0  0
  193.8400  176.6790  144.6390 C   0  0  0  0  0  3  0  0  0  0  0  0
  195.0870  176.4670  144.4430 N   0  0  0  0  0  2  0  0  0  0  0  0
  188.6330  177.3660  145.4980 C   0  0  0  0  0  2  0  0  0  0  0  0
  186.2010  176.9620  145.3680 C   0  0  0  0  0  2  0  0  0  0  0  0
  185.4280  179.2900  145.0900 C   0  0  0  0  0  1  0  0  0  0  0  0
  187.2700  177.8730  145.9290 C   0  0  2  0  0  3  0  0  0  0  0  0
  186.4970  178.2870  144.6980 C   0  0  1  0  0  3  0  0  0  0  0  0
  2 14  2  0  0  0  0
  3 17  1  6  0  0  0
  3 16  1  0  0  0  0
  4 18  1  6  0  0  0
  4 10  1  0  0  0  0
  5  1  1  0  0  0  0
  5 18  1  0  0  0  0
  6 20  1  1  0  0  0
  6  9  1  0  0  0  0
  7 23  1  1  0  0  0
  7 16  1  0  0  0  0
  9 15  2  0  0  0  0
  9 12  1  0  0  0  0
 10  8  1  6  0  0  0
 10  2  1  0  0  0  0
 11 13  1  1  0  0  0
 11  3  1  0  0  0  0
 13  7  1  0  0  0  0
 16 15  1  1  0  0  0
 17 14  1  0  0  0  0
 17  6  1  0  0  0  0
 19  1  1  6  0  0  0
 19  4  1  0  0  0  0
 19 11  1  0  0  0  0
 21 20  1  0  0  0  0
 22 21  2  0  0  0  0
 24 26  1  0  0  0  0
 26 23  1  6  0  0  0
 27 25  1  1  0  0  0
 27 24  1  0  0  0  0
 27 26  1  0  0  0  0
M  END
>  <MODEL>
7

>  <REMARK>
 VINA RESULT:      -6.3      1.959      4.277
  Name = 
  4 active torsions:
  status: ('A' for Active; 'I' for Inactive)
    1  A    between atoms: C_5  and  C_8
    2  A    between atoms: C_8  and  C_9
    3  A    between atoms: C_10  and  C_18
    4  A    between atoms: C_18  and  C_20
                            x       y       z     vdW  Elec       q    Type
                         _______ _______ _______ _____ _____    ______ ____

>  <TORSDO>
F 4

$$$$
=
 OpenBabel11042414203D

 27 31  0  0  1  0  0  0  0  0999 V2000
  186.5480  178.0310  145.5270 C   0  0  0  0  0  2  0  0  0  0  0  0
  188.3120  176.1770  141.5970 C   0  0  0  0  0  3  0  0  0  0  0  0
  188.5710  174.9600  144.5840 C   0  0  2  0  0  3  0  0  0  0  0  0
  186.6990  176.8960  143.3760 C   0  0  2  0  0  3  0  0  0  0  0  0
  185.1610  177.8310  144.9740 C   0  0  0  0  0  2  0  0  0  0  0  0
  190.8850  175.8120  144.0880 C   0  0  2  0  0  3  0  0  0  0  0  0
  189.3170  174.9080  146.9060 C   0  0  1  0  0  3  0  0  0  0  0  0
  186.7340  177.8530  141.1530 O   0  0  0  0  0  1  0  0  0  0  0  0
  191.4220  174.4690  144.4900 C   0  0  0  0  0  0  0  0  0  0  0  0
  187.5380  177.3270  142.1660 C   0  0  2  0  0  3  0  0  0  0  0  0
  187.7760  175.9100  145.3730 N   0  0  1  0  0  0  0  0  0  0  0  0
  192.7930  174.0120  144.1140 C   0  0  0  0  0  1  0  0  0  0  0  0
  188.6030  176.1950  146.5380 C   0  0  0  0  0  2  0  0  0  0  0  0
  189.2110  175.4530  142.2620 C   0  0  0  0  0  3  0  0  0  0  0  0
  190.6570  173.6870  145.1720 N   0  0  0  0  0  0  0  0  0  0  0  0
  189.3220  174.0840  145.6130 C   0  0  2  0  0  3  0  0  0  0  0  0
  189.4950  175.6390  143.6540 N   0  0  0  0  0  0  0  0  0  0  0  0
  185.3830  177.6480  143.4920 C   0  0  0  0  0  2  0  0  0  0  0  0
  187.4700  177.1670  144.6740 C   0  0  2  0  0  3  0  0  0  0  0  0
  191.7470  176.5640  143.0800 C   0  0  0  0  0  2  0  0  0  0  0  0
  191.9670  177.9630  143.5540 C   0  0  0  0  0  3  0  0  0  0  0  0
  190.9630  178.7070  143.8320 N   0  0  0  0  0  2  0  0  0  0  0  0
  190.6920  175.2080  147.4950 C   0  0  0  0  0  2  0  0  0  0  0  0
  192.3380  177.0410  147.6510 C   0  0  0  0  0  2  0  0  0  0  0  0
  191.3540  178.2960  149.5350 C   0  0  0  0  0  1  0  0  0  0  0  0
  190.8670  176.6980  147.7150 C   0  0  2  0  0  3  0  0  0  0  0  0
  191.6480  176.9100  148.9910 C   0  0  1  0  0  3  0  0  0  0  0  0
  2 10  1  0  0  0  0
  2 14  2  0  0  0  0
  3 17  1  6  0  0  0
  3 11  1  0  0  0  0
  3 16  1  0  0  0  0
  4 18  1  1  0  0  0
  4 19  1  0  0  0  0
  5  1  1  0  0  0  0
  6 20  1  6  0  0  0
  6  9  1  0  0  0  0
  7 23  1  6  0  0  0
  9 15  2  0  0  0  0
 10  8  1  6  0  0  0
 10  4  1  0  0  0  0
 11 13  1  1  0  0  0
 12  9  1  0  0  0  0
 13  7  1  0  0  0  0
 14 17  1  0  0  0  0
 16 15  1  6  0  0  0
 16  7  1  0  0  0  0
 17  6  1  0  0  0  0
 18  5  1  0  0  0  0
 19 11  1  0  0  0  0
 19  1  1  1  0  0  0
 20 21  1  0  0  0  0
 21 22  2  0  0  0  0
 24 26  1  0  0  0  0
 24 27  1  0  0  0  0
 26 23  1  1  0  0  0
 26 27  1  0  0  0  0
 27 25  1  6  0  0  0
M  END
>  <MODEL>
8

>  <REMARK>
 VINA RESULT:      -6.2      2.547      5.628
  Name = 
  4 active torsions:
  status: ('A' for Active; 'I' for Inactive)
    1  A    between atoms: C_5  and  C_8
    2  A    between atoms: C_8  and  C_9
    3  A    between atoms: C_10  and  C_18
    4  A    between atoms: C_18  and  C_20
                            x       y       z     vdW  Elec       q    Type
                         _______ _______ _______ _____ _____    ______ ____

>  <TORSDO>
F 4

$$$$
=
 OpenBabel11042414203D

 27 31  0  0  1  0  0  0  0  0999 V2000
  191.5810  177.8940  143.9810 C   0  0  0  0  0  2  0  0  0  0  0  0
  189.8870  175.0580  147.3100 C   0  0  0  0  0  3  0  0  0  0  0  0
  188.3410  176.0250  144.6370 C   0  0  2  0  0  3  0  0  0  0  0  0
  191.2020  175.9190  145.3580 C   0  0  2  0  0  3  0  0  0  0  0  0
  192.6290  176.8590  143.6630 C   0  0  0  0  0  2  0  0  0  0  0  0
  187.1960  177.2990  146.4780 C   0  0  2  0  0  3  0  0  0  0  0  0
  187.2730  177.6320  143.1460 C   0  0  1  0  0  3  0  0  0  0  0  0
  192.2090  175.3300  147.4790 O   0  0  0  0  0  1  0  0  0  0  0  0
  185.8820  176.8060  145.9460 C   0  0  0  0  0  0  0  0  0  0  0  0
  191.0680  175.8750  146.8850 C   0  0  2  0  0  3  0  0  0  0  0  0
  189.3730  176.8190  143.9560 N   0  0  1  0  0  0  0  0  0  0  0  0
  184.6300  176.8370  146.7600 C   0  0  0  0  0  1  0  0  0  0  0  0
  188.6810  178.0330  143.5430 C   0  0  0  0  0  2  0  0  0  0  0  0
  188.6230  175.3020  146.9700 C   0  0  0  0  0  3  0  0  0  0  0  0
  185.8500  176.3290  144.7490 N   0  0  0  0  0  0  0  0  0  0  0  0
  187.0240  176.3090  143.8810 C   0  0  2  0  0  3  0  0  0  0  0  0
  188.2400  176.3520  146.0730 N   0  0  0  0  0  0  0  0  0  0  0  0
  192.6450  175.9700  144.8820 C   0  0  0  0  0  2  0  0  0  0  0  0
  190.5180  177.1760  144.8070 C   0  0  2  0  0  3  0  0  0  0  0  0
  187.2020  177.6070  147.9710 C   0  0  0  0  0  2  0  0  0  0  0  0
  187.1170  179.0840  148.1780 C   0  0  0  0  0  3  0  0  0  0  0  0
  186.0820  179.7240  147.7830 N   0  0  0  0  0  2  0  0  0  0  0  0
  186.2880  178.7530  143.4660 C   0  0  0  0  0  2  0  0  0  0  0  0
  184.1230  178.1840  142.4260 C   0  0  0  0  0  2  0  0  0  0  0  0
  184.8350  178.0730  140.0650 C   0  0  0  0  0  1  0  0  0  0  0  0
  185.3760  179.0180  142.2830 C   0  0  2  0  0  3  0  0  0  0  0  0
  185.2280  177.7380  141.4920 C   0  0  1  0  0  3  0  0  0  0  0  0
  3 17  1  1  0  0  0
  4 18  1  1  0  0  0
  4 10  1  0  0  0  0
  5  1  1  0  0  0  0
  5 18  1  0  0  0  0
  6 20  1  1  0  0  0
  7 23  1  1  0  0  0
  7 13  1  0  0  0  0
  7 16  1  0  0  0  0
  9  6  1  0  0  0  0
  9 12  1  0  0  0  0
 10  2  1  0  0  0  0
 10  8  1  1  0  0  0
 11 13  1  1  0  0  0
 11  3  1  0  0  0  0
 11 19  1  0  0  0  0
 14  2  2  0  0  0  0
 15  9  2  0  0  0  0
 16  3  1  0  0  0  0
 16 15  1  1  0  0  0
 17  6  1  0  0  0  0
 17 14  1  0  0  0  0
 19  1  1  6  0  0  0
 19  4  1  0  0  0  0
 20 21  1  0  0  0  0
 22 21  2  0  0  0  0
 26 24  1  0  0  0  0
 26 23  1  1  0  0  0
 27 25  1  6  0  0  0
 27 26  1  0  0  0  0
 27 24  1  0  0  0  0
M  END
>  <MODEL>
9

>  <REMARK>
 VINA RESULT:      -6.1      2.572      4.728
  Name = 
  4 active torsions:
  status: ('A' for Active; 'I' for Inactive)
    1  A    between atoms: C_5  and  C_8
    2  A    between atoms: C_8  and  C_9
    3  A    between atoms: C_10  and  C_18
    4  A    between atoms: C_18  and  C_20
                            x       y       z     vdW  Elec       q    Type
                         _______ _______ _______ _____ _____    ______ ____

>  <TORSDO>
F 4

$$$$
