=
 OpenBabel11042419573D

 41 44  0  0  1  0  0  0  0  0999 V2000
  190.5050  173.7590  140.8080 N   0  0  0  0  0  0  0  0  0  0  0  0
  189.7760  174.5470  141.8420 C   0  0  2  0  0  3  0  0  0  0  0  0
  189.5310  173.1920  141.7870 C   0  0  2  0  0  3  0  0  0  0  0  0
  191.4500  173.6770  139.7430 C   0  0  0  0  0  0  0  0  0  0  0  0
  189.5470  171.8690  135.6960 N   0  0  0  0  0  2  0  0  0  0  0  0
  191.7330  172.4540  136.4480 N   0  0  0  0  0  0  0  0  0  0  0  0
  193.7470  174.0360  139.0600 C   0  0  0  0  0  3  0  0  0  0  0  0
  193.4800  173.4460  137.7760 N   0  0  0  0  0  2  0  0  0  0  0  0
  189.9010  172.5930  138.0000 C   0  0  0  0  0  0  0  0  0  0  0  0
  192.8020  174.1370  139.9610 N   0  0  0  0  0  0  0  0  0  0  0  0
  191.1380  173.1350  138.5590 C   0  0  0  0  0  0  0  0  0  0  0  0
  190.3480  172.1720  136.6640 C   0  0  0  0  0  0  0  0  0  0  0  0
  192.1510  172.9900  137.5450 C   0  0  0  0  0  0  0  0  0  0  0  0
  188.4050  173.1850  138.3010 S   0  0  0  0  0  0  0  0  0  0  0  0
  186.3590  178.6340  142.9590 N   0  0  0  0  0  2  0  0  0  0  0  0
  185.1900  178.5270  140.9490 O   0  0  0  0  0  0  0  0  0  0  0  0
  187.9840  176.3300  141.8660 C   0  0  0  0  0  0  0  0  0  0  0  0
  188.3190  176.6870  143.0650 N   0  0  0  0  0  2  0  0  0  0  0  0
  186.1150  178.0660  141.6690 C   0  0  0  0  0  0  0  0  0  0  0  0
  188.6820  175.2690  141.2110 N   0  0  0  0  0  2  0  0  0  0  0  0
  186.9080  176.9790  141.1770 N   0  0  0  0  0  2  0  0  0  0  0  0
  185.6250  179.6740  143.4260 O   0  0  0  0  0  0  0  0  0  0  0  0
  185.5880  179.4980  144.8120 C   0  0  0  0  0  2  0  0  0  0  0  0
  184.2870  178.8310  145.2200 C   0  0  0  0  0  2  0  0  0  0  0  0
  184.5120  177.9260  146.4200 C   0  0  0  0  0  2  0  0  0  0  0  0
  185.4240  176.7700  146.0470 C   0  0  0  0  0  2  0  0  0  0  0  0
  186.6970  176.8130  146.8720 C   0  0  0  0  0  1  0  0  0  0  0  0
  190.2950  172.4790  142.8880 C   0  0  0  0  0  2  0  0  0  0  0  0
  189.3730  172.1580  144.0500 C   0  0  0  0  0  2  0  0  0  0  0  0
  189.9370  172.7290  145.3390 C   0  0  0  0  0  2  0  0  0  0  0  0
  190.8980  174.8960  146.0190 C   0  0  1  0  0  3  0  0  0  0  0  0
  189.6360  174.6750  146.8270 C   0  0  0  0  0  2  0  0  0  0  0  0
  189.6980  174.2230  145.3830 C   0  0  2  0  0  3  0  0  0  0  0  0
  190.9550  176.3150  145.5660 C   0  0  0  0  0  3  0  0  0  0  0  0
  191.9860  176.7900  144.8750 C   0  0  0  0  0  3  0  0  0  0  0  0
  193.0670  175.9780  144.5440 O   0  0  0  0  0  0  0  0  0  0  0  0
  194.6450  177.7400  145.6940 O   0  0  0  0  0  0  0  0  0  0  0  0
  194.6360  176.3380  145.1320 P   0  0  1  0  0  0  0  0  0  0  0  0
  195.0490  175.2430  146.3530 O   0  0  0  0  0  1  0  0  0  0  0  0
  195.8480  176.2300  143.7840 C   0  0  0  0  0  2  0  0  0  0  0  0
  195.8530  174.9390  143.2580 O   0  0  0  0  0  1  0  0  0  0  0  0
  1  3  1  0  0  0  0
  1  2  1  0  0  0  0
  2 20  1  6  0  0  0
  3  2  1  0  0  0  0
  3 28  1  1  0  0  0
  4 10  1  0  0  0  0
  4  1  1  0  0  0  0
  5 12  2  0  0  0  0
  6 12  1  0  0  0  0
  6 13  2  0  0  0  0
  7 10  2  0  0  0  0
  8  7  1  0  0  0  0
  9 14  2  0  0  0  0
  9 11  1  0  0  0  0
 11  4  2  0  0  0  0
 12  9  1  0  0  0  0
 13  8  1  0  0  0  0
 13 11  1  0  0  0  0
 15 22  1  0  0  0  0
 16 19  2  0  0  0  0
 17 18  2  0  0  0  0
 19 15  1  0  0  0  0
 20 17  1  0  0  0  0
 21 19  1  0  0  0  0
 21 17  1  0  0  0  0
 22 23  1  0  0  0  0
 23 24  1  0  0  0  0
 24 25  1  0  0  0  0
 26 25  1  0  0  0  0
 26 27  1  0  0  0  0
 28 29  1  0  0  0  0
 29 30  1  0  0  0  0
 31 34  1  6  0  0  0
 31 32  1  0  0  0  0
 33 30  1  1  0  0  0
 33 31  1  0  0  0  0
 33 32  1  0  0  0  0
 35 34  2  0  0  0  0
 36 35  1  0  0  0  0
 36 38  1  0  0  0  0
 38 37  2  1  0  0  0
 38 39  1  0  0  0  0
 40 38  1  0  0  0  0
 41 40  1  0  0  0  0
M  END
>  <MODEL>
1

>  <REMARK>
 VINA RESULT:      -6.8      0.000      0.000
  Name = 
  15 active torsions:
  status: ('A' for Active; 'I' for Inactive)
    1  A    between atoms: C_1  and  P_20
    2  A    between atoms: C_2  and  N_8
    3  A    between atoms: N_4  and  O_27
    4  A    between atoms: C_6  and  C_13
    5  A    between atoms: C_7  and  C_40
    6  A    between atoms: C_7  and  C_41
    7  A    between atoms: C_14  and  C_22
    8  A    between atoms: C_14  and  C_41
    9  A    between atoms: C_17  and  O_33
   10  A    between atoms: C_19  and  O_27
   11  A    between atoms: C_19  and  C_31
   12  A    between atoms: P_20  and  O_33
   13  A    between atoms: C_21  and  N_36
   14  A    between atoms: C_28  and  C_29
   15  A    between atoms: C_29  and  C_31
                            x       y       z     vdW  Elec       q    Type
                         _______ _______ _______ _____ _____    ______ ____

>  <TORSDO>
F 15

$$$$
=
 OpenBabel11042419573D

 41 44  0  0  1  0  0  0  0  0999 V2000
  190.7930  173.6300  142.8570 N   0  0  0  0  0  0  0  0  0  0  0  0
  190.1240  174.9030  143.2480 C   0  0  2  0  0  3  0  0  0  0  0  0
  189.5940  173.7310  143.7400 C   0  0  2  0  0  3  0  0  0  0  0  0
  191.8300  172.9270  142.1760 C   0  0  0  0  0  0  0  0  0  0  0  0
  195.2300  175.8630  140.4170 N   0  0  0  0  0  2  0  0  0  0  0  0
  194.7160  173.5410  140.2440 N   0  0  0  0  0  0  0  0  0  0  0  0
  192.6510  170.7680  141.4410 C   0  0  0  0  0  3  0  0  0  0  0  0
  193.7350  171.3970  140.7350 N   0  0  0  0  0  2  0  0  0  0  0  0
  193.1960  174.9760  141.4330 C   0  0  0  0  0  0  0  0  0  0  0  0
  191.7760  171.4850  142.1020 N   0  0  0  0  0  0  0  0  0  0  0  0
  192.8290  173.5660  141.5530 C   0  0  0  0  0  0  0  0  0  0  0  0
  194.3940  174.8910  140.5860 C   0  0  0  0  0  0  0  0  0  0  0  0
  193.8030  172.8170  140.8000 C   0  0  0  0  0  0  0  0  0  0  0  0
  193.0090  176.0910  142.6170 S   0  0  0  0  0  0  0  0  0  0  0  0
  185.6650  177.9070  142.4010 N   0  0  0  0  0  2  0  0  0  0  0  0
  185.6580  177.6800  140.0850 O   0  0  0  0  0  0  0  0  0  0  0  0
  188.1440  176.1770  142.3280 C   0  0  0  0  0  0  0  0  0  0  0  0
  187.7680  176.5060  143.5230 N   0  0  0  0  0  2  0  0  0  0  0  0
  186.2160  177.4050  141.1800 C   0  0  0  0  0  0  0  0  0  0  0  0
  189.3160  175.3810  142.1380 N   0  0  0  0  0  2  0  0  0  0  0  0
  187.3960  176.5940  141.1790 N   0  0  0  0  0  2  0  0  0  0  0  0
  184.5580  178.6890  142.4100 O   0  0  0  0  0  0  0  0  0  0  0  0
  184.1820  178.7700  143.7540 C   0  0  0  0  0  2  0  0  0  0  0  0
  185.3660  179.1950  144.6040 C   0  0  0  0  0  2  0  0  0  0  0  0
  185.1160  178.8570  146.0640 C   0  0  0  0  0  2  0  0  0  0  0  0
  185.1260  177.3520  146.2680 C   0  0  0  0  0  2  0  0  0  0  0  0
  186.4410  176.9100  146.8830 C   0  0  0  0  0  1  0  0  0  0  0  0
  190.0230  173.5280  145.1820 C   0  0  0  0  0  2  0  0  0  0  0  0
  189.2610  174.4660  146.0990 C   0  0  0  0  0  2  0  0  0  0  0  0
  190.1430  174.8970  147.2570 C   0  0  0  0  0  2  0  0  0  0  0  0
  192.3940  175.9010  147.2180 C   0  0  1  0  0  3  0  0  0  0  0  0
  191.5210  176.7580  148.1110 C   0  0  0  0  0  2  0  0  0  0  0  0
  190.9380  176.1240  146.8660 C   0  0  2  0  0  3  0  0  0  0  0  0
  193.2410  176.7790  146.3610 C   0  0  0  0  0  3  0  0  0  0  0  0
  194.4960  176.4650  146.0580 C   0  0  0  0  0  3  0  0  0  0  0  0
  195.0810  175.2950  146.5340 O   0  0  0  0  0  0  0  0  0  0  0  0
  196.7010  175.1040  144.4710 O   0  0  0  0  0  0  0  0  0  0  0  0
  195.9470  174.2630  145.4750 P   0  0  1  0  0  0  0  0  0  0  0  0
  197.0460  173.3340  146.3630 O   0  0  0  0  0  1  0  0  0  0  0  0
  194.8000  173.1680  144.5920 C   0  0  0  0  0  2  0  0  0  0  0  0
  193.5960  173.0860  145.2890 O   0  0  0  0  0  1  0  0  0  0  0  0
  1  2  1  0  0  0  0
  1  3  1  0  0  0  0
  2 20  1  6  0  0  0
  2  3  1  0  0  0  0
  3 28  1  1  0  0  0
  4  1  1  0  0  0  0
  5 12  2  0  0  0  0
  6 12  1  0  0  0  0
  6 13  2  0  0  0  0
  7 10  2  0  0  0  0
  8 13  1  0  0  0  0
  8  7  1  0  0  0  0
  9 11  1  0  0  0  0
  9 14  2  0  0  0  0
 10  4  1  0  0  0  0
 11  4  2  0  0  0  0
 12  9  1  0  0  0  0
 13 11  1  0  0  0  0
 15 22  1  0  0  0  0
 16 19  2  0  0  0  0
 17 18  2  0  0  0  0
 19 15  1  0  0  0  0
 20 17  1  0  0  0  0
 21 19  1  0  0  0  0
 21 17  1  0  0  0  0
 22 23  1  0  0  0  0
 23 24  1  0  0  0  0
 24 25  1  0  0  0  0
 25 26  1  0  0  0  0
 26 27  1  0  0  0  0
 28 29  1  0  0  0  0
 29 30  1  0  0  0  0
 31 34  1  6  0  0  0
 31 32  1  0  0  0  0
 33 31  1  0  0  0  0
 33 30  1  1  0  0  0
 33 32  1  0  0  0  0
 35 34  2  0  0  0  0
 35 36  1  0  0  0  0
 38 37  2  6  0  0  0
 38 39  1  0  0  0  0
 38 36  1  0  0  0  0
 40 41  1  0  0  0  0
 40 38  1  0  0  0  0
M  END
>  <MODEL>
2

>  <REMARK>
 VINA RESULT:      -6.7      2.613      3.245
  Name = 
  15 active torsions:
  status: ('A' for Active; 'I' for Inactive)
    1  A    between atoms: C_1  and  P_20
    2  A    between atoms: C_2  and  N_8
    3  A    between atoms: N_4  and  O_27
    4  A    between atoms: C_6  and  C_13
    5  A    between atoms: C_7  and  C_40
    6  A    between atoms: C_7  and  C_41
    7  A    between atoms: C_14  and  C_22
    8  A    between atoms: C_14  and  C_41
    9  A    between atoms: C_17  and  O_33
   10  A    between atoms: C_19  and  O_27
   11  A    between atoms: C_19  and  C_31
   12  A    between atoms: P_20  and  O_33
   13  A    between atoms: C_21  and  N_36
   14  A    between atoms: C_28  and  C_29
   15  A    between atoms: C_29  and  C_31
                            x       y       z     vdW  Elec       q    Type
                         _______ _______ _______ _____ _____    ______ ____

>  <TORSDO>
F 15

$$$$
=
 OpenBabel11042419573D

 41 44  0  0  1  0  0  0  0  0999 V2000
  189.7570  173.3540  140.6730 N   0  0  0  0  0  0  0  0  0  0  0  0
  189.5460  174.6000  141.4650 C   0  0  2  0  0  3  0  0  0  0  0  0
  189.1460  173.4110  142.0340 C   0  0  2  0  0  3  0  0  0  0  0  0
  190.2350  172.6870  139.5080 C   0  0  0  0  0  0  0  0  0  0  0  0
  194.6970  174.0440  138.2780 N   0  0  0  0  0  2  0  0  0  0  0  0
  192.9860  172.7020  137.3010 N   0  0  0  0  0  0  0  0  0  0  0  0
  189.7270  171.1000  137.7470 C   0  0  0  0  0  3  0  0  0  0  0  0
  190.9810  171.3830  137.1020 N   0  0  0  0  0  2  0  0  0  0  0  0
  192.5080  173.8770  139.3440 C   0  0  0  0  0  0  0  0  0  0  0  0
  189.3920  171.7090  138.8580 N   0  0  0  0  0  0  0  0  0  0  0  0
  191.4230  172.9770  138.9620 C   0  0  0  0  0  0  0  0  0  0  0  0
  193.4630  173.6610  138.2480 C   0  0  0  0  0  0  0  0  0  0  0  0
  191.8230  172.3420  137.7310 C   0  0  0  0  0  0  0  0  0  0  0  0
  192.9650  174.1820  140.8860 S   0  0  0  0  0  0  0  0  0  0  0  0
  186.2020  178.6420  142.9140 N   0  0  0  0  0  2  0  0  0  0  0  0
  184.8470  178.5230  141.0250 O   0  0  0  0  0  0  0  0  0  0  0  0
  187.7430  176.3600  141.6640 C   0  0  0  0  0  0  0  0  0  0  0  0
  188.1870  176.7200  142.8270 N   0  0  0  0  0  2  0  0  0  0  0  0
  185.8420  178.0730  141.6520 C   0  0  0  0  0  0  0  0  0  0  0  0
  188.3890  175.3090  140.9430 N   0  0  0  0  0  2  0  0  0  0  0  0
  186.5980  176.9970  141.0840 N   0  0  0  0  0  2  0  0  0  0  0  0
  185.5030  179.6720  143.4520 O   0  0  0  0  0  0  0  0  0  0  0  0
  185.5880  179.4850  144.8340 C   0  0  0  0  0  2  0  0  0  0  0  0
  184.2620  178.9790  145.3760 C   0  0  0  0  0  2  0  0  0  0  0  0
  184.4890  178.1310  146.6160 C   0  0  0  0  0  2  0  0  0  0  0  0
  185.2580  176.8710  146.2630 C   0  0  0  0  0  2  0  0  0  0  0  0
  186.5230  176.7720  147.0960 C   0  0  0  0  0  1  0  0  0  0  0  0
  190.1700  172.9510  143.0550 C   0  0  0  0  0  2  0  0  0  0  0  0
  189.4950  172.1730  144.1700 C   0  0  0  0  0  2  0  0  0  0  0  0
  189.8390  172.7820  145.5170 C   0  0  0  0  0  2  0  0  0  0  0  0
  190.8540  174.9820  145.9760 C   0  0  1  0  0  3  0  0  0  0  0  0
  189.6520  174.8280  146.8850 C   0  0  0  0  0  2  0  0  0  0  0  0
  189.6090  174.2780  145.4750 C   0  0  2  0  0  3  0  0  0  0  0  0
  190.8840  176.3660  145.4230 C   0  0  0  0  0  3  0  0  0  0  0  0
  191.7850  176.7420  144.5200 C   0  0  0  0  0  3  0  0  0  0  0  0
  192.7480  175.8540  144.0510 O   0  0  0  0  0  0  0  0  0  0  0  0
  194.6480  174.6910  145.4500 O   0  0  0  0  0  1  0  0  0  0  0  0
  194.3580  175.9290  144.6340 P   0  0  1  0  0  0  0  0  0  0  0  0
  195.4300  176.0030  143.3290 O   0  0  0  0  0  0  0  0  0  0  0  0
  194.5740  177.3960  145.6820 C   0  0  0  0  0  2  0  0  0  0  0  0
  194.1470  177.1150  146.9780 O   0  0  0  0  0  1  0  0  0  0  0  0
  1  2  1  0  0  0  0
  1  3  1  0  0  0  0
  2 20  1  6  0  0  0
  2  3  1  0  0  0  0
  3 28  1  1  0  0  0
  4  1  1  0  0  0  0
  6 13  2  0  0  0  0
  6 12  1  0  0  0  0
  7 10  2  0  0  0  0
  8 13  1  0  0  0  0
  8  7  1  0  0  0  0
  9 14  2  0  0  0  0
 10  4  1  0  0  0  0
 11  9  1  0  0  0  0
 11  4  2  0  0  0  0
 12  5  2  0  0  0  0
 12  9  1  0  0  0  0
 13 11  1  0  0  0  0
 15 22  1  0  0  0  0
 16 19  2  0  0  0  0
 17 18  2  0  0  0  0
 19 15  1  0  0  0  0
 20 17  1  0  0  0  0
 21 19  1  0  0  0  0
 21 17  1  0  0  0  0
 22 23  1  0  0  0  0
 23 24  1  0  0  0  0
 24 25  1  0  0  0  0
 26 25  1  0  0  0  0
 26 27  1  0  0  0  0
 28 29  1  0  0  0  0
 29 30  1  0  0  0  0
 31 34  1  6  0  0  0
 31 32  1  0  0  0  0
 33 30  1  1  0  0  0
 33 31  1  0  0  0  0
 33 32  1  0  0  0  0
 35 34  2  0  0  0  0
 36 35  1  0  0  0  0
 36 38  1  0  0  0  0
 38 39  2  6  0  0  0
 38 37  1  0  0  0  0
 38 40  1  0  0  0  0
 40 41  1  0  0  0  0
M  END
>  <MODEL>
3

>  <REMARK>
 VINA RESULT:      -6.7      1.262      2.230
  Name = 
  15 active torsions:
  status: ('A' for Active; 'I' for Inactive)
    1  A    between atoms: C_1  and  P_20
    2  A    between atoms: C_2  and  N_8
    3  A    between atoms: N_4  and  O_27
    4  A    between atoms: C_6  and  C_13
    5  A    between atoms: C_7  and  C_40
    6  A    between atoms: C_7  and  C_41
    7  A    between atoms: C_14  and  C_22
    8  A    between atoms: C_14  and  C_41
    9  A    between atoms: C_17  and  O_33
   10  A    between atoms: C_19  and  O_27
   11  A    between atoms: C_19  and  C_31
   12  A    between atoms: P_20  and  O_33
   13  A    between atoms: C_21  and  N_36
   14  A    between atoms: C_28  and  C_29
   15  A    between atoms: C_29  and  C_31
                            x       y       z     vdW  Elec       q    Type
                         _______ _______ _______ _____ _____    ______ ____

>  <TORSDO>
F 15

$$$$
=
 OpenBabel11042419573D

 41 44  0  0  1  0  0  0  0  0999 V2000
  187.9240  176.8250  145.4010 N   0  0  0  0  0  0  0  0  0  0  0  0
  188.8650  175.6700  145.3940 C   0  0  2  0  0  3  0  0  0  0  0  0
  189.4090  176.9320  145.2980 C   0  0  2  0  0  3  0  0  0  0  0  0
  186.6020  177.3530  145.4900 C   0  0  0  0  0  0  0  0  0  0  0  0
  184.7140  178.3920  141.1750 N   0  0  0  0  0  2  0  0  0  0  0  0
  184.0880  178.7490  143.4480 N   0  0  0  0  0  0  0  0  0  0  0  0
  184.8030  178.0340  146.9640 C   0  0  0  0  0  3  0  0  0  0  0  0
  184.0420  178.5210  145.8450 N   0  0  0  0  0  2  0  0  0  0  0  0
  186.2340  177.7690  142.9790 C   0  0  0  0  0  0  0  0  0  0  0  0
  185.9850  177.4980  146.7890 N   0  0  0  0  0  0  0  0  0  0  0  0
  185.9320  177.7730  144.4090 C   0  0  0  0  0  0  0  0  0  0  0  0
  185.0300  178.4080  142.4270 C   0  0  0  0  0  0  0  0  0  0  0  0
  184.6360  178.3840  144.5580 C   0  0  0  0  0  0  0  0  0  0  0  0
  187.0580  176.5850  142.2040 S   0  0  0  0  0  0  0  0  0  0  0  0
  190.8740  171.2640  142.9080 N   0  0  0  0  0  2  0  0  0  0  0  0
  189.9720  171.7370  140.8150 O   0  0  0  0  0  0  0  0  0  0  0  0
  189.5470  173.8310  143.7990 C   0  0  0  0  0  0  0  0  0  0  0  0
  190.2330  173.2440  144.7280 N   0  0  0  0  0  2  0  0  0  0  0  0
  190.1080  172.0810  142.0190 C   0  0  0  0  0  0  0  0  0  0  0  0
  188.8440  175.0420  144.0820 N   0  0  0  0  0  2  0  0  0  0  0  0
  189.4850  173.2880  142.4740 N   0  0  0  0  0  2  0  0  0  0  0  0
  191.4530  170.1120  142.4900 O   0  0  0  0  0  0  0  0  0  0  0  0
  192.8290  170.3550  142.5500 C   0  0  0  0  0  2  0  0  0  0  0  0
  193.1870  171.0090  143.8720 C   0  0  0  0  0  2  0  0  0  0  0  0
  194.6660  170.8250  144.1680 C   0  0  0  0  0  2  0  0  0  0  0  0
  194.9660  171.1820  145.6130 C   0  0  0  0  0  2  0  0  0  0  0  0
  196.4310  170.9420  145.9240 C   0  0  0  0  0  1  0  0  0  0  0  0
  189.9690  177.3630  146.6400 C   0  0  0  0  0  2  0  0  0  0  0  0
  191.1090  176.4510  147.0570 C   0  0  0  0  0  2  0  0  0  0  0  0
  192.2760  176.6010  146.0980 C   0  0  0  0  0  2  0  0  0  0  0  0
  194.1750  175.2280  145.3330 C   0  0  1  0  0  3  0  0  0  0  0  0
  193.2030  174.3140  146.0490 C   0  0  0  0  0  2  0  0  0  0  0  0
  193.4250  175.7250  146.5510 C   0  0  2  0  0  3  0  0  0  0  0  0
  195.5700  174.8790  145.7300 C   0  0  0  0  0  3  0  0  0  0  0  0
  196.5030  174.5830  144.8310 C   0  0  0  0  0  3  0  0  0  0  0  0
  196.2160  174.5820  143.4690 O   0  0  0  0  0  0  0  0  0  0  0  0
  196.9990  177.0910  143.3850 O   0  0  0  0  0  1  0  0  0  0  0  0
  196.6250  175.9300  142.4940 P   0  0  1  0  0  0  0  0  0  0  0  0
  197.9410  175.5370  141.5060 O   0  0  0  0  0  0  0  0  0  0  0  0
  195.2110  176.4060  141.4600 C   0  0  0  0  0  2  0  0  0  0  0  0
  194.6570  175.2710  140.8700 O   0  0  0  0  0  1  0  0  0  0  0  0
  1  4  1  0  0  0  0
  2 20  1  6  0  0  0
  2  1  1  0  0  0  0
  3  2  1  0  0  0  0
  3  1  1  0  0  0  0
  3 28  1  1  0  0  0
  4 10  1  0  0  0  0
  5 12  2  0  0  0  0
  6 13  2  0  0  0  0
  8  7  1  0  0  0  0
  9 11  1  0  0  0  0
 10  7  2  0  0  0  0
 11 13  1  0  0  0  0
 11  4  2  0  0  0  0
 12  9  1  0  0  0  0
 12  6  1  0  0  0  0
 13  8  1  0  0  0  0
 14  9  2  0  0  0  0
 16 19  2  0  0  0  0
 17 20  1  0  0  0  0
 17 18  2  0  0  0  0
 19 21  1  0  0  0  0
 19 15  1  0  0  0  0
 21 17  1  0  0  0  0
 22 23  1  0  0  0  0
 22 15  1  0  0  0  0
 23 24  1  0  0  0  0
 24 25  1  0  0  0  0
 25 26  1  0  0  0  0
 26 27  1  0  0  0  0
 28 29  1  0  0  0  0
 30 29  1  0  0  0  0
 31 34  1  1  0  0  0
 31 32  1  0  0  0  0
 31 33  1  0  0  0  0
 32 33  1  0  0  0  0
 33 30  1  6  0  0  0
 35 34  2  0  0  0  0
 36 35  1  0  0  0  0
 38 39  2  6  0  0  0
 38 37  1  0  0  0  0
 38 36  1  0  0  0  0
 40 38  1  0  0  0  0
 41 40  1  0  0  0  0
M  END
>  <MODEL>
4

>  <REMARK>
 VINA RESULT:      -6.7      3.693      7.939
  Name = 
  15 active torsions:
  status: ('A' for Active; 'I' for Inactive)
    1  A    between atoms: C_1  and  P_20
    2  A    between atoms: C_2  and  N_8
    3  A    between atoms: N_4  and  O_27
    4  A    between atoms: C_6  and  C_13
    5  A    between atoms: C_7  and  C_40
    6  A    between atoms: C_7  and  C_41
    7  A    between atoms: C_14  and  C_22
    8  A    between atoms: C_14  and  C_41
    9  A    between atoms: C_17  and  O_33
   10  A    between atoms: C_19  and  O_27
   11  A    between atoms: C_19  and  C_31
   12  A    between atoms: P_20  and  O_33
   13  A    between atoms: C_21  and  N_36
   14  A    between atoms: C_28  and  C_29
   15  A    between atoms: C_29  and  C_31
                            x       y       z     vdW  Elec       q    Type
                         _______ _______ _______ _____ _____    ______ ____

>  <TORSDO>
F 15

$$$$
=
 OpenBabel11042419573D

 41 44  0  0  1  0  0  0  0  0999 V2000
  189.6640  173.4120  140.2560 N   0  0  0  0  0  0  0  0  0  0  0  0
  189.2980  174.4110  141.3010 C   0  0  2  0  0  3  0  0  0  0  0  0
  188.9150  173.1040  141.5110 C   0  0  2  0  0  3  0  0  0  0  0  0
  190.2990  173.0750  139.0250 C   0  0  0  0  0  0  0  0  0  0  0  0
  194.9160  174.4620  138.8660 N   0  0  0  0  0  2  0  0  0  0  0  0
  193.3470  173.5540  137.3170 N   0  0  0  0  0  0  0  0  0  0  0  0
  190.0320  172.0850  136.8290 C   0  0  0  0  0  3  0  0  0  0  0  0
  191.3720  172.4650  136.4720 N   0  0  0  0  0  2  0  0  0  0  0  0
  192.5910  174.1280  139.5260 C   0  0  0  0  0  0  0  0  0  0  0  0
  189.5460  172.3730  138.0110 N   0  0  0  0  0  0  0  0  0  0  0  0
  191.5590  173.4380  138.7550 C   0  0  0  0  0  0  0  0  0  0  0  0
  193.6940  174.1760  138.5570 C   0  0  0  0  0  0  0  0  0  0  0  0
  192.1280  173.1560  137.4610 C   0  0  0  0  0  0  0  0  0  0  0  0
  192.8180  173.9560  141.1390 S   0  0  0  0  0  0  0  0  0  0  0  0
  186.3100  178.6700  142.9000 N   0  0  0  0  0  2  0  0  0  0  0  0
  184.8400  178.6230  141.0980 O   0  0  0  0  0  0  0  0  0  0  0  0
  187.6250  176.2840  141.5870 C   0  0  0  0  0  0  0  0  0  0  0  0
  188.1600  176.6240  142.7170 N   0  0  0  0  0  2  0  0  0  0  0  0
  185.8400  178.1150  141.6690 C   0  0  0  0  0  0  0  0  0  0  0  0
  188.1580  175.1890  140.8410 N   0  0  0  0  0  2  0  0  0  0  0  0
  186.4900  176.9890  141.0690 N   0  0  0  0  0  2  0  0  0  0  0  0
  185.7110  179.7460  143.4670 O   0  0  0  0  0  0  0  0  0  0  0  0
  185.6880  179.4680  144.8370 C   0  0  0  0  0  2  0  0  0  0  0  0
  184.3880  178.7770  145.2080 C   0  0  0  0  0  2  0  0  0  0  0  0
  184.5130  178.1120  146.5680 C   0  0  0  0  0  2  0  0  0  0  0  0
  185.2240  176.7760  146.4410 C   0  0  0  0  0  2  0  0  0  0  0  0
  186.5600  176.8160  147.1600 C   0  0  0  0  0  1  0  0  0  0  0  0
  189.8550  172.4360  142.4970 C   0  0  0  0  0  2  0  0  0  0  0  0
  189.1640  172.2310  143.8330 C   0  0  0  0  0  2  0  0  0  0  0  0
  190.0070  172.8120  144.9530 C   0  0  0  0  0  2  0  0  0  0  0  0
  190.9330  174.9620  145.7290 C   0  0  1  0  0  3  0  0  0  0  0  0
  189.6900  174.6730  146.5440 C   0  0  0  0  0  2  0  0  0  0  0  0
  189.7370  174.2970  145.0780 C   0  0  2  0  0  3  0  0  0  0  0  0
  190.9540  176.4040  145.3480 C   0  0  0  0  0  3  0  0  0  0  0  0
  191.9770  176.9420  144.6920 C   0  0  0  0  0  3  0  0  0  0  0  0
  193.0830  176.1780  144.3320 O   0  0  0  0  0  0  0  0  0  0  0  0
  194.6200  177.8010  145.7180 O   0  0  0  0  0  0  0  0  0  0  0  0
  194.5950  176.4220  145.1010 P   0  0  1  0  0  0  0  0  0  0  0  0
  194.8080  175.2630  146.3130 O   0  0  0  0  0  1  0  0  0  0  0  0
  195.9410  176.2890  143.8900 C   0  0  0  0  0  2  0  0  0  0  0  0
  195.6210  175.3260  142.9340 O   0  0  0  0  0  1  0  0  0  0  0  0
  1  2  1  0  0  0  0
  1  3  1  0  0  0  0
  2 20  1  6  0  0  0
  2  3  1  0  0  0  0
  3 28  1  1  0  0  0
  4  1  1  0  0  0  0
  6 13  2  0  0  0  0
  6 12  1  0  0  0  0
  7 10  2  0  0  0  0
  8  7  1  0  0  0  0
  8 13  1  0  0  0  0
  9 14  2  0  0  0  0
 10  4  1  0  0  0  0
 11  4  2  0  0  0  0
 11  9  1  0  0  0  0
 12  5  2  0  0  0  0
 12  9  1  0  0  0  0
 13 11  1  0  0  0  0
 15 22  1  0  0  0  0
 16 19  2  0  0  0  0
 17 18  2  0  0  0  0
 19 15  1  0  0  0  0
 20 17  1  0  0  0  0
 21 17  1  0  0  0  0
 21 19  1  0  0  0  0
 22 23  1  0  0  0  0
 23 24  1  0  0  0  0
 24 25  1  0  0  0  0
 26 25  1  0  0  0  0
 26 27  1  0  0  0  0
 28 29  1  0  0  0  0
 29 30  1  0  0  0  0
 31 34  1  6  0  0  0
 31 32  1  0  0  0  0
 33 30  1  1  0  0  0
 33 31  1  0  0  0  0
 33 32  1  0  0  0  0
 35 34  2  0  0  0  0
 36 35  1  0  0  0  0
 36 38  1  0  0  0  0
 38 37  2  1  0  0  0
 38 39  1  0  0  0  0
 40 38  1  0  0  0  0
 41 40  1  0  0  0  0
M  END
>  <MODEL>
5

>  <REMARK>
 VINA RESULT:      -6.6      1.071      2.000
  Name = 
  15 active torsions:
  status: ('A' for Active; 'I' for Inactive)
    1  A    between atoms: C_1  and  P_20
    2  A    between atoms: C_2  and  N_8
    3  A    between atoms: N_4  and  O_27
    4  A    between atoms: C_6  and  C_13
    5  A    between atoms: C_7  and  C_40
    6  A    between atoms: C_7  and  C_41
    7  A    between atoms: C_14  and  C_22
    8  A    between atoms: C_14  and  C_41
    9  A    between atoms: C_17  and  O_33
   10  A    between atoms: C_19  and  O_27
   11  A    between atoms: C_19  and  C_31
   12  A    between atoms: P_20  and  O_33
   13  A    between atoms: C_21  and  N_36
   14  A    between atoms: C_28  and  C_29
   15  A    between atoms: C_29  and  C_31
                            x       y       z     vdW  Elec       q    Type
                         _______ _______ _______ _____ _____    ______ ____

>  <TORSDO>
F 15

$$$$
=
 OpenBabel11042419573D

 41 44  0  0  1  0  0  0  0  0999 V2000
  190.6130  174.7020  142.3800 N   0  0  0  0  0  0  0  0  0  0  0  0
  189.8790  175.8370  143.0100 C   0  0  2  0  0  3  0  0  0  0  0  0
  189.6460  174.5750  143.5110 C   0  0  2  0  0  3  0  0  0  0  0  0
  191.5550  174.2020  141.4350 C   0  0  0  0  0  0  0  0  0  0  0  0
  189.6930  170.7990  138.5670 N   0  0  0  0  0  2  0  0  0  0  0  0
  191.8630  171.7040  138.9640 N   0  0  0  0  0  0  0  0  0  0  0  0
  193.8370  174.2970  140.6250 C   0  0  0  0  0  3  0  0  0  0  0  0
  193.5830  173.2120  139.7170 N   0  0  0  0  0  2  0  0  0  0  0  0
  190.0340  172.4400  140.3410 C   0  0  0  0  0  0  0  0  0  0  0  0
  192.8940  174.7460  141.4150 N   0  0  0  0  0  0  0  0  0  0  0  0
  191.2550  173.2000  140.5970 C   0  0  0  0  0  0  0  0  0  0  0  0
  190.4880  171.5040  139.3030 C   0  0  0  0  0  0  0  0  0  0  0  0
  192.2690  172.6660  139.7230 C   0  0  0  0  0  0  0  0  0  0  0  0
  188.5210  173.0650  140.3880 S   0  0  0  0  0  0  0  0  0  0  0  0
  185.0120  178.2430  143.3930 N   0  0  0  0  0  2  0  0  0  0  0  0
  184.4860  178.0820  141.1320 O   0  0  0  0  0  0  0  0  0  0  0  0
  187.5970  176.8610  142.6480 C   0  0  0  0  0  0  0  0  0  0  0  0
  187.4760  177.1030  143.9150 N   0  0  0  0  0  2  0  0  0  0  0  0
  185.3160  177.8530  142.0510 C   0  0  0  0  0  0  0  0  0  0  0  0
  188.7790  176.2340  142.1470 N   0  0  0  0  0  2  0  0  0  0  0  0
  186.5530  177.2070  141.7300 N   0  0  0  0  0  2  0  0  0  0  0  0
  183.8510  178.8700  143.7030 O   0  0  0  0  0  0  0  0  0  0  0  0
  183.8870  179.0350  145.0910 C   0  0  0  0  0  2  0  0  0  0  0  0
  185.0750  178.2900  145.6740 C   0  0  0  0  0  2  0  0  0  0  0  0
  185.6100  179.0230  146.8930 C   0  0  0  0  0  2  0  0  0  0  0  0
  186.1060  178.0320  147.9320 C   0  0  0  0  0  2  0  0  0  0  0  0
  186.6630  176.7920  147.2570 C   0  0  0  0  0  1  0  0  0  0  0  0
  190.4180  174.3740  144.8020 C   0  0  0  0  0  2  0  0  0  0  0  0
  189.4640  174.2340  145.9740 C   0  0  0  0  0  2  0  0  0  0  0  0
  190.0400  174.9160  147.2020 C   0  0  0  0  0  2  0  0  0  0  0  0
  192.2880  175.9290  147.1590 C   0  0  1  0  0  3  0  0  0  0  0  0
  191.4010  176.8070  148.0170 C   0  0  0  0  0  2  0  0  0  0  0  0
  190.8340  176.1350  146.7840 C   0  0  2  0  0  3  0  0  0  0  0  0
  193.1400  176.7860  146.2860 C   0  0  0  0  0  3  0  0  0  0  0  0
  194.3840  176.4430  145.9650 C   0  0  0  0  0  3  0  0  0  0  0  0
  194.9490  175.2620  146.4350 O   0  0  0  0  0  0  0  0  0  0  0  0
  196.9980  173.6290  146.2050 O   0  0  0  0  0  1  0  0  0  0  0  0
  195.8990  174.2810  145.3990 P   0  0  1  0  0  0  0  0  0  0  0  0
  194.9280  173.0820  144.7050 O   0  0  0  0  0  0  0  0  0  0  0  0
  196.6430  175.2930  144.0890 C   0  0  0  0  0  2  0  0  0  0  0  0
  196.5230  174.6400  142.8640 O   0  0  0  0  0  1  0  0  0  0  0  0
  1  2  1  0  0  0  0
  1  3  1  0  0  0  0
  2 20  1  6  0  0  0
  2  3  1  0  0  0  0
  3 28  1  1  0  0  0
  4  1  1  0  0  0  0
  5 12  2  0  0  0  0
  6 12  1  0  0  0  0
  6 13  2  0  0  0  0
  7 10  2  0  0  0  0
  8 13  1  0  0  0  0
  8  7  1  0  0  0  0
  9 14  2  0  0  0  0
  9 11  1  0  0  0  0
 10  4  1  0  0  0  0
 11  4  2  0  0  0  0
 12  9  1  0  0  0  0
 13 11  1  0  0  0  0
 15 22  1  0  0  0  0
 16 19  2  0  0  0  0
 17 18  2  0  0  0  0
 19 15  1  0  0  0  0
 20 17  1  0  0  0  0
 21 19  1  0  0  0  0
 21 17  1  0  0  0  0
 22 23  1  0  0  0  0
 23 24  1  0  0  0  0
 24 25  1  0  0  0  0
 25 26  1  0  0  0  0
 27 26  1  0  0  0  0
 28 29  1  0  0  0  0
 29 30  1  0  0  0  0
 31 34  1  6  0  0  0
 31 32  1  0  0  0  0
 33 31  1  0  0  0  0
 33 30  1  1  0  0  0
 33 32  1  0  0  0  0
 35 34  2  0  0  0  0
 35 36  1  0  0  0  0
 38 39  2  6  0  0  0
 38 37  1  0  0  0  0
 38 36  1  0  0  0  0
 40 38  1  0  0  0  0
 41 40  1  0  0  0  0
M  END
>  <MODEL>
6

>  <REMARK>
 VINA RESULT:      -6.5      1.712      2.173
  Name = 
  15 active torsions:
  status: ('A' for Active; 'I' for Inactive)
    1  A    between atoms: C_1  and  P_20
    2  A    between atoms: C_2  and  N_8
    3  A    between atoms: N_4  and  O_27
    4  A    between atoms: C_6  and  C_13
    5  A    between atoms: C_7  and  C_40
    6  A    between atoms: C_7  and  C_41
    7  A    between atoms: C_14  and  C_22
    8  A    between atoms: C_14  and  C_41
    9  A    between atoms: C_17  and  O_33
   10  A    between atoms: C_19  and  O_27
   11  A    between atoms: C_19  and  C_31
   12  A    between atoms: P_20  and  O_33
   13  A    between atoms: C_21  and  N_36
   14  A    between atoms: C_28  and  C_29
   15  A    between atoms: C_29  and  C_31
                            x       y       z     vdW  Elec       q    Type
                         _______ _______ _______ _____ _____    ______ ____

>  <TORSDO>
F 15

$$$$
=
 OpenBabel11042419573D

 41 44  0  0  1  0  0  0  0  0999 V2000
  188.1150  176.7260  142.8050 N   0  0  0  0  0  0  0  0  0  0  0  0
  188.8020  175.6620  143.5910 C   0  0  2  0  0  3  0  0  0  0  0  0
  189.5900  176.6330  143.0130 C   0  0  2  0  0  3  0  0  0  0  0  0
  186.9250  177.3340  142.3080 C   0  0  0  0  0  0  0  0  0  0  0  0
  183.9460  178.7510  145.8280 N   0  0  0  0  0  2  0  0  0  0  0  0
  183.8370  178.5990  143.4510 N   0  0  0  0  0  0  0  0  0  0  0  0
  185.6560  177.9630  140.3410 C   0  0  0  0  0  3  0  0  0  0  0  0
  184.5540  178.3860  141.1620 N   0  0  0  0  0  2  0  0  0  0  0  0
  185.7840  177.7460  144.5760 C   0  0  0  0  0  0  0  0  0  0  0  0
  186.7460  177.4780  140.8810 N   0  0  0  0  0  0  0  0  0  0  0  0
  185.9380  177.7290  143.1230 C   0  0  0  0  0  0  0  0  0  0  0  0
  184.4300  178.3010  144.7180 C   0  0  0  0  0  0  0  0  0  0  0  0
  184.7150  178.2530  142.5700 C   0  0  0  0  0  0  0  0  0  0  0  0
  186.9940  178.0480  145.6370 S   0  0  0  0  0  0  0  0  0  0  0  0
  191.8170  171.1470  143.2100 N   0  0  0  0  0  2  0  0  0  0  0  0
  190.6530  170.2300  141.4170 O   0  0  0  0  0  0  0  0  0  0  0  0
  189.8670  173.4470  142.9970 C   0  0  0  0  0  0  0  0  0  0  0  0
  190.7670  173.6050  143.9150 N   0  0  0  0  0  2  0  0  0  0  0  0
  190.7750  171.1820  142.2310 C   0  0  0  0  0  0  0  0  0  0  0  0
  188.8620  174.4440  142.7980 N   0  0  0  0  0  2  0  0  0  0  0  0
  189.8620  172.2830  142.1620 N   0  0  0  0  0  2  0  0  0  0  0  0
  192.6760  170.1010  143.2950 O   0  0  0  0  0  0  0  0  0  0  0  0
  193.0810  170.0710  144.6320 C   0  0  0  0  0  2  0  0  0  0  0  0
  194.3100  170.9420  144.8250 C   0  0  0  0  0  2  0  0  0  0  0  0
  195.1400  170.4320  145.9910 C   0  0  0  0  0  2  0  0  0  0  0  0
  196.6020  170.7920  145.7990 C   0  0  0  0  0  2  0  0  0  0  0  0
  197.4720  169.5530  145.9110 C   0  0  0  0  0  1  0  0  0  0  0  0
  190.0080  177.6540  144.0550 C   0  0  0  0  0  2  0  0  0  0  0  0
  190.9280  177.0190  145.0810 C   0  0  0  0  0  2  0  0  0  0  0  0
  192.2870  176.7410  144.4640 C   0  0  0  0  0  2  0  0  0  0  0  0
  193.8060  175.0470  145.4150 C   0  0  1  0  0  3  0  0  0  0  0  0
  192.7670  175.3780  146.4660 C   0  0  0  0  0  2  0  0  0  0  0  0
  193.2980  176.4670  145.5580 C   0  0  2  0  0  3  0  0  0  0  0  0
  195.1480  174.9440  146.0580 C   0  0  0  0  0  3  0  0  0  0  0  0
  196.1910  174.4150  145.4250 C   0  0  0  0  0  3  0  0  0  0  0  0
  196.0740  173.9280  144.1270 O   0  0  0  0  0  0  0  0  0  0  0  0
  197.9410  175.6450  143.4310 O   0  0  0  0  0  1  0  0  0  0  0  0
  197.0160  174.5950  142.8610 P   0  0  1  0  0  0  0  0  0  0  0  0
  197.9350  173.3760  142.1340 O   0  0  0  0  0  0  0  0  0  0  0  0
  195.9380  175.3650  141.6190 C   0  0  0  0  0  2  0  0  0  0  0  0
  194.7020  175.6640  142.1900 O   0  0  0  0  0  1  0  0  0  0  0  0
  1  3  1  0  0  0  0
  1  2  1  0  0  0  0
  2 20  1  6  0  0  0
  3  2  1  0  0  0  0
  3 28  1  1  0  0  0
  4  1  1  0  0  0  0
  4 11  2  0  0  0  0
  6 12  1  0  0  0  0
  7 10  2  0  0  0  0
  7  8  1  0  0  0  0
  8 13  1  0  0  0  0
  9 12  1  0  0  0  0
  9 14  2  0  0  0  0
 10  4  1  0  0  0  0
 11  9  1  0  0  0  0
 12  5  2  0  0  0  0
 13 11  1  0  0  0  0
 13  6  2  0  0  0  0
 15 22  1  0  0  0  0
 16 19  2  0  0  0  0
 17 18  2  0  0  0  0
 19 15  1  0  0  0  0
 20 17  1  0  0  0  0
 21 19  1  0  0  0  0
 21 17  1  0  0  0  0
 22 23  1  0  0  0  0
 23 24  1  0  0  0  0
 24 25  1  0  0  0  0
 26 27  1  0  0  0  0
 26 25  1  0  0  0  0
 28 29  1  0  0  0  0
 30 29  1  0  0  0  0
 31 33  1  0  0  0  0
 31 34  1  1  0  0  0
 31 32  1  0  0  0  0
 33 30  1  6  0  0  0
 33 32  1  0  0  0  0
 35 34  2  0  0  0  0
 36 35  1  0  0  0  0
 38 39  2  6  0  0  0
 38 37  1  0  0  0  0
 38 36  1  0  0  0  0
 40 41  1  0  0  0  0
 40 38  1  0  0  0  0
M  END
>  <MODEL>
7

>  <REMARK>
 VINA RESULT:      -6.3      3.995      8.035
  Name = 
  15 active torsions:
  status: ('A' for Active; 'I' for Inactive)
    1  A    between atoms: C_1  and  P_20
    2  A    between atoms: C_2  and  N_8
    3  A    between atoms: N_4  and  O_27
    4  A    between atoms: C_6  and  C_13
    5  A    between atoms: C_7  and  C_40
    6  A    between atoms: C_7  and  C_41
    7  A    between atoms: C_14  and  C_22
    8  A    between atoms: C_14  and  C_41
    9  A    between atoms: C_17  and  O_33
   10  A    between atoms: C_19  and  O_27
   11  A    between atoms: C_19  and  C_31
   12  A    between atoms: P_20  and  O_33
   13  A    between atoms: C_21  and  N_36
   14  A    between atoms: C_28  and  C_29
   15  A    between atoms: C_29  and  C_31
                            x       y       z     vdW  Elec       q    Type
                         _______ _______ _______ _____ _____    ______ ____

>  <TORSDO>
F 15

$$$$
=
 OpenBabel11042419573D

 41 44  0  0  1  0  0  0  0  0999 V2000
  190.1650  173.7900  143.8910 N   0  0  0  0  0  0  0  0  0  0  0  0
  189.2540  173.3180  142.8100 C   0  0  2  0  0  3  0  0  0  0  0  0
  190.5770  172.9420  142.7330 C   0  0  2  0  0  3  0  0  0  0  0  0
  190.3890  174.4900  145.1130 C   0  0  0  0  0  0  0  0  0  0  0  0
  194.5360  176.9550  145.1190 N   0  0  0  0  0  2  0  0  0  0  0  0
  192.8610  176.4180  146.7290 N   0  0  0  0  0  0  0  0  0  0  0  0
  189.5560  174.9710  147.3370 C   0  0  0  0  0  3  0  0  0  0  0  0
  190.7540  175.7030  147.6510 N   0  0  0  0  0  2  0  0  0  0  0  0
  192.6960  175.4640  144.5270 C   0  0  0  0  0  0  0  0  0  0  0  0
  189.3990  174.4140  146.1630 N   0  0  0  0  0  0  0  0  0  0  0  0
  191.5180  175.1740  145.3420 C   0  0  0  0  0  0  0  0  0  0  0  0
  193.5110  176.2480  145.4670 C   0  0  0  0  0  0  0  0  0  0  0  0
  191.7390  175.7880  146.6260 C   0  0  0  0  0  0  0  0  0  0  0  0
  192.6670  175.7430  142.9140 S   0  0  0  0  0  0  0  0  0  0  0  0
  185.8830  177.5600  142.2860 N   0  0  0  0  0  2  0  0  0  0  0  0
  186.7320  178.2910  140.2460 O   0  0  0  0  0  0  0  0  0  0  0  0
  187.9570  175.3670  142.0960 C   0  0  0  0  0  0  0  0  0  0  0  0
  187.1980  175.2840  143.1430 N   0  0  0  0  0  2  0  0  0  0  0  0
  186.7880  177.4520  141.1840 C   0  0  0  0  0  0  0  0  0  0  0  0
  188.9990  174.4120  141.8870 N   0  0  0  0  0  2  0  0  0  0  0  0
  187.7650  176.4060  141.1280 N   0  0  0  0  0  2  0  0  0  0  0  0
  184.9670  178.5570  142.3570 O   0  0  0  0  0  0  0  0  0  0  0  0
  184.2260  178.2880  143.5110 C   0  0  0  0  0  2  0  0  0  0  0  0
  184.6310  179.2370  144.6250 C   0  0  0  0  0  2  0  0  0  0  0  0
  184.5410  178.5370  145.9710 C   0  0  0  0  0  2  0  0  0  0  0  0
  185.1920  177.1670  145.9010 C   0  0  0  0  0  2  0  0  0  0  0  0
  186.6800  177.2720  146.1800 C   0  0  0  0  0  1  0  0  0  0  0  0
  190.7400  171.5090  143.2030 C   0  0  0  0  0  2  0  0  0  0  0  0
  191.3160  170.6490  142.0930 C   0  0  0  0  0  2  0  0  0  0  0  0
  192.5190  169.8740  142.6000 C   0  0  0  0  0  2  0  0  0  0  0  0
  194.2590  170.5480  144.2120 C   0  0  1  0  0  3  0  0  0  0  0  0
  193.7150  169.2040  144.6520 C   0  0  0  0  0  2  0  0  0  0  0  0
  192.7860  170.2350  144.0460 C   0  0  2  0  0  3  0  0  0  0  0  0
  194.4370  171.4270  145.4040 C   0  0  0  0  0  3  0  0  0  0  0  0
  194.9360  172.6540  145.3020 C   0  0  0  0  0  3  0  0  0  0  0  0
  195.3210  173.1760  144.0710 O   0  0  0  0  0  0  0  0  0  0  0  0
  196.7000  175.2230  143.1630 O   0  0  0  0  0  0  0  0  0  0  0  0
  196.8610  173.9020  143.8780 P   0  0  1  0  0  0  0  0  0  0  0  0
  197.5570  174.1680  145.3960 O   0  0  0  0  0  1  0  0  0  0  0  0
  197.9410  172.8220  142.8960 C   0  0  0  0  0  2  0  0  0  0  0  0
  197.4240  171.5280  142.8780 O   0  0  0  0  0  1  0  0  0  0  0  0
  1  4  1  0  0  0  0
  2 20  1  6  0  0  0
  2  1  1  0  0  0  0
  3  2  1  0  0  0  0
  3 28  1  1  0  0  0
  3  1  1  0  0  0  0
  4 11  2  0  0  0  0
  4 10  1  0  0  0  0
  5 12  2  0  0  0  0
  7  8  1  0  0  0  0
  9 11  1  0  0  0  0
  9 12  1  0  0  0  0
 10  7  2  0  0  0  0
 11 13  1  0  0  0  0
 12  6  1  0  0  0  0
 13  6  2  0  0  0  0
 13  8  1  0  0  0  0
 14  9  2  0  0  0  0
 15 22  1  0  0  0  0
 16 19  2  0  0  0  0
 17 18  2  0  0  0  0
 19 15  1  0  0  0  0
 20 17  1  0  0  0  0
 21 19  1  0  0  0  0
 21 17  1  0  0  0  0
 22 23  1  0  0  0  0
 23 24  1  0  0  0  0
 24 25  1  0  0  0  0
 26 25  1  0  0  0  0
 26 27  1  0  0  0  0
 29 30  1  0  0  0  0
 29 28  1  0  0  0  0
 31 32  1  0  0  0  0
 31 34  1  1  0  0  0
 33 30  1  6  0  0  0
 33 31  1  0  0  0  0
 33 32  1  0  0  0  0
 35 34  2  0  0  0  0
 36 35  1  0  0  0  0
 38 37  2  6  0  0  0
 38 36  1  0  0  0  0
 38 39  1  0  0  0  0
 40 38  1  0  0  0  0
 41 40  1  0  0  0  0
M  END
>  <MODEL>
8

>  <REMARK>
 VINA RESULT:      -6.2      3.204      5.445
  Name = 
  15 active torsions:
  status: ('A' for Active; 'I' for Inactive)
    1  A    between atoms: C_1  and  P_20
    2  A    between atoms: C_2  and  N_8
    3  A    between atoms: N_4  and  O_27
    4  A    between atoms: C_6  and  C_13
    5  A    between atoms: C_7  and  C_40
    6  A    between atoms: C_7  and  C_41
    7  A    between atoms: C_14  and  C_22
    8  A    between atoms: C_14  and  C_41
    9  A    between atoms: C_17  and  O_33
   10  A    between atoms: C_19  and  O_27
   11  A    between atoms: C_19  and  C_31
   12  A    between atoms: P_20  and  O_33
   13  A    between atoms: C_21  and  N_36
   14  A    between atoms: C_28  and  C_29
   15  A    between atoms: C_29  and  C_31
                            x       y       z     vdW  Elec       q    Type
                         _______ _______ _______ _____ _____    ______ ____

>  <TORSDO>
F 15

$$$$
=
 OpenBabel11042419573D

 41 44  0  0  1  0  0  0  0  0999 V2000
  192.8520  175.5690  143.1590 N   0  0  0  0  0  0  0  0  0  0  0  0
  194.0090  174.7140  142.7670 C   0  0  2  0  0  3  0  0  0  0  0  0
  194.1790  175.5570  143.8440 C   0  0  2  0  0  3  0  0  0  0  0  0
  191.5010  175.9910  142.9850 C   0  0  0  0  0  0  0  0  0  0  0  0
  188.4580  172.3010  142.3670 N   0  0  0  0  0  2  0  0  0  0  0  0
  188.3170  174.6770  142.2280 N   0  0  0  0  0  0  0  0  0  0  0  0
  189.9900  177.8780  142.8120 C   0  0  0  0  0  3  0  0  0  0  0  0
  188.8930  176.9980  142.5100 N   0  0  0  0  0  2  0  0  0  0  0  0
  190.4640  173.6660  142.6230 C   0  0  0  0  0  0  0  0  0  0  0  0
  191.1910  177.4020  143.0290 N   0  0  0  0  0  0  0  0  0  0  0  0
  190.5150  175.1230  142.7260 C   0  0  0  0  0  0  0  0  0  0  0  0
  189.0470  173.4490  142.2980 C   0  0  0  0  0  0  0  0  0  0  0  0
  189.1820  175.6050  142.4650 C   0  0  0  0  0  0  0  0  0  0  0  0
  191.3430  172.6360  143.5430 S   0  0  0  0  0  0  0  0  0  0  0  0
  194.5200  173.6680  137.4500 N   0  0  0  0  0  2  0  0  0  0  0  0
  195.8940  175.4850  136.9790 O   0  0  0  0  0  0  0  0  0  0  0  0
  194.5620  174.6760  140.3010 C   0  0  0  0  0  0  0  0  0  0  0  0
  193.8900  173.5800  140.1410 N   0  0  0  0  0  2  0  0  0  0  0  0
  195.2420  174.8390  137.8400 C   0  0  0  0  0  0  0  0  0  0  0  0
  194.6490  175.2820  141.5920 N   0  0  0  0  0  2  0  0  0  0  0  0
  195.2360  175.2940  139.1980 N   0  0  0  0  0  2  0  0  0  0  0  0
  194.5060  173.2390  136.1640 O   0  0  0  0  0  0  0  0  0  0  0  0
  193.3690  172.4310  136.0630 C   0  0  0  0  0  2  0  0  0  0  0  0
  192.1500  173.1790  136.5720 C   0  0  0  0  0  2  0  0  0  0  0  0
  191.1550  172.2080  137.1860 C   0  0  0  0  0  2  0  0  0  0  0  0
  190.7730  172.6540  138.5860 C   0  0  0  0  0  2  0  0  0  0  0  0
  190.5820  171.4520  139.4910 C   0  0  0  0  0  1  0  0  0  0  0  0
  194.0590  174.7780  145.1410 C   0  0  0  0  0  2  0  0  0  0  0  0
  194.3590  175.6750  146.3270 C   0  0  0  0  0  2  0  0  0  0  0  0
  193.1360  176.5010  146.6820 C   0  0  0  0  0  2  0  0  0  0  0  0
  190.6730  176.3770  146.6700 C   0  0  1  0  0  3  0  0  0  0  0  0
  191.1450  176.0840  148.0800 C   0  0  0  0  0  2  0  0  0  0  0  0
  191.9470  175.5880  146.8950 C   0  0  2  0  0  3  0  0  0  0  0  0
  189.5760  175.4340  146.3080 C   0  0  0  0  0  3  0  0  0  0  0  0
  188.3720  175.8640  145.9450 C   0  0  0  0  0  3  0  0  0  0  0  0
  188.0790  177.2230  145.8910 O   0  0  0  0  0  0  0  0  0  0  0  0
  185.6020  176.6500  146.5660 O   0  0  0  0  0  0  0  0  0  0  0  0
  186.5640  177.8080  146.4400 P   0  0  1  0  0  0  0  0  0  0  0  0
  186.7540  178.5440  147.9510 O   0  0  0  0  0  1  0  0  0  0  0  0
  185.8940  179.0120  145.2580 C   0  0  0  0  0  2  0  0  0  0  0  0
  186.4630  178.8060  144.0030 O   0  0  0  0  0  1  0  0  0  0  0  0
  1  3  1  0  0  0  0
  2 20  1  6  0  0  0
  2  1  1  0  0  0  0
  2  3  1  0  0  0  0
  3 28  1  1  0  0  0
  4 10  1  0  0  0  0
  4  1  1  0  0  0  0
  6 12  1  0  0  0  0
  6 13  2  0  0  0  0
  7 10  2  0  0  0  0
  8  7  1  0  0  0  0
  9 11  1  0  0  0  0
  9 14  2  0  0  0  0
 11  4  2  0  0  0  0
 12  5  2  0  0  0  0
 12  9  1  0  0  0  0
 13  8  1  0  0  0  0
 13 11  1  0  0  0  0
 15 19  1  0  0  0  0
 16 19  2  0  0  0  0
 17 20  1  0  0  0  0
 18 17  2  0  0  0  0
 19 21  1  0  0  0  0
 21 17  1  0  0  0  0
 22 15  1  0  0  0  0
 23 22  1  0  0  0  0
 23 24  1  0  0  0  0
 24 25  1  0  0  0  0
 25 26  1  0  0  0  0
 26 27  1  0  0  0  0
 28 29  1  0  0  0  0
 29 30  1  0  0  0  0
 31 34  1  6  0  0  0
 31 33  1  0  0  0  0
 31 32  1  0  0  0  0
 33 30  1  1  0  0  0
 33 32  1  0  0  0  0
 35 34  2  0  0  0  0
 36 35  1  0  0  0  0
 36 38  1  0  0  0  0
 38 37  2  1  0  0  0
 38 39  1  0  0  0  0
 40 38  1  0  0  0  0
 41 40  1  0  0  0  0
M  END
>  <MODEL>
9

>  <REMARK>
 VINA RESULT:      -6.1      3.222      7.853
  Name = 
  15 active torsions:
  status: ('A' for Active; 'I' for Inactive)
    1  A    between atoms: C_1  and  P_20
    2  A    between atoms: C_2  and  N_8
    3  A    between atoms: N_4  and  O_27
    4  A    between atoms: C_6  and  C_13
    5  A    between atoms: C_7  and  C_40
    6  A    between atoms: C_7  and  C_41
    7  A    between atoms: C_14  and  C_22
    8  A    between atoms: C_14  and  C_41
    9  A    between atoms: C_17  and  O_33
   10  A    between atoms: C_19  and  O_27
   11  A    between atoms: C_19  and  C_31
   12  A    between atoms: P_20  and  O_33
   13  A    between atoms: C_21  and  N_36
   14  A    between atoms: C_28  and  C_29
   15  A    between atoms: C_29  and  C_31
                            x       y       z     vdW  Elec       q    Type
                         _______ _______ _______ _____ _____    ______ ____

>  <TORSDO>
F 15

$$$$
