=
 OpenBabel11042415443D

 59 67  0  0  1  0  0  0  0  0999 V2000
  191.0060  169.4730  138.8290 C   0  0  0  0  0  0  0  0  0  0  0  0
  191.2510  172.4810  142.8630 C   0  0  0  0  0  0  0  0  0  0  0  0
  192.1090  171.4510  143.0920 N   0  0  0  0  0  0  0  0  0  0  0  0
  190.6740  171.5050  140.7360 C   0  0  0  0  0  0  0  0  0  0  0  0
  189.9440  171.5370  139.5480 C   0  0  0  0  0  3  0  0  0  0  0  0
  191.7380  169.4410  140.0190 C   0  0  0  0  0  3  0  0  0  0  0  0
  191.5790  170.4520  140.9830 C   0  0  0  0  0  0  0  0  0  0  0  0
  190.5020  172.5100  141.6820 C   0  0  0  0  0  3  0  0  0  0  0  0
  190.1100  170.5250  138.5970 C   0  0  0  0  0  3  0  0  0  0  0  0
  192.2940  170.4430  142.1960 C   0  0  0  0  0  0  0  0  0  0  0  0
  189.1180  172.1960  144.5550 O   0  0  0  0  0  0  0  0  0  0  0  0
  189.9470  176.1950  145.3970 C   0  0  1  0  0  3  0  0  0  0  0  0
  189.7450  173.7530  146.1490 N   0  0  0  0  0  2  0  0  0  0  0  0
  192.4320  176.6900  142.7090 N   0  0  0  0  0  2  0  0  0  0  0  0
  191.0380  173.5190  143.9350 C   0  0  1  0  0  3  0  0  0  0  0  0
  190.9040  174.9410  143.3660 C   0  0  1  0  0  3  0  0  0  0  0  0
  190.0640  175.4820  147.6680 O   0  0  0  0  0  0  0  0  0  0  0  0
  189.9510  175.1360  146.4590 C   0  0  0  0  0  0  0  0  0  0  0  0
  191.1210  175.9610  144.4370 C   0  0  1  0  0  3  0  0  0  0  0  0
  191.7020  177.1530  143.8170 N   0  0  0  0  0  0  0  0  0  0  0  0
  189.8980  173.1410  144.8630 C   0  0  0  0  0  0  0  0  0  0  0  0
  190.6690  178.0310  143.2920 C   0  0  0  0  0  1  0  0  0  0  0  0
  192.0270  175.3060  142.4270 C   0  0  0  0  0  2  0  0  0  0  0  0
  188.5890  176.2430  144.6820 C   0  0  0  0  0  2  0  0  0  0  0  0
  187.6470  177.2360  145.3440 C   0  0  0  0  0  2  0  0  0  0  0  0
  186.2170  176.9620  144.9370 C   0  0  0  0  0  2  0  0  0  0  0  0
  185.3670  176.7890  146.1790 C   0  0  0  0  0  2  0  0  0  0  0  0
  183.9180  178.7690  145.5750 N   0  0  0  0  0  1  0  0  0  0  0  0
  184.8610  178.5590  147.6900 O   0  0  0  0  0  0  0  0  0  0  0  0
  184.7140  178.0800  146.5350 C   0  0  0  0  0  0  0  0  0  0  0  0
  191.1810  168.4230  137.8700 N   0  0  0  0  0  2  0  0  0  0  0  0
  192.1840  169.8390  134.5130 C   0  0  0  0  0  2  0  0  0  0  0  0
  192.6070  170.5020  135.8140 C   0  0  2  0  0  0  0  0  0  0  0  0
  191.9830  168.5630  136.6630 C   0  0  2  0  0  3  0  0  0  0  0  0
  193.5020  169.4990  137.0270 S   0  0  0  0  0  0  0  0  0  0  0  0
  191.3670  169.6180  135.7660 C   0  0  2  0  0  3  0  0  0  0  0  0
  193.5850  171.9230  138.2620 C   0  0  0  0  0  2  0  0  0  0  0  0
  192.2250  171.9200  136.1200 C   0  0  0  0  0  0  0  0  0  0  0  0
  191.4140  172.5290  135.3610 O   0  0  0  0  0  0  0  0  0  0  0  0
  192.4650  173.9620  137.6000 C   0  0  0  0  0  2  0  0  0  0  0  0
  192.7510  172.5770  137.2760 N   0  0  0  0  0  0  0  0  0  0  0  0
  193.0990  174.2040  138.9490 C   0  0  0  0  0  2  0  0  0  0  0  0
  194.0030  173.0120  139.2270 C   0  0  0  0  0  2  0  0  0  0  0  0
  193.2280  169.3220  142.5400 C   0  0  0  0  0  2  0  0  0  0  0  0
  193.0890  168.9540  143.9430 N   0  0  0  0  0  2  0  0  0  0  0  0
  195.3920  169.7170  143.8070 C   0  0  0  0  0  2  0  0  0  0  0  0
  195.5190  170.5360  145.0760 C   0  0  2  0  0  3  0  0  0  0  0  0
  194.4230  168.7780  144.4980 C   0  0  1  0  0  3  0  0  0  0  0  0
  194.5570  169.5920  145.7690 C   0  0  0  0  0  2  0  0  0  0  0  0
  194.8840  171.8310  144.8980 N   0  0  0  0  0  2  0  0  0  0  0  0
  196.5590  173.0150  146.0000 O   0  0  0  0  0  0  0  0  0  0  0  0
  195.4880  173.0470  145.3420 C   0  0  0  0  0  0  0  0  0  0  0  0
  194.8510  174.3550  144.9750 C   0  0  1  0  0  3  0  0  0  0  0  0
  193.9800  174.9260  146.0850 C   0  0  0  0  0  1  0  0  0  0  0  0
  195.8760  175.3780  144.4890 C   0  0  0  0  0  2  0  0  0  0  0  0
  196.2430  175.1900  143.0190 C   0  0  2  0  0  3  0  0  0  0  0  0
  197.9410  175.5900  141.5650 O   0  0  0  0  0  1  0  0  0  0  0  0
  197.3440  176.1000  142.6710 N   0  0  0  0  0  0  0  0  0  0  0  0
  195.9630  176.4140  142.2880 C   0  0  0  0  0  2  0  0  0  0  0  0
  1  6  1  0  0  0  0
  2  3  1  0  0  0  0
  4  7  1  0  0  0  0
  4  8  1  0  0  0  0
  5  4  2  0  0  0  0
  6  7  2  0  0  0  0
  7 10  1  0  0  0  0
  8  2  2  0  0  0  0
  9  1  2  0  0  0  0
  9  5  1  0  0  0  0
 10 44  1  0  0  0  0
 10  3  2  0  0  0  0
 11 21  2  0  0  0  0
 12 24  1  6  0  0  0
 12 18  1  0  0  0  0
 13 18  1  0  0  0  0
 14 20  1  0  0  0  0
 15  2  1  6  0  0  0
 15 21  1  0  0  0  0
 16 23  1  6  0  0  0
 16 15  1  0  0  0  0
 16 19  1  0  0  0  0
 18 17  2  0  0  0  0
 19 20  1  6  0  0  0
 19 12  1  0  0  0  0
 21 13  1  0  0  0  0
 22 20  1  0  0  0  0
 23 14  1  0  0  0  0
 24 25  1  0  0  0  0
 26 25  1  0  0  0  0
 26 27  1  0  0  0  0
 27 30  1  0  0  0  0
 28 30  1  0  0  0  0
 30 29  2  0  0  0  0
 31  1  1  0  0  0  0
 32 33  1  0  0  0  0
 33 38  1  1  0  0  0
 33 35  1  0  0  0  0
 34 35  1  0  0  0  0
 34 31  1  1  0  0  0
 36 32  1  6  0  0  0
 36 33  1  0  0  0  0
 36 34  1  0  0  0  0
 37 43  1  0  0  0  0
 38 41  1  0  0  0  0
 39 38  2  0  0  0  0
 40 42  1  0  0  0  0
 41 40  1  0  0  0  0
 41 37  1  0  0  0  0
 42 43  1  0  0  0  0
 44 45  1  0  0  0  0
 46 48  1  0  0  0  0
 46 47  1  0  0  0  0
 47 50  1  6  0  0  0
 47 49  1  0  0  0  0
 48 45  1  6  0  0  0
 48 49  1  0  0  0  0
 50 52  1  0  0  0  0
 52 51  2  0  0  0  0
 53 52  1  0  0  0  0
 53 54  1  1  0  0  0
 55 53  1  0  0  0  0
 56 55  1  1  0  0  0
 57 58  1  0  0  0  0
 58 56  1  0  0  0  0
 59 58  1  0  0  0  0
 59 56  1  0  0  0  0
M  END
>  <MODEL>
1

>  <REMARK>
 VINA RESULT:      -6.8      0.000      0.000
  Name = 
  16 active torsions:
  status: ('A' for Active; 'I' for Inactive)
    1  A    between atoms: C_3  and  C_25
    2  A    between atoms: C_4  and  N_43
    3  A    between atoms: C_5  and  C_7
    4  A    between atoms: C_5  and  C_14
    5  A    between atoms: C_6  and  C_11
    6  A    between atoms: C_7  and  C_9
    7  A    between atoms: C_8  and  C_29
    8  A    between atoms: C_9  and  C_21
    9  A    between atoms: C_13  and  C_25
   10  A    between atoms: C_13  and  C_57
   11  A    between atoms: N_15  and  C_26
   12  A    between atoms: C_19  and  N_43
   13  A    between atoms: C_21  and  C_56
   14  A    between atoms: N_30  and  C_39
   15  A    between atoms: N_30  and  C_51
   16  A    between atoms: C_51  and  C_54
                            x       y       z     vdW  Elec       q    Type
                         _______ _______ _______ _____ _____    ______ ____

>  <TORSDO>
F 16

$$$$
=
 OpenBabel11042415443D

 59 67  0  0  1  0  0  0  0  0999 V2000
  188.9550  177.3690  146.2710 C   0  0  0  0  0  0  0  0  0  0  0  0
  192.6960  174.2090  145.0870 C   0  0  0  0  0  0  0  0  0  0  0  0
  192.1170  174.5850  143.9150 N   0  0  0  0  0  0  0  0  0  0  0  0
  191.1190  175.5820  146.2860 C   0  0  0  0  0  0  0  0  0  0  0  0
  190.6180  176.0810  147.4880 C   0  0  0  0  0  3  0  0  0  0  0  0
  189.4580  176.8700  145.0660 C   0  0  0  0  0  3  0  0  0  0  0  0
  190.5400  175.9730  145.0600 C   0  0  0  0  0  0  0  0  0  0  0  0
  192.1880  174.6910  146.2960 C   0  0  0  0  0  3  0  0  0  0  0  0
  189.5400  176.9720  147.4810 C   0  0  0  0  0  3  0  0  0  0  0  0
  191.0620  175.4440  143.8650 C   0  0  0  0  0  0  0  0  0  0  0  0
  195.2670  175.0880  144.7530 O   0  0  0  0  0  0  0  0  0  0  0  0
  195.9570  171.0620  143.9120 C   0  0  1  0  0  3  0  0  0  0  0  0
  196.3670  173.1420  145.3530 N   0  0  0  0  0  2  0  0  0  0  0  0
  192.4100  170.0340  143.8160 N   0  0  0  0  0  2  0  0  0  0  0  0
  193.8080  173.1930  145.0690 C   0  0  1  0  0  3  0  0  0  0  0  0
  193.6130  172.1190  143.9850 C   0  0  1  0  0  3  0  0  0  0  0  0
  197.6100  171.1980  145.6230 O   0  0  0  0  0  0  0  0  0  0  0  0
  196.6670  171.7820  145.0190 C   0  0  0  0  0  0  0  0  0  0  0  0
  194.4690  170.9260  144.2630 C   0  0  1  0  0  3  0  0  0  0  0  0
  193.7840  169.7440  143.7400 N   0  0  0  0  0  0  0  0  0  0  0  0
  195.1730  173.8550  145.0090 C   0  0  0  0  0  0  0  0  0  0  0  0
  194.0840  169.5390  142.3330 C   0  0  0  0  0  1  0  0  0  0  0  0
  192.2490  171.4780  144.0320 C   0  0  0  0  0  2  0  0  0  0  0  0
  196.1930  171.7650  142.5670 C   0  0  0  0  0  2  0  0  0  0  0  0
  197.6760  171.9450  142.2870 C   0  0  0  0  0  2  0  0  0  0  0  0
  197.9410  173.3100  141.6930 C   0  0  0  0  0  2  0  0  0  0  0  0
  196.6400  174.0790  141.6050 C   0  0  0  0  0  2  0  0  0  0  0  0
  197.5470  175.7020  139.8930 N   0  0  0  0  0  1  0  0  0  0  0  0
  196.5420  176.4460  141.8530 O   0  0  0  0  0  0  0  0  0  0  0  0
  196.9010  175.4720  141.1420 C   0  0  0  0  0  0  0  0  0  0  0  0
  187.8440  178.2740  146.2460 N   0  0  0  0  0  2  0  0  0  0  0  0
  184.1060  178.6150  146.6830 C   0  0  0  0  0  2  0  0  0  0  0  0
  184.7040  177.8900  145.4880 C   0  0  2  0  0  0  0  0  0  0  0  0
  186.5190  177.9320  146.7430 C   0  0  2  0  0  3  0  0  0  0  0  0
  185.8460  176.5210  145.8090 S   0  0  0  0  0  0  0  0  0  0  0  0
  185.5130  178.9440  146.2340 C   0  0  2  0  0  3  0  0  0  0  0  0
  186.4190  177.0730  143.1730 C   0  0  0  0  0  2  0  0  0  0  0  0
  184.4220  178.3440  144.0870 C   0  0  0  0  0  0  0  0  0  0  0  0
  183.4690  179.1480  143.8670 O   0  0  0  0  0  0  0  0  0  0  0  0
  184.9890  178.2510  141.6190 C   0  0  0  0  0  2  0  0  0  0  0  0
  185.2400  177.8930  143.0020 N   0  0  0  0  0  0  0  0  0  0  0  0
  186.1480  177.6820  140.8350 C   0  0  0  0  0  2  0  0  0  0  0  0
  186.8890  176.7400  141.7730 C   0  0  0  0  0  2  0  0  0  0  0  0
  190.4540  175.7780  142.5350 C   0  0  0  0  0  2  0  0  0  0  0  0
  190.6130  174.6660  141.6080 N   0  0  0  0  0  2  0  0  0  0  0  0
  188.6310  174.0110  140.3640 C   0  0  0  0  0  2  0  0  0  0  0  0
  188.9650  172.5830  139.9840 C   0  0  2  0  0  3  0  0  0  0  0  0
  189.4030  173.8590  141.6600 C   0  0  1  0  0  3  0  0  0  0  0  0
  189.7300  172.4270  141.2840 C   0  0  0  0  0  2  0  0  0  0  0  0
  189.8970  172.5690  138.8690 N   0  0  0  0  0  2  0  0  0  0  0  0
  189.3950  170.3870  138.2310 O   0  0  0  0  0  0  0  0  0  0  0  0
  190.0250  171.4480  137.9930 C   0  0  0  0  0  0  0  0  0  0  0  0
  190.8850  171.5720  136.7690 C   0  0  1  0  0  3  0  0  0  0  0  0
  191.1570  173.0170  136.3770 C   0  0  0  0  0  1  0  0  0  0  0  0
  192.1820  170.7750  136.8940 C   0  0  0  0  0  2  0  0  0  0  0  0
  192.7560  170.8040  138.3090 C   0  0  2  0  0  3  0  0  0  0  0  0
  194.2990  171.9050  139.5590 O   0  0  0  0  0  1  0  0  0  0  0  0
  194.0590  171.4820  138.2920 N   0  0  0  0  0  0  0  0  0  0  0  0
  193.9780  170.0200  138.3520 C   0  0  0  0  0  2  0  0  0  0  0  0
  1  9  1  0  0  0  0
  2  8  1  0  0  0  0
  3  2  2  0  0  0  0
  4  8  2  0  0  0  0
  4  5  1  0  0  0  0
  6  1  2  0  0  0  0
  7  6  1  0  0  0  0
  7  4  1  0  0  0  0
  9  5  2  0  0  0  0
 10  3  1  0  0  0  0
 10  7  2  0  0  0  0
 11 21  2  0  0  0  0
 12 24  1  6  0  0  0
 12 19  1  0  0  0  0
 12 18  1  0  0  0  0
 14 23  1  0  0  0  0
 15  2  1  6  0  0  0
 16 23  1  1  0  0  0
 16 19  1  0  0  0  0
 16 15  1  0  0  0  0
 18 13  1  0  0  0  0
 18 17  2  0  0  0  0
 19 20  1  6  0  0  0
 20 14  1  0  0  0  0
 21 15  1  0  0  0  0
 21 13  1  0  0  0  0
 22 20  1  0  0  0  0
 25 24  1  0  0  0  0
 26 25  1  0  0  0  0
 27 26  1  0  0  0  0
 28 30  1  0  0  0  0
 30 27  1  0  0  0  0
 30 29  2  0  0  0  0
 31  1  1  0  0  0  0
 33 38  1  6  0  0  0
 33 35  1  0  0  0  0
 33 36  1  0  0  0  0
 33 32  1  0  0  0  0
 34 31  1  6  0  0  0
 35 34  1  0  0  0  0
 36 32  1  1  0  0  0
 36 34  1  0  0  0  0
 39 38  2  0  0  0  0
 40 41  1  0  0  0  0
 41 37  1  0  0  0  0
 41 38  1  0  0  0  0
 42 40  1  0  0  0  0
 42 43  1  0  0  0  0
 43 37  1  0  0  0  0
 44 10  1  0  0  0  0
 45 44  1  0  0  0  0
 46 48  1  0  0  0  0
 47 50  1  6  0  0  0
 47 46  1  0  0  0  0
 47 49  1  0  0  0  0
 48 45  1  6  0  0  0
 49 48  1  0  0  0  0
 52 51  2  0  0  0  0
 52 50  1  0  0  0  0
 53 54  1  1  0  0  0
 53 55  1  0  0  0  0
 53 52  1  0  0  0  0
 56 55  1  6  0  0  0
 56 59  1  0  0  0  0
 58 56  1  0  0  0  0
 58 59  1  0  0  0  0
 58 57  1  0  0  0  0
M  END
>  <MODEL>
2

>  <REMARK>
 VINA RESULT:      -6.6      2.945      9.664
  Name = 
  16 active torsions:
  status: ('A' for Active; 'I' for Inactive)
    1  A    between atoms: C_3  and  C_25
    2  A    between atoms: C_4  and  N_43
    3  A    between atoms: C_5  and  C_7
    4  A    between atoms: C_5  and  C_14
    5  A    between atoms: C_6  and  C_11
    6  A    between atoms: C_7  and  C_9
    7  A    between atoms: C_8  and  C_29
    8  A    between atoms: C_9  and  C_21
    9  A    between atoms: C_13  and  C_25
   10  A    between atoms: C_13  and  C_57
   11  A    between atoms: N_15  and  C_26
   12  A    between atoms: C_19  and  N_43
   13  A    between atoms: C_21  and  C_56
   14  A    between atoms: N_30  and  C_39
   15  A    between atoms: N_30  and  C_51
   16  A    between atoms: C_51  and  C_54
                            x       y       z     vdW  Elec       q    Type
                         _______ _______ _______ _____ _____    ______ ____

>  <TORSDO>
F 16

$$$$
=
 OpenBabel11042415443D

 59 67  0  0  1  0  0  0  0  0999 V2000
  191.8200  175.5210  145.2080 C   0  0  0  0  0  0  0  0  0  0  0  0
  192.0310  173.0850  140.8030 C   0  0  0  0  0  0  0  0  0  0  0  0
  191.9990  172.1330  141.7740 N   0  0  0  0  0  0  0  0  0  0  0  0
  191.9560  174.7940  142.5010 C   0  0  0  0  0  0  0  0  0  0  0  0
  191.9370  176.1410  142.8620 C   0  0  0  0  0  3  0  0  0  0  0  0
  191.8390  174.1710  144.8470 C   0  0  0  0  0  3  0  0  0  0  0  0
  191.9080  173.7940  143.4940 C   0  0  0  0  0  0  0  0  0  0  0  0
  192.0300  174.4370  141.1580 C   0  0  0  0  0  3  0  0  0  0  0  0
  191.8680  176.5040  144.2110 C   0  0  0  0  0  3  0  0  0  0  0  0
  191.9390  172.4440  143.0990 C   0  0  0  0  0  0  0  0  0  0  0  0
  194.5160  173.1790  139.6600 O   0  0  0  0  0  0  0  0  0  0  0  0
  192.3090  172.8910  136.1340 C   0  0  1  0  0  3  0  0  0  0  0  0
  194.0560  171.9470  137.7560 N   0  0  0  0  0  2  0  0  0  0  0  0
  188.9830  173.3380  137.6770 N   0  0  0  0  0  2  0  0  0  0  0  0
  192.1780  172.6660  139.3630 C   0  0  1  0  0  3  0  0  0  0  0  0
  191.2760  173.4760  138.4160 C   0  0  1  0  0  3  0  0  0  0  0  0
  193.6920  171.0080  135.6630 O   0  0  0  0  0  0  0  0  0  0  0  0
  193.3590  171.8860  136.5060 C   0  0  0  0  0  0  0  0  0  0  0  0
  191.1250  172.7750  137.1040 C   0  0  1  0  0  3  0  0  0  0  0  0
  189.8070  173.1060  136.5620 N   0  0  0  0  0  0  0  0  0  0  0  0
  193.6320  172.6520  138.9290 C   0  0  0  0  0  0  0  0  0  0  0  0
  189.8420  174.3500  135.8100 C   0  0  0  0  0  1  0  0  0  0  0  0
  189.8350  173.5080  138.8610 C   0  0  0  0  0  2  0  0  0  0  0  0
  192.9050  174.3050  136.0820 C   0  0  0  0  0  2  0  0  0  0  0  0
  193.8710  174.4590  134.9180 C   0  0  0  0  0  2  0  0  0  0  0  0
  195.0990  175.2280  135.3470 C   0  0  0  0  0  2  0  0  0  0  0  0
  195.1510  175.2860  136.8590 C   0  0  0  0  0  2  0  0  0  0  0  0
  197.6130  175.5790  136.3700 N   0  0  0  0  0  1  0  0  0  0  0  0
  196.8310  175.3400  138.5460 O   0  0  0  0  0  0  0  0  0  0  0  0
  196.5650  175.3980  137.3170 C   0  0  0  0  0  0  0  0  0  0  0  0
  191.7590  175.8750  146.5950 N   0  0  0  0  0  2  0  0  0  0  0  0
  188.4080  177.5650  147.0280 C   0  0  0  0  0  2  0  0  0  0  0  0
  188.5360  176.2230  146.3240 C   0  0  2  0  0  0  0  0  0  0  0  0
  190.5270  176.2480  147.2760 C   0  0  2  0  0  3  0  0  0  0  0  0
  189.3390  174.8690  147.2190 S   0  0  0  0  0  0  0  0  0  0  0  0
  189.7230  177.1770  146.3900 C   0  0  2  0  0  3  0  0  0  0  0  0
  186.0860  177.5710  145.2530 C   0  0  0  0  0  2  0  0  0  0  0  0
  188.0860  176.0480  144.9050 C   0  0  0  0  0  0  0  0  0  0  0  0
  188.7150  175.2590  144.1400 O   0  0  0  0  0  0  0  0  0  0  0  0
  186.4790  176.6630  143.0450 C   0  0  0  0  0  2  0  0  0  0  0  0
  186.9350  176.7460  144.4200 N   0  0  0  0  0  0  0  0  0  0  0  0
  185.1800  177.4320  143.0000 C   0  0  0  0  0  2  0  0  0  0  0  0
  185.0820  178.2010  144.3110 C   0  0  0  0  0  2  0  0  0  0  0  0
  191.9470  171.3360  144.1100 C   0  0  0  0  0  2  0  0  0  0  0  0
  192.8270  170.2580  143.6780 N   0  0  0  0  0  2  0  0  0  0  0  0
  195.0880  169.5690  144.2410 C   0  0  0  0  0  2  0  0  0  0  0  0
  195.6680  170.8500  144.8050 C   0  0  2  0  0  3  0  0  0  0  0  0
  193.7200  169.9370  144.7810 C   0  0  1  0  0  3  0  0  0  0  0  0
  194.3020  171.2140  145.3540 C   0  0  0  0  0  2  0  0  0  0  0  0
  196.0130  171.7590  143.7240 N   0  0  0  0  0  2  0  0  0  0  0  0
  197.9410  172.5570  144.7600 O   0  0  0  0  0  0  0  0  0  0  0  0
  197.2020  172.5510  143.7420 C   0  0  0  0  0  0  0  0  0  0  0  0
  197.5740  173.3360  142.5190 C   0  0  1  0  0  3  0  0  0  0  0  0
  197.5660  172.4990  141.2480 C   0  0  0  0  0  1  0  0  0  0  0  0
  196.7230  174.5950  142.3620 C   0  0  0  0  0  2  0  0  0  0  0  0
  196.6790  175.4370  143.6360 C   0  0  2  0  0  3  0  0  0  0  0  0
  195.2310  176.6590  144.8870 O   0  0  0  0  0  1  0  0  0  0  0  0
  195.4960  176.3080  143.6030 N   0  0  0  0  0  0  0  0  0  0  0  0
  196.8260  176.8410  143.2940 C   0  0  0  0  0  2  0  0  0  0  0  0
  1 31  1  0  0  0  0
  2  8  2  0  0  0  0
  2  3  1  0  0  0  0
  3 10  2  0  0  0  0
  4  5  2  0  0  0  0
  4  7  1  0  0  0  0
  5  9  1  0  0  0  0
  6  1  1  0  0  0  0
  7  6  2  0  0  0  0
  8  4  1  0  0  0  0
  9  1  2  0  0  0  0
 10  7  1  0  0  0  0
 10 44  1  0  0  0  0
 12 24  1  1  0  0  0
 12 18  1  0  0  0  0
 12 19  1  0  0  0  0
 13 21  1  0  0  0  0
 14 23  1  0  0  0  0
 15  2  1  1  0  0  0
 16 23  1  1  0  0  0
 16 15  1  0  0  0  0
 17 18  2  0  0  0  0
 18 13  1  0  0  0  0
 19 20  1  6  0  0  0
 19 16  1  0  0  0  0
 20 14  1  0  0  0  0
 21 15  1  0  0  0  0
 21 11  2  0  0  0  0
 22 20  1  0  0  0  0
 25 26  1  0  0  0  0
 25 24  1  0  0  0  0
 26 27  1  0  0  0  0
 27 30  1  0  0  0  0
 28 30  1  0  0  0  0
 30 29  2  0  0  0  0
 33 38  1  6  0  0  0
 33 36  1  0  0  0  0
 33 32  1  0  0  0  0
 33 35  1  0  0  0  0
 34 31  1  6  0  0  0
 35 34  1  0  0  0  0
 36 32  1  1  0  0  0
 36 34  1  0  0  0  0
 39 38  2  0  0  0  0
 40 41  1  0  0  0  0
 41 38  1  0  0  0  0
 41 37  1  0  0  0  0
 42 40  1  0  0  0  0
 42 43  1  0  0  0  0
 43 37  1  0  0  0  0
 45 44  1  0  0  0  0
 46 48  1  0  0  0  0
 46 47  1  0  0  0  0
 47 50  1  6  0  0  0
 47 49  1  0  0  0  0
 48 45  1  6  0  0  0
 48 49  1  0  0  0  0
 50 52  1  0  0  0  0
 52 51  2  0  0  0  0
 53 54  1  6  0  0  0
 53 52  1  0  0  0  0
 55 53  1  0  0  0  0
 56 55  1  6  0  0  0
 58 56  1  0  0  0  0
 58 57  1  0  0  0  0
 59 58  1  0  0  0  0
 59 56  1  0  0  0  0
M  END
>  <MODEL>
3

>  <REMARK>
 VINA RESULT:      -6.5      2.808      8.674
  Name = 
  16 active torsions:
  status: ('A' for Active; 'I' for Inactive)
    1  A    between atoms: C_3  and  C_25
    2  A    between atoms: C_4  and  N_43
    3  A    between atoms: C_5  and  C_7
    4  A    between atoms: C_5  and  C_14
    5  A    between atoms: C_6  and  C_11
    6  A    between atoms: C_7  and  C_9
    7  A    between atoms: C_8  and  C_29
    8  A    between atoms: C_9  and  C_21
    9  A    between atoms: C_13  and  C_25
   10  A    between atoms: C_13  and  C_57
   11  A    between atoms: N_15  and  C_26
   12  A    between atoms: C_19  and  N_43
   13  A    between atoms: C_21  and  C_56
   14  A    between atoms: N_30  and  C_39
   15  A    between atoms: N_30  and  C_51
   16  A    between atoms: C_51  and  C_54
                            x       y       z     vdW  Elec       q    Type
                         _______ _______ _______ _____ _____    ______ ____

>  <TORSDO>
F 16

$$$$
=
 OpenBabel11042415443D

 59 67  0  0  1  0  0  0  0  0999 V2000
  196.2870  173.6180  139.5960 C   0  0  0  0  0  0  0  0  0  0  0  0
  194.0110  175.3340  143.7510 C   0  0  0  0  0  0  0  0  0  0  0  0
  194.9940  174.4900  144.1640 N   0  0  0  0  0  0  0  0  0  0  0  0
  194.6300  174.9030  141.4610 C   0  0  0  0  0  0  0  0  0  0  0  0
  194.4390  175.1140  140.0950 C   0  0  0  0  0  3  0  0  0  0  0  0
  196.4790  173.4060  140.9640 C   0  0  0  0  0  3  0  0  0  0  0  0
  195.6540  174.0430  141.9090 C   0  0  0  0  0  0  0  0  0  0  0  0
  193.8020  175.5360  142.3830 C   0  0  0  0  0  3  0  0  0  0  0  0
  195.2650  174.4750  139.1660 C   0  0  0  0  0  3  0  0  0  0  0  0
  195.8150  173.8420  143.2920 C   0  0  0  0  0  0  0  0  0  0  0  0
  193.3320  173.8680  145.9600 O   0  0  0  0  0  0  0  0  0  0  0  0
  190.3450  176.7580  146.2890 C   0  0  1  0  0  3  0  0  0  0  0  0
  192.4160  175.5750  147.2270 N   0  0  0  0  0  2  0  0  0  0  0  0
  190.9410  178.3600  143.0140 N   0  0  0  0  0  2  0  0  0  0  0  0
  193.0900  175.9520  144.7700 C   0  0  1  0  0  3  0  0  0  0  0  0
  191.7490  176.3980  144.1640 C   0  0  1  0  0  3  0  0  0  0  0  0
  191.1940  177.0930  148.4910 O   0  0  0  0  0  0  0  0  0  0  0  0
  191.3450  176.5130  147.3790 C   0  0  0  0  0  0  0  0  0  0  0  0
  191.0550  177.3640  145.0710 C   0  0  1  0  0  3  0  0  0  0  0  0
  190.2630  178.2740  144.2430 N   0  0  0  0  0  0  0  0  0  0  0  0
  192.9240  175.0620  145.9880 C   0  0  0  0  0  0  0  0  0  0  0  0
  188.9520  177.7180  143.9530 C   0  0  0  0  0  1  0  0  0  0  0  0
  191.9160  177.2640  142.9400 C   0  0  0  0  0  2  0  0  0  0  0  0
  189.5770  175.4710  145.9560 C   0  0  0  0  0  2  0  0  0  0  0  0
  188.3830  175.2820  146.8780 C   0  0  0  0  0  2  0  0  0  0  0  0
  187.5990  176.5680  147.0020 C   0  0  0  0  0  2  0  0  0  0  0  0
  186.3570  176.4820  146.1400 C   0  0  0  0  0  2  0  0  0  0  0  0
  186.0890  178.9920  146.2450 N   0  0  0  0  0  1  0  0  0  0  0  0
  184.2840  177.5670  146.5840 O   0  0  0  0  0  0  0  0  0  0  0  0
  185.5120  177.6930  146.3390 C   0  0  0  0  0  0  0  0  0  0  0  0
  197.1360  172.9470  138.6570 N   0  0  0  0  0  2  0  0  0  0  0  0
  195.1900  169.8120  137.8440 C   0  0  0  0  0  2  0  0  0  0  0  0
  195.3720  170.9220  136.8210 C   0  0  2  0  0  0  0  0  0  0  0  0
  196.9370  171.5670  138.2360 C   0  0  2  0  0  3  0  0  0  0  0  0
  197.0610  171.4420  136.4240 S   0  0  0  0  0  0  0  0  0  0  0  0
  195.4640  171.2230  138.3120 C   0  0  2  0  0  3  0  0  0  0  0  0
  193.1150  169.4240  135.5460 C   0  0  0  0  0  2  0  0  0  0  0  0
  194.1900  171.6210  136.2190 C   0  0  0  0  0  0  0  0  0  0  0  0
  194.1590  172.8870  136.1860 O   0  0  0  0  0  0  0  0  0  0  0  0
  191.9150  171.4790  135.1120 C   0  0  0  0  0  2  0  0  0  0  0  0
  193.1100  170.8660  135.6610 N   0  0  0  0  0  0  0  0  0  0  0  0
  191.1120  170.3460  134.5190 C   0  0  0  0  0  2  0  0  0  0  0  0
  191.7440  169.0550  135.0200 C   0  0  0  0  0  2  0  0  0  0  0  0
  196.8490  172.8970  143.8270 C   0  0  0  0  0  2  0  0  0  0  0  0
  196.5330  172.5170  145.1980 N   0  0  0  0  0  2  0  0  0  0  0  0
  195.0800  170.7110  145.9260 C   0  0  0  0  0  2  0  0  0  0  0  0
  194.5100  170.2260  144.6080 C   0  0  2  0  0  3  0  0  0  0  0  0
  196.3850  171.0700  145.2420 C   0  0  1  0  0  3  0  0  0  0  0  0
  195.8180  170.5770  143.9250 C   0  0  0  0  0  2  0  0  0  0  0  0
  193.4680  171.1310  144.1540 N   0  0  0  0  0  2  0  0  0  0  0  0
  192.1690  169.4540  143.1930 O   0  0  0  0  0  0  0  0  0  0  0  0
  192.2880  170.6690  143.4930 C   0  0  0  0  0  0  0  0  0  0  0  0
  191.1840  171.6440  143.2040 C   0  0  1  0  0  3  0  0  0  0  0  0
  190.5290  172.1910  144.4640 C   0  0  0  0  0  1  0  0  0  0  0  0
  191.6380  172.7700  142.2770 C   0  0  0  0  0  2  0  0  0  0  0  0
  191.9930  172.2710  140.8780 C   0  0  2  0  0  3  0  0  0  0  0  0
  192.0090  172.9660  138.7160 O   0  0  0  0  0  1  0  0  0  0  0  0
  191.3230  173.1140  139.8770 N   0  0  0  0  0  0  0  0  0  0  0  0
  190.7930  171.7900  140.2160 C   0  0  0  0  0  2  0  0  0  0  0  0
  1  6  1  0  0  0  0
  2  3  1  0  0  0  0
  4  7  1  0  0  0  0
  4  8  1  0  0  0  0
  5  4  2  0  0  0  0
  6  7  2  0  0  0  0
  7 10  1  0  0  0  0
  8  2  2  0  0  0  0
  9  1  2  0  0  0  0
  9  5  1  0  0  0  0
 10 44  1  0  0  0  0
 10  3  2  0  0  0  0
 11 21  2  0  0  0  0
 12 24  1  6  0  0  0
 12 18  1  0  0  0  0
 13 18  1  0  0  0  0
 14 20  1  0  0  0  0
 15  2  1  6  0  0  0
 15 21  1  0  0  0  0
 16 23  1  6  0  0  0
 16 15  1  0  0  0  0
 16 19  1  0  0  0  0
 18 17  2  0  0  0  0
 19 20  1  6  0  0  0
 19 12  1  0  0  0  0
 21 13  1  0  0  0  0
 22 20  1  0  0  0  0
 23 14  1  0  0  0  0
 24 25  1  0  0  0  0
 25 26  1  0  0  0  0
 27 30  1  0  0  0  0
 27 26  1  0  0  0  0
 28 30  1  0  0  0  0
 30 29  2  0  0  0  0
 31  1  1  0  0  0  0
 33 38  1  6  0  0  0
 33 32  1  0  0  0  0
 33 36  1  0  0  0  0
 34 36  1  0  0  0  0
 34 31  1  6  0  0  0
 35 33  1  0  0  0  0
 35 34  1  0  0  0  0
 36 32  1  1  0  0  0
 37 41  1  0  0  0  0
 39 38  2  0  0  0  0
 40 41  1  0  0  0  0
 41 38  1  0  0  0  0
 42 43  1  0  0  0  0
 42 40  1  0  0  0  0
 43 37  1  0  0  0  0
 44 45  1  0  0  0  0
 47 50  1  6  0  0  0
 47 46  1  0  0  0  0
 48 45  1  6  0  0  0
 48 46  1  0  0  0  0
 49 47  1  0  0  0  0
 49 48  1  0  0  0  0
 51 52  2  0  0  0  0
 52 50  1  0  0  0  0
 53 52  1  0  0  0  0
 53 54  1  1  0  0  0
 55 53  1  0  0  0  0
 56 55  1  1  0  0  0
 57 58  1  0  0  0  0
 58 59  1  0  0  0  0
 58 56  1  0  0  0  0
 59 56  1  0  0  0  0
M  END
>  <MODEL>
4

>  <REMARK>
 VINA RESULT:      -6.1      2.183      4.325
  Name = 
  16 active torsions:
  status: ('A' for Active; 'I' for Inactive)
    1  A    between atoms: C_3  and  C_25
    2  A    between atoms: C_4  and  N_43
    3  A    between atoms: C_5  and  C_7
    4  A    between atoms: C_5  and  C_14
    5  A    between atoms: C_6  and  C_11
    6  A    between atoms: C_7  and  C_9
    7  A    between atoms: C_8  and  C_29
    8  A    between atoms: C_9  and  C_21
    9  A    between atoms: C_13  and  C_25
   10  A    between atoms: C_13  and  C_57
   11  A    between atoms: N_15  and  C_26
   12  A    between atoms: C_19  and  N_43
   13  A    between atoms: C_21  and  C_56
   14  A    between atoms: N_30  and  C_39
   15  A    between atoms: N_30  and  C_51
   16  A    between atoms: C_51  and  C_54
                            x       y       z     vdW  Elec       q    Type
                         _______ _______ _______ _____ _____    ______ ____

>  <TORSDO>
F 16

$$$$
=
 OpenBabel11042415443D

 59 67  0  0  1  0  0  0  0  0999 V2000
  189.1060  176.9740  145.8700 C   0  0  0  0  0  0  0  0  0  0  0  0
  192.8870  173.7460  145.0520 C   0  0  0  0  0  0  0  0  0  0  0  0
  192.5390  174.2550  143.8400 N   0  0  0  0  0  0  0  0  0  0  0  0
  191.1700  175.0840  146.0860 C   0  0  0  0  0  0  0  0  0  0  0  0
  190.4790  175.4980  147.2260 C   0  0  0  0  0  3  0  0  0  0  0  0
  189.7980  176.5610  144.7280 C   0  0  0  0  0  3  0  0  0  0  0  0
  190.8330  175.6130  144.8230 C   0  0  0  0  0  0  0  0  0  0  0  0
  192.1870  174.1420  146.1960 C   0  0  0  0  0  3  0  0  0  0  0  0
  189.4520  176.4400  147.1180 C   0  0  0  0  0  3  0  0  0  0  0  0
  191.5410  175.1690  143.6910 C   0  0  0  0  0  0  0  0  0  0  0  0
  195.5140  174.5010  144.9070 O   0  0  0  0  0  0  0  0  0  0  0  0
  196.0760  170.4370  144.1590 C   0  0  1  0  0  3  0  0  0  0  0  0
  196.4730  172.5150  145.6080 N   0  0  0  0  0  2  0  0  0  0  0  0
  192.5020  169.5720  143.8020 N   0  0  0  0  0  2  0  0  0  0  0  0
  193.9480  172.6790  145.1290 C   0  0  1  0  0  3  0  0  0  0  0  0
  193.7860  171.6020  144.0430 C   0  0  1  0  0  3  0  0  0  0  0  0
  197.5990  170.5190  145.9910 O   0  0  0  0  0  0  0  0  0  0  0  0
  196.7340  171.1380  145.3110 C   0  0  0  0  0  0  0  0  0  0  0  0
  194.5610  170.3740  144.3970 C   0  0  1  0  0  3  0  0  0  0  0  0
  193.8630  169.2180  143.8340 N   0  0  0  0  0  0  0  0  0  0  0  0
  195.3430  173.2770  145.1670 C   0  0  0  0  0  0  0  0  0  0  0  0
  194.2600  168.9820  142.4560 C   0  0  0  0  0  1  0  0  0  0  0  0
  192.3930  171.0250  143.9920 C   0  0  0  0  0  2  0  0  0  0  0  0
  196.4460  171.1110  142.8300 C   0  0  0  0  0  2  0  0  0  0  0  0
  197.8270  171.7430  142.8930 C   0  0  0  0  0  2  0  0  0  0  0  0
  197.9410  172.8690  141.8910 C   0  0  0  0  0  2  0  0  0  0  0  0
  196.5540  173.3490  141.5180 C   0  0  0  0  0  2  0  0  0  0  0  0
  195.2850  175.5200  141.2720 N   0  0  0  0  0  1  0  0  0  0  0  0
  197.4650  175.4770  142.0780 O   0  0  0  0  0  0  0  0  0  0  0  0
  196.4770  174.8330  141.6400 C   0  0  0  0  0  0  0  0  0  0  0  0
  188.0500  177.9330  145.7410 N   0  0  0  0  0  2  0  0  0  0  0  0
  184.4480  178.7740  146.5170 C   0  0  0  0  0  2  0  0  0  0  0  0
  184.8240  177.9200  145.3160 C   0  0  2  0  0  0  0  0  0  0  0  0
  186.7510  177.7900  146.3840 C   0  0  2  0  0  3  0  0  0  0  0  0
  185.8160  176.4340  145.6090 S   0  0  0  0  0  0  0  0  0  0  0  0
  185.8300  178.8970  145.9140 C   0  0  2  0  0  3  0  0  0  0  0  0
  186.4850  177.1750  142.9390 C   0  0  0  0  0  2  0  0  0  0  0  0
  184.4560  178.3380  143.9240 C   0  0  0  0  0  0  0  0  0  0  0  0
  183.4480  179.0810  143.7380 O   0  0  0  0  0  0  0  0  0  0  0  0
  184.9200  178.2460  141.4350 C   0  0  0  0  0  2  0  0  0  0  0  0
  185.2520  177.9220  142.8100 N   0  0  0  0  0  0  0  0  0  0  0  0
  186.0770  177.7370  140.6080 C   0  0  0  0  0  2  0  0  0  0  0  0
  186.9130  176.8530  141.5230 C   0  0  0  0  0  2  0  0  0  0  0  0
  191.1920  175.6520  142.3150 C   0  0  0  0  0  2  0  0  0  0  0  0
  189.9970  174.9780  141.8250 N   0  0  0  0  0  2  0  0  0  0  0  0
  189.4330  172.9540  140.6050 C   0  0  0  0  0  2  0  0  0  0  0  0
  190.6450  172.7870  139.7110 C   0  0  2  0  0  3  0  0  0  0  0  0
  190.3020  173.5620  141.6880 C   0  0  1  0  0  3  0  0  0  0  0  0
  191.5160  173.3870  140.7970 C   0  0  0  0  0  2  0  0  0  0  0  0
  190.5660  173.7080  138.5890 N   0  0  0  0  0  2  0  0  0  0  0  0
  191.4440  172.2000  137.0470 O   0  0  0  0  0  0  0  0  0  0  0  0
  190.9360  173.3300  137.2620 C   0  0  0  0  0  0  0  0  0  0  0  0
  190.6700  174.2800  136.1310 C   0  0  1  0  0  3  0  0  0  0  0  0
  191.6910  174.1690  135.0080 C   0  0  0  0  0  1  0  0  0  0  0  0
  189.2430  174.1600  135.6020 C   0  0  0  0  0  2  0  0  0  0  0  0
  188.4310  175.4370  135.8040 C   0  0  2  0  0  3  0  0  0  0  0  0
  186.8250  176.6800  134.7880 O   0  0  0  0  0  1  0  0  0  0  0  0
  187.8820  175.8750  134.5130 N   0  0  0  0  0  0  0  0  0  0  0  0
  189.0610  176.5310  135.0850 C   0  0  0  0  0  2  0  0  0  0  0  0
  1  9  1  0  0  0  0
  2  8  1  0  0  0  0
  3  2  2  0  0  0  0
  4  8  2  0  0  0  0
  4  5  1  0  0  0  0
  6  7  1  0  0  0  0
  6  1  2  0  0  0  0
  7  4  1  0  0  0  0
  9  5  2  0  0  0  0
 10  3  1  0  0  0  0
 10  7  2  0  0  0  0
 11 21  2  0  0  0  0
 12 24  1  6  0  0  0
 12 19  1  0  0  0  0
 12 18  1  0  0  0  0
 14 20  1  0  0  0  0
 14 23  1  0  0  0  0
 15  2  1  6  0  0  0
 15 21  1  0  0  0  0
 16 23  1  1  0  0  0
 16 19  1  0  0  0  0
 16 15  1  0  0  0  0
 18 13  1  0  0  0  0
 18 17  2  0  0  0  0
 19 20  1  6  0  0  0
 21 13  1  0  0  0  0
 22 20  1  0  0  0  0
 24 25  1  0  0  0  0
 26 25  1  0  0  0  0
 27 30  1  0  0  0  0
 27 26  1  0  0  0  0
 28 30  1  0  0  0  0
 30 29  2  0  0  0  0
 31  1  1  0  0  0  0
 33 38  1  6  0  0  0
 33 35  1  0  0  0  0
 33 36  1  0  0  0  0
 33 32  1  0  0  0  0
 34 31  1  6  0  0  0
 35 34  1  0  0  0  0
 36 34  1  0  0  0  0
 36 32  1  1  0  0  0
 39 38  2  0  0  0  0
 40 41  1  0  0  0  0
 41 37  1  0  0  0  0
 41 38  1  0  0  0  0
 42 40  1  0  0  0  0
 42 43  1  0  0  0  0
 43 37  1  0  0  0  0
 44 10  1  0  0  0  0
 45 44  1  0  0  0  0
 46 48  1  0  0  0  0
 47 50  1  6  0  0  0
 47 46  1  0  0  0  0
 47 49  1  0  0  0  0
 48 45  1  6  0  0  0
 49 48  1  0  0  0  0
 51 52  2  0  0  0  0
 52 50  1  0  0  0  0
 53 54  1  6  0  0  0
 53 52  1  0  0  0  0
 55 53  1  0  0  0  0
 56 55  1  6  0  0  0
 58 57  1  0  0  0  0
 58 59  1  0  0  0  0
 58 56  1  0  0  0  0
 59 56  1  0  0  0  0
M  END
>  <MODEL>
5

>  <REMARK>
 VINA RESULT:      -6.1      3.168      9.867
  Name = 
  16 active torsions:
  status: ('A' for Active; 'I' for Inactive)
    1  A    between atoms: C_3  and  C_25
    2  A    between atoms: C_4  and  N_43
    3  A    between atoms: C_5  and  C_7
    4  A    between atoms: C_5  and  C_14
    5  A    between atoms: C_6  and  C_11
    6  A    between atoms: C_7  and  C_9
    7  A    between atoms: C_8  and  C_29
    8  A    between atoms: C_9  and  C_21
    9  A    between atoms: C_13  and  C_25
   10  A    between atoms: C_13  and  C_57
   11  A    between atoms: N_15  and  C_26
   12  A    between atoms: C_19  and  N_43
   13  A    between atoms: C_21  and  C_56
   14  A    between atoms: N_30  and  C_39
   15  A    between atoms: N_30  and  C_51
   16  A    between atoms: C_51  and  C_54
                            x       y       z     vdW  Elec       q    Type
                         _______ _______ _______ _____ _____    ______ ____

>  <TORSDO>
F 16

$$$$
=
 OpenBabel11042415443D

 59 67  0  0  1  0  0  0  0  0999 V2000
  189.1700  177.2920  145.9150 C   0  0  0  0  0  0  0  0  0  0  0  0
  192.9290  174.1270  144.8020 C   0  0  0  0  0  0  0  0  0  0  0  0
  192.2950  174.4070  143.6320 N   0  0  0  0  0  0  0  0  0  0  0  0
  191.3710  175.5520  145.9660 C   0  0  0  0  0  0  0  0  0  0  0  0
  190.9070  176.1250  147.1500 C   0  0  0  0  0  3  0  0  0  0  0  0
  189.6350  176.7170  144.7280 C   0  0  0  0  0  3  0  0  0  0  0  0
  190.7360  175.8430  144.7410 C   0  0  0  0  0  0  0  0  0  0  0  0
  192.4580  174.6840  145.9950 C   0  0  0  0  0  3  0  0  0  0  0  0
  189.8110  176.9930  147.1240 C   0  0  0  0  0  3  0  0  0  0  0  0
  191.2210  175.2410  143.5650 C   0  0  0  0  0  0  0  0  0  0  0  0
  195.4480  175.0080  144.1940 O   0  0  0  0  0  0  0  0  0  0  0  0
  196.1740  170.9280  143.7290 C   0  0  1  0  0  3  0  0  0  0  0  0
  196.6340  173.1550  144.9130 N   0  0  0  0  0  2  0  0  0  0  0  0
  192.6550  169.8370  143.9960 N   0  0  0  0  0  2  0  0  0  0  0  0
  194.0610  173.1330  144.8100 C   0  0  1  0  0  3  0  0  0  0  0  0
  193.8160  171.9480  143.8600 C   0  0  1  0  0  3  0  0  0  0  0  0
  197.9390  171.2710  145.2930 O   0  0  0  0  0  0  0  0  0  0  0  0
  196.9430  171.7730  144.7010 C   0  0  0  0  0  0  0  0  0  0  0  0
  194.7180  170.8050  144.1990 C   0  0  1  0  0  3  0  0  0  0  0  0
  194.0260  169.5630  143.8520 N   0  0  0  0  0  0  0  0  0  0  0  0
  195.4010  173.8070  144.5840 C   0  0  0  0  0  0  0  0  0  0  0  0
  194.2330  169.2160  142.4560 C   0  0  0  0  0  1  0  0  0  0  0  0
  192.4740  171.2930  144.0720 C   0  0  0  0  0  2  0  0  0  0  0  0
  196.2980  171.4890  142.3050 C   0  0  0  0  0  2  0  0  0  0  0  0
  197.2210  170.6360  141.4500 C   0  0  0  0  0  2  0  0  0  0  0  0
  197.5150  171.3260  140.1370 C   0  0  0  0  0  2  0  0  0  0  0  0
  196.2160  171.7900  139.5140 C   0  0  0  0  0  2  0  0  0  0  0  0
  196.3020  171.1590  137.0690 N   0  0  0  0  0  1  0  0  0  0  0  0
  195.1140  169.8830  138.6070 O   0  0  0  0  0  0  0  0  0  0  0  0
  195.8380  170.8890  138.3880 C   0  0  0  0  0  0  0  0  0  0  0  0
  188.0400  178.1710  145.8730 N   0  0  0  0  0  2  0  0  0  0  0  0
  184.3580  178.5880  146.6140 C   0  0  0  0  0  2  0  0  0  0  0  0
  184.8410  177.8560  145.3720 C   0  0  2  0  0  0  0  0  0  0  0  0
  186.7520  177.8550  146.4750 C   0  0  2  0  0  3  0  0  0  0  0  0
  185.9760  176.4630  145.5940 S   0  0  0  0  0  0  0  0  0  0  0  0
  185.7290  178.8900  146.0530 C   0  0  2  0  0  3  0  0  0  0  0  0
  186.4350  177.1420  142.9400 C   0  0  0  0  0  2  0  0  0  0  0  0
  184.4550  178.3230  144.0000 C   0  0  0  0  0  0  0  0  0  0  0  0
  183.4620  179.0950  143.8560 O   0  0  0  0  0  0  0  0  0  0  0  0
  184.8680  178.2930  141.5000 C   0  0  0  0  0  2  0  0  0  0  0  0
  185.2180  177.9210  142.8580 N   0  0  0  0  0  0  0  0  0  0  0  0
  185.9950  177.7810  140.6350 C   0  0  0  0  0  2  0  0  0  0  0  0
  186.8270  176.8510  141.5060 C   0  0  0  0  0  2  0  0  0  0  0  0
  190.5530  175.4670  142.2410 C   0  0  0  0  0  2  0  0  0  0  0  0
  190.6940  174.2930  141.3910 N   0  0  0  0  0  2  0  0  0  0  0  0
  188.5970  173.7100  140.3110 C   0  0  0  0  0  2  0  0  0  0  0  0
  188.8760  172.2970  139.8400 C   0  0  2  0  0  3  0  0  0  0  0  0
  189.4840  173.4940  141.5210 C   0  0  1  0  0  3  0  0  0  0  0  0
  189.7570  172.0780  141.0550 C   0  0  0  0  0  2  0  0  0  0  0  0
  189.7000  172.3260  138.6430 N   0  0  0  0  0  2  0  0  0  0  0  0
  189.4500  170.0550  138.1900 O   0  0  0  0  0  0  0  0  0  0  0  0
  189.9050  171.1700  137.8280 C   0  0  0  0  0  0  0  0  0  0  0  0
  190.6290  171.3170  136.5220 C   0  0  1  0  0  3  0  0  0  0  0  0
  189.7230  171.7730  135.3870 C   0  0  0  0  0  1  0  0  0  0  0  0
  191.8620  172.2100  136.6450 C   0  0  0  0  0  2  0  0  0  0  0  0
  191.7510  173.4830  135.8100 C   0  0  2  0  0  3  0  0  0  0  0  0
  193.0520  174.9750  134.6960 O   0  0  0  0  0  1  0  0  0  0  0  0
  193.0540  174.1640  135.7840 N   0  0  0  0  0  0  0  0  0  0  0  0
  191.9770  174.6410  136.6580 C   0  0  0  0  0  2  0  0  0  0  0  0
  1  9  1  0  0  0  0
  2  8  1  0  0  0  0
  3  2  2  0  0  0  0
  4  8  2  0  0  0  0
  4  5  1  0  0  0  0
  6  7  1  0  0  0  0
  6  1  2  0  0  0  0
  7  4  1  0  0  0  0
  9  5  2  0  0  0  0
 10  3  1  0  0  0  0
 10  7  2  0  0  0  0
 11 21  2  0  0  0  0
 12 24  1  6  0  0  0
 12 19  1  0  0  0  0
 12 18  1  0  0  0  0
 14 23  1  0  0  0  0
 15  2  1  6  0  0  0
 16 23  1  1  0  0  0
 16 19  1  0  0  0  0
 16 15  1  0  0  0  0
 18 13  1  0  0  0  0
 18 17  2  0  0  0  0
 19 20  1  6  0  0  0
 20 14  1  0  0  0  0
 21 15  1  0  0  0  0
 21 13  1  0  0  0  0
 22 20  1  0  0  0  0
 25 24  1  0  0  0  0
 26 25  1  0  0  0  0
 27 26  1  0  0  0  0
 28 30  1  0  0  0  0
 30 29  2  0  0  0  0
 30 27  1  0  0  0  0
 31  1  1  0  0  0  0
 33 38  1  6  0  0  0
 33 35  1  0  0  0  0
 33 36  1  0  0  0  0
 33 32  1  0  0  0  0
 34 31  1  6  0  0  0
 35 34  1  0  0  0  0
 36 34  1  0  0  0  0
 36 32  1  1  0  0  0
 39 38  2  0  0  0  0
 40 41  1  0  0  0  0
 41 37  1  0  0  0  0
 41 38  1  0  0  0  0
 42 40  1  0  0  0  0
 42 43  1  0  0  0  0
 43 37  1  0  0  0  0
 44 10  1  0  0  0  0
 45 44  1  0  0  0  0
 46 48  1  0  0  0  0
 47 50  1  6  0  0  0
 47 46  1  0  0  0  0
 47 49  1  0  0  0  0
 48 45  1  6  0  0  0
 49 48  1  0  0  0  0
 52 51  2  0  0  0  0
 52 50  1  0  0  0  0
 53 54  1  6  0  0  0
 53 55  1  0  0  0  0
 53 52  1  0  0  0  0
 56 55  1  1  0  0  0
 56 59  1  0  0  0  0
 57 58  1  0  0  0  0
 58 56  1  0  0  0  0
 58 59  1  0  0  0  0
M  END
>  <MODEL>
6

>  <REMARK>
 VINA RESULT:      -6.0      3.038      9.960
  Name = 
  16 active torsions:
  status: ('A' for Active; 'I' for Inactive)
    1  A    between atoms: C_3  and  C_25
    2  A    between atoms: C_4  and  N_43
    3  A    between atoms: C_5  and  C_7
    4  A    between atoms: C_5  and  C_14
    5  A    between atoms: C_6  and  C_11
    6  A    between atoms: C_7  and  C_9
    7  A    between atoms: C_8  and  C_29
    8  A    between atoms: C_9  and  C_21
    9  A    between atoms: C_13  and  C_25
   10  A    between atoms: C_13  and  C_57
   11  A    between atoms: N_15  and  C_26
   12  A    between atoms: C_19  and  N_43
   13  A    between atoms: C_21  and  C_56
   14  A    between atoms: N_30  and  C_39
   15  A    between atoms: N_30  and  C_51
   16  A    between atoms: C_51  and  C_54
                            x       y       z     vdW  Elec       q    Type
                         _______ _______ _______ _____ _____    ______ ____

>  <TORSDO>
F 16

$$$$
=
 OpenBabel11042415443D

 59 67  0  0  1  0  0  0  0  0999 V2000
  197.0190  173.6150  141.1910 C   0  0  0  0  0  0  0  0  0  0  0  0
  193.3450  175.3580  144.1650 C   0  0  0  0  0  0  0  0  0  0  0  0
  193.0910  174.0370  143.9640 N   0  0  0  0  0  0  0  0  0  0  0  0
  195.3040  175.1740  142.7730 C   0  0  0  0  0  0  0  0  0  0  0  0
  196.4200  175.7560  142.1710 C   0  0  0  0  0  3  0  0  0  0  0  0
  195.9010  173.0320  141.7950 C   0  0  0  0  0  3  0  0  0  0  0  0
  195.0330  173.8020  142.5880 C   0  0  0  0  0  0  0  0  0  0  0  0
  194.4510  175.9520  143.5500 C   0  0  0  0  0  3  0  0  0  0  0  0
  197.2750  174.9780  141.3840 C   0  0  0  0  0  3  0  0  0  0  0  0
  193.8940  173.2470  143.2000 C   0  0  0  0  0  0  0  0  0  0  0  0
  192.7500  174.5880  146.7230 O   0  0  0  0  0  0  0  0  0  0  0  0
  189.5500  177.2080  146.1880 C   0  0  1  0  0  3  0  0  0  0  0  0
  191.6930  176.5260  147.4190 N   0  0  0  0  0  2  0  0  0  0  0  0
  190.0660  177.7770  142.5750 N   0  0  0  0  0  2  0  0  0  0  0  0
  192.3670  176.1870  144.9580 C   0  0  1  0  0  3  0  0  0  0  0  0
  191.0040  176.3250  144.2590 C   0  0  1  0  0  3  0  0  0  0  0  0
  190.3450  178.2600  148.1740 O   0  0  0  0  0  0  0  0  0  0  0  0
  190.5530  177.3820  147.2910 C   0  0  0  0  0  0  0  0  0  0  0  0
  190.2290  177.4660  144.8360 C   0  0  1  0  0  3  0  0  0  0  0  0
  189.3810  178.0190  143.7790 N   0  0  0  0  0  0  0  0  0  0  0  0
  192.2530  175.7000  146.3910 C   0  0  0  0  0  0  0  0  0  0  0  0
  188.1190  177.3040  143.6860 C   0  0  0  0  0  1  0  0  0  0  0  0
  191.1220  176.7870  142.8280 C   0  0  0  0  0  2  0  0  0  0  0  0
  188.8850  175.8270  146.2720 C   0  0  0  0  0  2  0  0  0  0  0  0
  187.7600  175.8130  147.2940 C   0  0  0  0  0  2  0  0  0  0  0  0
  186.5180  176.4580  146.7240 C   0  0  0  0  0  2  0  0  0  0  0  0
  186.4320  177.8910  147.2060 C   0  0  0  0  0  2  0  0  0  0  0  0
  185.6360  179.4690  145.4010 N   0  0  0  0  0  1  0  0  0  0  0  0
  184.1410  178.4370  146.8520 O   0  0  0  0  0  0  0  0  0  0  0  0
  185.3350  178.6050  146.4930 C   0  0  0  0  0  0  0  0  0  0  0  0
  197.8800  172.8060  140.3800 N   0  0  0  0  0  2  0  0  0  0  0  0
  195.4820  171.7440  137.6600 C   0  0  0  0  0  2  0  0  0  0  0  0
  196.0400  173.1570  137.7200 C   0  0  2  0  0  0  0  0  0  0  0  0
  197.4700  172.2160  139.1130 C   0  0  2  0  0  3  0  0  0  0  0  0
  197.8400  173.3580  137.7440 S   0  0  0  0  0  0  0  0  0  0  0  0
  195.9630  172.3030  138.9800 C   0  0  2  0  0  3  0  0  0  0  0  0
  194.4880  174.2130  135.3870 C   0  0  0  0  0  2  0  0  0  0  0  0
  195.1310  174.3440  137.8380 C   0  0  0  0  0  0  0  0  0  0  0  0
  195.0540  174.9680  138.9370 O   0  0  0  0  0  0  0  0  0  0  0  0
  193.4360  175.8950  136.7710 C   0  0  0  0  0  2  0  0  0  0  0  0
  194.3720  174.7880  136.7100 N   0  0  0  0  0  0  0  0  0  0  0  0
  192.9640  176.1080  135.3520 C   0  0  0  0  0  2  0  0  0  0  0  0
  193.4280  174.8990  134.5520 C   0  0  0  0  0  2  0  0  0  0  0  0
  193.5230  171.8090  142.9950 C   0  0  0  0  0  2  0  0  0  0  0  0
  192.7200  171.6550  141.7890 N   0  0  0  0  0  2  0  0  0  0  0  0
  190.8150  170.3430  141.0470 C   0  0  0  0  0  2  0  0  0  0  0  0
  191.4320  169.5000  139.9490 C   0  0  2  0  0  3  0  0  0  0  0  0
  192.1250  170.3280  141.8100 C   0  0  1  0  0  3  0  0  0  0  0  0
  192.7400  169.4770  140.7160 C   0  0  0  0  0  2  0  0  0  0  0  0
  191.5920  170.2950  138.7420 N   0  0  0  0  0  2  0  0  0  0  0  0
  189.9340  169.1690  137.5560 O   0  0  0  0  0  0  0  0  0  0  0  0
  190.7670  170.1100  137.5910 C   0  0  0  0  0  0  0  0  0  0  0  0
  190.8810  171.0770  136.4490 C   0  0  1  0  0  3  0  0  0  0  0  0
  191.3100  170.4140  135.1480 C   0  0  0  0  0  1  0  0  0  0  0  0
  189.6070  171.8990  136.2620 C   0  0  0  0  0  2  0  0  0  0  0  0
  189.2330  172.6950  137.5100 C   0  0  2  0  0  3  0  0  0  0  0  0
  188.0700  174.5430  138.1350 O   0  0  0  0  0  1  0  0  0  0  0  0
  188.8230  174.0510  137.1190 N   0  0  0  0  0  0  0  0  0  0  0  0
  190.1570  173.8040  137.6730 C   0  0  0  0  0  2  0  0  0  0  0  0
  1  9  2  0  0  0  0
  1  6  1  0  0  0  0
  3  2  1  0  0  0  0
  4  8  1  0  0  0  0
  5  4  2  0  0  0  0
  6  7  2  0  0  0  0
  7  4  1  0  0  0  0
  7 10  1  0  0  0  0
  8  2  2  0  0  0  0
  9  5  1  0  0  0  0
 10  3  2  0  0  0  0
 12 24  1  6  0  0  0
 12 18  1  0  0  0  0
 14 23  1  0  0  0  0
 14 20  1  0  0  0  0
 15  2  1  6  0  0  0
 15 21  1  0  0  0  0
 16 23  1  6  0  0  0
 16 19  1  0  0  0  0
 16 15  1  0  0  0  0
 18 13  1  0  0  0  0
 18 17  2  0  0  0  0
 19 20  1  6  0  0  0
 19 12  1  0  0  0  0
 21 11  2  0  0  0  0
 21 13  1  0  0  0  0
 22 20  1  0  0  0  0
 24 25  1  0  0  0  0
 26 27  1  0  0  0  0
 26 25  1  0  0  0  0
 28 30  1  0  0  0  0
 30 29  2  0  0  0  0
 30 27  1  0  0  0  0
 31  1  1  0  0  0  0
 32 33  1  0  0  0  0
 33 35  1  0  0  0  0
 33 38  1  6  0  0  0
 33 36  1  0  0  0  0
 34 31  1  1  0  0  0
 35 34  1  0  0  0  0
 36 32  1  6  0  0  0
 36 34  1  0  0  0  0
 37 41  1  0  0  0  0
 38 39  2  0  0  0  0
 41 40  1  0  0  0  0
 41 38  1  0  0  0  0
 42 40  1  0  0  0  0
 43 42  1  0  0  0  0
 43 37  1  0  0  0  0
 44 10  1  0  0  0  0
 45 44  1  0  0  0  0
 46 48  1  0  0  0  0
 47 50  1  6  0  0  0
 47 49  1  0  0  0  0
 47 46  1  0  0  0  0
 48 45  1  6  0  0  0
 49 48  1  0  0  0  0
 51 52  2  0  0  0  0
 52 50  1  0  0  0  0
 53 54  1  6  0  0  0
 53 52  1  0  0  0  0
 55 53  1  0  0  0  0
 56 55  1  6  0  0  0
 56 59  1  0  0  0  0
 58 56  1  0  0  0  0
 58 59  1  0  0  0  0
 58 57  1  0  0  0  0
M  END
>  <MODEL>
7

>  <REMARK>
 VINA RESULT:      -6.0      2.463      5.810
  Name = 
  16 active torsions:
  status: ('A' for Active; 'I' for Inactive)
    1  A    between atoms: C_3  and  C_25
    2  A    between atoms: C_4  and  N_43
    3  A    between atoms: C_5  and  C_7
    4  A    between atoms: C_5  and  C_14
    5  A    between atoms: C_6  and  C_11
    6  A    between atoms: C_7  and  C_9
    7  A    between atoms: C_8  and  C_29
    8  A    between atoms: C_9  and  C_21
    9  A    between atoms: C_13  and  C_25
   10  A    between atoms: C_13  and  C_57
   11  A    between atoms: N_15  and  C_26
   12  A    between atoms: C_19  and  N_43
   13  A    between atoms: C_21  and  C_56
   14  A    between atoms: N_30  and  C_39
   15  A    between atoms: N_30  and  C_51
   16  A    between atoms: C_51  and  C_54
                            x       y       z     vdW  Elec       q    Type
                         _______ _______ _______ _____ _____    ______ ____

>  <TORSDO>
F 16

$$$$
=
 OpenBabel11042415443D

 59 67  0  0  1  0  0  0  0  0999 V2000
  193.2410  173.7800  142.2420 C   0  0  0  0  0  0  0  0  0  0  0  0
  189.0420  176.5270  142.6960 C   0  0  0  0  0  0  0  0  0  0  0  0
  188.6500  175.2680  142.3600 N   0  0  0  0  0  0  0  0  0  0  0  0
  191.3420  175.8100  142.6300 C   0  0  0  0  0  0  0  0  0  0  0  0
  192.7020  176.0910  142.7660 C   0  0  0  0  0  3  0  0  0  0  0  0
  191.8790  173.4980  142.1070 C   0  0  0  0  0  3  0  0  0  0  0  0
  190.9180  174.5070  142.2970 C   0  0  0  0  0  0  0  0  0  0  0  0
  190.4030  176.8200  142.8160 C   0  0  0  0  0  3  0  0  0  0  0  0
  193.6480  175.0790  142.5740 C   0  0  0  0  0  3  0  0  0  0  0  0
  189.5400  174.2570  142.1570 C   0  0  0  0  0  0  0  0  0  0  0  0
  188.1090  177.1540  145.1910 O   0  0  0  0  0  0  0  0  0  0  0  0
  185.0980  179.0310  143.0010 C   0  0  1  0  0  3  0  0  0  0  0  0
  187.0470  179.1410  144.6630 N   0  0  0  0  0  2  0  0  0  0  0  0
  186.0750  177.6890  139.7000 N   0  0  0  0  0  2  0  0  0  0  0  0
  188.0050  177.6130  142.8250 C   0  0  1  0  0  3  0  0  0  0  0  0
  186.7440  177.3320  141.9910 C   0  0  1  0  0  3  0  0  0  0  0  0
  185.6810  180.9740  144.2510 O   0  0  0  0  0  0  0  0  0  0  0  0
  185.9630  179.7750  143.9740 C   0  0  0  0  0  0  0  0  0  0  0  0
  185.9460  178.5820  141.8030 C   0  0  1  0  0  3  0  0  0  0  0  0
  185.2570  178.4910  140.5160 N   0  0  0  0  0  0  0  0  0  0  0  0
  187.6980  177.9240  144.2790 C   0  0  0  0  0  0  0  0  0  0  0  0
  183.9900  177.7900  140.6450 C   0  0  0  0  0  1  0  0  0  0  0  0
  187.0540  177.0020  140.5520 C   0  0  0  0  0  2  0  0  0  0  0  0
  184.3770  177.8670  143.6940 C   0  0  0  0  0  2  0  0  0  0  0  0
  183.8040  178.2880  145.0370 C   0  0  0  0  0  2  0  0  0  0  0  0
  184.4390  177.4960  146.1570 C   0  0  0  0  0  2  0  0  0  0  0  0
  184.8110  178.4350  147.2860 C   0  0  0  0  0  2  0  0  0  0  0  0
  187.0390  179.0010  148.3350 N   0  0  0  0  0  1  0  0  0  0  0  0
  186.3800  176.7950  148.0100 O   0  0  0  0  0  0  0  0  0  0  0  0
  186.1090  178.0190  147.8890 C   0  0  0  0  0  0  0  0  0  0  0  0
  194.1980  172.7350  142.0330 N   0  0  0  0  0  2  0  0  0  0  0  0
  196.5720  172.0810  144.8990 C   0  0  0  0  0  2  0  0  0  0  0  0
  195.2580  172.8180  145.1070 C   0  0  2  0  0  0  0  0  0  0  0  0
  194.8120  171.9790  143.1150 C   0  0  2  0  0  3  0  0  0  0  0  0
  193.7320  171.9960  144.5820 S   0  0  0  0  0  0  0  0  0  0  0  0
  195.9240  172.7990  143.7370 C   0  0  2  0  0  3  0  0  0  0  0  0
  192.7030  174.1830  145.8650 C   0  0  0  0  0  2  0  0  0  0  0  0
  195.2320  174.2130  145.6560 C   0  0  0  0  0  0  0  0  0  0  0  0
  196.3090  174.8710  145.7500 O   0  0  0  0  0  0  0  0  0  0  0  0
  193.9040  176.1360  146.6360 C   0  0  0  0  0  2  0  0  0  0  0  0
  193.9930  174.8120  146.0490 N   0  0  0  0  0  0  0  0  0  0  0  0
  192.4280  176.4230  146.7710 C   0  0  0  0  0  2  0  0  0  0  0  0
  191.7030  175.1070  146.5280 C   0  0  0  0  0  2  0  0  0  0  0  0
  189.0300  172.9070  141.7490 C   0  0  0  0  0  2  0  0  0  0  0  0
  189.5270  172.5520  140.4270 N   0  0  0  0  0  2  0  0  0  0  0  0
  188.5400  174.1270  138.8630 C   0  0  0  0  0  2  0  0  0  0  0  0
  188.9350  173.5250  137.5300 C   0  0  2  0  0  3  0  0  0  0  0  0
  188.4450  172.7430  139.4730 C   0  0  1  0  0  3  0  0  0  0  0  0
  188.8320  172.1390  138.1370 C   0  0  0  0  0  2  0  0  0  0  0  0
  190.3280  173.8250  137.2420 N   0  0  0  0  0  2  0  0  0  0  0  0
  189.9070  174.6260  135.0960 O   0  0  0  0  0  0  0  0  0  0  0  0
  190.7420  174.4290  136.0150 C   0  0  0  0  0  0  0  0  0  0  0  0
  192.1720  174.8590  135.8600 C   0  0  1  0  0  3  0  0  0  0  0  0
  192.3210  176.3570  135.6340 C   0  0  0  0  0  1  0  0  0  0  0  0
  193.0460  174.3790  137.0160 C   0  0  0  0  0  2  0  0  0  0  0  0
  193.7600  173.0650  136.7070 C   0  0  2  0  0  3  0  0  0  0  0  0
  195.7830  172.0630  136.9510 O   0  0  0  0  0  1  0  0  0  0  0  0
  195.2140  173.2780  136.7520 N   0  0  0  0  0  0  0  0  0  0  0  0
  194.5080  173.1990  135.4690 C   0  0  0  0  0  2  0  0  0  0  0  0
  1  9  1  0  0  0  0
  2  8  1  0  0  0  0
  3  2  2  0  0  0  0
  4  5  1  0  0  0  0
  4  8  2  0  0  0  0
  6  1  2  0  0  0  0
  6  7  1  0  0  0  0
  7  4  1  0  0  0  0
  9  5  2  0  0  0  0
 10  7  2  0  0  0  0
 10  3  1  0  0  0  0
 12 24  1  1  0  0  0
 12 18  1  0  0  0  0
 14 20  1  0  0  0  0
 14 23  1  0  0  0  0
 15  2  1  1  0  0  0
 15 21  1  0  0  0  0
 16 23  1  6  0  0  0
 16 15  1  0  0  0  0
 18 17  2  0  0  0  0
 18 13  1  0  0  0  0
 19 20  1  6  0  0  0
 19 16  1  0  0  0  0
 19 12  1  0  0  0  0
 20 22  1  0  0  0  0
 21 13  1  0  0  0  0
 21 11  2  0  0  0  0
 24 25  1  0  0  0  0
 25 26  1  0  0  0  0
 26 27  1  0  0  0  0
 27 30  1  0  0  0  0
 30 29  2  0  0  0  0
 30 28  1  0  0  0  0
 31  1  1  0  0  0  0
 32 33  1  0  0  0  0
 33 38  1  1  0  0  0
 34 31  1  6  0  0  0
 34 36  1  0  0  0  0
 34 35  1  0  0  0  0
 35 33  1  0  0  0  0
 36 32  1  1  0  0  0
 36 33  1  0  0  0  0
 37 41  1  0  0  0  0
 37 43  1  0  0  0  0
 38 39  2  0  0  0  0
 38 41  1  0  0  0  0
 40 42  1  0  0  0  0
 41 40  1  0  0  0  0
 43 42  1  0  0  0  0
 44 10  1  0  0  0  0
 45 44  1  0  0  0  0
 46 48  1  0  0  0  0
 47 50  1  1  0  0  0
 47 49  1  0  0  0  0
 47 46  1  0  0  0  0
 48 45  1  1  0  0  0
 49 48  1  0  0  0  0
 51 52  2  0  0  0  0
 52 50  1  0  0  0  0
 53 54  1  1  0  0  0
 53 52  1  0  0  0  0
 53 55  1  0  0  0  0
 56 58  1  0  0  0  0
 56 55  1  1  0  0  0
 58 57  1  0  0  0  0
 59 56  1  0  0  0  0
 59 58  1  0  0  0  0
M  END
>  <MODEL>
8

>  <REMARK>
 VINA RESULT:      -6.0      3.045      7.404
  Name = 
  16 active torsions:
  status: ('A' for Active; 'I' for Inactive)
    1  A    between atoms: C_3  and  C_25
    2  A    between atoms: C_4  and  N_43
    3  A    between atoms: C_5  and  C_7
    4  A    between atoms: C_5  and  C_14
    5  A    between atoms: C_6  and  C_11
    6  A    between atoms: C_7  and  C_9
    7  A    between atoms: C_8  and  C_29
    8  A    between atoms: C_9  and  C_21
    9  A    between atoms: C_13  and  C_25
   10  A    between atoms: C_13  and  C_57
   11  A    between atoms: N_15  and  C_26
   12  A    between atoms: C_19  and  N_43
   13  A    between atoms: C_21  and  C_56
   14  A    between atoms: N_30  and  C_39
   15  A    between atoms: N_30  and  C_51
   16  A    between atoms: C_51  and  C_54
                            x       y       z     vdW  Elec       q    Type
                         _______ _______ _______ _____ _____    ______ ____

>  <TORSDO>
F 16

$$$$
=
 OpenBabel11042415443D

 59 67  0  0  1  0  0  0  0  0999 V2000
  193.1990  173.5940  142.3600 C   0  0  0  0  0  0  0  0  0  0  0  0
  189.0650  176.4340  142.8320 C   0  0  0  0  0  0  0  0  0  0  0  0
  188.6430  175.1450  142.7260 N   0  0  0  0  0  0  0  0  0  0  0  0
  191.3470  175.6840  142.6380 C   0  0  0  0  0  0  0  0  0  0  0  0
  192.7130  175.9630  142.5910 C   0  0  0  0  0  3  0  0  0  0  0  0
  191.8310  173.3140  142.4070 C   0  0  0  0  0  3  0  0  0  0  0  0
  190.8930  174.3520  142.5440 C   0  0  0  0  0  0  0  0  0  0  0  0
  190.4310  176.7230  142.7680 C   0  0  0  0  0  3  0  0  0  0  0  0
  193.6360  174.9210  142.4540 C   0  0  0  0  0  3  0  0  0  0  0  0
  189.5080  174.1030  142.5840 C   0  0  0  0  0  0  0  0  0  0  0  0
  188.0920  177.1550  145.2860 O   0  0  0  0  0  0  0  0  0  0  0  0
  185.1620  179.0140  142.9750 C   0  0  1  0  0  3  0  0  0  0  0  0
  187.0770  179.1430  144.6740 N   0  0  0  0  0  2  0  0  0  0  0  0
  186.1820  177.5530  139.7390 N   0  0  0  0  0  2  0  0  0  0  0  0
  188.0460  177.5410  142.9060 C   0  0  1  0  0  3  0  0  0  0  0  0
  186.7970  177.2560  142.0540 C   0  0  1  0  0  3  0  0  0  0  0  0
  185.7530  180.9850  144.1770 O   0  0  0  0  0  0  0  0  0  0  0  0
  186.0190  179.7740  143.9430 C   0  0  0  0  0  0  0  0  0  0  0  0
  186.0260  178.5130  141.8100 C   0  0  1  0  0  3  0  0  0  0  0  0
  185.3610  178.3940  140.5120 N   0  0  0  0  0  0  0  0  0  0  0  0
  187.7140  177.9030  144.3420 C   0  0  0  0  0  0  0  0  0  0  0  0
  184.0800  177.7190  140.6360 C   0  0  0  0  0  1  0  0  0  0  0  0
  187.1310  176.8750  140.6330 C   0  0  0  0  0  2  0  0  0  0  0  0
  184.4060  177.8850  143.6890 C   0  0  0  0  0  2  0  0  0  0  0  0
  183.8250  178.3540  145.0130 C   0  0  0  0  0  2  0  0  0  0  0  0
  184.3110  177.4800  146.1460 C   0  0  0  0  0  2  0  0  0  0  0  0
  184.6580  178.3500  147.3360 C   0  0  0  0  0  2  0  0  0  0  0  0
  186.3800  176.6090  147.9600 N   0  0  0  0  0  1  0  0  0  0  0  0
  186.8030  178.8800  148.2250 O   0  0  0  0  0  0  0  0  0  0  0  0
  186.0000  177.9790  147.8660 C   0  0  0  0  0  0  0  0  0  0  0  0
  194.1310  172.5160  142.2100 N   0  0  0  0  0  2  0  0  0  0  0  0
  196.5310  172.0610  145.0930 C   0  0  0  0  0  2  0  0  0  0  0  0
  195.2120  172.7990  145.2650 C   0  0  2  0  0  0  0  0  0  0  0  0
  194.7590  171.8340  143.3330 C   0  0  2  0  0  3  0  0  0  0  0  0
  193.6890  171.9350  144.8030 S   0  0  0  0  0  0  0  0  0  0  0  0
  195.8690  172.7000  143.8930 C   0  0  2  0  0  3  0  0  0  0  0  0
  192.6480  174.2010  145.9200 C   0  0  0  0  0  2  0  0  0  0  0  0
  195.1780  174.2260  145.7250 C   0  0  0  0  0  0  0  0  0  0  0  0
  196.2530  174.8920  145.7850 O   0  0  0  0  0  0  0  0  0  0  0  0
  193.8390  176.2020  146.5750 C   0  0  0  0  0  2  0  0  0  0  0  0
  193.9360  174.8440  146.0720 N   0  0  0  0  0  0  0  0  0  0  0  0
  192.3610  176.4920  146.6820 C   0  0  0  0  0  2  0  0  0  0  0  0
  191.6410  175.1610  146.5160 C   0  0  0  0  0  2  0  0  0  0  0  0
  188.9610  172.7150  142.4330 C   0  0  0  0  0  2  0  0  0  0  0  0
  189.2370  172.2000  141.0990 N   0  0  0  0  0  2  0  0  0  0  0  0
  189.6650  173.5470  139.1220 C   0  0  0  0  0  2  0  0  0  0  0  0
  188.9800  172.7340  138.0430 C   0  0  2  0  0  3  0  0  0  0  0  0
  188.6260  173.1010  140.1330 C   0  0  1  0  0  3  0  0  0  0  0  0
  187.9360  172.2940  139.0510 C   0  0  0  0  0  2  0  0  0  0  0  0
  189.8080  171.5970  137.6760 N   0  0  0  0  0  2  0  0  0  0  0  0
  189.3430  171.7550  135.3990 O   0  0  0  0  0  0  0  0  0  0  0  0
  189.9890  171.1900  136.3180 C   0  0  0  0  0  0  0  0  0  0  0  0
  190.9880  170.1140  136.0060 C   0  0  1  0  0  3  0  0  0  0  0  0
  191.3570  170.0540  134.5310 C   0  0  0  0  0  1  0  0  0  0  0  0
  192.2310  170.2090  136.8880 C   0  0  0  0  0  2  0  0  0  0  0  0
  192.3800  169.0110  137.8240 C   0  0  2  0  0  3  0  0  0  0  0  0
  192.0910  168.4330  140.0010 O   0  0  0  0  0  1  0  0  0  0  0  0
  192.4360  169.4840  139.2150 N   0  0  0  0  0  0  0  0  0  0  0  0
  193.6590  169.0880  138.5090 C   0  0  0  0  0  2  0  0  0  0  0  0
  1  6  2  0  0  0  0
  1  9  1  0  0  0  0
  3  2  2  0  0  0  0
  4  8  2  0  0  0  0
  5  4  1  0  0  0  0
  6  7  1  0  0  0  0
  7 10  2  0  0  0  0
  7  4  1  0  0  0  0
  8  2  1  0  0  0  0
  9  5  2  0  0  0  0
 10  3  1  0  0  0  0
 12 24  1  1  0  0  0
 12 18  1  0  0  0  0
 14 20  1  0  0  0  0
 14 23  1  0  0  0  0
 15  2  1  1  0  0  0
 15 21  1  0  0  0  0
 16 23  1  6  0  0  0
 16 15  1  0  0  0  0
 18 17  2  0  0  0  0
 18 13  1  0  0  0  0
 19 20  1  6  0  0  0
 19 16  1  0  0  0  0
 19 12  1  0  0  0  0
 20 22  1  0  0  0  0
 21 13  1  0  0  0  0
 21 11  2  0  0  0  0
 24 25  1  0  0  0  0
 25 26  1  0  0  0  0
 26 27  1  0  0  0  0
 27 30  1  0  0  0  0
 30 28  1  0  0  0  0
 30 29  2  0  0  0  0
 31  1  1  0  0  0  0
 32 33  1  0  0  0  0
 33 38  1  1  0  0  0
 34 31  1  6  0  0  0
 34 36  1  0  0  0  0
 34 35  1  0  0  0  0
 35 33  1  0  0  0  0
 36 32  1  1  0  0  0
 36 33  1  0  0  0  0
 37 41  1  0  0  0  0
 37 43  1  0  0  0  0
 38 39  2  0  0  0  0
 38 41  1  0  0  0  0
 40 42  1  0  0  0  0
 41 40  1  0  0  0  0
 43 42  1  0  0  0  0
 44 10  1  0  0  0  0
 45 44  1  0  0  0  0
 46 48  1  0  0  0  0
 47 50  1  1  0  0  0
 47 49  1  0  0  0  0
 47 46  1  0  0  0  0
 48 45  1  1  0  0  0
 49 48  1  0  0  0  0
 51 52  2  0  0  0  0
 52 50  1  0  0  0  0
 53 54  1  6  0  0  0
 53 52  1  0  0  0  0
 53 55  1  0  0  0  0
 56 55  1  6  0  0  0
 56 59  1  0  0  0  0
 56 58  1  0  0  0  0
 58 57  1  0  0  0  0
 59 58  1  0  0  0  0
M  END
>  <MODEL>
9

>  <REMARK>
 VINA RESULT:      -6.0      2.868      7.600
  Name = 
  16 active torsions:
  status: ('A' for Active; 'I' for Inactive)
    1  A    between atoms: C_3  and  C_25
    2  A    between atoms: C_4  and  N_43
    3  A    between atoms: C_5  and  C_7
    4  A    between atoms: C_5  and  C_14
    5  A    between atoms: C_6  and  C_11
    6  A    between atoms: C_7  and  C_9
    7  A    between atoms: C_8  and  C_29
    8  A    between atoms: C_9  and  C_21
    9  A    between atoms: C_13  and  C_25
   10  A    between atoms: C_13  and  C_57
   11  A    between atoms: N_15  and  C_26
   12  A    between atoms: C_19  and  N_43
   13  A    between atoms: C_21  and  C_56
   14  A    between atoms: N_30  and  C_39
   15  A    between atoms: N_30  and  C_51
   16  A    between atoms: C_51  and  C_54
                            x       y       z     vdW  Elec       q    Type
                         _______ _______ _______ _____ _____    ______ ____

>  <TORSDO>
F 16

$$$$
