=
 OpenBabel11042418303D

 30 32  0  0  0  0  0  0  0  0999 V2000
  191.2150  173.4280  140.4370 C   0  0  0  0  0  3  0  0  0  0  0  0
  194.4470  176.5140  145.4560 C   0  0  0  0  0  3  0  0  0  0  0  0
  186.5540  178.4230  143.9370 N   0  0  0  0  0  2  0  0  0  0  0  0
  193.6530  173.7310  143.2680 C   0  0  0  0  0  2  0  0  0  0  0  0
  193.8450  175.2380  143.3920 C   0  0  0  0  0  2  0  0  0  0  0  0
  188.0850  176.6710  143.0270 C   0  0  0  0  0  0  0  0  0  0  0  0
  191.7370  173.7420  141.6940 C   0  0  0  0  0  0  0  0  0  0  0  0
  190.9170  174.4050  142.6090 C   0  0  0  0  0  3  0  0  0  0  0  0
  189.6220  174.7760  142.2700 C   0  0  0  0  0  0  0  0  0  0  0  0
  194.1330  176.9810  146.6940 N   0  0  0  0  0  0  0  0  0  0  0  0
  188.1020  177.3660  145.3720 N   0  0  0  0  0  0  0  0  0  0  0  0
  193.0600  173.4100  142.0100 O   0  0  0  0  0  0  0  0  0  0  0  0
  187.5940  177.4680  144.1750 C   0  0  0  0  0  0  0  0  0  0  0  0
  189.1290  174.4300  141.0010 C   0  0  0  0  0  0  0  0  0  0  0  0
  192.9460  176.6780  147.2810 C   0  0  0  0  0  3  0  0  0  0  0  0
  188.8560  175.4850  143.2470 N   0  0  0  0  0  2  0  0  0  0  0  0
  189.9340  173.7680  140.1230 N   0  0  0  0  0  0  0  0  0  0  0  0
  189.1480  176.4900  145.6950 N   0  0  0  0  0  0  0  0  0  0  0  0
  187.8460  174.6950  140.6540 F   0  0  0  0  0  0  0  0  0  0  0  0
  192.0270  175.8770  146.5990 C   0  0  0  0  0  0  0  0  0  0  0  0
  189.6410  176.4690  146.8890 C   0  0  0  0  0  3  0  0  0  0  0  0
  192.3380  175.4160  145.3570 N   0  0  0  0  0  0  0  0  0  0  0  0
  187.8530  177.0720  141.8560 O   0  0  0  0  0  0  0  0  0  0  0  0
  193.5340  175.7060  144.7750 C   0  0  0  0  0  0  0  0  0  0  0  0
  190.7290  175.5090  147.2410 C   0  0  0  0  0  2  0  0  0  0  0  0
  186.0670  179.2610  144.9530 N   0  0  0  0  0  2  0  0  0  0  0  0
  184.7190  178.8200  145.2700 C   0  0  0  0  0  2  0  0  0  0  0  0
  184.6930  178.5470  147.6340 O   0  0  0  0  0  1  0  0  0  0  0  0
  184.8590  176.6120  146.4160 O   0  0  0  0  0  0  0  0  0  0  0  0
  184.7430  177.9930  146.5050 C   0  0  0  0  0  0  0  0  0  0  0  0
  1  7  1  0  0  0  0
  2 10  1  0  0  0  0
  3 13  1  0  0  0  0
  3 26  1  0  0  0  0
  4  5  1  0  0  0  0
  5 24  1  0  0  0  0
  6 16  1  0  0  0  0
  6 13  1  0  0  0  0
  7 12  1  0  0  0  0
  7  8  2  0  0  0  0
  9  8  1  0  0  0  0
  9 16  1  0  0  0  0
 10 15  2  0  0  0  0
 11 18  1  0  0  0  0
 12  4  1  0  0  0  0
 13 11  2  0  0  0  0
 14  9  2  0  0  0  0
 17  1  2  0  0  0  0
 17 14  1  0  0  0  0
 18 21  2  0  0  0  0
 19 14  1  0  0  0  0
 20 25  1  0  0  0  0
 20 15  1  0  0  0  0
 21 25  1  0  0  0  0
 22 20  2  0  0  0  0
 23  6  2  0  0  0  0
 24 22  1  0  0  0  0
 24  2  2  0  0  0  0
 26 27  1  0  0  0  0
 27 30  1  0  0  0  0
 29 30  2  0  0  0  0
 30 28  1  0  0  0  0
M  END
>  <MODEL>
1

>  <REMARK>
 VINA RESULT:      -7.3      0.000      0.000
  Name = 
  3 active torsions:
  status: ('A' for Active; 'I' for Inactive)
    1  A    between atoms: N_3  and  N_27
    2  A    between atoms: C_26  and  N_27
    3  A    between atoms: C_26  and  C_30
                            x       y       z     vdW  Elec       q    Type
                         _______ _______ _______ _____ _____    ______ ____

>  <TORSDO>
F 3

$$$$
=
 OpenBabel11042418303D

 30 32  0  0  0  0  0  0  0  0999 V2000
  184.3790  179.0290  146.3230 C   0  0  0  0  0  3  0  0  0  0  0  0
  186.6870  177.5660  140.1840 C   0  0  0  0  0  3  0  0  0  0  0  0
  191.5130  176.2250  146.7530 N   0  0  0  0  0  2  0  0  0  0  0  0
  184.1520  177.8860  142.7610 C   0  0  0  0  0  2  0  0  0  0  0  0
  185.4120  178.4720  142.1340 C   0  0  0  0  0  2  0  0  0  0  0  0
  189.1210  176.9070  146.5110 C   0  0  0  0  0  0  0  0  0  0  0  0
  184.6820  178.3560  145.1380 C   0  0  0  0  0  0  0  0  0  0  0  0
  185.8090  177.5320  145.1070 C   0  0  0  0  0  3  0  0  0  0  0  0
  186.6340  177.4090  146.2180 C   0  0  0  0  0  0  0  0  0  0  0  0
  187.4860  176.6170  139.6280 N   0  0  0  0  0  0  0  0  0  0  0  0
  190.2010  175.2910  145.0260 N   0  0  0  0  0  0  0  0  0  0  0  0
  183.8750  178.5250  144.0060 O   0  0  0  0  0  0  0  0  0  0  0  0
  190.2690  176.0880  146.0570 C   0  0  0  0  0  0  0  0  0  0  0  0
  186.2880  178.0910  147.3970 C   0  0  0  0  0  0  0  0  0  0  0  0
  187.8630  175.5160  140.3300 C   0  0  0  0  0  3  0  0  0  0  0  0
  187.7900  176.5770  146.1000 N   0  0  0  0  0  2  0  0  0  0  0  0
  185.1750  178.8770  147.4180 N   0  0  0  0  0  0  0  0  0  0  0  0
  189.0430  175.1180  144.2570 N   0  0  0  0  0  0  0  0  0  0  0  0
  187.0120  177.9360  148.5320 F   0  0  0  0  0  0  0  0  0  0  0  0
  187.4260  175.3570  141.6470 C   0  0  0  0  0  0  0  0  0  0  0  0
  189.0520  174.3500  143.2190 C   0  0  0  0  0  3  0  0  0  0  0  0
  186.6320  176.3120  142.2040 N   0  0  0  0  0  0  0  0  0  0  0  0
  189.3340  177.9200  147.2270 O   0  0  0  0  0  0  0  0  0  0  0  0
  186.2420  177.4070  141.4970 C   0  0  0  0  0  0  0  0  0  0  0  0
  187.8060  174.1390  142.4230 C   0  0  0  0  0  2  0  0  0  0  0  0
  192.6680  175.5320  146.3570 N   0  0  0  0  0  2  0  0  0  0  0  0
  193.7980  176.4220  146.5640 C   0  0  0  0  0  2  0  0  0  0  0  0
  195.5900  174.9330  146.0770 O   0  0  0  0  0  1  0  0  0  0  0  0
  195.3460  176.6960  144.6320 O   0  0  0  0  0  0  0  0  0  0  0  0
  194.9510  175.9650  145.7440 C   0  0  0  0  0  0  0  0  0  0  0  0
  1 17  1  0  0  0  0
  2 24  1  0  0  0  0
  4 12  1  0  0  0  0
  5  4  1  0  0  0  0
  6 23  2  0  0  0  0
  7  1  2  0  0  0  0
  8  7  1  0  0  0  0
  8  9  2  0  0  0  0
  9 14  1  0  0  0  0
 10  2  2  0  0  0  0
 10 15  1  0  0  0  0
 11 13  2  0  0  0  0
 12  7  1  0  0  0  0
 13  6  1  0  0  0  0
 13  3  1  0  0  0  0
 14 17  2  0  0  0  0
 14 19  1  0  0  0  0
 15 20  2  0  0  0  0
 16  9  1  0  0  0  0
 16  6  1  0  0  0  0
 18 11  1  0  0  0  0
 20 22  1  0  0  0  0
 20 25  1  0  0  0  0
 21 18  2  0  0  0  0
 24  5  1  0  0  0  0
 24 22  2  0  0  0  0
 25 21  1  0  0  0  0
 26 27  1  0  0  0  0
 26  3  1  0  0  0  0
 29 30  2  0  0  0  0
 30 28  1  0  0  0  0
 30 27  1  0  0  0  0
M  END
>  <MODEL>
2

>  <REMARK>
 VINA RESULT:      -7.3      2.911      7.965
  Name = 
  3 active torsions:
  status: ('A' for Active; 'I' for Inactive)
    1  A    between atoms: N_3  and  N_27
    2  A    between atoms: C_26  and  N_27
    3  A    between atoms: C_26  and  C_30
                            x       y       z     vdW  Elec       q    Type
                         _______ _______ _______ _____ _____    ______ ____

>  <TORSDO>
F 3

$$$$
=
 OpenBabel11042418303D

 30 32  0  0  0  0  0  0  0  0999 V2000
  194.3600  175.0030  145.4480 C   0  0  0  0  0  3  0  0  0  0  0  0
  190.1630  172.0830  141.0880 C   0  0  0  0  0  3  0  0  0  0  0  0
  187.0800  176.6560  147.2390 N   0  0  0  0  0  2  0  0  0  0  0  0
  193.2390  173.7120  142.1130 C   0  0  0  0  0  2  0  0  0  0  0  0
  192.1360  172.7280  142.4820 C   0  0  0  0  0  2  0  0  0  0  0  0
  189.4080  176.2410  146.4290 C   0  0  0  0  0  0  0  0  0  0  0  0
  193.5470  174.7590  144.3400 C   0  0  0  0  0  0  0  0  0  0  0  0
  192.2410  175.2550  144.3480 C   0  0  0  0  0  3  0  0  0  0  0  0
  191.7480  175.9460  145.4470 C   0  0  0  0  0  0  0  0  0  0  0  0
  188.9730  172.3890  140.5050 N   0  0  0  0  0  0  0  0  0  0  0  0
  187.4930  176.4590  144.9220 N   0  0  0  0  0  0  0  0  0  0  0  0
  194.0350  174.0160  143.2580 O   0  0  0  0  0  0  0  0  0  0  0  0
  187.9740  176.4690  146.1350 C   0  0  0  0  0  0  0  0  0  0  0  0
  192.6020  176.1840  146.5370 C   0  0  0  0  0  0  0  0  0  0  0  0
  188.4440  173.6370  140.5980 C   0  0  0  0  0  3  0  0  0  0  0  0
  190.3900  176.3920  145.3980 N   0  0  0  0  0  2  0  0  0  0  0  0
  193.8790  175.7100  146.5080 N   0  0  0  0  0  0  0  0  0  0  0  0
  188.2790  176.2460  143.7820 N   0  0  0  0  0  0  0  0  0  0  0  0
  192.1940  176.9270  147.5950 F   0  0  0  0  0  0  0  0  0  0  0  0
  189.1320  174.6240  141.3070 C   0  0  0  0  0  0  0  0  0  0  0  0
  187.7370  176.1990  142.6100 C   0  0  0  0  0  3  0  0  0  0  0  0
  190.3200  174.3150  141.8960 N   0  0  0  0  0  0  0  0  0  0  0  0
  189.7480  175.8730  147.5840 O   0  0  0  0  0  0  0  0  0  0  0  0
  190.8570  173.0690  141.7910 C   0  0  0  0  0  0  0  0  0  0  0  0
  188.5810  176.0090  141.3930 C   0  0  0  0  0  2  0  0  0  0  0  0
  185.6980  176.8200  147.0570 N   0  0  0  0  0  2  0  0  0  0  0  0
  185.3880  178.2130  147.3330 C   0  0  0  0  0  2  0  0  0  0  0  0
  183.6910  178.8580  145.7940 O   0  0  0  0  0  1  0  0  0  0  0  0
  185.8250  179.4770  145.2310 O   0  0  0  0  0  0  0  0  0  0  0  0
  184.9140  178.8740  146.0890 C   0  0  0  0  0  0  0  0  0  0  0  0
  1 17  1  0  0  0  0
  2 24  1  0  0  0  0
  4  5  1  0  0  0  0
  4 12  1  0  0  0  0
  6 23  2  0  0  0  0
  7  8  1  0  0  0  0
  7  1  2  0  0  0  0
  8  9  2  0  0  0  0
  9 14  1  0  0  0  0
 10 15  1  0  0  0  0
 10  2  2  0  0  0  0
 11 13  2  0  0  0  0
 12  7  1  0  0  0  0
 13  6  1  0  0  0  0
 13  3  1  0  0  0  0
 14 19  1  0  0  0  0
 15 20  2  0  0  0  0
 16  9  1  0  0  0  0
 16  6  1  0  0  0  0
 17 14  2  0  0  0  0
 18 11  1  0  0  0  0
 20 25  1  0  0  0  0
 20 22  1  0  0  0  0
 21 18  2  0  0  0  0
 24 22  2  0  0  0  0
 24  5  1  0  0  0  0
 25 21  1  0  0  0  0
 26  3  1  0  0  0  0
 26 27  1  0  0  0  0
 28 30  1  0  0  0  0
 29 30  2  0  0  0  0
 30 27  1  0  0  0  0
M  END
>  <MODEL>
3

>  <REMARK>
 VINA RESULT:      -7.1      2.342      4.950
  Name = 
  3 active torsions:
  status: ('A' for Active; 'I' for Inactive)
    1  A    between atoms: N_3  and  N_27
    2  A    between atoms: C_26  and  N_27
    3  A    between atoms: C_26  and  C_30
                            x       y       z     vdW  Elec       q    Type
                         _______ _______ _______ _____ _____    ______ ____

>  <TORSDO>
F 3

$$$$
=
 OpenBabel11042418303D

 30 32  0  0  0  0  0  0  0  0999 V2000
  185.7450  177.7120  140.0910 C   0  0  0  0  0  3  0  0  0  0  0  0
  185.0030  177.7530  146.7700 C   0  0  0  0  0  3  0  0  0  0  0  0
  190.1000  172.2600  143.2910 N   0  0  0  0  0  2  0  0  0  0  0  0
  185.1940  179.2440  143.4670 C   0  0  0  0  0  2  0  0  0  0  0  0
  184.7210  178.0620  144.3050 C   0  0  0  0  0  2  0  0  0  0  0  0
  188.8240  174.2080  142.3850 C   0  0  0  0  0  0  0  0  0  0  0  0
  185.9090  177.9920  141.4490 C   0  0  0  0  0  0  0  0  0  0  0  0
  186.8880  177.2960  142.1600 C   0  0  0  0  0  3  0  0  0  0  0  0
  187.6620  176.3210  141.5420 C   0  0  0  0  0  0  0  0  0  0  0  0
  185.7930  177.5300  147.8530 N   0  0  0  0  0  0  0  0  0  0  0  0
  189.8750  174.2170  144.5930 N   0  0  0  0  0  0  0  0  0  0  0  0
  185.0900  178.9390  142.0770 O   0  0  0  0  0  0  0  0  0  0  0  0
  189.6270  173.6000  143.4710 C   0  0  0  0  0  0  0  0  0  0  0  0
  187.4770  176.0790  140.1710 C   0  0  0  0  0  0  0  0  0  0  0  0
  187.1420  177.4200  147.7300 C   0  0  0  0  0  3  0  0  0  0  0  0
  188.6190  175.6250  142.3430 N   0  0  0  0  0  2  0  0  0  0  0  0
  186.5290  176.7780  139.4850 N   0  0  0  0  0  0  0  0  0  0  0  0
  189.4240  175.5120  144.8800 N   0  0  0  0  0  0  0  0  0  0  0  0
  188.2640  175.2000  139.5040 F   0  0  0  0  0  0  0  0  0  0  0  0
  187.7280  177.5340  146.4680 C   0  0  0  0  0  0  0  0  0  0  0  0
  189.6620  176.0520  146.0290 C   0  0  0  0  0  3  0  0  0  0  0  0
  186.9360  177.7500  145.3820 N   0  0  0  0  0  0  0  0  0  0  0  0
  188.2900  173.4620  141.5230 O   0  0  0  0  0  0  0  0  0  0  0  0
  185.5860  177.8750  145.5070 C   0  0  0  0  0  0  0  0  0  0  0  0
  189.2120  177.4460  146.3180 C   0  0  0  0  0  2  0  0  0  0  0  0
  190.8180  171.5840  144.2900 N   0  0  0  0  0  2  0  0  0  0  0  0
  192.1810  171.4250  143.8110 C   0  0  0  0  0  2  0  0  0  0  0  0
  193.1270  173.3330  144.8730 O   0  0  0  0  0  0  0  0  0  0  0  0
  194.0220  171.3130  145.4850 O   0  0  0  0  0  1  0  0  0  0  0  0
  193.1220  172.0800  144.7570 C   0  0  0  0  0  0  0  0  0  0  0  0
  1  7  1  0  0  0  0
  2 10  1  0  0  0  0
  3 13  1  0  0  0  0
  3 26  1  0  0  0  0
  4  5  1  0  0  0  0
  5 24  1  0  0  0  0
  6 13  1  0  0  0  0
  7 12  1  0  0  0  0
  7  8  2  0  0  0  0
  9  8  1  0  0  0  0
  9 16  1  0  0  0  0
 11 18  1  0  0  0  0
 12  4  1  0  0  0  0
 13 11  2  0  0  0  0
 14  9  2  0  0  0  0
 15 10  2  0  0  0  0
 16  6  1  0  0  0  0
 17  1  2  0  0  0  0
 17 14  1  0  0  0  0
 18 21  2  0  0  0  0
 19 14  1  0  0  0  0
 20 15  1  0  0  0  0
 21 25  1  0  0  0  0
 22 24  1  0  0  0  0
 22 20  2  0  0  0  0
 23  6  2  0  0  0  0
 24  2  2  0  0  0  0
 25 20  1  0  0  0  0
 27 26  1  0  0  0  0
 27 30  1  0  0  0  0
 30 28  2  0  0  0  0
 30 29  1  0  0  0  0
M  END
>  <MODEL>
4

>  <REMARK>
 VINA RESULT:      -6.9      2.831      6.851
  Name = 
  3 active torsions:
  status: ('A' for Active; 'I' for Inactive)
    1  A    between atoms: N_3  and  N_27
    2  A    between atoms: C_26  and  N_27
    3  A    between atoms: C_26  and  C_30
                            x       y       z     vdW  Elec       q    Type
                         _______ _______ _______ _____ _____    ______ ____

>  <TORSDO>
F 3

$$$$
=
 OpenBabel11042418303D

 30 32  0  0  0  0  0  0  0  0999 V2000
  184.6440  178.2760  140.4990 C   0  0  0  0  0  3  0  0  0  0  0  0
  186.0160  177.0350  146.9590 C   0  0  0  0  0  3  0  0  0  0  0  0
  190.4170  173.2490  141.0810 N   0  0  0  0  0  2  0  0  0  0  0  0
  184.9860  179.0800  144.1440 C   0  0  0  0  0  2  0  0  0  0  0  0
  184.9470  177.7050  144.8010 C   0  0  0  0  0  2  0  0  0  0  0  0
  188.6920  175.0560  141.0160 C   0  0  0  0  0  0  0  0  0  0  0  0
  185.1860  178.3440  141.7840 C   0  0  0  0  0  0  0  0  0  0  0  0
  186.4160  177.7280  142.0220 C   0  0  0  0  0  3  0  0  0  0  0  0
  187.0730  177.0320  141.0160 C   0  0  0  0  0  0  0  0  0  0  0  0
  187.1260  176.7790  147.7020 N   0  0  0  0  0  0  0  0  0  0  0  0
  190.3680  174.8790  142.7890 N   0  0  0  0  0  0  0  0  0  0  0  0
  184.4930  179.0030  142.8070 O   0  0  0  0  0  0  0  0  0  0  0  0
  189.8610  174.4280  141.6740 C   0  0  0  0  0  0  0  0  0  0  0  0
  186.5020  176.9980  139.7320 C   0  0  0  0  0  0  0  0  0  0  0  0
  188.3720  176.9410  147.1860 C   0  0  0  0  0  3  0  0  0  0  0  0
  188.3110  176.3960  141.3440 N   0  0  0  0  0  2  0  0  0  0  0  0
  185.3100  177.6190  139.5090 N   0  0  0  0  0  0  0  0  0  0  0  0
  189.8710  176.0010  143.4650 N   0  0  0  0  0  0  0  0  0  0  0  0
  187.1450  176.4060  138.6970 F   0  0  0  0  0  0  0  0  0  0  0  0
  188.5180  177.3750  145.8660 C   0  0  0  0  0  0  0  0  0  0  0  0
  190.3870  176.3700  144.5910 C   0  0  0  0  0  3  0  0  0  0  0  0
  187.4070  177.6240  145.1200 N   0  0  0  0  0  0  0  0  0  0  0  0
  188.0120  174.3830  140.1970 O   0  0  0  0  0  0  0  0  0  0  0  0
  186.1590  177.4770  145.6420 C   0  0  0  0  0  0  0  0  0  0  0  0
  189.8800  177.5880  145.2910 C   0  0  0  0  0  2  0  0  0  0  0  0
  191.4870  172.5550  141.6660 N   0  0  0  0  0  2  0  0  0  0  0  0
  190.9250  171.4450  142.4180 C   0  0  0  0  0  2  0  0  0  0  0  0
  192.2940  171.4930  144.3640 O   0  0  0  0  0  0  0  0  0  0  0  0
  190.0870  172.0140  144.6930 O   0  0  0  0  0  1  0  0  0  0  0  0
  191.1480  171.6630  143.8710 C   0  0  0  0  0  0  0  0  0  0  0  0
  1  7  1  0  0  0  0
  2 10  1  0  0  0  0
  3 26  1  0  0  0  0
  3 13  1  0  0  0  0
  4  5  1  0  0  0  0
  5 24  1  0  0  0  0
  6 16  1  0  0  0  0
  6 13  1  0  0  0  0
  7  8  2  0  0  0  0
  7 12  1  0  0  0  0
  9 16  1  0  0  0  0
  9  8  1  0  0  0  0
 11 18  1  0  0  0  0
 12  4  1  0  0  0  0
 13 11  2  0  0  0  0
 14  9  2  0  0  0  0
 15 10  2  0  0  0  0
 17 14  1  0  0  0  0
 17  1  2  0  0  0  0
 18 21  2  0  0  0  0
 19 14  1  0  0  0  0
 20 15  1  0  0  0  0
 21 25  1  0  0  0  0
 22 24  1  0  0  0  0
 22 20  2  0  0  0  0
 23  6  2  0  0  0  0
 24  2  2  0  0  0  0
 25 20  1  0  0  0  0
 26 27  1  0  0  0  0
 27 30  1  0  0  0  0
 30 28  2  0  0  0  0
 30 29  1  0  0  0  0
M  END
>  <MODEL>
5

>  <REMARK>
 VINA RESULT:      -6.8      2.782      6.717
  Name = 
  3 active torsions:
  status: ('A' for Active; 'I' for Inactive)
    1  A    between atoms: N_3  and  N_27
    2  A    between atoms: C_26  and  N_27
    3  A    between atoms: C_26  and  C_30
                            x       y       z     vdW  Elec       q    Type
                         _______ _______ _______ _____ _____    ______ ____

>  <TORSDO>
F 3

$$$$
=
 OpenBabel11042418303D

 30 32  0  0  0  0  0  0  0  0999 V2000
  191.4280  170.7650  142.3790 C   0  0  0  0  0  3  0  0  0  0  0  0
  194.5810  175.5400  145.9030 C   0  0  0  0  0  3  0  0  0  0  0  0
  187.5160  177.3620  142.0280 N   0  0  0  0  0  2  0  0  0  0  0  0
  193.5020  172.1530  145.1760 C   0  0  0  0  0  2  0  0  0  0  0  0
  193.9880  173.4830  144.6120 C   0  0  0  0  0  2  0  0  0  0  0  0
  188.7480  175.2200  142.4010 C   0  0  0  0  0  0  0  0  0  0  0  0
  191.8420  171.6020  143.4180 C   0  0  0  0  0  0  0  0  0  0  0  0
  191.0720  172.7290  143.7140 C   0  0  0  0  0  3  0  0  0  0  0  0
  189.9360  173.0320  142.9740 C   0  0  0  0  0  0  0  0  0  0  0  0
  194.2210  176.5990  146.6760 N   0  0  0  0  0  0  0  0  0  0  0  0
  188.6180  176.9910  144.0830 N   0  0  0  0  0  0  0  0  0  0  0  0
  193.0160  171.3180  144.1260 O   0  0  0  0  0  0  0  0  0  0  0  0
  188.2960  176.5380  142.9030 C   0  0  0  0  0  0  0  0  0  0  0  0
  189.5440  172.1580  141.9460 C   0  0  0  0  0  0  0  0  0  0  0  0
  192.9320  176.7780  147.0680 C   0  0  0  0  0  3  0  0  0  0  0  0
  189.2190  174.2220  143.3120 N   0  0  0  0  0  2  0  0  0  0  0  0
  190.2950  171.0530  141.6790 N   0  0  0  0  0  0  0  0  0  0  0  0
  189.4070  176.2780  144.9950 N   0  0  0  0  0  0  0  0  0  0  0  0
  188.3990  172.3640  141.2520 F   0  0  0  0  0  0  0  0  0  0  0  0
  191.9580  175.8600  146.6690 C   0  0  0  0  0  0  0  0  0  0  0  0
  189.7330  176.8000  146.1310 C   0  0  0  0  0  3  0  0  0  0  0  0
  192.3190  174.8040  145.8890 N   0  0  0  0  0  0  0  0  0  0  0  0
  188.7530  175.0030  141.1600 O   0  0  0  0  0  0  0  0  0  0  0  0
  193.6120  174.6160  145.5080 C   0  0  0  0  0  0  0  0  0  0  0  0
  190.5430  176.0230  147.1160 C   0  0  0  0  0  2  0  0  0  0  0  0
  187.0930  178.6480  142.3980 N   0  0  0  0  0  2  0  0  0  0  0  0
  185.6400  178.6400  142.4090 C   0  0  0  0  0  2  0  0  0  0  0  0
  184.8530  179.8390  144.3080 O   0  0  0  0  0  0  0  0  0  0  0  0
  185.0610  177.5730  144.5840 O   0  0  0  0  0  1  0  0  0  0  0  0
  185.1510  178.7220  143.8110 C   0  0  0  0  0  0  0  0  0  0  0  0
  1  7  1  0  0  0  0
  2 10  1  0  0  0  0
  3 26  1  0  0  0  0
  3 13  1  0  0  0  0
  5  4  1  0  0  0  0
  5 24  1  0  0  0  0
  6 13  1  0  0  0  0
  6 16  1  0  0  0  0
  7  8  2  0  0  0  0
  7 12  1  0  0  0  0
  9 16  1  0  0  0  0
  9  8  1  0  0  0  0
 10 15  2  0  0  0  0
 11 18  1  0  0  0  0
 12  4  1  0  0  0  0
 13 11  2  0  0  0  0
 14  9  2  0  0  0  0
 17 14  1  0  0  0  0
 17  1  2  0  0  0  0
 18 21  2  0  0  0  0
 19 14  1  0  0  0  0
 20 15  1  0  0  0  0
 20 25  1  0  0  0  0
 21 25  1  0  0  0  0
 22 20  2  0  0  0  0
 23  6  2  0  0  0  0
 24 22  1  0  0  0  0
 24  2  2  0  0  0  0
 26 27  1  0  0  0  0
 27 30  1  0  0  0  0
 30 28  2  0  0  0  0
 30 29  1  0  0  0  0
M  END
>  <MODEL>
6

>  <REMARK>
 VINA RESULT:      -6.8      1.960      2.133
  Name = 
  3 active torsions:
  status: ('A' for Active; 'I' for Inactive)
    1  A    between atoms: N_3  and  N_27
    2  A    between atoms: C_26  and  N_27
    3  A    between atoms: C_26  and  C_30
                            x       y       z     vdW  Elec       q    Type
                         _______ _______ _______ _____ _____    ______ ____

>  <TORSDO>
F 3

$$$$
=
 OpenBabel11042418303D

 30 32  0  0  0  0  0  0  0  0999 V2000
  187.3990  177.8960  146.2040 C   0  0  0  0  0  3  0  0  0  0  0  0
  188.1910  174.9150  140.2330 C   0  0  0  0  0  3  0  0  0  0  0  0
  194.3150  174.5930  145.7690 N   0  0  0  0  0  2  0  0  0  0  0  0
  186.3220  176.0280  143.1380 C   0  0  0  0  0  2  0  0  0  0  0  0
  187.4310  176.3420  142.1400 C   0  0  0  0  0  2  0  0  0  0  0  0
  191.9630  175.4280  145.8810 C   0  0  0  0  0  0  0  0  0  0  0  0
  187.3960  176.9540  145.1720 C   0  0  0  0  0  0  0  0  0  0  0  0
  188.4500  176.0410  145.0990 C   0  0  0  0  0  3  0  0  0  0  0  0
  189.4980  176.0870  146.0090 C   0  0  0  0  0  0  0  0  0  0  0  0
  188.8020  173.7960  139.7600 N   0  0  0  0  0  0  0  0  0  0  0  0
  192.6080  173.4320  144.6240 N   0  0  0  0  0  0  0  0  0  0  0  0
  186.3620  176.9480  144.2280 O   0  0  0  0  0  0  0  0  0  0  0  0
  192.9410  174.4250  145.4010 C   0  0  0  0  0  0  0  0  0  0  0  0
  189.4580  177.0390  147.0410 C   0  0  0  0  0  0  0  0  0  0  0  0
  189.2800  172.8450  140.6050 C   0  0  0  0  0  3  0  0  0  0  0  0
  190.5600  175.1440  145.8490 N   0  0  0  0  0  2  0  0  0  0  0  0
  188.4150  177.9130  147.1110 N   0  0  0  0  0  0  0  0  0  0  0  0
  191.2990  173.2060  144.1780 N   0  0  0  0  0  0  0  0  0  0  0  0
  190.4120  177.0680  148.0030 F   0  0  0  0  0  0  0  0  0  0  0  0
  189.1460  173.0200  141.9840 C   0  0  0  0  0  0  0  0  0  0  0  0
  191.0390  172.2320  143.3700 C   0  0  0  0  0  3  0  0  0  0  0  0
  188.5410  174.1440  142.4570 N   0  0  0  0  0  0  0  0  0  0  0  0
  192.3760  176.5490  146.2800 O   0  0  0  0  0  0  0  0  0  0  0  0
  188.0480  175.0900  141.6110 C   0  0  0  0  0  0  0  0  0  0  0  0
  189.6370  171.9700  142.9260 C   0  0  0  0  0  2  0  0  0  0  0  0
  195.3190  173.7250  145.3120 N   0  0  0  0  0  2  0  0  0  0  0  0
  196.4700  174.5410  144.9590 C   0  0  0  0  0  2  0  0  0  0  0  0
  195.7690  174.8580  142.7070 O   0  0  0  0  0  0  0  0  0  0  0  0
  196.2720  176.7700  143.8670 O   0  0  0  0  0  1  0  0  0  0  0  0
  196.1380  175.3910  143.7860 C   0  0  0  0  0  0  0  0  0  0  0  0
  1 17  1  0  0  0  0
  2 24  1  0  0  0  0
  4 12  1  0  0  0  0
  5  4  1  0  0  0  0
  6 23  2  0  0  0  0
  7  1  2  0  0  0  0
  8  7  1  0  0  0  0
  8  9  2  0  0  0  0
  9 14  1  0  0  0  0
 10  2  2  0  0  0  0
 10 15  1  0  0  0  0
 11 13  2  0  0  0  0
 12  7  1  0  0  0  0
 13  3  1  0  0  0  0
 13  6  1  0  0  0  0
 14 17  2  0  0  0  0
 14 19  1  0  0  0  0
 15 20  2  0  0  0  0
 16  6  1  0  0  0  0
 16  9  1  0  0  0  0
 18 11  1  0  0  0  0
 20 22  1  0  0  0  0
 20 25  1  0  0  0  0
 21 18  2  0  0  0  0
 24  5  1  0  0  0  0
 24 22  2  0  0  0  0
 25 21  1  0  0  0  0
 26  3  1  0  0  0  0
 27 26  1  0  0  0  0
 28 30  2  0  0  0  0
 30 29  1  0  0  0  0
 30 27  1  0  0  0  0
M  END
>  <MODEL>
7

>  <REMARK>
 VINA RESULT:      -6.6      2.773      7.830
  Name = 
  3 active torsions:
  status: ('A' for Active; 'I' for Inactive)
    1  A    between atoms: N_3  and  N_27
    2  A    between atoms: C_26  and  N_27
    3  A    between atoms: C_26  and  C_30
                            x       y       z     vdW  Elec       q    Type
                         _______ _______ _______ _____ _____    ______ ____

>  <TORSDO>
F 3

$$$$
=
 OpenBabel11042418303D

 30 32  0  0  0  0  0  0  0  0999 V2000
  185.1810  178.3610  141.9870 C   0  0  0  0  0  3  0  0  0  0  0  0
  188.1920  175.5890  147.3170 C   0  0  0  0  0  3  0  0  0  0  0  0
  190.1560  172.9650  139.7340 N   0  0  0  0  0  2  0  0  0  0  0  0
  186.6690  178.2860  145.4260 C   0  0  0  0  0  2  0  0  0  0  0  0
  186.6400  176.8030  145.7770 C   0  0  0  0  0  2  0  0  0  0  0  0
  188.7410  174.8490  140.5690 C   0  0  0  0  0  0  0  0  0  0  0  0
  186.0770  178.0980  143.0250 C   0  0  0  0  0  0  0  0  0  0  0  0
  187.2310  177.3640  142.7410 C   0  0  0  0  0  3  0  0  0  0  0  0
  187.4690  176.8750  141.4630 C   0  0  0  0  0  0  0  0  0  0  0  0
  189.4250  175.0970  147.6110 N   0  0  0  0  0  0  0  0  0  0  0  0
  190.8210  174.1610  141.6580 N   0  0  0  0  0  0  0  0  0  0  0  0
  185.8040  178.5500  144.3220 O   0  0  0  0  0  0  0  0  0  0  0  0
  189.9570  174.0120  140.6910 C   0  0  0  0  0  0  0  0  0  0  0  0
  186.5510  177.1730  140.4420 C   0  0  0  0  0  0  0  0  0  0  0  0
  190.4780  175.2910  146.7740 C   0  0  0  0  0  3  0  0  0  0  0  0
  188.6530  176.1010  141.2570 N   0  0  0  0  0  2  0  0  0  0  0  0
  185.4380  177.9050  140.7290 N   0  0  0  0  0  0  0  0  0  0  0  0
  190.6950  175.1290  142.6630 N   0  0  0  0  0  0  0  0  0  0  0  0
  186.7820  176.7920  139.1620 F   0  0  0  0  0  0  0  0  0  0  0  0
  190.2910  176.0040  145.5880 C   0  0  0  0  0  0  0  0  0  0  0  0
  191.5590  175.1970  143.6220 C   0  0  0  0  0  3  0  0  0  0  0  0
  189.0540  176.4900  145.2910 N   0  0  0  0  0  0  0  0  0  0  0  0
  187.7710  174.4270  139.8860 O   0  0  0  0  0  0  0  0  0  0  0  0
  188.0030  176.3090  146.1360 C   0  0  0  0  0  0  0  0  0  0  0  0
  191.4430  176.2530  144.6710 C   0  0  0  0  0  2  0  0  0  0  0  0
  191.2480  172.0870  139.8070 N   0  0  0  0  0  2  0  0  0  0  0  0
  190.7220  170.7640  140.0980 C   0  0  0  0  0  2  0  0  0  0  0  0
  190.0690  170.8220  142.3860 O   0  0  0  0  0  1  0  0  0  0  0  0
  192.0680  169.7880  141.9520 O   0  0  0  0  0  0  0  0  0  0  0  0
  190.9220  170.4520  141.5370 C   0  0  0  0  0  0  0  0  0  0  0  0
  1  7  1  0  0  0  0
  2 10  1  0  0  0  0
  3 26  1  0  0  0  0
  3 13  1  0  0  0  0
  4  5  1  0  0  0  0
  5 24  1  0  0  0  0
  6 13  1  0  0  0  0
  6 16  1  0  0  0  0
  7 12  1  0  0  0  0
  8  7  2  0  0  0  0
  9  8  1  0  0  0  0
 11 18  1  0  0  0  0
 12  4  1  0  0  0  0
 13 11  2  0  0  0  0
 14 17  1  0  0  0  0
 14  9  2  0  0  0  0
 15 10  2  0  0  0  0
 16  9  1  0  0  0  0
 17  1  2  0  0  0  0
 18 21  2  0  0  0  0
 19 14  1  0  0  0  0
 20 15  1  0  0  0  0
 21 25  1  0  0  0  0
 22 20  2  0  0  0  0
 22 24  1  0  0  0  0
 23  6  2  0  0  0  0
 24  2  2  0  0  0  0
 25 20  1  0  0  0  0
 26 27  1  0  0  0  0
 27 30  1  0  0  0  0
 30 29  2  0  0  0  0
 30 28  1  0  0  0  0
M  END
>  <MODEL>
8

>  <REMARK>
 VINA RESULT:      -6.6      2.517      6.644
  Name = 
  3 active torsions:
  status: ('A' for Active; 'I' for Inactive)
    1  A    between atoms: N_3  and  N_27
    2  A    between atoms: C_26  and  N_27
    3  A    between atoms: C_26  and  C_30
                            x       y       z     vdW  Elec       q    Type
                         _______ _______ _______ _____ _____    ______ ____

>  <TORSDO>
F 3

$$$$
=
 OpenBabel11042418303D

 30 32  0  0  0  0  0  0  0  0999 V2000
  186.3240  178.1640  146.7970 C   0  0  0  0  0  3  0  0  0  0  0  0
  186.1830  177.9150  140.0840 C   0  0  0  0  0  3  0  0  0  0  0  0
  193.2250  176.2160  144.0550 N   0  0  0  0  0  2  0  0  0  0  0  0
  184.8160  177.5400  143.4240 C   0  0  0  0  0  2  0  0  0  0  0  0
  185.7030  178.3620  142.4960 C   0  0  0  0  0  2  0  0  0  0  0  0
  190.8890  176.6310  144.8380 C   0  0  0  0  0  0  0  0  0  0  0  0
  186.1870  177.7150  145.4820 C   0  0  0  0  0  0  0  0  0  0  0  0
  187.2620  177.0480  144.8890 C   0  0  0  0  0  3  0  0  0  0  0  0
  188.4540  176.8640  145.5770 C   0  0  0  0  0  0  0  0  0  0  0  0
  186.7610  177.1620  139.1100 N   0  0  0  0  0  0  0  0  0  0  0  0
  191.4070  175.3950  142.7920 N   0  0  0  0  0  0  0  0  0  0  0  0
  185.0000  177.9510  144.7780 O   0  0  0  0  0  0  0  0  0  0  0  0
  191.8190  176.0340  143.8520 C   0  0  0  0  0  0  0  0  0  0  0  0
  188.5480  177.3170  146.9040 C   0  0  0  0  0  0  0  0  0  0  0  0
  187.4400  176.0240  139.4100 C   0  0  0  0  0  3  0  0  0  0  0  0
  189.5230  176.2050  144.8920 N   0  0  0  0  0  2  0  0  0  0  0  0
  187.4860  177.9510  147.4760 N   0  0  0  0  0  0  0  0  0  0  0  0
  190.0540  175.1980  142.4850 N   0  0  0  0  0  0  0  0  0  0  0  0
  189.6590  177.0860  147.6440 F   0  0  0  0  0  0  0  0  0  0  0  0
  187.5510  175.6210  140.7430 C   0  0  0  0  0  0  0  0  0  0  0  0
  189.7090  174.5980  141.3940 C   0  0  0  0  0  3  0  0  0  0  0  0
  186.9780  176.3790  141.7170 N   0  0  0  0  0  0  0  0  0  0  0  0
  191.3020  177.5450  145.5980 O   0  0  0  0  0  0  0  0  0  0  0  0
  186.2850  177.5110  141.4160 C   0  0  0  0  0  0  0  0  0  0  0  0
  188.2670  174.3570  141.0880 C   0  0  0  0  0  2  0  0  0  0  0  0
  194.1770  175.7350  143.1430 N   0  0  0  0  0  2  0  0  0  0  0  0
  195.4750  176.2330  143.5690 C   0  0  0  0  0  2  0  0  0  0  0  0
  197.5330  175.8790  142.4280 O   0  0  0  0  0  1  0  0  0  0  0  0
  195.9440  177.0480  141.2630 O   0  0  0  0  0  0  0  0  0  0  0  0
  196.3720  176.3620  142.3910 C   0  0  0  0  0  0  0  0  0  0  0  0
  1 17  1  0  0  0  0
  2 24  1  0  0  0  0
  4 12  1  0  0  0  0
  5  4  1  0  0  0  0
  6 16  1  0  0  0  0
  6 23  2  0  0  0  0
  7  1  2  0  0  0  0
  8  7  1  0  0  0  0
  8  9  2  0  0  0  0
  9 14  1  0  0  0  0
 10 15  1  0  0  0  0
 10  2  2  0  0  0  0
 11 13  2  0  0  0  0
 12  7  1  0  0  0  0
 13  3  1  0  0  0  0
 13  6  1  0  0  0  0
 14 17  2  0  0  0  0
 14 19  1  0  0  0  0
 15 20  2  0  0  0  0
 16  9  1  0  0  0  0
 18 11  1  0  0  0  0
 20 25  1  0  0  0  0
 20 22  1  0  0  0  0
 21 18  2  0  0  0  0
 24 22  2  0  0  0  0
 24  5  1  0  0  0  0
 25 21  1  0  0  0  0
 26 27  1  0  0  0  0
 26  3  1  0  0  0  0
 29 30  2  0  0  0  0
 30 28  1  0  0  0  0
 30 27  1  0  0  0  0
M  END
>  <MODEL>
9

>  <REMARK>
 VINA RESULT:      -6.5      3.006      8.233
  Name = 
  3 active torsions:
  status: ('A' for Active; 'I' for Inactive)
    1  A    between atoms: N_3  and  N_27
    2  A    between atoms: C_26  and  N_27
    3  A    between atoms: C_26  and  C_30
                            x       y       z     vdW  Elec       q    Type
                         _______ _______ _______ _____ _____    ______ ____

>  <TORSDO>
F 3

$$$$
