=
 OpenBabel11042419543D

 56 63  0  0  1  0  0  0  0  0999 V2000
  193.0340  170.2320  142.6030 C   0  0  0  0  0  0  0  0  0  0  0  0
  194.8200  168.8630  141.7280 C   0  0  0  0  0  0  0  0  0  0  0  0
  193.1010  170.0940  140.3210 N   0  0  0  0  0  0  0  0  0  0  0  0
  193.4110  169.9790  143.9210 C   0  0  0  0  0  3  0  0  0  0  0  0
  195.2250  168.6020  143.0480 C   0  0  0  0  0  3  0  0  0  0  0  0
  191.9530  170.9410  140.6730 C   0  0  0  0  0  3  0  0  0  0  0  0
  191.9350  170.9990  142.1400 N   0  0  0  0  0  0  0  0  0  0  0  0
  194.5310  169.1520  144.1470 C   0  0  0  0  0  0  0  0  0  0  0  0
  193.7000  169.6920  141.5440 C   0  0  0  0  0  0  0  0  0  0  0  0
  189.7040  172.0130  142.2640 C   0  0  0  0  0  2  0  0  0  0  0  0
  191.0590  171.8280  142.9680 C   0  0  2  0  0  3  0  0  0  0  0  0
  189.8540  174.5410  142.3920 C   0  0  2  0  0  3  0  0  0  0  0  0
  191.7370  173.1650  143.3300 C   0  0  0  0  0  2  0  0  0  0  0  0
  189.0090  173.2970  142.7120 C   0  0  0  0  0  2  0  0  0  0  0  0
  191.3600  174.2610  142.3380 C   0  0  0  0  0  2  0  0  0  0  0  0
  189.5950  175.5770  143.3780 N   0  0  0  0  0  2  0  0  0  0  0  0
  188.6180  176.6020  143.1890 C   0  0  0  0  0  0  0  0  0  0  0  0
  187.9460  176.6520  142.1230 O   0  0  0  0  0  0  0  0  0  0  0  0
  185.2000  176.9780  146.7550 O   0  0  0  0  0  1  0  0  0  0  0  0
  186.2420  178.4490  145.1610 C   0  0  1  0  0  3  0  0  0  0  0  0
  186.1100  177.0170  145.6990 C   0  0  1  0  0  3  0  0  0  0  0  0
  187.4470  176.4280  146.1690 C   0  0  0  0  0  2  0  0  0  0  0  0
  188.5100  177.6870  144.2170 C   0  0  2  0  0  3  0  0  0  0  0  0
  188.6760  177.1880  145.6570 C   0  0  0  0  0  2  0  0  0  0  0  0
  187.2290  178.5010  143.9940 C   0  0  0  0  0  2  0  0  0  0  0  0
  184.6570  179.1050  144.5840 S   0  0  2  0  0  3  0  0  0  0  0  0
  183.6710  178.7010  145.6710 O   0  0  0  0  0  1  0  0  0  0  0  0
  184.2200  178.0980  143.2480 O   0  0  0  0  0  0  0  0  0  0  0  0
  184.9320  177.6200  141.0990 O   0  0  0  0  0  0  0  0  0  0  0  0
  184.4960  178.4600  141.9290 C   0  0  0  0  0  3  0  0  0  0  0  0
  194.9550  168.8120  145.5170 C   0  0  0  0  0  0  0  0  0  0  0  0
  196.1250  168.4860  147.3550 C   0  0  0  0  0  0  0  0  0  0  0  0
  196.2050  168.8590  145.9560 C   0  0  0  0  0  3  0  0  0  0  0  0
  197.2460  168.4170  148.2240 N   0  0  0  0  0  1  0  0  0  0  0  0
  194.9230  168.2470  147.7530 N   0  0  0  0  0  0  0  0  0  0  0  0
  194.0270  168.4250  146.6220 C   0  0  0  0  0  2  0  0  0  0  0  0
  195.5420  168.2690  140.6410 N   0  0  0  0  0  2  0  0  0  0  0  0
  196.7210  168.8660  140.0320 C   0  0  0  0  0  2  0  0  0  0  0  0
  197.0310  171.3750  139.8800 C   0  0  0  0  0  0  0  0  0  0  0  0
  196.9910  170.1610  140.6350 N   0  0  0  0  0  2  0  0  0  0  0  0
  196.8630  171.3540  138.6310 O   0  0  0  0  0  0  0  0  0  0  0  0
  196.5070  172.8460  141.8430 C   0  0  2  0  0  3  0  0  0  0  0  0
  196.5380  175.1120  140.4640 C   0  0  0  0  0  2  0  0  0  0  0  0
  197.3200  172.6830  140.5550 C   0  0  2  0  0  3  0  0  0  0  0  0
  196.3390  176.7670  142.3740 C   0  0  0  0  0  2  0  0  0  0  0  0
  197.9380  172.6270  143.8770 C   0  0  0  0  0  2  0  0  0  0  0  0
  196.1270  173.6420  140.5920 C   0  0  1  0  0  0  0  0  0  0  0  0
  197.2190  175.8880  143.2680 C   0  0  0  0  0  2  0  0  0  0  0  0
  195.4470  174.5700  145.7220 C   0  0  0  0  0  1  0  0  0  0  0  0
  196.5810  174.6100  143.5640 N   0  0  2  0  0  0  0  0  0  0  0  0
  195.5990  175.9970  141.2800 C   0  0  0  0  0  2  0  0  0  0  0  0
  196.7570  174.3540  144.9900 C   0  0  2  0  0  3  0  0  0  0  0  0
  197.1980  172.9200  145.1490 C   0  0  0  0  0  2  0  0  0  0  0  0
  197.3680  173.5980  142.8580 C   0  0  2  0  0  3  0  0  0  0  0  0
  194.3260  174.2270  138.9190 C   0  0  0  0  0  1  0  0  0  0  0  0
  194.8360  173.1870  139.9030 C   0  0  0  0  0  2  0  0  0  0  0  0
  1  4  1  0  0  0  0
  2  5  2  0  0  0  0
  3  6  2  0  0  0  0
  3  9  1  0  0  0  0
  4  8  2  0  0  0  0
  5  8  1  0  0  0  0
  6  7  1  0  0  0  0
  7  1  1  0  0  0  0
  7 11  1  0  0  0  0
  8 31  1  0  0  0  0
  9  2  1  0  0  0  0
  9  1  2  0  0  0  0
 10 14  1  0  0  0  0
 10 11  1  0  0  0  0
 11 13  1  0  0  0  0
 12 14  1  0  0  0  0
 12 16  1  0  0  0  0
 15 12  1  0  0  0  0
 15 13  1  0  0  0  0
 17 16  1  0  0  0  0
 18 17  2  0  0  0  0
 20 26  1  6  0  0  0
 20 21  1  0  0  0  0
 21 22  1  0  0  0  0
 21 19  1  1  0  0  0
 23 17  1  6  0  0  0
 23 24  1  0  0  0  0
 24 22  1  0  0  0  0
 25 23  1  0  0  0  0
 25 20  1  0  0  0  0
 26 27  1  1  0  0  0
 28 26  1  0  0  0  0
 29 30  2  0  0  0  0
 30 28  1  0  0  0  0
 31 33  2  0  0  0  0
 31 36  1  0  0  0  0
 32 35  2  0  0  0  0
 32 34  1  0  0  0  0
 33 32  1  0  0  0  0
 36 35  1  0  0  0  0
 37  2  1  0  0  0  0
 38 40  1  0  0  0  0
 38 37  1  0  0  0  0
 39 44  1  0  0  0  0
 39 40  1  0  0  0  0
 41 39  2  0  0  0  0
 42 54  1  0  0  0  0
 43 47  1  0  0  0  0
 43 51  1  0  0  0  0
 44 47  1  0  0  0  0
 44 42  1  0  0  0  0
 45 48  1  0  0  0  0
 46 53  1  0  0  0  0
 47 42  1  0  0  0  0
 48 50  1  0  0  0  0
 50 52  1  0  0  0  0
 51 45  1  0  0  0  0
 52 53  1  0  0  0  0
 52 49  1  0  0  0  0
 54 50  1  0  0  0  0
 54 46  1  0  0  0  0
 55 56  1  0  0  0  0
 56 47  1  0  0  0  0
M  END
>  <MODEL>
1

>  <REMARK>
 VINA RESULT:      -7.4      0.000      0.000
  Name = 
  12 active torsions:
  status: ('A' for Active; 'I' for Inactive)
    1  A    between atoms: N_3  and  C_32
    2  A    between atoms: C_4  and  C_26
    3  A    between atoms: C_5  and  C_22
    4  A    between atoms: N_8  and  C_46
    5  A    between atoms: C_9  and  S_21
    6  A    between atoms: C_11  and  C_42
    7  A    between atoms: C_13  and  N_17
    8  A    between atoms: N_17  and  C_46
    9  A    between atoms: C_18  and  O_56
   10  A    between atoms: S_21  and  O_56
   11  A    between atoms: C_29  and  N_39
   12  A    between atoms: C_31  and  C_40
                            x       y       z     vdW  Elec       q    Type
                         _______ _______ _______ _____ _____    ______ ____

>  <TORSDO>
F 12

$$$$
=
 OpenBabel11042419543D

 56 63  0  0  1  0  0  0  0  0999 V2000
  192.7500  171.2120  141.2850 C   0  0  0  0  0  0  0  0  0  0  0  0
  193.8860  170.1030  139.4670 C   0  0  0  0  0  0  0  0  0  0  0  0
  194.4320  169.8020  141.9290 N   0  0  0  0  0  0  0  0  0  0  0  0
  191.9090  171.9020  140.4130 C   0  0  0  0  0  3  0  0  0  0  0  0
  193.0430  170.7780  138.5690 C   0  0  0  0  0  3  0  0  0  0  0  0
  193.8720  170.3980  143.1490 C   0  0  0  0  0  3  0  0  0  0  0  0
  192.8060  171.3020  142.6990 N   0  0  0  0  0  0  0  0  0  0  0  0
  192.0560  171.6770  139.0280 C   0  0  0  0  0  0  0  0  0  0  0  0
  193.7080  170.3530  140.8380 C   0  0  0  0  0  0  0  0  0  0  0  0
  190.4490  171.9360  142.9470 C   0  0  0  0  0  2  0  0  0  0  0  0
  191.8610  172.0280  143.5500 C   0  0  2  0  0  3  0  0  0  0  0  0
  190.1720  174.4560  142.9270 C   0  0  2  0  0  3  0  0  0  0  0  0
  192.3240  173.4800  143.7840 C   0  0  0  0  0  2  0  0  0  0  0  0
  189.5770  173.1120  143.3800 C   0  0  0  0  0  2  0  0  0  0  0  0
  191.6960  174.4290  142.7680 C   0  0  0  0  0  2  0  0  0  0  0  0
  189.8080  175.4980  143.8740 N   0  0  0  0  0  2  0  0  0  0  0  0
  188.7610  176.4380  143.6290 C   0  0  0  0  0  0  0  0  0  0  0  0
  188.1160  176.4050  142.5450 O   0  0  0  0  0  0  0  0  0  0  0  0
  184.8500  177.0110  146.6150 O   0  0  0  0  0  1  0  0  0  0  0  0
  186.1920  178.4130  145.1920 C   0  0  1  0  0  3  0  0  0  0  0  0
  185.9140  176.9960  145.7140 C   0  0  1  0  0  3  0  0  0  0  0  0
  187.1340  176.3570  146.3910 C   0  0  0  0  0  2  0  0  0  0  0  0
  188.5430  177.5420  144.6190 C   0  0  2  0  0  3  0  0  0  0  0  0
  188.4610  177.0560  146.0710 C   0  0  0  0  0  2  0  0  0  0  0  0
  187.3500  178.4060  144.1930 C   0  0  0  0  0  2  0  0  0  0  0  0
  184.7460  179.1280  144.3710 S   0  0  2  0  0  3  0  0  0  0  0  0
  183.6860  179.1740  145.4610 O   0  0  0  0  0  1  0  0  0  0  0  0
  184.1810  177.8860  143.3080 O   0  0  0  0  0  0  0  0  0  0  0  0
  185.3600  178.6110  141.4550 O   0  0  0  0  0  0  0  0  0  0  0  0
  184.4210  177.9240  141.9350 C   0  0  0  0  0  3  0  0  0  0  0  0
  191.2270  172.4060  138.0520 C   0  0  0  0  0  0  0  0  0  0  0  0
  189.7270  173.7050  137.0940 C   0  0  0  0  0  0  0  0  0  0  0  0
  190.1920  173.1750  138.3610 C   0  0  0  0  0  2  0  0  0  0  0  0
  188.6300  174.5970  136.9610 N   0  0  0  0  0  1  0  0  0  0  0  0
  190.4280  173.3110  136.0870 N   0  0  0  0  0  0  0  0  0  0  0  0
  191.4730  172.4290  136.5780 C   0  0  0  0  0  3  0  0  0  0  0  0
  194.8870  169.2130  138.9560 N   0  0  0  0  0  2  0  0  0  0  0  0
  196.2550  169.6160  138.6660 C   0  0  0  0  0  2  0  0  0  0  0  0
  196.8400  172.0490  139.0630 C   0  0  0  0  0  0  0  0  0  0  0  0
  196.6450  170.7140  139.5380 N   0  0  0  0  0  2  0  0  0  0  0  0
  196.7090  172.3150  137.8390 O   0  0  0  0  0  0  0  0  0  0  0  0
  196.4820  173.0580  141.3330 C   0  0  2  0  0  3  0  0  0  0  0  0
  196.6590  175.5740  140.5100 C   0  0  0  0  0  2  0  0  0  0  0  0
  197.2480  173.1400  140.0080 C   0  0  2  0  0  3  0  0  0  0  0  0
  196.6380  176.7500  142.7550 C   0  0  0  0  0  2  0  0  0  0  0  0
  197.9410  172.2710  143.2000 C   0  0  0  0  0  2  0  0  0  0  0  0
  196.1360  174.1470  140.3140 C   0  0  1  0  0  0  0  0  0  0  0  0
  197.4680  175.6270  143.3860 C   0  0  0  0  0  2  0  0  0  0  0  0
  195.6590  173.9060  145.5440 C   0  0  0  0  0  1  0  0  0  0  0  0
  196.7390  174.3640  143.4080 N   0  0  2  0  0  0  0  0  0  0  0  0
  195.8130  176.3100  141.5460 C   0  0  0  0  0  2  0  0  0  0  0  0
  196.9280  173.7720  144.7280 C   0  0  2  0  0  3  0  0  0  0  0  0
  197.2590  172.3130  144.5350 C   0  0  0  0  0  2  0  0  0  0  0  0
  197.4250  173.4900  142.4550 C   0  0  2  0  0  3  0  0  0  0  0  0
  194.5880  175.0010  138.5090 C   0  0  0  0  0  1  0  0  0  0  0  0
  194.7960  173.9580  139.5940 C   0  0  0  0  0  2  0  0  0  0  0  0
  1  7  1  0  0  0  0
  2  9  2  0  0  0  0
  3  6  2  0  0  0  0
  4  1  2  0  0  0  0
  5  8  2  0  0  0  0
  5  2  1  0  0  0  0
  7  6  1  0  0  0  0
  7 11  1  0  0  0  0
  8  4  1  0  0  0  0
  9  1  1  0  0  0  0
  9  3  1  0  0  0  0
 10 14  1  0  0  0  0
 10 11  1  0  0  0  0
 11 13  1  0  0  0  0
 12 14  1  0  0  0  0
 12 16  1  0  0  0  0
 15 12  1  0  0  0  0
 15 13  1  0  0  0  0
 17 16  1  0  0  0  0
 18 17  2  0  0  0  0
 20 26  1  6  0  0  0
 20 21  1  0  0  0  0
 21 22  1  0  0  0  0
 21 19  1  1  0  0  0
 23 17  1  6  0  0  0
 23 24  1  0  0  0  0
 24 22  1  0  0  0  0
 25 23  1  0  0  0  0
 25 20  1  0  0  0  0
 26 27  1  1  0  0  0
 28 26  1  0  0  0  0
 29 30  2  0  0  0  0
 30 28  1  0  0  0  0
 31 33  1  0  0  0  0
 31  8  1  0  0  0  0
 32 33  1  0  0  0  0
 34 32  1  0  0  0  0
 35 36  1  0  0  0  0
 35 32  2  0  0  0  0
 36 31  2  0  0  0  0
 37  2  1  0  0  0  0
 38 37  1  0  0  0  0
 38 40  1  0  0  0  0
 39 40  1  0  0  0  0
 39 44  1  0  0  0  0
 41 39  2  0  0  0  0
 42 54  1  0  0  0  0
 43 51  1  0  0  0  0
 44 47  1  0  0  0  0
 44 42  1  0  0  0  0
 45 48  1  0  0  0  0
 46 53  1  0  0  0  0
 47 43  1  0  0  0  0
 47 42  1  0  0  0  0
 48 50  1  0  0  0  0
 50 52  1  0  0  0  0
 51 45  1  0  0  0  0
 52 49  1  0  0  0  0
 53 52  1  0  0  0  0
 54 46  1  0  0  0  0
 54 50  1  0  0  0  0
 55 56  1  0  0  0  0
 56 47  1  0  0  0  0
M  END
>  <MODEL>
2

>  <REMARK>
 VINA RESULT:      -7.3      1.873      4.334
  Name = 
  12 active torsions:
  status: ('A' for Active; 'I' for Inactive)
    1  A    between atoms: N_3  and  C_32
    2  A    between atoms: C_4  and  C_26
    3  A    between atoms: C_5  and  C_22
    4  A    between atoms: N_8  and  C_46
    5  A    between atoms: C_9  and  S_21
    6  A    between atoms: C_11  and  C_42
    7  A    between atoms: C_13  and  N_17
    8  A    between atoms: N_17  and  C_46
    9  A    between atoms: C_18  and  O_56
   10  A    between atoms: S_21  and  O_56
   11  A    between atoms: C_29  and  N_39
   12  A    between atoms: C_31  and  C_40
                            x       y       z     vdW  Elec       q    Type
                         _______ _______ _______ _____ _____    ______ ____

>  <TORSDO>
F 12

$$$$
=
 OpenBabel11042419543D

 56 63  0  0  1  0  0  0  0  0999 V2000
  192.4920  170.7860  141.0460 C   0  0  0  0  0  0  0  0  0  0  0  0
  193.8740  169.4580  139.5780 C   0  0  0  0  0  0  0  0  0  0  0  0
  194.2340  169.7210  142.0780 N   0  0  0  0  0  0  0  0  0  0  0  0
  191.6700  171.1930  139.9960 C   0  0  0  0  0  3  0  0  0  0  0  0
  193.0530  169.8450  138.5060 C   0  0  0  0  0  3  0  0  0  0  0  0
  193.5210  170.4890  143.1080 C   0  0  0  0  0  3  0  0  0  0  0  0
  192.4210  171.1660  142.4110 N   0  0  0  0  0  0  0  0  0  0  0  0
  191.9540  170.7100  138.7020 C   0  0  0  0  0  0  0  0  0  0  0  0
  193.5590  169.9600  140.8510 C   0  0  0  0  0  0  0  0  0  0  0  0
  189.9860  171.3280  142.6600 C   0  0  0  0  0  2  0  0  0  0  0  0
  191.3460  171.9450  143.0270 C   0  0  2  0  0  3  0  0  0  0  0  0
  189.1140  173.5220  141.7330 C   0  0  2  0  0  3  0  0  0  0  0  0
  191.4520  173.4370  142.6520 C   0  0  0  0  0  2  0  0  0  0  0  0
  188.8660  172.3650  142.7160 C   0  0  0  0  0  2  0  0  0  0  0  0
  190.5980  173.7600  141.4310 C   0  0  0  0  0  2  0  0  0  0  0  0
  188.5300  174.7460  142.2580 N   0  0  0  0  0  2  0  0  0  0  0  0
  187.9040  175.7250  141.4270 C   0  0  0  0  0  0  0  0  0  0  0  0
  187.8560  175.5630  140.1770 O   0  0  0  0  0  0  0  0  0  0  0  0
  190.1650  178.2590  145.0340 O   0  0  0  0  0  1  0  0  0  0  0  0
  187.9180  177.5700  144.5160 C   0  0  1  0  0  3  0  0  0  0  0  0
  189.4010  177.5360  144.1190 C   0  0  1  0  0  3  0  0  0  0  0  0
  189.6560  178.0850  142.7090 C   0  0  0  0  0  2  0  0  0  0  0  0
  187.4360  177.0030  142.0540 C   0  0  2  0  0  3  0  0  0  0  0  0
  188.3960  178.1790  141.8400 C   0  0  0  0  0  2  0  0  0  0  0  0
  187.0720  176.7680  143.5250 C   0  0  0  0  0  2  0  0  0  0  0  0
  187.6450  176.8860  146.1690 S   0  0  2  0  0  3  0  0  0  0  0  0
  188.3340  175.5300  146.1290 O   0  0  0  0  0  1  0  0  0  0  0  0
  185.9630  176.4840  146.2100 O   0  0  0  0  0  0  0  0  0  0  0  0
  184.3540  178.0450  145.6410 O   0  0  0  0  0  0  0  0  0  0  0  0
  184.9860  177.4250  146.5360 C   0  0  0  0  0  3  0  0  0  0  0  0
  191.1480  171.1340  137.5440 C   0  0  0  0  0  0  0  0  0  0  0  0
  190.2680  172.2740  135.8760 C   0  0  0  0  0  0  0  0  0  0  0  0
  191.1850  172.3420  136.9970 C   0  0  0  0  0  2  0  0  0  0  0  0
  190.0080  173.3580  134.9960 N   0  0  0  0  0  1  0  0  0  0  0  0
  189.7230  171.1150  135.7300 N   0  0  0  0  0  0  0  0  0  0  0  0
  190.2200  170.2450  136.7820 C   0  0  0  0  0  3  0  0  0  0  0  0
  194.9910  168.5940  139.3300 N   0  0  0  0  0  2  0  0  0  0  0  0
  196.3140  169.0700  138.9590 C   0  0  0  0  0  2  0  0  0  0  0  0
  196.8050  171.5530  139.0310 C   0  0  0  0  0  0  0  0  0  0  0  0
  196.6240  170.2930  139.6820 N   0  0  0  0  0  2  0  0  0  0  0  0
  196.7340  171.6390  137.7760 O   0  0  0  0  0  0  0  0  0  0  0  0
  196.3930  172.7960  141.1710 C   0  0  2  0  0  3  0  0  0  0  0  0
  196.3340  175.2000  140.0500 C   0  0  0  0  0  2  0  0  0  0  0  0
  197.1290  172.7830  139.8270 C   0  0  2  0  0  3  0  0  0  0  0  0
  196.2420  176.6330  142.1380 C   0  0  0  0  0  2  0  0  0  0  0  0
  197.9410  172.3700  143.0820 C   0  0  0  0  0  2  0  0  0  0  0  0
  195.9370  173.7200  140.0390 C   0  0  1  0  0  0  0  0  0  0  0  0
  197.1760  175.6700  142.8780 C   0  0  0  0  0  2  0  0  0  0  0  0
  195.5570  174.0740  145.2710 C   0  0  0  0  0  1  0  0  0  0  0  0
  196.5620  174.3610  143.0690 N   0  0  2  0  0  0  0  0  0  0  0  0
  195.4420  175.9800  141.0110 C   0  0  0  0  0  2  0  0  0  0  0  0
  196.8220  173.9520  144.4450 C   0  0  2  0  0  3  0  0  0  0  0  0
  197.2770  172.5140  144.4200 C   0  0  0  0  0  2  0  0  0  0  0  0
  197.3090  173.4400  142.2110 C   0  0  2  0  0  3  0  0  0  0  0  0
  194.3340  174.1570  138.1350 C   0  0  0  0  0  1  0  0  0  0  0  0
  194.6090  173.3300  139.3800 C   0  0  0  0  0  2  0  0  0  0  0  0
  1  7  1  0  0  0  0
  2  9  2  0  0  0  0
  3  6  2  0  0  0  0
  4  1  2  0  0  0  0
  5  8  2  0  0  0  0
  5  2  1  0  0  0  0
  7 11  1  0  0  0  0
  7  6  1  0  0  0  0
  8  4  1  0  0  0  0
  9  1  1  0  0  0  0
  9  3  1  0  0  0  0
 10 14  1  0  0  0  0
 10 11  1  0  0  0  0
 12 16  1  0  0  0  0
 12 14  1  0  0  0  0
 13 11  1  0  0  0  0
 15 12  1  0  0  0  0
 15 13  1  0  0  0  0
 17 16  1  0  0  0  0
 18 17  2  0  0  0  0
 20 26  1  1  0  0  0
 21 20  1  0  0  0  0
 21 19  1  1  0  0  0
 22 21  1  0  0  0  0
 23 17  1  1  0  0  0
 23 25  1  0  0  0  0
 24 23  1  0  0  0  0
 24 22  1  0  0  0  0
 25 20  1  0  0  0  0
 26 27  1  6  0  0  0
 26 28  1  0  0  0  0
 28 30  1  0  0  0  0
 29 30  2  0  0  0  0
 31  8  1  0  0  0  0
 32 33  1  0  0  0  0
 33 31  1  0  0  0  0
 34 32  1  0  0  0  0
 35 32  2  0  0  0  0
 35 36  1  0  0  0  0
 36 31  2  0  0  0  0
 37  2  1  0  0  0  0
 38 37  1  0  0  0  0
 38 40  1  0  0  0  0
 39 40  1  0  0  0  0
 39 44  1  0  0  0  0
 41 39  2  0  0  0  0
 42 54  1  0  0  0  0
 43 51  1  0  0  0  0
 44 47  1  0  0  0  0
 44 42  1  0  0  0  0
 45 48  1  0  0  0  0
 46 53  1  0  0  0  0
 47 43  1  0  0  0  0
 47 42  1  0  0  0  0
 48 50  1  0  0  0  0
 50 52  1  0  0  0  0
 51 45  1  0  0  0  0
 52 49  1  0  0  0  0
 53 52  1  0  0  0  0
 54 50  1  0  0  0  0
 54 46  1  0  0  0  0
 55 56  1  0  0  0  0
 56 47  1  0  0  0  0
M  END
>  <MODEL>
3

>  <REMARK>
 VINA RESULT:      -7.1      2.195      4.753
  Name = 
  12 active torsions:
  status: ('A' for Active; 'I' for Inactive)
    1  A    between atoms: N_3  and  C_32
    2  A    between atoms: C_4  and  C_26
    3  A    between atoms: C_5  and  C_22
    4  A    between atoms: N_8  and  C_46
    5  A    between atoms: C_9  and  S_21
    6  A    between atoms: C_11  and  C_42
    7  A    between atoms: C_13  and  N_17
    8  A    between atoms: N_17  and  C_46
    9  A    between atoms: C_18  and  O_56
   10  A    between atoms: S_21  and  O_56
   11  A    between atoms: C_29  and  N_39
   12  A    between atoms: C_31  and  C_40
                            x       y       z     vdW  Elec       q    Type
                         _______ _______ _______ _____ _____    ______ ____

>  <TORSDO>
F 12

$$$$
=
 OpenBabel11042419543D

 56 63  0  0  1  0  0  0  0  0999 V2000
  188.9830  173.9630  143.0990 C   0  0  0  0  0  0  0  0  0  0  0  0
  189.0200  175.0630  145.2480 C   0  0  0  0  0  0  0  0  0  0  0  0
  190.1850  172.8710  144.7100 N   0  0  0  0  0  0  0  0  0  0  0  0
  188.1720  174.9520  142.5440 C   0  0  0  0  0  3  0  0  0  0  0  0
  188.2110  176.0770  144.7080 C   0  0  0  0  0  3  0  0  0  0  0  0
  190.2540  172.0580  143.4880 C   0  0  0  0  0  3  0  0  0  0  0  0
  189.4660  172.7810  142.4830 N   0  0  0  0  0  0  0  0  0  0  0  0
  187.7830  176.0320  143.3630 C   0  0  0  0  0  0  0  0  0  0  0  0
  189.3860  174.0050  144.4000 C   0  0  0  0  0  0  0  0  0  0  0  0
  190.1350  171.1580  140.7690 C   0  0  0  0  0  2  0  0  0  0  0  0
  189.3430  172.4430  141.0640 C   0  0  2  0  0  3  0  0  0  0  0  0
  191.4750  172.2710  138.9270 C   0  0  2  0  0  3  0  0  0  0  0  0
  189.7630  173.6280  140.1710 C   0  0  0  0  0  2  0  0  0  0  0  0
  190.5680  171.0890  139.3060 C   0  0  0  0  0  2  0  0  0  0  0  0
  191.2330  173.5250  139.7740 C   0  0  0  0  0  2  0  0  0  0  0  0
  191.2920  172.5990  137.5220 N   0  0  0  0  0  2  0  0  0  0  0  0
  192.3040  172.3860  136.5370 C   0  0  0  0  0  0  0  0  0  0  0  0
  193.4260  171.9130  136.8680 O   0  0  0  0  0  0  0  0  0  0  0  0
  191.4170  177.0470  135.1130 O   0  0  0  0  0  1  0  0  0  0  0  0
  190.5200  174.8650  134.6360 C   0  0  1  0  0  3  0  0  0  0  0  0
  191.5230  175.6980  135.4480 C   0  0  1  0  0  3  0  0  0  0  0  0
  192.9760  175.2450  135.2500 C   0  0  0  0  0  2  0  0  0  0  0  0
  192.0550  172.8640  135.1390 C   0  0  2  0  0  3  0  0  0  0  0  0
  193.1140  173.8500  134.6300 C   0  0  0  0  0  2  0  0  0  0  0  0
  190.6190  173.3840  135.0050 C   0  0  0  0  0  2  0  0  0  0  0  0
  188.8130  175.4000  134.9140 S   0  0  2  0  0  3  0  0  0  0  0  0
  188.8940  176.9200  134.9040 O   0  0  0  0  0  1  0  0  0  0  0  0
  188.4950  175.0230  136.5720 O   0  0  0  0  0  0  0  0  0  0  0  0
  186.3420  175.8680  136.5540 O   0  0  0  0  0  0  0  0  0  0  0  0
  187.3230  175.4300  137.2100 C   0  0  0  0  0  3  0  0  0  0  0  0
  186.8930  177.0880  142.8500 C   0  0  0  0  0  0  0  0  0  0  0  0
  185.4810  178.2670  141.6370 C   0  0  0  0  0  0  0  0  0  0  0  0
  186.2590  177.0440  141.6860 C   0  0  0  0  0  3  0  0  0  0  0  0
  184.6320  178.6260  140.5560 N   0  0  0  0  0  1  0  0  0  0  0  0
  185.6080  178.9980  142.6910 N   0  0  0  0  0  0  0  0  0  0  0  0
  186.5300  178.3310  143.5950 C   0  0  0  0  0  2  0  0  0  0  0  0
  189.4170  175.1390  146.6230 N   0  0  0  0  0  2  0  0  0  0  0  0
  190.6960  175.6720  147.0670 C   0  0  0  0  0  2  0  0  0  0  0  0
  192.3630  175.6390  145.1610 C   0  0  0  0  0  0  0  0  0  0  0  0
  191.7800  175.0470  146.3250 N   0  0  0  0  0  2  0  0  0  0  0  0
  191.9230  176.7300  144.7120 O   0  0  0  0  0  0  0  0  0  0  0  0
  194.2040  173.9430  145.3320 C   0  0  2  0  0  3  0  0  0  0  0  0
  195.9400  175.3200  143.8720 C   0  0  0  0  0  2  0  0  0  0  0  0
  193.4760  174.9470  144.4320 C   0  0  2  0  0  3  0  0  0  0  0  0
  197.7810  173.5900  143.6680 C   0  0  0  0  0  2  0  0  0  0  0  0
  193.6770  171.5840  144.7100 C   0  0  0  0  0  2  0  0  0  0  0  0
  194.8720  175.2730  144.9700 C   0  0  1  0  0  0  0  0  0  0  0  0
  196.7510  172.4610  143.5680 C   0  0  0  0  0  2  0  0  0  0  0  0
  196.8240  170.5680  146.2710 C   0  0  0  0  0  1  0  0  0  0  0  0
  195.9830  172.3200  144.8010 N   0  0  2  0  0  0  0  0  0  0  0  0
  197.2780  174.8260  144.4140 C   0  0  0  0  0  2  0  0  0  0  0  0
  195.9080  170.8960  145.1090 C   0  0  2  0  0  3  0  0  0  0  0  0
  194.4800  170.5790  145.4810 C   0  0  0  0  0  2  0  0  0  0  0  0
  194.6220  172.7490  144.4740 C   0  0  2  0  0  3  0  0  0  0  0  0
  195.1290  177.7040  145.6050 C   0  0  0  0  0  1  0  0  0  0  0  0
  194.9660  176.2840  146.1180 C   0  0  0  0  0  2  0  0  0  0  0  0
  1  9  1  0  0  0  0
  2 37  1  0  0  0  0
  4  1  2  0  0  0  0
  4  8  1  0  0  0  0
  5  2  1  0  0  0  0
  6  3  2  0  0  0  0
  7  1  1  0  0  0  0
  7  6  1  0  0  0  0
  8  5  2  0  0  0  0
  9  3  1  0  0  0  0
  9  2  2  0  0  0  0
 10 11  1  0  0  0  0
 11  7  1  0  0  0  0
 12 14  1  0  0  0  0
 12 15  1  0  0  0  0
 13 11  1  0  0  0  0
 14 10  1  0  0  0  0
 15 13  1  0  0  0  0
 16 12  1  0  0  0  0
 17 18  2  0  0  0  0
 17 16  1  0  0  0  0
 20 26  1  1  0  0  0
 20 25  1  0  0  0  0
 20 21  1  0  0  0  0
 21 19  1  6  0  0  0
 22 21  1  0  0  0  0
 23 17  1  1  0  0  0
 24 23  1  0  0  0  0
 24 22  1  0  0  0  0
 25 23  1  0  0  0  0
 26 27  1  1  0  0  0
 26 28  1  0  0  0  0
 28 30  1  0  0  0  0
 29 30  2  0  0  0  0
 31  8  1  0  0  0  0
 31 36  1  0  0  0  0
 32 33  1  0  0  0  0
 32 35  2  0  0  0  0
 33 31  2  0  0  0  0
 34 32  1  0  0  0  0
 35 36  1  0  0  0  0
 37 38  1  0  0  0  0
 39 40  1  0  0  0  0
 40 38  1  0  0  0  0
 41 39  2  0  0  0  0
 43 51  1  0  0  0  0
 43 47  1  0  0  0  0
 44 47  1  0  0  0  0
 44 39  1  0  0  0  0
 44 42  1  0  0  0  0
 45 51  1  0  0  0  0
 46 53  1  0  0  0  0
 47 42  1  0  0  0  0
 47 56  1  0  0  0  0
 48 45  1  0  0  0  0
 48 50  1  0  0  0  0
 50 52  1  0  0  0  0
 52 53  1  0  0  0  0
 52 49  1  0  0  0  0
 54 46  1  0  0  0  0
 54 50  1  0  0  0  0
 54 42  1  0  0  0  0
 55 56  1  0  0  0  0
M  END
>  <MODEL>
4

>  <REMARK>
 VINA RESULT:      -6.9      3.739      8.697
  Name = 
  12 active torsions:
  status: ('A' for Active; 'I' for Inactive)
    1  A    between atoms: N_3  and  C_32
    2  A    between atoms: C_4  and  C_26
    3  A    between atoms: C_5  and  C_22
    4  A    between atoms: N_8  and  C_46
    5  A    between atoms: C_9  and  S_21
    6  A    between atoms: C_11  and  C_42
    7  A    between atoms: C_13  and  N_17
    8  A    between atoms: N_17  and  C_46
    9  A    between atoms: C_18  and  O_56
   10  A    between atoms: S_21  and  O_56
   11  A    between atoms: C_29  and  N_39
   12  A    between atoms: C_31  and  C_40
                            x       y       z     vdW  Elec       q    Type
                         _______ _______ _______ _____ _____    ______ ____

>  <TORSDO>
F 12

$$$$
=
 OpenBabel11042419543D

 56 63  0  0  1  0  0  0  0  0999 V2000
  191.5220  170.9060  140.7650 C   0  0  0  0  0  0  0  0  0  0  0  0
  193.1360  169.5530  139.5850 C   0  0  0  0  0  0  0  0  0  0  0  0
  191.1420  170.7090  138.5180 N   0  0  0  0  0  0  0  0  0  0  0  0
  192.1570  170.6960  141.9880 C   0  0  0  0  0  3  0  0  0  0  0  0
  193.7990  169.3350  140.8040 C   0  0  0  0  0  3  0  0  0  0  0  0
  190.0650  171.5400  139.0710 C   0  0  0  0  0  3  0  0  0  0  0  0
  190.3330  171.6360  140.5110 N   0  0  0  0  0  0  0  0  0  0  0  0
  193.3210  169.8990  142.0070 C   0  0  0  0  0  0  0  0  0  0  0  0
  191.9810  170.3520  139.6070 C   0  0  0  0  0  0  0  0  0  0  0  0
  188.8160  173.5500  140.7340 C   0  0  0  0  0  2  0  0  0  0  0  0
  189.6160  172.4680  141.4780 C   0  0  2  0  0  3  0  0  0  0  0  0
  189.8920  175.4210  142.0660 C   0  0  2  0  0  3  0  0  0  0  0  0
  190.5780  173.0490  142.5340 C   0  0  0  0  0  2  0  0  0  0  0  0
  188.5720  174.7730  141.6160 C   0  0  0  0  0  2  0  0  0  0  0  0
  191.0650  174.4370  142.1330 C   0  0  0  0  0  2  0  0  0  0  0  0
  189.7150  176.0440  143.3680 N   0  0  0  0  0  2  0  0  0  0  0  0
  190.5870  177.0580  143.8680 C   0  0  0  0  0  0  0  0  0  0  0  0
  191.5770  177.4400  143.1860 O   0  0  0  0  0  0  0  0  0  0  0  0
  188.7140  174.4960  147.6720 O   0  0  0  0  0  1  0  0  0  0  0  0
  188.4580  176.7030  146.7460 C   0  0  1  0  0  3  0  0  0  0  0  0
  189.1200  175.3220  146.6250 C   0  0  1  0  0  3  0  0  0  0  0  0
  190.6530  175.3930  146.6080 C   0  0  0  0  0  2  0  0  0  0  0  0
  190.3840  177.5520  145.2680 C   0  0  2  0  0  3  0  0  0  0  0  0
  191.2090  176.7910  146.3130 C   0  0  0  0  0  2  0  0  0  0  0  0
  188.8870  177.6140  145.5950 C   0  0  0  0  0  2  0  0  0  0  0  0
  186.6520  176.5910  146.7310 S   0  0  2  0  0  3  0  0  0  0  0  0
  186.2800  176.7970  145.2700 O   0  0  0  0  0  1  0  0  0  0  0  0
  186.1110  178.0460  147.4940 O   0  0  0  0  0  0  0  0  0  0  0  0
  183.9710  178.2100  146.6320 O   0  0  0  0  0  0  0  0  0  0  0  0
  185.0300  178.7790  147.0040 C   0  0  0  0  0  3  0  0  0  0  0  0
  194.0150  169.6040  143.2720 C   0  0  0  0  0  0  0  0  0  0  0  0
  195.4780  168.9610  144.7890 C   0  0  0  0  0  0  0  0  0  0  0  0
  195.1810  168.9820  143.3700 C   0  0  0  0  0  3  0  0  0  0  0  0
  196.6540  168.3930  145.3470 N   0  0  0  0  0  1  0  0  0  0  0  0
  194.5780  169.5390  145.5090 N   0  0  0  0  0  0  0  0  0  0  0  0
  193.5300  170.0190  144.6240 C   0  0  0  0  0  2  0  0  0  0  0  0
  193.6460  168.9460  138.3900 N   0  0  0  0  0  2  0  0  0  0  0  0
  194.9040  169.3240  137.7650 C   0  0  0  0  0  2  0  0  0  0  0  0
  195.5290  171.7670  138.0020 C   0  0  0  0  0  0  0  0  0  0  0  0
  195.5120  170.4250  138.4960 N   0  0  0  0  0  2  0  0  0  0  0  0
  195.0350  172.0380  136.8750 O   0  0  0  0  0  0  0  0  0  0  0  0
  195.8910  172.7170  140.2960 C   0  0  2  0  0  3  0  0  0  0  0  0
  195.6750  175.2530  139.5460 C   0  0  0  0  0  2  0  0  0  0  0  0
  196.1750  172.8630  138.7970 C   0  0  2  0  0  3  0  0  0  0  0  0
  196.3400  176.3880  141.7130 C   0  0  0  0  0  2  0  0  0  0  0  0
  197.9160  171.9780  141.5560 C   0  0  0  0  0  2  0  0  0  0  0  0
  195.1810  173.8040  139.4840 C   0  0  1  0  0  0  0  0  0  0  0  0
  197.3800  175.3000  142.0000 C   0  0  0  0  0  2  0  0  0  0  0  0
  196.4590  173.4480  144.5720 C   0  0  0  0  0  1  0  0  0  0  0  0
  196.7560  174.0000  142.2160 N   0  0  2  0  0  0  0  0  0  0  0  0
  195.1840  175.9240  140.8260 C   0  0  0  0  0  2  0  0  0  0  0  0
  197.3950  173.3960  143.3810 C   0  0  2  0  0  3  0  0  0  0  0  0
  197.7090  171.9600  143.0420 C   0  0  0  0  0  2  0  0  0  0  0  0
  197.1300  173.1800  141.0630 C   0  0  2  0  0  3  0  0  0  0  0  0
  193.1120  174.5470  138.2410 C   0  0  0  0  0  1  0  0  0  0  0  0
  193.6890  173.5550  139.2360 C   0  0  0  0  0  2  0  0  0  0  0  0
  1  4  1  0  0  0  0
  2  9  1  0  0  0  0
  2  5  2  0  0  0  0
  3  6  2  0  0  0  0
  3  9  1  0  0  0  0
  4  8  2  0  0  0  0
  5  8  1  0  0  0  0
  6  7  1  0  0  0  0
  7  1  1  0  0  0  0
  7 11  1  0  0  0  0
  8 31  1  0  0  0  0
  9  1  2  0  0  0  0
 10 11  1  0  0  0  0
 10 14  1  0  0  0  0
 11 13  1  0  0  0  0
 12 15  1  0  0  0  0
 12 16  1  0  0  0  0
 14 12  1  0  0  0  0
 15 13  1  0  0  0  0
 16 17  1  0  0  0  0
 18 17  2  0  0  0  0
 20 26  1  6  0  0  0
 21 20  1  0  0  0  0
 21 19  1  1  0  0  0
 22 21  1  0  0  0  0
 23 17  1  6  0  0  0
 23 25  1  0  0  0  0
 23 24  1  0  0  0  0
 24 22  1  0  0  0  0
 25 20  1  0  0  0  0
 26 27  1  6  0  0  0
 26 28  1  0  0  0  0
 29 30  2  0  0  0  0
 30 28  1  0  0  0  0
 31 33  2  0  0  0  0
 31 36  1  0  0  0  0
 32 34  1  0  0  0  0
 32 35  2  0  0  0  0
 33 32  1  0  0  0  0
 36 35  1  0  0  0  0
 37  2  1  0  0  0  0
 38 37  1  0  0  0  0
 38 40  1  0  0  0  0
 39 40  1  0  0  0  0
 39 44  1  0  0  0  0
 41 39  2  0  0  0  0
 42 54  1  0  0  0  0
 43 51  1  0  0  0  0
 44 47  1  0  0  0  0
 44 42  1  0  0  0  0
 45 48  1  0  0  0  0
 46 53  1  0  0  0  0
 47 43  1  0  0  0  0
 47 42  1  0  0  0  0
 48 50  1  0  0  0  0
 50 52  1  0  0  0  0
 51 45  1  0  0  0  0
 52 49  1  0  0  0  0
 53 52  1  0  0  0  0
 54 46  1  0  0  0  0
 54 50  1  0  0  0  0
 55 56  1  0  0  0  0
 56 47  1  0  0  0  0
M  END
>  <MODEL>
5

>  <REMARK>
 VINA RESULT:      -6.8      1.988      2.666
  Name = 
  12 active torsions:
  status: ('A' for Active; 'I' for Inactive)
    1  A    between atoms: N_3  and  C_32
    2  A    between atoms: C_4  and  C_26
    3  A    between atoms: C_5  and  C_22
    4  A    between atoms: N_8  and  C_46
    5  A    between atoms: C_9  and  S_21
    6  A    between atoms: C_11  and  C_42
    7  A    between atoms: C_13  and  N_17
    8  A    between atoms: N_17  and  C_46
    9  A    between atoms: C_18  and  O_56
   10  A    between atoms: S_21  and  O_56
   11  A    between atoms: C_29  and  N_39
   12  A    between atoms: C_31  and  C_40
                            x       y       z     vdW  Elec       q    Type
                         _______ _______ _______ _____ _____    ______ ____

>  <TORSDO>
F 12

$$$$
=
 OpenBabel11042419543D

 56 63  0  0  1  0  0  0  0  0999 V2000
  188.3890  174.4960  139.7350 C   0  0  0  0  0  0  0  0  0  0  0  0
  187.4110  175.6720  141.6030 C   0  0  0  0  0  0  0  0  0  0  0  0
  186.9180  176.1500  139.1580 N   0  0  0  0  0  0  0  0  0  0  0  0
  189.1520  173.6840  140.5730 C   0  0  0  0  0  3  0  0  0  0  0  0
  188.1620  174.8580  142.4680 C   0  0  0  0  0  3  0  0  0  0  0  0
  187.4240  175.5620  137.9100 C   0  0  0  0  0  3  0  0  0  0  0  0
  188.3700  174.5160  138.3170 N   0  0  0  0  0  0  0  0  0  0  0  0
  189.0320  173.8660  141.9670 C   0  0  0  0  0  0  0  0  0  0  0  0
  187.5580  175.4600  140.2220 C   0  0  0  0  0  0  0  0  0  0  0  0
  189.0200  172.1610  138.0900 C   0  0  0  0  0  2  0  0  0  0  0  0
  189.0370  173.5540  137.4380 C   0  0  2  0  0  3  0  0  0  0  0  0
  191.5380  171.9200  137.9070 C   0  0  2  0  0  3  0  0  0  0  0  0
  190.4570  174.0290  137.0690 C   0  0  0  0  0  2  0  0  0  0  0  0
  190.1700  171.2920  137.5870 C   0  0  0  0  0  2  0  0  0  0  0  0
  191.4980  173.4470  138.0200 C   0  0  0  0  0  2  0  0  0  0  0  0
  192.5020  171.5400  136.8870 N   0  0  0  0  0  2  0  0  0  0  0  0
  193.2630  170.3330  136.9500 C   0  0  0  0  0  0  0  0  0  0  0  0
  193.1330  169.5480  137.9290 O   0  0  0  0  0  0  0  0  0  0  0  0
  197.9410  171.9620  137.0190 O   0  0  0  0  0  1  0  0  0  0  0  0
  196.1590  171.8110  135.4090 C   0  0  1  0  0  3  0  0  0  0  0  0
  196.6080  171.5850  136.8600 C   0  0  1  0  0  3  0  0  0  0  0  0
  196.4420  170.1290  137.3170 C   0  0  0  0  0  2  0  0  0  0  0  0
  194.3120  170.0920  135.9070 C   0  0  2  0  0  3  0  0  0  0  0  0
  195.5180  169.2970  136.4220 C   0  0  0  0  0  2  0  0  0  0  0  0
  194.6940  171.4120  135.2260 C   0  0  0  0  0  2  0  0  0  0  0  0
  196.3360  173.5410  134.9080 S   0  0  2  0  0  3  0  0  0  0  0  0
  197.8350  173.7210  134.7160 O   0  0  0  0  0  1  0  0  0  0  0  0
  195.9990  174.4540  136.3380 O   0  0  0  0  0  0  0  0  0  0  0  0
  197.0620  175.2840  138.2170 O   0  0  0  0  0  0  0  0  0  0  0  0
  196.9720  175.2340  136.9620 C   0  0  0  0  0  3  0  0  0  0  0  0
  189.8410  173.0690  142.9050 C   0  0  0  0  0  0  0  0  0  0  0  0
  191.4710  172.2830  144.1620 C   0  0  0  0  0  0  0  0  0  0  0  0
  191.1270  173.2700  143.1570 C   0  0  0  0  0  3  0  0  0  0  0  0
  192.7640  172.1500  144.7350 N   0  0  0  0  0  1  0  0  0  0  0  0
  190.4760  171.5450  144.5160 N   0  0  0  0  0  0  0  0  0  0  0  0
  189.3110  171.9570  143.7510 C   0  0  0  0  0  2  0  0  0  0  0  0
  186.5540  176.6800  142.1550 N   0  0  0  0  0  2  0  0  0  0  0  0
  187.0200  177.9870  142.5900 C   0  0  0  0  0  2  0  0  0  0  0  0
  188.6490  177.6750  144.5040 C   0  0  0  0  0  0  0  0  0  0  0  0
  188.3720  177.8840  143.1170 N   0  0  0  0  0  2  0  0  0  0  0  0
  187.7080  177.6060  145.3390 O   0  0  0  0  0  0  0  0  0  0  0  0
  190.8570  176.5150  144.2280 C   0  0  2  0  0  3  0  0  0  0  0  0
  191.3970  176.4000  146.8230 C   0  0  0  0  0  2  0  0  0  0  0  0
  190.0640  177.5810  144.9920 C   0  0  2  0  0  3  0  0  0  0  0  0
  193.7760  175.5300  146.7160 C   0  0  0  0  0  2  0  0  0  0  0  0
  192.5210  177.5340  142.6710 C   0  0  0  0  0  2  0  0  0  0  0  0
  190.4040  176.2480  145.6660 C   0  0  1  0  0  0  0  0  0  0  0  0
  194.0570  176.3640  145.4620 C   0  0  0  0  0  2  0  0  0  0  0  0
  194.4290  174.4180  142.8220 C   0  0  0  0  0  1  0  0  0  0  0  0
  193.2490  175.9260  144.3300 N   0  0  2  0  0  0  0  0  0  0  0  0
  192.3020  175.1730  146.9070 C   0  0  0  0  0  2  0  0  0  0  0  0
  194.1250  175.8620  143.1650 C   0  0  2  0  0  3  0  0  0  0  0  0
  193.4070  176.5190  142.0120 C   0  0  0  0  0  2  0  0  0  0  0  0
  192.2960  177.0080  144.0770 C   0  0  2  0  0  3  0  0  0  0  0  0
  188.9730  174.9180  147.2670 C   0  0  0  0  0  1  0  0  0  0  0  0
  189.2740  175.2230  145.8090 C   0  0  0  0  0  2  0  0  0  0  0  0
  1  9  2  0  0  0  0
  1  4  1  0  0  0  0
  2 37  1  0  0  0  0
  2  5  2  0  0  0  0
  3  9  1  0  0  0  0
  4  8  2  0  0  0  0
  6  7  1  0  0  0  0
  6  3  2  0  0  0  0
  7  1  1  0  0  0  0
  8  5  1  0  0  0  0
  8 31  1  0  0  0  0
  9  2  1  0  0  0  0
 11 10  1  0  0  0  0
 11  7  1  0  0  0  0
 12 15  1  0  0  0  0
 13 11  1  0  0  0  0
 13 15  1  0  0  0  0
 14 12  1  0  0  0  0
 14 10  1  0  0  0  0
 16 17  1  0  0  0  0
 16 12  1  0  0  0  0
 17 18  2  0  0  0  0
 20 26  1  1  0  0  0
 20 21  1  0  0  0  0
 21 19  1  6  0  0  0
 21 22  1  0  0  0  0
 23 24  1  0  0  0  0
 23 17  1  1  0  0  0
 24 22  1  0  0  0  0
 25 20  1  0  0  0  0
 25 23  1  0  0  0  0
 26 27  1  1  0  0  0
 26 28  1  0  0  0  0
 28 30  1  0  0  0  0
 30 29  2  0  0  0  0
 31 33  2  0  0  0  0
 31 36  1  0  0  0  0
 32 35  2  0  0  0  0
 32 34  1  0  0  0  0
 33 32  1  0  0  0  0
 36 35  1  0  0  0  0
 37 38  1  0  0  0  0
 38 40  1  0  0  0  0
 39 44  1  0  0  0  0
 39 41  2  0  0  0  0
 40 39  1  0  0  0  0
 42 44  1  0  0  0  0
 42 47  1  0  0  0  0
 43 51  1  0  0  0  0
 44 47  1  0  0  0  0
 45 51  1  0  0  0  0
 46 54  1  0  0  0  0
 47 56  1  0  0  0  0
 47 43  1  0  0  0  0
 48 45  1  0  0  0  0
 49 52  1  0  0  0  0
 50 48  1  0  0  0  0
 52 50  1  0  0  0  0
 53 46  1  0  0  0  0
 53 52  1  0  0  0  0
 54 42  1  0  0  0  0
 54 50  1  0  0  0  0
 56 55  1  0  0  0  0
M  END
>  <MODEL>
6

>  <REMARK>
 VINA RESULT:      -6.7      4.196      9.827
  Name = 
  12 active torsions:
  status: ('A' for Active; 'I' for Inactive)
    1  A    between atoms: N_3  and  C_32
    2  A    between atoms: C_4  and  C_26
    3  A    between atoms: C_5  and  C_22
    4  A    between atoms: N_8  and  C_46
    5  A    between atoms: C_9  and  S_21
    6  A    between atoms: C_11  and  C_42
    7  A    between atoms: C_13  and  N_17
    8  A    between atoms: N_17  and  C_46
    9  A    between atoms: C_18  and  O_56
   10  A    between atoms: S_21  and  O_56
   11  A    between atoms: C_29  and  N_39
   12  A    between atoms: C_31  and  C_40
                            x       y       z     vdW  Elec       q    Type
                         _______ _______ _______ _____ _____    ______ ____

>  <TORSDO>
F 12

$$$$
=
 OpenBabel11042419543D

 56 63  0  0  1  0  0  0  0  0999 V2000
  195.8620  173.1870  143.2100 C   0  0  0  0  0  0  0  0  0  0  0  0
  197.1300  171.5750  141.9360 C   0  0  0  0  0  0  0  0  0  0  0  0
  196.3780  173.8450  141.0800 N   0  0  0  0  0  0  0  0  0  0  0  0
  195.8080  172.3490  144.3220 C   0  0  0  0  0  3  0  0  0  0  0  0
  197.0980  170.7170  143.0480 C   0  0  0  0  0  3  0  0  0  0  0  0
  195.5970  174.9280  141.6940 C   0  0  0  0  0  3  0  0  0  0  0  0
  195.2760  174.4680  143.0510 N   0  0  0  0  0  0  0  0  0  0  0  0
  196.4420  171.0920  144.2410 C   0  0  0  0  0  0  0  0  0  0  0  0
  196.4870  172.8180  142.0560 C   0  0  0  0  0  0  0  0  0  0  0  0
  194.3080  174.3370  145.3010 C   0  0  0  0  0  2  0  0  0  0  0  0
  194.6260  175.2490  144.1040 C   0  0  2  0  0  3  0  0  0  0  0  0
  191.8540  174.9760  145.2820 C   0  0  2  0  0  3  0  0  0  0  0  0
  193.3850  175.9890  143.5650 C   0  0  0  0  0  2  0  0  0  0  0  0
  193.1380  174.8750  146.1220 C   0  0  0  0  0  2  0  0  0  0  0  0
  192.1160  175.1720  143.7850 C   0  0  0  0  0  2  0  0  0  0  0  0
  191.0320  176.0710  145.7710 N   0  0  0  0  0  2  0  0  0  0  0  0
  189.7510  176.3840  145.2240 C   0  0  0  0  0  0  0  0  0  0  0  0
  189.2890  175.7140  144.2600 O   0  0  0  0  0  0  0  0  0  0  0  0
  184.8900  176.8320  146.0680 O   0  0  0  0  0  1  0  0  0  0  0  0
  186.6190  178.1450  145.0310 C   0  0  1  0  0  3  0  0  0  0  0  0
  186.2410  176.8290  145.7250 C   0  0  1  0  0  3  0  0  0  0  0  0
  187.0760  176.5550  146.9840 C   0  0  0  0  0  2  0  0  0  0  0  0
  189.0360  177.6030  145.7230 C   0  0  2  0  0  3  0  0  0  0  0  0
  188.3520  177.3990  147.0810 C   0  0  0  0  0  2  0  0  0  0  0  0
  188.0980  178.1470  144.6400 C   0  0  0  0  0  2  0  0  0  0  0  0
  185.6420  178.4250  143.5330 S   0  0  2  0  0  3  0  0  0  0  0  0
  184.2310  178.6610  144.0490 O   0  0  0  0  0  1  0  0  0  0  0  0
  185.5410  176.8740  142.7730 O   0  0  0  0  0  0  0  0  0  0  0  0
  187.0840  177.1290  141.0690 O   0  0  0  0  0  0  0  0  0  0  0  0
  186.5500  176.3930  141.9400 C   0  0  0  0  0  3  0  0  0  0  0  0
  196.3860  170.1430  145.3670 C   0  0  0  0  0  0  0  0  0  0  0  0
  195.7190  168.8750  147.0400 C   0  0  0  0  0  0  0  0  0  0  0  0
  195.3060  169.8920  146.0930 C   0  0  0  0  0  2  0  0  0  0  0  0
  194.8600  168.2990  148.0140 N   0  0  0  0  0  1  0  0  0  0  0  0
  196.9480  168.5130  146.9000 N   0  0  0  0  0  0  0  0  0  0  0  0
  197.5250  169.2830  145.8110 C   0  0  0  0  0  3  0  0  0  0  0  0
  197.7910  171.1470  140.7370 N   0  0  0  0  0  2  0  0  0  0  0  0
  197.3630  170.0060  139.9420 C   0  0  0  0  0  2  0  0  0  0  0  0
  194.8730  169.5450  140.0110 C   0  0  0  0  0  0  0  0  0  0  0  0
  196.0070  170.2170  139.4580 N   0  0  0  0  0  2  0  0  0  0  0  0
  195.0210  168.7020  140.9360 O   0  0  0  0  0  0  0  0  0  0  0  0
  193.3520  171.2300  138.9430 C   0  0  2  0  0  3  0  0  0  0  0  0
  191.1950  170.5110  140.3100 C   0  0  0  0  0  2  0  0  0  0  0  0
  193.4980  169.7980  139.4690 C   0  0  2  0  0  3  0  0  0  0  0  0
  189.4550  171.9160  139.1160 C   0  0  0  0  0  2  0  0  0  0  0  0
  193.2590  171.2990  136.4490 C   0  0  0  0  0  2  0  0  0  0  0  0
  192.6930  170.8280  140.2650 C   0  0  1  0  0  0  0  0  0  0  0  0
  190.1590  171.7000  137.7720 C   0  0  0  0  0  2  0  0  0  0  0  0
  191.5210  174.5080  136.6980 C   0  0  0  0  0  1  0  0  0  0  0  0
  191.4830  172.3100  137.7510 N   0  0  2  0  0  0  0  0  0  0  0  0
  190.3810  171.8030  140.3270 C   0  0  0  0  0  2  0  0  0  0  0  0
  191.6220  173.0110  136.4790 C   0  0  2  0  0  3  0  0  0  0  0  0
  192.9770  172.6700  135.9100 C   0  0  0  0  0  2  0  0  0  0  0  0
  192.4350  171.1980  137.7210 C   0  0  2  0  0  3  0  0  0  0  0  0
  192.6430  170.9650  142.7880 C   0  0  0  0  0  1  0  0  0  0  0  0
  193.3480  171.4160  141.5200 C   0  0  0  0  0  2  0  0  0  0  0  0
  1  4  1  0  0  0  0
  2  9  1  0  0  0  0
  2  5  2  0  0  0  0
  3  6  2  0  0  0  0
  3  9  1  0  0  0  0
  5  8  1  0  0  0  0
  6  7  1  0  0  0  0
  7  1  1  0  0  0  0
  7 11  1  0  0  0  0
  8  4  2  0  0  0  0
  8 31  1  0  0  0  0
  9  1  2  0  0  0  0
 10 14  1  0  0  0  0
 11 10  1  0  0  0  0
 12 16  1  0  0  0  0
 12 14  1  0  0  0  0
 13 15  1  0  0  0  0
 13 11  1  0  0  0  0
 15 12  1  0  0  0  0
 17 16  1  0  0  0  0
 18 17  2  0  0  0  0
 20 26  1  6  0  0  0
 20 21  1  0  0  0  0
 21 19  1  1  0  0  0
 21 22  1  0  0  0  0
 22 24  1  0  0  0  0
 23 17  1  6  0  0  0
 23 24  1  0  0  0  0
 25 20  1  0  0  0  0
 25 23  1  0  0  0  0
 26 27  1  1  0  0  0
 28 26  1  0  0  0  0
 29 30  2  0  0  0  0
 30 28  1  0  0  0  0
 31 36  2  0  0  0  0
 31 33  1  0  0  0  0
 32 34  1  0  0  0  0
 33 32  1  0  0  0  0
 35 32  2  0  0  0  0
 36 35  1  0  0  0  0
 37  2  1  0  0  0  0
 38 37  1  0  0  0  0
 39 41  2  0  0  0  0
 40 38  1  0  0  0  0
 40 39  1  0  0  0  0
 42 44  1  0  0  0  0
 42 47  1  0  0  0  0
 43 51  1  0  0  0  0
 44 39  1  0  0  0  0
 44 47  1  0  0  0  0
 45 51  1  0  0  0  0
 46 54  1  0  0  0  0
 47 43  1  0  0  0  0
 47 56  1  0  0  0  0
 48 45  1  0  0  0  0
 50 48  1  0  0  0  0
 52 49  1  0  0  0  0
 52 50  1  0  0  0  0
 53 46  1  0  0  0  0
 53 52  1  0  0  0  0
 54 50  1  0  0  0  0
 54 42  1  0  0  0  0
 56 55  1  0  0  0  0
M  END
>  <MODEL>
7

>  <REMARK>
 VINA RESULT:      -6.5      2.098      4.768
  Name = 
  12 active torsions:
  status: ('A' for Active; 'I' for Inactive)
    1  A    between atoms: N_3  and  C_32
    2  A    between atoms: C_4  and  C_26
    3  A    between atoms: C_5  and  C_22
    4  A    between atoms: N_8  and  C_46
    5  A    between atoms: C_9  and  S_21
    6  A    between atoms: C_11  and  C_42
    7  A    between atoms: C_13  and  N_17
    8  A    between atoms: N_17  and  C_46
    9  A    between atoms: C_18  and  O_56
   10  A    between atoms: S_21  and  O_56
   11  A    between atoms: C_29  and  N_39
   12  A    between atoms: C_31  and  C_40
                            x       y       z     vdW  Elec       q    Type
                         _______ _______ _______ _____ _____    ______ ____

>  <TORSDO>
F 12

$$$$
=
 OpenBabel11042419543D

 56 63  0  0  1  0  0  0  0  0999 V2000
  195.6650  173.6390  143.8380 C   0  0  0  0  0  0  0  0  0  0  0  0
  197.1480  172.2540  142.5300 C   0  0  0  0  0  0  0  0  0  0  0  0
  196.3110  174.5510  141.8420 N   0  0  0  0  0  0  0  0  0  0  0  0
  195.5770  172.6850  144.8510 C   0  0  0  0  0  3  0  0  0  0  0  0
  197.0840  171.2820  143.5420 C   0  0  0  0  0  3  0  0  0  0  0  0
  195.4060  175.5120  142.4880 C   0  0  0  0  0  3  0  0  0  0  0  0
  195.0040  174.8910  143.7560 N   0  0  0  0  0  0  0  0  0  0  0  0
  196.3040  171.4860  144.7020 C   0  0  0  0  0  0  0  0  0  0  0  0
  196.4100  173.4350  142.7160 C   0  0  0  0  0  0  0  0  0  0  0  0
  193.5900  174.4200  145.7050 C   0  0  0  0  0  2  0  0  0  0  0  0
  194.2130  175.5120  144.8190 C   0  0  2  0  0  3  0  0  0  0  0  0
  191.2470  175.3320  145.3780 C   0  0  2  0  0  3  0  0  0  0  0  0
  193.1670  176.4860  144.2380 C   0  0  0  0  0  2  0  0  0  0  0  0
  192.3210  174.9140  146.3960 C   0  0  0  0  0  2  0  0  0  0  0  0
  191.8230  175.7950  144.0350 C   0  0  0  0  0  2  0  0  0  0  0  0
  190.4260  176.3940  145.9380 N   0  0  0  0  0  2  0  0  0  0  0  0
  189.1130  176.6930  145.4620 C   0  0  0  0  0  0  0  0  0  0  0  0
  188.6200  176.0410  144.5010 O   0  0  0  0  0  0  0  0  0  0  0  0
  184.2350  177.1410  146.2000 O   0  0  0  0  0  1  0  0  0  0  0  0
  186.0080  178.5050  145.3130 C   0  0  1  0  0  3  0  0  0  0  0  0
  185.5960  177.1450  145.8960 C   0  0  1  0  0  3  0  0  0  0  0  0
  186.3910  176.7680  147.1540 C   0  0  0  0  0  2  0  0  0  0  0  0
  188.3980  177.8800  146.0310 C   0  0  2  0  0  3  0  0  0  0  0  0
  187.6720  177.5850  147.3490 C   0  0  0  0  0  2  0  0  0  0  0  0
  187.4980  178.5170  144.9650 C   0  0  0  0  0  2  0  0  0  0  0  0
  185.0780  178.9080  143.8140 S   0  0  2  0  0  3  0  0  0  0  0  0
  183.6320  178.9730  144.2800 O   0  0  0  0  0  1  0  0  0  0  0  0
  185.1310  177.4670  142.8580 O   0  0  0  0  0  0  0  0  0  0  0  0
  186.9090  176.6100  141.6520 O   0  0  0  0  0  0  0  0  0  0  0  0
  185.9100  177.3750  141.7050 C   0  0  0  0  0  3  0  0  0  0  0  0
  196.2210  170.4200  145.7160 C   0  0  0  0  0  0  0  0  0  0  0  0
  195.5060  168.9400  147.1830 C   0  0  0  0  0  0  0  0  0  0  0  0
  195.1030  170.0230  146.3080 C   0  0  0  0  0  2  0  0  0  0  0  0
  194.6100  168.2090  148.0080 N   0  0  0  0  0  1  0  0  0  0  0  0
  196.7660  168.6760  147.1240 N   0  0  0  0  0  0  0  0  0  0  0  0
  197.3770  169.5950  146.1780 C   0  0  0  0  0  3  0  0  0  0  0  0
  197.9370  171.9980  141.3610 N   0  0  0  0  0  2  0  0  0  0  0  0
  197.4830  171.1890  140.2400 C   0  0  0  0  0  2  0  0  0  0  0  0
  195.0630  171.7200  139.7160 C   0  0  0  0  0  0  0  0  0  0  0  0
  196.4630  171.9050  139.4900 N   0  0  0  0  0  2  0  0  0  0  0  0
  194.6590  170.8870  140.5690 O   0  0  0  0  0  0  0  0  0  0  0  0
  192.6200  172.1250  139.3100 C   0  0  2  0  0  3  0  0  0  0  0  0
  192.8370  172.2930  136.6710 C   0  0  0  0  0  2  0  0  0  0  0  0
  194.0550  172.4830  138.9080 C   0  0  2  0  0  3  0  0  0  0  0  0
  190.4780  173.0280  136.1040 C   0  0  0  0  0  2  0  0  0  0  0  0
  191.5210  173.9770  140.5730 C   0  0  0  0  0  2  0  0  0  0  0  0
  193.1980  171.6050  137.9910 C   0  0  1  0  0  0  0  0  0  0  0  0
  190.4110  173.8940  137.3660 C   0  0  0  0  0  2  0  0  0  0  0  0
  188.2810  172.6260  139.5460 C   0  0  0  0  0  1  0  0  0  0  0  0
  190.4710  173.0870  138.5790 N   0  0  2  0  0  0  0  0  0  0  0  0
  191.4510  171.8530  136.2070 C   0  0  0  0  0  2  0  0  0  0  0  0
  189.4490  173.5900  139.4910 C   0  0  2  0  0  3  0  0  0  0  0  0
  190.0730  173.7130  140.8590 C   0  0  0  0  0  2  0  0  0  0  0  0
  191.7650  173.3860  139.1950 C   0  0  2  0  0  3  0  0  0  0  0  0
  194.6330  169.7750  137.0030 C   0  0  0  0  0  1  0  0  0  0  0  0
  193.5050  170.1030  137.9670 C   0  0  0  0  0  2  0  0  0  0  0  0
  1  4  1  0  0  0  0
  2  9  1  0  0  0  0
  2  5  2  0  0  0  0
  3  6  2  0  0  0  0
  3  9  1  0  0  0  0
  5  8  1  0  0  0  0
  6  7  1  0  0  0  0
  7  1  1  0  0  0  0
  7 11  1  0  0  0  0
  8  4  2  0  0  0  0
  8 31  1  0  0  0  0
  9  1  2  0  0  0  0
 10 14  1  0  0  0  0
 11 10  1  0  0  0  0
 12 16  1  0  0  0  0
 12 14  1  0  0  0  0
 13 11  1  0  0  0  0
 15 13  1  0  0  0  0
 15 12  1  0  0  0  0
 17 16  1  0  0  0  0
 18 17  2  0  0  0  0
 20 26  1  6  0  0  0
 20 21  1  0  0  0  0
 21 19  1  1  0  0  0
 21 22  1  0  0  0  0
 22 24  1  0  0  0  0
 23 17  1  6  0  0  0
 23 24  1  0  0  0  0
 25 20  1  0  0  0  0
 25 23  1  0  0  0  0
 26 27  1  1  0  0  0
 28 26  1  0  0  0  0
 29 30  2  0  0  0  0
 30 28  1  0  0  0  0
 31 36  2  0  0  0  0
 31 33  1  0  0  0  0
 32 34  1  0  0  0  0
 33 32  1  0  0  0  0
 35 32  2  0  0  0  0
 36 35  1  0  0  0  0
 37  2  1  0  0  0  0
 38 37  1  0  0  0  0
 39 41  2  0  0  0  0
 40 39  1  0  0  0  0
 40 38  1  0  0  0  0
 43 47  1  0  0  0  0
 44 42  1  0  0  0  0
 44 39  1  0  0  0  0
 45 51  1  0  0  0  0
 45 48  1  0  0  0  0
 46 53  1  0  0  0  0
 47 44  1  0  0  0  0
 47 42  1  0  0  0  0
 48 50  1  0  0  0  0
 50 54  1  0  0  0  0
 50 52  1  0  0  0  0
 51 43  1  0  0  0  0
 52 49  1  0  0  0  0
 52 53  1  0  0  0  0
 54 42  1  0  0  0  0
 54 46  1  0  0  0  0
 55 56  1  0  0  0  0
 56 47  1  0  0  0  0
M  END
>  <MODEL>
8

>  <REMARK>
 VINA RESULT:      -6.3      2.279      4.628
  Name = 
  12 active torsions:
  status: ('A' for Active; 'I' for Inactive)
    1  A    between atoms: N_3  and  C_32
    2  A    between atoms: C_4  and  C_26
    3  A    between atoms: C_5  and  C_22
    4  A    between atoms: N_8  and  C_46
    5  A    between atoms: C_9  and  S_21
    6  A    between atoms: C_11  and  C_42
    7  A    between atoms: C_13  and  N_17
    8  A    between atoms: N_17  and  C_46
    9  A    between atoms: C_18  and  O_56
   10  A    between atoms: S_21  and  O_56
   11  A    between atoms: C_29  and  N_39
   12  A    between atoms: C_31  and  C_40
                            x       y       z     vdW  Elec       q    Type
                         _______ _______ _______ _____ _____    ______ ____

>  <TORSDO>
F 12

$$$$
=
 OpenBabel11042419543D

 56 63  0  0  1  0  0  0  0  0999 V2000
  188.0180  176.3530  144.0650 C   0  0  0  0  0  0  0  0  0  0  0  0
  190.3370  176.0770  144.6760 C   0  0  0  0  0  0  0  0  0  0  0  0
  188.7630  177.8060  145.6670 N   0  0  0  0  0  0  0  0  0  0  0  0
  188.0840  175.3240  143.1270 C   0  0  0  0  0  3  0  0  0  0  0  0
  190.4260  175.0290  143.7440 C   0  0  0  0  0  3  0  0  0  0  0  0
  187.3530  178.1280  145.4080 C   0  0  0  0  0  3  0  0  0  0  0  0
  186.9130  177.1870  144.3720 N   0  0  0  0  0  0  0  0  0  0  0  0
  189.3110  174.6470  142.9670 C   0  0  0  0  0  0  0  0  0  0  0  0
  189.0990  176.7270  144.8070 C   0  0  0  0  0  0  0  0  0  0  0  0
  185.5040  177.3550  142.3700 C   0  0  0  0  0  2  0  0  0  0  0  0
  185.5480  177.0190  143.8710 C   0  0  2  0  0  3  0  0  0  0  0  0
  183.6560  179.0620  142.6930 C   0  0  2  0  0  3  0  0  0  0  0  0
  184.5430  177.8410  144.7030 C   0  0  0  0  0  2  0  0  0  0  0  0
  184.1090  177.8020  141.9370 C   0  0  0  0  0  2  0  0  0  0  0  0
  184.2980  179.2100  144.0760 C   0  0  0  0  0  2  0  0  0  0  0  0
  182.2090  179.0540  142.8360 N   0  0  0  0  0  2  0  0  0  0  0  0
  181.3190  178.9530  141.7230 C   0  0  0  0  0  0  0  0  0  0  0  0
  181.7750  178.8850  140.5480 O   0  0  0  0  0  0  0  0  0  0  0  0
  177.6940  178.2010  138.4310 O   0  0  0  0  0  1  0  0  0  0  0  0
  178.2120  179.8230  140.1330 C   0  0  1  0  0  3  0  0  0  0  0  0
  178.6550  178.5630  139.3750 C   0  0  1  0  0  3  0  0  0  0  0  0
  178.9200  177.3690  140.3020 C   0  0  0  0  0  2  0  0  0  0  0  0
  179.8460  179.0690  141.9700 C   0  0  2  0  0  3  0  0  0  0  0  0
  179.0860  177.7510  141.7770 C   0  0  0  0  0  2  0  0  0  0  0  0
  179.2650  180.2360  141.1620 C   0  0  0  0  0  2  0  0  0  0  0  0
  177.9380  181.2220  139.0180 S   0  0  2  0  0  3  0  0  0  0  0  0
  178.6670  180.8280  137.7420 O   0  0  0  0  0  1  0  0  0  0  0  0
  178.9110  182.4990  139.6610 O   0  0  0  0  0  0  0  0  0  0  0  0
  179.5700  184.4880  138.6810 O   0  0  0  0  0  0  0  0  0  0  0  0
  178.7010  183.8340  139.3140 C   0  0  0  0  0  3  0  0  0  0  0  0
  189.4580  173.5780  141.9640 C   0  0  0  0  0  0  0  0  0  0  0  0
  189.3750  172.3730  140.1210 C   0  0  0  0  0  0  0  0  0  0  0  0
  188.9280  173.6010  140.7490 C   0  0  0  0  0  3  0  0  0  0  0  0
  189.0440  171.9930  138.7930 N   0  0  0  0  0  1  0  0  0  0  0  0
  190.1350  171.6580  140.8780 N   0  0  0  0  0  0  0  0  0  0  0  0
  190.2790  172.3430  142.1520 C   0  0  0  0  0  2  0  0  0  0  0  0
  191.4990  176.4450  145.4310 N   0  0  0  0  0  2  0  0  0  0  0  0
  192.7690  175.7390  145.3570 C   0  0  0  0  0  2  0  0  0  0  0  0
  193.8390  174.8950  143.2220 C   0  0  0  0  0  0  0  0  0  0  0  0
  193.3880  175.9630  144.0600 N   0  0  0  0  0  2  0  0  0  0  0  0
  193.7430  173.6990  143.6050 O   0  0  0  0  0  0  0  0  0  0  0  0
  195.2300  173.9680  141.3510 C   0  0  2  0  0  3  0  0  0  0  0  0
  196.6360  176.1870  140.9710 C   0  0  0  0  0  2  0  0  0  0  0  0
  194.4750  175.1860  141.8950 C   0  0  2  0  0  3  0  0  0  0  0  0
  197.8950  175.5300  138.8720 C   0  0  0  0  0  2  0  0  0  0  0  0
  194.0400  172.9240  139.4210 C   0  0  0  0  0  2  0  0  0  0  0  0
  196.0060  175.1600  141.9180 C   0  0  1  0  0  0  0  0  0  0  0  0
  196.6760  174.7700  138.3410 C   0  0  0  0  0  2  0  0  0  0  0  0
  197.2360  171.5170  138.3330 C   0  0  0  0  0  1  0  0  0  0  0  0
  196.3470  173.6230  139.1800 N   0  0  2  0  0  0  0  0  0  0  0  0
  197.9410  175.6440  140.3950 C   0  0  0  0  0  2  0  0  0  0  0  0
  196.0790  172.4950  138.2940 C   0  0  2  0  0  3  0  0  0  0  0  0
  194.8210  171.8160  138.7790 C   0  0  0  0  0  2  0  0  0  0  0  0
  195.0780  173.9540  139.8300 C   0  0  2  0  0  3  0  0  0  0  0  0
  197.3200  173.5270  143.3290 C   0  0  0  0  0  1  0  0  0  0  0  0
  196.6850  174.9070  143.2690 C   0  0  0  0  0  2  0  0  0  0  0  0
  1  7  1  0  0  0  0
  1  9  1  0  0  0  0
  2  9  2  0  0  0  0
  2 37  1  0  0  0  0
  4  1  2  0  0  0  0
  5  2  1  0  0  0  0
  6  3  2  0  0  0  0
  7  6  1  0  0  0  0
  8  4  1  0  0  0  0
  8  5  2  0  0  0  0
  9  3  1  0  0  0  0
 10 11  1  0  0  0  0
 11  7  1  0  0  0  0
 11 13  1  0  0  0  0
 12 16  1  0  0  0  0
 12 15  1  0  0  0  0
 14 10  1  0  0  0  0
 14 12  1  0  0  0  0
 15 13  1  0  0  0  0
 17 16  1  0  0  0  0
 18 17  2  0  0  0  0
 20 26  1  6  0  0  0
 20 25  1  0  0  0  0
 21 19  1  6  0  0  0
 21 20  1  0  0  0  0
 21 22  1  0  0  0  0
 22 24  1  0  0  0  0
 23 17  1  6  0  0  0
 24 23  1  0  0  0  0
 25 23  1  0  0  0  0
 26 27  1  6  0  0  0
 26 28  1  0  0  0  0
 29 30  2  0  0  0  0
 30 28  1  0  0  0  0
 31 36  1  0  0  0  0
 31  8  1  0  0  0  0
 32 33  1  0  0  0  0
 32 35  2  0  0  0  0
 33 31  2  0  0  0  0
 34 32  1  0  0  0  0
 35 36  1  0  0  0  0
 38 37  1  0  0  0  0
 39 41  2  0  0  0  0
 39 40  1  0  0  0  0
 40 38  1  0  0  0  0
 42 44  1  0  0  0  0
 42 47  1  0  0  0  0
 43 47  1  0  0  0  0
 44 47  1  0  0  0  0
 44 39  1  0  0  0  0
 45 51  1  0  0  0  0
 46 54  1  0  0  0  0
 47 56  1  0  0  0  0
 48 45  1  0  0  0  0
 48 50  1  0  0  0  0
 50 54  1  0  0  0  0
 51 43  1  0  0  0  0
 52 49  1  0  0  0  0
 52 53  1  0  0  0  0
 52 50  1  0  0  0  0
 53 46  1  0  0  0  0
 54 42  1  0  0  0  0
 56 55  1  0  0  0  0
M  END
>  <MODEL>
9

>  <REMARK>
 VINA RESULT:      -6.1      4.043      7.962
  Name = 
  12 active torsions:
  status: ('A' for Active; 'I' for Inactive)
    1  A    between atoms: N_3  and  C_32
    2  A    between atoms: C_4  and  C_26
    3  A    between atoms: C_5  and  C_22
    4  A    between atoms: N_8  and  C_46
    5  A    between atoms: C_9  and  S_21
    6  A    between atoms: C_11  and  C_42
    7  A    between atoms: C_13  and  N_17
    8  A    between atoms: N_17  and  C_46
    9  A    between atoms: C_18  and  O_56
   10  A    between atoms: S_21  and  O_56
   11  A    between atoms: C_29  and  N_39
   12  A    between atoms: C_31  and  C_40
                            x       y       z     vdW  Elec       q    Type
                         _______ _______ _______ _____ _____    ______ ____

>  <TORSDO>
F 12

$$$$
