=
 OpenBabel11042418283D

 30 34  0  0  1  0  0  0  0  0999 V2000
  190.0630  175.7890  145.6140 C   0  0  0  0  0  0  0  0  0  0  0  0
  190.4860  172.4850  143.2800 C   0  0  0  0  0  0  0  0  0  0  0  0
  190.0780  172.9460  141.1000 C   0  0  0  0  0  0  0  0  0  0  0  0
  187.9380  176.5560  141.4740 C   0  0  0  0  0  2  0  0  0  0  0  0
  190.8760  170.6460  141.5050 N   0  0  0  0  0  0  0  0  0  0  0  0
  188.1920  174.5470  140.0320 C   0  0  0  0  0  3  0  0  0  0  0  0
  189.9680  174.4960  146.4040 C   0  0  0  0  0  2  0  0  0  0  0  0
  190.9270  171.1090  142.8410 C   0  0  0  0  0  3  0  0  0  0  0  0
  190.0680  177.7800  143.6210 C   0  0  0  0  0  0  0  0  0  0  0  0
  190.4550  171.6420  140.7180 C   0  0  0  0  0  0  0  0  0  0  0  0
  188.5270  173.0780  139.5920 C   0  0  0  0  0  2  0  0  0  0  0  0
  186.6410  176.6440  142.0090 O   0  0  0  0  0  0  0  0  0  0  0  0
  188.9220  176.4640  145.2490 N   0  0  0  0  0  0  0  0  0  0  0  0
  190.0800  178.6800  142.6070 F   0  0  0  0  0  0  0  0  0  0  0  0
  190.7160  173.0160  144.6410 C   0  0  0  0  0  2  0  0  0  0  0  0
  188.3490  175.1240  141.2770 C   0  0  0  0  0  0  0  0  0  0  0  0
  186.7320  176.7840  143.4220 C   0  0  1  0  0  3  0  0  0  0  0  0
  187.5600  177.9930  143.9150 C   0  0  0  0  0  2  0  0  0  0  0  0
  189.9940  173.4290  142.3050 C   0  0  0  0  0  0  0  0  0  0  0  0
  191.2820  176.1570  145.0250 C   0  0  0  0  0  0  0  0  0  0  0  0
  190.0280  172.6080  139.7400 C   0  0  1  0  0  3  0  0  0  0  0  0
  191.2540  177.1190  143.9830 C   0  0  0  0  0  3  0  0  0  0  0  0
  189.6920  173.4220  145.3890 C   0  0  0  0  0  2  0  0  0  0  0  0
  188.8930  177.4590  144.3190 C   0  0  0  0  0  0  0  0  0  0  0  0
  188.9170  174.4450  142.5490 C   0  0  0  0  0  2  0  0  0  0  0  0
  192.5330  175.5880  145.4920 N   0  0  0  0  0  0  0  0  0  0  0  0
  193.2660  176.2100  146.3610 C   0  0  0  0  0  2  0  0  0  0  0  0
  185.3300  176.8690  144.0290 C   0  0  0  0  0  2  0  0  0  0  0  0
  185.1930  176.7890  146.2850 O   0  0  0  0  0  1  0  0  0  0  0  0
  185.3430  177.6580  145.2600 N   0  0  0  0  0  2  0  0  0  0  0  0
  1  7  1  0  0  0  0
  2 15  1  0  0  0  0
  3 19  1  0  0  0  0
  4 12  1  0  0  0  0
  5  8  2  0  0  0  0
  6 16  2  0  0  0  0
  8  2  1  0  0  0  0
  9 22  2  0  0  0  0
  9 24  1  0  0  0  0
 10  3  2  0  0  0  0
 10  5  1  0  0  0  0
 11  6  1  0  0  0  0
 12 17  1  0  0  0  0
 13  1  1  0  0  0  0
 14  9  1  0  0  0  0
 15 23  1  0  0  0  0
 16  4  1  0  0  0  0
 16 25  1  0  0  0  0
 17 18  1  0  0  0  0
 17 28  1  6  0  0  0
 18 24  1  0  0  0  0
 19 25  1  0  0  0  0
 19  2  2  0  0  0  0
 20 26  1  0  0  0  0
 20  1  2  0  0  0  0
 21 11  1  1  0  0  0
 21 10  1  0  0  0  0
 21  3  1  0  0  0  0
 22 20  1  0  0  0  0
 23  7  1  0  0  0  0
 24 13  2  0  0  0  0
 26 27  2  0  0  0  0
 28 30  1  0  0  0  0
 30 29  1  0  0  0  0
M  END
>  <MODEL>
1

>  <REMARK>
 VINA RESULT:      -7.1      0.000      0.000
  Name = 
  3 active torsions:
  status: ('A' for Active; 'I' for Inactive)
    1  A    between atoms: N_14  and  C_27
    2  A    between atoms: C_19  and  C_27
    3  A    between atoms: N_20  and  C_23
                            x       y       z     vdW  Elec       q    Type
                         _______ _______ _______ _____ _____    ______ ____

>  <TORSDO>
F 3

$$$$
=
 OpenBabel11042418283D

 30 34  0  0  1  0  0  0  0  0999 V2000
  189.1790  177.3950  144.9110 C   0  0  0  0  0  0  0  0  0  0  0  0
  188.9340  174.7020  141.8720 C   0  0  0  0  0  0  0  0  0  0  0  0
  189.8450  172.7100  142.4460 C   0  0  0  0  0  0  0  0  0  0  0  0
  192.2100  173.8770  145.7330 C   0  0  0  0  0  2  0  0  0  0  0  0
  188.7500  172.7090  140.2360 N   0  0  0  0  0  0  0  0  0  0  0  0
  192.0690  172.2180  143.8860 C   0  0  0  0  0  3  0  0  0  0  0  0
  188.9710  178.0530  143.5590 C   0  0  0  0  0  2  0  0  0  0  0  0
  188.4610  174.0460  140.5970 C   0  0  0  0  0  3  0  0  0  0  0  0
  189.8050  175.6540  147.0360 C   0  0  0  0  0  0  0  0  0  0  0  0
  189.4300  172.1300  141.2310 C   0  0  0  0  0  0  0  0  0  0  0  0
  191.6900  171.5740  142.5070 C   0  0  0  0  0  2  0  0  0  0  0  0
  193.3650  174.6720  145.6220 O   0  0  0  0  0  0  0  0  0  0  0  0
  190.4350  177.3410  145.4690 N   0  0  0  0  0  0  0  0  0  0  0  0
  190.1020  174.7550  148.0060 F   0  0  0  0  0  0  0  0  0  0  0  0
  188.4720  176.0340  142.3200 C   0  0  0  0  0  2  0  0  0  0  0  0
  191.7090  173.4570  144.3810 C   0  0  0  0  0  0  0  0  0  0  0  0
  192.9860  176.0430  145.6630 C   0  0  1  0  0  3  0  0  0  0  0  0
  192.1990  176.4750  146.9210 C   0  0  0  0  0  2  0  0  0  0  0  0
  189.7180  173.9490  142.8220 C   0  0  0  0  0  0  0  0  0  0  0  0
  188.1590  176.6090  145.4670 C   0  0  0  0  0  0  0  0  0  0  0  0
  190.1520  171.3620  142.2110 C   0  0  1  0  0  3  0  0  0  0  0  0
  188.5080  175.6970  146.4970 C   0  0  0  0  0  3  0  0  0  0  0  0
  189.3480  177.0130  142.5400 C   0  0  0  0  0  2  0  0  0  0  0  0
  190.7630  176.5420  146.5220 C   0  0  0  0  0  0  0  0  0  0  0  0
  190.8150  174.5100  143.6780 C   0  0  0  0  0  2  0  0  0  0  0  0
  186.7860  176.7500  145.0190 N   0  0  0  0  0  0  0  0  0  0  0  0
  185.8080  176.7930  145.8670 C   0  0  0  0  0  2  0  0  0  0  0  0
  194.2270  176.9300  145.5320 C   0  0  0  0  0  2  0  0  0  0  0  0
  195.8500  176.7280  143.9690 O   0  0  0  0  0  1  0  0  0  0  0  0
  195.3830  176.1460  145.0970 N   0  0  0  0  0  2  0  0  0  0  0  0
  1 20  2  0  0  0  0
  1 13  1  0  0  0  0
  2 15  1  0  0  0  0
  2 19  1  0  0  0  0
  3 19  2  0  0  0  0
  5  8  1  0  0  0  0
  5 10  2  0  0  0  0
  6 16  2  0  0  0  0
  7  1  1  0  0  0  0
  8  2  2  0  0  0  0
  9 14  1  0  0  0  0
 10 21  1  0  0  0  0
 10  3  1  0  0  0  0
 11  6  1  0  0  0  0
 12 17  1  0  0  0  0
 12  4  1  0  0  0  0
 13 24  2  0  0  0  0
 15 23  1  0  0  0  0
 16  4  1  0  0  0  0
 17 28  1  1  0  0  0
 17 18  1  0  0  0  0
 19 25  1  0  0  0  0
 20 22  1  0  0  0  0
 21  3  1  0  0  0  0
 21 11  1  6  0  0  0
 22  9  2  0  0  0  0
 23  7  1  0  0  0  0
 24 18  1  0  0  0  0
 24  9  1  0  0  0  0
 25 16  1  0  0  0  0
 26 20  1  0  0  0  0
 26 27  2  0  0  0  0
 29 30  1  0  0  0  0
 30 28  1  0  0  0  0
M  END
>  <MODEL>
2

>  <REMARK>
 VINA RESULT:      -7.1      2.942      5.412
  Name = 
  3 active torsions:
  status: ('A' for Active; 'I' for Inactive)
    1  A    between atoms: N_14  and  C_27
    2  A    between atoms: C_19  and  C_27
    3  A    between atoms: N_20  and  C_23
                            x       y       z     vdW  Elec       q    Type
                         _______ _______ _______ _____ _____    ______ ____

>  <TORSDO>
F 3

$$$$
=
 OpenBabel11042418283D

 30 34  0  0  1  0  0  0  0  0999 V2000
  190.8610  177.5810  145.0560 C   0  0  0  0  0  0  0  0  0  0  0  0
  189.2200  174.9440  142.4300 C   0  0  0  0  0  0  0  0  0  0  0  0
  189.7730  172.8070  142.9380 C   0  0  0  0  0  0  0  0  0  0  0  0
  193.1200  173.4570  145.4140 C   0  0  0  0  0  2  0  0  0  0  0  0
  188.1640  173.0090  141.0790 N   0  0  0  0  0  0  0  0  0  0  0  0
  192.1250  171.8310  143.8180 C   0  0  0  0  0  3  0  0  0  0  0  0
  190.4590  178.2320  143.7450 C   0  0  0  0  0  2  0  0  0  0  0  0
  188.2920  174.3870  141.3780 C   0  0  0  0  0  3  0  0  0  0  0  0
  191.6110  175.8020  147.1070 C   0  0  0  0  0  0  0  0  0  0  0  0
  188.9310  172.3110  141.9220 C   0  0  0  0  0  0  0  0  0  0  0  0
  191.2600  171.2590  142.6410 C   0  0  0  0  0  2  0  0  0  0  0  0
  194.3540  173.9450  144.9480 O   0  0  0  0  0  0  0  0  0  0  0  0
  192.1730  177.2400  145.2870 N   0  0  0  0  0  0  0  0  0  0  0  0
  191.9410  174.8850  148.0510 F   0  0  0  0  0  0  0  0  0  0  0  0
  189.2070  176.3600  142.8560 C   0  0  0  0  0  2  0  0  0  0  0  0
  192.1980  173.1330  144.2730 C   0  0  0  0  0  0  0  0  0  0  0  0
  194.3210  175.3670  144.9570 C   0  0  1  0  0  3  0  0  0  0  0  0
  194.0120  176.0130  146.3270 C   0  0  0  0  0  2  0  0  0  0  0  0
  190.0330  174.0500  143.2200 C   0  0  0  0  0  0  0  0  0  0  0  0
  189.8720  177.0830  145.9170 C   0  0  0  0  0  0  0  0  0  0  0  0
  189.6920  171.4190  142.7570 C   0  0  1  0  0  3  0  0  0  0  0  0
  190.2630  176.1440  146.9060 C   0  0  0  0  0  3  0  0  0  0  0  0
  190.3090  177.1030  142.7630 C   0  0  0  0  0  2  0  0  0  0  0  0
  192.5760  176.4150  146.2930 C   0  0  0  0  0  0  0  0  0  0  0  0
  191.4150  174.3520  143.7220 C   0  0  0  0  0  2  0  0  0  0  0  0
  188.4990  177.5410  145.8140 N   0  0  0  0  0  0  0  0  0  0  0  0
  187.5150  176.7940  146.2060 C   0  0  0  0  0  2  0  0  0  0  0  0
  195.6520  175.9210  144.4420 C   0  0  0  0  0  2  0  0  0  0  0  0
  194.2400  176.3110  142.7180 O   0  0  0  0  0  1  0  0  0  0  0  0
  195.5570  176.2660  143.0240 N   0  0  0  0  0  2  0  0  0  0  0  0
  1 13  2  0  0  0  0
  1 20  1  0  0  0  0
  2 15  1  0  0  0  0
  2 19  1  0  0  0  0
  3 19  2  0  0  0  0
  5  8  1  0  0  0  0
  5 10  2  0  0  0  0
  6 16  2  0  0  0  0
  7  1  1  0  0  0  0
  8  2  2  0  0  0  0
  9 14  1  0  0  0  0
 10 21  1  0  0  0  0
 10  3  1  0  0  0  0
 11  6  1  0  0  0  0
 12 17  1  0  0  0  0
 12  4  1  0  0  0  0
 13 24  1  0  0  0  0
 16  4  1  0  0  0  0
 17 28  1  1  0  0  0
 17 18  1  0  0  0  0
 19 25  1  0  0  0  0
 20 22  2  0  0  0  0
 21 11  1  6  0  0  0
 21  3  1  0  0  0  0
 22  9  1  0  0  0  0
 23 15  1  0  0  0  0
 23  7  1  0  0  0  0
 24 18  1  0  0  0  0
 24  9  2  0  0  0  0
 25 16  1  0  0  0  0
 26 20  1  0  0  0  0
 26 27  2  0  0  0  0
 29 30  1  0  0  0  0
 30 28  1  0  0  0  0
M  END
>  <MODEL>
3

>  <REMARK>
 VINA RESULT:      -7.0      3.143      5.580
  Name = 
  3 active torsions:
  status: ('A' for Active; 'I' for Inactive)
    1  A    between atoms: N_14  and  C_27
    2  A    between atoms: C_19  and  C_27
    3  A    between atoms: N_20  and  C_23
                            x       y       z     vdW  Elec       q    Type
                         _______ _______ _______ _____ _____    ______ ____

>  <TORSDO>
F 3

$$$$
=
 OpenBabel11042418283D

 30 34  0  0  1  0  0  0  0  0999 V2000
  191.8730  174.9800  144.0120 C   0  0  0  0  0  0  0  0  0  0  0  0
  192.7990  171.0280  144.2660 C   0  0  0  0  0  0  0  0  0  0  0  0
  194.5810  170.6740  145.6180 C   0  0  0  0  0  0  0  0  0  0  0  0
  196.2570  174.5390  145.6930 C   0  0  0  0  0  2  0  0  0  0  0  0
  193.5130  168.6030  144.8080 N   0  0  0  0  0  0  0  0  0  0  0  0
  196.8370  172.1270  145.8600 C   0  0  0  0  0  3  0  0  0  0  0  0
  191.3070  174.1700  142.8600 C   0  0  0  0  0  2  0  0  0  0  0  0
  192.6360  169.5280  144.1940 C   0  0  0  0  0  3  0  0  0  0  0  0
  193.3620  175.9560  146.1960 C   0  0  0  0  0  0  0  0  0  0  0  0
  194.4350  169.2760  145.5030 C   0  0  0  0  0  0  0  0  0  0  0  0
  196.7460  170.5710  145.6810 C   0  0  0  0  0  2  0  0  0  0  0  0
  196.8810  175.1420  144.5870 O   0  0  0  0  0  0  0  0  0  0  0  0
  193.0260  175.7100  143.8450 N   0  0  0  0  0  0  0  0  0  0  0  0
  194.1020  176.3500  147.2610 F   0  0  0  0  0  0  0  0  0  0  0  0
  191.7780  171.9800  143.7790 C   0  0  0  0  0  2  0  0  0  0  0  0
  195.9520  173.0930  145.4230 C   0  0  0  0  0  0  0  0  0  0  0  0
  195.8940  175.8020  143.8030 C   0  0  1  0  0  3  0  0  0  0  0  0
  195.0600  176.8680  144.5500 C   0  0  0  0  0  2  0  0  0  0  0  0
  193.8940  171.5980  145.0140 C   0  0  0  0  0  0  0  0  0  0  0  0
  191.3840  174.7780  145.3110 C   0  0  0  0  0  0  0  0  0  0  0  0
  195.4850  169.8490  146.3030 C   0  0  1  0  0  3  0  0  0  0  0  0
  192.1780  175.2260  146.3980 C   0  0  0  0  0  3  0  0  0  0  0  0
  192.0860  172.8830  142.8500 C   0  0  0  0  0  2  0  0  0  0  0  0
  193.7500  176.2310  144.8750 C   0  0  0  0  0  0  0  0  0  0  0  0
  194.6280  172.8560  144.6520 C   0  0  0  0  0  2  0  0  0  0  0  0
  190.0910  174.1560  145.5290 N   0  0  0  0  0  0  0  0  0  0  0  0
  189.3200  174.5400  146.4970 C   0  0  0  0  0  2  0  0  0  0  0  0
  196.5490  176.4570  142.5850 C   0  0  0  0  0  2  0  0  0  0  0  0
  195.3110  174.9130  141.4900 O   0  0  0  0  0  1  0  0  0  0  0  0
  195.7870  176.1740  141.3690 N   0  0  0  0  0  2  0  0  0  0  0  0
  1 20  1  0  0  0  0
  2 19  1  0  0  0  0
  3 21  1  0  0  0  0
  5 10  2  0  0  0  0
  7  1  1  0  0  0  0
  8  2  2  0  0  0  0
  8  5  1  0  0  0  0
  9 22  1  0  0  0  0
  9 14  1  0  0  0  0
 10  3  1  0  0  0  0
 10 21  1  0  0  0  0
 11  6  1  0  0  0  0
 12  4  1  0  0  0  0
 13  1  2  0  0  0  0
 13 24  1  0  0  0  0
 15  2  1  0  0  0  0
 16  4  1  0  0  0  0
 16  6  2  0  0  0  0
 17 28  1  6  0  0  0
 17 18  1  0  0  0  0
 17 12  1  0  0  0  0
 18 24  1  0  0  0  0
 19  3  2  0  0  0  0
 20 26  1  0  0  0  0
 20 22  2  0  0  0  0
 21 11  1  6  0  0  0
 23  7  1  0  0  0  0
 23 15  1  0  0  0  0
 24  9  2  0  0  0  0
 25 19  1  0  0  0  0
 25 16  1  0  0  0  0
 26 27  2  0  0  0  0
 30 29  1  0  0  0  0
 30 28  1  0  0  0  0
M  END
>  <MODEL>
4

>  <REMARK>
 VINA RESULT:      -6.9      4.393      7.056
  Name = 
  3 active torsions:
  status: ('A' for Active; 'I' for Inactive)
    1  A    between atoms: N_14  and  C_27
    2  A    between atoms: C_19  and  C_27
    3  A    between atoms: N_20  and  C_23
                            x       y       z     vdW  Elec       q    Type
                         _______ _______ _______ _____ _____    ______ ____

>  <TORSDO>
F 3

$$$$
=
 OpenBabel11042418283D

 30 34  0  0  1  0  0  0  0  0999 V2000
  192.6280  175.5880  145.2530 C   0  0  0  0  0  0  0  0  0  0  0  0
  191.8050  172.4950  142.7430 C   0  0  0  0  0  0  0  0  0  0  0  0
  190.1480  173.0170  141.2910 C   0  0  0  0  0  0  0  0  0  0  0  0
  188.4080  176.3030  143.2740 C   0  0  0  0  0  2  0  0  0  0  0  0
  191.1870  170.8180  140.8750 N   0  0  0  0  0  0  0  0  0  0  0  0
  187.8910  174.4230  141.7310 C   0  0  0  0  0  3  0  0  0  0  0  0
  193.1130  174.2530  145.7890 C   0  0  0  0  0  2  0  0  0  0  0  0
  191.9910  171.2110  141.9710 C   0  0  0  0  0  3  0  0  0  0  0  0
  191.3060  177.6680  143.8900 C   0  0  0  0  0  0  0  0  0  0  0  0
  190.3120  171.7940  140.6090 C   0  0  0  0  0  0  0  0  0  0  0  0
  187.9990  173.0340  141.0090 C   0  0  0  0  0  2  0  0  0  0  0  0
  187.6820  176.1970  144.4740 O   0  0  0  0  0  0  0  0  0  0  0  0
  191.4500  176.1310  145.7100 N   0  0  0  0  0  0  0  0  0  0  0  0
  190.6490  178.6160  143.1770 F   0  0  0  0  0  0  0  0  0  0  0  0
  192.7630  172.9760  143.7620 C   0  0  0  0  0  2  0  0  0  0  0  0
  188.7180  174.9470  142.7060 C   0  0  0  0  0  0  0  0  0  0  0  0
  188.5880  176.2710  145.5690 C   0  0  1  0  0  3  0  0  0  0  0  0
  189.4600  177.5460  145.6210 C   0  0  0  0  0  2  0  0  0  0  0  0
  190.7650  173.4200  142.3630 C   0  0  0  0  0  0  0  0  0  0  0  0
  193.2260  176.1380  144.1110 C   0  0  0  0  0  0  0  0  0  0  0  0
  189.3200  172.7500  140.1910 C   0  0  1  0  0  3  0  0  0  0  0  0
  192.5160  177.1440  143.4060 C   0  0  0  0  0  3  0  0  0  0  0  0
  192.3610  173.2080  145.0110 C   0  0  0  0  0  2  0  0  0  0  0  0
  190.8040  177.1640  145.1000 C   0  0  0  0  0  0  0  0  0  0  0  0
  189.9780  174.2770  143.3110 C   0  0  0  0  0  2  0  0  0  0  0  0
  194.5450  175.7070  143.6830 N   0  0  0  0  0  0  0  0  0  0  0  0
  195.5970  176.4150  143.9500 C   0  0  0  0  0  2  0  0  0  0  0  0
  187.8210  176.1460  146.8880 C   0  0  0  0  0  2  0  0  0  0  0  0
  186.5650  177.9010  147.5620 O   0  0  0  0  0  1  0  0  0  0  0  0
  186.5130  176.7900  146.7920 N   0  0  0  0  0  2  0  0  0  0  0  0
  1 13  1  0  0  0  0
  1  7  1  0  0  0  0
  2 15  1  0  0  0  0
  3 19  2  0  0  0  0
  4 12  1  0  0  0  0
  5  8  1  0  0  0  0
  6 16  2  0  0  0  0
  8  2  2  0  0  0  0
  9 24  1  0  0  0  0
 10  5  2  0  0  0  0
 10  3  1  0  0  0  0
 11  6  1  0  0  0  0
 12 17  1  0  0  0  0
 14  9  1  0  0  0  0
 15 23  1  0  0  0  0
 16  4  1  0  0  0  0
 16 25  1  0  0  0  0
 17 18  1  0  0  0  0
 17 28  1  1  0  0  0
 19  2  1  0  0  0  0
 19 25  1  0  0  0  0
 20  1  2  0  0  0  0
 21 10  1  0  0  0  0
 21 11  1  1  0  0  0
 21  3  1  0  0  0  0
 22  9  2  0  0  0  0
 22 20  1  0  0  0  0
 23  7  1  0  0  0  0
 24 18  1  0  0  0  0
 24 13  2  0  0  0  0
 26 27  2  0  0  0  0
 26 20  1  0  0  0  0
 30 28  1  0  0  0  0
 30 29  1  0  0  0  0
M  END
>  <MODEL>
5

>  <REMARK>
 VINA RESULT:      -6.7      1.678      2.106
  Name = 
  3 active torsions:
  status: ('A' for Active; 'I' for Inactive)
    1  A    between atoms: N_14  and  C_27
    2  A    between atoms: C_19  and  C_27
    3  A    between atoms: N_20  and  C_23
                            x       y       z     vdW  Elec       q    Type
                         _______ _______ _______ _____ _____    ______ ____

>  <TORSDO>
F 3

$$$$
=
 OpenBabel11042418283D

 30 34  0  0  1  0  0  0  0  0999 V2000
  187.3860  178.1370  143.7310 C   0  0  0  0  0  0  0  0  0  0  0  0
  188.7820  174.9750  141.5860 C   0  0  0  0  0  0  0  0  0  0  0  0
  188.9510  173.1120  142.8620 C   0  0  0  0  0  0  0  0  0  0  0  0
  188.9200  174.8220  146.7130 C   0  0  0  0  0  2  0  0  0  0  0  0
  189.4380  172.7360  140.4730 N   0  0  0  0  0  0  0  0  0  0  0  0
  189.7720  172.8780  145.4170 C   0  0  0  0  0  3  0  0  0  0  0  0
  188.1120  178.5600  142.4660 C   0  0  0  0  0  2  0  0  0  0  0  0
  189.1220  174.1140  140.3940 C   0  0  0  0  0  3  0  0  0  0  0  0
  186.4100  176.7780  145.9970 C   0  0  0  0  0  0  0  0  0  0  0  0
  189.3080  172.3340  141.7410 C   0  0  0  0  0  0  0  0  0  0  0  0
  190.2520  172.0100  144.2010 C   0  0  0  0  0  2  0  0  0  0  0  0
  189.9740  175.5940  147.2330 O   0  0  0  0  0  0  0  0  0  0  0  0
  188.0280  178.1840  144.9460 N   0  0  0  0  0  0  0  0  0  0  0  0
  185.9630  176.0550  147.0530 F   0  0  0  0  0  0  0  0  0  0  0  0
  188.2770  176.3600  141.4690 C   0  0  0  0  0  2  0  0  0  0  0  0
  189.3090  174.1800  145.4110 C   0  0  0  0  0  0  0  0  0  0  0  0
  189.7870  176.9500  146.8470 C   0  0  1  0  0  3  0  0  0  0  0  0
  188.4440  177.5810  147.2780 C   0  0  0  0  0  2  0  0  0  0  0  0
  188.7440  174.3950  142.9070 C   0  0  0  0  0  0  0  0  0  0  0  0
  186.1680  177.4500  143.6370 C   0  0  0  0  0  0  0  0  0  0  0  0
  189.2020  171.7450  143.0500 C   0  0  1  0  0  3  0  0  0  0  0  0
  185.7240  176.7240  144.7720 C   0  0  0  0  0  3  0  0  0  0  0  0
  188.9270  177.3680  142.0500 C   0  0  0  0  0  2  0  0  0  0  0  0
  187.5650  177.5730  146.0720 C   0  0  0  0  0  0  0  0  0  0  0  0
  189.1390  175.0970  144.1730 C   0  0  0  0  0  2  0  0  0  0  0  0
  185.3750  177.5070  142.4220 N   0  0  0  0  0  0  0  0  0  0  0  0
  184.1800  178.0060  142.4280 C   0  0  0  0  0  2  0  0  0  0  0  0
  190.9310  177.8090  147.3930 C   0  0  0  0  0  2  0  0  0  0  0  0
  191.6610  177.9300  149.5310 O   0  0  0  0  0  1  0  0  0  0  0  0
  190.6240  178.2880  148.7400 N   0  0  0  0  0  2  0  0  0  0  0  0
  1 13  1  0  0  0  0
  2 19  1  0  0  0  0
  3 19  2  0  0  0  0
  3 21  1  0  0  0  0
  4 12  1  0  0  0  0
  5 10  2  0  0  0  0
  7  1  1  0  0  0  0
  8  5  1  0  0  0  0
  8  2  2  0  0  0  0
  9 24  1  0  0  0  0
  9 14  1  0  0  0  0
 10  3  1  0  0  0  0
 10 21  1  0  0  0  0
 11  6  1  0  0  0  0
 13 24  2  0  0  0  0
 15  2  1  0  0  0  0
 15 23  1  0  0  0  0
 16  6  2  0  0  0  0
 16  4  1  0  0  0  0
 17 12  1  0  0  0  0
 17 18  1  0  0  0  0
 17 28  1  1  0  0  0
 19 25  1  0  0  0  0
 20  1  2  0  0  0  0
 20 22  1  0  0  0  0
 21 11  1  1  0  0  0
 22  9  2  0  0  0  0
 23  7  1  0  0  0  0
 24 18  1  0  0  0  0
 25 16  1  0  0  0  0
 26 27  2  0  0  0  0
 26 20  1  0  0  0  0
 28 30  1  0  0  0  0
 30 29  1  0  0  0  0
M  END
>  <MODEL>
6

>  <REMARK>
 VINA RESULT:      -6.5      2.675      5.129
  Name = 
  3 active torsions:
  status: ('A' for Active; 'I' for Inactive)
    1  A    between atoms: N_14  and  C_27
    2  A    between atoms: C_19  and  C_27
    3  A    between atoms: N_20  and  C_23
                            x       y       z     vdW  Elec       q    Type
                         _______ _______ _______ _____ _____    ______ ____

>  <TORSDO>
F 3

$$$$
=
 OpenBabel11042418283D

 30 34  0  0  1  0  0  0  0  0999 V2000
  193.9730  176.2380  144.5900 C   0  0  0  0  0  0  0  0  0  0  0  0
  196.0100  172.7770  145.2340 C   0  0  0  0  0  0  0  0  0  0  0  0
  194.9550  171.0030  144.3030 C   0  0  0  0  0  0  0  0  0  0  0  0
  191.0840  172.5930  143.8100 C   0  0  0  0  0  2  0  0  0  0  0  0
  197.1540  170.4590  145.2810 N   0  0  0  0  0  0  0  0  0  0  0  0
  192.3160  170.4680  144.1940 C   0  0  0  0  0  3  0  0  0  0  0  0
  194.9420  176.3360  145.7550 C   0  0  0  0  0  2  0  0  0  0  0  0
  197.1570  171.8480  145.5510 C   0  0  0  0  0  3  0  0  0  0  0  0
  192.2190  175.3840  142.5580 C   0  0  0  0  0  0  0  0  0  0  0  0
  196.0200  170.1450  144.6460 C   0  0  0  0  0  0  0  0  0  0  0  0
  193.4510  169.4790  144.6380 C   0  0  0  0  0  2  0  0  0  0  0  0
  190.2170  172.8850  144.8780 O   0  0  0  0  0  0  0  0  0  0  0  0
  192.6330  176.0290  144.8180 N   0  0  0  0  0  0  0  0  0  0  0  0
  191.4090  174.9000  141.5840 F   0  0  0  0  0  0  0  0  0  0  0  0
  196.1000  174.2480  145.3510 C   0  0  0  0  0  2  0  0  0  0  0  0
  192.2990  171.8460  144.2850 C   0  0  0  0  0  0  0  0  0  0  0  0
  190.4830  174.2030  145.3420 C   0  0  1  0  0  3  0  0  0  0  0  0
  190.3590  175.3170  144.2780 C   0  0  0  0  0  2  0  0  0  0  0  0
  194.8220  172.2630  144.5960 C   0  0  0  0  0  0  0  0  0  0  0  0
  194.4660  176.0910  143.2860 C   0  0  0  0  0  0  0  0  0  0  0  0
  194.8620  169.6490  143.9490 C   0  0  1  0  0  3  0  0  0  0  0  0
  193.5800  175.6040  142.2900 C   0  0  0  0  0  3  0  0  0  0  0  0
  195.2570  174.9160  146.1380 C   0  0  0  0  0  2  0  0  0  0  0  0
  191.7490  175.6550  143.8530 C   0  0  0  0  0  0  0  0  0  0  0  0
  193.4250  172.7530  144.8430 C   0  0  0  0  0  2  0  0  0  0  0  0
  195.8340  176.4550  142.9640 N   0  0  0  0  0  0  0  0  0  0  0  0
  196.1790  176.7470  141.7490 C   0  0  0  0  0  2  0  0  0  0  0  0
  189.5580  174.5390  146.5150 C   0  0  0  0  0  2  0  0  0  0  0  0
  191.0760  175.2910  148.0130 O   0  0  0  0  0  1  0  0  0  0  0  0
  190.0460  175.7090  147.2430 N   0  0  0  0  0  2  0  0  0  0  0  0
  1 13  1  0  0  0  0
  1  7  1  0  0  0  0
  2 15  1  0  0  0  0
  2  8  1  0  0  0  0
  3 19  1  0  0  0  0
  3 10  2  0  0  0  0
  4 16  1  0  0  0  0
  4 12  1  0  0  0  0
  5  8  2  0  0  0  0
  6 16  2  0  0  0  0
  6 11  1  0  0  0  0
  7 23  1  0  0  0  0
  9 24  1  0  0  0  0
 10  5  1  0  0  0  0
 12 17  1  0  0  0  0
 14  9  1  0  0  0  0
 15 23  1  0  0  0  0
 16 25  1  0  0  0  0
 17 28  1  1  0  0  0
 18 17  1  0  0  0  0
 19 25  1  0  0  0  0
 19  2  2  0  0  0  0
 20  1  2  0  0  0  0
 21  3  1  0  0  0  0
 21 11  1  1  0  0  0
 21 10  1  0  0  0  0
 22  9  2  0  0  0  0
 22 20  1  0  0  0  0
 24 18  1  0  0  0  0
 24 13  2  0  0  0  0
 26 20  1  0  0  0  0
 27 26  2  0  0  0  0
 28 30  1  0  0  0  0
 30 29  1  0  0  0  0
M  END
>  <MODEL>
7

>  <REMARK>
 VINA RESULT:      -6.4      3.745      5.536
  Name = 
  3 active torsions:
  status: ('A' for Active; 'I' for Inactive)
    1  A    between atoms: N_14  and  C_27
    2  A    between atoms: C_19  and  C_27
    3  A    between atoms: N_20  and  C_23
                            x       y       z     vdW  Elec       q    Type
                         _______ _______ _______ _____ _____    ______ ____

>  <TORSDO>
F 3

$$$$
=
 OpenBabel11042418283D

 30 34  0  0  1  0  0  0  0  0999 V2000
  192.0030  173.8150  141.3710 C   0  0  0  0  0  0  0  0  0  0  0  0
  193.5270  175.9050  144.5110 C   0  0  0  0  0  0  0  0  0  0  0  0
  192.0800  175.9680  146.2520 C   0  0  0  0  0  0  0  0  0  0  0  0
  188.4850  174.9770  144.2890 C   0  0  0  0  0  2  0  0  0  0  0  0
  194.2780  176.9780  146.7400 N   0  0  0  0  0  0  0  0  0  0  0  0
  189.4010  176.2520  146.2180 C   0  0  0  0  0  3  0  0  0  0  0  0
  193.1280  174.7500  140.9630 C   0  0  0  0  0  2  0  0  0  0  0  0
  194.5420  176.5640  145.4130 C   0  0  0  0  0  3  0  0  0  0  0  0
  189.8670  172.5100  142.6640 C   0  0  0  0  0  0  0  0  0  0  0  0
  193.0300  176.6200  147.0640 C   0  0  0  0  0  0  0  0  0  0  0  0
  190.4120  177.0510  147.1130 C   0  0  0  0  0  2  0  0  0  0  0  0
  187.8340  175.8250  143.3760 O   0  0  0  0  0  0  0  0  0  0  0  0
  190.6920  174.1800  141.1720 N   0  0  0  0  0  0  0  0  0  0  0  0
  188.8630  171.9170  143.3550 F   0  0  0  0  0  0  0  0  0  0  0  0
  193.8680  175.3150  143.1980 C   0  0  0  0  0  2  0  0  0  0  0  0
  189.6180  175.6870  144.9760 C   0  0  0  0  0  0  0  0  0  0  0  0
  188.3710  175.6040  142.0770 C   0  0  1  0  0  3  0  0  0  0  0  0
  188.2800  174.1490  141.5630 C   0  0  0  0  0  2  0  0  0  0  0  0
  192.1940  175.6420  144.9980 C   0  0  0  0  0  0  0  0  0  0  0  0
  192.2790  172.7100  142.1890 C   0  0  0  0  0  0  0  0  0  0  0  0
  191.7220  176.2950  147.5680 C   0  0  1  0  0  3  0  0  0  0  0  0
  191.1960  172.1030  142.8760 C   0  0  0  0  0  3  0  0  0  0  0  0
  193.2610  175.7370  142.0900 C   0  0  0  0  0  2  0  0  0  0  0  0
  189.6330  173.5470  141.7480 C   0  0  0  0  0  0  0  0  0  0  0  0
  190.9420  175.6990  144.1710 C   0  0  0  0  0  2  0  0  0  0  0  0
  193.6290  172.1880  142.3010 N   0  0  0  0  0  0  0  0  0  0  0  0
  194.0190  171.5710  143.3710 C   0  0  0  0  0  2  0  0  0  0  0  0
  187.6850  176.5260  141.0660 C   0  0  0  0  0  2  0  0  0  0  0  0
  188.8620  178.3720  141.6350 O   0  0  0  0  0  1  0  0  0  0  0  0
  187.5990  177.8910  141.5830 N   0  0  0  0  0  2  0  0  0  0  0  0
  1 20  1  0  0  0  0
  2 19  2  0  0  0  0
  2  8  1  0  0  0  0
  3 10  2  0  0  0  0
  3 21  1  0  0  0  0
  4 16  1  0  0  0  0
  5 10  1  0  0  0  0
  6 11  1  0  0  0  0
  7  1  1  0  0  0  0
  7 23  1  0  0  0  0
  8  5  2  0  0  0  0
  9 22  1  0  0  0  0
  9 14  1  0  0  0  0
 10 21  1  0  0  0  0
 12  4  1  0  0  0  0
 13  1  2  0  0  0  0
 13 24  1  0  0  0  0
 15  2  1  0  0  0  0
 16  6  2  0  0  0  0
 17 28  1  6  0  0  0
 17 12  1  0  0  0  0
 18 24  1  0  0  0  0
 18 17  1  0  0  0  0
 19  3  1  0  0  0  0
 20 26  1  0  0  0  0
 20 22  2  0  0  0  0
 21 11  1  6  0  0  0
 23 15  1  0  0  0  0
 24  9  2  0  0  0  0
 25 16  1  0  0  0  0
 25 19  1  0  0  0  0
 26 27  2  0  0  0  0
 28 30  1  0  0  0  0
 30 29  1  0  0  0  0
M  END
>  <MODEL>
8

>  <REMARK>
 VINA RESULT:      -6.4      2.585      5.623
  Name = 
  3 active torsions:
  status: ('A' for Active; 'I' for Inactive)
    1  A    between atoms: N_14  and  C_27
    2  A    between atoms: C_19  and  C_27
    3  A    between atoms: N_20  and  C_23
                            x       y       z     vdW  Elec       q    Type
                         _______ _______ _______ _____ _____    ______ ____

>  <TORSDO>
F 3

$$$$
=
 OpenBabel11042418283D

 30 34  0  0  1  0  0  0  0  0999 V2000
  190.6470  173.3520  141.7230 C   0  0  0  0  0  0  0  0  0  0  0  0
  194.5650  174.1220  142.5000 C   0  0  0  0  0  0  0  0  0  0  0  0
  194.8980  174.6280  144.6820 C   0  0  0  0  0  0  0  0  0  0  0  0
  190.9720  175.6300  145.8390 C   0  0  0  0  0  2  0  0  0  0  0  0
  196.9770  174.4580  143.3660 N   0  0  0  0  0  0  0  0  0  0  0  0
  193.3620  176.1040  146.3320 C   0  0  0  0  0  3  0  0  0  0  0  0
  191.4330  173.7120  140.4750 C   0  0  0  0  0  2  0  0  0  0  0  0
  196.0650  174.1320  142.3340 C   0  0  0  0  0  3  0  0  0  0  0  0
  189.6990  173.0190  144.3550 C   0  0  0  0  0  0  0  0  0  0  0  0
  196.2950  174.6720  144.4950 C   0  0  0  0  0  0  0  0  0  0  0  0
  194.9120  176.2410  146.1310 C   0  0  0  0  0  2  0  0  0  0  0  0
  190.2990  176.7840  145.4020 O   0  0  0  0  0  0  0  0  0  0  0  0
  189.8630  174.2950  142.3450 N   0  0  0  0  0  0  0  0  0  0  0  0
  189.3180  172.8710  145.6480 F   0  0  0  0  0  0  0  0  0  0  0  0
  193.6370  173.6040  141.4720 C   0  0  0  0  0  2  0  0  0  0  0  0
  192.4180  175.6560  145.4300 C   0  0  0  0  0  0  0  0  0  0  0  0
  189.6500  176.5000  144.1680 C   0  0  1  0  0  3  0  0  0  0  0  0
  188.6510  175.3210  144.2020 C   0  0  0  0  0  2  0  0  0  0  0  0
  193.9790  174.4400  143.7810 C   0  0  0  0  0  0  0  0  0  0  0  0
  190.9220  172.1530  142.3970 C   0  0  0  0  0  0  0  0  0  0  0  0
  195.7110  174.9210  145.7870 C   0  0  1  0  0  3  0  0  0  0  0  0
  190.4850  172.0290  143.7410 C   0  0  0  0  0  3  0  0  0  0  0  0
  192.6840  174.3860  140.9660 C   0  0  0  0  0  2  0  0  0  0  0  0
  189.3550  174.1510  143.6000 C   0  0  0  0  0  0  0  0  0  0  0  0
  192.6790  175.1600  143.9850 C   0  0  0  0  0  2  0  0  0  0  0  0
  191.6060  171.0640  141.7240 N   0  0  0  0  0  0  0  0  0  0  0  0
  191.0640  169.8910  141.6310 C   0  0  0  0  0  2  0  0  0  0  0  0
  188.9190  177.7480  143.6650 C   0  0  0  0  0  2  0  0  0  0  0  0
  187.9960  177.8100  141.6010 O   0  0  0  0  0  1  0  0  0  0  0  0
  189.1770  177.9630  142.2420 N   0  0  0  0  0  2  0  0  0  0  0  0
  1 13  2  0  0  0  0
  1 20  1  0  0  0  0
  2 19  1  0  0  0  0
  3 21  1  0  0  0  0
  5 10  2  0  0  0  0
  7 23  1  0  0  0  0
  7  1  1  0  0  0  0
  8  2  2  0  0  0  0
  8  5  1  0  0  0  0
  9 14  1  0  0  0  0
 10  3  1  0  0  0  0
 10 21  1  0  0  0  0
 11  6  1  0  0  0  0
 12  4  1  0  0  0  0
 13 24  1  0  0  0  0
 15  2  1  0  0  0  0
 16  4  1  0  0  0  0
 16  6  2  0  0  0  0
 17 28  1  1  0  0  0
 17 18  1  0  0  0  0
 17 12  1  0  0  0  0
 19 25  1  0  0  0  0
 19  3  2  0  0  0  0
 20 22  2  0  0  0  0
 21 11  1  6  0  0  0
 22  9  1  0  0  0  0
 23 15  1  0  0  0  0
 24 18  1  0  0  0  0
 24  9  2  0  0  0  0
 25 16  1  0  0  0  0
 26 20  1  0  0  0  0
 27 26  2  0  0  0  0
 29 30  1  0  0  0  0
 30 28  1  0  0  0  0
M  END
>  <MODEL>
9

>  <REMARK>
 VINA RESULT:      -6.2      2.948      5.793
  Name = 
  3 active torsions:
  status: ('A' for Active; 'I' for Inactive)
    1  A    between atoms: N_14  and  C_27
    2  A    between atoms: C_19  and  C_27
    3  A    between atoms: N_20  and  C_23
                            x       y       z     vdW  Elec       q    Type
                         _______ _______ _______ _____ _____    ______ ____

>  <TORSDO>
F 3

$$$$
