=
 OpenBabel11042416193D

 66 73  0  0  1  0  0  0  0  0999 V2000
  188.5020  175.5620  143.6930 C   0  0  2  0  0  3  0  0  0  0  0  0
  188.5550  175.5800  145.2110 C   0  0  0  0  0  0  0  0  0  0  0  0
  190.3950  173.9190  143.8420 C   0  0  0  0  0  3  0  0  0  0  0  0
  189.4890  174.5640  143.0890 C   0  0  0  0  0  0  0  0  0  0  0  0
  189.6280  174.8730  145.9470 C   0  0  0  0  0  0  0  0  0  0  0  0
  187.6410  176.1660  145.8540 O   0  0  0  0  0  0  0  0  0  0  0  0
  190.4800  174.1010  145.2870 C   0  0  0  0  0  3  0  0  0  0  0  0
  190.5490  174.1500  140.9370 C   0  0  0  0  0  3  0  0  0  0  0  0
  188.2140  173.8360  141.1060 O   0  0  0  0  0  1  0  0  0  0  0  0
  189.4340  174.2080  141.6670 C   0  0  0  0  0  0  0  0  0  0  0  0
  190.5370  173.7420  139.5040 C   0  0  0  0  0  2  0  0  0  0  0  0
  192.1660  170.7270  137.8730 C   0  0  0  0  0  3  0  0  0  0  0  0
  192.4380  169.9240  138.9870 C   0  0  0  0  0  3  0  0  0  0  0  0
  192.0950  170.3660  140.2800 C   0  0  0  0  0  0  0  0  0  0  0  0
  191.1830  172.4090  139.3280 C   0  0  0  0  0  0  0  0  0  0  0  0
  191.4630  171.6090  140.4490 C   0  0  0  0  0  3  0  0  0  0  0  0
  191.5430  171.9710  138.0410 C   0  0  0  0  0  3  0  0  0  0  0  0
  192.4560  169.5430  141.4880 C   0  0  0  0  0  2  0  0  0  0  0  0
  196.2450  170.4940  143.1450 C   0  0  0  0  0  0  0  0  0  0  0  0
  197.1300  169.3250  145.5330 C   0  0  0  0  0  0  0  0  0  0  0  0
  193.8700  169.6820  141.8700 N   0  0  0  0  0  0  0  0  0  0  0  0
  194.0880  169.1650  143.2490 C   0  0  1  0  0  3  0  0  0  0  0  0
  194.2690  171.0960  141.8070 C   0  0  0  0  0  2  0  0  0  0  0  0
  195.4740  169.4830  143.7590 C   0  0  0  0  0  0  0  0  0  0  0  0
  197.4750  170.8620  143.6950 C   0  0  0  0  0  3  0  0  0  0  0  0
  197.5590  168.7600  146.8350 C   0  0  0  0  0  1  0  0  0  0  0  0
  195.7820  171.1620  141.8960 C   0  0  0  0  0  2  0  0  0  0  0  0
  195.9140  168.9190  144.9650 C   0  0  0  0  0  3  0  0  0  0  0  0
  197.9120  170.2890  144.8950 C   0  0  0  0  0  3  0  0  0  0  0  0
  192.9420  170.9770  144.4480 C   0  0  0  0  0  2  0  0  0  0  0  0
  193.0620  169.6650  144.2440 C   0  0  0  0  0  3  0  0  0  0  0  0
  187.6470  177.7020  142.4350 C   0  0  1  0  0  3  0  0  0  0  0  0
  188.7670  176.9690  143.1100 C   0  0  2  0  0  3  0  0  0  0  0  0
  188.5560  176.9100  141.7130 O   0  0  0  0  0  0  0  0  0  0  0  0
  186.2670  177.0420  142.5120 C   0  0  1  0  0  3  0  0  0  0  0  0
  185.6760  177.4160  143.8670 C   0  0  0  0  0  2  0  0  0  0  0  0
  185.7700  178.4980  140.5980 O   0  0  0  0  0  1  0  0  0  0  0  0
  184.0680  178.0940  142.2040 C   0  0  0  0  0  2  0  0  0  0  0  0
  184.4630  178.1570  143.5880 N   0  0  0  0  0  0  0  0  0  0  0  0
  184.0470  179.2490  144.3970 C   0  0  0  0  0  3  0  0  0  0  0  0
  184.5210  179.4160  145.5520 O   0  0  0  0  0  0  0  0  0  0  0  0
  185.2550  177.5150  141.4480 C   0  0  2  0  0  3  0  0  0  0  0  0
  189.6530  174.8540  147.4410 C   0  0  0  0  0  2  0  0  0  0  0  0
  191.0270  175.2970  147.9130 C   0  0  0  0  0  2  0  0  0  0  0  0
  191.1370  176.8060  147.8610 C   0  0  0  0  0  2  0  0  0  0  0  0
  192.5970  177.1750  147.6480 C   0  0  0  0  0  2  0  0  0  0  0  0
  193.2860  176.1060  146.8120 C   0  0  0  0  0  2  0  0  0  0  0  0
  194.9050  177.6900  145.6980 C   0  0  0  0  0  1  0  0  0  0  0  0
  193.5670  176.1050  144.3330 C   0  0  0  0  0  0  0  0  0  0  0  0
  192.6650  176.5950  143.6090 O   0  0  0  0  0  0  0  0  0  0  0  0
  193.8510  176.6900  145.6010 N   0  0  0  0  0  0  0  0  0  0  0  0
  194.4400  175.0020  143.8170 C   0  0  1  0  0  3  0  0  0  0  0  0
  193.9050  174.4730  142.6390 O   0  0  0  0  0  1  0  0  0  0  0  0
  196.7410  174.2630  143.4940 O   0  0  0  0  0  1  0  0  0  0  0  0
  195.9130  175.3950  143.6000 C   0  0  1  0  0  3  0  0  0  0  0  0
  196.0410  176.2980  142.3740 C   0  0  0  0  0  2  0  0  0  0  0  0
  196.9160  175.3420  140.2280 C   0  0  0  0  0  0  0  0  0  0  0  0
  197.8110  174.6400  139.6710 O   0  0  0  0  0  0  0  0  0  0  0  0
  195.6540  175.5490  139.5800 N   0  0  0  0  0  2  0  0  0  0  0  0
  197.1520  175.8730  141.5320 N   0  0  0  0  0  2  0  0  0  0  0  0
  194.7030  173.5870  138.5280 C   0  0  1  0  0  3  0  0  0  0  0  0
  195.3260  174.9250  138.3090 C   0  0  1  0  0  0  0  0  0  0  0  0
  193.8660  174.7160  137.9510 C   0  0  0  0  0  2  0  0  0  0  0  0
  195.3240  172.7580  137.4270 C   0  0  0  0  0  2  0  0  0  0  0  0
  196.4340  174.7120  137.3080 C   0  0  0  0  0  2  0  0  0  0  0  0
  196.5510  173.3310  137.0510 O   0  0  0  0  0  0  0  0  0  0  0  0
  1  4  1  6  0  0  0
  1  2  1  0  0  0  0
  2  6  2  0  0  0  0
  2  5  1  0  0  0  0
  3  7  1  0  0  0  0
  4  3  2  0  0  0  0
  5 43  1  0  0  0  0
  7  5  2  0  0  0  0
  8 10  2  0  0  0  0
  9 10  1  0  0  0  0
 10  4  1  0  0  0  0
 11  8  1  0  0  0  0
 12 17  2  0  0  0  0
 12 13  1  0  0  0  0
 13 14  2  0  0  0  0
 14 16  1  0  0  0  0
 14 18  1  0  0  0  0
 15 11  1  0  0  0  0
 15 16  2  0  0  0  0
 17 15  1  0  0  0  0
 18 21  1  0  0  0  0
 19 25  2  0  0  0  0
 19 24  1  0  0  0  0
 20 26  1  0  0  0  0
 21 22  1  0  0  0  0
 22 24  1  0  0  0  0
 22 31  1  1  0  0  0
 23 21  1  0  0  0  0
 23 27  1  0  0  0  0
 24 28  2  0  0  0  0
 25 29  1  0  0  0  0
 27 19  1  0  0  0  0
 28 20  1  0  0  0  0
 29 20  2  0  0  0  0
 31 30  2  0  0  0  0
 32 34  1  6  0  0  0
 32 35  1  0  0  0  0
 32 33  1  0  0  0  0
 33 34  1  6  0  0  0
 33  1  1  0  0  0  0
 35 36  1  1  0  0  0
 38 39  1  0  0  0  0
 39 36  1  0  0  0  0
 39 40  1  0  0  0  0
 40 41  2  0  0  0  0
 42 37  1  6  0  0  0
 42 38  1  0  0  0  0
 42 35  1  0  0  0  0
 43 44  1  0  0  0  0
 45 44  1  0  0  0  0
 46 45  1  0  0  0  0
 47 46  1  0  0  0  0
 49 51  1  0  0  0  0
 50 49  2  0  0  0  0
 51 48  1  0  0  0  0
 51 47  1  0  0  0  0
 52 53  1  6  0  0  0
 52 49  1  0  0  0  0
 55 54  1  6  0  0  0
 55 52  1  0  0  0  0
 56 55  1  0  0  0  0
 57 60  1  0  0  0  0
 58 57  2  0  0  0  0
 59 57  1  0  0  0  0
 60 56  1  0  0  0  0
 61 64  1  6  0  0  0
 62 61  1  0  0  0  0
 62 59  1  1  0  0  0
 63 62  1  0  0  0  0
 63 61  1  0  0  0  0
 65 62  1  0  0  0  0
 66 65  1  0  0  0  0
 66 64  1  0  0  0  0
M  END
>  <MODEL>
1

>  <REMARK>
 VINA RESULT:      -7.0      0.000      0.000
  Name = 
  19 active torsions:
  status: ('A' for Active; 'I' for Inactive)
    1  A    between atoms: C_4  and  C_36
    2  A    between atoms: N_7  and  C_29
    3  A    between atoms: C_8  and  C_33
    4  A    between atoms: C_10  and  N_57
    5  A    between atoms: C_13  and  C_16
    6  A    between atoms: C_13  and  C_52
    7  A    between atoms: C_15  and  C_52
    8  A    between atoms: C_15  and  N_64
    9  A    between atoms: C_17  and  C_25
   10  A    between atoms: C_18  and  C_27
   11  A    between atoms: C_21  and  C_38
   12  A    between atoms: C_21  and  N_58
   13  A    between atoms: C_22  and  C_23
   14  A    between atoms: C_29  and  C_32
   15  A    between atoms: C_33  and  C_42
   16  A    between atoms: C_34  and  C_46
   17  A    between atoms: C_34  and  C_51
   18  A    between atoms: C_38  and  C_51
   19  A    between atoms: C_46  and  C_53
                            x       y       z     vdW  Elec       q    Type
                         _______ _______ _______ _____ _____    ______ ____

>  <TORSDO>
F 19

$$$$
=
 OpenBabel11042416193D

 66 73  0  0  1  0  0  0  0  0999 V2000
  188.4900  175.5150  143.2580 C   0  0  2  0  0  3  0  0  0  0  0  0
  189.3130  174.5440  144.0860 C   0  0  0  0  0  0  0  0  0  0  0  0
  189.2390  174.1630  141.2810 C   0  0  0  0  0  3  0  0  0  0  0  0
  188.4700  175.1450  141.7760 C   0  0  0  0  0  0  0  0  0  0  0  0
  190.1700  173.5250  143.4380 C   0  0  0  0  0  0  0  0  0  0  0  0
  189.2260  174.5750  145.3440 O   0  0  0  0  0  0  0  0  0  0  0  0
  190.1220  173.3630  142.1230 C   0  0  0  0  0  3  0  0  0  0  0  0
  187.6690  175.6210  139.5270 C   0  0  0  0  0  3  0  0  0  0  0  0
  186.4710  176.5280  141.3490 O   0  0  0  0  0  1  0  0  0  0  0  0
  187.5440  175.7970  140.8430 C   0  0  0  0  0  0  0  0  0  0  0  0
  186.7180  176.2250  138.5520 C   0  0  0  0  0  2  0  0  0  0  0  0
  186.9060  176.3400  134.7640 C   0  0  0  0  0  3  0  0  0  0  0  0
  187.9800  175.4790  134.5130 C   0  0  0  0  0  3  0  0  0  0  0  0
  188.6540  174.8580  135.5840 C   0  0  0  0  0  0  0  0  0  0  0  0
  187.1500  175.9500  137.1510 C   0  0  0  0  0  0  0  0  0  0  0  0
  188.2350  175.0930  136.9040 C   0  0  0  0  0  3  0  0  0  0  0  0
  186.4910  176.5810  136.0810 C   0  0  0  0  0  3  0  0  0  0  0  0
  189.8600  173.9930  135.3270 C   0  0  0  0  0  2  0  0  0  0  0  0
  191.7300  171.6430  138.3260 C   0  0  0  0  0  0  0  0  0  0  0  0
  193.4830  172.7840  140.1920 C   0  0  0  0  0  0  0  0  0  0  0  0
  190.2560  173.2060  136.5060 N   0  0  0  0  0  0  0  0  0  0  0  0
  191.3300  173.9090  137.2600 C   0  0  1  0  0  3  0  0  0  0  0  0
  190.7380  171.8820  136.0860 C   0  0  0  0  0  2  0  0  0  0  0  0
  191.9150  173.0430  138.3520 C   0  0  0  0  0  0  0  0  0  0  0  0
  192.3710  170.8400  139.2710 C   0  0  0  0  0  3  0  0  0  0  0  0
  194.4660  173.3790  141.1280 C   0  0  0  0  0  1  0  0  0  0  0  0
  190.8350  171.0050  137.3200 C   0  0  0  0  0  2  0  0  0  0  0  0
  192.8100  173.6020  139.2740 C   0  0  0  0  0  3  0  0  0  0  0  0
  193.2580  171.4060  140.1960 C   0  0  0  0  0  3  0  0  0  0  0  0
  192.7300  175.7210  136.3690 C   0  0  0  0  0  2  0  0  0  0  0  0
  192.4480  174.4180  136.3740 C   0  0  0  0  0  3  0  0  0  0  0  0
  188.1280  177.9800  144.0890 C   0  0  1  0  0  3  0  0  0  0  0  0
  189.0050  176.9630  143.4230 C   0  0  2  0  0  3  0  0  0  0  0  0
  188.1480  177.8180  142.6940 O   0  0  0  0  0  0  0  0  0  0  0  0
  186.8250  177.4510  144.6960 C   0  0  1  0  0  3  0  0  0  0  0  0
  186.9620  177.5750  146.2090 C   0  0  0  0  0  2  0  0  0  0  0  0
  185.8180  179.3270  143.4730 O   0  0  0  0  0  1  0  0  0  0  0  0
  184.9430  178.7440  145.6020 C   0  0  0  0  0  2  0  0  0  0  0  0
  185.9060  178.4690  146.6380 N   0  0  0  0  0  0  0  0  0  0  0  0
  186.0890  179.3940  147.7020 C   0  0  0  0  0  3  0  0  0  0  0  0
  187.0410  179.2610  148.5170 O   0  0  0  0  0  0  0  0  0  0  0  0
  185.5550  178.2340  144.3060 C   0  0  2  0  0  3  0  0  0  0  0  0
  190.9450  172.5400  144.2530 C   0  0  0  0  0  2  0  0  0  0  0  0
  191.4080  171.4120  143.3460 C   0  0  0  0  0  2  0  0  0  0  0  0
  192.8870  171.1540  143.5450 C   0  0  0  0  0  2  0  0  0  0  0  0
  193.0660  169.7150  144.0020 C   0  0  0  0  0  2  0  0  0  0  0  0
  194.5410  169.4250  144.2380 C   0  0  0  0  0  2  0  0  0  0  0  0
  194.8830  169.1060  146.7180 C   0  0  0  0  0  1  0  0  0  0  0  0
  195.6960  171.1690  145.5970 C   0  0  0  0  0  0  0  0  0  0  0  0
  195.0960  172.2390  145.8670 O   0  0  0  0  0  0  0  0  0  0  0  0
  194.9640  169.9470  145.5310 N   0  0  0  0  0  0  0  0  0  0  0  0
  197.1900  171.1420  145.4850 C   0  0  1  0  0  3  0  0  0  0  0  0
  197.6370  169.8310  145.3010 O   0  0  0  0  0  1  0  0  0  0  0  0
  196.9780  172.0430  143.2290 O   0  0  0  0  0  1  0  0  0  0  0  0
  197.7690  172.0580  144.3920 C   0  0  1  0  0  3  0  0  0  0  0  0
  197.9410  173.4780  144.9320 C   0  0  0  0  0  2  0  0  0  0  0  0
  196.5360  175.3030  143.9420 C   0  0  0  0  0  0  0  0  0  0  0  0
  196.1260  175.8650  142.8850 O   0  0  0  0  0  0  0  0  0  0  0  0
  195.8130  175.4610  145.1710 N   0  0  0  0  0  2  0  0  0  0  0  0
  197.6890  174.4630  143.8880 N   0  0  0  0  0  2  0  0  0  0  0  0
  194.2220  176.5120  146.6630 C   0  0  1  0  0  3  0  0  0  0  0  0
  194.5660  176.2050  145.2440 C   0  0  1  0  0  0  0  0  0  0  0  0
  194.6000  177.6430  145.7240 C   0  0  0  0  0  2  0  0  0  0  0  0
  192.7250  176.3040  146.6840 C   0  0  0  0  0  2  0  0  0  0  0  0
  193.3300  175.5910  144.6360 C   0  0  0  0  0  2  0  0  0  0  0  0
  192.3650  175.4230  145.6500 O   0  0  0  0  0  0  0  0  0  0  0  0
  1  4  1  6  0  0  0
  1 33  1  0  0  0  0
  1  2  1  0  0  0  0
  2  6  2  0  0  0  0
  3  4  2  0  0  0  0
  3  7  1  0  0  0  0
  5  2  1  0  0  0  0
  5 43  1  0  0  0  0
  7  5  2  0  0  0  0
  8 10  2  0  0  0  0
 10  9  1  0  0  0  0
 10  4  1  0  0  0  0
 11  8  1  0  0  0  0
 12 17  1  0  0  0  0
 13 12  2  0  0  0  0
 13 14  1  0  0  0  0
 14 16  2  0  0  0  0
 15 11  1  0  0  0  0
 16 15  1  0  0  0  0
 17 15  2  0  0  0  0
 18 14  1  0  0  0  0
 18 21  1  0  0  0  0
 19 24  2  0  0  0  0
 19 25  1  0  0  0  0
 20 29  1  0  0  0  0
 20 26  1  0  0  0  0
 21 22  1  0  0  0  0
 22 31  1  6  0  0  0
 22 24  1  0  0  0  0
 23 21  1  0  0  0  0
 23 27  1  0  0  0  0
 24 28  1  0  0  0  0
 25 29  2  0  0  0  0
 27 19  1  0  0  0  0
 28 20  2  0  0  0  0
 30 31  2  0  0  0  0
 32 34  1  6  0  0  0
 32 35  1  0  0  0  0
 33 34  1  6  0  0  0
 33 32  1  0  0  0  0
 35 36  1  1  0  0  0
 36 39  1  0  0  0  0
 38 39  1  0  0  0  0
 39 40  1  0  0  0  0
 40 41  2  0  0  0  0
 42 37  1  6  0  0  0
 42 35  1  0  0  0  0
 42 38  1  0  0  0  0
 44 45  1  0  0  0  0
 44 43  1  0  0  0  0
 45 46  1  0  0  0  0
 46 47  1  0  0  0  0
 47 51  1  0  0  0  0
 49 50  2  0  0  0  0
 51 49  1  0  0  0  0
 51 48  1  0  0  0  0
 52 53  1  6  0  0  0
 52 49  1  0  0  0  0
 55 54  1  6  0  0  0
 55 56  1  0  0  0  0
 55 52  1  0  0  0  0
 57 59  1  0  0  0  0
 58 57  2  0  0  0  0
 60 57  1  0  0  0  0
 60 56  1  0  0  0  0
 61 63  1  6  0  0  0
 61 64  1  0  0  0  0
 62 59  1  6  0  0  0
 62 63  1  0  0  0  0
 62 61  1  0  0  0  0
 65 62  1  0  0  0  0
 65 66  1  0  0  0  0
 66 64  1  0  0  0  0
M  END
>  <MODEL>
2

>  <REMARK>
 VINA RESULT:      -6.9      2.703      5.976
  Name = 
  19 active torsions:
  status: ('A' for Active; 'I' for Inactive)
    1  A    between atoms: C_4  and  C_36
    2  A    between atoms: N_7  and  C_29
    3  A    between atoms: C_8  and  C_33
    4  A    between atoms: C_10  and  N_57
    5  A    between atoms: C_13  and  C_16
    6  A    between atoms: C_13  and  C_52
    7  A    between atoms: C_15  and  C_52
    8  A    between atoms: C_15  and  N_64
    9  A    between atoms: C_17  and  C_25
   10  A    between atoms: C_18  and  C_27
   11  A    between atoms: C_21  and  C_38
   12  A    between atoms: C_21  and  N_58
   13  A    between atoms: C_22  and  C_23
   14  A    between atoms: C_29  and  C_32
   15  A    between atoms: C_33  and  C_42
   16  A    between atoms: C_34  and  C_46
   17  A    between atoms: C_34  and  C_51
   18  A    between atoms: C_38  and  C_51
   19  A    between atoms: C_46  and  C_53
                            x       y       z     vdW  Elec       q    Type
                         _______ _______ _______ _____ _____    ______ ____

>  <TORSDO>
F 19

$$$$
=
 OpenBabel11042416193D

 66 73  0  0  1  0  0  0  0  0999 V2000
  188.5750  175.6490  143.8990 C   0  0  2  0  0  3  0  0  0  0  0  0
  188.9340  175.7250  145.3730 C   0  0  0  0  0  0  0  0  0  0  0  0
  190.3120  173.8420  143.7680 C   0  0  0  0  0  3  0  0  0  0  0  0
  189.3310  174.5390  143.1720 C   0  0  0  0  0  0  0  0  0  0  0  0
  190.0700  174.9510  145.9230 C   0  0  0  0  0  0  0  0  0  0  0  0
  188.2220  176.4210  146.1480 O   0  0  0  0  0  0  0  0  0  0  0  0
  190.7030  174.0750  145.1540 C   0  0  0  0  0  3  0  0  0  0  0  0
  189.8970  173.8870  140.8960 C   0  0  0  0  0  3  0  0  0  0  0  0
  187.6170  173.9070  141.5130 O   0  0  0  0  0  1  0  0  0  0  0  0
  188.9590  174.1310  141.8130 C   0  0  0  0  0  0  0  0  0  0  0  0
  189.5590  173.4220  139.5210 C   0  0  0  0  0  2  0  0  0  0  0  0
  190.0180  170.0000  137.9450 C   0  0  0  0  0  3  0  0  0  0  0  0
  190.5810  169.2800  139.0050 C   0  0  0  0  0  3  0  0  0  0  0  0
  190.8190  169.9120  140.2420 C   0  0  0  0  0  0  0  0  0  0  0  0
  189.9020  171.9800  139.3520 C   0  0  0  0  0  0  0  0  0  0  0  0
  190.4750  171.2630  140.4150 C   0  0  0  0  0  3  0  0  0  0  0  0
  189.6820  171.3500  138.1140 C   0  0  0  0  0  3  0  0  0  0  0  0
  191.4960  169.1660  141.3620 C   0  0  0  0  0  2  0  0  0  0  0  0
  195.6380  170.0570  141.1090 C   0  0  0  0  0  0  0  0  0  0  0  0
  197.1600  170.5860  143.4010 C   0  0  0  0  0  0  0  0  0  0  0  0
  192.9640  169.1880  141.2540 N   0  0  0  0  0  0  0  0  0  0  0  0
  193.5690  169.6750  142.5240 C   0  0  1  0  0  3  0  0  0  0  0  0
  193.3710  170.0670  140.1480 C   0  0  0  0  0  2  0  0  0  0  0  0
  195.0540  169.9170  142.3870 C   0  0  0  0  0  0  0  0  0  0  0  0
  196.9870  170.3970  140.9940 C   0  0  0  0  0  3  0  0  0  0  0  0
  197.9410  170.9390  144.6100 C   0  0  0  0  0  1  0  0  0  0  0  0
  194.8430  169.8210  139.8710 C   0  0  0  0  0  2  0  0  0  0  0  0
  195.8160  170.2040  143.5270 C   0  0  0  0  0  3  0  0  0  0  0  0
  197.7460  170.6760  142.1380 C   0  0  0  0  0  3  0  0  0  0  0  0
  192.3550  170.8990  144.2750 C   0  0  0  0  0  2  0  0  0  0  0  0
  192.9060  170.9260  143.0610 C   0  0  0  0  0  3  0  0  0  0  0  0
  187.7050  177.6780  142.4760 C   0  0  1  0  0  3  0  0  0  0  0  0
  188.8340  177.0000  143.1930 C   0  0  2  0  0  3  0  0  0  0  0  0
  188.5990  176.8220  141.8100 O   0  0  0  0  0  0  0  0  0  0  0  0
  186.3240  177.0330  142.6330 C   0  0  1  0  0  3  0  0  0  0  0  0
  185.8170  177.4120  144.0200 C   0  0  0  0  0  2  0  0  0  0  0  0
  185.7340  178.4970  140.7520 O   0  0  0  0  0  1  0  0  0  0  0  0
  184.1230  178.1100  142.4540 C   0  0  0  0  0  2  0  0  0  0  0  0
  184.5990  178.1670  143.8130 N   0  0  0  0  0  0  0  0  0  0  0  0
  184.2420  179.2620  144.6450 C   0  0  0  0  0  3  0  0  0  0  0  0
  184.7850  179.4220  145.7710 O   0  0  0  0  0  0  0  0  0  0  0  0
  185.2580  177.5180  141.6300 C   0  0  2  0  0  3  0  0  0  0  0  0
  190.3960  174.9900  147.3810 C   0  0  0  0  0  2  0  0  0  0  0  0
  191.8930  175.1910  147.5430 C   0  0  0  0  0  2  0  0  0  0  0  0
  192.3030  176.5390  146.9880 C   0  0  0  0  0  2  0  0  0  0  0  0
  193.7520  176.4510  146.5340 C   0  0  0  0  0  2  0  0  0  0  0  0
  193.9740  175.1650  145.7520 C   0  0  0  0  0  2  0  0  0  0  0  0
  196.2890  174.1640  145.6440 C   0  0  0  0  0  1  0  0  0  0  0  0
  195.5910  175.8850  143.9940 C   0  0  0  0  0  0  0  0  0  0  0  0
  196.1360  177.0130  144.0820 O   0  0  0  0  0  0  0  0  0  0  0  0
  195.3150  175.1420  145.1780 N   0  0  0  0  0  0  0  0  0  0  0  0
  195.3600  175.2540  142.6550 C   0  0  1  0  0  3  0  0  0  0  0  0
  196.3120  174.2590  142.4190 O   0  0  0  0  0  1  0  0  0  0  0  0
  192.9630  175.6930  142.5750 O   0  0  0  0  0  1  0  0  0  0  0  0
  193.9420  174.6920  142.4450 C   0  0  1  0  0  3  0  0  0  0  0  0
  193.8490  173.9910  141.0900 C   0  0  0  0  0  2  0  0  0  0  0  0
  193.5780  174.5460  138.6600 C   0  0  0  0  0  0  0  0  0  0  0  0
  193.9090  175.3110  137.7080 O   0  0  0  0  0  0  0  0  0  0  0  0
  193.0410  173.2440  138.3870 N   0  0  0  0  0  2  0  0  0  0  0  0
  193.8010  174.9650  140.0070 N   0  0  0  0  0  2  0  0  0  0  0  0
  194.2550  172.3920  136.4730 C   0  0  1  0  0  3  0  0  0  0  0  0
  192.9140  172.7290  137.0340 C   0  0  1  0  0  0  0  0  0  0  0  0
  193.2660  171.2780  136.7660 C   0  0  0  0  0  2  0  0  0  0  0  0
  194.1330  172.8600  135.0410 C   0  0  0  0  0  2  0  0  0  0  0  0
  192.2320  173.5910  136.0010 C   0  0  0  0  0  2  0  0  0  0  0  0
  193.1470  173.8590  134.9620 O   0  0  0  0  0  0  0  0  0  0  0  0
  1  4  1  6  0  0  0
  1  2  1  0  0  0  0
  2  5  1  0  0  0  0
  2  6  2  0  0  0  0
  3  7  1  0  0  0  0
  4  3  2  0  0  0  0
  5 43  1  0  0  0  0
  7  5  2  0  0  0  0
  8 10  2  0  0  0  0
  9 10  1  0  0  0  0
 10  4  1  0  0  0  0
 11  8  1  0  0  0  0
 12 17  2  0  0  0  0
 12 13  1  0  0  0  0
 13 14  2  0  0  0  0
 14 16  1  0  0  0  0
 14 18  1  0  0  0  0
 15 11  1  0  0  0  0
 15 16  2  0  0  0  0
 17 15  1  0  0  0  0
 19 24  1  0  0  0  0
 20 28  1  0  0  0  0
 20 26  1  0  0  0  0
 21 18  1  0  0  0  0
 21 22  1  0  0  0  0
 22 31  1  6  0  0  0
 23 21  1  0  0  0  0
 24 22  1  0  0  0  0
 24 28  2  0  0  0  0
 25 19  2  0  0  0  0
 25 29  1  0  0  0  0
 27 23  1  0  0  0  0
 27 19  1  0  0  0  0
 29 20  2  0  0  0  0
 31 30  2  0  0  0  0
 32 34  1  6  0  0  0
 32 35  1  0  0  0  0
 32 33  1  0  0  0  0
 33 34  1  6  0  0  0
 33  1  1  0  0  0  0
 35 36  1  1  0  0  0
 38 39  1  0  0  0  0
 39 36  1  0  0  0  0
 39 40  1  0  0  0  0
 40 41  2  0  0  0  0
 42 37  1  6  0  0  0
 42 38  1  0  0  0  0
 42 35  1  0  0  0  0
 43 44  1  0  0  0  0
 45 44  1  0  0  0  0
 46 45  1  0  0  0  0
 47 46  1  0  0  0  0
 49 50  2  0  0  0  0
 49 51  1  0  0  0  0
 51 48  1  0  0  0  0
 51 47  1  0  0  0  0
 52 53  1  1  0  0  0
 52 49  1  0  0  0  0
 55 54  1  6  0  0  0
 55 52  1  0  0  0  0
 56 55  1  0  0  0  0
 57 60  1  0  0  0  0
 58 57  2  0  0  0  0
 59 57  1  0  0  0  0
 60 56  1  0  0  0  0
 61 64  1  6  0  0  0
 61 63  1  0  0  0  0
 61 62  1  0  0  0  0
 62 59  1  1  0  0  0
 63 62  1  0  0  0  0
 65 62  1  0  0  0  0
 66 64  1  0  0  0  0
 66 65  1  0  0  0  0
M  END
>  <MODEL>
3

>  <REMARK>
 VINA RESULT:      -6.9      1.522      2.158
  Name = 
  19 active torsions:
  status: ('A' for Active; 'I' for Inactive)
    1  A    between atoms: C_4  and  C_36
    2  A    between atoms: N_7  and  C_29
    3  A    between atoms: C_8  and  C_33
    4  A    between atoms: C_10  and  N_57
    5  A    between atoms: C_13  and  C_16
    6  A    between atoms: C_13  and  C_52
    7  A    between atoms: C_15  and  C_52
    8  A    between atoms: C_15  and  N_64
    9  A    between atoms: C_17  and  C_25
   10  A    between atoms: C_18  and  C_27
   11  A    between atoms: C_21  and  C_38
   12  A    between atoms: C_21  and  N_58
   13  A    between atoms: C_22  and  C_23
   14  A    between atoms: C_29  and  C_32
   15  A    between atoms: C_33  and  C_42
   16  A    between atoms: C_34  and  C_46
   17  A    between atoms: C_34  and  C_51
   18  A    between atoms: C_38  and  C_51
   19  A    between atoms: C_46  and  C_53
                            x       y       z     vdW  Elec       q    Type
                         _______ _______ _______ _____ _____    ______ ____

>  <TORSDO>
F 19

$$$$
=
 OpenBabel11042416193D

 66 73  0  0  1  0  0  0  0  0999 V2000
  192.0390  173.3830  141.7760 C   0  0  2  0  0  3  0  0  0  0  0  0
  192.7110  172.7920  140.5480 C   0  0  0  0  0  0  0  0  0  0  0  0
  189.9930  172.1450  141.0120 C   0  0  0  0  0  3  0  0  0  0  0  0
  190.6050  172.8860  141.9490 C   0  0  0  0  0  0  0  0  0  0  0  0
  191.9340  172.0290  139.5450 C   0  0  0  0  0  0  0  0  0  0  0  0
  193.9590  172.9140  140.4070 O   0  0  0  0  0  0  0  0  0  0  0  0
  190.6620  171.7370  139.7810 C   0  0  0  0  0  3  0  0  0  0  0  0
  190.3680  172.7690  144.3690 C   0  0  0  0  0  3  0  0  0  0  0  0
  188.6600  173.8360  143.1350 O   0  0  0  0  0  1  0  0  0  0  0  0
  189.8610  173.1320  143.1890 C   0  0  0  0  0  0  0  0  0  0  0  0
  189.6660  173.0480  145.6530 C   0  0  0  0  0  2  0  0  0  0  0  0
  191.5100  176.0830  146.9920 C   0  0  0  0  0  3  0  0  0  0  0  0
  190.5050  177.0560  146.9550 C   0  0  0  0  0  3  0  0  0  0  0  0
  189.2170  176.7270  146.4860 C   0  0  0  0  0  0  0  0  0  0  0  0
  189.9470  174.4370  146.1180 C   0  0  0  0  0  0  0  0  0  0  0  0
  188.9390  175.4140  146.0710 C   0  0  0  0  0  3  0  0  0  0  0  0
  191.2350  174.7750  146.5710 C   0  0  0  0  0  3  0  0  0  0  0  0
  188.1530  177.7870  146.3700 C   0  0  0  0  0  2  0  0  0  0  0  0
  186.9720  177.9150  142.2950 C   0  0  0  0  0  0  0  0  0  0  0  0
  184.2800  178.1820  141.5630 C   0  0  0  0  0  0  0  0  0  0  0  0
  187.8230  178.1090  144.9720 N   0  0  0  0  0  0  0  0  0  0  0  0
  186.3530  178.0140  144.7520 C   0  0  1  0  0  3  0  0  0  0  0  0
  188.5160  177.1810  144.0670 C   0  0  0  0  0  2  0  0  0  0  0  0
  185.9920  178.1260  143.2890 C   0  0  0  0  0  0  0  0  0  0  0  0
  186.6060  177.9040  140.9480 C   0  0  0  0  0  3  0  0  0  0  0  0
  182.8490  178.2470  141.1840 C   0  0  0  0  0  1  0  0  0  0  0  0
  188.4060  177.7310  142.6570 C   0  0  0  0  0  2  0  0  0  0  0  0
  184.6460  178.2360  142.9160 C   0  0  0  0  0  3  0  0  0  0  0  0
  185.2590  178.0240  140.5810 C   0  0  0  0  0  3  0  0  0  0  0  0
  184.9570  176.8330  146.3940 C   0  0  0  0  0  2  0  0  0  0  0  0
  185.7450  176.7490  145.3220 C   0  0  0  0  0  3  0  0  0  0  0  0
  192.9990  175.6790  142.6120 C   0  0  1  0  0  3  0  0  0  0  0  0
  192.0500  174.9280  141.7280 C   0  0  2  0  0  3  0  0  0  0  0  0
  191.6770  175.4070  143.0040 O   0  0  0  0  0  0  0  0  0  0  0  0
  194.0030  174.8300  143.3980 C   0  0  1  0  0  3  0  0  0  0  0  0
  195.2320  174.6690  142.5100 C   0  0  0  0  0  2  0  0  0  0  0  0
  193.9550  176.7210  144.9630 O   0  0  0  0  0  1  0  0  0  0  0  0
  196.0080  175.5850  144.6000 C   0  0  0  0  0  2  0  0  0  0  0  0
  196.3340  175.2700  143.2320 N   0  0  0  0  0  0  0  0  0  0  0  0
  197.3710  175.9790  142.5670 C   0  0  0  0  0  3  0  0  0  0  0  0
  197.5540  175.8450  141.3280 O   0  0  0  0  0  0  0  0  0  0  0  0
  194.4970  175.4560  144.7180 C   0  0  2  0  0  3  0  0  0  0  0  0
  192.6030  171.4100  138.3600 C   0  0  0  0  0  2  0  0  0  0  0  0
  192.6710  169.9070  138.5670 C   0  0  0  0  0  2  0  0  0  0  0  0
  193.8760  169.5490  139.4110 C   0  0  0  0  0  2  0  0  0  0  0  0
  194.7860  168.6470  138.5910 C   0  0  0  0  0  2  0  0  0  0  0  0
  194.7780  169.0860  137.1350 C   0  0  0  0  0  2  0  0  0  0  0  0
  196.4220  169.4130  135.2480 C   0  0  0  0  0  1  0  0  0  0  0  0
  197.1130  169.8300  137.5980 C   0  0  0  0  0  0  0  0  0  0  0  0
  197.9300  169.0220  138.1040 O   0  0  0  0  0  0  0  0  0  0  0  0
  196.1340  169.3590  136.6750 N   0  0  0  0  0  0  0  0  0  0  0  0
  197.2490  171.3020  137.8430 C   0  0  1  0  0  3  0  0  0  0  0  0
  196.0100  171.9320  137.7000 O   0  0  0  0  0  1  0  0  0  0  0  0
  197.9260  173.0660  139.3840 O   0  0  0  0  0  1  0  0  0  0  0  0
  197.8780  171.6730  139.1980 C   0  0  1  0  0  3  0  0  0  0  0  0
  197.1230  170.9840  140.3350 C   0  0  0  0  0  2  0  0  0  0  0  0
  196.7940  171.2510  142.8060 C   0  0  0  0  0  0  0  0  0  0  0  0
  196.9710  171.9850  143.8220 O   0  0  0  0  0  0  0  0  0  0  0  0
  195.7790  170.2370  142.8160 N   0  0  0  0  0  2  0  0  0  0  0  0
  197.5690  171.4830  141.6290 N   0  0  0  0  0  2  0  0  0  0  0  0
  194.4270  168.6320  144.0220 C   0  0  1  0  0  3  0  0  0  0  0  0
  194.8850  170.0500  143.9460 C   0  0  1  0  0  0  0  0  0  0  0  0
  195.3400  169.1810  145.1040 C   0  0  0  0  0  2  0  0  0  0  0  0
  192.9740  168.7830  144.4130 C   0  0  0  0  0  2  0  0  0  0  0  0
  193.6390  170.8980  144.0220 C   0  0  0  0  0  2  0  0  0  0  0  0
  192.5140  170.0480  144.0090 O   0  0  0  0  0  0  0  0  0  0  0  0
  1  2  1  6  0  0  0
  1  4  1  0  0  0  0
  3  4  2  0  0  0  0
  4 10  1  0  0  0  0
  5  7  2  0  0  0  0
  5  2  1  0  0  0  0
  6  2  2  0  0  0  0
  7  3  1  0  0  0  0
  8 11  1  0  0  0  0
  9 10  1  0  0  0  0
 10  8  2  0  0  0  0
 11 15  1  0  0  0  0
 13 12  1  0  0  0  0
 14 13  2  0  0  0  0
 15 17  1  0  0  0  0
 16 15  2  0  0  0  0
 16 14  1  0  0  0  0
 17 12  2  0  0  0  0
 18 14  1  0  0  0  0
 19 27  1  0  0  0  0
 19 24  1  0  0  0  0
 20 28  1  0  0  0  0
 21 18  1  0  0  0  0
 22 21  1  0  0  0  0
 22 31  1  6  0  0  0
 23 21  1  0  0  0  0
 24 22  1  0  0  0  0
 25 19  2  0  0  0  0
 26 20  1  0  0  0  0
 27 23  1  0  0  0  0
 28 24  2  0  0  0  0
 29 25  1  0  0  0  0
 29 20  2  0  0  0  0
 31 30  2  0  0  0  0
 32 34  1  1  0  0  0
 32 35  1  0  0  0  0
 33  1  1  0  0  0  0
 33 32  1  0  0  0  0
 33 34  1  1  0  0  0
 35 36  1  6  0  0  0
 35 42  1  0  0  0  0
 36 39  1  0  0  0  0
 38 42  1  0  0  0  0
 39 38  1  0  0  0  0
 40 39  1  0  0  0  0
 41 40  2  0  0  0  0
 42 37  1  6  0  0  0
 43 44  1  0  0  0  0
 43  5  1  0  0  0  0
 44 45  1  0  0  0  0
 46 45  1  0  0  0  0
 47 46  1  0  0  0  0
 48 51  1  0  0  0  0
 49 52  1  0  0  0  0
 49 50  2  0  0  0  0
 51 47  1  0  0  0  0
 51 49  1  0  0  0  0
 52 53  1  1  0  0  0
 52 55  1  0  0  0  0
 55 54  1  1  0  0  0
 55 56  1  0  0  0  0
 56 60  1  0  0  0  0
 57 59  1  0  0  0  0
 57 58  2  0  0  0  0
 60 57  1  0  0  0  0
 61 64  1  1  0  0  0
 61 63  1  0  0  0  0
 62 59  1  6  0  0  0
 62 65  1  0  0  0  0
 62 61  1  0  0  0  0
 62 63  1  0  0  0  0
 66 65  1  0  0  0  0
 66 64  1  0  0  0  0
M  END
>  <MODEL>
4

>  <REMARK>
 VINA RESULT:      -6.5      2.288      9.617
  Name = 
  19 active torsions:
  status: ('A' for Active; 'I' for Inactive)
    1  A    between atoms: C_4  and  C_36
    2  A    between atoms: N_7  and  C_29
    3  A    between atoms: C_8  and  C_33
    4  A    between atoms: C_10  and  N_57
    5  A    between atoms: C_13  and  C_16
    6  A    between atoms: C_13  and  C_52
    7  A    between atoms: C_15  and  C_52
    8  A    between atoms: C_15  and  N_64
    9  A    between atoms: C_17  and  C_25
   10  A    between atoms: C_18  and  C_27
   11  A    between atoms: C_21  and  C_38
   12  A    between atoms: C_21  and  N_58
   13  A    between atoms: C_22  and  C_23
   14  A    between atoms: C_29  and  C_32
   15  A    between atoms: C_33  and  C_42
   16  A    between atoms: C_34  and  C_46
   17  A    between atoms: C_34  and  C_51
   18  A    between atoms: C_38  and  C_51
   19  A    between atoms: C_46  and  C_53
                            x       y       z     vdW  Elec       q    Type
                         _______ _______ _______ _____ _____    ______ ____

>  <TORSDO>
F 19

$$$$
=
 OpenBabel11042416193D

 66 73  0  0  1  0  0  0  0  0999 V2000
  192.1510  172.1180  141.6210 C   0  0  2  0  0  3  0  0  0  0  0  0
  191.6950  172.9000  140.4010 C   0  0  0  0  0  0  0  0  0  0  0  0
  191.8080  170.0780  140.1990 C   0  0  0  0  0  3  0  0  0  0  0  0
  192.2450  170.6170  141.3470 C   0  0  0  0  0  0  0  0  0  0  0  0
  191.1820  172.2070  139.1980 C   0  0  0  0  0  0  0  0  0  0  0  0
  191.8030  174.1570  140.3970 O   0  0  0  0  0  0  0  0  0  0  0  0
  191.2420  170.8850  139.1230 C   0  0  0  0  0  3  0  0  0  0  0  0
  192.5660  169.7350  143.5930 C   0  0  0  0  0  3  0  0  0  0  0  0
  193.7940  168.7570  141.8290 O   0  0  0  0  0  1  0  0  0  0  0  0
  192.8950  169.7120  142.3010 C   0  0  0  0  0  0  0  0  0  0  0  0
  193.1670  168.7960  144.5820 C   0  0  0  0  0  2  0  0  0  0  0  0
  195.9550  169.4990  147.0590 C   0  0  0  0  0  3  0  0  0  0  0  0
  196.6930  170.4720  146.3760 C   0  0  0  0  0  3  0  0  0  0  0  0
  196.2860  170.9010  145.0960 C   0  0  0  0  0  0  0  0  0  0  0  0
  194.3830  169.3920  145.2060 C   0  0  0  0  0  0  0  0  0  0  0  0
  195.1270  170.3620  144.5140 C   0  0  0  0  0  3  0  0  0  0  0  0
  194.8020  168.9540  146.4750 C   0  0  0  0  0  3  0  0  0  0  0  0
  197.1190  171.8890  144.3230 C   0  0  0  0  0  2  0  0  0  0  0  0
  195.6500  173.7840  140.8210 C   0  0  0  0  0  0  0  0  0  0  0  0
  194.8690  172.2990  138.5760 C   0  0  0  0  0  0  0  0  0  0  0  0
  196.3600  172.5580  143.2540 N   0  0  0  0  0  0  0  0  0  0  0  0
  196.2150  171.6560  142.0790 C   0  0  1  0  0  3  0  0  0  0  0  0
  197.0500  173.7900  142.8450 C   0  0  0  0  0  2  0  0  0  0  0  0
  195.6330  172.3740  140.8830 C   0  0  0  0  0  0  0  0  0  0  0  0
  195.2180  174.4340  139.6640 C   0  0  0  0  0  3  0  0  0  0  0  0
  194.5290  171.5130  137.3670 C   0  0  0  0  0  1  0  0  0  0  0  0
  196.0970  174.5990  141.9850 C   0  0  0  0  0  2  0  0  0  0  0  0
  195.2610  171.6390  139.7490 C   0  0  0  0  0  3  0  0  0  0  0  0
  194.8400  173.6940  138.5360 C   0  0  0  0  0  3  0  0  0  0  0  0
  197.4780  169.7520  141.1750 C   0  0  0  0  0  2  0  0  0  0  0  0
  197.5130  170.9870  141.6760 C   0  0  0  0  0  3  0  0  0  0  0  0
  191.6010  173.3870  143.8530 C   0  0  1  0  0  3  0  0  0  0  0  0
  191.2140  172.3670  142.8250 C   0  0  2  0  0  3  0  0  0  0  0  0
  191.9160  172.0260  144.0030 O   0  0  0  0  0  0  0  0  0  0  0  0
  192.8480  174.2190  143.5390 C   0  0  1  0  0  3  0  0  0  0  0  0
  192.3590  175.5460  142.9680 C   0  0  0  0  0  2  0  0  0  0  0  0
  193.2140  174.0750  145.9630 O   0  0  0  0  0  1  0  0  0  0  0  0
  193.7870  176.0840  144.8350 C   0  0  0  0  0  2  0  0  0  0  0  0
  192.8320  176.5740  143.8720 N   0  0  0  0  0  0  0  0  0  0  0  0
  192.0630  177.7340  144.1600 C   0  0  0  0  0  3  0  0  0  0  0  0
  191.1060  178.0760  143.4160 O   0  0  0  0  0  0  0  0  0  0  0  0
  193.7270  174.5650  144.7580 C   0  0  2  0  0  3  0  0  0  0  0  0
  190.7750  172.9760  137.9810 C   0  0  0  0  0  2  0  0  0  0  0  0
  189.4280  172.4600  137.5050 C   0  0  0  0  0  2  0  0  0  0  0  0
  188.3400  172.8620  138.4780 C   0  0  0  0  0  2  0  0  0  0  0  0
  188.2790  174.3810  138.5310 C   0  0  0  0  0  2  0  0  0  0  0  0
  188.1570  174.8460  139.9740 C   0  0  0  0  0  2  0  0  0  0  0  0
  186.7470  176.6530  138.9180 C   0  0  0  0  0  1  0  0  0  0  0  0
  187.5110  176.8770  141.2710 C   0  0  0  0  0  0  0  0  0  0  0  0
  188.3740  177.7570  141.5100 O   0  0  0  0  0  0  0  0  0  0  0  0
  187.5480  176.1690  140.0350 N   0  0  0  0  0  0  0  0  0  0  0  0
  186.3630  176.6630  142.2100 C   0  0  1  0  0  3  0  0  0  0  0  0
  186.7010  175.7150  143.1800 O   0  0  0  0  0  1  0  0  0  0  0  0
  185.0660  178.7160  141.9940 O   0  0  0  0  0  1  0  0  0  0  0  0
  185.8340  177.9430  142.8830 C   0  0  1  0  0  3  0  0  0  0  0  0
  185.0430  177.5880  144.1420 C   0  0  0  0  0  2  0  0  0  0  0  0
  186.4230  178.1690  146.1520 C   0  0  0  0  0  0  0  0  0  0  0  0
  186.4550  178.7370  147.2830 O   0  0  0  0  0  0  0  0  0  0  0  0
  187.3920  177.1650  145.8210 N   0  0  0  0  0  2  0  0  0  0  0  0
  185.3770  178.4910  145.2350 N   0  0  0  0  0  2  0  0  0  0  0  0
  189.6500  176.3260  146.0630 C   0  0  1  0  0  3  0  0  0  0  0  0
  188.3970  176.7170  146.7710 C   0  0  1  0  0  0  0  0  0  0  0  0
  189.6500  177.5510  146.9590 C   0  0  0  0  0  2  0  0  0  0  0  0
  190.0830  175.0970  146.8280 C   0  0  0  0  0  2  0  0  0  0  0  0
  188.0560  175.5670  147.6860 C   0  0  0  0  0  2  0  0  0  0  0  0
  188.9620  174.5140  147.4430 O   0  0  0  0  0  0  0  0  0  0  0  0
  1  2  1  6  0  0  0
  1 33  1  0  0  0  0
  3  4  2  0  0  0  0
  4  1  1  0  0  0  0
  4 10  1  0  0  0  0
  5  2  1  0  0  0  0
  6  2  2  0  0  0  0
  7  5  2  0  0  0  0
  7  3  1  0  0  0  0
  8 11  1  0  0  0  0
  9 10  1  0  0  0  0
 10  8  2  0  0  0  0
 11 15  1  0  0  0  0
 13 12  2  0  0  0  0
 14 13  1  0  0  0  0
 15 17  2  0  0  0  0
 16 14  2  0  0  0  0
 16 15  1  0  0  0  0
 17 12  1  0  0  0  0
 18 14  1  0  0  0  0
 19 24  1  0  0  0  0
 19 27  1  0  0  0  0
 20 28  1  0  0  0  0
 21 18  1  0  0  0  0
 22 31  1  6  0  0  0
 22 21  1  0  0  0  0
 23 21  1  0  0  0  0
 24 22  1  0  0  0  0
 25 19  2  0  0  0  0
 26 20  1  0  0  0  0
 27 23  1  0  0  0  0
 28 24  2  0  0  0  0
 29 20  2  0  0  0  0
 29 25  1  0  0  0  0
 30 31  2  0  0  0  0
 32 34  1  1  0  0  0
 33 32  1  0  0  0  0
 33 34  1  1  0  0  0
 35 36  1  1  0  0  0
 35 32  1  0  0  0  0
 35 42  1  0  0  0  0
 36 39  1  0  0  0  0
 39 40  1  0  0  0  0
 39 38  1  0  0  0  0
 41 40  2  0  0  0  0
 42 38  1  0  0  0  0
 42 37  1  1  0  0  0
 43  5  1  0  0  0  0
 44 43  1  0  0  0  0
 44 45  1  0  0  0  0
 45 46  1  0  0  0  0
 46 47  1  0  0  0  0
 47 51  1  0  0  0  0
 48 51  1  0  0  0  0
 49 50  2  0  0  0  0
 49 52  1  0  0  0  0
 51 49  1  0  0  0  0
 52 55  1  0  0  0  0
 52 53  1  1  0  0  0
 55 54  1  6  0  0  0
 55 56  1  0  0  0  0
 56 60  1  0  0  0  0
 57 58  2  0  0  0  0
 59 57  1  0  0  0  0
 60 57  1  0  0  0  0
 61 62  1  0  0  0  0
 61 64  1  1  0  0  0
 61 63  1  0  0  0  0
 62 59  1  6  0  0  0
 62 63  1  0  0  0  0
 62 65  1  0  0  0  0
 64 66  1  0  0  0  0
 66 65  1  0  0  0  0
M  END
>  <MODEL>
5

>  <REMARK>
 VINA RESULT:      -6.5      2.228      8.460
  Name = 
  19 active torsions:
  status: ('A' for Active; 'I' for Inactive)
    1  A    between atoms: C_4  and  C_36
    2  A    between atoms: N_7  and  C_29
    3  A    between atoms: C_8  and  C_33
    4  A    between atoms: C_10  and  N_57
    5  A    between atoms: C_13  and  C_16
    6  A    between atoms: C_13  and  C_52
    7  A    between atoms: C_15  and  C_52
    8  A    between atoms: C_15  and  N_64
    9  A    between atoms: C_17  and  C_25
   10  A    between atoms: C_18  and  C_27
   11  A    between atoms: C_21  and  C_38
   12  A    between atoms: C_21  and  N_58
   13  A    between atoms: C_22  and  C_23
   14  A    between atoms: C_29  and  C_32
   15  A    between atoms: C_33  and  C_42
   16  A    between atoms: C_34  and  C_46
   17  A    between atoms: C_34  and  C_51
   18  A    between atoms: C_38  and  C_51
   19  A    between atoms: C_46  and  C_53
                            x       y       z     vdW  Elec       q    Type
                         _______ _______ _______ _____ _____    ______ ____

>  <TORSDO>
F 19

$$$$
=
 OpenBabel11042416193D

 66 73  0  0  1  0  0  0  0  0999 V2000
  188.6680  175.2060  141.8690 C   0  0  2  0  0  3  0  0  0  0  0  0
  188.3750  174.8810  140.4150 C   0  0  0  0  0  0  0  0  0  0  0  0
  190.6110  173.6360  141.6250 C   0  0  0  0  0  3  0  0  0  0  0  0
  189.9460  174.5340  142.3690 C   0  0  0  0  0  0  0  0  0  0  0  0
  189.1380  173.8340  139.6970 C   0  0  0  0  0  0  0  0  0  0  0  0
  187.5000  175.5480  139.7960 O   0  0  0  0  0  0  0  0  0  0  0  0
  190.1810  173.2620  140.2820 C   0  0  0  0  0  3  0  0  0  0  0  0
  191.1500  176.0840  143.8090 C   0  0  0  0  0  3  0  0  0  0  0  0
  190.3950  174.0520  144.7470 O   0  0  0  0  0  1  0  0  0  0  0  0
  190.5450  174.9040  143.6550 C   0  0  0  0  0  0  0  0  0  0  0  0
  191.7240  176.5160  145.1130 C   0  0  0  0  0  2  0  0  0  0  0  0
  194.8520  174.7240  146.3020 C   0  0  0  0  0  3  0  0  0  0  0  0
  195.8170  175.2490  145.4350 C   0  0  0  0  0  3  0  0  0  0  0  0
  195.4510  176.1890  144.4510 C   0  0  0  0  0  0  0  0  0  0  0  0
  193.1500  176.0910  145.2310 C   0  0  0  0  0  0  0  0  0  0  0  0
  194.1150  176.6120  144.3530 C   0  0  0  0  0  3  0  0  0  0  0  0
  193.5170  175.1400  146.1990 C   0  0  0  0  0  3  0  0  0  0  0  0
  196.4680  176.6980  143.4650 C   0  0  0  0  0  2  0  0  0  0  0  0
  197.4070  173.4920  140.8480 C   0  0  0  0  0  0  0  0  0  0  0  0
  197.7970  173.9130  138.1050 C   0  0  0  0  0  0  0  0  0  0  0  0
  197.0630  175.6230  142.6560 N   0  0  0  0  0  0  0  0  0  0  0  0
  197.0040  175.9700  141.2090 C   0  0  1  0  0  3  0  0  0  0  0  0
  196.3420  174.3630  142.8890 C   0  0  0  0  0  2  0  0  0  0  0  0
  197.4060  174.8070  140.3320 C   0  0  0  0  0  0  0  0  0  0  0  0
  197.6650  172.4130  140.0010 C   0  0  0  0  0  3  0  0  0  0  0  0
  197.9280  174.1310  136.6450 C   0  0  0  0  0  1  0  0  0  0  0  0
  197.1640  173.2340  142.2950 C   0  0  0  0  0  2  0  0  0  0  0  0
  197.5800  175.0060  138.9560 C   0  0  0  0  0  3  0  0  0  0  0  0
  197.8470  172.6200  138.6270 C   0  0  0  0  0  3  0  0  0  0  0  0
  194.7160  175.6030  140.3920 C   0  0  0  0  0  2  0  0  0  0  0  0
  195.6460  176.4790  140.7720 C   0  0  0  0  0  3  0  0  0  0  0  0
  186.5100  175.8620  143.2130 C   0  0  1  0  0  3  0  0  0  0  0  0
  187.4840  174.8080  142.7790 C   0  0  2  0  0  3  0  0  0  0  0  0
  187.6180  175.5060  144.0010 O   0  0  0  0  0  0  0  0  0  0  0  0
  186.6910  177.2460  142.5840 C   0  0  1  0  0  3  0  0  0  0  0  0
  185.4220  177.5400  141.7920 C   0  0  0  0  0  2  0  0  0  0  0  0
  186.7870  177.9900  144.9220 O   0  0  0  0  0  1  0  0  0  0  0  0
  185.7210  179.3810  143.3190 C   0  0  0  0  0  2  0  0  0  0  0  0
  184.8400  178.7250  142.3860 N   0  0  0  0  0  0  0  0  0  0  0  0
  183.4330  178.8990  142.4950 C   0  0  0  0  0  3  0  0  0  0  0  0
  182.6410  178.2030  141.8060 O   0  0  0  0  0  0  0  0  0  0  0  0
  186.8570  178.4050  143.5880 C   0  0  2  0  0  3  0  0  0  0  0  0
  188.8790  173.5460  138.2530 C   0  0  0  0  0  2  0  0  0  0  0  0
  190.0850  172.8250  137.6750 C   0  0  0  0  0  2  0  0  0  0  0  0
  190.5980  173.5590  136.4550 C   0  0  0  0  0  2  0  0  0  0  0  0
  190.8510  172.5420  135.3530 C   0  0  0  0  0  2  0  0  0  0  0  0
  192.0690  171.6980  135.6950 C   0  0  0  0  0  2  0  0  0  0  0  0
  191.6940  169.4990  134.5130 C   0  0  0  0  0  1  0  0  0  0  0  0
  191.6480  169.6100  136.9940 C   0  0  0  0  0  0  0  0  0  0  0  0
  190.5350  169.4450  137.5520 O   0  0  0  0  0  0  0  0  0  0  0  0
  191.7150  170.2840  135.7400 N   0  0  0  0  0  0  0  0  0  0  0  0
  192.8840  168.9840  137.5630 C   0  0  1  0  0  3  0  0  0  0  0  0
  193.8670  168.8710  136.5760 O   0  0  0  0  0  1  0  0  0  0  0  0
  193.0910  171.0560  138.8310 O   0  0  0  0  0  1  0  0  0  0  0  0
  193.4560  169.6990  138.8010 C   0  0  1  0  0  3  0  0  0  0  0  0
  193.0200  168.9750  140.0750 C   0  0  0  0  0  2  0  0  0  0  0  0
  192.0000  170.1150  142.0610 C   0  0  0  0  0  0  0  0  0  0  0  0
  190.9420  170.3590  142.7110 O   0  0  0  0  0  0  0  0  0  0  0  0
  193.2800  170.2280  142.6980 N   0  0  0  0  0  2  0  0  0  0  0  0
  191.9060  169.6670  140.7080 N   0  0  0  0  0  2  0  0  0  0  0  0
  194.5680  171.4840  144.3180 C   0  0  1  0  0  3  0  0  0  0  0  0
  193.4160  170.5590  144.1060 C   0  0  1  0  0  0  0  0  0  0  0  0
  193.1540  171.9860  144.5510 C   0  0  0  0  0  2  0  0  0  0  0  0
  195.1730  170.9580  145.6000 C   0  0  0  0  0  2  0  0  0  0  0  0
  193.5970  169.4330  145.0930 C   0  0  0  0  0  2  0  0  0  0  0  0
  194.8320  169.6030  145.7510 O   0  0  0  0  0  0  0  0  0  0  0  0
  1  2  1  6  0  0  0
  1  4  1  0  0  0  0
  1 33  1  0  0  0  0
  3  4  2  0  0  0  0
  4 10  1  0  0  0  0
  5  7  2  0  0  0  0
  5  2  1  0  0  0  0
  6  2  2  0  0  0  0
  7  3  1  0  0  0  0
  8 11  1  0  0  0  0
 10  8  2  0  0  0  0
 10  9  1  0  0  0  0
 11 15  1  0  0  0  0
 13 12  2  0  0  0  0
 14 13  1  0  0  0  0
 15 17  2  0  0  0  0
 16 14  2  0  0  0  0
 16 15  1  0  0  0  0
 17 12  1  0  0  0  0
 18 14  1  0  0  0  0
 19 27  1  0  0  0  0
 20 29  2  0  0  0  0
 20 28  1  0  0  0  0
 21 23  1  0  0  0  0
 21 18  1  0  0  0  0
 22 31  1  6  0  0  0
 22 21  1  0  0  0  0
 24 19  1  0  0  0  0
 24 22  1  0  0  0  0
 25 19  2  0  0  0  0
 26 20  1  0  0  0  0
 27 23  1  0  0  0  0
 28 24  2  0  0  0  0
 29 25  1  0  0  0  0
 30 31  2  0  0  0  0
 32 34  1  1  0  0  0
 33 32  1  0  0  0  0
 33 34  1  1  0  0  0
 35 36  1  1  0  0  0
 35 32  1  0  0  0  0
 35 42  1  0  0  0  0
 36 39  1  0  0  0  0
 38 42  1  0  0  0  0
 39 40  1  0  0  0  0
 39 38  1  0  0  0  0
 41 40  2  0  0  0  0
 42 37  1  1  0  0  0
 43  5  1  0  0  0  0
 44 43  1  0  0  0  0
 45 44  1  0  0  0  0
 46 47  1  0  0  0  0
 46 45  1  0  0  0  0
 47 51  1  0  0  0  0
 48 51  1  0  0  0  0
 49 50  2  0  0  0  0
 49 52  1  0  0  0  0
 51 49  1  0  0  0  0
 52 53  1  6  0  0  0
 52 55  1  0  0  0  0
 55 54  1  1  0  0  0
 55 56  1  0  0  0  0
 56 60  1  0  0  0  0
 57 59  1  0  0  0  0
 57 58  2  0  0  0  0
 60 57  1  0  0  0  0
 61 63  1  1  0  0  0
 61 64  1  0  0  0  0
 62 59  1  6  0  0  0
 62 61  1  0  0  0  0
 62 63  1  0  0  0  0
 62 65  1  0  0  0  0
 64 66  1  0  0  0  0
 65 66  1  0  0  0  0
M  END
>  <MODEL>
6

>  <REMARK>
 VINA RESULT:      -6.0      2.425      7.373
  Name = 
  19 active torsions:
  status: ('A' for Active; 'I' for Inactive)
    1  A    between atoms: C_4  and  C_36
    2  A    between atoms: N_7  and  C_29
    3  A    between atoms: C_8  and  C_33
    4  A    between atoms: C_10  and  N_57
    5  A    between atoms: C_13  and  C_16
    6  A    between atoms: C_13  and  C_52
    7  A    between atoms: C_15  and  C_52
    8  A    between atoms: C_15  and  N_64
    9  A    between atoms: C_17  and  C_25
   10  A    between atoms: C_18  and  C_27
   11  A    between atoms: C_21  and  C_38
   12  A    between atoms: C_21  and  N_58
   13  A    between atoms: C_22  and  C_23
   14  A    between atoms: C_29  and  C_32
   15  A    between atoms: C_33  and  C_42
   16  A    between atoms: C_34  and  C_46
   17  A    between atoms: C_34  and  C_51
   18  A    between atoms: C_38  and  C_51
   19  A    between atoms: C_46  and  C_53
                            x       y       z     vdW  Elec       q    Type
                         _______ _______ _______ _____ _____    ______ ____

>  <TORSDO>
F 19

$$$$
=
 OpenBabel11042416193D

 66 73  0  0  1  0  0  0  0  0999 V2000
  188.2940  175.4550  142.4930 C   0  0  2  0  0  3  0  0  0  0  0  0
  188.7290  175.2770  143.9380 C   0  0  0  0  0  0  0  0  0  0  0  0
  190.0700  173.7650  141.9530 C   0  0  0  0  0  3  0  0  0  0  0  0
  189.0400  174.5220  141.5420 C   0  0  0  0  0  0  0  0  0  0  0  0
  189.9140  174.4580  144.2830 C   0  0  0  0  0  0  0  0  0  0  0  0
  188.0410  175.7950  144.8600 O   0  0  0  0  0  0  0  0  0  0  0  0
  190.5280  173.7580  143.3390 C   0  0  0  0  0  3  0  0  0  0  0  0
  189.2670  173.5350  139.3270 C   0  0  0  0  0  3  0  0  0  0  0  0
  187.4400  174.9800  139.7190 O   0  0  0  0  0  1  0  0  0  0  0  0
  188.6070  174.3520  140.1500 C   0  0  0  0  0  0  0  0  0  0  0  0
  188.8270  173.2980  137.9240 C   0  0  0  0  0  2  0  0  0  0  0  0
  189.7730  175.5770  135.0410 C   0  0  0  0  0  3  0  0  0  0  0  0
  191.1620  175.6570  135.1950 C   0  0  0  0  0  3  0  0  0  0  0  0
  191.7990  174.9690  136.2480 C   0  0  0  0  0  0  0  0  0  0  0  0
  189.6440  174.1030  136.9700 C   0  0  0  0  0  0  0  0  0  0  0  0
  191.0370  174.1880  137.1330 C   0  0  0  0  0  3  0  0  0  0  0  0
  189.0120  174.8050  135.9290 C   0  0  0  0  0  3  0  0  0  0  0  0
  193.2810  175.1120  136.4670 C   0  0  0  0  0  2  0  0  0  0  0  0
  195.9070  171.8480  137.1430 C   0  0  0  0  0  0  0  0  0  0  0  0
  196.6110  171.0530  139.7360 C   0  0  0  0  0  0  0  0  0  0  0  0
  193.9560  173.8190  136.6580 N   0  0  0  0  0  0  0  0  0  0  0  0
  194.4130  173.6760  138.0680 C   0  0  1  0  0  3  0  0  0  0  0  0
  195.1110  173.7180  135.7550 C   0  0  0  0  0  2  0  0  0  0  0  0
  195.2950  172.4640  138.2560 C   0  0  0  0  0  0  0  0  0  0  0  0
  196.8120  170.8030  137.3360 C   0  0  0  0  0  3  0  0  0  0  0  0
  197.0380  170.6860  141.1070 C   0  0  0  0  0  1  0  0  0  0  0  0
  195.5820  172.2760  135.7530 C   0  0  0  0  0  2  0  0  0  0  0  0
  195.6690  172.0750  139.5500 C   0  0  0  0  0  3  0  0  0  0  0  0
  197.1760  170.4130  138.6310 C   0  0  0  0  0  3  0  0  0  0  0  0
  194.9190  175.2950  139.8460 C   0  0  0  0  0  2  0  0  0  0  0  0
  195.1330  174.9030  138.5900 C   0  0  0  0  0  3  0  0  0  0  0  0
  187.2670  177.7800  141.8330 C   0  0  1  0  0  3  0  0  0  0  0  0
  188.4780  176.9190  142.0320 C   0  0  2  0  0  3  0  0  0  0  0  0
  187.8510  177.0630  140.7740 O   0  0  0  0  0  0  0  0  0  0  0  0
  185.9280  177.1670  142.2530 C   0  0  1  0  0  3  0  0  0  0  0  0
  185.7270  177.5150  143.7240 C   0  0  0  0  0  2  0  0  0  0  0  0
  185.0120  178.7030  140.5710 O   0  0  0  0  0  1  0  0  0  0  0  0
  183.7720  178.3040  142.5560 C   0  0  0  0  0  2  0  0  0  0  0  0
  184.5170  178.3070  143.7900 N   0  0  0  0  0  0  0  0  0  0  0  0
  184.3730  179.3850  144.7050 C   0  0  0  0  0  3  0  0  0  0  0  0
  185.1380  179.4960  145.6990 O   0  0  0  0  0  0  0  0  0  0  0  0
  184.6950  177.7100  141.5030 C   0  0  2  0  0  3  0  0  0  0  0  0
  190.3150  174.2460  145.7070 C   0  0  0  0  0  2  0  0  0  0  0  0
  191.5930  175.0220  145.9750 C   0  0  0  0  0  2  0  0  0  0  0  0
  191.6740  176.2280  145.0630 C   0  0  0  0  0  2  0  0  0  0  0  0
  193.1410  176.5330  144.8000 C   0  0  0  0  0  2  0  0  0  0  0  0
  193.7100  175.5300  143.8070 C   0  0  0  0  0  2  0  0  0  0  0  0
  195.2780  175.1180  145.7410 C   0  0  0  0  0  1  0  0  0  0  0  0
  195.1430  173.4890  143.8710 C   0  0  0  0  0  0  0  0  0  0  0  0
  196.1390  173.4110  143.1100 O   0  0  0  0  0  0  0  0  0  0  0  0
  194.7760  174.7500  144.4250 N   0  0  0  0  0  0  0  0  0  0  0  0
  194.4250  172.2510  144.3140 C   0  0  1  0  0  3  0  0  0  0  0  0
  193.7120  172.5010  145.4900 O   0  0  0  0  0  1  0  0  0  0  0  0
  193.4170  172.4340  142.1020 O   0  0  0  0  0  1  0  0  0  0  0  0
  193.4980  171.6310  143.2530 C   0  0  1  0  0  3  0  0  0  0  0  0
  193.9610  170.2130  142.9140 C   0  0  0  0  0  2  0  0  0  0  0  0
  192.2330  168.9640  141.5960 C   0  0  0  0  0  0  0  0  0  0  0  0
  191.0560  168.4990  141.5710 O   0  0  0  0  0  0  0  0  0  0  0  0
  192.9400  169.2080  140.3720 N   0  0  0  0  0  2  0  0  0  0  0  0
  192.8280  169.3010  142.8500 N   0  0  0  0  0  2  0  0  0  0  0  0
  192.0360  170.3020  138.4110 C   0  0  1  0  0  3  0  0  0  0  0  0
  192.3270  168.9970  139.0710 C   0  0  1  0  0  0  0  0  0  0  0  0
  193.0990  169.3900  137.8260 C   0  0  0  0  0  2  0  0  0  0  0  0
  190.6920  170.0470  137.7690 C   0  0  0  0  0  2  0  0  0  0  0  0
  191.0490  168.1980  139.0020 C   0  0  0  0  0  2  0  0  0  0  0  0
  190.0350  169.0150  138.4620 O   0  0  0  0  0  0  0  0  0  0  0  0
  1  4  1  6  0  0  0
  1  2  1  0  0  0  0
  2  5  1  0  0  0  0
  2  6  2  0  0  0  0
  3  7  1  0  0  0  0
  4  3  2  0  0  0  0
  5 43  1  0  0  0  0
  7  5  2  0  0  0  0
  8 10  2  0  0  0  0
  9 10  1  0  0  0  0
 10  4  1  0  0  0  0
 11  8  1  0  0  0  0
 12 13  2  0  0  0  0
 12 17  1  0  0  0  0
 13 14  1  0  0  0  0
 14 18  1  0  0  0  0
 14 16  2  0  0  0  0
 15 16  1  0  0  0  0
 15 11  1  0  0  0  0
 17 15  2  0  0  0  0
 18 21  1  0  0  0  0
 19 25  2  0  0  0  0
 19 24  1  0  0  0  0
 20 26  1  0  0  0  0
 21 22  1  0  0  0  0
 22 24  1  0  0  0  0
 22 31  1  6  0  0  0
 23 21  1  0  0  0  0
 24 28  2  0  0  0  0
 25 29  1  0  0  0  0
 27 23  1  0  0  0  0
 27 19  1  0  0  0  0
 28 20  1  0  0  0  0
 29 20  2  0  0  0  0
 31 30  2  0  0  0  0
 32 34  1  6  0  0  0
 32 33  1  0  0  0  0
 32 35  1  0  0  0  0
 33 34  1  6  0  0  0
 33  1  1  0  0  0  0
 35 36  1  1  0  0  0
 36 39  1  0  0  0  0
 38 39  1  0  0  0  0
 39 40  1  0  0  0  0
 40 41  2  0  0  0  0
 42 37  1  6  0  0  0
 42 35  1  0  0  0  0
 42 38  1  0  0  0  0
 43 44  1  0  0  0  0
 45 44  1  0  0  0  0
 46 45  1  0  0  0  0
 47 51  1  0  0  0  0
 47 46  1  0  0  0  0
 49 52  1  0  0  0  0
 49 51  1  0  0  0  0
 50 49  2  0  0  0  0
 51 48  1  0  0  0  0
 52 53  1  1  0  0  0
 55 54  1  6  0  0  0
 55 52  1  0  0  0  0
 56 55  1  0  0  0  0
 57 60  1  0  0  0  0
 58 57  2  0  0  0  0
 59 57  1  0  0  0  0
 60 56  1  0  0  0  0
 61 64  1  6  0  0  0
 61 62  1  0  0  0  0
 62 59  1  1  0  0  0
 63 61  1  0  0  0  0
 63 62  1  0  0  0  0
 64 66  1  0  0  0  0
 65 62  1  0  0  0  0
 66 65  1  0  0  0  0
M  END
>  <MODEL>
7

>  <REMARK>
 VINA RESULT:      -5.5      2.159      4.799
  Name = 
  19 active torsions:
  status: ('A' for Active; 'I' for Inactive)
    1  A    between atoms: C_4  and  C_36
    2  A    between atoms: N_7  and  C_29
    3  A    between atoms: C_8  and  C_33
    4  A    between atoms: C_10  and  N_57
    5  A    between atoms: C_13  and  C_16
    6  A    between atoms: C_13  and  C_52
    7  A    between atoms: C_15  and  C_52
    8  A    between atoms: C_15  and  N_64
    9  A    between atoms: C_17  and  C_25
   10  A    between atoms: C_18  and  C_27
   11  A    between atoms: C_21  and  C_38
   12  A    between atoms: C_21  and  N_58
   13  A    between atoms: C_22  and  C_23
   14  A    between atoms: C_29  and  C_32
   15  A    between atoms: C_33  and  C_42
   16  A    between atoms: C_34  and  C_46
   17  A    between atoms: C_34  and  C_51
   18  A    between atoms: C_38  and  C_51
   19  A    between atoms: C_46  and  C_53
                            x       y       z     vdW  Elec       q    Type
                         _______ _______ _______ _____ _____    ______ ____

>  <TORSDO>
F 19

$$$$
=
 OpenBabel11042416193D

 66 73  0  0  1  0  0  0  0  0999 V2000
  188.7820  175.8290  142.7790 C   0  0  2  0  0  3  0  0  0  0  0  0
  189.6740  174.8270  142.0660 C   0  0  0  0  0  0  0  0  0  0  0  0
  187.2590  175.5900  140.7980 C   0  0  0  0  0  3  0  0  0  0  0  0
  187.4780  176.0860  142.0260 C   0  0  0  0  0  0  0  0  0  0  0  0
  189.3690  174.3800  140.6870 C   0  0  0  0  0  0  0  0  0  0  0  0
  190.6610  174.3330  142.6760 O   0  0  0  0  0  0  0  0  0  0  0  0
  188.2340  174.7490  140.1110 C   0  0  0  0  0  3  0  0  0  0  0  0
  185.7320  177.7820  141.9820 C   0  0  0  0  0  3  0  0  0  0  0  0
  185.9350  176.4460  143.9190 O   0  0  0  0  0  1  0  0  0  0  0  0
  186.3730  176.8220  142.6510 C   0  0  0  0  0  0  0  0  0  0  0  0
  184.5730  178.5150  142.5640 C   0  0  0  0  0  2  0  0  0  0  0  0
  180.9350  178.5210  141.4840 C   0  0  0  0  0  3  0  0  0  0  0  0
  181.0120  177.8670  140.2480 C   0  0  0  0  0  3  0  0  0  0  0  0
  182.2570  177.4240  139.7580 C   0  0  0  0  0  0  0  0  0  0  0  0
  183.3380  178.2740  141.7630 C   0  0  0  0  0  0  0  0  0  0  0  0
  183.4200  177.6260  140.5200 C   0  0  0  0  0  3  0  0  0  0  0  0
  182.0960  178.7290  142.2410 C   0  0  0  0  0  3  0  0  0  0  0  0
  182.3590  176.7920  138.3950 C   0  0  0  0  0  2  0  0  0  0  0  0
  179.3790  174.1550  136.9180 C   0  0  0  0  0  0  0  0  0  0  0  0
  180.0580  171.7800  135.5940 C   0  0  0  0  0  0  0  0  0  0  0  0
  181.3130  175.7850  138.1560 N   0  0  0  0  0  0  0  0  0  0  0  0
  181.8300  174.6990  137.2780 C   0  0  1  0  0  3  0  0  0  0  0  0
  180.1460  176.4150  137.5220 C   0  0  0  0  0  2  0  0  0  0  0  0
  180.7320  173.7600  136.8340 C   0  0  0  0  0  0  0  0  0  0  0  0
  178.3810  173.3310  136.3970 C   0  0  0  0  0  3  0  0  0  0  0  0
  180.4240  170.5640  134.8300 C   0  0  0  0  0  1  0  0  0  0  0  0
  178.9920  175.4320  137.5810 C   0  0  0  0  0  2  0  0  0  0  0  0
  181.0650  172.5820  136.1520 C   0  0  0  0  0  3  0  0  0  0  0  0
  178.7180  172.1500  135.7240 C   0  0  0  0  0  3  0  0  0  0  0  0
  181.9520  175.2130  134.8790 C   0  0  0  0  0  2  0  0  0  0  0  0
  182.5680  175.2160  136.0610 C   0  0  0  0  0  3  0  0  0  0  0  0
  190.1810  177.4210  144.3300 C   0  0  1  0  0  3  0  0  0  0  0  0
  189.5200  177.1680  143.0090 C   0  0  2  0  0  3  0  0  0  0  0  0
  188.8700  177.8500  144.0620 O   0  0  0  0  0  0  0  0  0  0  0  0
  190.1950  176.2450  145.3120 C   0  0  1  0  0  3  0  0  0  0  0  0
  191.6490  175.8100  145.4560 C   0  0  0  0  0  2  0  0  0  0  0  0
  189.3310  177.9140  146.8920 O   0  0  0  0  0  1  0  0  0  0  0  0
  190.8420  176.2610  147.6820 C   0  0  0  0  0  2  0  0  0  0  0  0
  191.9880  175.9900  146.8520 N   0  0  0  0  0  0  0  0  0  0  0  0
  193.2800  176.4190  147.2630 C   0  0  0  0  0  3  0  0  0  0  0  0
  194.2630  176.3510  146.4780 O   0  0  0  0  0  0  0  0  0  0  0  0
  189.6940  176.5730  146.7330 C   0  0  2  0  0  3  0  0  0  0  0  0
  190.2220  173.3610  140.0020 C   0  0  0  0  0  2  0  0  0  0  0  0
  189.8150  173.2860  138.5410 C   0  0  0  0  0  2  0  0  0  0  0  0
  190.8490  172.5150  137.7480 C   0  0  0  0  0  2  0  0  0  0  0  0
  192.2270  172.8660  138.2870 C   0  0  0  0  0  2  0  0  0  0  0  0
  193.2330  172.9180  137.1460 C   0  0  0  0  0  2  0  0  0  0  0  0
  193.6030  175.4150  137.1210 C   0  0  0  0  0  1  0  0  0  0  0  0
  195.4120  173.8900  137.8770 C   0  0  0  0  0  0  0  0  0  0  0  0
  196.4160  173.7820  137.1310 O   0  0  0  0  0  0  0  0  0  0  0  0
  194.1200  174.0650  137.3000 N   0  0  0  0  0  0  0  0  0  0  0  0
  195.5740  173.9770  139.3640 C   0  0  1  0  0  3  0  0  0  0  0  0
  196.3900  172.9400  139.8230 O   0  0  0  0  0  1  0  0  0  0  0  0
  195.0790  176.0960  140.4630 O   0  0  0  0  0  1  0  0  0  0  0  0
  196.1010  175.3310  139.8750 C   0  0  1  0  0  3  0  0  0  0  0  0
  197.2630  175.1110  140.8440 C   0  0  0  0  0  2  0  0  0  0  0  0
  196.7060  175.5940  143.2400 C   0  0  0  0  0  0  0  0  0  0  0  0
  196.2830  176.4460  144.0750 O   0  0  0  0  0  0  0  0  0  0  0  0
  196.6510  174.1940  143.5460 N   0  0  0  0  0  2  0  0  0  0  0  0
  197.1810  176.0350  141.9680 N   0  0  0  0  0  2  0  0  0  0  0  0
  196.8060  172.4990  145.2670 C   0  0  1  0  0  3  0  0  0  0  0  0
  196.0610  173.6940  144.7770 C   0  0  1  0  0  0  0  0  0  0  0  0
  196.8600  173.7900  146.0630 C   0  0  0  0  0  2  0  0  0  0  0  0
  195.6930  171.6040  145.7620 C   0  0  0  0  0  2  0  0  0  0  0  0
  194.6040  173.3050  144.7660 C   0  0  0  0  0  2  0  0  0  0  0  0
  194.5000  171.9380  145.0970 O   0  0  0  0  0  0  0  0  0  0  0  0
  1  4  1  6  0  0  0
  1 33  1  0  0  0  0
  2  6  2  0  0  0  0
  2  1  1  0  0  0  0
  3  4  2  0  0  0  0
  4 10  1  0  0  0  0
  5  2  1  0  0  0  0
  7  5  2  0  0  0  0
  7  3  1  0  0  0  0
  8 11  1  0  0  0  0
  8 10  2  0  0  0  0
 10  9  1  0  0  0  0
 12 17  1  0  0  0  0
 13 12  2  0  0  0  0
 14 13  1  0  0  0  0
 14 16  2  0  0  0  0
 15 17  2  0  0  0  0
 15 11  1  0  0  0  0
 16 15  1  0  0  0  0
 18 14  1  0  0  0  0
 19 27  1  0  0  0  0
 20 29  2  0  0  0  0
 20 28  1  0  0  0  0
 21 18  1  0  0  0  0
 22 31  1  6  0  0  0
 22 21  1  0  0  0  0
 23 27  1  0  0  0  0
 23 21  1  0  0  0  0
 24 19  1  0  0  0  0
 24 22  1  0  0  0  0
 25 19  2  0  0  0  0
 26 20  1  0  0  0  0
 28 24  2  0  0  0  0
 29 25  1  0  0  0  0
 30 31  2  0  0  0  0
 32 34  1  1  0  0  0
 32 35  1  0  0  0  0
 33 34  1  1  0  0  0
 33 32  1  0  0  0  0
 35 36  1  1  0  0  0
 35 42  1  0  0  0  0
 36 39  1  0  0  0  0
 39 40  1  0  0  0  0
 39 38  1  0  0  0  0
 41 40  2  0  0  0  0
 42 37  1  6  0  0  0
 42 38  1  0  0  0  0
 43  5  1  0  0  0  0
 44 43  1  0  0  0  0
 45 46  1  0  0  0  0
 45 44  1  0  0  0  0
 47 51  1  0  0  0  0
 47 46  1  0  0  0  0
 48 51  1  0  0  0  0
 49 52  1  0  0  0  0
 50 49  2  0  0  0  0
 51 49  1  0  0  0  0
 52 53  1  6  0  0  0
 52 55  1  0  0  0  0
 55 54  1  1  0  0  0
 55 56  1  0  0  0  0
 56 60  1  0  0  0  0
 57 59  1  0  0  0  0
 57 58  2  0  0  0  0
 60 57  1  0  0  0  0
 61 64  1  1  0  0  0
 61 63  1  0  0  0  0
 62 59  1  6  0  0  0
 62 61  1  0  0  0  0
 62 63  1  0  0  0  0
 65 62  1  0  0  0  0
 65 66  1  0  0  0  0
 66 64  1  0  0  0  0
M  END
>  <MODEL>
8

>  <REMARK>
 VINA RESULT:      -5.0      4.088     10.443
  Name = 
  19 active torsions:
  status: ('A' for Active; 'I' for Inactive)
    1  A    between atoms: C_4  and  C_36
    2  A    between atoms: N_7  and  C_29
    3  A    between atoms: C_8  and  C_33
    4  A    between atoms: C_10  and  N_57
    5  A    between atoms: C_13  and  C_16
    6  A    between atoms: C_13  and  C_52
    7  A    between atoms: C_15  and  C_52
    8  A    between atoms: C_15  and  N_64
    9  A    between atoms: C_17  and  C_25
   10  A    between atoms: C_18  and  C_27
   11  A    between atoms: C_21  and  C_38
   12  A    between atoms: C_21  and  N_58
   13  A    between atoms: C_22  and  C_23
   14  A    between atoms: C_29  and  C_32
   15  A    between atoms: C_33  and  C_42
   16  A    between atoms: C_34  and  C_46
   17  A    between atoms: C_34  and  C_51
   18  A    between atoms: C_38  and  C_51
   19  A    between atoms: C_46  and  C_53
                            x       y       z     vdW  Elec       q    Type
                         _______ _______ _______ _____ _____    ______ ____

>  <TORSDO>
F 19

$$$$
=
 OpenBabel11042416193D

 66 73  0  0  1  0  0  0  0  0999 V2000
  190.3560  175.7120  145.3500 C   0  0  2  0  0  3  0  0  0  0  0  0
  188.8810  176.0650  145.2690 C   0  0  0  0  0  0  0  0  0  0  0  0
  190.6460  177.3250  143.4480 C   0  0  0  0  0  3  0  0  0  0  0  0
  191.2020  176.5230  144.3700 C   0  0  0  0  0  0  0  0  0  0  0  0
  188.3580  176.9210  144.1800 C   0  0  0  0  0  0  0  0  0  0  0  0
  188.0980  175.6620  146.1730 O   0  0  0  0  0  0  0  0  0  0  0  0
  189.2010  177.5010  143.3370 C   0  0  0  0  0  3  0  0  0  0  0  0
  193.4010  175.9990  143.4670 C   0  0  0  0  0  3  0  0  0  0  0  0
  193.2900  177.1580  145.5220 O   0  0  0  0  0  1  0  0  0  0  0  0
  192.6670  176.5220  144.4510 C   0  0  0  0  0  0  0  0  0  0  0  0
  194.8910  176.0260  143.4900 C   0  0  0  0  0  2  0  0  0  0  0  0
  196.5730  173.7080  145.9800 C   0  0  0  0  0  3  0  0  0  0  0  0
  196.4170  172.4670  145.3520 C   0  0  0  0  0  3  0  0  0  0  0  0
  195.7550  172.3800  144.1110 C   0  0  0  0  0  0  0  0  0  0  0  0
  195.4320  174.7890  144.1250 C   0  0  0  0  0  0  0  0  0  0  0  0
  195.2660  173.5440  143.4960 C   0  0  0  0  0  3  0  0  0  0  0  0
  196.0780  174.8700  145.3710 C   0  0  0  0  0  3  0  0  0  0  0  0
  195.5150  171.0400  143.4670 C   0  0  0  0  0  2  0  0  0  0  0  0
  194.1380  170.5400  139.4840 C   0  0  0  0  0  0  0  0  0  0  0  0
  191.5240  169.6900  138.9390 C   0  0  0  0  0  0  0  0  0  0  0  0
  195.0000  171.1530  142.0930 N   0  0  0  0  0  0  0  0  0  0  0  0
  193.6800  170.4750  141.9770 C   0  0  1  0  0  3  0  0  0  0  0  0
  195.9500  170.5440  141.1510 C   0  0  0  0  0  2  0  0  0  0  0  0
  193.2170  170.3800  140.5420 C   0  0  0  0  0  0  0  0  0  0  0  0
  193.7260  170.3350  138.1660 C   0  0  0  0  0  3  0  0  0  0  0  0
  190.1650  169.1680  138.6590 C   0  0  0  0  0  1  0  0  0  0  0  0
  195.5460  170.9530  139.7470 C   0  0  0  0  0  2  0  0  0  0  0  0
  191.9180  169.9340  140.2620 C   0  0  0  0  0  3  0  0  0  0  0  0
  192.4240  169.8970  137.8920 C   0  0  0  0  0  3  0  0  0  0  0  0
  192.8040  168.8400  143.5890 C   0  0  0  0  0  2  0  0  0  0  0  0
  193.6600  169.0940  142.6000 C   0  0  0  0  0  3  0  0  0  0  0  0
  190.1220  173.5980  143.8100 C   0  0  1  0  0  3  0  0  0  0  0  0
  190.5820  174.2030  145.1020 C   0  0  2  0  0  3  0  0  0  0  0  0
  189.3170  173.5890  144.9620 O   0  0  0  0  0  0  0  0  0  0  0  0
  189.5880  174.5770  142.7610 C   0  0  1  0  0  3  0  0  0  0  0  0
  190.6250  174.6350  141.6450 C   0  0  0  0  0  2  0  0  0  0  0  0
  187.7720  172.9370  142.5580 O   0  0  0  0  0  1  0  0  0  0  0  0
  188.5290  174.0560  140.6050 C   0  0  0  0  0  2  0  0  0  0  0  0
  189.9570  174.1740  140.4460 N   0  0  0  0  0  0  0  0  0  0  0  0
  190.6290  173.3990  139.4620 C   0  0  0  0  0  3  0  0  0  0  0  0
  191.8870  173.3540  139.4220 O   0  0  0  0  0  0  0  0  0  0  0  0
  188.2570  174.1650  142.0990 C   0  0  2  0  0  3  0  0  0  0  0  0
  186.9150  177.3050  144.1260 C   0  0  0  0  0  2  0  0  0  0  0  0
  186.6350  177.9710  142.7900 C   0  0  0  0  0  2  0  0  0  0  0  0
  185.2960  178.6770  142.8270 C   0  0  0  0  0  2  0  0  0  0  0  0
  184.4000  178.0630  141.7620 C   0  0  0  0  0  2  0  0  0  0  0  0
  182.9380  178.2880  142.1210 C   0  0  0  0  0  2  0  0  0  0  0  0
  182.4900  177.5390  139.7530 C   0  0  0  0  0  1  0  0  0  0  0  0
  180.8260  178.9320  140.9610 C   0  0  0  0  0  0  0  0  0  0  0  0
  180.6750  180.1140  140.5640 O   0  0  0  0  0  0  0  0  0  0  0  0
  182.1180  178.3320  140.9170 N   0  0  0  0  0  0  0  0  0  0  0  0
  179.6390  178.1030  141.3470 C   0  0  1  0  0  3  0  0  0  0  0  0
  179.1650  178.4910  142.6020 O   0  0  0  0  0  1  0  0  0  0  0  0
  178.5800  179.2070  139.4480 O   0  0  0  0  0  1  0  0  0  0  0  0
  178.4900  178.1090  140.3220 C   0  0  1  0  0  3  0  0  0  0  0  0
  178.4610  176.7860  139.5560 C   0  0  0  0  0  2  0  0  0  0  0  0
  179.1470  175.9410  137.2980 C   0  0  0  0  0  0  0  0  0  0  0  0
  179.7000  176.2120  136.1920 O   0  0  0  0  0  0  0  0  0  0  0  0
  179.0330  174.5800  137.7340 N   0  0  0  0  0  2  0  0  0  0  0  0
  178.6940  177.0050  138.1350 N   0  0  0  0  0  2  0  0  0  0  0  0
  178.5200  172.5110  136.5850 C   0  0  1  0  0  3  0  0  0  0  0  0
  179.5910  173.4750  136.9720 C   0  0  1  0  0  0  0  0  0  0  0  0
  179.2140  173.3290  135.5100 C   0  0  0  0  0  2  0  0  0  0  0  0
  179.2040  171.1760  136.7740 C   0  0  0  0  0  2  0  0  0  0  0  0
  180.6880  172.6520  137.6030 C   0  0  0  0  0  2  0  0  0  0  0  0
  180.2470  171.3170  137.7050 O   0  0  0  0  0  0  0  0  0  0  0  0
  1  4  1  6  0  0  0
  2  1  1  0  0  0  0
  2  6  2  0  0  0  0
  3  4  2  0  0  0  0
  4 10  1  0  0  0  0
  5  2  1  0  0  0  0
  7  3  1  0  0  0  0
  7  5  2  0  0  0  0
  8 11  1  0  0  0  0
  8 10  2  0  0  0  0
 10  9  1  0  0  0  0
 11 15  1  0  0  0  0
 13 12  2  0  0  0  0
 14 13  1  0  0  0  0
 15 17  2  0  0  0  0
 16 14  2  0  0  0  0
 16 15  1  0  0  0  0
 17 12  1  0  0  0  0
 18 14  1  0  0  0  0
 19 27  1  0  0  0  0
 19 24  1  0  0  0  0
 20 28  1  0  0  0  0
 21 18  1  0  0  0  0
 22 21  1  0  0  0  0
 22 31  1  6  0  0  0
 23 21  1  0  0  0  0
 24 22  1  0  0  0  0
 25 19  2  0  0  0  0
 26 20  1  0  0  0  0
 27 23  1  0  0  0  0
 28 24  2  0  0  0  0
 29 25  1  0  0  0  0
 29 20  2  0  0  0  0
 31 30  2  0  0  0  0
 32 34  1  1  0  0  0
 32 33  1  0  0  0  0
 33 34  1  1  0  0  0
 33  1  1  0  0  0  0
 35 36  1  6  0  0  0
 35 32  1  0  0  0  0
 38 42  1  0  0  0  0
 39 38  1  0  0  0  0
 39 36  1  0  0  0  0
 40 39  1  0  0  0  0
 41 40  2  0  0  0  0
 42 37  1  1  0  0  0
 42 35  1  0  0  0  0
 43  5  1  0  0  0  0
 44 45  1  0  0  0  0
 44 43  1  0  0  0  0
 46 47  1  0  0  0  0
 46 45  1  0  0  0  0
 48 51  1  0  0  0  0
 49 52  1  0  0  0  0
 50 49  2  0  0  0  0
 51 49  1  0  0  0  0
 51 47  1  0  0  0  0
 52 53  1  1  0  0  0
 55 54  1  6  0  0  0
 55 52  1  0  0  0  0
 56 55  1  0  0  0  0
 57 59  1  0  0  0  0
 57 60  1  0  0  0  0
 58 57  2  0  0  0  0
 60 56  1  0  0  0  0
 61 63  1  6  0  0  0
 61 64  1  0  0  0  0
 61 62  1  0  0  0  0
 62 65  1  0  0  0  0
 62 59  1  1  0  0  0
 63 62  1  0  0  0  0
 64 66  1  0  0  0  0
 65 66  1  0  0  0  0
M  END
>  <MODEL>
9

>  <REMARK>
 VINA RESULT:      -4.9      4.170     10.189
  Name = 
  19 active torsions:
  status: ('A' for Active; 'I' for Inactive)
    1  A    between atoms: C_4  and  C_36
    2  A    between atoms: N_7  and  C_29
    3  A    between atoms: C_8  and  C_33
    4  A    between atoms: C_10  and  N_57
    5  A    between atoms: C_13  and  C_16
    6  A    between atoms: C_13  and  C_52
    7  A    between atoms: C_15  and  C_52
    8  A    between atoms: C_15  and  N_64
    9  A    between atoms: C_17  and  C_25
   10  A    between atoms: C_18  and  C_27
   11  A    between atoms: C_21  and  C_38
   12  A    between atoms: C_21  and  N_58
   13  A    between atoms: C_22  and  C_23
   14  A    between atoms: C_29  and  C_32
   15  A    between atoms: C_33  and  C_42
   16  A    between atoms: C_34  and  C_46
   17  A    between atoms: C_34  and  C_51
   18  A    between atoms: C_38  and  C_51
   19  A    between atoms: C_46  and  C_53
                            x       y       z     vdW  Elec       q    Type
                         _______ _______ _______ _____ _____    ______ ____

>  <TORSDO>
F 19

$$$$
