=
 OpenBabel11042416263D

 38 44  0  0  1  0  0  0  0  0999 V2000
  189.5250  171.2700  139.0620 C   0  0  0  0  0  2  0  0  0  0  0  0
  189.3360  174.8940  141.3280 C   0  0  1  0  0  3  0  0  0  0  0  0
  190.2660  175.0900  143.6440 C   0  0  0  0  0  3  0  0  0  0  0  0
  190.0190  172.5280  138.3460 C   0  0  2  0  0  3  0  0  0  0  0  0
  191.4020  176.7800  147.7950 C   0  0  0  0  0  3  0  0  0  0  0  0
  190.7710  174.4620  144.8990 C   0  0  0  0  0  0  0  0  0  0  0  0
  190.7220  175.4640  146.0200 C   0  0  0  0  0  0  0  0  0  0  0  0
  189.7930  172.5360  141.1420 N   0  0  0  0  0  0  0  0  0  0  0  0
  191.4560  172.3350  142.8860 C   0  0  0  0  0  3  0  0  0  0  0  0
  190.4450  173.0020  142.3130 C   0  0  0  0  0  0  0  0  0  0  0  0
  189.5530  176.1530  146.4200 N   0  0  0  0  0  0  0  0  0  0  0  0
  190.0950  174.3940  142.5210 C   0  0  0  0  0  0  0  0  0  0  0  0
  193.2690  174.2540  145.6150 C   0  0  0  0  0  0  0  0  0  0  0  0
  189.6180  173.8360  139.0530 C   0  0  0  0  0  2  0  0  0  0  0  0
  189.9060  177.0160  147.5410 C   0  0  0  0  0  3  0  0  0  0  0  0
  193.0810  175.1720  146.5670 C   0  0  0  0  0  3  0  0  0  0  0  0
  189.5480  172.5410  137.0340 O   0  0  0  0  0  1  0  0  0  0  0  0
  189.0890  173.6340  140.4770 C   0  0  2  0  0  3  0  0  0  0  0  0
  190.0530  171.2520  140.4930 C   0  0  0  0  0  2  0  0  0  0  0  0
  192.1460  173.8380  144.7250 C   0  0  0  0  0  0  0  0  0  0  0  0
  191.7610  175.7790  146.7590 C   0  0  0  0  0  0  0  0  0  0  0  0
  192.3480  172.8640  143.8830 N   0  0  0  0  0  0  0  0  0  0  0  0
  188.0290  175.5250  141.7180 C   0  0  0  0  0  0  0  0  0  0  0  0
  187.1750  174.8750  142.3070 O   0  0  0  0  0  0  0  0  0  0  0  0
  187.0610  177.1490  140.1070 C   0  0  0  0  0  2  0  0  0  0  0  0
  186.9340  177.6130  142.4670 C   0  0  0  0  0  2  0  0  0  0  0  0
  187.8050  176.9730  141.4080 C   0  0  1  0  0  3  0  0  0  0  0  0
  185.9760  178.4770  141.7900 N   0  0  0  0  0  0  0  0  0  0  0  0
  185.7940  177.8950  140.4680 C   0  0  0  0  0  2  0  0  0  0  0  0
  184.7060  178.3460  142.4850 C   0  0  0  0  0  2  0  0  0  0  0  0
  184.8970  177.5860  143.7870 C   0  0  0  0  0  2  0  0  0  0  0  0
  184.3470  178.3180  144.8460 O   0  0  0  0  0  0  0  0  0  0  0  0
  185.7530  179.0890  146.5010 O   0  0  0  0  0  0  0  0  0  0  0  0
  185.0780  177.9680  145.9890 C   0  0  1  0  0  0  0  0  0  0  0  0
  184.6930  178.5800  147.2790 C   0  0  0  0  0  2  0  0  0  0  0  0
  185.9990  176.7610  145.9440 C   0  0  0  0  0  1  0  0  0  0  0  0
  195.6360  173.2200  145.3430 N   0  0  0  0  0  0  0  0  0  0  0  0
  194.5810  173.6810  145.4640 C   0  0  0  0  0  0  0  0  0  0  0  0
  1 19  1  0  0  0  0
  2 23  1  1  0  0  0
  2 12  1  0  0  0  0
  3  6  1  0  0  0  0
  4 17  1  6  0  0  0
  4 14  1  0  0  0  0
  4  1  1  0  0  0  0
  6  7  2  0  0  0  0
  7 11  1  0  0  0  0
  7 21  1  0  0  0  0
  8 10  1  0  0  0  0
  9 22  1  0  0  0  0
 10 12  1  0  0  0  0
 10  9  2  0  0  0  0
 11 15  2  0  0  0  0
 12  3  2  0  0  0  0
 13 16  2  0  0  0  0
 15  5  1  0  0  0  0
 16 21  1  0  0  0  0
 18 14  1  6  0  0  0
 18  8  1  0  0  0  0
 18  2  1  0  0  0  0
 19  8  1  0  0  0  0
 20  6  1  0  0  0  0
 20 13  1  0  0  0  0
 21  5  2  0  0  0  0
 22 20  2  0  0  0  0
 23 24  2  0  0  0  0
 25 29  1  0  0  0  0
 25 27  1  0  0  0  0
 27 23  1  1  0  0  0
 27 26  1  0  0  0  0
 28 26  1  0  0  0  0
 28 30  1  0  0  0  0
 29 28  1  0  0  0  0
 30 31  1  0  0  0  0
 31 32  1  0  0  0  0
 32 34  1  0  0  0  0
 33 35  1  0  0  0  0
 34 36  1  1  0  0  0
 34 33  1  0  0  0  0
 34 35  1  0  0  0  0
 37 38  3  0  0  0  0
 38 13  1  0  0  0  0
M  END
>  <MODEL>
1

>  <REMARK>
 VINA RESULT:      -7.6      0.000      0.000
  Name = 
  7 active torsions:
  status: ('A' for Active; 'I' for Inactive)
    1  A    between atoms: C_3  and  C_14
    2  A    between atoms: C_13  and  O_34
    3  A    between atoms: C_14  and  C_17
    4  A    between atoms: C_15  and  C_29
    5  A    between atoms: C_15  and  N_36
    6  A    between atoms: C_21  and  C_33
    7  A    between atoms: C_29  and  O_34
                            x       y       z     vdW  Elec       q    Type
                         _______ _______ _______ _____ _____    ______ ____

>  <TORSDO>
F 7

$$$$
=
 OpenBabel11042416263D

 38 44  0  0  1  0  0  0  0  0999 V2000
  192.6730  176.4060  146.7670 C   0  0  0  0  0  2  0  0  0  0  0  0
  189.8340  175.6920  143.6480 C   0  0  1  0  0  3  0  0  0  0  0  0
  190.2160  174.0130  141.8300 C   0  0  0  0  0  3  0  0  0  0  0  0
  191.2350  176.1520  147.2220 C   0  0  2  0  0  3  0  0  0  0  0  0
  189.6550  171.4630  138.0140 C   0  0  0  0  0  3  0  0  0  0  0  0
  191.1270  173.1250  141.0520 C   0  0  0  0  0  0  0  0  0  0  0  0
  190.4770  172.7540  139.7470 C   0  0  0  0  0  0  0  0  0  0  0  0
  192.0110  175.3980  144.6340 N   0  0  0  0  0  0  0  0  0  0  0  0
  192.5660  173.2420  143.6900 C   0  0  0  0  0  3  0  0  0  0  0  0
  191.8400  174.3680  143.6730 C   0  0  0  0  0  0  0  0  0  0  0  0
  190.0090  173.6910  138.7970 N   0  0  0  0  0  0  0  0  0  0  0  0
  190.5870  174.5820  142.9760 C   0  0  0  0  0  0  0  0  0  0  0  0
  191.3470  170.5420  141.3160 C   0  0  0  0  0  0  0  0  0  0  0  0
  190.2040  176.2450  146.0840 C   0  0  0  0  0  2  0  0  0  0  0  0
  189.4640  172.9470  137.6680 C   0  0  0  0  0  3  0  0  0  0  0  0
  190.7420  170.3610  140.1390 C   0  0  0  0  0  3  0  0  0  0  0  0
  190.8960  177.0460  148.2360 O   0  0  0  0  0  1  0  0  0  0  0  0
  190.8260  176.2550  144.6830 C   0  0  2  0  0  3  0  0  0  0  0  0
  193.0460  175.4170  145.6670 C   0  0  0  0  0  2  0  0  0  0  0  0
  191.5810  171.9140  141.8500 C   0  0  0  0  0  0  0  0  0  0  0  0
  190.3050  171.5140  139.3480 C   0  0  0  0  0  0  0  0  0  0  0  0
  192.2690  172.0450  142.9490 N   0  0  0  0  0  0  0  0  0  0  0  0
  189.4260  176.7630  142.6770 C   0  0  0  0  0  0  0  0  0  0  0  0
  190.1860  177.6880  142.4150 O   0  0  0  0  0  0  0  0  0  0  0  0
  187.1490  175.7770  142.7830 C   0  0  0  0  0  2  0  0  0  0  0  0
  187.4250  178.0190  141.9430 C   0  0  0  0  0  2  0  0  0  0  0  0
  188.0930  176.6620  142.0040 C   0  0  1  0  0  3  0  0  0  0  0  0
  186.0180  177.8340  142.2710 N   0  0  0  0  0  0  0  0  0  0  0  0
  185.9680  176.6590  143.1290 C   0  0  0  0  0  2  0  0  0  0  0  0
  185.6100  178.9670  143.0870 C   0  0  0  0  0  2  0  0  0  0  0  0
  185.1050  178.4860  144.4370 C   0  0  0  0  0  2  0  0  0  0  0  0
  185.8020  179.1370  145.4610 O   0  0  0  0  0  0  0  0  0  0  0  0
  187.1110  177.9080  146.9050 O   0  0  0  0  0  0  0  0  0  0  0  0
  185.7970  178.2640  146.5570 C   0  0  1  0  0  0  0  0  0  0  0  0
  186.4150  178.7250  147.8200 C   0  0  0  0  0  2  0  0  0  0  0  0
  184.8970  177.0400  146.5320 C   0  0  0  0  0  1  0  0  0  0  0  0
  192.0990  168.4460  142.6540 N   0  0  0  0  0  0  0  0  0  0  0  0
  191.7640  169.3800  142.0580 C   0  0  0  0  0  0  0  0  0  0  0  0
  1  4  1  0  0  0  0
  2 23  1  6  0  0  0
  2 18  1  0  0  0  0
  3 12  1  0  0  0  0
  4 17  1  1  0  0  0
  5 21  1  0  0  0  0
  6  3  2  0  0  0  0
  6 20  1  0  0  0  0
  7  6  1  0  0  0  0
  8 18  1  0  0  0  0
  8 19  1  0  0  0  0
 10  9  1  0  0  0  0
 10  8  1  0  0  0  0
 11  7  2  0  0  0  0
 12  2  1  0  0  0  0
 12 10  2  0  0  0  0
 13 20  2  0  0  0  0
 13 38  1  0  0  0  0
 14  4  1  0  0  0  0
 15  5  2  0  0  0  0
 15 11  1  0  0  0  0
 16 13  1  0  0  0  0
 18 14  1  1  0  0  0
 19  1  1  0  0  0  0
 20 22  1  0  0  0  0
 21  7  1  0  0  0  0
 21 16  2  0  0  0  0
 22  9  2  0  0  0  0
 24 23  2  0  0  0  0
 25 29  1  0  0  0  0
 26 27  1  0  0  0  0
 26 28  1  0  0  0  0
 27 23  1  1  0  0  0
 27 25  1  0  0  0  0
 28 30  1  0  0  0  0
 28 29  1  0  0  0  0
 30 31  1  0  0  0  0
 31 32  1  0  0  0  0
 32 34  1  0  0  0  0
 33 35  1  0  0  0  0
 34 36  1  1  0  0  0
 34 33  1  0  0  0  0
 34 35  1  0  0  0  0
 38 37  3  0  0  0  0
M  END
>  <MODEL>
2

>  <REMARK>
 VINA RESULT:      -7.3      2.078      5.663
  Name = 
  7 active torsions:
  status: ('A' for Active; 'I' for Inactive)
    1  A    between atoms: C_3  and  C_14
    2  A    between atoms: C_13  and  O_34
    3  A    between atoms: C_14  and  C_17
    4  A    between atoms: C_15  and  C_29
    5  A    between atoms: C_15  and  N_36
    6  A    between atoms: C_21  and  C_33
    7  A    between atoms: C_29  and  O_34
                            x       y       z     vdW  Elec       q    Type
                         _______ _______ _______ _____ _____    ______ ____

>  <TORSDO>
F 7

$$$$
=
 OpenBabel11042416263D

 38 44  0  0  1  0  0  0  0  0999 V2000
  185.0480  177.8350  143.5160 C   0  0  0  0  0  2  0  0  0  0  0  0
  188.9170  176.5490  144.8140 C   0  0  1  0  0  3  0  0  0  0  0  0
  190.1270  174.6290  143.7580 C   0  0  0  0  0  3  0  0  0  0  0  0
  186.1080  178.9320  143.6370 C   0  0  2  0  0  3  0  0  0  0  0  0
  193.3100  171.3940  142.8690 C   0  0  0  0  0  3  0  0  0  0  0  0
  190.1310  173.4080  142.9030 C   0  0  0  0  0  0  0  0  0  0  0  0
  191.3570  172.5870  143.1980 C   0  0  0  0  0  0  0  0  0  0  0  0
  186.9150  176.2480  143.5080 N   0  0  0  0  0  0  0  0  0  0  0  0
  187.8370  174.9360  141.6980 C   0  0  0  0  0  3  0  0  0  0  0  0
  187.9140  175.4090  142.9500 C   0  0  0  0  0  0  0  0  0  0  0  0
  191.7040  172.1120  144.4840 N   0  0  0  0  0  0  0  0  0  0  0  0
  189.1000  175.4760  143.7820 C   0  0  0  0  0  0  0  0  0  0  0  0
  191.0040  173.2530  140.4510 C   0  0  0  0  0  0  0  0  0  0  0  0
  187.3570  178.4970  144.4230 C   0  0  0  0  0  2  0  0  0  0  0  0
  192.9410  171.3500  144.3590 C   0  0  0  0  0  3  0  0  0  0  0  0
  192.0560  172.5380  140.8620 C   0  0  0  0  0  3  0  0  0  0  0  0
  185.5510  180.0630  144.2310 O   0  0  0  0  0  1  0  0  0  0  0  0
  187.4480  176.9840  144.6560 C   0  0  2  0  0  3  0  0  0  0  0  0
  185.6570  176.6030  142.8530 C   0  0  0  0  0  2  0  0  0  0  0  0
  189.9810  173.7310  141.4250 C   0  0  0  0  0  0  0  0  0  0  0  0
  192.2150  172.2060  142.2800 C   0  0  0  0  0  0  0  0  0  0  0  0
  188.9180  174.3310  140.9660 N   0  0  0  0  0  0  0  0  0  0  0  0
  189.1650  176.0390  146.2050 C   0  0  0  0  0  0  0  0  0  0  0  0
  188.3400  175.3260  146.7630 O   0  0  0  0  0  0  0  0  0  0  0  0
  191.1590  175.1500  147.3880 C   0  0  0  0  0  2  0  0  0  0  0  0
  191.4110  177.0330  145.9070 C   0  0  0  0  0  2  0  0  0  0  0  0
  190.4530  176.3850  146.8830 C   0  0  1  0  0  3  0  0  0  0  0  0
  192.7340  176.4730  146.1460 N   0  0  0  0  0  0  0  0  0  0  0  0
  192.5020  175.1410  146.6880 C   0  0  0  0  0  2  0  0  0  0  0  0
  193.3710  176.2940  144.8510 C   0  0  0  0  0  2  0  0  0  0  0  0
  193.9720  174.9020  144.7510 C   0  0  0  0  0  2  0  0  0  0  0  0
  194.9420  174.8780  143.7430 O   0  0  0  0  0  0  0  0  0  0  0  0
  196.9390  173.7350  143.6070 O   0  0  0  0  0  0  0  0  0  0  0  0
  196.1650  174.6180  144.3780 C   0  0  1  0  0  0  0  0  0  0  0  0
  197.4070  175.0610  143.7090 C   0  0  0  0  0  2  0  0  0  0  0  0
  196.1720  174.2040  145.8400 C   0  0  0  0  0  1  0  0  0  0  0  0
  190.7890  173.7950  137.9210 N   0  0  0  0  0  0  0  0  0  0  0  0
  190.8850  173.5530  139.0480 C   0  0  0  0  0  0  0  0  0  0  0  0
  1  4  1  0  0  0  0
  2 23  1  1  0  0  0
  3 12  1  0  0  0  0
  4 17  1  1  0  0  0
  4 14  1  0  0  0  0
  5 15  2  0  0  0  0
  6  7  1  0  0  0  0
  6  3  2  0  0  0  0
  7 11  2  0  0  0  0
  8 18  1  0  0  0  0
  9 10  1  0  0  0  0
 10  8  1  0  0  0  0
 10 12  2  0  0  0  0
 12  2  1  0  0  0  0
 13 16  1  0  0  0  0
 13 20  2  0  0  0  0
 15 11  1  0  0  0  0
 16 21  2  0  0  0  0
 18 14  1  6  0  0  0
 18  2  1  0  0  0  0
 19  8  1  0  0  0  0
 19  1  1  0  0  0  0
 20  6  1  0  0  0  0
 21  5  1  0  0  0  0
 21  7  1  0  0  0  0
 22 20  1  0  0  0  0
 22  9  2  0  0  0  0
 23 24  2  0  0  0  0
 26 28  1  0  0  0  0
 26 27  1  0  0  0  0
 27 23  1  6  0  0  0
 27 25  1  0  0  0  0
 28 29  1  0  0  0  0
 29 25  1  0  0  0  0
 30 28  1  0  0  0  0
 31 30  1  0  0  0  0
 32 34  1  0  0  0  0
 32 31  1  0  0  0  0
 33 35  1  0  0  0  0
 33 34  1  0  0  0  0
 34 36  1  1  0  0  0
 35 34  1  0  0  0  0
 37 38  3  0  0  0  0
 38 13  1  0  0  0  0
M  END
>  <MODEL>
3

>  <REMARK>
 VINA RESULT:      -7.2      2.831      7.590
  Name = 
  7 active torsions:
  status: ('A' for Active; 'I' for Inactive)
    1  A    between atoms: C_3  and  C_14
    2  A    between atoms: C_13  and  O_34
    3  A    between atoms: C_14  and  C_17
    4  A    between atoms: C_15  and  C_29
    5  A    between atoms: C_15  and  N_36
    6  A    between atoms: C_21  and  C_33
    7  A    between atoms: C_29  and  O_34
                            x       y       z     vdW  Elec       q    Type
                         _______ _______ _______ _____ _____    ______ ____

>  <TORSDO>
F 7

$$$$
=
 OpenBabel11042416263D

 38 44  0  0  1  0  0  0  0  0999 V2000
  191.0000  173.0160  140.0240 C   0  0  0  0  0  2  0  0  0  0  0  0
  188.9420  173.7490  143.7020 C   0  0  1  0  0  3  0  0  0  0  0  0
  187.5900  175.8170  144.1060 C   0  0  0  0  0  3  0  0  0  0  0  0
  190.1120  171.8780  140.5270 C   0  0  2  0  0  3  0  0  0  0  0  0
  184.9670  179.0210  146.1640 C   0  0  0  0  0  3  0  0  0  0  0  0
  187.2140  177.2140  143.7460 C   0  0  0  0  0  0  0  0  0  0  0  0
  186.5420  177.8750  144.9190 C   0  0  0  0  0  0  0  0  0  0  0  0
  189.7380  174.4650  141.5440 N   0  0  0  0  0  0  0  0  0  0  0  0
  188.0710  176.1510  141.0660 C   0  0  0  0  0  3  0  0  0  0  0  0
  188.7210  175.3710  141.9420 C   0  0  0  0  0  0  0  0  0  0  0  0
  187.1200  177.9900  146.2050 N   0  0  0  0  0  0  0  0  0  0  0  0
  188.3000  175.0400  143.2890 C   0  0  0  0  0  0  0  0  0  0  0  0
  185.0480  177.9480  142.4950 C   0  0  0  0  0  0  0  0  0  0  0  0
  189.6750  172.0400  141.9940 C   0  0  0  0  0  2  0  0  0  0  0  0
  186.1750  178.7010  147.0560 C   0  0  0  0  0  3  0  0  0  0  0  0
  184.5690  178.4850  143.6210 C   0  0  0  0  0  3  0  0  0  0  0  0
  190.7690  170.6590  140.3660 O   0  0  0  0  0  1  0  0  0  0  0  0
  189.9360  173.4370  142.5680 C   0  0  2  0  0  3  0  0  0  0  0  0
  190.2720  174.3470  140.1880 C   0  0  0  0  0  2  0  0  0  0  0  0
  186.3840  177.2850  142.4750 C   0  0  0  0  0  0  0  0  0  0  0  0
  185.3570  178.4380  144.8550 C   0  0  0  0  0  0  0  0  0  0  0  0
  186.8550  176.8720  141.3320 N   0  0  0  0  0  0  0  0  0  0  0  0
  189.6670  173.8760  145.0120 C   0  0  0  0  0  0  0  0  0  0  0  0
  189.9100  172.8830  145.6870 O   0  0  0  0  0  0  0  0  0  0  0  0
  190.0340  175.3720  146.9600 C   0  0  0  0  0  2  0  0  0  0  0  0
  191.5790  175.4420  145.1130 C   0  0  0  0  0  2  0  0  0  0  0  0
  190.1210  175.2300  145.4600 C   0  0  1  0  0  3  0  0  0  0  0  0
  192.2160  176.0880  146.2530 N   0  0  0  0  0  0  0  0  0  0  0  0
  191.4460  175.6720  147.4170 C   0  0  0  0  0  2  0  0  0  0  0  0
  193.5410  175.5070  146.3970 C   0  0  0  0  0  2  0  0  0  0  0  0
  194.5590  176.3280  145.6220 C   0  0  0  0  0  2  0  0  0  0  0  0
  195.5460  175.4850  145.1000 O   0  0  0  0  0  0  0  0  0  0  0  0
  196.4830  177.0640  143.7060 O   0  0  0  0  0  0  0  0  0  0  0  0
  195.7330  175.8760  143.7670 C   0  0  1  0  0  0  0  0  0  0  0  0
  197.1120  175.8950  143.2320 C   0  0  0  0  0  2  0  0  0  0  0  0
  194.5350  175.9490  142.8350 C   0  0  0  0  0  1  0  0  0  0  0  0
  183.5940  178.0800  140.3470 N   0  0  0  0  0  0  0  0  0  0  0  0
  184.2420  178.0210  141.3040 C   0  0  0  0  0  0  0  0  0  0  0  0
  1 19  1  0  0  0  0
  1  4  1  0  0  0  0
  2 23  1  1  0  0  0
  4 17  1  1  0  0  0
  4 14  1  0  0  0  0
  5 15  1  0  0  0  0
  6  3  1  0  0  0  0
  6  7  2  0  0  0  0
  7 11  1  0  0  0  0
  8 10  1  0  0  0  0
  8 18  1  0  0  0  0
  9 22  1  0  0  0  0
  9 10  2  0  0  0  0
 10 12  1  0  0  0  0
 11 15  2  0  0  0  0
 12  2  1  0  0  0  0
 12  3  2  0  0  0  0
 13 16  2  0  0  0  0
 16 21  1  0  0  0  0
 18 14  1  6  0  0  0
 18  2  1  0  0  0  0
 19  8  1  0  0  0  0
 20 13  1  0  0  0  0
 20  6  1  0  0  0  0
 21  7  1  0  0  0  0
 21  5  2  0  0  0  0
 22 20  2  0  0  0  0
 23 24  2  0  0  0  0
 25 29  1  0  0  0  0
 26 27  1  0  0  0  0
 26 28  1  0  0  0  0
 27 23  1  1  0  0  0
 27 25  1  0  0  0  0
 28 30  1  0  0  0  0
 28 29  1  0  0  0  0
 31 30  1  0  0  0  0
 32 31  1  0  0  0  0
 33 34  1  0  0  0  0
 34 36  1  6  0  0  0
 34 32  1  0  0  0  0
 35 33  1  0  0  0  0
 35 34  1  0  0  0  0
 37 38  3  0  0  0  0
 38 13  1  0  0  0  0
M  END
>  <MODEL>
4

>  <REMARK>
 VINA RESULT:      -7.0      2.922      7.365
  Name = 
  7 active torsions:
  status: ('A' for Active; 'I' for Inactive)
    1  A    between atoms: C_3  and  C_14
    2  A    between atoms: C_13  and  O_34
    3  A    between atoms: C_14  and  C_17
    4  A    between atoms: C_15  and  C_29
    5  A    between atoms: C_15  and  N_36
    6  A    between atoms: C_21  and  C_33
    7  A    between atoms: C_29  and  O_34
                            x       y       z     vdW  Elec       q    Type
                         _______ _______ _______ _____ _____    ______ ____

>  <TORSDO>
F 7

$$$$
=
 OpenBabel11042416263D

 38 44  0  0  1  0  0  0  0  0999 V2000
  196.4330  172.0900  144.0930 C   0  0  0  0  0  2  0  0  0  0  0  0
  192.7570  173.9270  145.2830 C   0  0  1  0  0  3  0  0  0  0  0  0
  191.0870  174.8010  143.6350 C   0  0  0  0  0  3  0  0  0  0  0  0
  195.5940  171.3070  145.1040 C   0  0  2  0  0  3  0  0  0  0  0  0
  187.3460  176.8260  141.8220 C   0  0  0  0  0  3  0  0  0  0  0  0
  190.7300  175.2380  142.2550 C   0  0  0  0  0  0  0  0  0  0  0  0
  189.4800  176.0750  142.2970 C   0  0  0  0  0  0  0  0  0  0  0  0
  194.3880  173.3490  143.6080 N   0  0  0  0  0  0  0  0  0  0  0  0
  192.9360  173.2780  141.6750 C   0  0  0  0  0  3  0  0  0  0  0  0
  193.1840  173.6740  142.9310 C   0  0  0  0  0  0  0  0  0  0  0  0
  189.3320  177.2420  143.0820 N   0  0  0  0  0  0  0  0  0  0  0  0
  192.2130  174.1410  143.9010 C   0  0  0  0  0  0  0  0  0  0  0  0
  189.3700  173.8600  140.5100 C   0  0  0  0  0  0  0  0  0  0  0  0
  194.4780  172.1410  145.7560 C   0  0  0  0  0  2  0  0  0  0  0  0
  187.9960  177.7740  142.8400 C   0  0  0  0  0  3  0  0  0  0  0  0
  188.3270  174.6820  140.6600 C   0  0  0  0  0  3  0  0  0  0  0  0
  196.4210  170.7760  146.0930 O   0  0  0  0  0  1  0  0  0  0  0  0
  194.2120  173.4780  145.0550 C   0  0  2  0  0  3  0  0  0  0  0  0
  195.5270  172.6590  143.0050 C   0  0  0  0  0  2  0  0  0  0  0  0
  190.6270  174.0740  141.2830 C   0  0  0  0  0  0  0  0  0  0  0  0
  188.4080  175.8170  141.5830 C   0  0  0  0  0  0  0  0  0  0  0  0
  191.6520  173.3120  141.0250 N   0  0  0  0  0  0  0  0  0  0  0  0
  192.7200  175.1860  146.1020 C   0  0  0  0  0  0  0  0  0  0  0  0
  193.4750  176.1160  145.8470 O   0  0  0  0  0  0  0  0  0  0  0  0
  191.5610  176.7310  147.6640 C   0  0  0  0  0  2  0  0  0  0  0  0
  190.3490  174.8690  146.7330 C   0  0  0  0  0  2  0  0  0  0  0  0
  191.7190  175.3000  147.2090 C   0  0  1  0  0  3  0  0  0  0  0  0
  189.3770  175.8120  147.2690 N   0  0  0  0  0  0  0  0  0  0  0  0
  190.1010  177.0630  147.4410 C   0  0  0  0  0  2  0  0  0  0  0  0
  188.3800  176.0420  146.2360 C   0  0  0  0  0  2  0  0  0  0  0  0
  187.3970  177.1110  146.6860 C   0  0  0  0  0  2  0  0  0  0  0  0
  186.2630  177.0830  145.8680 O   0  0  0  0  0  0  0  0  0  0  0  0
  185.7380  179.1660  145.0320 O   0  0  0  0  0  0  0  0  0  0  0  0
  185.5730  178.2790  146.1100 C   0  0  1  0  0  0  0  0  0  0  0  0
  184.4470  178.6300  145.2170 C   0  0  0  0  0  2  0  0  0  0  0  0
  185.7700  178.9980  147.4330 C   0  0  0  0  0  1  0  0  0  0  0  0
  189.1490  171.8750  138.8490 N   0  0  0  0  0  0  0  0  0  0  0  0
  189.2480  172.7600  139.5890 C   0  0  0  0  0  0  0  0  0  0  0  0
  1  4  1  0  0  0  0
  2 23  1  1  0  0  0
  3 12  1  0  0  0  0
  4 14  1  0  0  0  0
  4 17  1  1  0  0  0
  5 15  2  0  0  0  0
  6  7  1  0  0  0  0
  6  3  2  0  0  0  0
  7 11  2  0  0  0  0
  8 18  1  0  0  0  0
  9 10  1  0  0  0  0
 10  8  1  0  0  0  0
 10 12  2  0  0  0  0
 12  2  1  0  0  0  0
 13 16  1  0  0  0  0
 13 20  2  0  0  0  0
 15 11  1  0  0  0  0
 16 21  2  0  0  0  0
 18  2  1  0  0  0  0
 18 14  1  1  0  0  0
 19  8  1  0  0  0  0
 19  1  1  0  0  0  0
 20  6  1  0  0  0  0
 21  5  1  0  0  0  0
 21  7  1  0  0  0  0
 22 20  1  0  0  0  0
 22  9  2  0  0  0  0
 24 23  2  0  0  0  0
 26 27  1  0  0  0  0
 26 28  1  0  0  0  0
 27 23  1  6  0  0  0
 27 25  1  0  0  0  0
 28 29  1  0  0  0  0
 29 25  1  0  0  0  0
 30 31  1  0  0  0  0
 30 28  1  0  0  0  0
 32 34  1  0  0  0  0
 32 31  1  0  0  0  0
 33 35  1  0  0  0  0
 33 34  1  0  0  0  0
 34 36  1  1  0  0  0
 35 34  1  0  0  0  0
 37 38  3  0  0  0  0
 38 13  1  0  0  0  0
M  END
>  <MODEL>
5

>  <REMARK>
 VINA RESULT:      -7.0      2.639      6.044
  Name = 
  7 active torsions:
  status: ('A' for Active; 'I' for Inactive)
    1  A    between atoms: C_3  and  C_14
    2  A    between atoms: C_13  and  O_34
    3  A    between atoms: C_14  and  C_17
    4  A    between atoms: C_15  and  C_29
    5  A    between atoms: C_15  and  N_36
    6  A    between atoms: C_21  and  C_33
    7  A    between atoms: C_29  and  O_34
                            x       y       z     vdW  Elec       q    Type
                         _______ _______ _______ _____ _____    ______ ____

>  <TORSDO>
F 7

$$$$
=
 OpenBabel11042416263D

 38 44  0  0  1  0  0  0  0  0999 V2000
  188.0950  174.7100  140.5030 C   0  0  0  0  0  2  0  0  0  0  0  0
  190.6960  174.7510  143.9000 C   0  0  1  0  0  3  0  0  0  0  0  0
  193.0800  173.9960  143.7860 C   0  0  0  0  0  3  0  0  0  0  0  0
  188.1500  176.0240  141.2830 C   0  0  2  0  0  3  0  0  0  0  0  0
  197.4000  172.8790  145.0020 C   0  0  0  0  0  3  0  0  0  0  0  0
  194.1810  173.2670  143.0920 C   0  0  0  0  0  0  0  0  0  0  0  0
  195.2860  172.9720  144.0690 C   0  0  0  0  0  0  0  0  0  0  0  0
  190.1970  174.1370  141.6250 N   0  0  0  0  0  0  0  0  0  0  0  0
  192.4520  174.0410  140.7560 C   0  0  0  0  0  3  0  0  0  0  0  0
  191.6020  174.0330  141.7920 C   0  0  0  0  0  0  0  0  0  0  0  0
  195.1090  172.2630  145.2800 N   0  0  0  0  0  0  0  0  0  0  0  0
  191.9280  174.2820  143.1830 C   0  0  0  0  0  0  0  0  0  0  0  0
  196.1110  174.3510  141.7170 C   0  0  0  0  0  0  0  0  0  0  0  0
  188.8120  175.8930  142.6670 C   0  0  0  0  0  2  0  0  0  0  0  0
  196.4080  172.1690  145.9350 C   0  0  0  0  0  3  0  0  0  0  0  0
  196.9850  174.0340  142.6770 C   0  0  0  0  0  3  0  0  0  0  0  0
  186.8640  176.5430  141.4260 O   0  0  0  0  0  1  0  0  0  0  0  0
  189.5640  174.5730  142.8710 C   0  0  2  0  0  3  0  0  0  0  0  0
  189.5050  174.1520  140.3370 C   0  0  0  0  0  2  0  0  0  0  0  0
  194.6690  173.9960  141.8510 C   0  0  0  0  0  0  0  0  0  0  0  0
  196.5380  173.3220  143.8770 C   0  0  0  0  0  0  0  0  0  0  0  0
  193.8760  174.2290  140.8440 N   0  0  0  0  0  0  0  0  0  0  0  0
  190.4170  173.9350  145.1300 C   0  0  0  0  0  0  0  0  0  0  0  0
  190.3790  172.7120  145.0710 O   0  0  0  0  0  0  0  0  0  0  0  0
  191.1700  175.8080  146.5780 C   0  0  0  0  0  2  0  0  0  0  0  0
  188.8330  175.2250  146.5250 C   0  0  0  0  0  2  0  0  0  0  0  0
  190.2250  174.6390  146.4370 C   0  0  1  0  0  3  0  0  0  0  0  0
  188.9490  176.5560  147.1070 N   0  0  0  0  0  0  0  0  0  0  0  0
  190.2820  177.0220  146.7520 C   0  0  0  0  0  2  0  0  0  0  0  0
  188.0050  177.4170  146.4130 C   0  0  0  0  0  2  0  0  0  0  0  0
  186.6520  176.7330  146.3060 C   0  0  0  0  0  2  0  0  0  0  0  0
  186.1470  176.8850  145.0110 O   0  0  0  0  0  0  0  0  0  0  0  0
  185.4740  179.0460  144.5750 O   0  0  0  0  0  0  0  0  0  0  0  0
  185.0910  177.8020  145.1050 C   0  0  1  0  0  0  0  0  0  0  0  0
  184.5040  178.3240  143.8520 C   0  0  0  0  0  2  0  0  0  0  0  0
  184.3760  177.9820  146.4340 C   0  0  0  0  0  1  0  0  0  0  0  0
  196.9840  175.6060  139.6170 N   0  0  0  0  0  0  0  0  0  0  0  0
  196.5950  175.0470  140.5520 C   0  0  0  0  0  0  0  0  0  0  0  0
  1  4  1  0  0  0  0
  2 23  1  1  0  0  0
  4 17  1  1  0  0  0
  4 14  1  0  0  0  0
  5 15  2  0  0  0  0
  6  3  2  0  0  0  0
  6  7  1  0  0  0  0
  7 11  2  0  0  0  0
  8 10  1  0  0  0  0
  8 18  1  0  0  0  0
  9 22  2  0  0  0  0
  9 10  1  0  0  0  0
 10 12  2  0  0  0  0
 11 15  1  0  0  0  0
 12  3  1  0  0  0  0
 12  2  1  0  0  0  0
 13 20  2  0  0  0  0
 13 16  1  0  0  0  0
 16 21  2  0  0  0  0
 18 14  1  6  0  0  0
 18  2  1  0  0  0  0
 19  1  1  0  0  0  0
 19  8  1  0  0  0  0
 20  6  1  0  0  0  0
 21  7  1  0  0  0  0
 21  5  1  0  0  0  0
 22 20  1  0  0  0  0
 24 23  2  0  0  0  0
 25 29  1  0  0  0  0
 26 28  1  0  0  0  0
 27 23  1  6  0  0  0
 27 26  1  0  0  0  0
 27 25  1  0  0  0  0
 29 28  1  0  0  0  0
 30 28  1  0  0  0  0
 31 30  1  0  0  0  0
 32 34  1  0  0  0  0
 32 31  1  0  0  0  0
 33 34  1  0  0  0  0
 34 36  1  1  0  0  0
 35 33  1  0  0  0  0
 35 34  1  0  0  0  0
 37 38  3  0  0  0  0
 38 13  1  0  0  0  0
M  END
>  <MODEL>
6

>  <REMARK>
 VINA RESULT:      -6.8      2.461      4.851
  Name = 
  7 active torsions:
  status: ('A' for Active; 'I' for Inactive)
    1  A    between atoms: C_3  and  C_14
    2  A    between atoms: C_13  and  O_34
    3  A    between atoms: C_14  and  C_17
    4  A    between atoms: C_15  and  C_29
    5  A    between atoms: C_15  and  N_36
    6  A    between atoms: C_21  and  C_33
    7  A    between atoms: C_29  and  O_34
                            x       y       z     vdW  Elec       q    Type
                         _______ _______ _______ _____ _____    ______ ____

>  <TORSDO>
F 7

$$$$
=
 OpenBabel11042416263D

 38 44  0  0  1  0  0  0  0  0999 V2000
  189.1730  173.6190  138.1500 C   0  0  0  0  0  2  0  0  0  0  0  0
  188.6110  173.8400  142.3850 C   0  0  1  0  0  3  0  0  0  0  0  0
  187.5540  175.8130  143.5070 C   0  0  0  0  0  3  0  0  0  0  0  0
  188.4970  172.4090  138.7950 C   0  0  2  0  0  3  0  0  0  0  0  0
  185.9460  178.6780  146.7620 C   0  0  0  0  0  3  0  0  0  0  0  0
  187.1120  177.2370  143.4870 C   0  0  0  0  0  0  0  0  0  0  0  0
  186.9300  177.7300  144.8960 C   0  0  0  0  0  0  0  0  0  0  0  0
  188.5890  174.8390  140.1930 N   0  0  0  0  0  0  0  0  0  0  0  0
  186.9100  176.5380  140.5680 C   0  0  0  0  0  3  0  0  0  0  0  0
  187.8110  175.6670  141.0430 C   0  0  0  0  0  0  0  0  0  0  0  0
  187.9380  177.6930  145.8880 N   0  0  0  0  0  0  0  0  0  0  0  0
  187.8980  175.1600  142.3990 C   0  0  0  0  0  0  0  0  0  0  0  0
  184.6610  178.0800  143.2100 C   0  0  0  0  0  0  0  0  0  0  0  0
  188.6260  172.3760  140.3280 C   0  0  0  0  0  2  0  0  0  0  0  0
  187.3860  178.2720  147.1070 C   0  0  0  0  0  3  0  0  0  0  0  0
  184.6380  178.4600  144.4910 C   0  0  0  0  0  3  0  0  0  0  0  0
  189.0180  171.2340  138.2550 O   0  0  0  0  0  1  0  0  0  0  0  0
  189.1160  173.6940  140.9380 C   0  0  2  0  0  3  0  0  0  0  0  0
  188.5920  174.9040  138.7330 C   0  0  0  0  0  2  0  0  0  0  0  0
  185.8800  177.4510  142.6240 C   0  0  0  0  0  0  0  0  0  0  0  0
  185.8190  178.2730  145.3390 C   0  0  0  0  0  0  0  0  0  0  0  0
  185.8930  177.1950  141.3460 N   0  0  0  0  0  0  0  0  0  0  0  0
  189.7640  173.8140  143.3470 C   0  0  0  0  0  0  0  0  0  0  0  0
  189.6140  173.3920  144.4870 O   0  0  0  0  0  0  0  0  0  0  0  0
  191.2450  175.7760  142.9890 C   0  0  0  0  0  2  0  0  0  0  0  0
  192.2020  173.7000  143.7510 C   0  0  0  0  0  2  0  0  0  0  0  0
  191.1080  174.2770  142.8780 C   0  0  1  0  0  3  0  0  0  0  0  0
  193.1720  174.7590  144.0020 N   0  0  0  0  0  0  0  0  0  0  0  0
  192.4220  176.0040  143.9140 C   0  0  0  0  0  2  0  0  0  0  0  0
  193.6100  174.6280  145.3820 C   0  0  0  0  0  2  0  0  0  0  0  0
  192.8550  175.6070  146.2660 C   0  0  0  0  0  2  0  0  0  0  0  0
  192.2250  174.9140  147.3060 O   0  0  0  0  0  0  0  0  0  0  0  0
  190.2110  175.6930  146.5010 O   0  0  0  0  0  0  0  0  0  0  0  0
  191.0650  175.6380  147.6150 C   0  0  1  0  0  0  0  0  0  0  0  0
  189.7700  174.9240  147.5960 C   0  0  0  0  0  2  0  0  0  0  0  0
  191.1910  177.0060  148.2650 C   0  0  0  0  0  1  0  0  0  0  0  0
  182.5320  178.4530  141.7720 N   0  0  0  0  0  0  0  0  0  0  0  0
  183.4800  178.2870  142.4130 C   0  0  0  0  0  0  0  0  0  0  0  0
  1 19  1  0  0  0  0
  1  4  1  0  0  0  0
  2 12  1  0  0  0  0
  2 23  1  1  0  0  0
  4 17  1  6  0  0  0
  4 14  1  0  0  0  0
  5 15  1  0  0  0  0
  6  3  1  0  0  0  0
  6  7  2  0  0  0  0
  7 21  1  0  0  0  0
  7 11  1  0  0  0  0
  8 18  1  0  0  0  0
  8 10  1  0  0  0  0
  9 10  2  0  0  0  0
  9 22  1  0  0  0  0
 10 12  1  0  0  0  0
 11 15  2  0  0  0  0
 12  3  2  0  0  0  0
 13 16  2  0  0  0  0
 16 21  1  0  0  0  0
 18 14  1  6  0  0  0
 18  2  1  0  0  0  0
 19  8  1  0  0  0  0
 20 13  1  0  0  0  0
 20  6  1  0  0  0  0
 21  5  2  0  0  0  0
 22 20  2  0  0  0  0
 23 24  2  0  0  0  0
 25 29  1  0  0  0  0
 26 28  1  0  0  0  0
 27 25  1  0  0  0  0
 27 23  1  1  0  0  0
 27 26  1  0  0  0  0
 28 30  1  0  0  0  0
 29 28  1  0  0  0  0
 30 31  1  0  0  0  0
 31 32  1  0  0  0  0
 32 34  1  0  0  0  0
 33 35  1  0  0  0  0
 33 34  1  0  0  0  0
 34 36  1  1  0  0  0
 35 34  1  0  0  0  0
 37 38  3  0  0  0  0
 38 13  1  0  0  0  0
M  END
>  <MODEL>
7

>  <REMARK>
 VINA RESULT:      -6.8      2.143      6.428
  Name = 
  7 active torsions:
  status: ('A' for Active; 'I' for Inactive)
    1  A    between atoms: C_3  and  C_14
    2  A    between atoms: C_13  and  O_34
    3  A    between atoms: C_14  and  C_17
    4  A    between atoms: C_15  and  C_29
    5  A    between atoms: C_15  and  N_36
    6  A    between atoms: C_21  and  C_33
    7  A    between atoms: C_29  and  O_34
                            x       y       z     vdW  Elec       q    Type
                         _______ _______ _______ _____ _____    ______ ____

>  <TORSDO>
F 7

$$$$
=
 OpenBabel11042416263D

 38 44  0  0  1  0  0  0  0  0999 V2000
  186.5920  178.6660  142.3880 C   0  0  0  0  0  2  0  0  0  0  0  0
  188.7710  174.9850  142.3100 C   0  0  1  0  0  3  0  0  0  0  0  0
  191.2710  174.8930  142.3800 C   0  0  0  0  0  3  0  0  0  0  0  0
  186.1450  177.6070  143.3970 C   0  0  2  0  0  3  0  0  0  0  0  0
  195.6140  173.3020  142.3540 C   0  0  0  0  0  3  0  0  0  0  0  0
  192.6010  175.5530  142.2360 C   0  0  0  0  0  0  0  0  0  0  0  0
  193.6660  174.5090  142.0430 C   0  0  0  0  0  0  0  0  0  0  0  0
  188.6750  177.3890  142.2060 N   0  0  0  0  0  0  0  0  0  0  0  0
  190.8890  177.8920  143.0400 C   0  0  0  0  0  3  0  0  0  0  0  0
  190.0180  177.0310  142.4960 C   0  0  0  0  0  0  0  0  0  0  0  0
  193.6480  173.5350  141.0170 N   0  0  0  0  0  0  0  0  0  0  0  0
  190.1370  175.5870  142.4500 C   0  0  0  0  0  0  0  0  0  0  0  0
  194.1510  176.3230  144.1840 C   0  0  0  0  0  0  0  0  0  0  0  0
  186.7090  176.2040  143.1080 C   0  0  0  0  0  2  0  0  0  0  0  0
  194.8520  172.7230  141.1520 C   0  0  0  0  0  3  0  0  0  0  0  0
  195.0070  175.3360  143.9050 C   0  0  0  0  0  3  0  0  0  0  0  0
  184.7530  177.5530  143.4400 O   0  0  0  0  0  1  0  0  0  0  0  0
  187.8430  176.1920  142.0780 C   0  0  2  0  0  3  0  0  0  0  0  0
  188.1160  178.7320  142.3530 C   0  0  0  0  0  2  0  0  0  0  0  0
  192.9060  176.5020  143.3830 C   0  0  0  0  0  0  0  0  0  0  0  0
  194.7380  174.4160  142.7960 C   0  0  0  0  0  0  0  0  0  0  0  0
  192.1570  177.5410  143.6230 N   0  0  0  0  0  0  0  0  0  0  0  0
  188.6920  174.0330  141.1500 C   0  0  0  0  0  0  0  0  0  0  0  0
  188.5580  174.4540  140.0080 O   0  0  0  0  0  0  0  0  0  0  0  0
  190.0740  172.0010  140.7880 C   0  0  0  0  0  2  0  0  0  0  0  0
  188.9410  172.2950  142.8940 C   0  0  0  0  0  2  0  0  0  0  0  0
  188.8190  172.5640  141.4090 C   0  0  1  0  0  3  0  0  0  0  0  0
  189.9650  171.2760  143.0760 N   0  0  0  0  0  0  0  0  0  0  0  0
  190.8650  171.4200  141.9400 C   0  0  0  0  0  2  0  0  0  0  0  0
  190.7260  171.6320  144.2630 C   0  0  0  0  0  2  0  0  0  0  0  0
  190.0950  172.8310  144.9500 C   0  0  0  0  0  2  0  0  0  0  0  0
  191.0960  173.6670  145.4550 O   0  0  0  0  0  0  0  0  0  0  0  0
  190.7790  174.8480  147.4090 O   0  0  0  0  0  0  0  0  0  0  0  0
  190.4400  174.7540  146.0480 C   0  0  1  0  0  0  0  0  0  0  0  0
  191.2620  175.8690  146.5660 C   0  0  0  0  0  2  0  0  0  0  0  0
  188.9410  174.9160  145.8560 C   0  0  0  0  0  1  0  0  0  0  0  0
  194.7040  177.9160  146.1600 N   0  0  0  0  0  0  0  0  0  0  0  0
  194.4580  177.2060  145.2800 C   0  0  0  0  0  0  0  0  0  0  0  0
  1  4  1  0  0  0  0
  2 23  1  6  0  0  0
  2 12  1  0  0  0  0
  3 12  1  0  0  0  0
  4 17  1  6  0  0  0
  5 21  1  0  0  0  0
  6  3  2  0  0  0  0
  6 20  1  0  0  0  0
  7  6  1  0  0  0  0
  7 21  1  0  0  0  0
  8 19  1  0  0  0  0
  8 10  1  0  0  0  0
  9 22  2  0  0  0  0
 10  9  1  0  0  0  0
 11 15  1  0  0  0  0
 11  7  2  0  0  0  0
 12 10  2  0  0  0  0
 13 38  1  0  0  0  0
 14  4  1  0  0  0  0
 15  5  2  0  0  0  0
 16 13  1  0  0  0  0
 18  8  1  0  0  0  0
 18  2  1  0  0  0  0
 18 14  1  1  0  0  0
 19  1  1  0  0  0  0
 20 22  1  0  0  0  0
 20 13  2  0  0  0  0
 21 16  2  0  0  0  0
 24 23  2  0  0  0  0
 25 27  1  0  0  0  0
 25 29  1  0  0  0  0
 26 28  1  0  0  0  0
 27 23  1  1  0  0  0
 27 26  1  0  0  0  0
 28 30  1  0  0  0  0
 29 28  1  0  0  0  0
 30 31  1  0  0  0  0
 31 32  1  0  0  0  0
 32 34  1  0  0  0  0
 34 36  1  6  0  0  0
 34 35  1  0  0  0  0
 34 33  1  0  0  0  0
 35 33  1  0  0  0  0
 38 37  3  0  0  0  0
M  END
>  <MODEL>
8

>  <REMARK>
 VINA RESULT:      -6.7      2.645      5.951
  Name = 
  7 active torsions:
  status: ('A' for Active; 'I' for Inactive)
    1  A    between atoms: C_3  and  C_14
    2  A    between atoms: C_13  and  O_34
    3  A    between atoms: C_14  and  C_17
    4  A    between atoms: C_15  and  C_29
    5  A    between atoms: C_15  and  N_36
    6  A    between atoms: C_21  and  C_33
    7  A    between atoms: C_29  and  O_34
                            x       y       z     vdW  Elec       q    Type
                         _______ _______ _______ _____ _____    ______ ____

>  <TORSDO>
F 7

$$$$
=
 OpenBabel11042416263D

 38 44  0  0  1  0  0  0  0  0999 V2000
  187.0510  178.2540  141.7420 C   0  0  0  0  0  2  0  0  0  0  0  0
  188.6690  174.4140  142.7110 C   0  0  1  0  0  3  0  0  0  0  0  0
  191.0860  174.0650  143.2620 C   0  0  0  0  0  3  0  0  0  0  0  0
  186.3000  177.4680  142.8170 C   0  0  2  0  0  3  0  0  0  0  0  0
  195.1030  172.0360  144.3240 C   0  0  0  0  0  3  0  0  0  0  0  0
  192.5010  174.5360  143.2570 C   0  0  0  0  0  0  0  0  0  0  0  0
  193.4240  173.3640  143.4510 C   0  0  0  0  0  0  0  0  0  0  0  0
  188.9340  176.7470  142.1770 N   0  0  0  0  0  0  0  0  0  0  0  0
  191.0300  177.1590  143.3110 C   0  0  0  0  0  3  0  0  0  0  0  0
  190.1460  176.3090  142.7700 C   0  0  0  0  0  0  0  0  0  0  0  0
  193.4370  172.2170  142.6240 N   0  0  0  0  0  0  0  0  0  0  0  0
  190.0660  174.8790  142.9980 C   0  0  0  0  0  0  0  0  0  0  0  0
  193.8050  175.4980  145.2990 C   0  0  0  0  0  0  0  0  0  0  0  0
  186.6980  175.9830  142.8860 C   0  0  0  0  0  2  0  0  0  0  0  0
  194.4740  171.3210  143.1200 C   0  0  0  0  0  3  0  0  0  0  0  0
  194.5460  174.3880  145.3590 C   0  0  0  0  0  3  0  0  0  0  0  0
  184.9260  177.5750  142.6070 O   0  0  0  0  0  1  0  0  0  0  0  0
  187.9730  175.6460  142.1040 C   0  0  2  0  0  3  0  0  0  0  0  0
  188.5540  178.1460  141.9820 C   0  0  0  0  0  2  0  0  0  0  0  0
  192.7460  175.6520  144.2600 C   0  0  0  0  0  0  0  0  0  0  0  0
  194.3340  173.3040  144.3960 C   0  0  0  0  0  0  0  0  0  0  0  0
  192.1230  176.7930  144.1720 N   0  0  0  0  0  0  0  0  0  0  0  0
  188.6470  173.2680  141.7390 C   0  0  0  0  0  0  0  0  0  0  0  0
  187.6880  172.5080  141.6960 O   0  0  0  0  0  0  0  0  0  0  0  0
  189.9990  171.6440  140.4340 C   0  0  0  0  0  2  0  0  0  0  0  0
  189.5280  173.8110  139.4930 C   0  0  0  0  0  2  0  0  0  0  0  0
  189.7980  173.0950  140.7980 C   0  0  1  0  0  3  0  0  0  0  0  0
  189.9680  172.9390  138.4110 N   0  0  0  0  0  0  0  0  0  0  0  0
  189.8470  171.5840  138.9290 C   0  0  0  0  0  2  0  0  0  0  0  0
  189.0010  173.0650  137.3320 C   0  0  0  0  0  2  0  0  0  0  0  0
  188.1850  174.3350  137.5050 C   0  0  0  0  0  2  0  0  0  0  0  0
  188.3220  175.1420  136.3700 O   0  0  0  0  0  0  0  0  0  0  0  0
  187.5150  177.1970  135.7100 O   0  0  0  0  0  0  0  0  0  0  0  0
  187.2030  175.9860  136.3490 C   0  0  1  0  0  0  0  0  0  0  0  0
  186.6200  176.3420  135.0370 C   0  0  0  0  0  2  0  0  0  0  0  0
  186.4360  176.2390  137.6360 C   0  0  0  0  0  1  0  0  0  0  0  0
  194.2480  177.3760  147.0370 N   0  0  0  0  0  0  0  0  0  0  0  0
  194.0500  176.5390  146.2630 C   0  0  0  0  0  0  0  0  0  0  0  0
  1 19  1  0  0  0  0
  1  4  1  0  0  0  0
  2 23  1  6  0  0  0
  2 12  1  0  0  0  0
  4 17  1  6  0  0  0
  4 14  1  0  0  0  0
  5 21  2  0  0  0  0
  6  3  1  0  0  0  0
  6  7  2  0  0  0  0
  6 20  1  0  0  0  0
  7 21  1  0  0  0  0
  8 10  1  0  0  0  0
  9 22  1  0  0  0  0
 10 12  1  0  0  0  0
 10  9  2  0  0  0  0
 11 15  2  0  0  0  0
 11  7  1  0  0  0  0
 12  3  2  0  0  0  0
 13 16  2  0  0  0  0
 13 38  1  0  0  0  0
 15  5  1  0  0  0  0
 18  8  1  0  0  0  0
 18  2  1  0  0  0  0
 18 14  1  1  0  0  0
 19  8  1  0  0  0  0
 20 13  1  0  0  0  0
 21 16  1  0  0  0  0
 22 20  2  0  0  0  0
 24 23  2  0  0  0  0
 25 27  1  0  0  0  0
 26 27  1  0  0  0  0
 27 23  1  1  0  0  0
 28 29  1  0  0  0  0
 28 26  1  0  0  0  0
 29 25  1  0  0  0  0
 30 31  1  0  0  0  0
 30 28  1  0  0  0  0
 32 31  1  0  0  0  0
 33 34  1  0  0  0  0
 34 32  1  0  0  0  0
 34 36  1  1  0  0  0
 35 33  1  0  0  0  0
 35 34  1  0  0  0  0
 38 37  3  0  0  0  0
M  END
>  <MODEL>
9

>  <REMARK>
 VINA RESULT:      -6.6      2.376      6.306
  Name = 
  7 active torsions:
  status: ('A' for Active; 'I' for Inactive)
    1  A    between atoms: C_3  and  C_14
    2  A    between atoms: C_13  and  O_34
    3  A    between atoms: C_14  and  C_17
    4  A    between atoms: C_15  and  C_29
    5  A    between atoms: C_15  and  N_36
    6  A    between atoms: C_21  and  C_33
    7  A    between atoms: C_29  and  O_34
                            x       y       z     vdW  Elec       q    Type
                         _______ _______ _______ _____ _____    ______ ____

>  <TORSDO>
F 7

$$$$
