=
 OpenBabel11042413563D

 51 53  0  0  1  0  0  0  0  0999 V2000
  190.3570  177.0120  145.7210 C   0  0  0  0  0  2  0  0  0  0  0  0
  191.4240  176.1630  145.0560 C   0  0  2  0  0  3  0  0  0  0  0  0
  193.7480  176.2660  143.9880 C   0  0  2  0  0  3  0  0  0  0  0  0
  193.6060  175.3900  145.2230 C   0  0  2  0  0  3  0  0  0  0  0  0
  192.4780  175.8570  146.0080 N   0  0  0  0  0  2  0  0  0  0  0  0
  192.1500  177.0660  143.6670 S   0  0  0  0  0  0  0  0  0  0  0  0
  195.2720  175.6960  142.0480 C   0  0  0  0  0  0  0  0  0  0  0  0
  194.1230  175.4340  142.8550 N   0  0  0  0  0  2  0  0  0  0  0  0
  196.0050  176.6950  142.2830 O   0  0  0  0  0  0  0  0  0  0  0  0
  195.6110  174.7470  140.9430 C   0  0  2  0  0  3  0  0  0  0  0  0
  195.2560  174.4730  137.1350 C   0  0  1  0  0  3  0  0  0  0  0  0
  193.9710  174.8750  139.1120 N   0  0  0  0  0  2  0  0  0  0  0  0
  195.5600  175.0640  135.8450 N   0  0  0  0  0  1  0  0  0  0  0  0
  196.5400  174.8970  138.3320 S   0  0  0  0  0  0  0  0  0  0  0  0
  195.2730  175.3450  139.5730 C   0  0  2  0  0  3  0  0  0  0  0  0
  193.9640  175.0370  137.6670 C   0  0  0  0  0  2  0  0  0  0  0  0
  194.9030  173.4170  141.1760 C   0  0  0  0  0  2  0  0  0  0  0  0
  195.8300  172.3200  140.9520 N   0  0  0  0  0  1  0  0  0  0  0  0
  194.8710  175.4480  146.0620 C   0  0  0  0  0  2  0  0  0  0  0  0
  196.0440  174.8680  145.2910 C   0  0  0  0  0  2  0  0  0  0  0  0
  196.7510  171.4370  146.3820 O   0  0  0  0  0  0  0  0  0  0  0  0
  196.5960  173.7250  146.0050 N   0  0  0  0  0  2  0  0  0  0  0  0
  196.2410  172.3710  145.7100 C   0  0  0  0  0  0  0  0  0  0  0  0
  195.3070  172.0410  144.5890 C   0  0  0  0  0  2  0  0  0  0  0  0
  194.4100  170.8680  144.9550 C   0  0  0  0  0  2  0  0  0  0  0  0
  194.5110  169.7740  143.9080 C   0  0  0  0  0  1  0  0  0  0  0  0
  189.2730  176.1130  146.3050 C   0  0  0  0  0  2  0  0  0  0  0  0
  186.8590  176.5770  146.8380 C   0  0  0  0  0  2  0  0  0  0  0  0
  188.0170  177.8250  145.0090 C   0  0  0  0  0  2  0  0  0  0  0  0
  187.9100  176.4810  145.7330 C   0  0  1  0  0  3  0  0  0  0  0  0
  185.4890  176.8680  146.2320 C   0  0  0  0  0  2  0  0  0  0  0  0
  185.5630  178.0960  145.3750 C   0  0  0  0  0  0  0  0  0  0  0  0
  184.6920  178.9450  145.4470 O   0  0  0  0  0  0  0  0  0  0  0  0
  186.6840  178.2480  144.3830 C   0  0  2  0  0  3  0  0  0  0  0  0
  186.4130  177.4370  143.1230 C   0  0  0  0  0  2  0  0  0  0  0  0
  187.5290  177.6480  142.1130 C   0  0  0  0  0  2  0  0  0  0  0  0
  187.9510  176.3180  141.5140 C   0  0  0  0  0  2  0  0  0  0  0  0
  188.7520  175.5740  142.4730 N   0  0  0  0  0  2  0  0  0  0  0  0
  189.2600  174.3950  141.7880 C   0  0  2  0  0  3  0  0  0  0  0  0
  188.1400  173.7520  140.9640 C   0  0  2  0  0  3  0  0  0  0  0  0
  187.5430  172.7040  141.6730 O   0  0  0  0  0  1  0  0  0  0  0  0
  188.4510  172.0370  139.3400 O   0  0  0  0  0  1  0  0  0  0  0  0
  189.3750  174.0630  138.8090 O   0  0  0  0  0  0  0  0  0  0  0  0
  188.6660  173.2310  139.6670 C   0  0  0  0  0  0  0  0  0  0  0  0
  189.7850  173.4180  142.8320 C   0  0  0  0  0  2  0  0  0  0  0  0
  191.1300  172.8090  142.4390 C   0  0  1  0  0  3  0  0  0  0  0  0
  192.1630  173.3540  143.1790 F   0  0  0  0  0  0  0  0  0  0  0  0
  191.3690  170.9040  143.8310 F   0  0  0  0  0  0  0  0  0  0  0  0
  192.1700  170.7770  141.7300 F   0  0  0  0  0  0  0  0  0  0  0  0
  191.1500  171.2840  142.5200 C   0  0  0  0  0  0  0  0  0  0  0  0
  189.9410  170.7630  142.1010 F   0  0  0  0  0  0  0  0  0  0  0  0
  1 27  1  0  0  0  0
  2  1  1  1  0  0  0
  2  5  1  0  0  0  0
  3  8  1  6  0  0  0
  3  4  1  0  0  0  0
  4  5  1  0  0  0  0
  4 19  1  1  0  0  0
  6  3  1  0  0  0  0
  6  2  1  0  0  0  0
  7  9  2  0  0  0  0
  7  8  1  0  0  0  0
 10 17  1  1  0  0  0
 10  7  1  0  0  0  0
 11 13  1  6  0  0  0
 11 16  1  0  0  0  0
 11 14  1  0  0  0  0
 12 15  1  0  0  0  0
 14 15  1  0  0  0  0
 15 10  1  1  0  0  0
 16 12  1  0  0  0  0
 18 17  1  0  0  0  0
 20 22  1  0  0  0  0
 20 19  1  0  0  0  0
 23 22  1  0  0  0  0
 23 21  2  0  0  0  0
 24 25  1  0  0  0  0
 24 23  1  0  0  0  0
 26 25  1  0  0  0  0
 29 30  1  0  0  0  0
 30 27  1  1  0  0  0
 30 28  1  0  0  0  0
 31 28  1  0  0  0  0
 32 33  2  0  0  0  0
 32 31  1  0  0  0  0
 34 35  1  6  0  0  0
 34 29  1  0  0  0  0
 34 32  1  0  0  0  0
 36 35  1  0  0  0  0
 37 36  1  0  0  0  0
 37 38  1  0  0  0  0
 39 38  1  0  0  0  0
 39 45  1  1  0  0  0
 40 41  1  1  0  0  0
 40 39  1  0  0  0  0
 42 44  1  0  0  0  0
 43 44  2  0  0  0  0
 44 40  1  0  0  0  0
 46 50  1  0  0  0  0
 46 45  1  0  0  0  0
 46 47  1  1  0  0  0
 49 50  1  0  0  0  0
 50 48  1  0  0  0  0
 51 50  1  0  0  0  0
M  END
>  <MODEL>
1

>  <REMARK>
 VINA RESULT:      -5.8      0.000      0.000
  Name = 
  22 active torsions:
  status: ('A' for Active; 'I' for Inactive)
    1  A    between atoms: C_7  and  C_36
    2  A    between atoms: C_7  and  N_37
    3  A    between atoms: C_9  and  C_43
    4  A    between atoms: N_10  and  C_34
    5  A    between atoms: C_11  and  C_46
    6  A    between atoms: C_11  and  C_47
    7  A    between atoms: C_12  and  C_43
    8  A    between atoms: C_13  and  C_14
    9  A    between atoms: C_13  and  C_22
   10  A    between atoms: C_17  and  C_28
   11  A    between atoms: C_17  and  N_32
   12  A    between atoms: C_20  and  C_43
   13  A    between atoms: C_21  and  C_36
   14  A    between atoms: C_21  and  C_51
   15  A    between atoms: C_22  and  C_46
   16  A    between atoms: C_24  and  C_29
   17  A    between atoms: C_25  and  C_48
   18  A    between atoms: C_26  and  C_27
   19  A    between atoms: C_26  and  C_35
   20  A    between atoms: C_28  and  C_39
   21  A    between atoms: C_29  and  C_48
   22  A    between atoms: N_37  and  C_46
                            x       y       z     vdW  Elec       q    Type
                         _______ _______ _______ _____ _____    ______ ____

>  <TORSDO>
F 22

$$$$
=
 OpenBabel11042413563D

 51 53  0  0  1  0  0  0  0  0999 V2000
  193.9920  175.6570  142.6510 C   0  0  0  0  0  2  0  0  0  0  0  0
  193.7570  175.1490  141.2420 C   0  0  2  0  0  3  0  0  0  0  0  0
  193.5830  173.0150  139.8390 C   0  0  2  0  0  3  0  0  0  0  0  0
  192.3460  173.8980  139.8900 C   0  0  2  0  0  3  0  0  0  0  0  0
  192.3840  174.6970  141.1000 N   0  0  0  0  0  2  0  0  0  0  0  0
  194.8580  173.7540  140.9000 S   0  0  0  0  0  0  0  0  0  0  0  0
  194.7590  171.8100  137.9480 C   0  0  0  0  0  0  0  0  0  0  0  0
  194.0610  172.9430  138.4670 N   0  0  0  0  0  2  0  0  0  0  0  0
  195.0100  170.8180  138.6870 O   0  0  0  0  0  0  0  0  0  0  0  0
  195.1540  171.8030  136.5060 C   0  0  2  0  0  3  0  0  0  0  0  0
  196.3610  175.4420  136.5400 C   0  0  1  0  0  3  0  0  0  0  0  0
  196.8810  173.2880  137.4390 N   0  0  0  0  0  2  0  0  0  0  0  0
  196.9610  176.5270  135.7840 N   0  0  0  0  0  1  0  0  0  0  0  0
  195.4410  174.3490  135.4360 S   0  0  0  0  0  0  0  0  0  0  0  0
  196.2060  172.8790  136.2120 C   0  0  2  0  0  3  0  0  0  0  0  0
  197.4380  174.6060  137.1800 C   0  0  0  0  0  2  0  0  0  0  0  0
  193.9150  171.9630  135.6340 C   0  0  0  0  0  2  0  0  0  0  0  0
  192.7870  171.2870  136.2520 N   0  0  0  0  0  1  0  0  0  0  0  0
  191.0880  173.0470  139.8790 C   0  0  0  0  0  2  0  0  0  0  0  0
  191.2100  171.9080  140.8770 C   0  0  0  0  0  2  0  0  0  0  0  0
  189.2700  171.7830  143.9880 O   0  0  0  0  0  0  0  0  0  0  0  0
  190.1080  171.9550  141.8270 N   0  0  0  0  0  2  0  0  0  0  0  0
  190.2750  171.7400  143.2310 C   0  0  0  0  0  0  0  0  0  0  0  0
  191.6290  171.5100  143.8250 C   0  0  0  0  0  2  0  0  0  0  0  0
  192.0510  172.6890  144.6890 C   0  0  0  0  0  2  0  0  0  0  0  0
  193.5600  172.7200  144.8460 C   0  0  0  0  0  1  0  0  0  0  0  0
  192.8470  176.5720  143.0670 C   0  0  0  0  0  2  0  0  0  0  0  0
  193.3920  176.3210  145.5100 C   0  0  0  0  0  2  0  0  0  0  0  0
  191.1170  177.0580  144.7880 C   0  0  0  0  0  2  0  0  0  0  0  0
  192.3150  176.1730  144.4370 C   0  0  1  0  0  3  0  0  0  0  0  0
  192.8600  175.8400  146.8560 C   0  0  0  0  0  2  0  0  0  0  0  0
  191.5890  176.5630  147.1870 C   0  0  0  0  0  0  0  0  0  0  0  0
  191.4100  177.0010  148.3110 O   0  0  0  0  0  0  0  0  0  0  0  0
  190.5110  176.6940  146.1460 C   0  0  2  0  0  3  0  0  0  0  0  0
  189.7000  175.4100  146.0340 C   0  0  0  0  0  2  0  0  0  0  0  0
  188.5050  175.4600  146.9710 C   0  0  0  0  0  2  0  0  0  0  0  0
  187.7770  176.7840  146.8220 C   0  0  0  0  0  2  0  0  0  0  0  0
  186.8990  176.7380  145.6630 N   0  0  0  0  0  2  0  0  0  0  0  0
  186.9950  178.0290  144.9990 C   0  0  2  0  0  3  0  0  0  0  0  0
  185.6030  178.6570  144.8820 C   0  0  2  0  0  3  0  0  0  0  0  0
  185.6850  179.9420  144.3330 O   0  0  0  0  0  1  0  0  0  0  0  0
  183.8050  178.2200  146.3820 O   0  0  0  0  0  0  0  0  0  0  0  0
  185.5760  179.3550  147.2850 O   0  0  0  0  0  1  0  0  0  0  0  0
  184.9400  178.7350  146.2170 C   0  0  0  0  0  0  0  0  0  0  0  0
  187.6050  177.8190  143.6200 C   0  0  0  0  0  2  0  0  0  0  0  0
  187.5200  176.3650  143.1570 C   0  0  1  0  0  3  0  0  0  0  0  0
  186.3000  176.0960  142.5650 F   0  0  0  0  0  0  0  0  0  0  0  0
  188.1520  175.5030  141.0400 F   0  0  0  0  0  0  0  0  0  0  0  0
  189.4060  174.9350  142.8220 F   0  0  0  0  0  0  0  0  0  0  0  0
  188.6700  175.9550  142.2390 C   0  0  0  0  0  0  0  0  0  0  0  0
  189.4970  177.0340  141.9900 F   0  0  0  0  0  0  0  0  0  0  0  0
  1 27  1  0  0  0  0
  2  1  1  1  0  0  0
  3  8  1  6  0  0  0
  3  4  1  0  0  0  0
  3  6  1  0  0  0  0
  4 19  1  1  0  0  0
  4  5  1  0  0  0  0
  5  2  1  0  0  0  0
  6  2  1  0  0  0  0
  7  8  1  0  0  0  0
  7  9  2  0  0  0  0
 10 17  1  6  0  0  0
 10  7  1  0  0  0  0
 11 13  1  6  0  0  0
 11 16  1  0  0  0  0
 14 15  1  0  0  0  0
 14 11  1  0  0  0  0
 15 10  1  1  0  0  0
 15 12  1  0  0  0  0
 16 12  1  0  0  0  0
 17 18  1  0  0  0  0
 19 20  1  0  0  0  0
 20 22  1  0  0  0  0
 22 23  1  0  0  0  0
 23 24  1  0  0  0  0
 23 21  2  0  0  0  0
 24 25  1  0  0  0  0
 25 26  1  0  0  0  0
 28 31  1  0  0  0  0
 29 34  1  0  0  0  0
 30 27  1  6  0  0  0
 30 29  1  0  0  0  0
 30 28  1  0  0  0  0
 31 32  1  0  0  0  0
 32 33  2  0  0  0  0
 34 35  1  6  0  0  0
 34 32  1  0  0  0  0
 35 36  1  0  0  0  0
 37 36  1  0  0  0  0
 38 37  1  0  0  0  0
 39 45  1  6  0  0  0
 39 38  1  0  0  0  0
 40 41  1  1  0  0  0
 40 39  1  0  0  0  0
 40 44  1  0  0  0  0
 44 42  2  0  0  0  0
 44 43  1  0  0  0  0
 46 47  1  6  0  0  0
 46 45  1  0  0  0  0
 48 50  1  0  0  0  0
 50 49  1  0  0  0  0
 50 46  1  0  0  0  0
 51 50  1  0  0  0  0
M  END
>  <MODEL>
2

>  <REMARK>
 VINA RESULT:      -5.7      3.129      5.898
  Name = 
  22 active torsions:
  status: ('A' for Active; 'I' for Inactive)
    1  A    between atoms: C_7  and  C_36
    2  A    between atoms: C_7  and  N_37
    3  A    between atoms: C_9  and  C_43
    4  A    between atoms: N_10  and  C_34
    5  A    between atoms: C_11  and  C_46
    6  A    between atoms: C_11  and  C_47
    7  A    between atoms: C_12  and  C_43
    8  A    between atoms: C_13  and  C_14
    9  A    between atoms: C_13  and  C_22
   10  A    between atoms: C_17  and  C_28
   11  A    between atoms: C_17  and  N_32
   12  A    between atoms: C_20  and  C_43
   13  A    between atoms: C_21  and  C_36
   14  A    between atoms: C_21  and  C_51
   15  A    between atoms: C_22  and  C_46
   16  A    between atoms: C_24  and  C_29
   17  A    between atoms: C_25  and  C_48
   18  A    between atoms: C_26  and  C_27
   19  A    between atoms: C_26  and  C_35
   20  A    between atoms: C_28  and  C_39
   21  A    between atoms: C_29  and  C_48
   22  A    between atoms: N_37  and  C_46
                            x       y       z     vdW  Elec       q    Type
                         _______ _______ _______ _____ _____    ______ ____

>  <TORSDO>
F 22

$$$$
=
 OpenBabel11042413563D

 51 53  0  0  1  0  0  0  0  0999 V2000
  190.1430  177.6320  145.1990 C   0  0  0  0  0  2  0  0  0  0  0  0
  191.1130  176.6030  144.6510 C   0  0  2  0  0  3  0  0  0  0  0  0
  193.4350  176.3320  143.6100 C   0  0  2  0  0  3  0  0  0  0  0  0
  193.1990  175.6260  144.9360 C   0  0  2  0  0  3  0  0  0  0  0  0
  192.1270  176.2990  145.6460 N   0  0  0  0  0  2  0  0  0  0  0  0
  191.9330  177.2550  143.1760 S   0  0  0  0  0  0  0  0  0  0  0  0
  194.4410  175.6410  141.3910 C   0  0  0  0  0  0  0  0  0  0  0  0
  193.7200  175.3380  142.5860 N   0  0  0  0  0  2  0  0  0  0  0  0
  194.8470  176.8150  141.1680 O   0  0  0  0  0  0  0  0  0  0  0  0
  194.7390  174.5380  140.4270 C   0  0  2  0  0  3  0  0  0  0  0  0
  196.1830  170.9860  140.4100 C   0  0  1  0  0  3  0  0  0  0  0  0
  196.8000  173.2560  140.8390 N   0  0  0  0  0  2  0  0  0  0  0  0
  196.1850  169.6760  141.0370 N   0  0  0  0  0  1  0  0  0  0  0  0
  194.5720  171.7730  140.6210 S   0  0  0  0  0  0  0  0  0  0  0  0
  195.3740  173.3350  141.1360 C   0  0  2  0  0  3  0  0  0  0  0  0
  197.1930  171.8780  141.0830 C   0  0  0  0  0  2  0  0  0  0  0  0
  195.6190  175.0660  139.3010 C   0  0  0  0  0  2  0  0  0  0  0  0
  194.9280  174.9300  138.0300 N   0  0  0  0  0  1  0  0  0  0  0  0
  194.4620  175.6470  145.7790 C   0  0  0  0  0  2  0  0  0  0  0  0
  195.6650  175.2480  144.9400 C   0  0  0  0  0  2  0  0  0  0  0  0
  196.9470  172.0650  146.2390 O   0  0  0  0  0  0  0  0  0  0  0  0
  196.4650  174.2620  145.6520 N   0  0  0  0  0  2  0  0  0  0  0  0
  196.2190  172.8540  145.5830 C   0  0  0  0  0  0  0  0  0  0  0  0
  195.1380  172.2990  144.7110 C   0  0  0  0  0  2  0  0  0  0  0  0
  194.3140  171.2610  145.4580 C   0  0  0  0  0  2  0  0  0  0  0  0
  193.9930  170.0850  144.5550 C   0  0  0  0  0  1  0  0  0  0  0  0
  189.2440  176.9870  146.2480 C   0  0  0  0  0  2  0  0  0  0  0  0
  186.7970  177.2350  146.7760 C   0  0  0  0  0  2  0  0  0  0  0  0
  187.6560  177.7270  144.4820 C   0  0  0  0  0  2  0  0  0  0  0  0
  187.8250  176.8390  145.7170 C   0  0  1  0  0  3  0  0  0  0  0  0
  185.3850  177.0030  146.2470 C   0  0  0  0  0  2  0  0  0  0  0  0
  185.2050  177.7250  144.9460 C   0  0  0  0  0  0  0  0  0  0  0  0
  184.1880  178.3640  144.7380 O   0  0  0  0  0  0  0  0  0  0  0  0
  186.2550  177.6080  143.8750 C   0  0  2  0  0  3  0  0  0  0  0  0
  186.1190  176.2960  143.1160 C   0  0  0  0  0  2  0  0  0  0  0  0
  187.1560  176.2190  142.0090 C   0  0  0  0  0  2  0  0  0  0  0  0
  187.8580  174.8720  142.0400 C   0  0  0  0  0  2  0  0  0  0  0  0
  189.2990  175.0640  142.0210 N   0  0  0  0  0  2  0  0  0  0  0  0
  189.9060  173.7500  141.8730 C   0  0  2  0  0  3  0  0  0  0  0  0
  190.7160  173.4090  143.1280 C   0  0  2  0  0  3  0  0  0  0  0  0
  191.7090  172.4680  142.8340 O   0  0  0  0  0  1  0  0  0  0  0  0
  189.7360  173.4790  145.2970 O   0  0  0  0  0  1  0  0  0  0  0  0
  189.0960  171.7090  143.9940 O   0  0  0  0  0  0  0  0  0  0  0  0
  189.8310  172.8690  144.2030 C   0  0  0  0  0  0  0  0  0  0  0  0
  190.8050  173.7680  140.6440 C   0  0  0  0  0  2  0  0  0  0  0  0
  190.0240  173.5750  139.3440 C   0  0  1  0  0  3  0  0  0  0  0  0
  190.8470  173.7030  138.2400 F   0  0  0  0  0  0  0  0  0  0  0  0
  189.8390  171.3550  140.1570 F   0  0  0  0  0  0  0  0  0  0  0  0
  189.2740  171.7390  138.0110 F   0  0  0  0  0  0  0  0  0  0  0  0
  189.2490  172.2610  139.2950 C   0  0  0  0  0  0  0  0  0  0  0  0
  187.9380  172.4590  139.6850 F   0  0  0  0  0  0  0  0  0  0  0  0
  1 27  1  0  0  0  0
  2  1  1  1  0  0  0
  2  5  1  0  0  0  0
  3  8  1  6  0  0  0
  3  4  1  0  0  0  0
  4  5  1  0  0  0  0
  4 19  1  1  0  0  0
  6  3  1  0  0  0  0
  6  2  1  0  0  0  0
  7  8  1  0  0  0  0
  9  7  2  0  0  0  0
 10 17  1  6  0  0  0
 10  7  1  0  0  0  0
 11 14  1  0  0  0  0
 11 13  1  1  0  0  0
 11 16  1  0  0  0  0
 12 16  1  0  0  0  0
 12 15  1  0  0  0  0
 14 15  1  0  0  0  0
 15 10  1  6  0  0  0
 18 17  1  0  0  0  0
 20 22  1  0  0  0  0
 20 19  1  0  0  0  0
 23 22  1  0  0  0  0
 23 21  2  0  0  0  0
 24 25  1  0  0  0  0
 24 23  1  0  0  0  0
 26 25  1  0  0  0  0
 29 30  1  0  0  0  0
 30 27  1  1  0  0  0
 30 28  1  0  0  0  0
 31 28  1  0  0  0  0
 32 31  1  0  0  0  0
 33 32  2  0  0  0  0
 34 35  1  1  0  0  0
 34 29  1  0  0  0  0
 34 32  1  0  0  0  0
 36 37  1  0  0  0  0
 36 35  1  0  0  0  0
 38 37  1  0  0  0  0
 39 45  1  6  0  0  0
 39 38  1  0  0  0  0
 39 40  1  0  0  0  0
 40 41  1  6  0  0  0
 40 44  1  0  0  0  0
 43 44  2  0  0  0  0
 44 42  1  0  0  0  0
 46 47  1  6  0  0  0
 46 45  1  0  0  0  0
 49 50  1  0  0  0  0
 50 46  1  0  0  0  0
 50 51  1  0  0  0  0
 50 48  1  0  0  0  0
M  END
>  <MODEL>
3

>  <REMARK>
 VINA RESULT:      -5.7      1.885      2.907
  Name = 
  22 active torsions:
  status: ('A' for Active; 'I' for Inactive)
    1  A    between atoms: C_7  and  C_36
    2  A    between atoms: C_7  and  N_37
    3  A    between atoms: C_9  and  C_43
    4  A    between atoms: N_10  and  C_34
    5  A    between atoms: C_11  and  C_46
    6  A    between atoms: C_11  and  C_47
    7  A    between atoms: C_12  and  C_43
    8  A    between atoms: C_13  and  C_14
    9  A    between atoms: C_13  and  C_22
   10  A    between atoms: C_17  and  C_28
   11  A    between atoms: C_17  and  N_32
   12  A    between atoms: C_20  and  C_43
   13  A    between atoms: C_21  and  C_36
   14  A    between atoms: C_21  and  C_51
   15  A    between atoms: C_22  and  C_46
   16  A    between atoms: C_24  and  C_29
   17  A    between atoms: C_25  and  C_48
   18  A    between atoms: C_26  and  C_27
   19  A    between atoms: C_26  and  C_35
   20  A    between atoms: C_28  and  C_39
   21  A    between atoms: C_29  and  C_48
   22  A    between atoms: N_37  and  C_46
                            x       y       z     vdW  Elec       q    Type
                         _______ _______ _______ _____ _____    ______ ____

>  <TORSDO>
F 22

$$$$
=
 OpenBabel11042413563D

 51 53  0  0  1  0  0  0  0  0999 V2000
  187.1900  175.2470  142.2840 C   0  0  0  0  0  2  0  0  0  0  0  0
  188.5450  174.6740  141.9160 C   0  0  2  0  0  3  0  0  0  0  0  0
  189.7110  172.5540  141.0800 C   0  0  2  0  0  3  0  0  0  0  0  0
  189.8220  173.7850  140.1940 C   0  0  2  0  0  3  0  0  0  0  0  0
  188.7070  174.6710  140.4730 N   0  0  0  0  0  2  0  0  0  0  0  0
  188.6740  172.9700  142.5120 S   0  0  0  0  0  0  0  0  0  0  0  0
  191.3860  170.8230  141.8610 C   0  0  0  0  0  0  0  0  0  0  0  0
  191.0410  172.1680  141.5270 N   0  0  0  0  0  2  0  0  0  0  0  0
  190.5210  169.9060  141.7990 O   0  0  0  0  0  0  0  0  0  0  0  0
  192.7960  170.5130  142.2490 C   0  0  2  0  0  3  0  0  0  0  0  0
  195.5890  171.9220  144.4660 C   0  0  1  0  0  3  0  0  0  0  0  0
  194.2990  172.4440  142.5220 N   0  0  0  0  0  2  0  0  0  0  0  0
  195.9480  172.4650  145.7640 N   0  0  0  0  0  1  0  0  0  0  0  0
  194.1950  170.7860  144.6320 S   0  0  0  0  0  0  0  0  0  0  0  0
  193.3540  171.5710  143.2090 C   0  0  2  0  0  3  0  0  0  0  0  0
  195.1380  173.0320  143.5520 C   0  0  0  0  0  2  0  0  0  0  0  0
  193.6530  170.3710  140.9970 C   0  0  0  0  0  2  0  0  0  0  0  0
  194.4740  169.1760  141.0950 N   0  0  0  0  0  1  0  0  0  0  0  0
  189.8040  173.3860  138.7290 C   0  0  0  0  0  2  0  0  0  0  0  0
  191.2110  173.4080  138.1570 C   0  0  0  0  0  2  0  0  0  0  0  0
  191.4910  173.9450  134.5380 O   0  0  0  0  0  0  0  0  0  0  0  0
  191.1680  173.2000  136.7170 N   0  0  0  0  0  2  0  0  0  0  0  0
  191.5700  174.1950  135.7700 C   0  0  0  0  0  0  0  0  0  0  0  0
  192.1240  175.5100  136.2150 C   0  0  0  0  0  2  0  0  0  0  0  0
  193.6450  175.5020  136.1730 C   0  0  0  0  0  2  0  0  0  0  0  0
  194.1550  176.5010  135.1500 C   0  0  0  0  0  1  0  0  0  0  0  0
  187.1380  176.7250  141.9160 C   0  0  0  0  0  2  0  0  0  0  0  0
  185.8020  178.7150  142.6800 C   0  0  0  0  0  2  0  0  0  0  0  0
  185.9450  176.6630  144.0980 C   0  0  0  0  0  2  0  0  0  0  0  0
  186.7010  177.5580  143.1140 C   0  0  1  0  0  3  0  0  0  0  0  0
  185.4440  179.5790  143.8860 C   0  0  0  0  0  2  0  0  0  0  0  0
  184.8370  178.7260  144.9590 C   0  0  0  0  0  0  0  0  0  0  0  0
  183.8420  179.1050  145.5510 O   0  0  0  0  0  0  0  0  0  0  0  0
  185.4970  177.4310  145.3460 C   0  0  2  0  0  3  0  0  0  0  0  0
  186.6830  177.6740  146.2690 C   0  0  0  0  0  2  0  0  0  0  0  0
  186.9040  176.4700  147.1690 C   0  0  0  0  0  2  0  0  0  0  0  0
  188.2220  175.7970  146.8300 C   0  0  0  0  0  2  0  0  0  0  0  0
  189.3000  176.7740  146.8580 N   0  0  0  0  0  2  0  0  0  0  0  0
  190.4780  176.1320  146.2960 C   0  0  2  0  0  3  0  0  0  0  0  0
  191.5140  175.8940  147.3990 C   0  0  2  0  0  3  0  0  0  0  0  0
  191.6350  177.0230  148.2160 O   0  0  0  0  0  1  0  0  0  0  0  0
  193.0580  174.4190  146.3430 O   0  0  0  0  0  0  0  0  0  0  0  0
  193.8520  176.5230  146.7690 O   0  0  0  0  0  1  0  0  0  0  0  0
  192.8480  175.5650  146.8140 C   0  0  0  0  0  0  0  0  0  0  0  0
  191.0500  177.0340  145.2110 C   0  0  0  0  0  2  0  0  0  0  0  0
  190.7490  176.5210  143.8040 C   0  0  1  0  0  3  0  0  0  0  0  0
  190.4340  177.5590  142.9460 F   0  0  0  0  0  0  0  0  0  0  0  0
  191.7230  174.3620  143.6830 F   0  0  0  0  0  0  0  0  0  0  0  0
  193.1030  176.1420  143.6280 F   0  0  0  0  0  0  0  0  0  0  0  0
  191.8680  175.6580  143.2240 C   0  0  0  0  0  0  0  0  0  0  0  0
  191.8060  175.6520  141.8430 F   0  0  0  0  0  0  0  0  0  0  0  0
  2  1  1  6  0  0  0
  2  6  1  0  0  0  0
  3  8  1  1  0  0  0
  3  6  1  0  0  0  0
  4 19  1  6  0  0  0
  4  5  1  0  0  0  0
  4  3  1  0  0  0  0
  5  2  1  0  0  0  0
  7 10  1  0  0  0  0
  8  7  1  0  0  0  0
  9  7  2  0  0  0  0
 10 17  1  6  0  0  0
 11 14  1  0  0  0  0
 11 13  1  1  0  0  0
 12 15  1  0  0  0  0
 12 16  1  0  0  0  0
 15 10  1  6  0  0  0
 15 14  1  0  0  0  0
 16 11  1  0  0  0  0
 17 18  1  0  0  0  0
 20 19  1  0  0  0  0
 21 23  2  0  0  0  0
 22 20  1  0  0  0  0
 23 24  1  0  0  0  0
 23 22  1  0  0  0  0
 25 24  1  0  0  0  0
 26 25  1  0  0  0  0
 27  1  1  0  0  0  0
 28 30  1  0  0  0  0
 28 31  1  0  0  0  0
 29 34  1  0  0  0  0
 30 27  1  6  0  0  0
 30 29  1  0  0  0  0
 31 32  1  0  0  0  0
 32 34  1  0  0  0  0
 32 33  2  0  0  0  0
 34 35  1  1  0  0  0
 35 36  1  0  0  0  0
 37 38  1  0  0  0  0
 37 36  1  0  0  0  0
 39 45  1  6  0  0  0
 39 38  1  0  0  0  0
 39 40  1  0  0  0  0
 40 41  1  6  0  0  0
 42 44  2  0  0  0  0
 43 44  1  0  0  0  0
 44 40  1  0  0  0  0
 46 47  1  6  0  0  0
 46 45  1  0  0  0  0
 50 49  1  0  0  0  0
 50 48  1  0  0  0  0
 50 46  1  0  0  0  0
 51 50  1  0  0  0  0
M  END
>  <MODEL>
4

>  <REMARK>
 VINA RESULT:      -5.6      2.867      6.733
  Name = 
  22 active torsions:
  status: ('A' for Active; 'I' for Inactive)
    1  A    between atoms: C_7  and  C_36
    2  A    between atoms: C_7  and  N_37
    3  A    between atoms: C_9  and  C_43
    4  A    between atoms: N_10  and  C_34
    5  A    between atoms: C_11  and  C_46
    6  A    between atoms: C_11  and  C_47
    7  A    between atoms: C_12  and  C_43
    8  A    between atoms: C_13  and  C_14
    9  A    between atoms: C_13  and  C_22
   10  A    between atoms: C_17  and  C_28
   11  A    between atoms: C_17  and  N_32
   12  A    between atoms: C_20  and  C_43
   13  A    between atoms: C_21  and  C_36
   14  A    between atoms: C_21  and  C_51
   15  A    between atoms: C_22  and  C_46
   16  A    between atoms: C_24  and  C_29
   17  A    between atoms: C_25  and  C_48
   18  A    between atoms: C_26  and  C_27
   19  A    between atoms: C_26  and  C_35
   20  A    between atoms: C_28  and  C_39
   21  A    between atoms: C_29  and  C_48
   22  A    between atoms: N_37  and  C_46
                            x       y       z     vdW  Elec       q    Type
                         _______ _______ _______ _____ _____    ______ ____

>  <TORSDO>
F 22

$$$$
=
 OpenBabel11042413563D

 51 53  0  0  1  0  0  0  0  0999 V2000
  188.7110  173.9290  142.0820 C   0  0  0  0  0  2  0  0  0  0  0  0
  190.1590  173.7740  141.6570 C   0  0  2  0  0  3  0  0  0  0  0  0
  191.9230  172.0390  141.0000 C   0  0  2  0  0  3  0  0  0  0  0  0
  191.5670  173.0780  139.9480 C   0  0  2  0  0  3  0  0  0  0  0  0
  190.2360  173.5880  140.2180 N   0  0  0  0  0  2  0  0  0  0  0  0
  190.8840  172.3250  142.4620 S   0  0  0  0  0  0  0  0  0  0  0  0
  194.3520  171.3530  140.8070 C   0  0  0  0  0  0  0  0  0  0  0  0
  193.3270  172.1820  141.3550 N   0  0  0  0  0  2  0  0  0  0  0  0
  194.0650  170.4320  139.9940 O   0  0  0  0  0  0  0  0  0  0  0  0
  195.7750  171.6180  141.1840 C   0  0  2  0  0  3  0  0  0  0  0  0
  197.2060  171.9350  144.7270 C   0  0  1  0  0  3  0  0  0  0  0  0
  197.0990  173.0970  142.6390 N   0  0  0  0  0  2  0  0  0  0  0  0
  196.9180  172.1170  146.1380 N   0  0  0  0  0  1  0  0  0  0  0  0
  195.8250  171.1050  143.9120 S   0  0  0  0  0  0  0  0  0  0  0  0
  195.8690  172.3190  142.5440 C   0  0  2  0  0  3  0  0  0  0  0  0
  197.3620  173.2760  144.0580 C   0  0  0  0  0  2  0  0  0  0  0  0
  196.4560  172.4190  140.0810 C   0  0  0  0  0  2  0  0  0  0  0  0
  195.5060  173.3400  139.4810 N   0  0  0  0  0  1  0  0  0  0  0  0
  191.6070  172.4610  138.5610 C   0  0  0  0  0  2  0  0  0  0  0  0
  190.2370  172.5370  137.9090 C   0  0  0  0  0  2  0  0  0  0  0  0
  189.3610  175.1150  135.4500 O   0  0  0  0  0  0  0  0  0  0  0  0
  190.2790  173.4270  136.7580 N   0  0  0  0  0  2  0  0  0  0  0  0
  189.2590  174.3900  136.4730 C   0  0  0  0  0  0  0  0  0  0  0  0
  188.0970  174.5820  137.3950 C   0  0  0  0  0  2  0  0  0  0  0  0
  187.1010  175.5740  136.8140 C   0  0  0  0  0  2  0  0  0  0  0  0
  186.5630  176.4870  137.9010 C   0  0  0  0  0  1  0  0  0  0  0  0
  187.9930  174.8760  141.1280 C   0  0  0  0  0  2  0  0  0  0  0  0
  186.5580  176.9270  141.3870 C   0  0  0  0  0  2  0  0  0  0  0  0
  188.0350  176.1670  143.2540 C   0  0  0  0  0  2  0  0  0  0  0  0
  187.8940  176.2700  141.7340 C   0  0  1  0  0  3  0  0  0  0  0  0
  186.5170  178.3490  141.9380 C   0  0  0  0  0  2  0  0  0  0  0  0
  186.8060  178.3330  143.4080 C   0  0  0  0  0  0  0  0  0  0  0  0
  186.1300  179.0010  144.1720 O   0  0  0  0  0  0  0  0  0  0  0  0
  187.9720  177.5390  143.9320 C   0  0  2  0  0  3  0  0  0  0  0  0
  189.2810  178.2890  143.7260 C   0  0  0  0  0  2  0  0  0  0  0  0
  190.2960  177.8730  144.7770 C   0  0  0  0  0  2  0  0  0  0  0  0
  191.5090  177.2430  144.1130 C   0  0  0  0  0  2  0  0  0  0  0  0
  191.4160  175.7930  144.1860 N   0  0  0  0  0  2  0  0  0  0  0  0
  192.3040  175.3580  145.2530 C   0  0  2  0  0  3  0  0  0  0  0  0
  193.5040  174.6150  144.6580 C   0  0  2  0  0  3  0  0  0  0  0  0
  194.1670  173.8770  145.6450 O   0  0  0  0  0  1  0  0  0  0  0  0
  195.1790  176.3060  144.7590 O   0  0  0  0  0  1  0  0  0  0  0  0
  194.5900  175.6390  142.6500 O   0  0  0  0  0  0  0  0  0  0  0  0
  194.4650  175.5710  144.0320 C   0  0  0  0  0  0  0  0  0  0  0  0
  191.5230  174.4480  146.1910 C   0  0  0  0  0  2  0  0  0  0  0  0
  190.0230  174.4530  145.8980 C   0  0  1  0  0  3  0  0  0  0  0  0
  189.5610  173.1800  145.6170 F   0  0  0  0  0  0  0  0  0  0  0  0
  188.9200  174.1530  147.9760 F   0  0  0  0  0  0  0  0  0  0  0  0
  187.9960  175.5730  146.4910 F   0  0  0  0  0  0  0  0  0  0  0  0
  189.1930  175.0990  147.0060 C   0  0  0  0  0  0  0  0  0  0  0  0
  189.8900  176.1430  147.5840 F   0  0  0  0  0  0  0  0  0  0  0  0
  2  1  1  1  0  0  0
  2  6  1  0  0  0  0
  3  8  1  1  0  0  0
  3  6  1  0  0  0  0
  4 19  1  6  0  0  0
  4  5  1  0  0  0  0
  4  3  1  0  0  0  0
  5  2  1  0  0  0  0
  7 10  1  0  0  0  0
  7  8  1  0  0  0  0
  9  7  2  0  0  0  0
 10 17  1  6  0  0  0
 11 13  1  1  0  0  0
 12 16  1  0  0  0  0
 14 11  1  0  0  0  0
 15 10  1  6  0  0  0
 15 12  1  0  0  0  0
 15 14  1  0  0  0  0
 16 11  1  0  0  0  0
 18 17  1  0  0  0  0
 20 19  1  0  0  0  0
 21 23  2  0  0  0  0
 22 20  1  0  0  0  0
 23 22  1  0  0  0  0
 23 24  1  0  0  0  0
 25 24  1  0  0  0  0
 25 26  1  0  0  0  0
 27  1  1  0  0  0  0
 28 30  1  0  0  0  0
 28 31  1  0  0  0  0
 29 34  1  0  0  0  0
 30 27  1  6  0  0  0
 30 29  1  0  0  0  0
 31 32  1  0  0  0  0
 32 34  1  0  0  0  0
 32 33  2  0  0  0  0
 34 35  1  6  0  0  0
 35 36  1  0  0  0  0
 37 38  1  0  0  0  0
 37 36  1  0  0  0  0
 38 39  1  0  0  0  0
 39 45  1  1  0  0  0
 40 39  1  0  0  0  0
 40 41  1  1  0  0  0
 43 44  2  0  0  0  0
 44 40  1  0  0  0  0
 44 42  1  0  0  0  0
 46 47  1  1  0  0  0
 46 45  1  0  0  0  0
 46 50  1  0  0  0  0
 49 50  1  0  0  0  0
 50 51  1  0  0  0  0
 50 48  1  0  0  0  0
M  END
>  <MODEL>
5

>  <REMARK>
 VINA RESULT:      -5.5      2.949      6.800
  Name = 
  22 active torsions:
  status: ('A' for Active; 'I' for Inactive)
    1  A    between atoms: C_7  and  C_36
    2  A    between atoms: C_7  and  N_37
    3  A    between atoms: C_9  and  C_43
    4  A    between atoms: N_10  and  C_34
    5  A    between atoms: C_11  and  C_46
    6  A    between atoms: C_11  and  C_47
    7  A    between atoms: C_12  and  C_43
    8  A    between atoms: C_13  and  C_14
    9  A    between atoms: C_13  and  C_22
   10  A    between atoms: C_17  and  C_28
   11  A    between atoms: C_17  and  N_32
   12  A    between atoms: C_20  and  C_43
   13  A    between atoms: C_21  and  C_36
   14  A    between atoms: C_21  and  C_51
   15  A    between atoms: C_22  and  C_46
   16  A    between atoms: C_24  and  C_29
   17  A    between atoms: C_25  and  C_48
   18  A    between atoms: C_26  and  C_27
   19  A    between atoms: C_26  and  C_35
   20  A    between atoms: C_28  and  C_39
   21  A    between atoms: C_29  and  C_48
   22  A    between atoms: N_37  and  C_46
                            x       y       z     vdW  Elec       q    Type
                         _______ _______ _______ _____ _____    ______ ____

>  <TORSDO>
F 22

$$$$
=
 OpenBabel11042413563D

 51 53  0  0  1  0  0  0  0  0999 V2000
  190.7390  177.6980  142.7670 C   0  0  0  0  0  2  0  0  0  0  0  0
  191.4290  176.5130  143.4160 C   0  0  2  0  0  3  0  0  0  0  0  0
  193.6600  175.7280  144.3940 C   0  0  2  0  0  3  0  0  0  0  0  0
  192.4730  175.7520  145.3440 C   0  0  2  0  0  3  0  0  0  0  0  0
  191.4940  176.7050  144.8550 N   0  0  0  0  0  2  0  0  0  0  0  0
  193.1150  176.3590  142.7810 S   0  0  0  0  0  0  0  0  0  0  0  0
  195.5150  174.0280  144.1150 C   0  0  0  0  0  0  0  0  0  0  0  0
  194.1330  174.3590  144.2570 N   0  0  0  0  0  2  0  0  0  0  0  0
  196.3910  174.9350  144.0800 O   0  0  0  0  0  0  0  0  0  0  0  0
  195.9090  172.5870  144.0440 C   0  0  2  0  0  3  0  0  0  0  0  0
  195.0200  169.4600  142.0110 C   0  0  1  0  0  3  0  0  0  0  0  0
  194.0100  171.3190  143.1240 N   0  0  0  0  0  2  0  0  0  0  0  0
  195.0620  168.8040  140.7160 N   0  0  0  0  0  1  0  0  0  0  0  0
  196.4160  170.5930  142.1800 S   0  0  0  0  0  0  0  0  0  0  0  0
  195.3080  171.9050  142.8090 C   0  0  2  0  0  3  0  0  0  0  0  0
  193.7700  170.2930  142.1240 C   0  0  0  0  0  2  0  0  0  0  0  0
  195.5100  171.8830  145.3350 C   0  0  0  0  0  2  0  0  0  0  0  0
  196.6480  171.1570  145.8730 N   0  0  0  0  0  1  0  0  0  0  0  0
  192.9200  176.1490  146.7400 C   0  0  0  0  0  2  0  0  0  0  0  0
  191.7210  176.5230  147.5930 C   0  0  0  0  0  2  0  0  0  0  0  0
  188.8410  174.2510  147.6430 O   0  0  0  0  0  0  0  0  0  0  0  0
  190.8780  175.3560  147.8120 N   0  0  0  0  0  2  0  0  0  0  0  0
  189.5080  175.2910  147.4060 C   0  0  0  0  0  0  0  0  0  0  0  0
  188.8650  176.4190  146.6640 C   0  0  0  0  0  2  0  0  0  0  0  0
  187.3590  176.4220  146.8750 C   0  0  0  0  0  2  0  0  0  0  0  0
  186.8820  177.8020  147.2890 C   0  0  0  0  0  1  0  0  0  0  0  0
  189.4810  178.0540  143.5500 C   0  0  0  0  0  2  0  0  0  0  0  0
  186.9650  178.0350  143.5070 C   0  0  0  0  0  2  0  0  0  0  0  0
  188.2710  178.0020  141.3770 C   0  0  0  0  0  2  0  0  0  0  0  0
  188.2420  177.5340  142.8330 C   0  0  1  0  0  3  0  0  0  0  0  0
  185.7420  177.4370  142.8200 C   0  0  0  0  0  2  0  0  0  0  0  0
  185.7910  177.7280  141.3500 C   0  0  0  0  0  0  0  0  0  0  0  0
  184.7900  178.1080  140.7690 O   0  0  0  0  0  0  0  0  0  0  0  0
  187.0640  177.4900  140.5840 C   0  0  2  0  0  3  0  0  0  0  0  0
  187.2370  176.0150  140.2540 C   0  0  0  0  0  2  0  0  0  0  0  0
  187.0760  175.7880  138.7600 C   0  0  0  0  0  2  0  0  0  0  0  0
  188.1200  174.8030  138.2640 C   0  0  0  0  0  2  0  0  0  0  0  0
  188.1890  173.6600  139.1600 N   0  0  0  0  0  2  0  0  0  0  0  0
  189.5970  173.3890  139.4060 C   0  0  2  0  0  3  0  0  0  0  0  0
  190.2940  173.0340  138.0890 C   0  0  2  0  0  3  0  0  0  0  0  0
  190.2050  171.6610  137.8370 O   0  0  0  0  0  1  0  0  0  0  0  0
  192.5490  172.7730  138.8130 O   0  0  0  0  0  1  0  0  0  0  0  0
  192.1790  174.5220  137.3830 O   0  0  0  0  0  0  0  0  0  0  0  0
  191.7330  173.4350  138.1240 C   0  0  0  0  0  0  0  0  0  0  0  0
  189.7020  172.2360  140.3950 C   0  0  0  0  0  2  0  0  0  0  0  0
  190.1650  172.6920  141.7790 C   0  0  1  0  0  3  0  0  0  0  0  0
  191.0480  173.7530  141.6890 F   0  0  0  0  0  0  0  0  0  0  0  0
  189.2820  172.5000  143.9720 F   0  0  0  0  0  0  0  0  0  0  0  0
  187.8320  172.4710  142.2490 F   0  0  0  0  0  0  0  0  0  0  0  0
  189.0110  173.0250  142.7220 C   0  0  0  0  0  0  0  0  0  0  0  0
  188.8610  174.3950  142.8370 F   0  0  0  0  0  0  0  0  0  0  0  0
  1 27  1  0  0  0  0
  2  1  1  6  0  0  0
  2  5  1  0  0  0  0
  3  8  1  6  0  0  0
  3  4  1  0  0  0  0
  4 19  1  1  0  0  0
  5  4  1  0  0  0  0
  6  2  1  0  0  0  0
  6  3  1  0  0  0  0
  7  8  1  0  0  0  0
  9  7  2  0  0  0  0
 10  7  1  0  0  0  0
 10 17  1  1  0  0  0
 11 13  1  6  0  0  0
 11 16  1  0  0  0  0
 11 14  1  0  0  0  0
 14 15  1  0  0  0  0
 15 12  1  0  0  0  0
 15 10  1  1  0  0  0
 16 12  1  0  0  0  0
 17 18  1  0  0  0  0
 19 20  1  0  0  0  0
 20 22  1  0  0  0  0
 23 21  2  0  0  0  0
 23 22  1  0  0  0  0
 24 25  1  0  0  0  0
 24 23  1  0  0  0  0
 25 26  1  0  0  0  0
 29 30  1  0  0  0  0
 30 28  1  0  0  0  0
 30 27  1  1  0  0  0
 31 28  1  0  0  0  0
 32 31  1  0  0  0  0
 33 32  2  0  0  0  0
 34 35  1  1  0  0  0
 34 32  1  0  0  0  0
 34 29  1  0  0  0  0
 36 35  1  0  0  0  0
 37 36  1  0  0  0  0
 37 38  1  0  0  0  0
 38 39  1  0  0  0  0
 39 45  1  1  0  0  0
 40 41  1  1  0  0  0
 40 44  1  0  0  0  0
 40 39  1  0  0  0  0
 43 44  2  0  0  0  0
 44 42  1  0  0  0  0
 45 46  1  0  0  0  0
 46 47  1  6  0  0  0
 46 50  1  0  0  0  0
 49 50  1  0  0  0  0
 50 51  1  0  0  0  0
 50 48  1  0  0  0  0
M  END
>  <MODEL>
6

>  <REMARK>
 VINA RESULT:      -5.3      2.763      4.710
  Name = 
  22 active torsions:
  status: ('A' for Active; 'I' for Inactive)
    1  A    between atoms: C_7  and  C_36
    2  A    between atoms: C_7  and  N_37
    3  A    between atoms: C_9  and  C_43
    4  A    between atoms: N_10  and  C_34
    5  A    between atoms: C_11  and  C_46
    6  A    between atoms: C_11  and  C_47
    7  A    between atoms: C_12  and  C_43
    8  A    between atoms: C_13  and  C_14
    9  A    between atoms: C_13  and  C_22
   10  A    between atoms: C_17  and  C_28
   11  A    between atoms: C_17  and  N_32
   12  A    between atoms: C_20  and  C_43
   13  A    between atoms: C_21  and  C_36
   14  A    between atoms: C_21  and  C_51
   15  A    between atoms: C_22  and  C_46
   16  A    between atoms: C_24  and  C_29
   17  A    between atoms: C_25  and  C_48
   18  A    between atoms: C_26  and  C_27
   19  A    between atoms: C_26  and  C_35
   20  A    between atoms: C_28  and  C_39
   21  A    between atoms: C_29  and  C_48
   22  A    between atoms: N_37  and  C_46
                            x       y       z     vdW  Elec       q    Type
                         _______ _______ _______ _____ _____    ______ ____

>  <TORSDO>
F 22

$$$$
=
 OpenBabel11042413563D

 51 53  0  0  1  0  0  0  0  0999 V2000
  190.4600  172.0110  142.9700 C   0  0  0  0  0  2  0  0  0  0  0  0
  189.2750  172.8900  142.6210 C   0  0  2  0  0  3  0  0  0  0  0  0
  188.6350  175.2080  141.7440 C   0  0  2  0  0  3  0  0  0  0  0  0
  188.1920  174.0190  140.9060 C   0  0  2  0  0  3  0  0  0  0  0  0
  189.0650  172.8930  141.1840 N   0  0  0  0  0  2  0  0  0  0  0  0
  189.5910  174.5890  143.1580 S   0  0  0  0  0  0  0  0  0  0  0  0
  187.4200  177.3440  142.3530 C   0  0  0  0  0  0  0  0  0  0  0  0
  187.4590  175.9230  142.2140 N   0  0  0  0  0  2  0  0  0  0  0  0
  188.4370  178.0420  142.0850 O   0  0  0  0  0  0  0  0  0  0  0  0
  186.1440  177.9930  142.7840 C   0  0  2  0  0  3  0  0  0  0  0  0
  185.8060  178.4660  146.5740 C   0  0  1  0  0  3  0  0  0  0  0  0
  184.4910  178.1780  144.5980 N   0  0  0  0  0  2  0  0  0  0  0  0
  186.0110  177.8880  147.8900 N   0  0  0  0  0  1  0  0  0  0  0  0
  187.0230  177.8120  145.4120 S   0  0  0  0  0  0  0  0  0  0  0  0
  185.7130  177.5050  144.1720 C   0  0  2  0  0  3  0  0  0  0  0  0
  184.4500  178.0740  146.0480 C   0  0  0  0  0  2  0  0  0  0  0  0
  185.0660  177.7530  141.7350 C   0  0  0  0  0  2  0  0  0  0  0  0
  185.4200  178.4310  140.4990 N   0  0  0  0  0  1  0  0  0  0  0  0
  188.2530  174.3600  139.4280 C   0  0  0  0  0  2  0  0  0  0  0  0
  189.3820  173.5980  138.7540 C   0  0  0  0  0  2  0  0  0  0  0  0
  190.0250  173.3360  135.1520 O   0  0  0  0  0  0  0  0  0  0  0  0
  189.3760  173.8570  137.3220 N   0  0  0  0  0  2  0  0  0  0  0  0
  190.0670  173.0380  136.3740 C   0  0  0  0  0  0  0  0  0  0  0  0
  190.8010  171.8080  136.8030 C   0  0  0  0  0  2  0  0  0  0  0  0
  189.9050  170.5820  136.7190 C   0  0  0  0  0  2  0  0  0  0  0  0
  189.7730  169.9250  138.0810 C   0  0  0  0  0  1  0  0  0  0  0  0
  190.5590  170.8610  141.9740 C   0  0  0  0  0  2  0  0  0  0  0  0
  192.2780  169.2840  141.0310 C   0  0  0  0  0  2  0  0  0  0  0  0
  192.1860  171.6620  140.2710 C   0  0  0  0  0  2  0  0  0  0  0  0
  191.9870  170.7210  141.4610 C   0  0  1  0  0  3  0  0  0  0  0  0
  193.7340  169.1530  140.5970 C   0  0  0  0  0  2  0  0  0  0  0  0
  194.0400  170.1640  139.5330 C   0  0  0  0  0  0  0  0  0  0  0  0
  194.6760  169.8390  138.5450 O   0  0  0  0  0  0  0  0  0  0  0  0
  193.6130  171.5950  139.7180 C   0  0  2  0  0  3  0  0  0  0  0  0
  194.5710  172.3380  140.6390 C   0  0  0  0  0  2  0  0  0  0  0  0
  194.0600  173.7440  140.9050 C   0  0  0  0  0  2  0  0  0  0  0  0
  194.6300  174.2700  142.2110 C   0  0  0  0  0  2  0  0  0  0  0  0
  193.7170  173.9750  143.3050 N   0  0  0  0  0  2  0  0  0  0  0  0
  194.4760  174.0850  144.5400 C   0  0  2  0  0  3  0  0  0  0  0  0
  195.3930  172.8680  144.6960 C   0  0  2  0  0  3  0  0  0  0  0  0
  194.8720  171.9730  145.6350 O   0  0  0  0  0  1  0  0  0  0  0  0
  197.6660  173.4360  144.2610 O   0  0  0  0  0  0  0  0  0  0  0  0
  197.0410  173.5250  146.4610 O   0  0  0  0  0  1  0  0  0  0  0  0
  196.7630  173.2840  145.1220 C   0  0  0  0  0  0  0  0  0  0  0  0
  193.4970  174.1690  145.7040 C   0  0  0  0  0  2  0  0  0  0  0  0
  193.6530  175.4590  146.5080 C   0  0  1  0  0  3  0  0  0  0  0  0
  194.4210  176.3860  145.8280 F   0  0  0  0  0  0  0  0  0  0  0  0
  191.5550  175.0960  147.5530 F   0  0  0  0  0  0  0  0  0  0  0  0
  191.6340  176.5430  145.8290 F   0  0  0  0  0  0  0  0  0  0  0  0
  192.3200  176.0690  146.9370 C   0  0  0  0  0  0  0  0  0  0  0  0
  192.5270  177.1050  147.8280 F   0  0  0  0  0  0  0  0  0  0  0  0
  2  1  1  6  0  0  0
  2  6  1  0  0  0  0
  3  8  1  1  0  0  0
  3  6  1  0  0  0  0
  4 19  1  6  0  0  0
  4  5  1  0  0  0  0
  4  3  1  0  0  0  0
  5  2  1  0  0  0  0
  7 10  1  0  0  0  0
  8  7  1  0  0  0  0
  9  7  2  0  0  0  0
 10 17  1  6  0  0  0
 11 13  1  1  0  0  0
 12 16  1  0  0  0  0
 14 11  1  0  0  0  0
 15 10  1  6  0  0  0
 15 12  1  0  0  0  0
 15 14  1  0  0  0  0
 16 11  1  0  0  0  0
 18 17  1  0  0  0  0
 20 19  1  0  0  0  0
 21 23  2  0  0  0  0
 22 20  1  0  0  0  0
 23 24  1  0  0  0  0
 23 22  1  0  0  0  0
 25 24  1  0  0  0  0
 25 26  1  0  0  0  0
 27  1  1  0  0  0  0
 28 30  1  0  0  0  0
 29 30  1  0  0  0  0
 30 27  1  6  0  0  0
 31 28  1  0  0  0  0
 32 34  1  0  0  0  0
 32 31  1  0  0  0  0
 33 32  2  0  0  0  0
 34 29  1  0  0  0  0
 34 35  1  1  0  0  0
 35 36  1  0  0  0  0
 36 37  1  0  0  0  0
 37 38  1  0  0  0  0
 38 39  1  0  0  0  0
 39 40  1  0  0  0  0
 39 45  1  1  0  0  0
 40 44  1  0  0  0  0
 40 41  1  1  0  0  0
 42 44  2  0  0  0  0
 44 43  1  0  0  0  0
 45 46  1  0  0  0  0
 46 47  1  6  0  0  0
 46 50  1  0  0  0  0
 49 50  1  0  0  0  0
 50 48  1  0  0  0  0
 50 51  1  0  0  0  0
M  END
>  <MODEL>
7

>  <REMARK>
 VINA RESULT:      -5.3      3.361      9.453
  Name = 
  22 active torsions:
  status: ('A' for Active; 'I' for Inactive)
    1  A    between atoms: C_7  and  C_36
    2  A    between atoms: C_7  and  N_37
    3  A    between atoms: C_9  and  C_43
    4  A    between atoms: N_10  and  C_34
    5  A    between atoms: C_11  and  C_46
    6  A    between atoms: C_11  and  C_47
    7  A    between atoms: C_12  and  C_43
    8  A    between atoms: C_13  and  C_14
    9  A    between atoms: C_13  and  C_22
   10  A    between atoms: C_17  and  C_28
   11  A    between atoms: C_17  and  N_32
   12  A    between atoms: C_20  and  C_43
   13  A    between atoms: C_21  and  C_36
   14  A    between atoms: C_21  and  C_51
   15  A    between atoms: C_22  and  C_46
   16  A    between atoms: C_24  and  C_29
   17  A    between atoms: C_25  and  C_48
   18  A    between atoms: C_26  and  C_27
   19  A    between atoms: C_26  and  C_35
   20  A    between atoms: C_28  and  C_39
   21  A    between atoms: C_29  and  C_48
   22  A    between atoms: N_37  and  C_46
                            x       y       z     vdW  Elec       q    Type
                         _______ _______ _______ _____ _____    ______ ____

>  <TORSDO>
F 22

$$$$
=
 OpenBabel11042413563D

 51 53  0  0  1  0  0  0  0  0999 V2000
  188.7870  173.3050  140.9010 C   0  0  0  0  0  2  0  0  0  0  0  0
  190.1060  172.5560  140.8970 C   0  0  2  0  0  3  0  0  0  0  0  0
  192.4830  172.5950  141.8470 C   0  0  2  0  0  3  0  0  0  0  0  0
  191.6270  171.3910  142.2070 C   0  0  2  0  0  3  0  0  0  0  0  0
  190.2260  171.7580  142.1040 N   0  0  0  0  0  2  0  0  0  0  0  0
  191.4800  173.7320  140.8480 S   0  0  0  0  0  0  0  0  0  0  0  0
  194.8510  172.8930  141.0040 C   0  0  0  0  0  0  0  0  0  0  0  0
  193.6360  172.1470  141.0810 N   0  0  0  0  0  2  0  0  0  0  0  0
  194.9600  174.0030  141.5930 O   0  0  0  0  0  0  0  0  0  0  0  0
  196.0040  172.3200  140.2420 C   0  0  2  0  0  3  0  0  0  0  0  0
  195.1930  175.1590  137.7970 C   0  0  1  0  0  3  0  0  0  0  0  0
  196.9380  174.3550  139.2200 N   0  0  0  0  0  2  0  0  0  0  0  0
  194.9430  175.5350  136.4170 N   0  0  0  0  0  1  0  0  0  0  0  0
  194.6830  173.4500  138.0780 S   0  0  0  0  0  0  0  0  0  0  0  0
  196.2550  173.0960  138.9440 C   0  0  2  0  0  3  0  0  0  0  0  0
  196.6700  175.2240  138.0860 C   0  0  0  0  0  2  0  0  0  0  0  0
  195.7600  170.8380  139.9830 C   0  0  0  0  0  2  0  0  0  0  0  0
  196.9230  170.0680  140.3900 N   0  0  0  0  0  1  0  0  0  0  0  0
  191.9320  170.9280  143.6210 C   0  0  0  0  0  2  0  0  0  0  0  0
  193.2300  170.1410  143.6520 C   0  0  0  0  0  2  0  0  0  0  0  0
  194.8780  169.3280  146.8280 O   0  0  0  0  0  0  0  0  0  0  0  0
  193.4810  169.6430  144.9970 N   0  0  0  0  0  2  0  0  0  0  0  0
  194.7340  169.7990  145.6690 C   0  0  0  0  0  0  0  0  0  0  0  0
  195.8630  170.5510  145.0400 C   0  0  0  0  0  2  0  0  0  0  0  0
  196.7360  171.2080  146.0980 C   0  0  0  0  0  2  0  0  0  0  0  0
  196.8500  172.7000  145.8420 C   0  0  0  0  0  1  0  0  0  0  0  0
  188.6150  174.0400  142.2240 C   0  0  0  0  0  2  0  0  0  0  0  0
  187.5130  175.6210  140.6070 C   0  0  0  0  0  2  0  0  0  0  0  0
  187.1590  175.8720  143.0680 C   0  0  0  0  0  2  0  0  0  0  0  0
  188.1620  175.4740  141.9830 C   0  0  1  0  0  3  0  0  0  0  0  0
  187.1390  177.0790  140.3580 C   0  0  0  0  0  2  0  0  0  0  0  0
  186.2780  177.5810  141.4770 C   0  0  0  0  0  0  0  0  0  0  0  0
  185.2850  178.2440  141.2340 O   0  0  0  0  0  0  0  0  0  0  0  0
  186.6780  177.3170  142.9040 C   0  0  2  0  0  3  0  0  0  0  0  0
  187.7590  178.2870  143.3580 C   0  0  0  0  0  2  0  0  0  0  0  0
  188.5210  177.7100  144.5400 C   0  0  0  0  0  2  0  0  0  0  0  0
  190.0140  177.9090  144.3490 C   0  0  0  0  0  2  0  0  0  0  0  0
  190.6750  176.6190  144.2340 N   0  0  0  0  0  2  0  0  0  0  0  0
  191.6410  176.5330  145.3180 C   0  0  2  0  0  3  0  0  0  0  0  0
  193.0590  176.7030  144.7650 C   0  0  2  0  0  3  0  0  0  0  0  0
  193.2980  175.7930  143.7290 O   0  0  0  0  0  1  0  0  0  0  0  0
  194.8710  175.5300  145.7740 O   0  0  0  0  0  0  0  0  0  0  0  0
  194.1680  177.3950  146.8990 O   0  0  0  0  0  1  0  0  0  0  0  0
  194.0770  176.5030  145.8390 C   0  0  0  0  0  0  0  0  0  0  0  0
  191.4900  175.1760  145.9940 C   0  0  0  0  0  2  0  0  0  0  0  0
  190.7040  175.2580  147.3020 C   0  0  1  0  0  3  0  0  0  0  0  0
  190.9370  176.4550  147.9540 F   0  0  0  0  0  0  0  0  0  0  0  0
  188.7630  174.1660  148.1160 F   0  0  0  0  0  0  0  0  0  0  0  0
  188.9590  174.4400  145.8890 F   0  0  0  0  0  0  0  0  0  0  0  0
  189.2060  175.0200  147.1240 C   0  0  0  0  0  0  0  0  0  0  0  0
  188.5140  176.2130  147.2190 F   0  0  0  0  0  0  0  0  0  0  0  0
  1 27  1  0  0  0  0
  2  1  1  1  0  0  0
  2  5  1  0  0  0  0
  3  8  1  6  0  0  0
  3  4  1  0  0  0  0
  4 19  1  1  0  0  0
  5  4  1  0  0  0  0
  6  2  1  0  0  0  0
  6  3  1  0  0  0  0
  7  8  1  0  0  0  0
  7  9  2  0  0  0  0
 10 17  1  6  0  0  0
 10  7  1  0  0  0  0
 11 13  1  6  0  0  0
 11 14  1  0  0  0  0
 11 16  1  0  0  0  0
 14 15  1  0  0  0  0
 15 12  1  0  0  0  0
 15 10  1  1  0  0  0
 16 12  1  0  0  0  0
 17 18  1  0  0  0  0
 19 20  1  0  0  0  0
 20 22  1  0  0  0  0
 22 23  1  0  0  0  0
 23 21  2  0  0  0  0
 24 23  1  0  0  0  0
 24 25  1  0  0  0  0
 26 25  1  0  0  0  0
 28 30  1  0  0  0  0
 30 27  1  1  0  0  0
 30 29  1  0  0  0  0
 31 28  1  0  0  0  0
 31 32  1  0  0  0  0
 32 34  1  0  0  0  0
 33 32  2  0  0  0  0
 34 29  1  0  0  0  0
 34 35  1  6  0  0  0
 35 36  1  0  0  0  0
 37 36  1  0  0  0  0
 38 37  1  0  0  0  0
 38 39  1  0  0  0  0
 39 45  1  6  0  0  0
 40 41  1  6  0  0  0
 40 39  1  0  0  0  0
 40 44  1  0  0  0  0
 42 44  2  0  0  0  0
 44 43  1  0  0  0  0
 45 46  1  0  0  0  0
 46 47  1  6  0  0  0
 49 50  1  0  0  0  0
 50 51  1  0  0  0  0
 50 46  1  0  0  0  0
 50 48  1  0  0  0  0
M  END
>  <MODEL>
8

>  <REMARK>
 VINA RESULT:      -5.2      2.985      4.923
  Name = 
  22 active torsions:
  status: ('A' for Active; 'I' for Inactive)
    1  A    between atoms: C_7  and  C_36
    2  A    between atoms: C_7  and  N_37
    3  A    between atoms: C_9  and  C_43
    4  A    between atoms: N_10  and  C_34
    5  A    between atoms: C_11  and  C_46
    6  A    between atoms: C_11  and  C_47
    7  A    between atoms: C_12  and  C_43
    8  A    between atoms: C_13  and  C_14
    9  A    between atoms: C_13  and  C_22
   10  A    between atoms: C_17  and  C_28
   11  A    between atoms: C_17  and  N_32
   12  A    between atoms: C_20  and  C_43
   13  A    between atoms: C_21  and  C_36
   14  A    between atoms: C_21  and  C_51
   15  A    between atoms: C_22  and  C_46
   16  A    between atoms: C_24  and  C_29
   17  A    between atoms: C_25  and  C_48
   18  A    between atoms: C_26  and  C_27
   19  A    between atoms: C_26  and  C_35
   20  A    between atoms: C_28  and  C_39
   21  A    between atoms: C_29  and  C_48
   22  A    between atoms: N_37  and  C_46
                            x       y       z     vdW  Elec       q    Type
                         _______ _______ _______ _____ _____    ______ ____

>  <TORSDO>
F 22

$$$$
=
 OpenBabel11042413563D

 51 53  0  0  1  0  0  0  0  0999 V2000
  191.1170  177.3810  142.7490 C   0  0  0  0  0  2  0  0  0  0  0  0
  191.7610  176.2700  143.5570 C   0  0  2  0  0  3  0  0  0  0  0  0
  193.9220  175.6000  144.7530 C   0  0  2  0  0  3  0  0  0  0  0  0
  192.6740  175.7090  145.6150 C   0  0  2  0  0  3  0  0  0  0  0  0
  191.7300  176.6030  144.9700 N   0  0  0  0  0  2  0  0  0  0  0  0
  193.4870  176.0660  143.0530 S   0  0  0  0  0  0  0  0  0  0  0  0
  195.7260  173.8610  144.3870 C   0  0  0  0  0  0  0  0  0  0  0  0
  194.4030  174.2280  144.7840 N   0  0  0  0  0  2  0  0  0  0  0  0
  196.5330  174.7340  143.9660 O   0  0  0  0  0  0  0  0  0  0  0  0
  196.1480  172.4330  144.5140 C   0  0  2  0  0  3  0  0  0  0  0  0
  194.4930  169.0080  144.0310 C   0  0  1  0  0  3  0  0  0  0  0  0
  195.0450  170.5980  145.7290 N   0  0  0  0  0  2  0  0  0  0  0  0
  193.3610  168.2740  143.4940 N   0  0  0  0  0  1  0  0  0  0  0  0
  194.7840  170.5010  143.0590 S   0  0  0  0  0  0  0  0  0  0  0  0
  194.9360  171.4970  144.5860 C   0  0  2  0  0  3  0  0  0  0  0  0
  194.1930  169.4580  145.4370 C   0  0  0  0  0  2  0  0  0  0  0  0
  197.0630  172.2740  145.7220 C   0  0  0  0  0  2  0  0  0  0  0  0
  197.1080  173.5180  146.4730 N   0  0  0  0  0  1  0  0  0  0  0  0
  193.0260  176.2450  146.9920 C   0  0  0  0  0  2  0  0  0  0  0  0
  191.7640  176.5410  147.7840 C   0  0  0  0  0  2  0  0  0  0  0  0
  188.9360  174.2090  147.6180 O   0  0  0  0  0  0  0  0  0  0  0  0
  190.9480  175.3400  147.8930 N   0  0  0  0  0  2  0  0  0  0  0  0
  189.5800  175.2810  147.4790 C   0  0  0  0  0  0  0  0  0  0  0  0
  188.9120  176.4580  146.8410 C   0  0  0  0  0  2  0  0  0  0  0  0
  187.4360  176.1820  146.6010 C   0  0  0  0  0  2  0  0  0  0  0  0
  186.5790  177.0560  147.4980 C   0  0  0  0  0  1  0  0  0  0  0  0
  190.1250  178.1430  143.6200 C   0  0  0  0  0  2  0  0  0  0  0  0
  187.6630  178.6490  143.7290 C   0  0  0  0  0  2  0  0  0  0  0  0
  188.5600  177.0730  142.0100 C   0  0  0  0  0  2  0  0  0  0  0  0
  188.7200  177.5830  143.4440 C   0  0  1  0  0  3  0  0  0  0  0  0
  186.2670  178.0440  143.6230 C   0  0  0  0  0  2  0  0  0  0  0  0
  186.1000  177.3840  142.2870 C   0  0  0  0  0  0  0  0  0  0  0  0
  185.0750  177.5500  141.6480 O   0  0  0  0  0  0  0  0  0  0  0  0
  187.1740  176.4680  141.7670 C   0  0  2  0  0  3  0  0  0  0  0  0
  187.0790  175.0920  142.4100 C   0  0  0  0  0  2  0  0  0  0  0  0
  187.8950  174.0840  141.6190 C   0  0  0  0  0  2  0  0  0  0  0  0
  189.1840  173.7610  142.3530 C   0  0  0  0  0  2  0  0  0  0  0  0
  190.3060  173.8020  141.4280 N   0  0  0  0  0  2  0  0  0  0  0  0
  190.3790  172.5010  140.7830 C   0  0  2  0  0  3  0  0  0  0  0  0
  191.6540  171.7740  141.2240 C   0  0  2  0  0  3  0  0  0  0  0  0
  192.7590  172.2270  140.4950 O   0  0  0  0  0  1  0  0  0  0  0  0
  192.3570  169.6740  140.3470 O   0  0  0  0  0  0  0  0  0  0  0  0
  190.4740  169.6080  141.6480 O   0  0  0  0  0  1  0  0  0  0  0  0
  191.5150  170.2990  141.0410 C   0  0  0  0  0  0  0  0  0  0  0  0
  190.3770  172.7090  139.2740 C   0  0  0  0  0  2  0  0  0  0  0  0
  189.3100  171.8720  138.5700 C   0  0  1  0  0  3  0  0  0  0  0  0
  188.2860  172.6670  138.0860 F   0  0  0  0  0  0  0  0  0  0  0  0
  189.3100  169.7220  137.5690 F   0  0  0  0  0  0  0  0  0  0  0  0
  191.2480  170.8690  137.5950 F   0  0  0  0  0  0  0  0  0  0  0  0
  189.8720  170.9810  137.4650 C   0  0  0  0  0  0  0  0  0  0  0  0
  189.5690  171.5030  136.2210 F   0  0  0  0  0  0  0  0  0  0  0  0
  1 27  1  0  0  0  0
  2  1  1  6  0  0  0
  2  5  1  0  0  0  0
  3  8  1  6  0  0  0
  3  4  1  0  0  0  0
  4 19  1  1  0  0  0
  5  4  1  0  0  0  0
  6  2  1  0  0  0  0
  6  3  1  0  0  0  0
  7 10  1  0  0  0  0
  7  8  1  0  0  0  0
  9  7  2  0  0  0  0
 10 17  1  1  0  0  0
 11 13  1  6  0  0  0
 11 16  1  0  0  0  0
 14 11  1  0  0  0  0
 14 15  1  0  0  0  0
 15 10  1  6  0  0  0
 15 12  1  0  0  0  0
 16 12  1  0  0  0  0
 17 18  1  0  0  0  0
 19 20  1  0  0  0  0
 20 22  1  0  0  0  0
 23 21  2  0  0  0  0
 23 22  1  0  0  0  0
 24 23  1  0  0  0  0
 25 24  1  0  0  0  0
 25 26  1  0  0  0  0
 29 30  1  0  0  0  0
 30 27  1  6  0  0  0
 30 28  1  0  0  0  0
 31 28  1  0  0  0  0
 32 31  1  0  0  0  0
 33 32  2  0  0  0  0
 34 29  1  0  0  0  0
 34 32  1  0  0  0  0
 34 35  1  1  0  0  0
 36 37  1  0  0  0  0
 36 35  1  0  0  0  0
 38 37  1  0  0  0  0
 39 45  1  6  0  0  0
 39 40  1  0  0  0  0
 39 38  1  0  0  0  0
 40 41  1  6  0  0  0
 42 44  2  0  0  0  0
 44 40  1  0  0  0  0
 44 43  1  0  0  0  0
 46 47  1  6  0  0  0
 46 45  1  0  0  0  0
 50 48  1  0  0  0  0
 50 49  1  0  0  0  0
 50 46  1  0  0  0  0
 51 50  1  0  0  0  0
M  END
>  <MODEL>
9

>  <REMARK>
 VINA RESULT:      -5.2      3.162      5.353
  Name = 
  22 active torsions:
  status: ('A' for Active; 'I' for Inactive)
    1  A    between atoms: C_7  and  C_36
    2  A    between atoms: C_7  and  N_37
    3  A    between atoms: C_9  and  C_43
    4  A    between atoms: N_10  and  C_34
    5  A    between atoms: C_11  and  C_46
    6  A    between atoms: C_11  and  C_47
    7  A    between atoms: C_12  and  C_43
    8  A    between atoms: C_13  and  C_14
    9  A    between atoms: C_13  and  C_22
   10  A    between atoms: C_17  and  C_28
   11  A    between atoms: C_17  and  N_32
   12  A    between atoms: C_20  and  C_43
   13  A    between atoms: C_21  and  C_36
   14  A    between atoms: C_21  and  C_51
   15  A    between atoms: C_22  and  C_46
   16  A    between atoms: C_24  and  C_29
   17  A    between atoms: C_25  and  C_48
   18  A    between atoms: C_26  and  C_27
   19  A    between atoms: C_26  and  C_35
   20  A    between atoms: C_28  and  C_39
   21  A    between atoms: C_29  and  C_48
   22  A    between atoms: N_37  and  C_46
                            x       y       z     vdW  Elec       q    Type
                         _______ _______ _______ _____ _____    ______ ____

>  <TORSDO>
F 22

$$$$
