=
 OpenBabel11042418523D

 26 30  0  0  1  0  0  0  0  0999 V2000
  188.1120  175.6720  147.1880 C   0  0  0  0  0  1  0  0  0  0  0  0
  188.4840  176.6190  146.0600 C   0  0  1  0  0  3  0  0  0  0  0  0
  192.8020  175.9930  142.6040 N   0  0  0  0  0  0  0  0  0  0  0  0
  194.6910  176.3390  144.0160 N   0  0  0  0  0  2  0  0  0  0  0  0
  192.6960  175.7410  145.8520 C   0  0  0  0  0  0  0  0  0  0  0  0
  194.9760  176.3740  145.4580 C   0  0  0  0  0  2  0  0  0  0  0  0
  191.3860  174.9800  144.1360 N   0  0  0  0  0  0  0  0  0  0  0  0
  193.7110  176.4810  146.2000 N   0  0  0  0  0  0  0  0  0  0  0  0
  192.7400  174.8900  144.6310 C   0  0  1  0  0  3  0  0  0  0  0  0
  190.6490  175.6690  145.1520 C   0  0  0  0  0  0  0  0  0  0  0  0
  193.5160  175.6270  143.6150 C   0  0  0  0  0  0  0  0  0  0  0  0
  189.2450  175.9120  145.0400 N   0  0  0  0  0  2  0  0  0  0  0  0
  191.4480  175.4690  142.7620 C   0  0  0  0  0  2  0  0  0  0  0  0
  191.3570  176.1130  146.1440 N   0  0  0  0  0  0  0  0  0  0  0  0
  185.0100  178.3200  144.3990 C   0  0  0  0  0  0  0  0  0  0  0  0
  185.3890  178.6690  145.6500 N   0  0  0  0  0  0  0  0  0  0  0  0
  186.4970  178.1190  146.1640 N   0  0  0  0  0  0  0  0  0  0  0  0
  184.0700  178.0840  142.5500 C   0  0  0  0  0  0  0  0  0  0  0  0
  186.8730  176.8430  144.1560 C   0  0  0  0  0  3  0  0  0  0  0  0
  187.2540  177.2130  145.4590 C   0  0  0  0  0  0  0  0  0  0  0  0
  185.7200  177.4360  143.6650 C   0  0  0  0  0  0  0  0  0  0  0  0
  183.9400  178.7630  143.7240 N   0  0  0  0  0  0  0  0  0  0  0  0
  185.1310  177.2900  142.5100 O   0  0  0  0  0  0  0  0  0  0  0  0
  183.1260  178.2210  141.4340 C   0  0  0  0  0  0  0  0  0  0  0  0
  181.6900  178.5090  141.6960 C   0  0  0  0  0  1  0  0  0  0  0  0
  183.5320  178.0800  140.2160 N   0  0  0  0  0  2  0  0  0  0  0  0
  2  1  1  1  0  0  0
  3 13  1  0  0  0  0
  3 11  2  0  0  0  0
  4  6  1  0  0  0  0
  5 14  1  0  0  0  0
  5  8  2  0  0  0  0
  6  8  1  0  0  0  0
  7  9  1  0  0  0  0
  7 10  1  0  0  0  0
  9 11  1  6  0  0  0
  9  5  1  0  0  0  0
 10 14  2  0  0  0  0
 11  4  1  0  0  0  0
 12 10  1  0  0  0  0
 12  2  1  0  0  0  0
 13  7  1  0  0  0  0
 15 16  1  0  0  0  0
 16 17  2  0  0  0  0
 18 22  2  0  0  0  0
 19 20  2  0  0  0  0
 20  2  1  0  0  0  0
 20 17  1  0  0  0  0
 21 19  1  0  0  0  0
 21 15  2  0  0  0  0
 22 15  1  0  0  0  0
 23 18  1  0  0  0  0
 23 21  1  0  0  0  0
 24 25  1  0  0  0  0
 24 18  1  0  0  0  0
 26 24  2  0  0  0  0
M  END
>  <MODEL>
1

>  <REMARK>
 VINA RESULT:      -7.1      0.000      0.000
  Name = 
  3 active torsions:
  status: ('A' for Active; 'I' for Inactive)
    1  A    between atoms: C_1  and  C_14
    2  A    between atoms: C_18  and  C_22
    3  A    between atoms: N_21  and  C_22
                            x       y       z     vdW  Elec       q    Type
                         _______ _______ _______ _____ _____    ______ ____

>  <TORSDO>
F 3

$$$$
=
 OpenBabel11042418523D

 26 30  0  0  1  0  0  0  0  0999 V2000
  190.1440  177.3930  143.1240 C   0  0  0  0  0  1  0  0  0  0  0  0
  190.3600  177.5560  144.6190 C   0  0  1  0  0  3  0  0  0  0  0  0
  185.4980  177.7090  147.3230 N   0  0  0  0  0  0  0  0  0  0  0  0
  184.0710  178.8890  145.8210 N   0  0  0  0  0  2  0  0  0  0  0  0
  186.1070  178.0360  144.1370 C   0  0  0  0  0  0  0  0  0  0  0  0
  184.0700  179.2770  144.4040 C   0  0  0  0  0  2  0  0  0  0  0  0
  186.8160  176.5980  145.7710 N   0  0  0  0  0  0  0  0  0  0  0  0
  185.4250  179.1110  143.8550 N   0  0  0  0  0  0  0  0  0  0  0  0
  185.6040  177.0340  145.1170 C   0  0  1  0  0  3  0  0  0  0  0  0
  187.8890  177.1920  145.0310 C   0  0  0  0  0  0  0  0  0  0  0  0
  184.9020  177.7810  146.1800 C   0  0  0  0  0  0  0  0  0  0  0  0
  189.2590  176.9520  145.3560 N   0  0  0  0  0  2  0  0  0  0  0  0
  186.6510  176.8210  147.2050 C   0  0  0  0  0  2  0  0  0  0  0  0
  187.5260  178.0120  144.0940 N   0  0  0  0  0  0  0  0  0  0  0  0
  193.9860  175.7760  145.8040 C   0  0  0  0  0  0  0  0  0  0  0  0
  193.0110  175.9750  146.7220 N   0  0  0  0  0  0  0  0  0  0  0  0
  191.8630  176.5420  146.3280 N   0  0  0  0  0  0  0  0  0  0  0  0
  195.7250  175.2850  144.7580 C   0  0  0  0  0  0  0  0  0  0  0  0
  192.6550  176.7240  144.0610 C   0  0  0  0  0  3  0  0  0  0  0  0
  191.6510  176.9270  145.0250 C   0  0  0  0  0  0  0  0  0  0  0  0
  193.8260  176.1340  144.5120 C   0  0  0  0  0  0  0  0  0  0  0  0
  195.1920  175.2260  146.0100 N   0  0  0  0  0  0  0  0  0  0  0  0
  194.9130  175.8270  143.8590 O   0  0  0  0  0  0  0  0  0  0  0  0
  197.0690  174.7930  144.4320 C   0  0  0  0  0  0  0  0  0  0  0  0
  197.7430  175.2250  143.1780 C   0  0  0  0  0  1  0  0  0  0  0  0
  197.6730  173.9720  145.2260 N   0  0  0  0  0  2  0  0  0  0  0  0
  2  1  1  6  0  0  0
  2 20  1  0  0  0  0
  2 12  1  0  0  0  0
  4 11  1  0  0  0  0
  6  4  1  0  0  0  0
  7 13  1  0  0  0  0
  8  5  2  0  0  0  0
  8  6  1  0  0  0  0
  9  5  1  6  0  0  0
  9  7  1  0  0  0  0
  9 11  1  0  0  0  0
 10 12  1  0  0  0  0
 10  7  1  0  0  0  0
 11  3  2  0  0  0  0
 13  3  1  0  0  0  0
 14  5  1  0  0  0  0
 14 10  2  0  0  0  0
 15 22  1  0  0  0  0
 15 16  1  0  0  0  0
 17 16  2  0  0  0  0
 18 22  2  0  0  0  0
 19 21  1  0  0  0  0
 19 20  2  0  0  0  0
 20 17  1  0  0  0  0
 21 15  2  0  0  0  0
 23 21  1  0  0  0  0
 23 18  1  0  0  0  0
 24 18  1  0  0  0  0
 24 26  2  0  0  0  0
 25 24  1  0  0  0  0
M  END
>  <MODEL>
2

>  <REMARK>
 VINA RESULT:      -7.1      2.830      9.128
  Name = 
  3 active torsions:
  status: ('A' for Active; 'I' for Inactive)
    1  A    between atoms: C_1  and  C_14
    2  A    between atoms: C_18  and  C_22
    3  A    between atoms: N_21  and  C_22
                            x       y       z     vdW  Elec       q    Type
                         _______ _______ _______ _____ _____    ______ ____

>  <TORSDO>
F 3

$$$$
=
 OpenBabel11042418523D

 26 30  0  0  1  0  0  0  0  0999 V2000
  191.2020  175.9820  147.9780 C   0  0  0  0  0  1  0  0  0  0  0  0
  191.6020  176.3670  146.5640 C   0  0  1  0  0  3  0  0  0  0  0  0
  194.3420  173.9570  142.3610 N   0  0  0  0  0  0  0  0  0  0  0  0
  196.2340  175.3740  142.0540 N   0  0  0  0  0  2  0  0  0  0  0  0
  195.4370  176.0210  144.6340 C   0  0  0  0  0  0  0  0  0  0  0  0
  196.9330  176.4280  142.8020 C   0  0  0  0  0  2  0  0  0  0  0  0
  194.1110  174.1560  144.6600 N   0  0  0  0  0  0  0  0  0  0  0  0
  196.0740  176.8930  143.9030 N   0  0  0  0  0  0  0  0  0  0  0  0
  195.4450  174.5710  144.2940 C   0  0  1  0  0  3  0  0  0  0  0  0
  193.5280  175.2780  145.3330 C   0  0  0  0  0  0  0  0  0  0  0  0
  195.4330  174.4700  142.8210 C   0  0  0  0  0  0  0  0  0  0  0  0
  192.2110  175.2310  145.8870 N   0  0  0  0  0  2  0  0  0  0  0  0
  193.4940  173.5560  143.4810 C   0  0  0  0  0  2  0  0  0  0  0  0
  194.2520  176.3540  145.3410 N   0  0  0  0  0  0  0  0  0  0  0  0
  188.2590  177.6890  144.3730 C   0  0  0  0  0  0  0  0  0  0  0  0
  189.4480  177.5330  143.7450 N   0  0  0  0  0  0  0  0  0  0  0  0
  190.5020  177.1110  144.4570 N   0  0  0  0  0  0  0  0  0  0  0  0
  186.2770  178.0590  144.9120 C   0  0  0  0  0  0  0  0  0  0  0  0
  189.1790  176.9910  146.4660 C   0  0  0  0  0  3  0  0  0  0  0  0
  190.4090  176.8360  145.8010 C   0  0  0  0  0  0  0  0  0  0  0  0
  188.1160  177.4290  145.6910 C   0  0  0  0  0  0  0  0  0  0  0  0
  187.1030  178.0970  143.8300 N   0  0  0  0  0  0  0  0  0  0  0  0
  186.8760  177.6610  146.0260 O   0  0  0  0  0  0  0  0  0  0  0  0
  184.8560  178.4210  144.8500 C   0  0  0  0  0  0  0  0  0  0  0  0
  184.0580  178.5490  146.1000 C   0  0  0  0  0  1  0  0  0  0  0  0
  184.2820  178.6220  143.7100 N   0  0  0  0  0  2  0  0  0  0  0  0
  2  1  1  1  0  0  0
  3 11  2  0  0  0  0
  3 13  1  0  0  0  0
  4  6  1  0  0  0  0
  4 11  1  0  0  0  0
  5 14  1  0  0  0  0
  6  8  1  0  0  0  0
  7 10  1  0  0  0  0
  8  5  2  0  0  0  0
  9 11  1  6  0  0  0
  9  5  1  0  0  0  0
  9  7  1  0  0  0  0
 10 14  2  0  0  0  0
 10 12  1  0  0  0  0
 12  2  1  0  0  0  0
 13  7  1  0  0  0  0
 15 21  1  0  0  0  0
 16 15  2  0  0  0  0
 16 17  1  0  0  0  0
 17 20  2  0  0  0  0
 18 23  1  0  0  0  0
 20 19  1  0  0  0  0
 20  2  1  0  0  0  0
 21 23  1  0  0  0  0
 21 19  2  0  0  0  0
 22 15  1  0  0  0  0
 22 18  2  0  0  0  0
 24 18  1  0  0  0  0
 24 25  1  0  0  0  0
 26 24  2  0  0  0  0
M  END
>  <MODEL>
3

>  <REMARK>
 VINA RESULT:      -7.0      2.195      3.367
  Name = 
  3 active torsions:
  status: ('A' for Active; 'I' for Inactive)
    1  A    between atoms: C_1  and  C_14
    2  A    between atoms: C_18  and  C_22
    3  A    between atoms: N_21  and  C_22
                            x       y       z     vdW  Elec       q    Type
                         _______ _______ _______ _____ _____    ______ ____

>  <TORSDO>
F 3

$$$$
=
 OpenBabel11042418523D

 26 30  0  0  1  0  0  0  0  0999 V2000
  192.0110  175.4250  147.2640 C   0  0  0  0  0  1  0  0  0  0  0  0
  191.5120  176.1470  146.0240 C   0  0  1  0  0  3  0  0  0  0  0  0
  193.9880  175.6450  141.0640 N   0  0  0  0  0  0  0  0  0  0  0  0
  196.1860  176.4790  141.4600 N   0  0  0  0  0  2  0  0  0  0  0  0
  195.3210  175.8810  144.0300 C   0  0  0  0  0  0  0  0  0  0  0  0
  197.0410  176.7770  142.6170 C   0  0  0  0  0  2  0  0  0  0  0  0
  193.5900  174.6800  143.1350 N   0  0  0  0  0  0  0  0  0  0  0  0
  196.2160  176.8080  143.8360 N   0  0  0  0  0  0  0  0  0  0  0  0
  195.0130  174.8690  142.9820 C   0  0  1  0  0  3  0  0  0  0  0  0
  193.2300  175.4000  144.3200 C   0  0  0  0  0  0  0  0  0  0  0  0
  195.1210  175.5490  141.6760 C   0  0  0  0  0  0  0  0  0  0  0  0
  191.8940  175.4120  144.8260 N   0  0  0  0  0  2  0  0  0  0  0  0
  192.9640  174.9560  141.8450 C   0  0  0  0  0  2  0  0  0  0  0  0
  194.1870  176.0910  144.8580 N   0  0  0  0  0  0  0  0  0  0  0  0
  187.3260  176.5480  146.2100 C   0  0  0  0  0  0  0  0  0  0  0  0
  187.9520  175.7010  147.0600 N   0  0  0  0  0  0  0  0  0  0  0  0
  189.2840  175.5850  146.9870 N   0  0  0  0  0  0  0  0  0  0  0  0
  185.9710  177.7090  145.1270 C   0  0  0  0  0  0  0  0  0  0  0  0
  189.3910  177.1850  145.1900 C   0  0  0  0  0  3  0  0  0  0  0  0
  190.0290  176.2990  146.0770 C   0  0  0  0  0  0  0  0  0  0  0  0
  188.0120  177.2730  145.3000 C   0  0  0  0  0  0  0  0  0  0  0  0
  186.0100  176.7950  146.1360 N   0  0  0  0  0  0  0  0  0  0  0  0
  187.1630  177.9980  144.6240 O   0  0  0  0  0  0  0  0  0  0  0  0
  184.7260  178.3190  144.6430 C   0  0  0  0  0  0  0  0  0  0  0  0
  184.3420  178.2070  143.2090 C   0  0  0  0  0  1  0  0  0  0  0  0
  183.9600  178.9690  145.4550 N   0  0  0  0  0  2  0  0  0  0  0  0
  2 20  1  0  0  0  0
  2  1  1  1  0  0  0
  3 11  2  0  0  0  0
  3 13  1  0  0  0  0
  4 11  1  0  0  0  0
  4  6  1  0  0  0  0
  5 14  1  0  0  0  0
  6  8  1  0  0  0  0
  7 10  1  0  0  0  0
  8  5  2  0  0  0  0
  9 11  1  6  0  0  0
  9  7  1  0  0  0  0
  9  5  1  0  0  0  0
 10 12  1  0  0  0  0
 10 14  2  0  0  0  0
 12  2  1  0  0  0  0
 13  7  1  0  0  0  0
 15 16  1  0  0  0  0
 17 16  2  0  0  0  0
 18 22  2  0  0  0  0
 19 21  1  0  0  0  0
 19 20  2  0  0  0  0
 20 17  1  0  0  0  0
 21 15  2  0  0  0  0
 22 15  1  0  0  0  0
 23 18  1  0  0  0  0
 23 21  1  0  0  0  0
 24 18  1  0  0  0  0
 24 26  2  0  0  0  0
 25 24  1  0  0  0  0
M  END
>  <MODEL>
4

>  <REMARK>
 VINA RESULT:      -7.0      1.879      3.238
  Name = 
  3 active torsions:
  status: ('A' for Active; 'I' for Inactive)
    1  A    between atoms: C_1  and  C_14
    2  A    between atoms: C_18  and  C_22
    3  A    between atoms: N_21  and  C_22
                            x       y       z     vdW  Elec       q    Type
                         _______ _______ _______ _____ _____    ______ ____

>  <TORSDO>
F 3

$$$$
=
 OpenBabel11042418523D

 26 30  0  0  1  0  0  0  0  0999 V2000
  189.8940  177.2870  147.2470 C   0  0  0  0  0  1  0  0  0  0  0  0
  190.7200  177.2110  145.9740 C   0  0  1  0  0  3  0  0  0  0  0  0
  194.0470  173.4860  143.5190 N   0  0  0  0  0  0  0  0  0  0  0  0
  196.0500  174.7150  143.1220 N   0  0  0  0  0  2  0  0  0  0  0  0
  194.8220  176.2310  145.0970 C   0  0  0  0  0  0  0  0  0  0  0  0
  196.6610  175.9720  143.5780 C   0  0  0  0  0  2  0  0  0  0  0  0
  193.3970  174.4870  145.5080 N   0  0  0  0  0  0  0  0  0  0  0  0
  195.6400  176.7910  144.2510 N   0  0  0  0  0  0  0  0  0  0  0  0
  194.8000  174.7560  145.2940 C   0  0  1  0  0  3  0  0  0  0  0  0
  192.7700  175.7700  145.6140 C   0  0  0  0  0  0  0  0  0  0  0  0
  195.0620  174.1370  143.9800 C   0  0  0  0  0  0  0  0  0  0  0  0
  191.3730  175.9140  145.8730 N   0  0  0  0  0  2  0  0  0  0  0  0
  192.9780  173.5030  144.5140 C   0  0  0  0  0  2  0  0  0  0  0  0
  193.5470  176.7840  145.3900 N   0  0  0  0  0  0  0  0  0  0  0  0
  188.3030  177.8490  142.5870 C   0  0  0  0  0  0  0  0  0  0  0  0
  189.6420  177.7210  142.4350 N   0  0  0  0  0  0  0  0  0  0  0  0
  190.3970  177.5180  143.5230 N   0  0  0  0  0  0  0  0  0  0  0  0
  186.2430  178.0950  142.3500 C   0  0  0  0  0  0  0  0  0  0  0  0
  188.4600  177.5680  144.9550 C   0  0  0  0  0  3  0  0  0  0  0  0
  189.8510  177.4390  144.7830 C   0  0  0  0  0  0  0  0  0  0  0  0
  187.7190  177.7760  143.8020 C   0  0  0  0  0  0  0  0  0  0  0  0
  187.3940  178.0530  141.6220 N   0  0  0  0  0  0  0  0  0  0  0  0
  186.4320  177.9310  143.6520 O   0  0  0  0  0  0  0  0  0  0  0  0
  184.9200  178.3000  141.7490 C   0  0  0  0  0  0  0  0  0  0  0  0
  183.6990  178.2870  142.6000 C   0  0  0  0  0  1  0  0  0  0  0  0
  184.8030  178.4830  140.4750 N   0  0  0  0  0  2  0  0  0  0  0  0
  2  1  1  1  0  0  0
  3 11  2  0  0  0  0
  3 13  1  0  0  0  0
  4  6  1  0  0  0  0
  4 11  1  0  0  0  0
  5  9  1  0  0  0  0
  5 14  1  0  0  0  0
  6  8  1  0  0  0  0
  7 10  1  0  0  0  0
  8  5  2  0  0  0  0
  9 11  1  6  0  0  0
  9  7  1  0  0  0  0
 10 12  1  0  0  0  0
 12  2  1  0  0  0  0
 13  7  1  0  0  0  0
 14 10  2  0  0  0  0
 15 21  1  0  0  0  0
 16 15  2  0  0  0  0
 16 17  1  0  0  0  0
 17 20  2  0  0  0  0
 18 23  1  0  0  0  0
 20 19  1  0  0  0  0
 20  2  1  0  0  0  0
 21 19  2  0  0  0  0
 22 18  2  0  0  0  0
 22 15  1  0  0  0  0
 23 21  1  0  0  0  0
 24 18  1  0  0  0  0
 24 25  1  0  0  0  0
 26 24  2  0  0  0  0
M  END
>  <MODEL>
5

>  <REMARK>
 VINA RESULT:      -6.8      2.173      2.785
  Name = 
  3 active torsions:
  status: ('A' for Active; 'I' for Inactive)
    1  A    between atoms: C_1  and  C_14
    2  A    between atoms: C_18  and  C_22
    3  A    between atoms: N_21  and  C_22
                            x       y       z     vdW  Elec       q    Type
                         _______ _______ _______ _____ _____    ______ ____

>  <TORSDO>
F 3

$$$$
=
 OpenBabel11042418523D

 26 30  0  0  1  0  0  0  0  0999 V2000
  189.9330  172.9000  143.5240 C   0  0  0  0  0  1  0  0  0  0  0  0
  190.5640  173.6630  144.6770 C   0  0  1  0  0  3  0  0  0  0  0  0
  195.7190  175.6870  145.2380 N   0  0  0  0  0  0  0  0  0  0  0  0
  196.9780  173.7940  145.9530 N   0  0  0  0  0  2  0  0  0  0  0  0
  194.7380  172.6060  144.8210 C   0  0  0  0  0  0  0  0  0  0  0  0
  196.8160  172.3340  145.9890 C   0  0  0  0  0  2  0  0  0  0  0  0
  194.2020  174.6100  143.8520 N   0  0  0  0  0  0  0  0  0  0  0  0
  195.4020  171.9960  145.7630 N   0  0  0  0  0  0  0  0  0  0  0  0
  195.3350  173.7380  144.0600 C   0  0  1  0  0  3  0  0  0  0  0  0
  193.0600  173.8720  144.3030 C   0  0  0  0  0  0  0  0  0  0  0  0
  196.1740  174.5020  145.0040 C   0  0  0  0  0  0  0  0  0  0  0  0
  191.7340  174.3970  144.2140 N   0  0  0  0  0  2  0  0  0  0  0  0
  194.5420  175.9180  144.4030 C   0  0  0  0  0  2  0  0  0  0  0  0
  193.3240  172.7290  144.8560 N   0  0  0  0  0  0  0  0  0  0  0  0
  187.7820  176.3080  146.4030 C   0  0  0  0  0  0  0  0  0  0  0  0
  188.4640  175.4480  147.1960 N   0  0  0  0  0  0  0  0  0  0  0  0
  189.3450  174.6130  146.6310 N   0  0  0  0  0  0  0  0  0  0  0  0
  186.5360  177.7730  145.5910 C   0  0  0  0  0  0  0  0  0  0  0  0
  188.8740  175.4950  144.4390 C   0  0  0  0  0  3  0  0  0  0  0  0
  189.5740  174.6050  145.2740 C   0  0  0  0  0  0  0  0  0  0  0  0
  187.9730  176.3400  145.0670 C   0  0  0  0  0  0  0  0  0  0  0  0
  186.8680  177.2110  146.7860 N   0  0  0  0  0  0  0  0  0  0  0  0
  187.1930  177.2560  144.5600 O   0  0  0  0  0  0  0  0  0  0  0  0
  185.5480  178.8500  145.4550 C   0  0  0  0  0  0  0  0  0  0  0  0
  185.5660  179.7400  144.2620 C   0  0  0  0  0  1  0  0  0  0  0  0
  184.6620  179.0410  146.3750 N   0  0  0  0  0  2  0  0  0  0  0  0
  2  1  1  6  0  0  0
  2 20  1  0  0  0  0
  4  6  1  0  0  0  0
  5 14  1  0  0  0  0
  5  8  2  0  0  0  0
  7  9  1  0  0  0  0
  7 10  1  0  0  0  0
  7 13  1  0  0  0  0
  8  6  1  0  0  0  0
  9  5  1  1  0  0  0
  9 11  1  0  0  0  0
 10 14  2  0  0  0  0
 11  3  2  0  0  0  0
 11  4  1  0  0  0  0
 12 10  1  0  0  0  0
 12  2  1  0  0  0  0
 13  3  1  0  0  0  0
 15 22  1  0  0  0  0
 15 16  1  0  0  0  0
 17 16  2  0  0  0  0
 18 22  2  0  0  0  0
 19 21  1  0  0  0  0
 19 20  2  0  0  0  0
 20 17  1  0  0  0  0
 21 15  2  0  0  0  0
 23 21  1  0  0  0  0
 23 18  1  0  0  0  0
 24 18  1  0  0  0  0
 24 26  2  0  0  0  0
 25 24  1  0  0  0  0
M  END
>  <MODEL>
6

>  <REMARK>
 VINA RESULT:      -6.7      2.499      4.013
  Name = 
  3 active torsions:
  status: ('A' for Active; 'I' for Inactive)
    1  A    between atoms: C_1  and  C_14
    2  A    between atoms: C_18  and  C_22
    3  A    between atoms: N_21  and  C_22
                            x       y       z     vdW  Elec       q    Type
                         _______ _______ _______ _____ _____    ______ ____

>  <TORSDO>
F 3

$$$$
=
 OpenBabel11042418523D

 26 30  0  0  1  0  0  0  0  0999 V2000
  192.6100  176.6400  147.3240 C   0  0  0  0  0  1  0  0  0  0  0  0
  192.0060  176.5770  145.9310 C   0  0  1  0  0  3  0  0  0  0  0  0
  194.5990  173.9960  141.7370 N   0  0  0  0  0  0  0  0  0  0  0  0
  196.6780  175.1520  141.5810 N   0  0  0  0  0  2  0  0  0  0  0  0
  195.8500  175.7910  144.1530 C   0  0  0  0  0  0  0  0  0  0  0  0
  197.4750  176.0670  142.4090 C   0  0  0  0  0  2  0  0  0  0  0  0
  194.2840  174.1260  144.0310 N   0  0  0  0  0  0  0  0  0  0  0  0
  196.6340  176.5970  143.4940 N   0  0  0  0  0  0  0  0  0  0  0  0
  195.6780  174.3700  143.7430 C   0  0  1  0  0  3  0  0  0  0  0  0
  193.8250  175.2870  144.7320 C   0  0  0  0  0  0  0  0  0  0  0  0
  195.7260  174.3340  142.2680 C   0  0  0  0  0  0  0  0  0  0  0  0
  192.4890  175.3980  145.2260 N   0  0  0  0  0  2  0  0  0  0  0  0
  193.6510  173.6680  142.7980 C   0  0  0  0  0  2  0  0  0  0  0  0
  194.6870  176.2520  144.8240 N   0  0  0  0  0  0  0  0  0  0  0  0
  187.8070  176.4540  146.2030 C   0  0  0  0  0  0  0  0  0  0  0  0
  188.5450  175.5540  146.8940 N   0  0  0  0  0  0  0  0  0  0  0  0
  189.8800  175.6070  146.7970 N   0  0  0  0  0  0  0  0  0  0  0  0
  186.3030  177.6150  145.3380 C   0  0  0  0  0  0  0  0  0  0  0  0
  189.7620  177.4870  145.2960 C   0  0  0  0  0  3  0  0  0  0  0  0
  190.5170  176.5440  146.0170 C   0  0  0  0  0  0  0  0  0  0  0  0
  188.3850  177.3950  145.4260 C   0  0  0  0  0  0  0  0  0  0  0  0
  186.4700  176.5560  146.1780 N   0  0  0  0  0  0  0  0  0  0  0  0
  187.4430  178.1200  144.8860 O   0  0  0  0  0  0  0  0  0  0  0  0
  184.9870  178.1500  144.9700 C   0  0  0  0  0  0  0  0  0  0  0  0
  184.0660  178.6660  146.0190 C   0  0  0  0  0  1  0  0  0  0  0  0
  184.6120  178.1660  143.7340 N   0  0  0  0  0  2  0  0  0  0  0  0
  2 20  1  0  0  0  0
  2  1  1  1  0  0  0
  3 11  2  0  0  0  0
  3 13  1  0  0  0  0
  4 11  1  0  0  0  0
  4  6  1  0  0  0  0
  5 14  1  0  0  0  0
  6  8  1  0  0  0  0
  7 10  1  0  0  0  0
  8  5  2  0  0  0  0
  9 11  1  6  0  0  0
  9  7  1  0  0  0  0
  9  5  1  0  0  0  0
 10 14  2  0  0  0  0
 10 12  1  0  0  0  0
 12  2  1  0  0  0  0
 13  7  1  0  0  0  0
 15 16  1  0  0  0  0
 17 16  2  0  0  0  0
 18 22  2  0  0  0  0
 19 21  1  0  0  0  0
 19 20  2  0  0  0  0
 20 17  1  0  0  0  0
 21 15  2  0  0  0  0
 22 15  1  0  0  0  0
 23 18  1  0  0  0  0
 23 21  1  0  0  0  0
 24 18  1  0  0  0  0
 24 25  1  0  0  0  0
 26 24  2  0  0  0  0
M  END
>  <MODEL>
7

>  <REMARK>
 VINA RESULT:      -6.7      2.168      3.659
  Name = 
  3 active torsions:
  status: ('A' for Active; 'I' for Inactive)
    1  A    between atoms: C_1  and  C_14
    2  A    between atoms: C_18  and  C_22
    3  A    between atoms: N_21  and  C_22
                            x       y       z     vdW  Elec       q    Type
                         _______ _______ _______ _____ _____    ______ ____

>  <TORSDO>
F 3

$$$$
=
 OpenBabel11042418523D

 26 30  0  0  1  0  0  0  0  0999 V2000
  189.7500  175.5300  143.3340 C   0  0  0  0  0  1  0  0  0  0  0  0
  188.3840  175.2610  142.7260 C   0  0  1  0  0  3  0  0  0  0  0  0
  184.0510  178.6870  143.4060 N   0  0  0  0  0  0  0  0  0  0  0  0
  183.7020  178.6720  145.7640 N   0  0  0  0  0  2  0  0  0  0  0  0
  186.3180  177.7640  145.5590 C   0  0  0  0  0  0  0  0  0  0  0  0
  184.4430  178.2700  146.9680 C   0  0  0  0  0  2  0  0  0  0  0  0
  186.3590  178.4670  143.3810 N   0  0  0  0  0  0  0  0  0  0  0  0
  185.5810  177.4220  146.5770 N   0  0  0  0  0  0  0  0  0  0  0  0
  185.9550  178.9190  144.6910 C   0  0  1  0  0  3  0  0  0  0  0  0
  187.0700  177.2430  143.5960 C   0  0  0  0  0  0  0  0  0  0  0  0
  184.4820  178.9430  144.5950 C   0  0  0  0  0  0  0  0  0  0  0  0
  187.6680  176.5120  142.5230 N   0  0  0  0  0  2  0  0  0  0  0  0
  185.1920  178.5390  142.5070 C   0  0  0  0  0  2  0  0  0  0  0  0
  187.0700  176.8130  144.8200 N   0  0  0  0  0  0  0  0  0  0  0  0
  188.7800  173.2650  139.0420 C   0  0  0  0  0  0  0  0  0  0  0  0
  188.1920  174.4830  139.0790 N   0  0  0  0  0  0  0  0  0  0  0  0
  188.0740  175.1050  140.2590 N   0  0  0  0  0  0  0  0  0  0  0  0
  189.6030  171.4180  138.5190 C   0  0  0  0  0  0  0  0  0  0  0  0
  189.1460  173.2760  141.4030 C   0  0  0  0  0  3  0  0  0  0  0  0
  188.5310  174.5410  141.4280 C   0  0  0  0  0  0  0  0  0  0  0  0
  189.2470  172.6700  140.1610 C   0  0  0  0  0  0  0  0  0  0  0  0
  188.9870  172.4970  137.9610 N   0  0  0  0  0  0  0  0  0  0  0  0
  189.7610  171.5160  139.8320 O   0  0  0  0  0  0  0  0  0  0  0  0
  190.0530  170.2580  137.7400 C   0  0  0  0  0  0  0  0  0  0  0  0
  190.4850  170.4240  136.3260 C   0  0  0  0  0  1  0  0  0  0  0  0
  190.0670  169.0810  138.2730 N   0  0  0  0  0  2  0  0  0  0  0  0
  2  1  1  6  0  0  0
  3 11  2  0  0  0  0
  4  6  1  0  0  0  0
  5  8  2  0  0  0  0
  7 10  1  0  0  0  0
  7  9  1  0  0  0  0
  8  6  1  0  0  0  0
  9 11  1  6  0  0  0
  9  5  1  0  0  0  0
 10 14  2  0  0  0  0
 11  4  1  0  0  0  0
 12  2  1  0  0  0  0
 12 10  1  0  0  0  0
 13  7  1  0  0  0  0
 13  3  1  0  0  0  0
 14  5  1  0  0  0  0
 15 16  2  0  0  0  0
 15 21  1  0  0  0  0
 16 17  1  0  0  0  0
 17 20  2  0  0  0  0
 18 23  1  0  0  0  0
 19 20  1  0  0  0  0
 20  2  1  0  0  0  0
 21 19  2  0  0  0  0
 22 18  2  0  0  0  0
 22 15  1  0  0  0  0
 23 21  1  0  0  0  0
 24 26  2  0  0  0  0
 24 18  1  0  0  0  0
 25 24  1  0  0  0  0
M  END
>  <MODEL>
8

>  <REMARK>
 VINA RESULT:      -6.6      4.455      8.133
  Name = 
  3 active torsions:
  status: ('A' for Active; 'I' for Inactive)
    1  A    between atoms: C_1  and  C_14
    2  A    between atoms: C_18  and  C_22
    3  A    between atoms: N_21  and  C_22
                            x       y       z     vdW  Elec       q    Type
                         _______ _______ _______ _____ _____    ______ ____

>  <TORSDO>
F 3

$$$$
=
 OpenBabel11042418523D

 26 30  0  0  1  0  0  0  0  0999 V2000
  190.1700  177.5610  145.0250 C   0  0  0  0  0  1  0  0  0  0  0  0
  189.9820  176.3230  145.8850 C   0  0  1  0  0  3  0  0  0  0  0  0
  185.2110  178.7810  147.3600 N   0  0  0  0  0  0  0  0  0  0  0  0
  184.0620  179.0410  145.2880 N   0  0  0  0  0  2  0  0  0  0  0  0
  185.9120  177.0610  144.6810 C   0  0  0  0  0  0  0  0  0  0  0  0
  184.1560  178.5090  143.9210 C   0  0  0  0  0  2  0  0  0  0  0  0
  186.3040  176.7830  146.9190 N   0  0  0  0  0  0  0  0  0  0  0  0
  185.4590  177.8480  143.7460 N   0  0  0  0  0  0  0  0  0  0  0  0
  185.2090  176.9250  145.9870 C   0  0  1  0  0  3  0  0  0  0  0  0
  187.4820  176.6530  146.1150 C   0  0  0  0  0  0  0  0  0  0  0  0
  184.6550  178.2510  146.3230 C   0  0  0  0  0  0  0  0  0  0  0  0
  188.7740  176.4480  146.6890 N   0  0  0  0  0  2  0  0  0  0  0  0
  186.1680  177.8330  147.9250 C   0  0  0  0  0  2  0  0  0  0  0  0
  187.2980  176.8020  144.8400 N   0  0  0  0  0  0  0  0  0  0  0  0
  189.7410  172.8660  143.4960 C   0  0  0  0  0  0  0  0  0  0  0  0
  189.6910  172.7490  144.8430 N   0  0  0  0  0  0  0  0  0  0  0  0
  189.7690  173.8590  145.5890 N   0  0  0  0  0  0  0  0  0  0  0  0
  189.7730  172.5750  141.4290 C   0  0  0  0  0  0  0  0  0  0  0  0
  189.9500  175.2430  143.6260 C   0  0  0  0  0  3  0  0  0  0  0  0
  189.8990  175.1060  145.0250 C   0  0  0  0  0  0  0  0  0  0  0  0
  189.8660  174.0680  142.8940 C   0  0  0  0  0  0  0  0  0  0  0  0
  189.6780  171.8760  142.5940 N   0  0  0  0  0  0  0  0  0  0  0  0
  189.8860  173.8850  141.6020 O   0  0  0  0  0  0  0  0  0  0  0  0
  189.7500  171.9390  140.1060 C   0  0  0  0  0  0  0  0  0  0  0  0
  190.7510  170.8960  139.7560 C   0  0  0  0  0  1  0  0  0  0  0  0
  188.8670  172.2890  139.2300 N   0  0  0  0  0  2  0  0  0  0  0  0
  2  1  1  6  0  0  0
  2 12  1  0  0  0  0
  3 13  1  0  0  0  0
  4 11  1  0  0  0  0
  5 14  1  0  0  0  0
  6  4  1  0  0  0  0
  7 13  1  0  0  0  0
  8  6  1  0  0  0  0
  8  5  2  0  0  0  0
  9  5  1  6  0  0  0
  9 11  1  0  0  0  0
  9  7  1  0  0  0  0
 10 12  1  0  0  0  0
 10  7  1  0  0  0  0
 11  3  2  0  0  0  0
 14 10  2  0  0  0  0
 15 16  1  0  0  0  0
 16 17  2  0  0  0  0
 18 23  1  0  0  0  0
 18 22  2  0  0  0  0
 19 20  2  0  0  0  0
 20 17  1  0  0  0  0
 20  2  1  0  0  0  0
 21 15  2  0  0  0  0
 21 19  1  0  0  0  0
 22 15  1  0  0  0  0
 23 21  1  0  0  0  0
 24 18  1  0  0  0  0
 25 24  1  0  0  0  0
 26 24  2  0  0  0  0
M  END
>  <MODEL>
9

>  <REMARK>
 VINA RESULT:      -6.6      3.029      7.396
  Name = 
  3 active torsions:
  status: ('A' for Active; 'I' for Inactive)
    1  A    between atoms: C_1  and  C_14
    2  A    between atoms: C_18  and  C_22
    3  A    between atoms: N_21  and  C_22
                            x       y       z     vdW  Elec       q    Type
                         _______ _______ _______ _____ _____    ______ ____

>  <TORSDO>
F 3

$$$$
