=
 OpenBabel11042417263D

 29 33  0  0  1  0  0  0  0  0999 V2000
  183.9180  178.9590  145.6380 C   0  0  0  0  0  2  0  0  0  0  0  0
  185.2980  177.6670  144.3660 C   0  0  0  0  0  0  0  0  0  0  0  0
  184.1330  178.4090  144.3310 O   0  0  0  0  0  0  0  0  0  0  0  0
  190.0500  175.3720  143.1160 N   0  0  0  0  0  0  0  0  0  0  0  0
  187.1050  176.2750  143.6130 C   0  0  0  0  0  0  0  0  0  0  0  0
  186.9990  177.0470  145.9410 C   0  0  0  0  0  3  0  0  0  0  0  0
  187.7050  175.5290  142.5440 N   0  0  0  0  0  2  0  0  0  0  0  0
  189.9380  175.9470  144.3920 N   0  0  0  0  0  0  0  0  0  0  0  0
  185.8250  177.7150  145.6130 C   0  0  0  0  0  0  0  0  0  0  0  0
  189.0620  175.0950  142.3130 C   0  0  0  0  0  0  0  0  0  0  0  0
  185.0210  178.4890  146.4250 O   0  0  0  0  0  0  0  0  0  0  0  0
  187.6440  176.3160  144.9260 C   0  0  0  0  0  0  0  0  0  0  0  0
  188.8610  175.5540  145.2760 C   0  0  0  0  0  2  0  0  0  0  0  0
  185.9010  176.9520  143.3370 C   0  0  0  0  0  3  0  0  0  0  0  0
  189.3680  174.4010  141.0440 C   0  0  0  0  0  0  0  0  0  0  0  0
  190.4970  172.2640  140.5780 C   0  0  0  0  0  3  0  0  0  0  0  0
  188.6500  173.7910  138.7230 C   0  0  0  0  0  3  0  0  0  0  0  0
  189.2740  172.1420  137.1460 N   0  0  0  0  0  1  0  0  0  0  0  0
  189.3150  172.6550  138.4720 C   0  0  0  0  0  0  0  0  0  0  0  0
  189.9120  171.8420  139.4970 N   0  0  0  0  0  0  0  0  0  0  0  0
  190.6860  173.7120  140.8760 C   0  0  0  0  0  2  0  0  0  0  0  0
  188.5010  174.4660  140.0270 C   0  0  0  0  0  3  0  0  0  0  0  0
  191.0580  176.6860  144.9550 C   0  0  1  0  0  3  0  0  0  0  0  0
  192.2900  176.3980  147.1100 C   0  0  0  0  0  3  0  0  0  0  0  0
  193.6160  176.3520  146.3960 C   0  0  1  0  0  3  0  0  0  0  0  0
  191.1240  176.5010  146.4530 C   0  0  0  0  0  3  0  0  0  0  0  0
  192.3600  176.3090  144.2480 C   0  0  0  0  0  2  0  0  0  0  0  0
  193.5370  176.9340  144.9860 C   0  0  0  0  0  2  0  0  0  0  0  0
  194.5700  177.0270  147.1330 F   0  0  0  0  0  0  0  0  0  0  0  0
  1 11  1  0  0  0  0
  2  9  1  0  0  0  0
  3  2  1  0  0  0  0
  3  1  1  0  0  0  0
  4  8  1  0  0  0  0
  5 12  2  0  0  0  0
  7  5  1  0  0  0  0
  8 23  1  0  0  0  0
  8 13  1  0  0  0  0
  9  6  2  0  0  0  0
  9 11  1  0  0  0  0
 10  7  1  0  0  0  0
 10  4  2  0  0  0  0
 12 13  1  0  0  0  0
 12  6  1  0  0  0  0
 14  5  1  0  0  0  0
 14  2  2  0  0  0  0
 15 10  1  0  0  0  0
 16 21  1  0  0  0  0
 17 22  1  0  0  0  0
 18 19  1  0  0  0  0
 19 17  2  0  0  0  0
 19 20  1  0  0  0  0
 20 16  2  0  0  0  0
 21 15  1  0  0  0  0
 22 15  2  0  0  0  0
 23 27  1  6  0  0  0
 23 26  1  0  0  0  0
 25 24  1  0  0  0  0
 25 29  1  1  0  0  0
 26 24  2  0  0  0  0
 27 28  1  0  0  0  0
 28 25  1  0  0  0  0
M  END
>  <MODEL>
1

>  <REMARK>
 VINA RESULT:      -8.1      0.000      0.000
  Name = 
  2 active torsions:
  status: ('A' for Active; 'I' for Inactive)
    1  A    between atoms: C_1  and  N_17
    2  A    between atoms: C_3  and  C_23
                            x       y       z     vdW  Elec       q    Type
                         _______ _______ _______ _____ _____    ______ ____

>  <TORSDO>
F 2

$$$$
=
 OpenBabel11042417263D

 29 33  0  0  1  0  0  0  0  0999 V2000
  183.9840  179.0010  145.1400 C   0  0  0  0  0  2  0  0  0  0  0  0
  185.3940  177.6160  144.0060 C   0  0  0  0  0  0  0  0  0  0  0  0
  184.2390  178.3620  143.8810 O   0  0  0  0  0  0  0  0  0  0  0  0
  190.1640  175.2070  143.0780 N   0  0  0  0  0  0  0  0  0  0  0  0
  187.2120  176.1620  143.4110 C   0  0  0  0  0  0  0  0  0  0  0  0
  187.0350  177.0910  145.6770 C   0  0  0  0  0  3  0  0  0  0  0  0
  187.8410  175.3420  142.4160 N   0  0  0  0  0  2  0  0  0  0  0  0
  190.0140  175.8670  144.3070 N   0  0  0  0  0  0  0  0  0  0  0  0
  185.8800  177.7440  145.2650 C   0  0  0  0  0  0  0  0  0  0  0  0
  189.2010  174.8840  142.2610 C   0  0  0  0  0  0  0  0  0  0  0  0
  185.0550  178.5770  145.9950 O   0  0  0  0  0  0  0  0  0  0  0  0
  187.7070  176.2880  144.7360 C   0  0  0  0  0  0  0  0  0  0  0  0
  188.9040  175.5430  145.1780 C   0  0  0  0  0  2  0  0  0  0  0  0
  186.0250  176.8290  143.0490 C   0  0  0  0  0  3  0  0  0  0  0  0
  189.5430  174.1040  141.0520 C   0  0  0  0  0  0  0  0  0  0  0  0
  188.5350  174.0410  138.8070 C   0  0  0  0  0  3  0  0  0  0  0  0
  191.3150  173.1180  139.5830 C   0  0  0  0  0  3  0  0  0  0  0  0
  191.4130  172.3440  137.3500 N   0  0  0  0  0  1  0  0  0  0  0  0
  190.7280  173.0460  138.3800 C   0  0  0  0  0  0  0  0  0  0  0  0
  189.5430  173.7810  138.0300 N   0  0  0  0  0  0  0  0  0  0  0  0
  188.4470  173.5340  140.2060 C   0  0  0  0  0  2  0  0  0  0  0  0
  190.8240  173.8430  140.7710 C   0  0  0  0  0  3  0  0  0  0  0  0
  191.1210  176.6340  144.8580 C   0  0  1  0  0  3  0  0  0  0  0  0
  192.2690  176.4900  147.0730 C   0  0  0  0  0  3  0  0  0  0  0  0
  193.6210  176.3810  146.4140 C   0  0  1  0  0  3  0  0  0  0  0  0
  191.1300  176.5570  146.3660 C   0  0  0  0  0  3  0  0  0  0  0  0
  192.4440  176.1950  144.2290 C   0  0  0  0  0  2  0  0  0  0  0  0
  193.6010  176.8600  144.9640 C   0  0  0  0  0  2  0  0  0  0  0  0
  194.5550  177.0980  147.1360 F   0  0  0  0  0  0  0  0  0  0  0  0
  1 11  1  0  0  0  0
  2  9  1  0  0  0  0
  3  2  1  0  0  0  0
  3  1  1  0  0  0  0
  4  8  1  0  0  0  0
  5 12  2  0  0  0  0
  7  5  1  0  0  0  0
  8 23  1  0  0  0  0
  8 13  1  0  0  0  0
  9  6  2  0  0  0  0
  9 11  1  0  0  0  0
 10  7  1  0  0  0  0
 10  4  2  0  0  0  0
 12 13  1  0  0  0  0
 12  6  1  0  0  0  0
 14  5  1  0  0  0  0
 14  2  2  0  0  0  0
 15 10  1  0  0  0  0
 16 21  1  0  0  0  0
 17 22  1  0  0  0  0
 18 19  1  0  0  0  0
 19 17  2  0  0  0  0
 20 19  1  0  0  0  0
 20 16  2  0  0  0  0
 21 15  1  0  0  0  0
 22 15  2  0  0  0  0
 23 27  1  6  0  0  0
 23 26  1  0  0  0  0
 25 24  1  0  0  0  0
 25 29  1  1  0  0  0
 26 24  2  0  0  0  0
 27 28  1  0  0  0  0
 28 25  1  0  0  0  0
M  END
>  <MODEL>
2

>  <REMARK>
 VINA RESULT:      -8.0      0.761      1.242
  Name = 
  2 active torsions:
  status: ('A' for Active; 'I' for Inactive)
    1  A    between atoms: C_1  and  N_17
    2  A    between atoms: C_3  and  C_23
                            x       y       z     vdW  Elec       q    Type
                         _______ _______ _______ _____ _____    ______ ____

>  <TORSDO>
F 2

$$$$
=
 OpenBabel11042417263D

 29 33  0  0  1  0  0  0  0  0999 V2000
  191.2060  171.5380  139.3400 C   0  0  0  0  0  2  0  0  0  0  0  0
  190.1350  172.9260  140.7940 C   0  0  0  0  0  0  0  0  0  0  0  0
  189.9400  171.8690  139.9270 O   0  0  0  0  0  0  0  0  0  0  0  0
  189.8870  176.2900  145.0410 N   0  0  0  0  0  0  0  0  0  0  0  0
  189.6400  174.6370  142.4060 C   0  0  0  0  0  0  0  0  0  0  0  0
  191.9250  174.3270  141.5640 C   0  0  0  0  0  3  0  0  0  0  0  0
  188.6560  175.3140  143.2020 N   0  0  0  0  0  2  0  0  0  0  0  0
  191.1650  175.9630  144.5630 N   0  0  0  0  0  0  0  0  0  0  0  0
  191.4420  173.2800  140.7870 C   0  0  0  0  0  0  0  0  0  0  0  0
  188.7630  176.0920  144.4130 C   0  0  0  0  0  0  0  0  0  0  0  0
  192.1370  172.4650  139.9160 O   0  0  0  0  0  0  0  0  0  0  0  0
  191.0080  175.0140  142.3820 C   0  0  0  0  0  0  0  0  0  0  0  0
  191.4970  176.1650  143.1690 C   0  0  0  0  0  2  0  0  0  0  0  0
  189.1970  173.5820  141.5840 C   0  0  0  0  0  3  0  0  0  0  0  0
  187.5180  176.5920  145.0350 C   0  0  0  0  0  0  0  0  0  0  0  0
  187.1170  177.8490  147.1130 C   0  0  0  0  0  3  0  0  0  0  0  0
  185.2480  177.6090  144.7400 C   0  0  0  0  0  3  0  0  0  0  0  0
  183.7300  178.7730  146.1320 N   0  0  0  0  0  1  0  0  0  0  0  0
  185.0300  178.2440  145.9000 C   0  0  0  0  0  0  0  0  0  0  0  0
  186.0730  178.5710  146.8340 N   0  0  0  0  0  0  0  0  0  0  0  0
  187.3440  176.5010  146.5190 C   0  0  0  0  0  2  0  0  0  0  0  0
  186.5240  177.0430  144.2610 C   0  0  0  0  0  3  0  0  0  0  0  0
  192.2510  175.7250  145.5030 C   0  0  1  0  0  3  0  0  0  0  0  0
  193.9910  173.9330  145.5740 C   0  0  0  0  0  3  0  0  0  0  0  0
  195.0980  174.9510  145.6700 C   0  0  1  0  0  3  0  0  0  0  0  0
  192.7020  174.2850  145.4500 C   0  0  0  0  0  3  0  0  0  0  0  0
  193.3910  176.7170  145.2690 C   0  0  0  0  0  2  0  0  0  0  0  0
  194.5910  176.3210  146.1180 C   0  0  0  0  0  2  0  0  0  0  0  0
  196.0770  174.5020  146.5350 F   0  0  0  0  0  0  0  0  0  0  0  0
  1 11  1  0  0  0  0
  1  3  1  0  0  0  0
  2 14  1  0  0  0  0
  3  2  1  0  0  0  0
  5  7  1  0  0  0  0
  6 12  2  0  0  0  0
  7 10  1  0  0  0  0
  8  4  1  0  0  0  0
  9  2  2  0  0  0  0
  9  6  1  0  0  0  0
 10 15  1  0  0  0  0
 10  4  2  0  0  0  0
 11  9  1  0  0  0  0
 12  5  1  0  0  0  0
 12 13  1  0  0  0  0
 13  8  1  0  0  0  0
 14  5  2  0  0  0  0
 15 21  1  0  0  0  0
 17 19  2  0  0  0  0
 19 18  1  0  0  0  0
 19 20  1  0  0  0  0
 20 16  2  0  0  0  0
 21 16  1  0  0  0  0
 22 17  1  0  0  0  0
 22 15  2  0  0  0  0
 23  8  1  6  0  0  0
 24 25  1  0  0  0  0
 25 28  1  0  0  0  0
 25 29  1  1  0  0  0
 26 23  1  0  0  0  0
 26 24  2  0  0  0  0
 27 23  1  0  0  0  0
 27 28  1  0  0  0  0
M  END
>  <MODEL>
3

>  <REMARK>
 VINA RESULT:      -8.0      3.395      6.704
  Name = 
  2 active torsions:
  status: ('A' for Active; 'I' for Inactive)
    1  A    between atoms: C_1  and  N_17
    2  A    between atoms: C_3  and  C_23
                            x       y       z     vdW  Elec       q    Type
                         _______ _______ _______ _____ _____    ______ ____

>  <TORSDO>
F 2

$$$$
=
 OpenBabel11042417263D

 29 33  0  0  1  0  0  0  0  0999 V2000
  185.1250  178.5570  147.6310 C   0  0  0  0  0  2  0  0  0  0  0  0
  187.1760  177.9110  146.8750 C   0  0  0  0  0  0  0  0  0  0  0  0
  186.4730  178.2500  148.0140 O   0  0  0  0  0  0  0  0  0  0  0  0
  190.5530  175.5460  143.3500 N   0  0  0  0  0  0  0  0  0  0  0  0
  189.0060  177.2250  145.4780 C   0  0  0  0  0  0  0  0  0  0  0  0
  186.8000  177.7060  144.5140 C   0  0  0  0  0  3  0  0  0  0  0  0
  190.3900  176.8610  145.3740 N   0  0  0  0  0  2  0  0  0  0  0  0
  189.2320  175.7550  142.9240 N   0  0  0  0  0  0  0  0  0  0  0  0
  186.3550  177.9860  145.8000 C   0  0  0  0  0  0  0  0  0  0  0  0
  191.1160  176.0980  144.3870 C   0  0  0  0  0  0  0  0  0  0  0  0
  185.0950  178.3770  146.2070 O   0  0  0  0  0  0  0  0  0  0  0  0
  188.1450  177.3220  144.3530 C   0  0  0  0  0  0  0  0  0  0  0  0
  188.6460  177.0770  142.9850 C   0  0  0  0  0  2  0  0  0  0  0  0
  188.5110  177.5410  146.7590 C   0  0  0  0  0  3  0  0  0  0  0  0
  192.5510  175.8310  144.6270 C   0  0  0  0  0  0  0  0  0  0  0  0
  194.1060  176.6670  146.3430 C   0  0  0  0  0  3  0  0  0  0  0  0
  194.4410  174.1880  144.6330 C   0  0  0  0  0  3  0  0  0  0  0  0
  196.5790  174.0850  145.6380 N   0  0  0  0  0  1  0  0  0  0  0  0
  195.2970  174.6890  145.5350 C   0  0  0  0  0  0  0  0  0  0  0  0
  194.9300  175.6770  146.5130 N   0  0  0  0  0  0  0  0  0  0  0  0
  193.4540  176.9540  145.0340 C   0  0  0  0  0  2  0  0  0  0  0  0
  193.0460  174.6110  144.3990 C   0  0  0  0  0  3  0  0  0  0  0  0
  188.5580  174.7380  142.1300 C   0  0  1  0  0  3  0  0  0  0  0  0
  188.2300  174.5410  139.6610 C   0  0  0  0  0  3  0  0  0  0  0  0
  188.7910  173.1420  139.6540 C   0  0  1  0  0  3  0  0  0  0  0  0
  188.1690  175.2840  140.7760 C   0  0  0  0  0  3  0  0  0  0  0  0
  189.4110  173.4720  142.0410 C   0  0  0  0  0  2  0  0  0  0  0  0
  188.7850  172.5070  141.0440 C   0  0  0  0  0  2  0  0  0  0  0  0
  188.0780  172.3530  138.7720 F   0  0  0  0  0  0  0  0  0  0  0  0
  1  3  1  0  0  0  0
  2  3  1  0  0  0  0
  4 10  2  0  0  0  0
  5 14  2  0  0  0  0
  6  9  1  0  0  0  0
  7  5  1  0  0  0  0
  8 13  1  0  0  0  0
  8  4  1  0  0  0  0
  9 11  1  0  0  0  0
  9  2  2  0  0  0  0
 10 15  1  0  0  0  0
 10  7  1  0  0  0  0
 11  1  1  0  0  0  0
 12  6  2  0  0  0  0
 12  5  1  0  0  0  0
 13 12  1  0  0  0  0
 14  2  1  0  0  0  0
 15 21  1  0  0  0  0
 16 20  2  0  0  0  0
 17 19  2  0  0  0  0
 19 18  1  0  0  0  0
 19 20  1  0  0  0  0
 21 16  1  0  0  0  0
 22 15  2  0  0  0  0
 22 17  1  0  0  0  0
 23 26  1  6  0  0  0
 23  8  1  0  0  0  0
 24 26  2  0  0  0  0
 25 29  1  6  0  0  0
 25 24  1  0  0  0  0
 25 28  1  0  0  0  0
 27 23  1  0  0  0  0
 28 27  1  0  0  0  0
M  END
>  <MODEL>
4

>  <REMARK>
 VINA RESULT:      -7.8      3.046      6.086
  Name = 
  2 active torsions:
  status: ('A' for Active; 'I' for Inactive)
    1  A    between atoms: C_1  and  N_17
    2  A    between atoms: C_3  and  C_23
                            x       y       z     vdW  Elec       q    Type
                         _______ _______ _______ _____ _____    ______ ____

>  <TORSDO>
F 2

$$$$
=
 OpenBabel11042417263D

 29 33  0  0  1  0  0  0  0  0999 V2000
  196.0070  174.5400  145.7770 C   0  0  0  0  0  2  0  0  0  0  0  0
  193.8060  175.1250  145.6920 C   0  0  0  0  0  0  0  0  0  0  0  0
  195.0250  175.4790  146.2360 O   0  0  0  0  0  0  0  0  0  0  0  0
  188.8780  175.2530  143.4310 N   0  0  0  0  0  0  0  0  0  0  0  0
  191.4600  175.1990  145.1830 C   0  0  0  0  0  0  0  0  0  0  0  0
  192.8920  173.4350  144.2540 C   0  0  0  0  0  3  0  0  0  0  0  0
  190.1900  175.8390  145.3760 N   0  0  0  0  0  2  0  0  0  0  0  0
  189.8050  174.3520  142.8850 N   0  0  0  0  0  0  0  0  0  0  0  0
  193.9610  174.0210  144.9210 C   0  0  0  0  0  0  0  0  0  0  0  0
  188.9870  175.8580  144.5800 C   0  0  0  0  0  0  0  0  0  0  0  0
  195.2830  173.6250  144.9420 O   0  0  0  0  0  0  0  0  0  0  0  0
  191.6250  174.0330  144.3900 C   0  0  0  0  0  0  0  0  0  0  0  0
  190.4710  173.3860  143.7320 C   0  0  0  0  0  2  0  0  0  0  0  0
  192.5710  175.7430  145.8560 C   0  0  0  0  0  3  0  0  0  0  0  0
  187.8610  176.7020  145.0340 C   0  0  0  0  0  0  0  0  0  0  0  0
  186.0610  177.8350  143.7940 C   0  0  0  0  0  3  0  0  0  0  0  0
  186.0870  177.1470  146.7460 C   0  0  0  0  0  3  0  0  0  0  0  0
  184.0700  178.3800  146.7990 N   0  0  0  0  0  1  0  0  0  0  0  0
  185.1430  177.8080  146.0620 C   0  0  0  0  0  0  0  0  0  0  0  0
  185.0630  177.8170  144.6260 N   0  0  0  0  0  0  0  0  0  0  0  0
  187.4800  177.9150  144.2440 C   0  0  0  0  0  2  0  0  0  0  0  0
  187.2470  176.4230  146.1890 C   0  0  0  0  0  3  0  0  0  0  0  0
  189.8680  174.1630  141.4430 C   0  0  1  0  0  3  0  0  0  0  0  0
  189.7820  172.0830  140.0600 C   0  0  0  0  0  3  0  0  0  0  0  0
  188.6700  172.6420  139.2100 C   0  0  1  0  0  3  0  0  0  0  0  0
  190.2930  172.7530  141.1040 C   0  0  0  0  0  3  0  0  0  0  0  0
  188.5440  174.5600  140.7900 C   0  0  0  0  0  2  0  0  0  0  0  0
  188.5620  174.1620  139.3200 C   0  0  0  0  0  2  0  0  0  0  0  0
  188.8570  172.2760  137.8910 F   0  0  0  0  0  0  0  0  0  0  0  0
  1  3  1  0  0  0  0
  2 14  1  0  0  0  0
  2  3  1  0  0  0  0
  4 10  2  0  0  0  0
  5  7  1  0  0  0  0
  5 14  2  0  0  0  0
  6 12  2  0  0  0  0
  6  9  1  0  0  0  0
  8  4  1  0  0  0  0
  8 13  1  0  0  0  0
  9 11  1  0  0  0  0
  9  2  2  0  0  0  0
 10 15  1  0  0  0  0
 10  7  1  0  0  0  0
 11  1  1  0  0  0  0
 12  5  1  0  0  0  0
 13 12  1  0  0  0  0
 15 22  2  0  0  0  0
 16 21  1  0  0  0  0
 16 20  2  0  0  0  0
 19 17  2  0  0  0  0
 19 18  1  0  0  0  0
 20 19  1  0  0  0  0
 21 15  1  0  0  0  0
 22 17  1  0  0  0  0
 23 27  1  6  0  0  0
 23  8  1  0  0  0  0
 24 26  2  0  0  0  0
 25 29  1  6  0  0  0
 25 28  1  0  0  0  0
 25 24  1  0  0  0  0
 26 23  1  0  0  0  0
 28 27  1  0  0  0  0
M  END
>  <MODEL>
5

>  <REMARK>
 VINA RESULT:      -7.7      4.138      7.944
  Name = 
  2 active torsions:
  status: ('A' for Active; 'I' for Inactive)
    1  A    between atoms: C_1  and  N_17
    2  A    between atoms: C_3  and  C_23
                            x       y       z     vdW  Elec       q    Type
                         _______ _______ _______ _____ _____    ______ ____

>  <TORSDO>
F 2

$$$$
=
 OpenBabel11042417263D

 29 33  0  0  1  0  0  0  0  0999 V2000
  191.4670  176.6340  148.3870 C   0  0  0  0  0  2  0  0  0  0  0  0
  190.9560  175.6810  146.3820 C   0  0  0  0  0  0  0  0  0  0  0  0
  191.6580  175.4820  147.5540 O   0  0  0  0  0  0  0  0  0  0  0  0
  187.9020  174.9690  141.9560 N   0  0  0  0  0  0  0  0  0  0  0  0
  190.0580  175.2550  144.1950 C   0  0  0  0  0  0  0  0  0  0  0  0
  189.5640  177.3530  145.3700 C   0  0  0  0  0  3  0  0  0  0  0  0
  189.9710  174.3780  143.0630 N   0  0  0  0  0  2  0  0  0  0  0  0
  187.6130  176.0850  142.7560 N   0  0  0  0  0  0  0  0  0  0  0  0
  190.3380  176.8850  146.4250 C   0  0  0  0  0  0  0  0  0  0  0  0
  188.9860  174.2480  142.0150 C   0  0  0  0  0  0  0  0  0  0  0  0
  190.6190  177.5060  147.6260 O   0  0  0  0  0  0  0  0  0  0  0  0
  189.4260  176.5250  144.2400 C   0  0  0  0  0  0  0  0  0  0  0  0
  188.6530  177.0350  143.0880 C   0  0  0  0  0  2  0  0  0  0  0  0
  190.8480  174.8360  145.2830 C   0  0  0  0  0  3  0  0  0  0  0  0
  189.1590  173.1640  141.0240 C   0  0  0  0  0  0  0  0  0  0  0  0
  188.8950  173.1270  138.5770 C   0  0  0  0  0  3  0  0  0  0  0  0
  190.4420  171.1480  140.2730 C   0  0  0  0  0  3  0  0  0  0  0  0
  190.6860  169.9710  138.2360 N   0  0  0  0  0  1  0  0  0  0  0  0
  190.2420  171.1190  138.9480 C   0  0  0  0  0  0  0  0  0  0  0  0
  189.7690  172.2460  138.1920 N   0  0  0  0  0  0  0  0  0  0  0  0
  188.1910  173.0390  139.8880 C   0  0  0  0  0  2  0  0  0  0  0  0
  190.1250  172.2550  141.1960 C   0  0  0  0  0  3  0  0  0  0  0  0
  186.2290  176.4700  142.9880 C   0  0  1  0  0  3  0  0  0  0  0  0
  185.1840  177.7810  144.8420 C   0  0  0  0  0  3  0  0  0  0  0  0
  184.5210  178.7180  143.8640 C   0  0  1  0  0  3  0  0  0  0  0  0
  185.9980  176.7900  144.4470 C   0  0  0  0  0  3  0  0  0  0  0  0
  185.8240  177.6120  142.0550 C   0  0  0  0  0  2  0  0  0  0  0  0
  184.4500  178.1320  142.4550 C   0  0  0  0  0  2  0  0  0  0  0  0
  183.2530  179.0400  144.3070 F   0  0  0  0  0  0  0  0  0  0  0  0
  2  9  1  0  0  0  0
  2  3  1  0  0  0  0
  3  1  1  0  0  0  0
  4 10  2  0  0  0  0
  4  8  1  0  0  0  0
  5 12  2  0  0  0  0
  5 14  1  0  0  0  0
  6  9  2  0  0  0  0
  7  5  1  0  0  0  0
  8 23  1  0  0  0  0
  8 13  1  0  0  0  0
  9 11  1  0  0  0  0
 10  7  1  0  0  0  0
 11  1  1  0  0  0  0
 12  6  1  0  0  0  0
 13 12  1  0  0  0  0
 14  2  2  0  0  0  0
 15 22  2  0  0  0  0
 15 10  1  0  0  0  0
 16 21  1  0  0  0  0
 17 22  1  0  0  0  0
 18 19  1  0  0  0  0
 19 17  2  0  0  0  0
 20 16  2  0  0  0  0
 20 19  1  0  0  0  0
 21 15  1  0  0  0  0
 23 27  1  6  0  0  0
 23 26  1  0  0  0  0
 25 29  1  1  0  0  0
 25 24  1  0  0  0  0
 26 24  2  0  0  0  0
 27 28  1  0  0  0  0
 28 25  1  0  0  0  0
M  END
>  <MODEL>
6

>  <REMARK>
 VINA RESULT:      -7.6      3.156      5.459
  Name = 
  2 active torsions:
  status: ('A' for Active; 'I' for Inactive)
    1  A    between atoms: C_1  and  N_17
    2  A    between atoms: C_3  and  C_23
                            x       y       z     vdW  Elec       q    Type
                         _______ _______ _______ _____ _____    ______ ____

>  <TORSDO>
F 2

$$$$
=
 OpenBabel11042417263D

 29 33  0  0  1  0  0  0  0  0999 V2000
  185.8740  179.4580  144.1150 C   0  0  0  0  0  2  0  0  0  0  0  0
  186.8520  177.8120  142.8800 C   0  0  0  0  0  0  0  0  0  0  0  0
  186.0350  178.9210  142.7940 O   0  0  0  0  0  0  0  0  0  0  0  0
  190.6110  174.0250  141.9040 N   0  0  0  0  0  0  0  0  0  0  0  0
  188.1320  175.8980  142.1910 C   0  0  0  0  0  0  0  0  0  0  0  0
  188.0320  176.5600  144.5530 C   0  0  0  0  0  3  0  0  0  0  0  0
  188.5540  175.0330  141.1270 N   0  0  0  0  0  2  0  0  0  0  0  0
  190.5580  174.5480  143.2050 N   0  0  0  0  0  0  0  0  0  0  0  0
  187.2140  177.6160  144.1710 C   0  0  0  0  0  0  0  0  0  0  0  0
  189.6900  174.1530  140.9910 C   0  0  0  0  0  0  0  0  0  0  0  0
  186.6420  178.5920  144.9630 O   0  0  0  0  0  0  0  0  0  0  0  0
  188.4940  175.6890  143.5480 C   0  0  0  0  0  0  0  0  0  0  0  0
  189.3160  174.5290  143.9490 C   0  0  0  0  0  2  0  0  0  0  0  0
  187.2830  176.9730  141.8580 C   0  0  0  0  0  3  0  0  0  0  0  0
  189.8790  173.4490  139.7050 C   0  0  0  0  0  0  0  0  0  0  0  0
  190.4040  171.1010  139.1860 C   0  0  0  0  0  3  0  0  0  0  0  0
  189.1830  173.1510  137.3170 C   0  0  0  0  0  3  0  0  0  0  0  0
  189.4360  171.4540  135.6890 N   0  0  0  0  0  1  0  0  0  0  0  0
  189.5240  171.8840  137.0420 C   0  0  0  0  0  0  0  0  0  0  0  0
  189.8020  170.9000  138.0520 N   0  0  0  0  0  0  0  0  0  0  0  0
  190.9640  172.4260  139.5730 C   0  0  0  0  0  2  0  0  0  0  0  0
  189.1360  173.7910  138.6460 C   0  0  0  0  0  3  0  0  0  0  0  0
  191.7920  174.8130  143.9300 C   0  0  1  0  0  3  0  0  0  0  0  0
  192.6410  176.9040  145.0030 C   0  0  0  0  0  3  0  0  0  0  0  0
  192.8800  176.1900  146.3080 C   0  0  1  0  0  3  0  0  0  0  0  0
  192.1030  176.2920  143.9370 C   0  0  0  0  0  3  0  0  0  0  0  0
  191.7320  174.2090  145.3330 C   0  0  0  0  0  2  0  0  0  0  0  0
  192.9390  174.6730  146.1380 C   0  0  0  0  0  2  0  0  0  0  0  0
  194.0480  176.6470  146.8880 F   0  0  0  0  0  0  0  0  0  0  0  0
  1 11  1  0  0  0  0
  2  9  1  0  0  0  0
  3  2  1  0  0  0  0
  3  1  1  0  0  0  0
  4  8  1  0  0  0  0
  5 12  2  0  0  0  0
  7  5  1  0  0  0  0
  8 13  1  0  0  0  0
  9  6  2  0  0  0  0
  9 11  1  0  0  0  0
 10  7  1  0  0  0  0
 10  4  2  0  0  0  0
 12 13  1  0  0  0  0
 12  6  1  0  0  0  0
 14  5  1  0  0  0  0
 14  2  2  0  0  0  0
 15 10  1  0  0  0  0
 16 21  1  0  0  0  0
 17 22  1  0  0  0  0
 18 19  1  0  0  0  0
 19 17  2  0  0  0  0
 19 20  1  0  0  0  0
 20 16  2  0  0  0  0
 21 15  1  0  0  0  0
 22 15  2  0  0  0  0
 23  8  1  1  0  0  0
 23 26  1  0  0  0  0
 23 27  1  0  0  0  0
 24 25  1  0  0  0  0
 25 29  1  6  0  0  0
 26 24  2  0  0  0  0
 27 28  1  0  0  0  0
 28 25  1  0  0  0  0
M  END
>  <MODEL>
7

>  <REMARK>
 VINA RESULT:      -7.5      1.525      1.952
  Name = 
  2 active torsions:
  status: ('A' for Active; 'I' for Inactive)
    1  A    between atoms: C_1  and  N_17
    2  A    between atoms: C_3  and  C_23
                            x       y       z     vdW  Elec       q    Type
                         _______ _______ _______ _____ _____    ______ ____

>  <TORSDO>
F 2

$$$$
=
 OpenBabel11042417263D

 29 33  0  0  1  0  0  0  0  0999 V2000
  190.9810  172.2120  139.8360 C   0  0  0  0  0  2  0  0  0  0  0  0
  189.4400  173.8020  140.3750 C   0  0  0  0  0  0  0  0  0  0  0  0
  189.6470  172.6820  139.5940 O   0  0  0  0  0  0  0  0  0  0  0  0
  187.2410  177.5700  143.5970 N   0  0  0  0  0  0  0  0  0  0  0  0
  188.3220  175.6900  141.3530 C   0  0  0  0  0  0  0  0  0  0  0  0
  190.6400  175.1490  141.9570 C   0  0  0  0  0  3  0  0  0  0  0  0
  187.1430  176.5040  141.4280 N   0  0  0  0  0  2  0  0  0  0  0  0
  188.5250  177.1140  143.9360 N   0  0  0  0  0  0  0  0  0  0  0  0
  190.5600  174.0670  141.0890 C   0  0  0  0  0  0  0  0  0  0  0  0
  186.6420  177.3870  142.4540 C   0  0  0  0  0  0  0  0  0  0  0  0
  191.5280  173.1270  140.7960 O   0  0  0  0  0  0  0  0  0  0  0  0
  189.5040  175.9710  142.0870 C   0  0  0  0  0  0  0  0  0  0  0  0
  189.5950  177.1580  142.9630 C   0  0  0  0  0  2  0  0  0  0  0  0
  188.3000  174.5920  140.4710 C   0  0  0  0  0  3  0  0  0  0  0  0
  185.3250  178.0250  142.2460 C   0  0  0  0  0  0  0  0  0  0  0  0
  183.7550  177.9550  140.3510 C   0  0  0  0  0  3  0  0  0  0  0  0
  183.1260  178.7390  143.2100 C   0  0  0  0  0  3  0  0  0  0  0  0
  181.0030  179.2950  142.3300 N   0  0  0  0  0  1  0  0  0  0  0  0
  182.3010  178.7430  142.1540 C   0  0  0  0  0  0  0  0  0  0  0  0
  182.5910  178.0680  140.9180 N   0  0  0  0  0  0  0  0  0  0  0  0
  184.9830  178.5930  140.9030 C   0  0  0  0  0  2  0  0  0  0  0  0
  184.4840  178.1640  143.2760 C   0  0  0  0  0  3  0  0  0  0  0  0
  188.8710  176.8980  145.3330 C   0  0  1  0  0  3  0  0  0  0  0  0
  189.3120  174.7900  146.6020 C   0  0  0  0  0  3  0  0  0  0  0  0
  190.6290  175.3200  147.1090 C   0  0  1  0  0  3  0  0  0  0  0  0
  188.5370  175.4870  145.7570 C   0  0  0  0  0  3  0  0  0  0  0  0
  190.3330  177.2670  145.5880 C   0  0  0  0  0  2  0  0  0  0  0  0
  190.7260  176.8400  146.9950 C   0  0  0  0  0  2  0  0  0  0  0  0
  190.8190  174.9310  148.4200 F   0  0  0  0  0  0  0  0  0  0  0  0
  1 11  1  0  0  0  0
  2 14  2  0  0  0  0
  2  9  1  0  0  0  0
  3  1  1  0  0  0  0
  3  2  1  0  0  0  0
  4  8  1  0  0  0  0
  5  7  1  0  0  0  0
  5 12  2  0  0  0  0
  6 12  1  0  0  0  0
  7 10  1  0  0  0  0
  9  6  2  0  0  0  0
 10  4  2  0  0  0  0
 11  9  1  0  0  0  0
 12 13  1  0  0  0  0
 13  8  1  0  0  0  0
 14  5  1  0  0  0  0
 15 10  1  0  0  0  0
 15 22  2  0  0  0  0
 16 21  1  0  0  0  0
 16 20  2  0  0  0  0
 17 22  1  0  0  0  0
 19 18  1  0  0  0  0
 19 17  2  0  0  0  0
 20 19  1  0  0  0  0
 21 15  1  0  0  0  0
 23  8  1  6  0  0  0
 23 27  1  0  0  0  0
 23 26  1  0  0  0  0
 24 25  1  0  0  0  0
 25 29  1  1  0  0  0
 26 24  2  0  0  0  0
 27 28  1  0  0  0  0
 28 25  1  0  0  0  0
M  END
>  <MODEL>
8

>  <REMARK>
 VINA RESULT:      -7.5      3.617      6.504
  Name = 
  2 active torsions:
  status: ('A' for Active; 'I' for Inactive)
    1  A    between atoms: C_1  and  N_17
    2  A    between atoms: C_3  and  C_23
                            x       y       z     vdW  Elec       q    Type
                         _______ _______ _______ _____ _____    ______ ____

>  <TORSDO>
F 2

$$$$
=
 OpenBabel11042417263D

 29 33  0  0  1  0  0  0  0  0999 V2000
  182.1670  178.6980  141.0400 C   0  0  0  0  0  2  0  0  0  0  0  0
  183.9980  178.1820  142.2940 C   0  0  0  0  0  0  0  0  0  0  0  0
  182.7060  178.6630  142.3690 O   0  0  0  0  0  0  0  0  0  0  0  0
  188.6530  175.5830  143.2910 N   0  0  0  0  0  0  0  0  0  0  0  0
  186.1770  177.4600  143.0030 C   0  0  0  0  0  0  0  0  0  0  0  0
  185.5520  177.4250  140.6290 C   0  0  0  0  0  3  0  0  0  0  0  0
  187.1080  177.2690  144.0780 N   0  0  0  0  0  2  0  0  0  0  0  0
  188.1570  175.5180  141.9800 N   0  0  0  0  0  0  0  0  0  0  0  0
  184.3060  177.9150  141.0020 C   0  0  0  0  0  0  0  0  0  0  0  0
  188.2640  176.4140  144.2150 C   0  0  0  0  0  0  0  0  0  0  0  0
  183.2240  178.2140  140.1990 O   0  0  0  0  0  0  0  0  0  0  0  0
  186.5000  177.1980  141.6450 C   0  0  0  0  0  0  0  0  0  0  0  0
  187.8470  176.7320  141.2560 C   0  0  0  0  0  2  0  0  0  0  0  0
  184.9070  177.9760  143.3270 C   0  0  0  0  0  3  0  0  0  0  0  0
  188.9710  176.3980  145.5130 C   0  0  0  0  0  0  0  0  0  0  0  0
  190.7220  174.9140  146.4040 C   0  0  0  0  0  3  0  0  0  0  0  0
  190.0130  177.6910  147.3890 C   0  0  0  0  0  3  0  0  0  0  0  0
  191.5670  177.2100  149.1050 N   0  0  0  0  0  1  0  0  0  0  0  0
  190.9250  176.8460  147.8900 C   0  0  0  0  0  0  0  0  0  0  0  0
  191.4110  175.6920  147.1830 N   0  0  0  0  0  0  0  0  0  0  0  0
  189.2580  175.0900  146.1820 C   0  0  0  0  0  2  0  0  0  0  0  0
  189.2740  177.5510  146.1180 C   0  0  0  0  0  3  0  0  0  0  0  0
  188.2510  174.2740  141.2300 C   0  0  1  0  0  3  0  0  0  0  0  0
  188.9290  173.8350  138.8650 C   0  0  0  0  0  3  0  0  0  0  0  0
  189.9400  172.8060  139.3000 C   0  0  1  0  0  3  0  0  0  0  0  0
  188.1960  174.5370  139.7440 C   0  0  0  0  0  3  0  0  0  0  0  0
  189.4910  173.4840  141.6520 C   0  0  0  0  0  2  0  0  0  0  0  0
  189.6790  172.2970  140.7160 C   0  0  0  0  0  2  0  0  0  0  0  0
  189.9460  171.7480  138.4110 F   0  0  0  0  0  0  0  0  0  0  0  0
  1  3  1  0  0  0  0
  2  3  1  0  0  0  0
  2 14  1  0  0  0  0
  4 10  2  0  0  0  0
  5 14  2  0  0  0  0
  5  7  1  0  0  0  0
  6  9  1  0  0  0  0
  6 12  2  0  0  0  0
  7 10  1  0  0  0  0
  8  4  1  0  0  0  0
  9  2  2  0  0  0  0
 10 15  1  0  0  0  0
 11  9  1  0  0  0  0
 11  1  1  0  0  0  0
 12  5  1  0  0  0  0
 13 12  1  0  0  0  0
 13  8  1  0  0  0  0
 15 22  2  0  0  0  0
 15 21  1  0  0  0  0
 16 20  2  0  0  0  0
 17 19  2  0  0  0  0
 19 18  1  0  0  0  0
 20 19  1  0  0  0  0
 21 16  1  0  0  0  0
 22 17  1  0  0  0  0
 23 26  1  6  0  0  0
 23 27  1  0  0  0  0
 23  8  1  0  0  0  0
 24 25  1  0  0  0  0
 24 26  2  0  0  0  0
 25 29  1  6  0  0  0
 25 28  1  0  0  0  0
 28 27  1  0  0  0  0
M  END
>  <MODEL>
9

>  <REMARK>
 VINA RESULT:      -7.4      3.168      6.532
  Name = 
  2 active torsions:
  status: ('A' for Active; 'I' for Inactive)
    1  A    between atoms: C_1  and  N_17
    2  A    between atoms: C_3  and  C_23
                            x       y       z     vdW  Elec       q    Type
                         _______ _______ _______ _____ _____    ______ ____

>  <TORSDO>
F 2

$$$$
