=
 OpenBabel11042419243D

 40 42  0  0  1  0  0  0  0  0999 V2000
  186.9280  177.0420  144.4640 N   0  0  0  0  0  0  0  0  0  0  0  0
  186.3760  177.8890  147.0320 C   0  0  0  0  0  0  0  0  0  0  0  0
  185.6950  177.3870  144.6980 C   0  0  0  0  0  0  0  0  0  0  0  0
  187.8560  176.7250  145.5480 C   0  0  2  0  0  3  0  0  0  0  0  0
  187.5750  177.5200  146.7280 N   0  0  0  0  0  0  0  0  0  0  0  0
  184.1200  178.6030  146.1930 C   0  0  0  0  0  1  0  0  0  0  0  0
  185.2120  177.5420  146.1200 C   0  0  2  0  0  3  0  0  0  0  0  0
  190.2800  176.1900  145.6550 N   0  0  0  0  0  0  0  0  0  0  0  0
  191.4730  176.5120  145.1180 C   0  0  0  0  0  0  0  0  0  0  0  0
  191.3030  177.7000  143.9410 S   0  0  0  0  0  0  0  0  0  0  0  0
  189.2680  176.9160  145.1060 C   0  0  0  0  0  0  0  0  0  0  0  0
  189.6340  177.8330  144.1150 C   0  0  0  0  0  3  0  0  0  0  0  0
  193.3270  176.5060  146.7500 C   0  0  0  0  0  1  0  0  0  0  0  0
  192.7540  175.8480  145.5110 C   0  0  2  0  0  3  0  0  0  0  0  0
  195.9510  176.2890  142.5630 C   0  0  0  0  0  1  0  0  0  0  0  0
  195.4180  172.7410  143.9390 C   0  0  0  0  0  2  0  0  0  0  0  0
  195.2800  175.0370  142.8730 N   0  0  0  0  0  0  0  0  0  0  0  0
  194.2240  173.5230  144.4800 C   0  0  0  0  0  2  0  0  0  0  0  0
  193.7210  175.9290  144.4220 N   0  0  0  0  0  0  0  0  0  0  0  0
  195.9490  173.4950  142.3560 S   0  0  0  0  0  0  0  0  0  0  0  0
  194.3710  174.9060  143.9510 C   0  0  0  0  0  0  0  0  0  0  0  0
  187.2550  179.3550  148.6710 O   0  0  0  0  0  1  0  0  0  0  0  0
  186.1460  178.5730  148.3430 C   0  0  0  0  0  2  0  0  0  0  0  0
  184.8090  177.6050  143.6340 O   0  0  0  0  0  0  0  0  0  0  0  0
  185.0590  178.5520  142.6000 C   0  0  0  0  0  2  0  0  0  0  0  0
  185.3980  177.8440  141.2960 C   0  0  0  0  0  2  0  0  0  0  0  0
  186.8210  177.9650  141.0200 N   0  0  0  0  0  2  0  0  0  0  0  0
  187.2650  176.6800  140.5080 C   0  0  0  0  0  2  0  0  0  0  0  0
  187.5810  175.7520  141.6700 C   0  0  0  0  0  2  0  0  0  0  0  0
  188.9750  175.3390  141.6130 N   0  0  0  0  0  2  0  0  0  0  0  0
  189.1180  174.2030  142.5110 C   0  0  0  0  0  2  0  0  0  0  0  0
  190.7300  173.2070  143.9560 O   0  0  0  0  0  1  0  0  0  0  0  0
  190.5910  173.9180  142.7640 C   0  0  1  0  0  3  0  0  0  0  0  0
  192.4200  173.2440  141.3840 O   0  0  0  0  0  0  0  0  0  0  0  0
  191.1890  173.1420  141.6350 C   0  0  0  0  0  0  0  0  0  0  0  0
  190.3690  172.3000  140.8820 O   0  0  0  0  0  0  0  0  0  0  0  0
  189.5580  173.6610  138.7650 O   0  0  0  0  0  1  0  0  0  0  0  0
  189.4520  171.0480  138.5650 O   0  0  0  0  0  1  0  0  0  0  0  0
  190.2810  172.3940  139.1650 P   0  0  0  0  0  0  0  0  0  0  0  0
  191.8450  172.4190  138.5250 O   0  0  0  0  0  0  0  0  0  0  0  0
  1  3  2  0  0  0  0
  1  4  1  0  0  0  0
  2 23  1  0  0  0  0
  3  7  1  0  0  0  0
  4 11  1  6  0  0  0
  4  5  1  0  0  0  0
  5  2  2  0  0  0  0
  7  6  1  6  0  0  0
  7  2  1  0  0  0  0
  9 14  1  0  0  0  0
  9  8  2  0  0  0  0
 10 12  1  0  0  0  0
 10  9  1  0  0  0  0
 11  8  1  0  0  0  0
 12 11  2  0  0  0  0
 14 13  1  1  0  0  0
 15 17  1  0  0  0  0
 16 18  1  0  0  0  0
 17 21  1  0  0  0  0
 19 14  1  0  0  0  0
 20 17  1  0  0  0  0
 20 16  1  0  0  0  0
 21 19  2  0  0  0  0
 21 18  1  0  0  0  0
 23 22  1  0  0  0  0
 24  3  1  0  0  0  0
 25 24  1  0  0  0  0
 26 25  1  0  0  0  0
 27 26  1  0  0  0  0
 28 27  1  0  0  0  0
 28 29  1  0  0  0  0
 30 29  1  0  0  0  0
 30 31  1  0  0  0  0
 31 33  1  0  0  0  0
 33 32  1  1  0  0  0
 34 35  2  0  0  0  0
 35 33  1  0  0  0  0
 36 35  1  0  0  0  0
 37 39  1  0  0  0  0
 38 39  1  0  0  0  0
 39 36  1  0  0  0  0
 40 39  2  0  0  0  0
M  END
>  <MODEL>
1

>  <REMARK>
 VINA RESULT:      -5.8      0.000      0.000
  Name = 
  16 active torsions:
  status: ('A' for Active; 'I' for Inactive)
    1  A    between atoms: C_3  and  N_20
    2  A    between atoms: C_3  and  C_39
    3  A    between atoms: C_9  and  C_40
    4  A    between atoms: CA_10  and  C_22
    5  A    between atoms: C_11  and  C_18
    6  A    between atoms: C_11  and  C_19
    7  A    between atoms: O_13  and  C_18
    8  A    between atoms: O_13  and  P_29
    9  A    between atoms: N_17  and  C_19
   10  A    between atoms: N_17  and  C_34
   11  A    between atoms: N_20  and  C_32
   12  A    between atoms: C_23  and  O_36
   13  A    between atoms: C_24  and  C_25
   14  A    between atoms: N_30  and  C_40
   15  A    between atoms: C_32  and  C_34
   16  A    between atoms: O_36  and  C_39
                            x       y       z     vdW  Elec       q    Type
                         _______ _______ _______ _____ _____    ______ ____

>  <TORSDO>
F 16

$$$$
=
 OpenBabel11042419243D

 40 42  0  0  1  0  0  0  0  0999 V2000
  187.1680  177.0540  144.4730 N   0  0  0  0  0  0  0  0  0  0  0  0
  186.5600  177.9840  146.9990 C   0  0  0  0  0  0  0  0  0  0  0  0
  185.9280  177.3930  144.6720 C   0  0  0  0  0  0  0  0  0  0  0  0
  188.0790  176.7850  145.5840 C   0  0  2  0  0  3  0  0  0  0  0  0
  187.7680  177.6170  146.7300 N   0  0  0  0  0  0  0  0  0  0  0  0
  184.3140  178.6440  146.0950 C   0  0  0  0  0  1  0  0  0  0  0  0
  185.4170  177.5930  146.0780 C   0  0  2  0  0  3  0  0  0  0  0  0
  190.5090  176.3010  145.7730 N   0  0  0  0  0  0  0  0  0  0  0  0
  191.7080  176.6140  145.2430 C   0  0  0  0  0  0  0  0  0  0  0  0
  191.5440  177.7280  143.9960 S   0  0  0  0  0  0  0  0  0  0  0  0
  189.4970  176.9760  145.1610 C   0  0  0  0  0  0  0  0  0  0  0  0
  189.8690  177.8400  144.1260 C   0  0  0  0  0  3  0  0  0  0  0  0
  193.5130  176.7210  146.9270 C   0  0  0  0  0  1  0  0  0  0  0  0
  192.9910  175.9970  145.7010 C   0  0  2  0  0  3  0  0  0  0  0  0
  196.1170  176.5820  142.7020 C   0  0  0  0  0  1  0  0  0  0  0  0
  196.9070  174.0380  145.4720 C   0  0  0  0  0  2  0  0  0  0  0  0
  195.9890  175.4030  143.5430 N   0  0  0  0  0  0  0  0  0  0  0  0
  195.4300  174.3600  145.6840 C   0  0  0  0  0  2  0  0  0  0  0  0
  193.9880  176.0530  144.6380 N   0  0  0  0  0  0  0  0  0  0  0  0
  197.3060  174.2480  143.6960 S   0  0  0  0  0  0  0  0  0  0  0  0
  195.0660  175.3270  144.6150 C   0  0  0  0  0  0  0  0  0  0  0  0
  187.4830  179.2780  148.7540 O   0  0  0  0  0  1  0  0  0  0  0  0
  186.2990  178.7110  148.2810 C   0  0  0  0  0  2  0  0  0  0  0  0
  185.0590  177.5650  143.5850 O   0  0  0  0  0  0  0  0  0  0  0  0
  185.4200  177.2360  142.2470 C   0  0  0  0  0  2  0  0  0  0  0  0
  186.2920  178.3280  141.6440 C   0  0  0  0  0  2  0  0  0  0  0  0
  187.5180  177.7500  141.1160 N   0  0  0  0  0  2  0  0  0  0  0  0
  187.1300  176.6740  140.2200 C   0  0  0  0  0  2  0  0  0  0  0  0
  187.9790  175.4460  140.5030 C   0  0  0  0  0  2  0  0  0  0  0  0
  188.6870  175.6080  141.7630 N   0  0  0  0  0  2  0  0  0  0  0  0
  188.6140  174.3330  142.4600 C   0  0  0  0  0  2  0  0  0  0  0  0
  190.9820  174.5910  142.4090 O   0  0  0  0  0  1  0  0  0  0  0  0
  189.9650  173.6360  142.4180 C   0  0  1  0  0  3  0  0  0  0  0  0
  189.8260  173.1190  144.7470 O   0  0  0  0  0  0  0  0  0  0  0  0
  190.1340  172.7230  143.5890 C   0  0  0  0  0  0  0  0  0  0  0  0
  190.6190  171.4320  143.3780 O   0  0  0  0  0  0  0  0  0  0  0  0
  192.6290  169.9880  144.3100 O   0  0  0  0  0  1  0  0  0  0  0  0
  193.1890  172.4720  143.6840 O   0  0  0  0  0  1  0  0  0  0  0  0
  192.3040  171.0800  143.3140 P   0  0  0  0  0  0  0  0  0  0  0  0
  192.7080  170.5550  141.7600 O   0  0  0  0  0  0  0  0  0  0  0  0
  1  3  2  0  0  0  0
  1  4  1  0  0  0  0
  2 23  1  0  0  0  0
  3  7  1  0  0  0  0
  4 11  1  6  0  0  0
  4  5  1  0  0  0  0
  5  2  2  0  0  0  0
  7  6  1  6  0  0  0
  7  2  1  0  0  0  0
  9 14  1  0  0  0  0
  9  8  2  0  0  0  0
 10 12  1  0  0  0  0
 10  9  1  0  0  0  0
 11  8  1  0  0  0  0
 12 11  2  0  0  0  0
 14 13  1  1  0  0  0
 15 17  1  0  0  0  0
 16 18  1  0  0  0  0
 17 20  1  0  0  0  0
 17 21  1  0  0  0  0
 19 14  1  0  0  0  0
 20 16  1  0  0  0  0
 21 19  2  0  0  0  0
 21 18  1  0  0  0  0
 23 22  1  0  0  0  0
 24  3  1  0  0  0  0
 25 24  1  0  0  0  0
 26 25  1  0  0  0  0
 27 26  1  0  0  0  0
 28 29  1  0  0  0  0
 28 27  1  0  0  0  0
 29 30  1  0  0  0  0
 30 31  1  0  0  0  0
 33 32  1  1  0  0  0
 33 31  1  0  0  0  0
 33 35  1  0  0  0  0
 35 34  2  0  0  0  0
 36 35  1  0  0  0  0
 39 36  1  0  0  0  0
 39 38  1  0  0  0  0
 39 37  1  0  0  0  0
 40 39  2  0  0  0  0
M  END
>  <MODEL>
2

>  <REMARK>
 VINA RESULT:      -5.7      1.690      2.192
  Name = 
  16 active torsions:
  status: ('A' for Active; 'I' for Inactive)
    1  A    between atoms: C_3  and  N_20
    2  A    between atoms: C_3  and  C_39
    3  A    between atoms: C_9  and  C_40
    4  A    between atoms: CA_10  and  C_22
    5  A    between atoms: C_11  and  C_18
    6  A    between atoms: C_11  and  C_19
    7  A    between atoms: O_13  and  C_18
    8  A    between atoms: O_13  and  P_29
    9  A    between atoms: N_17  and  C_19
   10  A    between atoms: N_17  and  C_34
   11  A    between atoms: N_20  and  C_32
   12  A    between atoms: C_23  and  O_36
   13  A    between atoms: C_24  and  C_25
   14  A    between atoms: N_30  and  C_40
   15  A    between atoms: C_32  and  C_34
   16  A    between atoms: O_36  and  C_39
                            x       y       z     vdW  Elec       q    Type
                         _______ _______ _______ _____ _____    ______ ____

>  <TORSDO>
F 16

$$$$
=
 OpenBabel11042419243D

 40 42  0  0  1  0  0  0  0  0999 V2000
  187.6530  177.2050  143.4520 N   0  0  0  0  0  0  0  0  0  0  0  0
  185.3290  178.0290  142.2130 C   0  0  0  0  0  0  0  0  0  0  0  0
  186.8180  177.8740  144.1930 C   0  0  0  0  0  0  0  0  0  0  0  0
  187.5810  177.2370  141.9920 C   0  0  2  0  0  3  0  0  0  0  0  0
  186.2100  177.3700  141.5370 N   0  0  0  0  0  0  0  0  0  0  0  0
  184.4870  178.6970  144.4810 C   0  0  0  0  0  1  0  0  0  0  0  0
  185.6930  178.6490  143.5500 C   0  0  2  0  0  3  0  0  0  0  0  0
  187.7620  175.4840  140.2420 N   0  0  0  0  0  0  0  0  0  0  0  0
  188.4710  174.3950  139.8850 C   0  0  0  0  0  0  0  0  0  0  0  0
  189.6880  174.0760  140.9990 S   0  0  0  0  0  0  0  0  0  0  0  0
  188.2170  176.0220  141.4060 C   0  0  0  0  0  0  0  0  0  0  0  0
  189.3040  175.3730  142.0020 C   0  0  0  0  0  3  0  0  0  0  0  0
  188.6070  172.1710  138.8180 C   0  0  0  0  0  1  0  0  0  0  0  0
  188.2090  173.6220  138.6320 C   0  0  2  0  0  3  0  0  0  0  0  0
  190.3820  174.9220  135.0690 C   0  0  0  0  0  1  0  0  0  0  0  0
  186.8120  176.2920  135.4480 C   0  0  0  0  0  2  0  0  0  0  0  0
  189.2490  175.6260  135.6490 N   0  0  0  0  0  0  0  0  0  0  0  0
  187.0830  175.6100  136.7860 C   0  0  0  0  0  2  0  0  0  0  0  0
  188.9550  174.1950  137.5180 N   0  0  0  0  0  0  0  0  0  0  0  0
  188.4020  176.8780  134.7520 S   0  0  0  0  0  0  0  0  0  0  0  0
  188.4710  175.0820  136.7000 C   0  0  0  0  0  0  0  0  0  0  0  0
  184.0410  178.0500  140.2250 O   0  0  0  0  0  1  0  0  0  0  0  0
  183.9790  178.2520  141.6050 C   0  0  0  0  0  2  0  0  0  0  0  0
  186.9650  177.8870  145.5870 O   0  0  0  0  0  0  0  0  0  0  0  0
  186.8570  176.7130  146.3870 C   0  0  0  0  0  2  0  0  0  0  0  0
  188.2380  176.1810  146.7440 C   0  0  0  0  0  2  0  0  0  0  0  0
  189.1250  177.2840  147.0750 N   0  0  0  0  0  2  0  0  0  0  0  0
  190.4810  176.8360  146.8020 C   0  0  0  0  0  2  0  0  0  0  0  0
  190.4720  175.8830  145.6180 C   0  0  0  0  0  2  0  0  0  0  0  0
  191.8160  175.7470  145.0790 N   0  0  0  0  0  2  0  0  0  0  0  0
  192.7120  176.4470  145.9860 C   0  0  0  0  0  2  0  0  0  0  0  0
  194.7550  177.6690  146.0910 O   0  0  0  0  0  1  0  0  0  0  0  0
  193.9700  176.8790  145.2490 C   0  0  1  0  0  3  0  0  0  0  0  0
  195.2250  174.8810  145.6250 O   0  0  0  0  0  0  0  0  0  0  0  0
  194.7540  175.6950  144.7840 C   0  0  0  0  0  0  0  0  0  0  0  0
  194.9380  175.5000  143.4140 O   0  0  0  0  0  0  0  0  0  0  0  0
  197.0210  177.1280  143.4250 O   0  0  0  0  0  1  0  0  0  0  0  0
  195.8590  176.7610  141.1030 O   0  0  0  0  0  0  0  0  0  0  0  0
  196.3270  176.0830  142.5800 P   0  0  0  0  0  0  0  0  0  0  0  0
  197.3890  174.8000  142.2960 O   0  0  0  0  0  1  0  0  0  0  0  0
  1  3  2  0  0  0  0
  2  7  1  0  0  0  0
  3 24  1  0  0  0  0
  4 11  1  6  0  0  0
  4  1  1  0  0  0  0
  5  4  1  0  0  0  0
  5  2  2  0  0  0  0
  7  3  1  0  0  0  0
  7  6  1  1  0  0  0
  8 11  1  0  0  0  0
  9  8  2  0  0  0  0
  9 10  1  0  0  0  0
 10 12  1  0  0  0  0
 11 12  2  0  0  0  0
 14 13  1  1  0  0  0
 14  9  1  0  0  0  0
 15 17  1  0  0  0  0
 16 18  1  0  0  0  0
 17 21  1  0  0  0  0
 19 14  1  0  0  0  0
 20 16  1  0  0  0  0
 20 17  1  0  0  0  0
 21 18  1  0  0  0  0
 21 19  2  0  0  0  0
 22 23  1  0  0  0  0
 23  2  1  0  0  0  0
 24 25  1  0  0  0  0
 25 26  1  0  0  0  0
 26 27  1  0  0  0  0
 28 27  1  0  0  0  0
 29 28  1  0  0  0  0
 30 29  1  0  0  0  0
 30 31  1  0  0  0  0
 33 31  1  0  0  0  0
 33 32  1  1  0  0  0
 35 33  1  0  0  0  0
 35 34  2  0  0  0  0
 36 35  1  0  0  0  0
 38 39  2  0  0  0  0
 39 36  1  0  0  0  0
 39 37  1  0  0  0  0
 40 39  1  0  0  0  0
M  END
>  <MODEL>
3

>  <REMARK>
 VINA RESULT:      -5.6      3.889      6.961
  Name = 
  16 active torsions:
  status: ('A' for Active; 'I' for Inactive)
    1  A    between atoms: C_3  and  N_20
    2  A    between atoms: C_3  and  C_39
    3  A    between atoms: C_9  and  C_40
    4  A    between atoms: CA_10  and  C_22
    5  A    between atoms: C_11  and  C_18
    6  A    between atoms: C_11  and  C_19
    7  A    between atoms: O_13  and  C_18
    8  A    between atoms: O_13  and  P_29
    9  A    between atoms: N_17  and  C_19
   10  A    between atoms: N_17  and  C_34
   11  A    between atoms: N_20  and  C_32
   12  A    between atoms: C_23  and  O_36
   13  A    between atoms: C_24  and  C_25
   14  A    between atoms: N_30  and  C_40
   15  A    between atoms: C_32  and  C_34
   16  A    between atoms: O_36  and  C_39
                            x       y       z     vdW  Elec       q    Type
                         _______ _______ _______ _____ _____    ______ ____

>  <TORSDO>
F 16

$$$$
=
 OpenBabel11042419243D

 40 42  0  0  1  0  0  0  0  0999 V2000
  190.9110  172.3000  141.6580 N   0  0  0  0  0  0  0  0  0  0  0  0
  189.1290  172.9240  139.6460 C   0  0  0  0  0  0  0  0  0  0  0  0
  191.2210  171.8710  140.4690 C   0  0  0  0  0  0  0  0  0  0  0  0
  189.5500  172.7120  141.9970 C   0  0  2  0  0  3  0  0  0  0  0  0
  188.8830  173.3060  140.8540 N   0  0  0  0  0  0  0  0  0  0  0  0
  190.8380  172.0700  138.0180 C   0  0  0  0  0  1  0  0  0  0  0  0
  190.1790  171.8610  139.3760 C   0  0  2  0  0  3  0  0  0  0  0  0
  189.1640  174.9480  143.0070 N   0  0  0  0  0  0  0  0  0  0  0  0
  189.2420  175.6270  144.1690 C   0  0  0  0  0  0  0  0  0  0  0  0
  189.7910  174.6360  145.4110 S   0  0  0  0  0  0  0  0  0  0  0  0
  189.5570  173.6530  143.1540 C   0  0  0  0  0  0  0  0  0  0  0  0
  189.9530  173.2700  144.4400 C   0  0  0  0  0  3  0  0  0  0  0  0
  190.0490  177.9100  144.6610 C   0  0  0  0  0  1  0  0  0  0  0  0
  188.8430  177.0610  144.3070 C   0  0  2  0  0  3  0  0  0  0  0  0
  186.0800  177.8070  147.6120 C   0  0  0  0  0  1  0  0  0  0  0  0
  185.1960  179.4950  144.2750 C   0  0  0  0  0  2  0  0  0  0  0  0
  185.7410  177.9440  146.2040 N   0  0  0  0  0  0  0  0  0  0  0  0
  186.3460  178.5580  143.9140 C   0  0  0  0  0  2  0  0  0  0  0  0
  187.8230  177.2060  145.3400 N   0  0  0  0  0  0  0  0  0  0  0  0
  184.2850  178.7890  145.6980 S   0  0  0  0  0  0  0  0  0  0  0  0
  186.7110  177.8580  145.1750 C   0  0  0  0  0  0  0  0  0  0  0  0
  187.9300  174.7920  138.8210 O   0  0  0  0  0  1  0  0  0  0  0  0
  188.2910  173.4750  138.5340 C   0  0  0  0  0  2  0  0  0  0  0  0
  192.5160  171.4070  140.2000 O   0  0  0  0  0  0  0  0  0  0  0  0
  193.6870  172.1440  140.5390 C   0  0  0  0  0  2  0  0  0  0  0  0
  194.0810  173.0750  139.4010 C   0  0  0  0  0  2  0  0  0  0  0  0
  193.6230  174.4260  139.6840 N   0  0  0  0  0  2  0  0  0  0  0  0
  194.1910  174.8090  140.9650 C   0  0  0  0  0  2  0  0  0  0  0  0
  194.5670  176.2810  140.9350 C   0  0  0  0  0  2  0  0  0  0  0  0
  195.9710  176.4450  141.2750 N   0  0  0  0  0  2  0  0  0  0  0  0
  196.4240  175.1800  141.8340 C   0  0  0  0  0  2  0  0  0  0  0  0
  197.2740  176.7930  143.3670 O   0  0  0  0  0  1  0  0  0  0  0  0
  197.1840  175.4210  143.1290 C   0  0  1  0  0  3  0  0  0  0  0  0
  197.1850  174.3930  145.2850 O   0  0  0  0  0  0  0  0  0  0  0  0
  196.5100  174.7480  144.2800 C   0  0  0  0  0  0  0  0  0  0  0  0
  195.1320  174.5350  144.2290 O   0  0  0  0  0  0  0  0  0  0  0  0
  193.3840  174.8320  146.1900 O   0  0  0  0  0  1  0  0  0  0  0  0
  192.8070  176.0480  143.9400 O   0  0  0  0  0  0  0  0  0  0  0  0
  194.0100  175.5690  145.0270 P   0  0  0  0  0  0  0  0  0  0  0  0
  194.8200  176.9350  145.6030 O   0  0  0  0  0  1  0  0  0  0  0  0
  1  4  1  0  0  0  0
  2  5  2  0  0  0  0
  3  1  2  0  0  0  0
  4 11  1  1  0  0  0
  5  4  1  0  0  0  0
  7  6  1  6  0  0  0
  7  2  1  0  0  0  0
  7  3  1  0  0  0  0
  8 11  1  0  0  0  0
  8  9  2  0  0  0  0
  9 14  1  0  0  0  0
  9 10  1  0  0  0  0
 11 12  2  0  0  0  0
 12 10  1  0  0  0  0
 14 13  1  1  0  0  0
 14 19  1  0  0  0  0
 16 20  1  0  0  0  0
 17 15  1  0  0  0  0
 18 16  1  0  0  0  0
 18 21  1  0  0  0  0
 20 17  1  0  0  0  0
 21 19  2  0  0  0  0
 21 17  1  0  0  0  0
 23 22  1  0  0  0  0
 23  2  1  0  0  0  0
 24  3  1  0  0  0  0
 24 25  1  0  0  0  0
 26 27  1  0  0  0  0
 26 25  1  0  0  0  0
 27 28  1  0  0  0  0
 29 28  1  0  0  0  0
 29 30  1  0  0  0  0
 30 31  1  0  0  0  0
 31 33  1  0  0  0  0
 33 32  1  1  0  0  0
 33 35  1  0  0  0  0
 35 34  2  0  0  0  0
 36 35  1  0  0  0  0
 36 39  1  0  0  0  0
 38 39  2  0  0  0  0
 39 40  1  0  0  0  0
 39 37  1  0  0  0  0
M  END
>  <MODEL>
4

>  <REMARK>
 VINA RESULT:      -5.4      3.337      8.285
  Name = 
  16 active torsions:
  status: ('A' for Active; 'I' for Inactive)
    1  A    between atoms: C_3  and  N_20
    2  A    between atoms: C_3  and  C_39
    3  A    between atoms: C_9  and  C_40
    4  A    between atoms: CA_10  and  C_22
    5  A    between atoms: C_11  and  C_18
    6  A    between atoms: C_11  and  C_19
    7  A    between atoms: O_13  and  C_18
    8  A    between atoms: O_13  and  P_29
    9  A    between atoms: N_17  and  C_19
   10  A    between atoms: N_17  and  C_34
   11  A    between atoms: N_20  and  C_32
   12  A    between atoms: C_23  and  O_36
   13  A    between atoms: C_24  and  C_25
   14  A    between atoms: N_30  and  C_40
   15  A    between atoms: C_32  and  C_34
   16  A    between atoms: O_36  and  C_39
                            x       y       z     vdW  Elec       q    Type
                         _______ _______ _______ _____ _____    ______ ____

>  <TORSDO>
F 16

$$$$
=
 OpenBabel11042419243D

 40 42  0  0  1  0  0  0  0  0999 V2000
  190.1660  174.8090  144.6290 N   0  0  0  0  0  0  0  0  0  0  0  0
  192.6560  173.7260  145.1210 C   0  0  0  0  0  0  0  0  0  0  0  0
  190.8820  175.4130  145.5330 C   0  0  0  0  0  0  0  0  0  0  0  0
  190.4590  173.4420  144.2030 C   0  0  2  0  0  3  0  0  0  0  0  0
  191.8840  173.1740  144.2460 N   0  0  0  0  0  0  0  0  0  0  0  0
  193.1460  175.7610  146.5060 C   0  0  0  0  0  1  0  0  0  0  0  0
  192.0950  174.7290  146.1150 C   0  0  2  0  0  3  0  0  0  0  0  0
  190.6660  172.5700  141.8860 N   0  0  0  0  0  0  0  0  0  0  0  0
  189.9910  172.4340  140.7280 C   0  0  0  0  0  0  0  0  0  0  0  0
  188.4380  173.0640  140.8580 S   0  0  0  0  0  0  0  0  0  0  0  0
  189.9140  173.1860  142.8390 C   0  0  0  0  0  0  0  0  0  0  0  0
  188.6170  173.5510  142.4600 C   0  0  0  0  0  3  0  0  0  0  0  0
  190.8890  170.3160  139.8280 C   0  0  0  0  0  1  0  0  0  0  0  0
  190.5630  171.7640  139.5200 C   0  0  2  0  0  3  0  0  0  0  0  0
  194.2980  173.4320  137.9790 C   0  0  0  0  0  1  0  0  0  0  0  0
  191.0900  174.5830  136.2040 C   0  0  0  0  0  2  0  0  0  0  0  0
  192.9870  174.0320  137.7930 N   0  0  0  0  0  0  0  0  0  0  0  0
  190.5770  173.8200  137.4220 C   0  0  0  0  0  2  0  0  0  0  0  0
  191.7710  172.4550  139.0820 N   0  0  0  0  0  0  0  0  0  0  0  0
  192.7280  175.3010  136.6040 S   0  0  0  0  0  0  0  0  0  0  0  0
  191.7880  173.3730  138.1620 C   0  0  0  0  0  0  0  0  0  0  0  0
  194.1600  172.0380  145.8280 O   0  0  0  0  0  1  0  0  0  0  0  0
  194.0830  173.2830  145.2010 C   0  0  0  0  0  2  0  0  0  0  0  0
  190.5240  176.6940  145.9770 O   0  0  0  0  0  0  0  0  0  0  0  0
  189.9780  177.6870  145.1150 C   0  0  0  0  0  2  0  0  0  0  0  0
  190.8750  177.8970  143.9040 C   0  0  0  0  0  2  0  0  0  0  0  0
  190.0670  178.2030  142.7340 N   0  0  0  0  0  2  0  0  0  0  0  0
  188.8940  177.3470  142.7920 C   0  0  0  0  0  2  0  0  0  0  0  0
  188.0070  177.6190  141.5890 C   0  0  0  0  0  2  0  0  0  0  0  0
  186.9050  176.6700  141.5570 N   0  0  0  0  0  2  0  0  0  0  0  0
  186.1290  176.8770  142.7710 C   0  0  0  0  0  2  0  0  0  0  0  0
  184.1340  177.9170  141.9880 O   0  0  0  0  0  1  0  0  0  0  0  0
  185.3280  178.1650  142.6660 C   0  0  1  0  0  3  0  0  0  0  0  0
  183.8860  179.1690  144.2850 O   0  0  0  0  0  0  0  0  0  0  0  0
  185.0380  178.7280  144.0190 C   0  0  0  0  0  0  0  0  0  0  0  0
  186.0520  178.7430  144.9790 O   0  0  0  0  0  0  0  0  0  0  0  0
  187.2630  177.7640  147.1150 O   0  0  0  0  0  1  0  0  0  0  0  0
  185.1640  176.4370  146.2720 O   0  0  0  0  0  0  0  0  0  0  0  0
  185.8950  177.9450  146.4970 P   0  0  0  0  0  0  0  0  0  0  0  0
  184.9380  178.8830  147.5260 O   0  0  0  0  0  1  0  0  0  0  0  0
  1  3  2  0  0  0  0
  2 23  1  0  0  0  0
  2  7  1  0  0  0  0
  3 24  1  0  0  0  0
  3  7  1  0  0  0  0
  4 11  1  6  0  0  0
  4  5  1  0  0  0  0
  4  1  1  0  0  0  0
  5  2  2  0  0  0  0
  7  6  1  6  0  0  0
  8 11  1  0  0  0  0
  9 10  1  0  0  0  0
  9  8  2  0  0  0  0
 10 12  1  0  0  0  0
 12 11  2  0  0  0  0
 14 13  1  1  0  0  0
 14  9  1  0  0  0  0
 16 20  1  0  0  0  0
 16 18  1  0  0  0  0
 17 15  1  0  0  0  0
 17 21  1  0  0  0  0
 18 21  1  0  0  0  0
 19 14  1  0  0  0  0
 20 17  1  0  0  0  0
 21 19  2  0  0  0  0
 23 22  1  0  0  0  0
 25 24  1  0  0  0  0
 26 25  1  0  0  0  0
 27 28  1  0  0  0  0
 27 26  1  0  0  0  0
 29 28  1  0  0  0  0
 30 29  1  0  0  0  0
 30 31  1  0  0  0  0
 33 32  1  1  0  0  0
 33 31  1  0  0  0  0
 33 35  1  0  0  0  0
 35 34  2  0  0  0  0
 35 36  1  0  0  0  0
 36 39  1  0  0  0  0
 38 39  2  0  0  0  0
 39 37  1  0  0  0  0
 39 40  1  0  0  0  0
M  END
>  <MODEL>
5

>  <REMARK>
 VINA RESULT:      -5.4      3.981      7.374
  Name = 
  16 active torsions:
  status: ('A' for Active; 'I' for Inactive)
    1  A    between atoms: C_3  and  N_20
    2  A    between atoms: C_3  and  C_39
    3  A    between atoms: C_9  and  C_40
    4  A    between atoms: CA_10  and  C_22
    5  A    between atoms: C_11  and  C_18
    6  A    between atoms: C_11  and  C_19
    7  A    between atoms: O_13  and  C_18
    8  A    between atoms: O_13  and  P_29
    9  A    between atoms: N_17  and  C_19
   10  A    between atoms: N_17  and  C_34
   11  A    between atoms: N_20  and  C_32
   12  A    between atoms: C_23  and  O_36
   13  A    between atoms: C_24  and  C_25
   14  A    between atoms: N_30  and  C_40
   15  A    between atoms: C_32  and  C_34
   16  A    between atoms: O_36  and  C_39
                            x       y       z     vdW  Elec       q    Type
                         _______ _______ _______ _____ _____    ______ ____

>  <TORSDO>
F 16

$$$$
=
 OpenBabel11042419243D

 40 42  0  0  1  0  0  0  0  0999 V2000
  194.8810  176.1890  144.4210 N   0  0  0  0  0  0  0  0  0  0  0  0
  195.0700  173.5290  145.1280 C   0  0  0  0  0  0  0  0  0  0  0  0
  196.0130  175.6070  144.1510 C   0  0  0  0  0  0  0  0  0  0  0  0
  193.9370  175.6260  145.3840 C   0  0  2  0  0  3  0  0  0  0  0  0
  193.9810  174.1760  145.3750 N   0  0  0  0  0  0  0  0  0  0  0  0
  197.2290  173.4570  143.8490 C   0  0  0  0  0  1  0  0  0  0  0  0
  196.3460  174.2770  144.7820 C   0  0  2  0  0  3  0  0  0  0  0  0
  191.5530  175.9240  146.0180 N   0  0  0  0  0  0  0  0  0  0  0  0
  190.3860  176.4390  145.5850 C   0  0  0  0  0  0  0  0  0  0  0  0
  190.5650  177.1540  144.0750 S   0  0  0  0  0  0  0  0  0  0  0  0
  192.5540  176.1140  145.1140 C   0  0  0  0  0  0  0  0  0  0  0  0
  192.2040  176.7910  143.9410 C   0  0  0  0  0  3  0  0  0  0  0  0
  188.9330  175.0260  146.9980 C   0  0  0  0  0  1  0  0  0  0  0  0
  189.1260  176.4010  146.3900 C   0  0  2  0  0  3  0  0  0  0  0  0
  185.5500  176.9350  143.9330 C   0  0  0  0  0  1  0  0  0  0  0  0
  185.3750  178.3890  147.4850 C   0  0  0  0  0  2  0  0  0  0  0  0
  185.8900  177.7530  145.0860 N   0  0  0  0  0  0  0  0  0  0  0  0
  186.8390  177.9880  147.3290 C   0  0  0  0  0  2  0  0  0  0  0  0
  187.9790  176.7310  145.5510 N   0  0  0  0  0  0  0  0  0  0  0  0
  184.6990  178.8080  145.8350 S   0  0  0  0  0  0  0  0  0  0  0  0
  186.9660  177.4390  145.9530 C   0  0  0  0  0  0  0  0  0  0  0  0
  196.0120  171.6690  146.2510 O   0  0  0  0  0  1  0  0  0  0  0  0
  195.0730  172.0410  145.2880 C   0  0  0  0  0  2  0  0  0  0  0  0
  196.9310  176.2160  143.2830 O   0  0  0  0  0  0  0  0  0  0  0  0
  196.5750  176.6890  141.9880 C   0  0  0  0  0  2  0  0  0  0  0  0
  197.0350  175.7110  140.9160 C   0  0  0  0  0  2  0  0  0  0  0  0
  196.0670  175.6720  139.8310 N   0  0  0  0  0  2  0  0  0  0  0  0
  194.7470  175.7390  140.4370 C   0  0  0  0  0  2  0  0  0  0  0  0
  193.8490  174.6830  139.8140 C   0  0  0  0  0  2  0  0  0  0  0  0
  194.0080  173.4180  140.5120 N   0  0  0  0  0  2  0  0  0  0  0  0
  193.4320  173.5870  141.8370 C   0  0  0  0  0  2  0  0  0  0  0  0
  192.5300  171.6440  142.8800 O   0  0  0  0  0  1  0  0  0  0  0  0
  192.2200  172.6830  142.0010 C   0  0  1  0  0  3  0  0  0  0  0  0
  190.7690  173.4350  143.7440 O   0  0  0  0  0  0  0  0  0  0  0  0
  191.0440  173.4500  142.5130 C   0  0  0  0  0  0  0  0  0  0  0  0
  190.2730  174.1890  141.6140 O   0  0  0  0  0  0  0  0  0  0  0  0
  189.4050  172.2680  140.0170 O   0  0  0  0  0  1  0  0  0  0  0  0
  188.3310  174.6330  139.6630 O   0  0  0  0  0  0  0  0  0  0  0  0
  188.9450  173.5030  140.7600 P   0  0  0  0  0  0  0  0  0  0  0  0
  187.7340  173.0730  141.8580 O   0  0  0  0  0  1  0  0  0  0  0  0
  1  4  1  0  0  0  0
  2 23  1  0  0  0  0
  2  5  2  0  0  0  0
  3  1  2  0  0  0  0
  3  7  1  0  0  0  0
  4 11  1  6  0  0  0
  5  4  1  0  0  0  0
  7  6  1  6  0  0  0
  7  2  1  0  0  0  0
  9  8  2  0  0  0  0
  9 14  1  0  0  0  0
 10  9  1  0  0  0  0
 11  8  1  0  0  0  0
 12 10  1  0  0  0  0
 12 11  2  0  0  0  0
 14 13  1  6  0  0  0
 15 17  1  0  0  0  0
 17 20  1  0  0  0  0
 17 21  1  0  0  0  0
 18 16  1  0  0  0  0
 19 21  2  0  0  0  0
 19 14  1  0  0  0  0
 20 16  1  0  0  0  0
 21 18  1  0  0  0  0
 23 22  1  0  0  0  0
 24  3  1  0  0  0  0
 25 24  1  0  0  0  0
 26 25  1  0  0  0  0
 27 28  1  0  0  0  0
 27 26  1  0  0  0  0
 29 28  1  0  0  0  0
 29 30  1  0  0  0  0
 30 31  1  0  0  0  0
 31 33  1  0  0  0  0
 33 35  1  0  0  0  0
 33 32  1  1  0  0  0
 35 34  2  0  0  0  0
 36 35  1  0  0  0  0
 37 39  1  0  0  0  0
 38 39  2  0  0  0  0
 39 36  1  0  0  0  0
 39 40  1  0  0  0  0
M  END
>  <MODEL>
6

>  <REMARK>
 VINA RESULT:      -5.4      2.719      7.888
  Name = 
  16 active torsions:
  status: ('A' for Active; 'I' for Inactive)
    1  A    between atoms: C_3  and  N_20
    2  A    between atoms: C_3  and  C_39
    3  A    between atoms: C_9  and  C_40
    4  A    between atoms: CA_10  and  C_22
    5  A    between atoms: C_11  and  C_18
    6  A    between atoms: C_11  and  C_19
    7  A    between atoms: O_13  and  C_18
    8  A    between atoms: O_13  and  P_29
    9  A    between atoms: N_17  and  C_19
   10  A    between atoms: N_17  and  C_34
   11  A    between atoms: N_20  and  C_32
   12  A    between atoms: C_23  and  O_36
   13  A    between atoms: C_24  and  C_25
   14  A    between atoms: N_30  and  C_40
   15  A    between atoms: C_32  and  C_34
   16  A    between atoms: O_36  and  C_39
                            x       y       z     vdW  Elec       q    Type
                         _______ _______ _______ _____ _____    ______ ____

>  <TORSDO>
F 16

$$$$
=
 OpenBabel11042419243D

 40 42  0  0  1  0  0  0  0  0999 V2000
  191.1970  171.6290  143.0410 N   0  0  0  0  0  0  0  0  0  0  0  0
  191.0890  172.6330  140.4720 C   0  0  0  0  0  0  0  0  0  0  0  0
  191.9000  170.9920  142.1500 C   0  0  0  0  0  0  0  0  0  0  0  0
  190.1160  172.5360  142.6620 C   0  0  2  0  0  3  0  0  0  0  0  0
  190.4070  173.2050  141.4080 N   0  0  0  0  0  0  0  0  0  0  0  0
  192.9510  171.0520  139.8940 C   0  0  0  0  0  1  0  0  0  0  0  0
  191.6590  171.2400  140.6800 C   0  0  2  0  0  3  0  0  0  0  0  0
  189.5170  174.8150  143.4490 N   0  0  0  0  0  0  0  0  0  0  0  0
  189.3270  175.5480  144.5640 C   0  0  0  0  0  0  0  0  0  0  0  0
  189.5660  174.6190  145.9440 S   0  0  0  0  0  0  0  0  0  0  0  0
  189.8580  173.5300  143.7430 C   0  0  0  0  0  0  0  0  0  0  0  0
  189.9430  173.2100  145.1030 C   0  0  0  0  0  3  0  0  0  0  0  0
  190.1110  177.8790  144.7960 C   0  0  0  0  0  1  0  0  0  0  0  0
  188.9150  176.9840  144.5390 C   0  0  2  0  0  3  0  0  0  0  0  0
  186.1410  178.0670  147.7400 C   0  0  0  0  0  1  0  0  0  0  0  0
  185.2850  179.4280  144.2500 C   0  0  0  0  0  2  0  0  0  0  0  0
  185.8100  178.0680  146.3240 N   0  0  0  0  0  0  0  0  0  0  0  0
  186.4300  178.4530  143.9890 C   0  0  0  0  0  2  0  0  0  0  0  0
  187.8900  177.2360  145.5470 N   0  0  0  0  0  0  0  0  0  0  0  0
  184.3620  178.8700  145.7300 S   0  0  0  0  0  0  0  0  0  0  0  0
  186.7840  177.8760  145.3130 C   0  0  0  0  0  0  0  0  0  0  0  0
  190.2510  172.8410  138.2670 O   0  0  0  0  0  1  0  0  0  0  0  0
  191.2160  173.3250  139.1520 C   0  0  0  0  0  2  0  0  0  0  0  0
  192.8760  170.0680  142.5480 O   0  0  0  0  0  0  0  0  0  0  0  0
  193.0120  169.6170  143.8930 C   0  0  0  0  0  2  0  0  0  0  0  0
  194.4780  169.5760  144.2980 C   0  0  0  0  0  2  0  0  0  0  0  0
  194.7140  170.4870  145.4070 N   0  0  0  0  0  2  0  0  0  0  0  0
  196.1350  170.4340  145.7060 C   0  0  0  0  0  2  0  0  0  0  0  0
  196.6350  171.8290  146.0470 C   0  0  0  0  0  2  0  0  0  0  0  0
  197.4110  172.3650  144.9410 N   0  0  0  0  0  2  0  0  0  0  0  0
  197.4720  173.8070  145.1230 C   0  0  0  0  0  2  0  0  0  0  0  0
  196.0080  173.6040  143.2540 O   0  0  0  0  0  1  0  0  0  0  0  0
  196.8070  174.5120  143.9510 C   0  0  1  0  0  3  0  0  0  0  0  0
  195.9350  176.7260  143.7370 O   0  0  0  0  0  0  0  0  0  0  0  0
  195.9790  175.6650  144.4180 C   0  0  0  0  0  0  0  0  0  0  0  0
  195.2490  175.5410  145.6020 O   0  0  0  0  0  0  0  0  0  0  0  0
  193.4250  173.6390  145.8180 O   0  0  0  0  0  1  0  0  0  0  0  0
  192.8720  175.5800  144.1440 O   0  0  0  0  0  0  0  0  0  0  0  0
  193.5770  175.1300  145.6140 P   0  0  0  0  0  0  0  0  0  0  0  0
  192.8090  175.9480  146.8770 O   0  0  0  0  0  1  0  0  0  0  0  0
  2  7  1  0  0  0  0
  2  5  2  0  0  0  0
  3 24  1  0  0  0  0
  3  1  2  0  0  0  0
  4  1  1  0  0  0  0
  4 11  1  1  0  0  0
  5  4  1  0  0  0  0
  7  6  1  6  0  0  0
  7  3  1  0  0  0  0
  8 11  1  0  0  0  0
  8  9  2  0  0  0  0
  9 10  1  0  0  0  0
 11 12  2  0  0  0  0
 12 10  1  0  0  0  0
 14  9  1  0  0  0  0
 14 13  1  1  0  0  0
 14 19  1  0  0  0  0
 16 20  1  0  0  0  0
 17 15  1  0  0  0  0
 18 16  1  0  0  0  0
 18 21  1  0  0  0  0
 20 17  1  0  0  0  0
 21 19  2  0  0  0  0
 21 17  1  0  0  0  0
 22 23  1  0  0  0  0
 23  2  1  0  0  0  0
 24 25  1  0  0  0  0
 25 26  1  0  0  0  0
 26 27  1  0  0  0  0
 27 28  1  0  0  0  0
 28 29  1  0  0  0  0
 30 31  1  0  0  0  0
 30 29  1  0  0  0  0
 33 32  1  1  0  0  0
 33 35  1  0  0  0  0
 33 31  1  0  0  0  0
 34 35  2  0  0  0  0
 35 36  1  0  0  0  0
 36 39  1  0  0  0  0
 38 39  2  0  0  0  0
 39 37  1  0  0  0  0
 39 40  1  0  0  0  0
M  END
>  <MODEL>
7

>  <REMARK>
 VINA RESULT:      -5.4      3.411      8.949
  Name = 
  16 active torsions:
  status: ('A' for Active; 'I' for Inactive)
    1  A    between atoms: C_3  and  N_20
    2  A    between atoms: C_3  and  C_39
    3  A    between atoms: C_9  and  C_40
    4  A    between atoms: CA_10  and  C_22
    5  A    between atoms: C_11  and  C_18
    6  A    between atoms: C_11  and  C_19
    7  A    between atoms: O_13  and  C_18
    8  A    between atoms: O_13  and  P_29
    9  A    between atoms: N_17  and  C_19
   10  A    between atoms: N_17  and  C_34
   11  A    between atoms: N_20  and  C_32
   12  A    between atoms: C_23  and  O_36
   13  A    between atoms: C_24  and  C_25
   14  A    between atoms: N_30  and  C_40
   15  A    between atoms: C_32  and  C_34
   16  A    between atoms: O_36  and  C_39
                            x       y       z     vdW  Elec       q    Type
                         _______ _______ _______ _____ _____    ______ ____

>  <TORSDO>
F 16

$$$$
=
 OpenBabel11042419243D

 40 42  0  0  1  0  0  0  0  0999 V2000
  189.5180  172.2350  139.6080 N   0  0  0  0  0  0  0  0  0  0  0  0
  188.9910  173.7630  137.3720 C   0  0  0  0  0  0  0  0  0  0  0  0
  189.9480  171.7570  138.4770 C   0  0  0  0  0  0  0  0  0  0  0  0
  188.4870  173.2690  139.6630 C   0  0  2  0  0  3  0  0  0  0  0  0
  188.5840  174.1670  138.5280 N   0  0  0  0  0  0  0  0  0  0  0  0
  190.5100  172.2240  136.0980 C   0  0  0  0  0  1  0  0  0  0  0  0
  189.4370  172.3240  137.1750 C   0  0  2  0  0  3  0  0  0  0  0  0
  188.1650  175.3250  141.0200 N   0  0  0  0  0  0  0  0  0  0  0  0
  188.3190  175.8240  142.2630 C   0  0  0  0  0  0  0  0  0  0  0  0
  188.9490  174.6650  143.3040 S   0  0  0  0  0  0  0  0  0  0  0  0
  188.5680  174.0270  140.9450 C   0  0  0  0  0  0  0  0  0  0  0  0
  189.0490  173.4610  142.1310 C   0  0  0  0  0  3  0  0  0  0  0  0
  189.0810  178.1700  142.3960 C   0  0  0  0  0  1  0  0  0  0  0  0
  187.9280  177.2170  142.6400 C   0  0  2  0  0  3  0  0  0  0  0  0
  187.0640  177.7420  146.8920 C   0  0  0  0  0  1  0  0  0  0  0  0
  184.4140  179.1010  144.4640 C   0  0  0  0  0  2  0  0  0  0  0  0
  186.0620  177.7520  145.8390 N   0  0  0  0  0  0  0  0  0  0  0  0
  185.3660  178.3200  143.5620 C   0  0  0  0  0  2  0  0  0  0  0  0
  187.5360  177.2710  144.0440 N   0  0  0  0  0  0  0  0  0  0  0  0
  184.4360  178.3520  146.1350 S   0  0  0  0  0  0  0  0  0  0  0  0
  186.4030  177.7480  144.4630 C   0  0  0  0  0  0  0  0  0  0  0  0
  187.8340  175.5740  136.3760 O   0  0  0  0  0  1  0  0  0  0  0  0
  188.9180  174.7090  136.2140 C   0  0  0  0  0  2  0  0  0  0  0  0
  190.8790  170.7080  138.4620 O   0  0  0  0  0  0  0  0  0  0  0  0
  191.6250  170.3190  139.6110 C   0  0  0  0  0  2  0  0  0  0  0  0
  192.8090  171.2520  139.8210 C   0  0  0  0  0  2  0  0  0  0  0  0
  192.6880  171.9260  141.1040 N   0  0  0  0  0  2  0  0  0  0  0  0
  193.3840  173.1970  140.9830 C   0  0  0  0  0  2  0  0  0  0  0  0
  192.4470  174.3280  141.3730 C   0  0  0  0  0  2  0  0  0  0  0  0
  193.2150  175.4760  141.8300 N   0  0  0  0  0  2  0  0  0  0  0  0
  192.6420  175.8920  143.1010 C   0  0  0  0  0  2  0  0  0  0  0  0
  194.1790  176.3380  144.8670 O   0  0  0  0  0  1  0  0  0  0  0  0
  193.4520  175.3170  144.2530 C   0  0  1  0  0  3  0  0  0  0  0  0
  191.9840  173.5710  144.9610 O   0  0  0  0  0  0  0  0  0  0  0  0
  192.5640  174.6520  145.2540 C   0  0  0  0  0  0  0  0  0  0  0  0
  192.4030  175.2350  146.5120 O   0  0  0  0  0  0  0  0  0  0  0  0
  191.2070  176.8540  148.2270 O   0  0  0  0  0  1  0  0  0  0  0  0
  189.7350  174.9120  147.2580 O   0  0  0  0  0  1  0  0  0  0  0  0
  190.9560  176.0470  146.9720 P   0  0  0  0  0  0  0  0  0  0  0  0
  190.4760  177.0850  145.7290 O   0  0  0  0  0  0  0  0  0  0  0  0
  1  4  1  0  0  0  0
  2  5  2  0  0  0  0
  3  1  2  0  0  0  0
  4 11  1  1  0  0  0
  5  4  1  0  0  0  0
  7  6  1  6  0  0  0
  7  2  1  0  0  0  0
  7  3  1  0  0  0  0
  8  9  2  0  0  0  0
  9 14  1  0  0  0  0
  9 10  1  0  0  0  0
 11  8  1  0  0  0  0
 11 12  2  0  0  0  0
 12 10  1  0  0  0  0
 14 13  1  1  0  0  0
 14 19  1  0  0  0  0
 16 20  1  0  0  0  0
 17 20  1  0  0  0  0
 17 15  1  0  0  0  0
 18 21  1  0  0  0  0
 18 16  1  0  0  0  0
 19 21  2  0  0  0  0
 21 17  1  0  0  0  0
 23 22  1  0  0  0  0
 23  2  1  0  0  0  0
 24  3  1  0  0  0  0
 24 25  1  0  0  0  0
 25 26  1  0  0  0  0
 26 27  1  0  0  0  0
 28 27  1  0  0  0  0
 28 29  1  0  0  0  0
 29 30  1  0  0  0  0
 30 31  1  0  0  0  0
 31 33  1  0  0  0  0
 33 32  1  1  0  0  0
 33 35  1  0  0  0  0
 34 35  2  0  0  0  0
 35 36  1  0  0  0  0
 36 39  1  0  0  0  0
 39 38  1  0  0  0  0
 39 37  1  0  0  0  0
 40 39  2  0  0  0  0
M  END
>  <MODEL>
8

>  <REMARK>
 VINA RESULT:      -5.3      3.479      8.551
  Name = 
  16 active torsions:
  status: ('A' for Active; 'I' for Inactive)
    1  A    between atoms: C_3  and  N_20
    2  A    between atoms: C_3  and  C_39
    3  A    between atoms: C_9  and  C_40
    4  A    between atoms: CA_10  and  C_22
    5  A    between atoms: C_11  and  C_18
    6  A    between atoms: C_11  and  C_19
    7  A    between atoms: O_13  and  C_18
    8  A    between atoms: O_13  and  P_29
    9  A    between atoms: N_17  and  C_19
   10  A    between atoms: N_17  and  C_34
   11  A    between atoms: N_20  and  C_32
   12  A    between atoms: C_23  and  O_36
   13  A    between atoms: C_24  and  C_25
   14  A    between atoms: N_30  and  C_40
   15  A    between atoms: C_32  and  C_34
   16  A    between atoms: O_36  and  C_39
                            x       y       z     vdW  Elec       q    Type
                         _______ _______ _______ _____ _____    ______ ____

>  <TORSDO>
F 16

$$$$
=
 OpenBabel11042419243D

 40 42  0  0  1  0  0  0  0  0999 V2000
  193.4240  173.5280  145.6700 N   0  0  0  0  0  0  0  0  0  0  0  0
  195.5800  174.9650  144.7210 C   0  0  0  0  0  0  0  0  0  0  0  0
  193.5500  174.7380  146.1320 C   0  0  0  0  0  0  0  0  0  0  0  0
  194.5370  172.8280  145.0320 C   0  0  2  0  0  3  0  0  0  0  0  0
  195.3970  173.7520  144.3170 N   0  0  0  0  0  0  0  0  0  0  0  0
  194.5880  176.9810  145.8390 C   0  0  0  0  0  1  0  0  0  0  0  0
  194.8500  175.4840  145.9470 C   0  0  2  0  0  3  0  0  0  0  0  0
  192.7350  171.7300  143.7220 N   0  0  0  0  0  0  0  0  0  0  0  0
  192.4880  170.6890  142.9020 C   0  0  0  0  0  0  0  0  0  0  0  0
  193.8790  169.7830  142.6430 S   0  0  0  0  0  0  0  0  0  0  0  0
  194.0360  171.7600  144.1210 C   0  0  0  0  0  0  0  0  0  0  0  0
  194.8570  170.7410  143.6230 C   0  0  0  0  0  3  0  0  0  0  0  0
  191.0990  169.0300  141.7100 C   0  0  0  0  0  1  0  0  0  0  0  0
  191.1500  170.4300  142.2880 C   0  0  2  0  0  3  0  0  0  0  0  0
  190.1230  172.9920  138.8980 C   0  0  0  0  0  1  0  0  0  0  0  0
  187.9480  173.4160  142.0370 C   0  0  0  0  0  2  0  0  0  0  0  0
  189.7700  173.2700  140.2800 N   0  0  0  0  0  0  0  0  0  0  0  0
  189.0840  172.5080  142.5020 C   0  0  0  0  0  2  0  0  0  0  0  0
  190.8780  171.4040  141.2360 N   0  0  0  0  0  0  0  0  0  0  0  0
  188.5640  174.4850  140.6830 S   0  0  0  0  0  0  0  0  0  0  0  0
  189.9730  172.3330  141.3230 C   0  0  0  0  0  0  0  0  0  0  0  0
  196.0860  176.2550  142.8010 O   0  0  0  0  0  1  0  0  0  0  0  0
  196.5980  175.8080  144.0200 C   0  0  0  0  0  2  0  0  0  0  0  0
  192.4870  175.3500  146.8100 O   0  0  0  0  0  0  0  0  0  0  0  0
  191.2230  175.6010  146.2020 C   0  0  0  0  0  2  0  0  0  0  0  0
  191.4070  176.1720  144.8030 C   0  0  0  0  0  2  0  0  0  0  0  0
  190.2610  175.8320  143.9740 N   0  0  0  0  0  2  0  0  0  0  0  0
  189.0860  175.8940  144.8270 C   0  0  0  0  0  2  0  0  0  0  0  0
  188.4470  177.2680  144.7130 C   0  0  0  0  0  2  0  0  0  0  0  0
  188.4630  177.7120  143.3280 N   0  0  0  0  0  2  0  0  0  0  0  0
  187.2660  177.1790  142.6960 C   0  0  0  0  0  2  0  0  0  0  0  0
  186.0870  177.9100  140.7590 O   0  0  0  0  0  1  0  0  0  0  0  0
  186.4750  178.3010  142.0410 C   0  0  1  0  0  3  0  0  0  0  0  0
  184.1240  178.3090  142.4620 O   0  0  0  0  0  0  0  0  0  0  0  0
  185.2720  178.6550  142.8530 C   0  0  0  0  0  0  0  0  0  0  0  0
  185.4420  179.3540  144.0490 O   0  0  0  0  0  0  0  0  0  0  0  0
  185.7780  179.3470  146.6720 O   0  0  0  0  0  1  0  0  0  0  0  0
  185.2040  177.0340  145.5780 O   0  0  0  0  0  0  0  0  0  0  0  0
  184.9610  178.7080  145.5700 P   0  0  0  0  0  0  0  0  0  0  0  0
  183.3240  179.0370  145.8270 O   0  0  0  0  0  1  0  0  0  0  0  0
  1  3  2  0  0  0  0
  2  7  1  0  0  0  0
  3 24  1  0  0  0  0
  4 11  1  6  0  0  0
  4  1  1  0  0  0  0
  5  2  2  0  0  0  0
  5  4  1  0  0  0  0
  7  6  1  6  0  0  0
  7  3  1  0  0  0  0
  8 11  1  0  0  0  0
  9  8  2  0  0  0  0
 10  9  1  0  0  0  0
 10 12  1  0  0  0  0
 12 11  2  0  0  0  0
 14 13  1  6  0  0  0
 14  9  1  0  0  0  0
 15 17  1  0  0  0  0
 16 18  1  0  0  0  0
 17 20  1  0  0  0  0
 17 21  1  0  0  0  0
 19 21  2  0  0  0  0
 19 14  1  0  0  0  0
 20 16  1  0  0  0  0
 21 18  1  0  0  0  0
 22 23  1  0  0  0  0
 23  2  1  0  0  0  0
 25 24  1  0  0  0  0
 26 25  1  0  0  0  0
 27 26  1  0  0  0  0
 27 28  1  0  0  0  0
 29 28  1  0  0  0  0
 30 29  1  0  0  0  0
 31 30  1  0  0  0  0
 33 32  1  6  0  0  0
 33 31  1  0  0  0  0
 33 35  1  0  0  0  0
 34 35  2  0  0  0  0
 35 36  1  0  0  0  0
 36 39  1  0  0  0  0
 39 38  2  0  0  0  0
 39 40  1  0  0  0  0
 39 37  1  0  0  0  0
M  END
>  <MODEL>
9

>  <REMARK>
 VINA RESULT:      -5.3      3.685      8.132
  Name = 
  16 active torsions:
  status: ('A' for Active; 'I' for Inactive)
    1  A    between atoms: C_3  and  N_20
    2  A    between atoms: C_3  and  C_39
    3  A    between atoms: C_9  and  C_40
    4  A    between atoms: CA_10  and  C_22
    5  A    between atoms: C_11  and  C_18
    6  A    between atoms: C_11  and  C_19
    7  A    between atoms: O_13  and  C_18
    8  A    between atoms: O_13  and  P_29
    9  A    between atoms: N_17  and  C_19
   10  A    between atoms: N_17  and  C_34
   11  A    between atoms: N_20  and  C_32
   12  A    between atoms: C_23  and  O_36
   13  A    between atoms: C_24  and  C_25
   14  A    between atoms: N_30  and  C_40
   15  A    between atoms: C_32  and  C_34
   16  A    between atoms: O_36  and  C_39
                            x       y       z     vdW  Elec       q    Type
                         _______ _______ _______ _____ _____    ______ ____

>  <TORSDO>
F 16

$$$$
