=
 OpenBabel11042419203D

 43 48  0  0  1  0  0  0  0  0999 V2000
  192.0910  172.0120  142.7420 C   0  0  0  0  0  3  0  0  0  0  0  0
  191.6710  173.9400  144.0820 N   0  0  0  0  0  0  0  0  0  0  0  0
  193.3490  172.3840  144.7810 C   0  0  0  0  0  0  0  0  0  0  0  0
  193.0730  171.6090  143.6480 C   0  0  0  0  0  3  0  0  0  0  0  0
  192.6250  173.5690  144.9830 C   0  0  0  0  0  0  0  0  0  0  0  0
  191.3900  173.1980  142.9750 C   0  0  0  0  0  0  0  0  0  0  0  0
  191.6880  176.2660  147.1850 C   0  0  2  0  0  3  0  0  0  0  0  0
  192.6170  176.8270  146.1280 C   0  0  0  0  0  2  0  0  0  0  0  0
  193.6000  175.7080  145.8420 C   0  0  0  0  0  2  0  0  0  0  0  0
  191.5780  174.7890  146.8740 C   0  0  0  0  0  2  0  0  0  0  0  0
  192.8850  174.4100  146.1970 C   0  0  1  0  0  3  0  0  0  0  0  0
  190.3440  176.9040  147.1090 C   0  0  0  0  0  3  0  0  0  0  0  0
  189.3640  176.2970  146.5180 N   0  0  0  0  0  0  0  0  0  0  0  0
  188.0540  176.8580  146.3930 C   0  0  0  0  0  0  0  0  0  0  0  0
  185.4970  177.9750  146.0860 C   0  0  0  0  0  0  0  0  0  0  0  0
  184.1510  178.6240  145.9610 C   0  0  0  0  0  2  0  0  0  0  0  0
  187.0550  176.6240  147.3550 C   0  0  0  0  0  3  0  0  0  0  0  0
  183.8410  178.9050  144.5590 N   0  0  0  0  0  2  0  0  0  0  0  0
  187.7640  177.6570  145.2800 C   0  0  0  0  0  3  0  0  0  0  0  0
  186.1920  179.0320  143.8920 C   0  0  0  0  0  2  0  0  0  0  0  0
  184.8750  179.7920  144.0320 C   0  0  0  0  0  2  0  0  0  0  0  0
  186.4980  178.2320  145.1290 C   0  0  0  0  0  0  0  0  0  0  0  0
  185.7830  177.1850  147.2040 C   0  0  0  0  0  3  0  0  0  0  0  0
  189.1240  173.7980  140.3100 C   0  0  0  0  0  3  0  0  0  0  0  0
  188.8180  174.8040  141.1450 N   0  0  0  0  0  0  0  0  0  0  0  0
  189.5950  174.7450  142.2100 N   0  0  0  0  0  0  0  0  0  0  0  0
  190.3710  173.6600  142.0170 C   0  0  0  0  0  0  0  0  0  0  0  0
  190.1120  173.0410  140.8420 N   0  0  0  0  0  0  0  0  0  0  0  0
  187.9150  175.8420  140.8880 C   0  0  0  0  0  0  0  0  0  0  0  0
  186.1840  177.8010  140.3680 C   0  0  0  0  0  1  0  0  0  0  0  0
  187.1330  176.7300  140.6570 C   0  0  0  0  0  0  0  0  0  0  0  0
  194.3190  171.9910  145.7070 O   0  0  0  0  0  0  0  0  0  0  0  0
  195.3610  171.1620  145.3510 N   0  0  0  0  0  2  0  0  0  0  0  0
  196.5410  171.9010  145.5010 N   0  0  0  0  0  2  0  0  0  0  0  0
  196.3260  176.6650  141.7050 C   0  0  0  0  0  2  0  0  0  0  0  0
  196.7310  172.5930  144.2950 N   0  0  0  0  0  2  0  0  0  0  0  0
  196.5580  174.5790  140.5970 C   0  0  0  0  0  2  0  0  0  0  0  0
  196.6610  174.6800  145.3230 O   0  0  0  0  0  0  0  0  0  0  0  0
  196.9490  174.6990  143.0050 N   0  0  0  0  0  0  0  0  0  0  0  0
  196.7800  174.0180  144.2560 C   0  0  0  0  0  0  0  0  0  0  0  0
  197.0360  176.1580  142.9590 C   0  0  0  0  0  2  0  0  0  0  0  0
  197.2610  173.9410  141.7980 C   0  0  0  0  0  2  0  0  0  0  0  0
  196.8790  176.0050  140.5250 N   0  0  0  0  0  2  0  0  0  0  0  0
  1  6  2  0  0  0  0
  1  4  1  0  0  0  0
  2  5  2  0  0  0  0
  3  5  1  0  0  0  0
  3 32  1  0  0  0  0
  4  3  2  0  0  0  0
  6  2  1  0  0  0  0
  7 12  1  6  0  0  0
  8  7  1  0  0  0  0
  9  8  1  0  0  0  0
  9 11  1  0  0  0  0
 10  7  1  0  0  0  0
 11  5  1  6  0  0  0
 11 10  1  0  0  0  0
 13 12  2  0  0  0  0
 14 13  1  0  0  0  0
 14 17  1  0  0  0  0
 15 23  1  0  0  0  0
 16 15  1  0  0  0  0
 18 16  1  0  0  0  0
 19 14  2  0  0  0  0
 20 21  1  0  0  0  0
 20 22  1  0  0  0  0
 21 18  1  0  0  0  0
 22 19  1  0  0  0  0
 22 15  2  0  0  0  0
 23 17  2  0  0  0  0
 24 28  2  0  0  0  0
 24 25  1  0  0  0  0
 25 26  1  0  0  0  0
 27 26  2  0  0  0  0
 27  6  1  0  0  0  0
 28 27  1  0  0  0  0
 29 25  1  0  0  0  0
 30 31  1  0  0  0  0
 31 29  3  0  0  0  0
 33 34  1  0  0  0  0
 33 32  1  0  0  0  0
 35 41  1  0  0  0  0
 36 34  1  0  0  0  0
 37 42  1  0  0  0  0
 39 40  1  0  0  0  0
 40 36  1  0  0  0  0
 40 38  2  0  0  0  0
 41 39  1  0  0  0  0
 42 39  1  0  0  0  0
 43 37  1  0  0  0  0
 43 35  1  0  0  0  0
M  END
>  <MODEL>
1

>  <REMARK>
 VINA RESULT:      -8.4      0.000      0.000
  Name = 
  9 active torsions:
  status: ('A' for Active; 'I' for Inactive)
    1  A    between atoms: C_3  and  C_21
    2  A    between atoms: C_4  and  O_32
    3  A    between atoms: N_7  and  C_8
    4  A    between atoms: N_9  and  N_12
    5  A    between atoms: N_9  and  N_18
    6  A    between atoms: C_10  and  N_37
    7  A    between atoms: C_16  and  C_25
    8  A    between atoms: N_18  and  O_32
    9  A    between atoms: C_27  and  C_30
                            x       y       z     vdW  Elec       q    Type
                         _______ _______ _______ _____ _____    ______ ____

>  <TORSDO>
F 9

$$$$
=
 OpenBabel11042419203D

 43 48  0  0  1  0  0  0  0  0999 V2000
  190.3530  177.8510  143.0640 C   0  0  0  0  0  3  0  0  0  0  0  0
  190.4120  175.4790  142.8190 N   0  0  0  0  0  0  0  0  0  0  0  0
  188.5580  176.6920  141.9170 C   0  0  0  0  0  0  0  0  0  0  0  0
  189.1360  177.8810  142.3800 C   0  0  0  0  0  3  0  0  0  0  0  0
  189.2250  175.4800  142.1480 C   0  0  0  0  0  0  0  0  0  0  0  0
  190.9890  176.6250  143.2760 C   0  0  0  0  0  0  0  0  0  0  0  0
  189.4390  171.9130  141.6690 C   0  0  2  0  0  3  0  0  0  0  0  0
  189.9280  172.5850  140.4030 C   0  0  0  0  0  2  0  0  0  0  0  0
  189.0760  173.8320  140.2710 C   0  0  0  0  0  2  0  0  0  0  0  0
  189.0350  173.0450  142.5900 C   0  0  0  0  0  2  0  0  0  0  0  0
  188.6210  174.1900  141.6800 C   0  0  1  0  0  3  0  0  0  0  0  0
  190.5200  171.1050  142.2990 C   0  0  0  0  0  3  0  0  0  0  0  0
  191.3400  171.6510  143.1390 N   0  0  0  0  0  0  0  0  0  0  0  0
  192.4110  170.9390  143.7660 C   0  0  0  0  0  0  0  0  0  0  0  0
  194.5310  169.5970  145.0260 C   0  0  0  0  0  0  0  0  0  0  0  0
  195.6960  168.8780  145.6380 C   0  0  0  0  0  2  0  0  0  0  0  0
  192.4700  169.5340  143.7560 C   0  0  0  0  0  3  0  0  0  0  0  0
  196.2960  169.6820  146.7030 N   0  0  0  0  0  2  0  0  0  0  0  0
  193.4220  171.6650  144.4080 C   0  0  0  0  0  3  0  0  0  0  0  0
  195.5280  171.8060  145.7610 C   0  0  0  0  0  2  0  0  0  0  0  0
  196.7380  170.9490  146.1250 C   0  0  0  0  0  2  0  0  0  0  0  0
  194.4910  171.0050  145.0220 C   0  0  0  0  0  0  0  0  0  0  0  0
  193.5290  168.8660  144.3790 C   0  0  0  0  0  3  0  0  0  0  0  0
  193.8720  176.9710  145.3160 C   0  0  0  0  0  3  0  0  0  0  0  0
  194.2540  175.9840  144.4890 N   0  0  0  0  0  0  0  0  0  0  0  0
  193.2850  175.7300  143.6300 N   0  0  0  0  0  0  0  0  0  0  0  0
  192.2880  176.5710  143.9670 C   0  0  0  0  0  0  0  0  0  0  0  0
  192.6140  177.3660  145.0130 N   0  0  0  0  0  0  0  0  0  0  0  0
  195.5230  175.3950  144.4400 C   0  0  0  0  0  0  0  0  0  0  0  0
  197.9410  174.2820  144.3090 C   0  0  0  0  0  1  0  0  0  0  0  0
  196.6160  174.8920  144.3850 C   0  0  0  0  0  0  0  0  0  0  0  0
  187.3340  176.7000  141.2420 O   0  0  0  0  0  0  0  0  0  0  0  0
  186.6720  177.8760  140.9640 N   0  0  0  0  0  2  0  0  0  0  0  0
  185.4040  177.7790  141.5520 N   0  0  0  0  0  2  0  0  0  0  0  0
  185.1800  178.6210  147.5840 C   0  0  0  0  0  2  0  0  0  0  0  0
  185.6180  177.4630  142.9020 N   0  0  0  0  0  2  0  0  0  0  0  0
  186.8040  177.0280  146.9080 C   0  0  0  0  0  2  0  0  0  0  0  0
  183.9400  178.8970  143.6430 O   0  0  0  0  0  0  0  0  0  0  0  0
  185.1010  177.7440  145.3110 N   0  0  0  0  0  0  0  0  0  0  0  0
  184.8430  178.0670  143.9370 C   0  0  0  0  0  0  0  0  0  0  0  0
  184.2900  178.3300  146.3770 C   0  0  0  0  0  2  0  0  0  0  0  0
  186.0200  176.6610  145.6460 C   0  0  0  0  0  2  0  0  0  0  0  0
  185.8830  177.4030  147.9820 N   0  0  0  0  0  2  0  0  0  0  0  0
  1  6  1  0  0  0  0
  2  6  2  0  0  0  0
  3  5  2  0  0  0  0
  3  4  1  0  0  0  0
  4  1  2  0  0  0  0
  5  2  1  0  0  0  0
  6 27  1  0  0  0  0
  7 12  1  1  0  0  0
  7 10  1  0  0  0  0
  8  7  1  0  0  0  0
  9  8  1  0  0  0  0
  9 11  1  0  0  0  0
 11  5  1  1  0  0  0
 11 10  1  0  0  0  0
 12 13  2  0  0  0  0
 13 14  1  0  0  0  0
 14 19  1  0  0  0  0
 15 16  1  0  0  0  0
 16 18  1  0  0  0  0
 17 14  2  0  0  0  0
 17 23  1  0  0  0  0
 19 22  2  0  0  0  0
 20 21  1  0  0  0  0
 21 18  1  0  0  0  0
 22 15  1  0  0  0  0
 22 20  1  0  0  0  0
 23 15  2  0  0  0  0
 25 24  1  0  0  0  0
 26 27  2  0  0  0  0
 26 25  1  0  0  0  0
 27 28  1  0  0  0  0
 28 24  2  0  0  0  0
 29 25  1  0  0  0  0
 30 31  1  0  0  0  0
 31 29  3  0  0  0  0
 32  3  1  0  0  0  0
 33 32  1  0  0  0  0
 33 34  1  0  0  0  0
 34 36  1  0  0  0  0
 35 43  1  0  0  0  0
 36 40  1  0  0  0  0
 37 43  1  0  0  0  0
 38 40  2  0  0  0  0
 39 42  1  0  0  0  0
 39 41  1  0  0  0  0
 40 39  1  0  0  0  0
 41 35  1  0  0  0  0
 42 37  1  0  0  0  0
M  END
>  <MODEL>
2

>  <REMARK>
 VINA RESULT:      -7.9      3.347     10.067
  Name = 
  9 active torsions:
  status: ('A' for Active; 'I' for Inactive)
    1  A    between atoms: C_3  and  C_21
    2  A    between atoms: C_4  and  O_32
    3  A    between atoms: N_7  and  C_8
    4  A    between atoms: N_9  and  N_12
    5  A    between atoms: N_9  and  N_18
    6  A    between atoms: C_10  and  N_37
    7  A    between atoms: C_16  and  C_25
    8  A    between atoms: N_18  and  O_32
    9  A    between atoms: C_27  and  C_30
                            x       y       z     vdW  Elec       q    Type
                         _______ _______ _______ _____ _____    ______ ____

>  <TORSDO>
F 9

$$$$
=
 OpenBabel11042419203D

 43 48  0  0  1  0  0  0  0  0999 V2000
  184.4050  178.1660  141.1460 C   0  0  0  0  0  3  0  0  0  0  0  0
  183.6630  178.5650  143.3770 N   0  0  0  0  0  0  0  0  0  0  0  0
  186.0050  178.3160  142.9610 C   0  0  0  0  0  0  0  0  0  0  0  0
  185.7230  178.1320  141.6020 C   0  0  0  0  0  3  0  0  0  0  0  0
  184.9410  178.5370  143.8490 C   0  0  0  0  0  0  0  0  0  0  0  0
  183.3700  178.3890  142.0590 C   0  0  0  0  0  0  0  0  0  0  0  0
  186.8280  177.7200  146.8110 C   0  0  2  0  0  3  0  0  0  0  0  0
  185.6220  176.8050  146.7580 C   0  0  0  0  0  2  0  0  0  0  0  0
  184.5190  177.6500  146.1510 C   0  0  0  0  0  2  0  0  0  0  0  0
  186.7000  178.6170  145.5980 C   0  0  0  0  0  2  0  0  0  0  0  0
  185.2110  178.7180  145.3130 C   0  0  1  0  0  3  0  0  0  0  0  0
  188.0950  176.9420  146.7380 C   0  0  0  0  0  3  0  0  0  0  0  0
  189.2050  177.5270  146.4190 N   0  0  0  0  0  0  0  0  0  0  0  0
  190.4550  176.8380  146.3120 C   0  0  0  0  0  0  0  0  0  0  0  0
  192.9170  175.5160  146.0470 C   0  0  0  0  0  0  0  0  0  0  0  0
  194.1980  174.7520  145.8900 C   0  0  0  0  0  2  0  0  0  0  0  0
  191.0080  176.1390  147.4000 C   0  0  0  0  0  3  0  0  0  0  0  0
  195.0200  175.3360  144.8300 N   0  0  0  0  0  2  0  0  0  0  0  0
  191.1410  176.8670  145.0920 C   0  0  0  0  0  3  0  0  0  0  0  0
  193.1070  176.2960  143.6450 C   0  0  0  0  0  2  0  0  0  0  0  0
  194.2580  175.2950  143.5850 C   0  0  0  0  0  2  0  0  0  0  0  0
  192.3590  176.1950  144.9450 C   0  0  0  0  0  0  0  0  0  0  0  0
  192.2320  175.4770  147.2650 C   0  0  0  0  0  3  0  0  0  0  0  0
  179.9010  178.8860  141.5050 C   0  0  0  0  0  3  0  0  0  0  0  0
  180.2490  178.2180  140.3940 N   0  0  0  0  0  0  0  0  0  0  0  0
  181.5360  177.9290  140.4390 N   0  0  0  0  0  0  0  0  0  0  0  0
  181.9740  178.4590  141.5980 C   0  0  0  0  0  0  0  0  0  0  0  0
  180.9840  179.0630  142.2960 N   0  0  0  0  0  0  0  0  0  0  0  0
  179.3780  177.7690  139.3940 C   0  0  0  0  0  0  0  0  0  0  0  0
  177.6920  176.9350  137.5060 C   0  0  0  0  0  1  0  0  0  0  0  0
  178.6190  177.3910  138.5380 C   0  0  0  0  0  0  0  0  0  0  0  0
  187.3180  178.2730  143.4390 O   0  0  0  0  0  0  0  0  0  0  0  0
  188.2820  177.4990  142.8300 N   0  0  0  0  0  2  0  0  0  0  0  0
  188.1010  176.1870  143.2880 N   0  0  0  0  0  2  0  0  0  0  0  0
  190.7490  171.7750  140.0220 C   0  0  0  0  0  2  0  0  0  0  0  0
  188.2960  175.3500  142.1790 N   0  0  0  0  0  2  0  0  0  0  0  0
  189.4690  173.2850  138.7140 C   0  0  0  0  0  2  0  0  0  0  0  0
  189.4380  173.7450  143.4200 O   0  0  0  0  0  0  0  0  0  0  0  0
  189.1990  173.2870  141.1410 N   0  0  0  0  0  0  0  0  0  0  0  0
  188.9920  174.1100  142.2980 C   0  0  0  0  0  0  0  0  0  0  0  0
  189.8800  171.9990  141.2580 C   0  0  0  0  0  2  0  0  0  0  0  0
  188.5390  173.6180  139.8830 C   0  0  0  0  0  2  0  0  0  0  0  0
  189.9320  171.9010  138.8170 N   0  0  0  0  0  2  0  0  0  0  0  0
  1  4  2  0  0  0  0
  1  6  1  0  0  0  0
  2  5  1  0  0  0  0
  3 32  1  0  0  0  0
  3  5  2  0  0  0  0
  4  3  1  0  0  0  0
  6  2  2  0  0  0  0
  7 12  1  6  0  0  0
  8  7  1  0  0  0  0
  9  8  1  0  0  0  0
 10  7  1  0  0  0  0
 11  5  1  6  0  0  0
 11 10  1  0  0  0  0
 11  9  1  0  0  0  0
 13 12  2  0  0  0  0
 14 13  1  0  0  0  0
 14 17  1  0  0  0  0
 15 23  1  0  0  0  0
 16 15  1  0  0  0  0
 18 16  1  0  0  0  0
 19 14  2  0  0  0  0
 20 22  1  0  0  0  0
 21 20  1  0  0  0  0
 21 18  1  0  0  0  0
 22 19  1  0  0  0  0
 22 15  2  0  0  0  0
 23 17  2  0  0  0  0
 24 28  2  0  0  0  0
 25 26  1  0  0  0  0
 25 24  1  0  0  0  0
 26 27  2  0  0  0  0
 27  6  1  0  0  0  0
 27 28  1  0  0  0  0
 29 25  1  0  0  0  0
 30 31  1  0  0  0  0
 31 29  3  0  0  0  0
 33 34  1  0  0  0  0
 33 32  1  0  0  0  0
 35 41  1  0  0  0  0
 36 40  1  0  0  0  0
 36 34  1  0  0  0  0
 37 43  1  0  0  0  0
 37 42  1  0  0  0  0
 39 41  1  0  0  0  0
 39 40  1  0  0  0  0
 40 38  2  0  0  0  0
 42 39  1  0  0  0  0
 43 35  1  0  0  0  0
M  END
>  <MODEL>
3

>  <REMARK>
 VINA RESULT:      -7.7      3.484      8.427
  Name = 
  9 active torsions:
  status: ('A' for Active; 'I' for Inactive)
    1  A    between atoms: C_3  and  C_21
    2  A    between atoms: C_4  and  O_32
    3  A    between atoms: N_7  and  C_8
    4  A    between atoms: N_9  and  N_12
    5  A    between atoms: N_9  and  N_18
    6  A    between atoms: C_10  and  N_37
    7  A    between atoms: C_16  and  C_25
    8  A    between atoms: N_18  and  O_32
    9  A    between atoms: C_27  and  C_30
                            x       y       z     vdW  Elec       q    Type
                         _______ _______ _______ _____ _____    ______ ____

>  <TORSDO>
F 9

$$$$
=
 OpenBabel11042419203D

 43 48  0  0  1  0  0  0  0  0999 V2000
  187.4080  176.9710  145.8110 C   0  0  0  0  0  3  0  0  0  0  0  0
  188.4060  175.7400  144.0270 N   0  0  0  0  0  0  0  0  0  0  0  0
  189.1240  175.3200  146.2700 C   0  0  0  0  0  0  0  0  0  0  0  0
  188.2150  176.2850  146.7200 C   0  0  0  0  0  3  0  0  0  0  0  0
  189.2050  175.0560  144.8940 C   0  0  0  0  0  0  0  0  0  0  0  0
  187.5150  176.6810  144.4470 C   0  0  0  0  0  0  0  0  0  0  0  0
  190.7410  173.2960  142.1480 C   0  0  2  0  0  3  0  0  0  0  0  0
  189.5610  172.4770  142.6260 C   0  0  0  0  0  2  0  0  0  0  0  0
  189.5180  172.6950  144.1260 C   0  0  0  0  0  2  0  0  0  0  0  0
  190.7860  174.5010  143.0640 C   0  0  0  0  0  2  0  0  0  0  0  0
  190.1830  174.0420  144.3810 C   0  0  1  0  0  3  0  0  0  0  0  0
  190.5530  173.7360  140.7380 C   0  0  0  0  0  3  0  0  0  0  0  0
  189.3860  173.6660  140.1810 N   0  0  0  0  0  0  0  0  0  0  0  0
  189.1390  174.0530  138.8250 C   0  0  0  0  0  0  0  0  0  0  0  0
  188.6070  174.8500  136.1870 C   0  0  0  0  0  0  0  0  0  0  0  0
  188.2920  175.2150  134.7660 C   0  0  0  0  0  2  0  0  0  0  0  0
  190.0320  173.7250  137.7890 C   0  0  0  0  0  3  0  0  0  0  0  0
  187.4280  176.3940  134.7160 N   0  0  0  0  0  2  0  0  0  0  0  0
  187.9780  174.7780  138.5300 C   0  0  0  0  0  3  0  0  0  0  0  0
  186.4770  175.9980  136.9350 C   0  0  0  0  0  2  0  0  0  0  0  0
  186.1950  176.0870  135.4370 C   0  0  0  0  0  2  0  0  0  0  0  0
  187.6960  175.1630  137.2150 C   0  0  0  0  0  0  0  0  0  0  0  0
  189.7630  174.1180  136.4740 C   0  0  0  0  0  3  0  0  0  0  0  0
  185.9900  178.6400  141.9120 C   0  0  0  0  0  3  0  0  0  0  0  0
  184.9390  177.9410  142.3690 N   0  0  0  0  0  0  0  0  0  0  0  0
  185.3290  177.1510  143.3530 N   0  0  0  0  0  0  0  0  0  0  0  0
  186.6530  177.3690  143.4710 C   0  0  0  0  0  0  0  0  0  0  0  0
  187.1070  178.2930  142.5920 N   0  0  0  0  0  0  0  0  0  0  0  0
  183.6060  178.1020  141.9730 C   0  0  0  0  0  0  0  0  0  0  0  0
  181.0780  178.4040  141.1830 C   0  0  0  0  0  1  0  0  0  0  0  0
  182.4620  178.2380  141.6200 C   0  0  0  0  0  0  0  0  0  0  0  0
  189.9490  174.6320  147.1640 O   0  0  0  0  0  0  0  0  0  0  0  0
  190.8160  175.2990  148.0040 N   0  0  0  0  0  2  0  0  0  0  0  0
  191.3730  176.3510  147.2650 N   0  0  0  0  0  2  0  0  0  0  0  0
  195.7500  174.9600  143.2580 C   0  0  0  0  0  2  0  0  0  0  0  0
  192.6370  175.9110  146.8440 N   0  0  0  0  0  2  0  0  0  0  0  0
  196.0650  173.9660  145.3900 C   0  0  0  0  0  2  0  0  0  0  0  0
  192.4720  176.9790  144.7820 O   0  0  0  0  0  0  0  0  0  0  0  0
  194.4380  175.7720  145.1460 N   0  0  0  0  0  0  0  0  0  0  0  0
  193.1540  176.2570  145.5590 C   0  0  0  0  0  0  0  0  0  0  0  0
  194.9920  176.1480  143.8460 C   0  0  0  0  0  2  0  0  0  0  0  0
  195.3020  175.0860  146.1010 C   0  0  0  0  0  2  0  0  0  0  0  0
  196.7540  174.4950  144.2120 N   0  0  0  0  0  2  0  0  0  0  0  0
  1  4  1  0  0  0  0
  2  6  1  0  0  0  0
  2  5  2  0  0  0  0
  3  4  2  0  0  0  0
  3 32  1  0  0  0  0
  5  3  1  0  0  0  0
  6  1  2  0  0  0  0
  7 12  1  6  0  0  0
  7  8  1  0  0  0  0
  7 10  1  0  0  0  0
  8  9  1  0  0  0  0
  9 11  1  0  0  0  0
 10 11  1  0  0  0  0
 11  5  1  6  0  0  0
 13 12  2  0  0  0  0
 14 13  1  0  0  0  0
 15 23  2  0  0  0  0
 15 22  1  0  0  0  0
 16 15  1  0  0  0  0
 17 14  2  0  0  0  0
 18 16  1  0  0  0  0
 18 21  1  0  0  0  0
 19 14  1  0  0  0  0
 20 22  1  0  0  0  0
 21 20  1  0  0  0  0
 22 19  2  0  0  0  0
 23 17  1  0  0  0  0
 24 25  1  0  0  0  0
 24 28  2  0  0  0  0
 25 26  1  0  0  0  0
 26 27  2  0  0  0  0
 27  6  1  0  0  0  0
 28 27  1  0  0  0  0
 29 25  1  0  0  0  0
 30 31  1  0  0  0  0
 31 29  3  0  0  0  0
 32 33  1  0  0  0  0
 34 33  1  0  0  0  0
 35 41  1  0  0  0  0
 35 43  1  0  0  0  0
 36 34  1  0  0  0  0
 37 42  1  0  0  0  0
 38 40  2  0  0  0  0
 39 40  1  0  0  0  0
 39 42  1  0  0  0  0
 40 36  1  0  0  0  0
 41 39  1  0  0  0  0
 43 37  1  0  0  0  0
M  END
>  <MODEL>
4

>  <REMARK>
 VINA RESULT:      -7.7      3.053      6.685
  Name = 
  9 active torsions:
  status: ('A' for Active; 'I' for Inactive)
    1  A    between atoms: C_3  and  C_21
    2  A    between atoms: C_4  and  O_32
    3  A    between atoms: N_7  and  C_8
    4  A    between atoms: N_9  and  N_12
    5  A    between atoms: N_9  and  N_18
    6  A    between atoms: C_10  and  N_37
    7  A    between atoms: C_16  and  C_25
    8  A    between atoms: N_18  and  O_32
    9  A    between atoms: C_27  and  C_30
                            x       y       z     vdW  Elec       q    Type
                         _______ _______ _______ _____ _____    ______ ____

>  <TORSDO>
F 9

$$$$
=
 OpenBabel11042419203D

 43 48  0  0  1  0  0  0  0  0999 V2000
  184.6630  178.0150  141.2320 C   0  0  0  0  0  3  0  0  0  0  0  0
  184.0640  178.4610  143.4970 N   0  0  0  0  0  0  0  0  0  0  0  0
  186.3590  178.0510  142.9640 C   0  0  0  0  0  0  0  0  0  0  0  0
  185.9970  177.8890  141.6210 C   0  0  0  0  0  3  0  0  0  0  0  0
  185.3590  178.3440  143.9040 C   0  0  0  0  0  0  0  0  0  0  0  0
  183.6940  178.3080  142.1950 C   0  0  0  0  0  0  0  0  0  0  0  0
  187.1690  177.2490  146.8240 C   0  0  2  0  0  3  0  0  0  0  0  0
  185.8110  176.5790  146.8380 C   0  0  0  0  0  2  0  0  0  0  0  0
  184.8650  177.6050  146.2430 C   0  0  0  0  0  2  0  0  0  0  0  0
  187.1670  178.1270  145.5900 C   0  0  0  0  0  2  0  0  0  0  0  0
  185.7140  178.5030  145.3520 C   0  0  1  0  0  3  0  0  0  0  0  0
  188.2630  176.2430  146.7320 C   0  0  0  0  0  3  0  0  0  0  0  0
  189.3700  176.5330  146.1260 N   0  0  0  0  0  0  0  0  0  0  0  0
  190.4530  175.6100  145.9840 C   0  0  0  0  0  0  0  0  0  0  0  0
  192.5510  173.7740  145.6530 C   0  0  0  0  0  0  0  0  0  0  0  0
  193.6470  172.7580  145.5300 C   0  0  0  0  0  2  0  0  0  0  0  0
  191.6460  175.7520  146.7170 C   0  0  0  0  0  3  0  0  0  0  0  0
  193.6020  172.1060  144.2210 N   0  0  0  0  0  2  0  0  0  0  0  0
  190.3190  174.5410  145.0890 C   0  0  0  0  0  3  0  0  0  0  0  0
  191.2090  172.5110  143.9170 C   0  0  0  0  0  2  0  0  0  0  0  0
  192.3010  171.4570  144.0790 C   0  0  0  0  0  2  0  0  0  0  0  0
  191.3520  173.6120  144.9320 C   0  0  0  0  0  0  0  0  0  0  0  0
  192.6880  174.8340  146.5550 C   0  0  0  0  0  3  0  0  0  0  0  0
  180.2570  179.0900  141.7880 C   0  0  0  0  0  3  0  0  0  0  0  0
  180.4750  178.3090  140.7180 N   0  0  0  0  0  0  0  0  0  0  0  0
  181.7310  177.9020  140.7180 N   0  0  0  0  0  0  0  0  0  0  0  0
  182.2840  178.4760  141.8050 C   0  0  0  0  0  0  0  0  0  0  0  0
  181.3970  179.2240  142.5030 N   0  0  0  0  0  0  0  0  0  0  0  0
  179.5080  177.8700  139.8070 C   0  0  0  0  0  0  0  0  0  0  0  0
  177.6930  177.0280  138.0460 C   0  0  0  0  0  1  0  0  0  0  0  0
  178.6840  177.4890  139.0140 C   0  0  0  0  0  0  0  0  0  0  0  0
  187.6880  177.9160  143.3760 O   0  0  0  0  0  0  0  0  0  0  0  0
  188.7190  177.8260  142.4650 N   0  0  0  0  0  2  0  0  0  0  0  0
  189.9020  178.1160  143.1570 N   0  0  0  0  0  2  0  0  0  0  0  0
  195.4850  175.7980  142.3760 C   0  0  0  0  0  2  0  0  0  0  0  0
  190.8590  177.1930  142.7080 N   0  0  0  0  0  2  0  0  0  0  0  0
  193.8820  174.9490  140.8460 C   0  0  0  0  0  2  0  0  0  0  0  0
  192.4430  177.8670  144.2760 O   0  0  0  0  0  0  0  0  0  0  0  0
  193.1160  176.1730  142.8160 N   0  0  0  0  0  0  0  0  0  0  0  0
  192.1490  177.1080  143.3120 C   0  0  0  0  0  0  0  0  0  0  0  0
  194.4280  176.0530  143.4500 C   0  0  0  0  0  2  0  0  0  0  0  0
  192.7260  175.1780  141.8220 C   0  0  0  0  0  2  0  0  0  0  0  0
  195.1070  174.6320  141.5820 N   0  0  0  0  0  2  0  0  0  0  0  0
  1  4  2  0  0  0  0
  1  6  1  0  0  0  0
  2  5  1  0  0  0  0
  3 32  1  0  0  0  0
  3  5  2  0  0  0  0
  4  3  1  0  0  0  0
  6  2  2  0  0  0  0
  7 12  1  6  0  0  0
  7  8  1  0  0  0  0
  9  8  1  0  0  0  0
 10  7  1  0  0  0  0
 11  5  1  6  0  0  0
 11 10  1  0  0  0  0
 11  9  1  0  0  0  0
 13 12  2  0  0  0  0
 14 13  1  0  0  0  0
 14 17  1  0  0  0  0
 15 23  1  0  0  0  0
 16 15  1  0  0  0  0
 18 16  1  0  0  0  0
 19 14  2  0  0  0  0
 20 21  1  0  0  0  0
 20 22  1  0  0  0  0
 21 18  1  0  0  0  0
 22 19  1  0  0  0  0
 22 15  2  0  0  0  0
 23 17  2  0  0  0  0
 24 28  2  0  0  0  0
 25 26  1  0  0  0  0
 25 24  1  0  0  0  0
 26 27  2  0  0  0  0
 27  6  1  0  0  0  0
 27 28  1  0  0  0  0
 29 25  1  0  0  0  0
 30 31  1  0  0  0  0
 31 29  3  0  0  0  0
 33 34  1  0  0  0  0
 33 32  1  0  0  0  0
 35 41  1  0  0  0  0
 36 34  1  0  0  0  0
 36 40  1  0  0  0  0
 37 43  1  0  0  0  0
 37 42  1  0  0  0  0
 39 40  1  0  0  0  0
 39 41  1  0  0  0  0
 40 38  2  0  0  0  0
 42 39  1  0  0  0  0
 43 35  1  0  0  0  0
M  END
>  <MODEL>
5

>  <REMARK>
 VINA RESULT:      -7.6      3.432      7.757
  Name = 
  9 active torsions:
  status: ('A' for Active; 'I' for Inactive)
    1  A    between atoms: C_3  and  C_21
    2  A    between atoms: C_4  and  O_32
    3  A    between atoms: N_7  and  C_8
    4  A    between atoms: N_9  and  N_12
    5  A    between atoms: N_9  and  N_18
    6  A    between atoms: C_10  and  N_37
    7  A    between atoms: C_16  and  C_25
    8  A    between atoms: N_18  and  O_32
    9  A    between atoms: C_27  and  C_30
                            x       y       z     vdW  Elec       q    Type
                         _______ _______ _______ _____ _____    ______ ____

>  <TORSDO>
F 9

$$$$
=
 OpenBabel11042419203D

 43 48  0  0  1  0  0  0  0  0999 V2000
  187.7130  177.0680  145.6500 C   0  0  0  0  0  3  0  0  0  0  0  0
  188.7270  175.4820  144.1850 N   0  0  0  0  0  0  0  0  0  0  0  0
  189.3230  175.4660  146.5010 C   0  0  0  0  0  0  0  0  0  0  0  0
  188.4430  176.5350  146.7130 C   0  0  0  0  0  3  0  0  0  0  0  0
  189.4520  174.9430  145.2060 C   0  0  0  0  0  0  0  0  0  0  0  0
  187.8670  176.5210  144.3730 C   0  0  0  0  0  0  0  0  0  0  0  0
  190.9690  172.5880  142.9360 C   0  0  2  0  0  3  0  0  0  0  0  0
  189.7510  171.9290  143.5480 C   0  0  0  0  0  2  0  0  0  0  0  0
  189.6900  172.4640  144.9660 C   0  0  0  0  0  2  0  0  0  0  0  0
  191.0430  173.9590  143.5750 C   0  0  0  0  0  2  0  0  0  0  0  0
  190.4000  173.8110  144.9450 C   0  0  1  0  0  3  0  0  0  0  0  0
  190.8220  172.7220  141.4600 C   0  0  0  0  0  3  0  0  0  0  0  0
  189.9300  173.5160  140.9610 N   0  0  0  0  0  0  0  0  0  0  0  0
  189.7220  173.6790  139.5540 C   0  0  0  0  0  0  0  0  0  0  0  0
  189.3680  173.9670  136.7850 C   0  0  0  0  0  0  0  0  0  0  0  0
  189.1940  174.1880  135.3110 C   0  0  0  0  0  2  0  0  0  0  0  0
  188.4810  174.0900  139.0340 C   0  0  0  0  0  3  0  0  0  0  0  0
  190.1290  173.3570  134.5520 N   0  0  0  0  0  2  0  0  0  0  0  0
  190.7820  173.4170  138.6790 C   0  0  0  0  0  3  0  0  0  0  0  0
  191.7540  173.2250  136.3750 C   0  0  0  0  0  2  0  0  0  0  0  0
  191.4870  173.7130  134.9540 C   0  0  0  0  0  2  0  0  0  0  0  0
  190.6200  173.5760  137.2980 C   0  0  0  0  0  0  0  0  0  0  0  0
  188.3070  174.2380  137.6550 C   0  0  0  0  0  3  0  0  0  0  0  0
  186.5660  177.8680  141.3590 C   0  0  0  0  0  3  0  0  0  0  0  0
  185.4380  177.6310  142.0460 N   0  0  0  0  0  0  0  0  0  0  0  0
  185.7410  177.1300  143.2300 N   0  0  0  0  0  0  0  0  0  0  0  0
  187.0850  177.0450  143.2400 C   0  0  0  0  0  0  0  0  0  0  0  0
  187.6410  177.4980  142.0920 N   0  0  0  0  0  0  0  0  0  0  0  0
  184.1410  177.9750  141.6470 C   0  0  0  0  0  0  0  0  0  0  0  0
  181.6820  178.6660  140.8870 C   0  0  0  0  0  1  0  0  0  0  0  0
  183.0280  178.2830  141.3030 C   0  0  0  0  0  0  0  0  0  0  0  0
  190.0720  174.9280  147.5510 O   0  0  0  0  0  0  0  0  0  0  0  0
  191.1700  175.5840  148.0640 N   0  0  0  0  0  2  0  0  0  0  0  0
  191.6440  176.4350  147.0570 N   0  0  0  0  0  2  0  0  0  0  0  0
  195.9860  174.8190  143.0980 C   0  0  0  0  0  2  0  0  0  0  0  0
  192.8810  175.9150  146.6480 N   0  0  0  0  0  2  0  0  0  0  0  0
  196.1880  173.7590  145.2120 C   0  0  0  0  0  2  0  0  0  0  0  0
  192.8330  177.0360  144.6080 O   0  0  0  0  0  0  0  0  0  0  0  0
  194.7000  175.6820  144.9800 N   0  0  0  0  0  0  0  0  0  0  0  0
  193.4460  176.2500  145.3810 C   0  0  0  0  0  0  0  0  0  0  0  0
  195.3050  176.0460  143.6990 C   0  0  0  0  0  2  0  0  0  0  0  0
  195.4940  174.9160  145.9350 C   0  0  0  0  0  2  0  0  0  0  0  0
  196.9360  174.2630  144.0590 N   0  0  0  0  0  2  0  0  0  0  0  0
  1  4  1  0  0  0  0
  2  6  1  0  0  0  0
  2  5  2  0  0  0  0
  3  4  2  0  0  0  0
  3 32  1  0  0  0  0
  5  3  1  0  0  0  0
  6  1  2  0  0  0  0
  7 12  1  6  0  0  0
  7  8  1  0  0  0  0
  7 10  1  0  0  0  0
  8  9  1  0  0  0  0
 10 11  1  0  0  0  0
 11  9  1  0  0  0  0
 11  5  1  6  0  0  0
 13 12  2  0  0  0  0
 14 13  1  0  0  0  0
 15 22  2  0  0  0  0
 15 23  1  0  0  0  0
 16 15  1  0  0  0  0
 17 14  1  0  0  0  0
 18 21  1  0  0  0  0
 18 16  1  0  0  0  0
 19 14  2  0  0  0  0
 20 22  1  0  0  0  0
 21 20  1  0  0  0  0
 22 19  1  0  0  0  0
 23 17  2  0  0  0  0
 24 25  1  0  0  0  0
 24 28  2  0  0  0  0
 25 26  1  0  0  0  0
 26 27  2  0  0  0  0
 27  6  1  0  0  0  0
 28 27  1  0  0  0  0
 29 25  1  0  0  0  0
 30 31  1  0  0  0  0
 31 29  3  0  0  0  0
 32 33  1  0  0  0  0
 34 33  1  0  0  0  0
 35 41  1  0  0  0  0
 35 43  1  0  0  0  0
 36 34  1  0  0  0  0
 37 42  1  0  0  0  0
 38 40  2  0  0  0  0
 39 40  1  0  0  0  0
 39 42  1  0  0  0  0
 40 36  1  0  0  0  0
 41 39  1  0  0  0  0
 43 37  1  0  0  0  0
M  END
>  <MODEL>
6

>  <REMARK>
 VINA RESULT:      -7.6      2.941      6.791
  Name = 
  9 active torsions:
  status: ('A' for Active; 'I' for Inactive)
    1  A    between atoms: C_3  and  C_21
    2  A    between atoms: C_4  and  O_32
    3  A    between atoms: N_7  and  C_8
    4  A    between atoms: N_9  and  N_12
    5  A    between atoms: N_9  and  N_18
    6  A    between atoms: C_10  and  N_37
    7  A    between atoms: C_16  and  C_25
    8  A    between atoms: N_18  and  O_32
    9  A    between atoms: C_27  and  C_30
                            x       y       z     vdW  Elec       q    Type
                         _______ _______ _______ _____ _____    ______ ____

>  <TORSDO>
F 9

$$$$
=
 OpenBabel11042419203D

 43 48  0  0  1  0  0  0  0  0999 V2000
  186.4820  177.8570  141.1130 C   0  0  0  0  0  3  0  0  0  0  0  0
  185.7120  178.0140  143.3660 N   0  0  0  0  0  0  0  0  0  0  0  0
  188.0590  177.8090  142.9540 C   0  0  0  0  0  0  0  0  0  0  0  0
  187.7940  177.7730  141.5790 C   0  0  0  0  0  3  0  0  0  0  0  0
  186.9850  177.9340  143.8470 C   0  0  0  0  0  0  0  0  0  0  0  0
  185.4360  177.9810  142.0320 C   0  0  0  0  0  0  0  0  0  0  0  0
  188.8590  176.8290  146.7220 C   0  0  2  0  0  3  0  0  0  0  0  0
  187.6730  175.9020  146.5520 C   0  0  0  0  0  2  0  0  0  0  0  0
  186.5590  176.7870  146.0300 C   0  0  0  0  0  2  0  0  0  0  0  0
  188.7240  177.8530  145.6150 C   0  0  0  0  0  2  0  0  0  0  0  0
  187.2360  177.9560  145.3250 C   0  0  1  0  0  3  0  0  0  0  0  0
  190.1430  176.0890  146.5780 C   0  0  0  0  0  3  0  0  0  0  0  0
  191.2470  176.7310  146.3630 N   0  0  0  0  0  0  0  0  0  0  0  0
  192.5130  176.0830  146.1960 C   0  0  0  0  0  0  0  0  0  0  0  0
  194.9650  174.7630  145.8450 C   0  0  0  0  0  0  0  0  0  0  0  0
  196.2780  174.0480  145.7260 C   0  0  0  0  0  2  0  0  0  0  0  0
  193.7240  176.7910  146.3040 C   0  0  0  0  0  3  0  0  0  0  0  0
  196.1390  172.8480  144.9010 N   0  0  0  0  0  2  0  0  0  0  0  0
  192.5390  174.7120  145.9160 C   0  0  0  0  0  3  0  0  0  0  0  0
  193.7570  172.5840  145.3920 C   0  0  0  0  0  2  0  0  0  0  0  0
  195.1500  171.9750  145.5280 C   0  0  0  0  0  2  0  0  0  0  0  0
  193.7570  174.0420  145.7570 C   0  0  0  0  0  0  0  0  0  0  0  0
  194.9450  176.1310  146.1340 C   0  0  0  0  0  3  0  0  0  0  0  0
  182.3410  178.1940  140.3090 C   0  0  0  0  0  3  0  0  0  0  0  0
  181.9400  178.3320  141.5820 N   0  0  0  0  0  0  0  0  0  0  0  0
  182.9910  178.2930  142.3810 N   0  0  0  0  0  0  0  0  0  0  0  0
  184.0450  178.1030  141.5640 C   0  0  0  0  0  0  0  0  0  0  0  0
  183.6840  178.0380  140.2610 N   0  0  0  0  0  0  0  0  0  0  0  0
  180.6370  178.6090  142.0110 C   0  0  0  0  0  0  0  0  0  0  0  0
  178.1450  179.1030  142.8160 C   0  0  0  0  0  1  0  0  0  0  0  0
  179.5120  178.8360  142.3770 C   0  0  0  0  0  0  0  0  0  0  0  0
  189.3660  177.7130  143.4410 O   0  0  0  0  0  0  0  0  0  0  0  0
  190.4220  178.3190  142.7940 N   0  0  0  0  0  2  0  0  0  0  0  0
  191.5190  177.4540  142.9040 N   0  0  0  0  0  2  0  0  0  0  0  0
  191.3220  171.5760  141.3050 C   0  0  0  0  0  2  0  0  0  0  0  0
  191.0000  176.1510  142.8600 N   0  0  0  0  0  2  0  0  0  0  0  0
  189.2320  172.4310  142.0360 C   0  0  0  0  0  2  0  0  0  0  0  0
  193.0500  175.2100  142.2830 O   0  0  0  0  0  0  0  0  0  0  0  0
  191.2620  173.7170  142.4700 N   0  0  0  0  0  0  0  0  0  0  0  0
  191.8260  175.0340  142.5320 C   0  0  0  0  0  0  0  0  0  0  0  0
  192.1060  172.5610  142.1690 C   0  0  0  0  0  2  0  0  0  0  0  0
  189.8960  173.4850  142.9250 C   0  0  0  0  0  2  0  0  0  0  0  0
  190.0670  171.2310  141.9680 N   0  0  0  0  0  2  0  0  0  0  0  0
  1  4  2  0  0  0  0
  1  6  1  0  0  0  0
  2  5  1  0  0  0  0
  3 32  1  0  0  0  0
  3  5  2  0  0  0  0
  4  3  1  0  0  0  0
  6  2  2  0  0  0  0
  7 12  1  6  0  0  0
  8  7  1  0  0  0  0
  9  8  1  0  0  0  0
 10  7  1  0  0  0  0
 11  5  1  6  0  0  0
 11 10  1  0  0  0  0
 11  9  1  0  0  0  0
 13 12  2  0  0  0  0
 14 17  1  0  0  0  0
 14 13  1  0  0  0  0
 15 23  1  0  0  0  0
 16 15  1  0  0  0  0
 18 21  1  0  0  0  0
 18 16  1  0  0  0  0
 19 14  2  0  0  0  0
 20 21  1  0  0  0  0
 20 22  1  0  0  0  0
 22 15  2  0  0  0  0
 22 19  1  0  0  0  0
 23 17  2  0  0  0  0
 24 25  1  0  0  0  0
 25 29  1  0  0  0  0
 25 26  1  0  0  0  0
 27  6  1  0  0  0  0
 27 26  2  0  0  0  0
 28 24  2  0  0  0  0
 28 27  1  0  0  0  0
 29 31  3  0  0  0  0
 31 30  1  0  0  0  0
 33 34  1  0  0  0  0
 33 32  1  0  0  0  0
 35 43  1  0  0  0  0
 35 41  1  0  0  0  0
 36 34  1  0  0  0  0
 37 42  1  0  0  0  0
 38 40  2  0  0  0  0
 39 40  1  0  0  0  0
 39 42  1  0  0  0  0
 40 36  1  0  0  0  0
 41 39  1  0  0  0  0
 43 37  1  0  0  0  0
M  END
>  <MODEL>
7

>  <REMARK>
 VINA RESULT:      -7.5      2.809      7.808
  Name = 
  9 active torsions:
  status: ('A' for Active; 'I' for Inactive)
    1  A    between atoms: C_3  and  C_21
    2  A    between atoms: C_4  and  O_32
    3  A    between atoms: N_7  and  C_8
    4  A    between atoms: N_9  and  N_12
    5  A    between atoms: N_9  and  N_18
    6  A    between atoms: C_10  and  N_37
    7  A    between atoms: C_16  and  C_25
    8  A    between atoms: N_18  and  O_32
    9  A    between atoms: C_27  and  C_30
                            x       y       z     vdW  Elec       q    Type
                         _______ _______ _______ _____ _____    ______ ____

>  <TORSDO>
F 9

$$$$
=
 OpenBabel11042419203D

 43 48  0  0  1  0  0  0  0  0999 V2000
  191.7570  176.6080  147.4670 C   0  0  0  0  0  3  0  0  0  0  0  0
  191.1010  176.4370  145.1800 N   0  0  0  0  0  0  0  0  0  0  0  0
  189.5530  177.3370  146.7660 C   0  0  0  0  0  0  0  0  0  0  0  0
  190.5090  177.1530  147.7730 C   0  0  0  0  0  3  0  0  0  0  0  0
  189.8750  176.9680  145.4510 C   0  0  0  0  0  0  0  0  0  0  0  0
  192.0430  176.2520  146.1460 C   0  0  0  0  0  0  0  0  0  0  0  0
  188.3250  175.7960  142.4140 C   0  0  2  0  0  3  0  0  0  0  0  0
  189.4560  176.7270  142.0320 C   0  0  0  0  0  2  0  0  0  0  0  0
  189.4750  177.7840  143.1200 C   0  0  0  0  0  2  0  0  0  0  0  0
  188.3120  175.7850  143.9280 C   0  0  0  0  0  2  0  0  0  0  0  0
  188.8640  177.1350  144.3560 C   0  0  1  0  0  3  0  0  0  0  0  0
  188.5640  174.4200  141.8970 C   0  0  0  0  0  3  0  0  0  0  0  0
  189.7430  173.8910  141.9670 N   0  0  0  0  0  0  0  0  0  0  0  0
  190.0480  172.5830  141.4730 C   0  0  0  0  0  0  0  0  0  0  0  0
  190.6410  170.0390  140.4450 C   0  0  0  0  0  0  0  0  0  0  0  0
  190.8950  168.6600  139.9130 C   0  0  0  0  0  2  0  0  0  0  0  0
  190.5310  171.5680  142.3190 C   0  0  0  0  0  3  0  0  0  0  0  0
  191.2060  168.7070  138.4840 N   0  0  0  0  0  2  0  0  0  0  0  0
  189.8600  172.3130  140.1120 C   0  0  0  0  0  3  0  0  0  0  0  0
  189.9890  170.7980  138.1180 C   0  0  0  0  0  2  0  0  0  0  0  0
  190.0710  169.3100  137.7900 C   0  0  0  0  0  2  0  0  0  0  0  0
  190.1360  171.0430  139.5950 C   0  0  0  0  0  0  0  0  0  0  0  0
  190.8220  170.3000  141.8070 C   0  0  0  0  0  3  0  0  0  0  0  0
  195.3410  175.5280  145.0560 C   0  0  0  0  0  3  0  0  0  0  0  0
  194.9810  174.3530  145.5950 N   0  0  0  0  0  0  0  0  0  0  0  0
  193.7440  174.4370  146.0480 N   0  0  0  0  0  0  0  0  0  0  0  0
  193.3630  175.7040  145.7930 C   0  0  0  0  0  0  0  0  0  0  0  0
  194.3300  176.4190  145.1710 N   0  0  0  0  0  0  0  0  0  0  0  0
  195.7310  173.1710  145.5730 C   0  0  0  0  0  0  0  0  0  0  0  0
  197.1890  170.9400  145.5440 C   0  0  0  0  0  1  0  0  0  0  0  0
  196.3860  172.1600  145.5590 C   0  0  0  0  0  0  0  0  0  0  0  0
  188.2930  177.8690  147.0540 O   0  0  0  0  0  0  0  0  0  0  0  0
  187.2090  177.0570  147.3120 N   0  0  0  0  0  2  0  0  0  0  0  0
  186.0610  177.8370  147.1230 N   0  0  0  0  0  2  0  0  0  0  0  0
  183.0940  178.2920  141.8180 C   0  0  0  0  0  2  0  0  0  0  0  0
  185.9250  178.0120  145.7370 N   0  0  0  0  0  2  0  0  0  0  0  0
  185.4020  177.7950  141.5750 C   0  0  0  0  0  2  0  0  0  0  0  0
  183.6930  178.6510  145.9000 O   0  0  0  0  0  0  0  0  0  0  0  0
  184.5720  178.5720  143.7370 N   0  0  0  0  0  0  0  0  0  0  0  0
  184.6880  178.4260  145.1590 C   0  0  0  0  0  0  0  0  0  0  0  0
  183.3200  179.0300  143.1370 C   0  0  0  0  0  2  0  0  0  0  0  0
  185.7600  178.4840  142.8940 C   0  0  0  0  0  2  0  0  0  0  0  0
  184.2580  178.4640  140.9530 N   0  0  0  0  0  2  0  0  0  0  0  0
  1  4  1  0  0  0  0
  2  5  2  0  0  0  0
  2  6  1  0  0  0  0
  3 32  1  0  0  0  0
  3  4  2  0  0  0  0
  5  3  1  0  0  0  0
  6  1  2  0  0  0  0
  7 12  1  6  0  0  0
  7 10  1  0  0  0  0
  8  7  1  0  0  0  0
  8  9  1  0  0  0  0
  9 11  1  0  0  0  0
 10 11  1  0  0  0  0
 11  5  1  1  0  0  0
 12 13  2  0  0  0  0
 14 13  1  0  0  0  0
 14 17  1  0  0  0  0
 15 23  1  0  0  0  0
 16 15  1  0  0  0  0
 18 16  1  0  0  0  0
 19 14  2  0  0  0  0
 20 22  1  0  0  0  0
 21 20  1  0  0  0  0
 21 18  1  0  0  0  0
 22 19  1  0  0  0  0
 22 15  2  0  0  0  0
 23 17  2  0  0  0  0
 24 28  2  0  0  0  0
 24 25  1  0  0  0  0
 25 26  1  0  0  0  0
 27 26  2  0  0  0  0
 27  6  1  0  0  0  0
 28 27  1  0  0  0  0
 29 25  1  0  0  0  0
 30 31  1  0  0  0  0
 31 29  3  0  0  0  0
 32 33  1  0  0  0  0
 34 33  1  0  0  0  0
 35 41  1  0  0  0  0
 36 34  1  0  0  0  0
 37 42  1  0  0  0  0
 39 40  1  0  0  0  0
 40 36  1  0  0  0  0
 40 38  2  0  0  0  0
 41 39  1  0  0  0  0
 42 39  1  0  0  0  0
 43 37  1  0  0  0  0
 43 35  1  0  0  0  0
M  END
>  <MODEL>
8

>  <REMARK>
 VINA RESULT:      -7.5      3.412      9.659
  Name = 
  9 active torsions:
  status: ('A' for Active; 'I' for Inactive)
    1  A    between atoms: C_3  and  C_21
    2  A    between atoms: C_4  and  O_32
    3  A    between atoms: N_7  and  C_8
    4  A    between atoms: N_9  and  N_12
    5  A    between atoms: N_9  and  N_18
    6  A    between atoms: C_10  and  N_37
    7  A    between atoms: C_16  and  C_25
    8  A    between atoms: N_18  and  O_32
    9  A    between atoms: C_27  and  C_30
                            x       y       z     vdW  Elec       q    Type
                         _______ _______ _______ _____ _____    ______ ____

>  <TORSDO>
F 9

$$$$
=
 OpenBabel11042419203D

 43 48  0  0  1  0  0  0  0  0999 V2000
  192.6110  171.2710  142.6940 C   0  0  0  0  0  3  0  0  0  0  0  0
  191.9820  173.3330  143.7140 N   0  0  0  0  0  0  0  0  0  0  0  0
  193.7800  172.0730  144.6610 C   0  0  0  0  0  0  0  0  0  0  0  0
  193.6050  171.1090  143.6600 C   0  0  0  0  0  3  0  0  0  0  0  0
  192.9440  173.1990  144.6690 C   0  0  0  0  0  0  0  0  0  0  0  0
  191.7970  172.4060  142.7330 C   0  0  0  0  0  0  0  0  0  0  0  0
  191.8090  176.2110  146.2950 C   0  0  2  0  0  3  0  0  0  0  0  0
  192.8210  176.6030  145.2390 C   0  0  0  0  0  2  0  0  0  0  0  0
  193.8310  175.4720  145.2290 C   0  0  0  0  0  2  0  0  0  0  0  0
  191.7350  174.7000  146.2330 C   0  0  0  0  0  2  0  0  0  0  0  0
  193.0970  174.2390  145.7400 C   0  0  1  0  0  3  0  0  0  0  0  0
  190.4730  176.7990  146.0030 C   0  0  0  0  0  3  0  0  0  0  0  0
  189.7010  176.2590  145.1150 N   0  0  0  0  0  0  0  0  0  0  0  0
  188.4140  176.7820  144.7700 C   0  0  0  0  0  0  0  0  0  0  0  0
  185.8860  177.8330  144.1530 C   0  0  0  0  0  0  0  0  0  0  0  0
  184.5090  178.3310  143.8280 C   0  0  0  0  0  2  0  0  0  0  0  0
  187.9520  176.7900  143.4420 C   0  0  0  0  0  3  0  0  0  0  0  0
  184.0670  179.3110  144.8200 N   0  0  0  0  0  2  0  0  0  0  0  0
  187.6000  177.2990  145.7850 C   0  0  0  0  0  3  0  0  0  0  0  0
  185.5040  178.4170  146.5870 C   0  0  0  0  0  2  0  0  0  0  0  0
  184.0690  178.6660  146.1310 C   0  0  0  0  0  2  0  0  0  0  0  0
  186.3310  177.8080  145.4890 C   0  0  0  0  0  0  0  0  0  0  0  0
  186.6900  177.3100  143.1360 C   0  0  0  0  0  3  0  0  0  0  0  0
  188.8910  172.6850  140.7150 C   0  0  0  0  0  3  0  0  0  0  0  0
  189.8350  173.1440  139.8780 N   0  0  0  0  0  0  0  0  0  0  0  0
  191.0130  173.0950  140.4730 N   0  0  0  0  0  0  0  0  0  0  0  0
  190.7620  172.6150  141.7060 C   0  0  0  0  0  0  0  0  0  0  0  0
  189.4500  172.3430  141.8990 N   0  0  0  0  0  0  0  0  0  0  0  0
  189.6460  173.4980  138.5370 C   0  0  0  0  0  0  0  0  0  0  0  0
  189.3170  174.1530  135.9750 C   0  0  0  0  0  1  0  0  0  0  0  0
  189.4930  173.7960  137.3800 C   0  0  0  0  0  0  0  0  0  0  0  0
  194.7610  171.9220  145.6450 O   0  0  0  0  0  0  0  0  0  0  0  0
  195.7970  171.0240  145.4990 N   0  0  0  0  0  2  0  0  0  0  0  0
  196.9870  171.7600  145.5580 N   0  0  0  0  0  2  0  0  0  0  0  0
  196.4420  176.5430  141.8210 C   0  0  0  0  0  2  0  0  0  0  0  0
  197.0790  172.4600  144.3460 N   0  0  0  0  0  2  0  0  0  0  0  0
  196.6120  174.4660  140.6850 C   0  0  0  0  0  2  0  0  0  0  0  0
  197.0660  174.5410  145.3910 O   0  0  0  0  0  0  0  0  0  0  0  0
  197.1800  174.5760  143.0580 N   0  0  0  0  0  0  0  0  0  0  0  0
  197.1120  173.8860  144.3130 C   0  0  0  0  0  0  0  0  0  0  0  0
  197.2490  176.0360  143.0140 C   0  0  0  0  0  2  0  0  0  0  0  0
  197.4090  173.8290  141.8250 C   0  0  0  0  0  2  0  0  0  0  0  0
  196.9130  175.8960  140.5980 N   0  0  0  0  0  2  0  0  0  0  0  0
  1  6  2  0  0  0  0
  1  4  1  0  0  0  0
  2  5  2  0  0  0  0
  3  5  1  0  0  0  0
  3 32  1  0  0  0  0
  4  3  2  0  0  0  0
  6  2  1  0  0  0  0
  7 12  1  6  0  0  0
  8  7  1  0  0  0  0
  9  8  1  0  0  0  0
  9 11  1  0  0  0  0
 10  7  1  0  0  0  0
 11  5  1  6  0  0  0
 11 10  1  0  0  0  0
 13 12  2  0  0  0  0
 14 13  1  0  0  0  0
 14 19  1  0  0  0  0
 15 22  1  0  0  0  0
 16 15  1  0  0  0  0
 16 18  1  0  0  0  0
 17 14  2  0  0  0  0
 18 21  1  0  0  0  0
 21 20  1  0  0  0  0
 22 19  2  0  0  0  0
 22 20  1  0  0  0  0
 23 17  1  0  0  0  0
 23 15  2  0  0  0  0
 24 28  2  0  0  0  0
 25 26  1  0  0  0  0
 25 24  1  0  0  0  0
 26 27  2  0  0  0  0
 27 28  1  0  0  0  0
 27  6  1  0  0  0  0
 29 25  1  0  0  0  0
 30 31  1  0  0  0  0
 31 29  3  0  0  0  0
 33 34  1  0  0  0  0
 33 32  1  0  0  0  0
 35 41  1  0  0  0  0
 36 34  1  0  0  0  0
 37 42  1  0  0  0  0
 39 40  1  0  0  0  0
 40 36  1  0  0  0  0
 40 38  2  0  0  0  0
 41 39  1  0  0  0  0
 42 39  1  0  0  0  0
 43 37  1  0  0  0  0
 43 35  1  0  0  0  0
M  END
>  <MODEL>
9

>  <REMARK>
 VINA RESULT:      -7.4      1.212      1.993
  Name = 
  9 active torsions:
  status: ('A' for Active; 'I' for Inactive)
    1  A    between atoms: C_3  and  C_21
    2  A    between atoms: C_4  and  O_32
    3  A    between atoms: N_7  and  C_8
    4  A    between atoms: N_9  and  N_12
    5  A    between atoms: N_9  and  N_18
    6  A    between atoms: C_10  and  N_37
    7  A    between atoms: C_16  and  C_25
    8  A    between atoms: N_18  and  O_32
    9  A    between atoms: C_27  and  C_30
                            x       y       z     vdW  Elec       q    Type
                         _______ _______ _______ _____ _____    ______ ____

>  <TORSDO>
F 9

$$$$
