=
 OpenBabel11042418023D

 35 37  0  0  1  0  0  0  0  0999 V2000
  188.6820  177.0180  146.1570 C   0  0  2  0  0  3  0  0  0  0  0  0
  184.4160  177.8960  146.1050 C   0  0  0  0  0  3  0  0  0  0  0  0
  185.0580  177.7710  147.2780 C   0  0  0  0  0  3  0  0  0  0  0  0
  183.7760  178.1620  142.8480 N   0  0  0  0  0  0  0  0  0  0  0  0
  186.5780  177.6640  147.4060 C   0  0  1  0  0  3  0  0  0  0  0  0
  186.0470  177.7860  142.8810 C   0  0  0  0  0  0  0  0  0  0  0  0
  187.2760  177.4190  146.1260 N   0  0  0  0  0  0  0  0  0  0  0  0
  184.9080  177.9670  143.5580 C   0  0  0  0  0  0  0  0  0  0  0  0
  187.0780  177.5730  143.6680 O   0  0  0  0  0  0  0  0  0  0  0  0
  186.5700  177.6190  144.8940 C   0  0  0  0  0  0  0  0  0  0  0  0
  185.2130  177.8690  144.8850 C   0  0  0  0  0  0  0  0  0  0  0  0
  187.0920  178.8780  148.0170 N   0  0  0  0  0  1  0  0  0  0  0  0
  185.7860  177.8610  141.2330 S   0  0  0  0  0  0  0  0  0  0  0  0
  184.1100  178.1360  141.5250 C   0  0  0  0  0  0  0  0  0  0  0  0
  183.1060  178.3050  140.4400 C   0  0  0  0  0  2  0  0  0  0  0  0
  181.8390  178.4840  140.9950 O   0  0  0  0  0  1  0  0  0  0  0  0
  189.4840  177.8170  145.1350 C   0  0  0  0  0  2  0  0  0  0  0  0
  190.6830  177.6560  143.2830 C   0  0  0  0  0  1  0  0  0  0  0  0
  190.3500  176.9650  144.4470 O   0  0  0  0  0  0  0  0  0  0  0  0
  188.8060  175.5100  145.9420 C   0  0  0  0  0  2  0  0  0  0  0  0
  189.2210  174.7860  147.2120 C   0  0  0  0  0  2  0  0  0  0  0  0
  190.5770  175.1660  147.5700 N   0  0  0  0  0  2  0  0  0  0  0  0
  191.4000  174.5280  146.7000 O   0  0  0  0  0  0  0  0  0  0  0  0
  192.5220  175.3560  146.6190 C   0  0  0  0  0  2  0  0  0  0  0  0
  193.6430  174.6460  145.8760 C   0  0  1  0  0  3  0  0  0  0  0  0
  192.5080  174.2720  143.7520 C   0  0  0  0  0  3  0  0  0  0  0  0
  193.0770  172.3560  145.0560 O   0  0  0  0  0  1  0  0  0  0  0  0
  193.0520  173.7330  144.8470 C   0  0  0  0  0  0  0  0  0  0  0  0
  191.9450  173.5310  142.6560 N   0  0  0  0  0  0  0  0  0  0  0  0
  192.7840  173.2970  141.4950 C   0  0  0  0  0  1  0  0  0  0  0  0
  189.9610  173.1120  141.2990 C   0  0  0  0  0  1  0  0  0  0  0  0
  190.6060  172.9510  142.6610 C   0  0  0  0  0  2  0  0  0  0  0  0
  194.5650  175.6700  145.2260 C   0  0  0  0  0  2  0  0  0  0  0  0
  194.9250  177.8330  146.0700 O   0  0  0  0  0  0  0  0  0  0  0  0
  194.1330  177.0570  145.5660 C   0  0  0  0  0  3  0  0  0  0  0  0
  1 17  1  6  0  0  0
  2  3  2  0  0  0  0
  3  5  1  0  0  0  0
  4  8  1  0  0  0  0
  5 12  1  6  0  0  0
  6  8  2  0  0  0  0
  6  9  1  0  0  0  0
  7  1  1  0  0  0  0
  7  5  1  0  0  0  0
  8 11  1  0  0  0  0
  9 10  1  0  0  0  0
 10  7  1  0  0  0  0
 11 10  2  0  0  0  0
 11  2  1  0  0  0  0
 13 14  1  0  0  0  0
 13  6  1  0  0  0  0
 14  4  2  0  0  0  0
 15 16  1  0  0  0  0
 15 14  1  0  0  0  0
 18 19  1  0  0  0  0
 19 17  1  0  0  0  0
 20  1  1  0  0  0  0
 20 21  1  0  0  0  0
 21 22  1  0  0  0  0
 23 22  1  0  0  0  0
 24 23  1  0  0  0  0
 25 33  1  6  0  0  0
 25 24  1  0  0  0  0
 26 28  2  0  0  0  0
 28 27  1  0  0  0  0
 28 25  1  0  0  0  0
 29 32  1  0  0  0  0
 29 26  1  0  0  0  0
 30 29  1  0  0  0  0
 31 32  1  0  0  0  0
 33 35  1  0  0  0  0
 35 34  2  0  0  0  0
M  END
>  <MODEL>
1

>  <REMARK>
 VINA RESULT:      -6.0      0.000      0.000
  Name = 
  15 active torsions:
  status: ('A' for Active; 'I' for Inactive)
    1  A    between atoms: N_3  and  C_25
    2  A    between atoms: N_3  and  O_34
    3  A    between atoms: C_6  and  N_10
    4  A    between atoms: C_8  and  C_16
    5  A    between atoms: C_8  and  O_17
    6  A    between atoms: C_9  and  C_35
    7  A    between atoms: N_10  and  C_30
    8  A    between atoms: C_12  and  C_15
    9  A    between atoms: C_15  and  C_21
   10  A    between atoms: C_16  and  N_18
   11  A    between atoms: C_16  and  C_32
   12  A    between atoms: C_21  and  C_29
   13  A    between atoms: C_21  and  C_31
   14  A    between atoms: C_25  and  C_32
   15  A    between atoms: C_31  and  O_34
                            x       y       z     vdW  Elec       q    Type
                         _______ _______ _______ _____ _____    ______ ____

>  <TORSDO>
F 15

$$$$
=
 OpenBabel11042418023D

 35 37  0  0  1  0  0  0  0  0999 V2000
  189.3640  176.5600  145.0940 C   0  0  2  0  0  3  0  0  0  0  0  0
  185.1290  177.2450  145.8430 C   0  0  0  0  0  3  0  0  0  0  0  0
  185.9540  176.9810  146.8680 C   0  0  0  0  0  3  0  0  0  0  0  0
  183.9650  177.9490  142.8030 N   0  0  0  0  0  0  0  0  0  0  0  0
  187.4760  176.9240  146.7390 C   0  0  1  0  0  3  0  0  0  0  0  0
  186.2190  177.6730  142.4230 C   0  0  0  0  0  0  0  0  0  0  0  0
  187.9640  176.8980  145.3430 N   0  0  0  0  0  0  0  0  0  0  0  0
  185.2000  177.7040  143.2900 C   0  0  0  0  0  0  0  0  0  0  0  0
  187.3670  177.3950  142.9980 O   0  0  0  0  0  0  0  0  0  0  0  0
  187.0630  177.2410  144.2810 C   0  0  0  0  0  0  0  0  0  0  0  0
  185.7180  177.4290  144.5220 C   0  0  0  0  0  0  0  0  0  0  0  0
  188.0570  178.0590  147.4370 N   0  0  0  0  0  1  0  0  0  0  0  0
  185.6930  177.9730  140.8660 S   0  0  0  0  0  0  0  0  0  0  0  0
  184.0810  178.1280  141.4550 C   0  0  0  0  0  0  0  0  0  0  0  0
  182.9110  178.4070  140.5790 C   0  0  0  0  0  2  0  0  0  0  0  0
  181.7360  178.0320  141.2300 O   0  0  0  0  0  1  0  0  0  0  0  0
  189.9670  175.8630  146.3090 C   0  0  0  0  0  2  0  0  0  0  0  0
  191.2930  176.4340  147.9840 C   0  0  0  0  0  1  0  0  0  0  0  0
  191.2180  176.4130  146.5920 O   0  0  0  0  0  0  0  0  0  0  0  0
  190.1460  177.8120  144.6940 C   0  0  0  0  0  2  0  0  0  0  0  0
  190.9500  177.6000  143.4230 C   0  0  0  0  0  2  0  0  0  0  0  0
  190.6010  176.3180  142.8330 N   0  0  0  0  0  2  0  0  0  0  0  0
  191.7470  175.8030  142.3190 O   0  0  0  0  0  0  0  0  0  0  0  0
  191.4410  174.4640  142.0710 C   0  0  0  0  0  2  0  0  0  0  0  0
  190.0310  174.1520  142.5480 C   0  0  1  0  0  3  0  0  0  0  0  0
  189.7590  173.6800  140.1730 C   0  0  0  0  0  3  0  0  0  0  0  0
  187.9380  173.1520  141.6220 O   0  0  0  0  0  1  0  0  0  0  0  0
  189.2220  173.6430  141.3960 C   0  0  0  0  0  0  0  0  0  0  0  0
  189.1320  173.1870  138.9770 N   0  0  0  0  0  0  0  0  0  0  0  0
  189.2750  171.7760  138.6700 C   0  0  0  0  0  1  0  0  0  0  0  0
  189.0270  174.2130  136.7660 C   0  0  0  0  0  1  0  0  0  0  0  0
  188.3120  174.0030  138.0860 C   0  0  0  0  0  2  0  0  0  0  0  0
  190.0790  173.1260  143.6730 C   0  0  0  0  0  2  0  0  0  0  0  0
  191.1580  171.1170  143.1060 O   0  0  0  0  0  0  0  0  0  0  0  0
  191.2800  172.2500  143.5350 C   0  0  0  0  0  3  0  0  0  0  0  0
  1 20  1  1  0  0  0
  1  7  1  0  0  0  0
  1 17  1  0  0  0  0
  2  3  2  0  0  0  0
  4  8  1  0  0  0  0
  5  3  1  0  0  0  0
  5 12  1  6  0  0  0
  6  9  1  0  0  0  0
  6  8  2  0  0  0  0
  7  5  1  0  0  0  0
  8 11  1  0  0  0  0
  9 10  1  0  0  0  0
 10 11  2  0  0  0  0
 10  7  1  0  0  0  0
 11  2  1  0  0  0  0
 13 14  1  0  0  0  0
 13  6  1  0  0  0  0
 14  4  2  0  0  0  0
 15 16  1  0  0  0  0
 15 14  1  0  0  0  0
 17 19  1  0  0  0  0
 19 18  1  0  0  0  0
 21 20  1  0  0  0  0
 22 21  1  0  0  0  0
 23 22  1  0  0  0  0
 24 23  1  0  0  0  0
 25 24  1  6  0  0  0
 25 33  1  0  0  0  0
 26 28  2  0  0  0  0
 28 27  1  0  0  0  0
 28 25  1  0  0  0  0
 29 26  1  0  0  0  0
 30 29  1  0  0  0  0
 31 32  1  0  0  0  0
 32 29  1  0  0  0  0
 34 35  2  0  0  0  0
 35 33  1  0  0  0  0
M  END
>  <MODEL>
2

>  <REMARK>
 VINA RESULT:      -6.0      2.077      3.726
  Name = 
  15 active torsions:
  status: ('A' for Active; 'I' for Inactive)
    1  A    between atoms: N_3  and  C_25
    2  A    between atoms: N_3  and  O_34
    3  A    between atoms: C_6  and  N_10
    4  A    between atoms: C_8  and  C_16
    5  A    between atoms: C_8  and  O_17
    6  A    between atoms: C_9  and  C_35
    7  A    between atoms: N_10  and  C_30
    8  A    between atoms: C_12  and  C_15
    9  A    between atoms: C_15  and  C_21
   10  A    between atoms: C_16  and  N_18
   11  A    between atoms: C_16  and  C_32
   12  A    between atoms: C_21  and  C_29
   13  A    between atoms: C_21  and  C_31
   14  A    between atoms: C_25  and  C_32
   15  A    between atoms: C_31  and  O_34
                            x       y       z     vdW  Elec       q    Type
                         _______ _______ _______ _____ _____    ______ ____

>  <TORSDO>
F 15

$$$$
=
 OpenBabel11042418023D

 35 37  0  0  1  0  0  0  0  0999 V2000
  189.1080  176.5020  145.1380 C   0  0  2  0  0  3  0  0  0  0  0  0
  184.9220  177.4000  145.9350 C   0  0  0  0  0  3  0  0  0  0  0  0
  185.7500  177.1200  146.9540 C   0  0  0  0  0  3  0  0  0  0  0  0
  183.7440  178.0930  142.8980 N   0  0  0  0  0  0  0  0  0  0  0  0
  187.2660  176.9890  146.8030 C   0  0  1  0  0  3  0  0  0  0  0  0
  185.9760  177.7040  142.4910 C   0  0  0  0  0  0  0  0  0  0  0  0
  187.7290  176.9100  145.4010 N   0  0  0  0  0  0  0  0  0  0  0  0
  184.9740  177.8010  143.3720 C   0  0  0  0  0  0  0  0  0  0  0  0
  187.1200  177.3850  143.0540 O   0  0  0  0  0  0  0  0  0  0  0  0
  186.8290  177.2730  144.3450 C   0  0  0  0  0  0  0  0  0  0  0  0
  185.4980  177.5280  144.6020 C   0  0  0  0  0  0  0  0  0  0  0  0
  187.9100  178.1100  147.4670 N   0  0  0  0  0  1  0  0  0  0  0  0
  185.4400  177.9960  140.9360 S   0  0  0  0  0  0  0  0  0  0  0  0
  183.8470  178.2380  141.5450 C   0  0  0  0  0  0  0  0  0  0  0  0
  182.6770  178.5520  140.6800 C   0  0  0  0  0  2  0  0  0  0  0  0
  182.4360  177.4900  139.8100 O   0  0  0  0  0  1  0  0  0  0  0  0
  189.6380  175.6490  146.2860 C   0  0  0  0  0  2  0  0  0  0  0  0
  191.2910  175.3160  147.7170 C   0  0  0  0  0  1  0  0  0  0  0  0
  190.7440  176.2740  146.8640 O   0  0  0  0  0  0  0  0  0  0  0  0
  189.9810  177.7290  144.8750 C   0  0  0  0  0  2  0  0  0  0  0  0
  190.4500  177.7970  143.4320 C   0  0  0  0  0  2  0  0  0  0  0  0
  190.3420  176.4820  142.8220 N   0  0  0  0  0  2  0  0  0  0  0  0
  191.5450  175.8770  142.9900 O   0  0  0  0  0  0  0  0  0  0  0  0
  191.4210  174.6680  142.3030 C   0  0  0  0  0  2  0  0  0  0  0  0
  192.1210  173.5560  143.0700 C   0  0  1  0  0  3  0  0  0  0  0  0
  193.5960  174.0220  144.9540 C   0  0  0  0  0  3  0  0  0  0  0  0
  194.3640  174.6140  142.7740 O   0  0  0  0  0  1  0  0  0  0  0  0
  193.4060  174.0790  143.6320 C   0  0  0  0  0  0  0  0  0  0  0  0
  194.7900  174.4370  145.6380 N   0  0  0  0  0  0  0  0  0  0  0  0
  194.7790  175.7310  146.2950 C   0  0  0  0  0  1  0  0  0  0  0  0
  197.1030  174.1800  144.9060 C   0  0  0  0  0  1  0  0  0  0  0  0
  195.9900  173.6150  145.7650 C   0  0  0  0  0  2  0  0  0  0  0  0
  191.2140  173.0400  144.1790 C   0  0  0  0  0  2  0  0  0  0  0  0
  189.3480  171.7930  143.4830 O   0  0  0  0  0  0  0  0  0  0  0  0
  189.8110  172.9000  143.6890 C   0  0  0  0  0  3  0  0  0  0  0  0
  1 20  1  1  0  0  0
  1  7  1  0  0  0  0
  1 17  1  0  0  0  0
  2  3  2  0  0  0  0
  4  8  1  0  0  0  0
  5  3  1  0  0  0  0
  5 12  1  6  0  0  0
  6  9  1  0  0  0  0
  6  8  2  0  0  0  0
  7  5  1  0  0  0  0
  8 11  1  0  0  0  0
  9 10  1  0  0  0  0
 10 11  2  0  0  0  0
 10  7  1  0  0  0  0
 11  2  1  0  0  0  0
 13 14  1  0  0  0  0
 13  6  1  0  0  0  0
 14  4  2  0  0  0  0
 15 14  1  0  0  0  0
 16 15  1  0  0  0  0
 17 19  1  0  0  0  0
 19 18  1  0  0  0  0
 21 20  1  0  0  0  0
 22 23  1  0  0  0  0
 22 21  1  0  0  0  0
 24 23  1  0  0  0  0
 25 24  1  1  0  0  0
 25 28  1  0  0  0  0
 25 33  1  0  0  0  0
 26 29  1  0  0  0  0
 27 28  1  0  0  0  0
 28 26  2  0  0  0  0
 29 32  1  0  0  0  0
 29 30  1  0  0  0  0
 31 32  1  0  0  0  0
 34 35  2  0  0  0  0
 35 33  1  0  0  0  0
M  END
>  <MODEL>
3

>  <REMARK>
 VINA RESULT:      -5.9      1.759      3.617
  Name = 
  15 active torsions:
  status: ('A' for Active; 'I' for Inactive)
    1  A    between atoms: N_3  and  C_25
    2  A    between atoms: N_3  and  O_34
    3  A    between atoms: C_6  and  N_10
    4  A    between atoms: C_8  and  C_16
    5  A    between atoms: C_8  and  O_17
    6  A    between atoms: C_9  and  C_35
    7  A    between atoms: N_10  and  C_30
    8  A    between atoms: C_12  and  C_15
    9  A    between atoms: C_15  and  C_21
   10  A    between atoms: C_16  and  N_18
   11  A    between atoms: C_16  and  C_32
   12  A    between atoms: C_21  and  C_29
   13  A    between atoms: C_21  and  C_31
   14  A    between atoms: C_25  and  C_32
   15  A    between atoms: C_31  and  O_34
                            x       y       z     vdW  Elec       q    Type
                         _______ _______ _______ _____ _____    ______ ____

>  <TORSDO>
F 15

$$$$
=
 OpenBabel11042418023D

 35 37  0  0  1  0  0  0  0  0999 V2000
  189.1130  176.5840  145.5310 C   0  0  2  0  0  3  0  0  0  0  0  0
  184.8580  177.4120  145.9510 C   0  0  0  0  0  3  0  0  0  0  0  0
  185.6020  177.1700  147.0420 C   0  0  0  0  0  3  0  0  0  0  0  0
  183.9280  178.0140  142.8110 N   0  0  0  0  0  0  0  0  0  0  0  0
  187.1270  177.0680  147.0230 C   0  0  1  0  0  3  0  0  0  0  0  0
  186.1950  177.6640  142.6020 C   0  0  0  0  0  0  0  0  0  0  0  0
  187.7090  176.9690  145.6670 N   0  0  0  0  0  0  0  0  0  0  0  0
  185.1200  177.7580  143.3930 C   0  0  0  0  0  0  0  0  0  0  0  0
  187.2920  177.3810  143.2670 O   0  0  0  0  0  0  0  0  0  0  0  0
  186.8950  177.2900  144.5310 C   0  0  0  0  0  0  0  0  0  0  0  0
  185.5430  177.5230  144.6680 C   0  0  0  0  0  0  0  0  0  0  0  0
  187.6910  178.2160  147.7120 N   0  0  0  0  0  1  0  0  0  0  0  0
  185.7870  177.9110  141.0010 S   0  0  0  0  0  0  0  0  0  0  0  0
  184.1430  178.1320  141.4670 C   0  0  0  0  0  0  0  0  0  0  0  0
  183.0450  178.4040  140.5000 C   0  0  0  0  0  2  0  0  0  0  0  0
  181.8240  178.0240  141.0560 O   0  0  0  0  0  1  0  0  0  0  0  0
  189.9010  177.6880  144.8330 C   0  0  0  0  0  2  0  0  0  0  0  0
  191.2290  178.2490  143.1560 C   0  0  0  0  0  1  0  0  0  0  0  0
  190.5670  177.1620  143.7250 O   0  0  0  0  0  0  0  0  0  0  0  0
  189.2250  175.2430  144.8040 C   0  0  0  0  0  2  0  0  0  0  0  0
  189.8100  174.1600  145.6950 C   0  0  0  0  0  2  0  0  0  0  0  0
  189.9820  172.9380  144.9270 N   0  0  0  0  0  2  0  0  0  0  0  0
  191.3190  172.7420  144.8060 O   0  0  0  0  0  0  0  0  0  0  0  0
  191.4960  172.4010  143.4630 C   0  0  0  0  0  2  0  0  0  0  0  0
  192.1860  173.5370  142.7220 C   0  0  1  0  0  3  0  0  0  0  0  0
  193.4510  175.2660  143.8830 C   0  0  0  0  0  3  0  0  0  0  0  0
  194.3780  173.0690  143.8210 O   0  0  0  0  0  1  0  0  0  0  0  0
  193.3780  173.9850  143.5070 C   0  0  0  0  0  0  0  0  0  0  0  0
  194.5030  175.8380  144.6780 N   0  0  0  0  0  0  0  0  0  0  0  0
  195.6830  176.3270  143.9900 C   0  0  0  0  0  1  0  0  0  0  0  0
  192.9880  176.0600  146.5790 C   0  0  0  0  0  1  0  0  0  0  0  0
  194.4340  176.0110  146.1260 C   0  0  0  0  0  2  0  0  0  0  0  0
  192.5950  173.0740  141.3300 C   0  0  0  0  0  2  0  0  0  0  0  0
  190.5830  173.7760  140.3390 O   0  0  0  0  0  0  0  0  0  0  0  0
  191.8000  173.7830  140.2840 C   0  0  0  0  0  3  0  0  0  0  0  0
  1 20  1  6  0  0  0
  1  7  1  0  0  0  0
  2  3  2  0  0  0  0
  4  8  1  0  0  0  0
  5  3  1  0  0  0  0
  5 12  1  6  0  0  0
  6  9  1  0  0  0  0
  6  8  2  0  0  0  0
  7  5  1  0  0  0  0
  8 11  1  0  0  0  0
  9 10  1  0  0  0  0
 10 11  2  0  0  0  0
 10  7  1  0  0  0  0
 11  2  1  0  0  0  0
 13 14  1  0  0  0  0
 13  6  1  0  0  0  0
 14  4  2  0  0  0  0
 15 16  1  0  0  0  0
 15 14  1  0  0  0  0
 17  1  1  0  0  0  0
 18 19  1  0  0  0  0
 19 17  1  0  0  0  0
 20 21  1  0  0  0  0
 22 21  1  0  0  0  0
 23 22  1  0  0  0  0
 24 23  1  0  0  0  0
 25 33  1  6  0  0  0
 25 24  1  0  0  0  0
 25 28  1  0  0  0  0
 26 29  1  0  0  0  0
 28 27  1  0  0  0  0
 28 26  2  0  0  0  0
 29 32  1  0  0  0  0
 30 29  1  0  0  0  0
 32 31  1  0  0  0  0
 35 34  2  0  0  0  0
 35 33  1  0  0  0  0
M  END
>  <MODEL>
4

>  <REMARK>
 VINA RESULT:      -5.9      1.558      3.075
  Name = 
  15 active torsions:
  status: ('A' for Active; 'I' for Inactive)
    1  A    between atoms: N_3  and  C_25
    2  A    between atoms: N_3  and  O_34
    3  A    between atoms: C_6  and  N_10
    4  A    between atoms: C_8  and  C_16
    5  A    between atoms: C_8  and  O_17
    6  A    between atoms: C_9  and  C_35
    7  A    between atoms: N_10  and  C_30
    8  A    between atoms: C_12  and  C_15
    9  A    between atoms: C_15  and  C_21
   10  A    between atoms: C_16  and  N_18
   11  A    between atoms: C_16  and  C_32
   12  A    between atoms: C_21  and  C_29
   13  A    between atoms: C_21  and  C_31
   14  A    between atoms: C_25  and  C_32
   15  A    between atoms: C_31  and  O_34
                            x       y       z     vdW  Elec       q    Type
                         _______ _______ _______ _____ _____    ______ ____

>  <TORSDO>
F 15

$$$$
=
 OpenBabel11042418023D

 35 37  0  0  1  0  0  0  0  0999 V2000
  189.5630  175.8520  144.8700 C   0  0  2  0  0  3  0  0  0  0  0  0
  185.4940  177.1160  145.7700 C   0  0  0  0  0  3  0  0  0  0  0  0
  186.3190  176.7600  146.7680 C   0  0  0  0  0  3  0  0  0  0  0  0
  184.3090  177.9210  142.7640 N   0  0  0  0  0  0  0  0  0  0  0  0
  187.8120  176.4960  146.5800 C   0  0  1  0  0  3  0  0  0  0  0  0
  186.4880  177.3370  142.3020 C   0  0  0  0  0  0  0  0  0  0  0  0
  188.2330  176.3800  145.1670 N   0  0  0  0  0  0  0  0  0  0  0  0
  185.5190  177.5190  143.2070 C   0  0  0  0  0  0  0  0  0  0  0  0
  187.6110  176.9160  142.8370 O   0  0  0  0  0  0  0  0  0  0  0  0
  187.3430  176.8250  144.1340 C   0  0  0  0  0  0  0  0  0  0  0  0
  186.0470  177.1970  144.4230 C   0  0  0  0  0  0  0  0  0  0  0  0
  188.5690  177.5530  147.2290 N   0  0  0  0  0  1  0  0  0  0  0  0
  185.9420  177.6800  140.7600 S   0  0  0  0  0  0  0  0  0  0  0  0
  184.3920  178.0610  141.4080 C   0  0  0  0  0  0  0  0  0  0  0  0
  183.2340  178.4810  140.5730 C   0  0  0  0  0  2  0  0  0  0  0  0
  182.0550  177.9630  141.1080 O   0  0  0  0  0  1  0  0  0  0  0  0
  189.8010  174.5520  145.6310 C   0  0  0  0  0  2  0  0  0  0  0  0
  190.9300  172.9260  144.6450 C   0  0  0  0  0  1  0  0  0  0  0  0
  189.6500  173.4670  144.7660 O   0  0  0  0  0  0  0  0  0  0  0  0
  190.6290  176.9060  145.1730 C   0  0  0  0  0  2  0  0  0  0  0  0
  192.0350  176.3700  144.9660 C   0  0  0  0  0  2  0  0  0  0  0  0
  192.8110  176.5520  146.1820 N   0  0  0  0  0  2  0  0  0  0  0  0
  193.5040  175.4020  146.3750 O   0  0  0  0  0  0  0  0  0  0  0  0
  194.8240  175.7400  146.0700 C   0  0  0  0  0  2  0  0  0  0  0  0
  195.4220  174.7130  145.1210 C   0  0  1  0  0  3  0  0  0  0  0  0
  195.9350  174.7020  142.7380 C   0  0  0  0  0  3  0  0  0  0  0  0
  196.2510  176.7450  143.9300 O   0  0  0  0  0  1  0  0  0  0  0  0
  195.8840  175.4030  143.8760 C   0  0  0  0  0  0  0  0  0  0  0  0
  196.3090  175.2310  141.4550 N   0  0  0  0  0  0  0  0  0  0  0  0
  195.2460  175.6470  140.5580 C   0  0  0  0  0  1  0  0  0  0  0  0
  197.9400  174.6930  139.7220 C   0  0  0  0  0  1  0  0  0  0  0  0
  197.6880  175.4310  141.0220 C   0  0  0  0  0  2  0  0  0  0  0  0
  196.5770  173.9890  145.8000 C   0  0  0  0  0  2  0  0  0  0  0  0
  195.3080  172.0630  145.3490 O   0  0  0  0  0  0  0  0  0  0  0  0
  196.3320  172.5170  145.8290 C   0  0  0  0  0  3  0  0  0  0  0  0
  1  7  1  0  0  0  0
  1 20  1  1  0  0  0
  1 17  1  0  0  0  0
  2  3  2  0  0  0  0
  4  8  1  0  0  0  0
  5  3  1  0  0  0  0
  5 12  1  6  0  0  0
  6  9  1  0  0  0  0
  6  8  2  0  0  0  0
  7  5  1  0  0  0  0
  8 11  1  0  0  0  0
  9 10  1  0  0  0  0
 10 11  2  0  0  0  0
 10  7  1  0  0  0  0
 11  2  1  0  0  0  0
 13 14  1  0  0  0  0
 13  6  1  0  0  0  0
 14  4  2  0  0  0  0
 15 16  1  0  0  0  0
 15 14  1  0  0  0  0
 18 19  1  0  0  0  0
 19 17  1  0  0  0  0
 21 20  1  0  0  0  0
 21 22  1  0  0  0  0
 22 23  1  0  0  0  0
 24 23  1  0  0  0  0
 25 33  1  1  0  0  0
 25 24  1  0  0  0  0
 26 28  2  0  0  0  0
 28 27  1  0  0  0  0
 28 25  1  0  0  0  0
 29 26  1  0  0  0  0
 30 29  1  0  0  0  0
 31 32  1  0  0  0  0
 32 29  1  0  0  0  0
 33 35  1  0  0  0  0
 34 35  2  0  0  0  0
M  END
>  <MODEL>
5

>  <REMARK>
 VINA RESULT:      -5.8      2.353      3.403
  Name = 
  15 active torsions:
  status: ('A' for Active; 'I' for Inactive)
    1  A    between atoms: N_3  and  C_25
    2  A    between atoms: N_3  and  O_34
    3  A    between atoms: C_6  and  N_10
    4  A    between atoms: C_8  and  C_16
    5  A    between atoms: C_8  and  O_17
    6  A    between atoms: C_9  and  C_35
    7  A    between atoms: N_10  and  C_30
    8  A    between atoms: C_12  and  C_15
    9  A    between atoms: C_15  and  C_21
   10  A    between atoms: C_16  and  N_18
   11  A    between atoms: C_16  and  C_32
   12  A    between atoms: C_21  and  C_29
   13  A    between atoms: C_21  and  C_31
   14  A    between atoms: C_25  and  C_32
   15  A    between atoms: C_31  and  O_34
                            x       y       z     vdW  Elec       q    Type
                         _______ _______ _______ _____ _____    ______ ____

>  <TORSDO>
F 15

$$$$
=
 OpenBabel11042418023D

 35 37  0  0  1  0  0  0  0  0999 V2000
  189.9700  175.6750  144.7240 C   0  0  2  0  0  3  0  0  0  0  0  0
  185.9160  176.9770  145.6400 C   0  0  0  0  0  3  0  0  0  0  0  0
  186.7340  176.5920  146.6330 C   0  0  0  0  0  3  0  0  0  0  0  0
  184.7470  177.8520  142.6470 N   0  0  0  0  0  0  0  0  0  0  0  0
  188.2250  176.3110  146.4430 C   0  0  1  0  0  3  0  0  0  0  0  0
  186.9190  177.2470  142.1780 C   0  0  0  0  0  0  0  0  0  0  0  0
  188.6460  176.2160  145.0280 N   0  0  0  0  0  0  0  0  0  0  0  0
  185.9510  177.4260  143.0850 C   0  0  0  0  0  0  0  0  0  0  0  0
  188.0360  176.8010  142.7070 O   0  0  0  0  0  0  0  0  0  0  0  0
  187.7640  176.6910  144.0020 C   0  0  0  0  0  0  0  0  0  0  0  0
  186.4720  177.0750  144.2960 C   0  0  0  0  0  0  0  0  0  0  0  0
  188.9950  177.3460  147.1120 N   0  0  0  0  0  1  0  0  0  0  0  0
  186.3800  177.6250  140.6420 S   0  0  0  0  0  0  0  0  0  0  0  0
  184.8340  178.0150  141.2950 C   0  0  0  0  0  0  0  0  0  0  0  0
  183.6840  178.4650  140.4650 C   0  0  0  0  0  2  0  0  0  0  0  0
  182.5330  177.7720  140.8400 O   0  0  0  0  0  1  0  0  0  0  0  0
  190.3220  174.5540  145.6960 C   0  0  0  0  0  2  0  0  0  0  0  0
  189.7790  172.6180  144.7740 C   0  0  0  0  0  1  0  0  0  0  0  0
  190.8580  173.4740  144.9930 O   0  0  0  0  0  0  0  0  0  0  0  0
  191.0110  176.7950  144.7270 C   0  0  0  0  0  2  0  0  0  0  0  0
  192.1320  176.5280  145.7160 C   0  0  0  0  0  2  0  0  0  0  0  0
  193.3890  177.0150  145.1720 N   0  0  0  0  0  2  0  0  0  0  0  0
  194.3570  176.1810  145.6290 O   0  0  0  0  0  0  0  0  0  0  0  0
  194.9490  175.6740  144.4710 C   0  0  0  0  0  2  0  0  0  0  0  0
  194.8740  174.1550  144.4660 C   0  0  1  0  0  3  0  0  0  0  0  0
  193.4610  174.6270  142.5370 C   0  0  0  0  0  3  0  0  0  0  0  0
  193.5770  172.3690  143.2990 O   0  0  0  0  0  1  0  0  0  0  0  0
  193.9360  173.7120  143.3880 C   0  0  0  0  0  0  0  0  0  0  0  0
  192.5930  174.3540  141.4240 N   0  0  0  0  0  0  0  0  0  0  0  0
  193.2020  174.1750  140.1190 C   0  0  0  0  0  1  0  0  0  0  0  0
  190.7140  172.9100  140.8400 C   0  0  0  0  0  1  0  0  0  0  0  0
  191.1470  174.1860  141.5340 C   0  0  0  0  0  2  0  0  0  0  0  0
  196.2630  173.5670  144.2530 C   0  0  0  0  0  2  0  0  0  0  0  0
  197.0830  173.5050  146.4540 O   0  0  0  0  0  0  0  0  0  0  0  0
  197.1880  173.9940  145.3430 C   0  0  0  0  0  3  0  0  0  0  0  0
  1 20  1  1  0  0  0
  1  7  1  0  0  0  0
  1 17  1  0  0  0  0
  2  3  2  0  0  0  0
  4  8  1  0  0  0  0
  5  3  1  0  0  0  0
  5 12  1  6  0  0  0
  6  9  1  0  0  0  0
  6  8  2  0  0  0  0
  7  5  1  0  0  0  0
  8 11  1  0  0  0  0
  9 10  1  0  0  0  0
 10 11  2  0  0  0  0
 10  7  1  0  0  0  0
 11  2  1  0  0  0  0
 13 14  1  0  0  0  0
 13  6  1  0  0  0  0
 14  4  2  0  0  0  0
 15 16  1  0  0  0  0
 15 14  1  0  0  0  0
 18 19  1  0  0  0  0
 19 17  1  0  0  0  0
 20 21  1  0  0  0  0
 22 23  1  0  0  0  0
 22 21  1  0  0  0  0
 24 23  1  0  0  0  0
 25 33  1  6  0  0  0
 25 24  1  0  0  0  0
 26 28  2  0  0  0  0
 27 28  1  0  0  0  0
 28 25  1  0  0  0  0
 29 32  1  0  0  0  0
 29 26  1  0  0  0  0
 30 29  1  0  0  0  0
 31 32  1  0  0  0  0
 33 35  1  0  0  0  0
 35 34  2  0  0  0  0
M  END
>  <MODEL>
6

>  <REMARK>
 VINA RESULT:      -5.8      1.879      2.578
  Name = 
  15 active torsions:
  status: ('A' for Active; 'I' for Inactive)
    1  A    between atoms: N_3  and  C_25
    2  A    between atoms: N_3  and  O_34
    3  A    between atoms: C_6  and  N_10
    4  A    between atoms: C_8  and  C_16
    5  A    between atoms: C_8  and  O_17
    6  A    between atoms: C_9  and  C_35
    7  A    between atoms: N_10  and  C_30
    8  A    between atoms: C_12  and  C_15
    9  A    between atoms: C_15  and  C_21
   10  A    between atoms: C_16  and  N_18
   11  A    between atoms: C_16  and  C_32
   12  A    between atoms: C_21  and  C_29
   13  A    between atoms: C_21  and  C_31
   14  A    between atoms: C_25  and  C_32
   15  A    between atoms: C_31  and  O_34
                            x       y       z     vdW  Elec       q    Type
                         _______ _______ _______ _____ _____    ______ ____

>  <TORSDO>
F 15

$$$$
=
 OpenBabel11042418023D

 35 37  0  0  1  0  0  0  0  0999 V2000
  189.5940  175.8980  144.8900 C   0  0  2  0  0  3  0  0  0  0  0  0
  185.4710  177.0570  145.6830 C   0  0  0  0  0  3  0  0  0  0  0  0
  186.2680  176.6860  146.6980 C   0  0  0  0  0  3  0  0  0  0  0  0
  184.3750  177.9290  142.6620 N   0  0  0  0  0  0  0  0  0  0  0  0
  187.7720  176.4560  146.5560 C   0  0  1  0  0  3  0  0  0  0  0  0
  186.5800  177.4010  142.2600 C   0  0  0  0  0  0  0  0  0  0  0  0
  188.2440  176.3910  145.1560 N   0  0  0  0  0  0  0  0  0  0  0  0
  185.5780  177.5370  143.1350 C   0  0  0  0  0  0  0  0  0  0  0  0
  187.6930  176.9850  142.8220 O   0  0  0  0  0  0  0  0  0  0  0  0
  187.3810  176.8510  144.1060 C   0  0  0  0  0  0  0  0  0  0  0  0
  186.0690  177.1890  144.3600 C   0  0  0  0  0  0  0  0  0  0  0  0
  188.4840  177.5070  147.2620 N   0  0  0  0  0  1  0  0  0  0  0  0
  186.0820  177.7800  140.7110 S   0  0  0  0  0  0  0  0  0  0  0  0
  184.5020  178.1120  141.3150 C   0  0  0  0  0  0  0  0  0  0  0  0
  183.3670  178.5350  140.4520 C   0  0  0  0  0  2  0  0  0  0  0  0
  182.2690  177.7050  140.6780 O   0  0  0  0  0  1  0  0  0  0  0  0
  189.8080  174.5470  145.5650 C   0  0  0  0  0  2  0  0  0  0  0  0
  189.6950  173.6150  143.5630 C   0  0  0  0  0  1  0  0  0  0  0  0
  190.4960  173.6940  144.7010 O   0  0  0  0  0  0  0  0  0  0  0  0
  190.6300  176.9350  145.3250 C   0  0  0  0  0  2  0  0  0  0  0  0
  191.9300  176.8010  144.5510 C   0  0  0  0  0  2  0  0  0  0  0  0
  193.0130  176.4870  145.4670 N   0  0  0  0  0  2  0  0  0  0  0  0
  194.1230  177.0970  144.9790 O   0  0  0  0  0  0  0  0  0  0  0  0
  194.6400  176.1830  144.0590 C   0  0  0  0  0  2  0  0  0  0  0  0
  196.1370  176.0150  144.2730 C   0  0  1  0  0  3  0  0  0  0  0  0
  195.4960  173.6640  144.2420 C   0  0  0  0  0  3  0  0  0  0  0  0
  197.6880  174.2040  145.0140 O   0  0  0  0  0  1  0  0  0  0  0  0
  196.4410  174.5690  144.5130 C   0  0  0  0  0  0  0  0  0  0  0  0
  195.6490  172.2410  144.3720 N   0  0  0  0  0  0  0  0  0  0  0  0
  196.1340  171.5030  143.2200 C   0  0  0  0  0  1  0  0  0  0  0  0
  196.6830  170.8340  146.0780 C   0  0  0  0  0  1  0  0  0  0  0  0
  195.4050  171.5000  145.6060 C   0  0  0  0  0  2  0  0  0  0  0  0
  196.8960  176.5350  143.0600 C   0  0  0  0  0  2  0  0  0  0  0  0
  196.5340  176.4930  140.7380 O   0  0  0  0  0  0  0  0  0  0  0  0
  196.0280  176.5140  141.8460 C   0  0  0  0  0  3  0  0  0  0  0  0
  1  7  1  0  0  0  0
  1 20  1  1  0  0  0
  1 17  1  0  0  0  0
  2  3  2  0  0  0  0
  4  8  1  0  0  0  0
  5  3  1  0  0  0  0
  5 12  1  1  0  0  0
  6  9  1  0  0  0  0
  6  8  2  0  0  0  0
  7  5  1  0  0  0  0
  8 11  1  0  0  0  0
  9 10  1  0  0  0  0
 10 11  2  0  0  0  0
 10  7  1  0  0  0  0
 11  2  1  0  0  0  0
 13 14  1  0  0  0  0
 13  6  1  0  0  0  0
 14  4  2  0  0  0  0
 15 16  1  0  0  0  0
 15 14  1  0  0  0  0
 18 19  1  0  0  0  0
 19 17  1  0  0  0  0
 21 20  1  0  0  0  0
 21 22  1  0  0  0  0
 23 22  1  0  0  0  0
 24 25  1  0  0  0  0
 24 23  1  0  0  0  0
 25 33  1  6  0  0  0
 25 28  1  0  0  0  0
 26 29  1  0  0  0  0
 26 28  2  0  0  0  0
 28 27  1  0  0  0  0
 29 32  1  0  0  0  0
 30 29  1  0  0  0  0
 32 31  1  0  0  0  0
 34 35  2  0  0  0  0
 35 33  1  0  0  0  0
M  END
>  <MODEL>
7

>  <REMARK>
 VINA RESULT:      -5.7      2.478      3.353
  Name = 
  15 active torsions:
  status: ('A' for Active; 'I' for Inactive)
    1  A    between atoms: N_3  and  C_25
    2  A    between atoms: N_3  and  O_34
    3  A    between atoms: C_6  and  N_10
    4  A    between atoms: C_8  and  C_16
    5  A    between atoms: C_8  and  O_17
    6  A    between atoms: C_9  and  C_35
    7  A    between atoms: N_10  and  C_30
    8  A    between atoms: C_12  and  C_15
    9  A    between atoms: C_15  and  C_21
   10  A    between atoms: C_16  and  N_18
   11  A    between atoms: C_16  and  C_32
   12  A    between atoms: C_21  and  C_29
   13  A    between atoms: C_21  and  C_31
   14  A    between atoms: C_25  and  C_32
   15  A    between atoms: C_31  and  O_34
                            x       y       z     vdW  Elec       q    Type
                         _______ _______ _______ _____ _____    ______ ____

>  <TORSDO>
F 15

$$$$
=
 OpenBabel11042418023D

 35 37  0  0  1  0  0  0  0  0999 V2000
  186.4330  176.7350  144.5370 C   0  0  2  0  0  3  0  0  0  0  0  0
  186.6920  176.9700  140.1960 C   0  0  0  0  0  3  0  0  0  0  0  0
  186.0000  177.9000  140.8750 C   0  0  0  0  0  3  0  0  0  0  0  0
  188.6770  174.4030  139.4540 N   0  0  0  0  0  0  0  0  0  0  0  0
  186.0130  178.0220  142.3990 C   0  0  1  0  0  3  0  0  0  0  0  0
  188.6110  174.3330  141.7540 C   0  0  0  0  0  0  0  0  0  0  0  0
  186.6170  176.8640  143.0930 N   0  0  0  0  0  0  0  0  0  0  0  0
  188.2460  174.9360  140.6170 C   0  0  0  0  0  0  0  0  0  0  0  0
  188.1100  174.9140  142.8210 O   0  0  0  0  0  0  0  0  0  0  0  0
  187.3960  175.9250  142.3390 C   0  0  0  0  0  0  0  0  0  0  0  0
  187.4500  175.9890  140.9630 C   0  0  0  0  0  0  0  0  0  0  0  0
  186.7180  179.2360  142.7740 N   0  0  0  0  0  1  0  0  0  0  0  0
  189.5740  173.0030  141.4480 S   0  0  0  0  0  0  0  0  0  0  0  0
  189.4420  173.3130  139.7590 C   0  0  0  0  0  0  0  0  0  0  0  0
  190.0790  172.4630  138.7170 C   0  0  0  0  0  2  0  0  0  0  0  0
  190.5500  171.2840  139.2940 O   0  0  0  0  0  1  0  0  0  0  0  0
  185.1700  177.4680  144.9790 C   0  0  0  0  0  2  0  0  0  0  0  0
  184.1280  178.3620  146.7140 C   0  0  0  0  0  1  0  0  0  0  0  0
  185.0130  177.3440  146.3600 O   0  0  0  0  0  0  0  0  0  0  0  0
  187.6780  177.2290  145.2740 C   0  0  0  0  0  2  0  0  0  0  0  0
  188.3620  176.1140  146.0480 C   0  0  0  0  0  2  0  0  0  0  0  0
  189.5610  176.6280  146.6880 N   0  0  0  0  0  2  0  0  0  0  0  0
  190.4390  175.5960  146.7510 O   0  0  0  0  0  0  0  0  0  0  0  0
  191.0970  175.6290  145.5200 C   0  0  0  0  0  2  0  0  0  0  0  0
  192.1080  176.7660  145.4970 C   0  0  1  0  0  3  0  0  0  0  0  0
  193.9290  175.3490  144.7120 C   0  0  0  0  0  3  0  0  0  0  0  0
  194.2680  176.5720  146.7330 O   0  0  0  0  0  1  0  0  0  0  0  0
  193.4860  176.2030  145.6410 C   0  0  0  0  0  0  0  0  0  0  0  0
  195.2410  174.7620  144.6840 N   0  0  0  0  0  0  0  0  0  0  0  0
  196.2820  175.4650  143.9580 C   0  0  0  0  0  1  0  0  0  0  0  0
  197.0530  173.5990  145.8330 C   0  0  0  0  0  1  0  0  0  0  0  0
  195.6050  173.5360  145.3880 C   0  0  0  0  0  2  0  0  0  0  0  0
  191.9750  177.5510  144.1980 C   0  0  0  0  0  2  0  0  0  0  0  0
  190.1570  177.7510  142.7230 O   0  0  0  0  0  0  0  0  0  0  0  0
  190.8720  176.9970  143.3580 C   0  0  0  0  0  3  0  0  0  0  0  0
  1 17  1  1  0  0  0
  1 20  1  0  0  0  0
  2  3  2  0  0  0  0
  2 11  1  0  0  0  0
  3  5  1  0  0  0  0
  4 14  2  0  0  0  0
  4  8  1  0  0  0  0
  5 12  1  6  0  0  0
  5  7  1  0  0  0  0
  6  9  1  0  0  0  0
  7  1  1  0  0  0  0
  8 11  1  0  0  0  0
  8  6  2  0  0  0  0
 10  9  1  0  0  0  0
 10  7  1  0  0  0  0
 11 10  2  0  0  0  0
 13  6  1  0  0  0  0
 14 13  1  0  0  0  0
 15 16  1  0  0  0  0
 15 14  1  0  0  0  0
 17 19  1  0  0  0  0
 19 18  1  0  0  0  0
 20 21  1  0  0  0  0
 21 22  1  0  0  0  0
 22 23  1  0  0  0  0
 24 23  1  0  0  0  0
 25 33  1  6  0  0  0
 25 24  1  0  0  0  0
 25 28  1  0  0  0  0
 26 28  2  0  0  0  0
 28 27  1  0  0  0  0
 29 26  1  0  0  0  0
 29 32  1  0  0  0  0
 30 29  1  0  0  0  0
 32 31  1  0  0  0  0
 34 35  2  0  0  0  0
 35 33  1  0  0  0  0
M  END
>  <MODEL>
8

>  <REMARK>
 VINA RESULT:      -5.7      2.686      5.271
  Name = 
  15 active torsions:
  status: ('A' for Active; 'I' for Inactive)
    1  A    between atoms: N_3  and  C_25
    2  A    between atoms: N_3  and  O_34
    3  A    between atoms: C_6  and  N_10
    4  A    between atoms: C_8  and  C_16
    5  A    between atoms: C_8  and  O_17
    6  A    between atoms: C_9  and  C_35
    7  A    between atoms: N_10  and  C_30
    8  A    between atoms: C_12  and  C_15
    9  A    between atoms: C_15  and  C_21
   10  A    between atoms: C_16  and  N_18
   11  A    between atoms: C_16  and  C_32
   12  A    between atoms: C_21  and  C_29
   13  A    between atoms: C_21  and  C_31
   14  A    between atoms: C_25  and  C_32
   15  A    between atoms: C_31  and  O_34
                            x       y       z     vdW  Elec       q    Type
                         _______ _______ _______ _____ _____    ______ ____

>  <TORSDO>
F 15

$$$$
=
 OpenBabel11042418023D

 35 37  0  0  1  0  0  0  0  0999 V2000
  189.3990  175.9410  144.9480 C   0  0  2  0  0  3  0  0  0  0  0  0
  185.2910  177.1370  145.7590 C   0  0  0  0  0  3  0  0  0  0  0  0
  186.1000  176.7950  146.7750 C   0  0  0  0  0  3  0  0  0  0  0  0
  184.1570  177.9210  142.7280 N   0  0  0  0  0  0  0  0  0  0  0  0
  187.6010  176.5560  146.6200 C   0  0  1  0  0  3  0  0  0  0  0  0
  186.3550  177.3740  142.3130 C   0  0  0  0  0  0  0  0  0  0  0  0
  188.0540  176.4470  145.2160 N   0  0  0  0  0  0  0  0  0  0  0  0
  185.3640  177.5400  143.1970 C   0  0  0  0  0  0  0  0  0  0  0  0
  187.4730  176.9710  142.8720 O   0  0  0  0  0  0  0  0  0  0  0  0
  187.1790  176.8770  144.1640 C   0  0  0  0  0  0  0  0  0  0  0  0
  185.8710  177.2270  144.4250 C   0  0  0  0  0  0  0  0  0  0  0  0
  188.3260  177.6250  147.2840 N   0  0  0  0  0  1  0  0  0  0  0  0
  185.8360  177.7070  140.7600 S   0  0  0  0  0  0  0  0  0  0  0  0
  184.2660  178.0620  141.3750 C   0  0  0  0  0  0  0  0  0  0  0  0
  183.1200  178.4620  140.5140 C   0  0  0  0  0  2  0  0  0  0  0  0
  181.9270  178.0160  141.0820 O   0  0  0  0  0  1  0  0  0  0  0  0
  190.1070  176.8290  143.9300 C   0  0  0  0  0  2  0  0  0  0  0  0
  191.8320  178.1460  143.5030 C   0  0  0  0  0  1  0  0  0  0  0  0
  191.3380  177.2410  144.4410 O   0  0  0  0  0  0  0  0  0  0  0  0
  189.3340  174.4810  144.4990 C   0  0  0  0  0  2  0  0  0  0  0  0
  190.5200  173.6770  145.0030 C   0  0  0  0  0  2  0  0  0  0  0  0
  191.3530  173.2790  143.8800 N   0  0  0  0  0  2  0  0  0  0  0  0
  192.5540  173.8860  144.0550 O   0  0  0  0  0  0  0  0  0  0  0  0
  193.1950  173.1070  145.0210 C   0  0  0  0  0  2  0  0  0  0  0  0
  194.2660  173.9250  145.7260 C   0  0  1  0  0  3  0  0  0  0  0  0
  195.6080  172.0100  145.0370 C   0  0  0  0  0  3  0  0  0  0  0  0
  196.7260  173.8090  146.1370 O   0  0  0  0  0  1  0  0  0  0  0  0
  195.5780  173.2120  145.6220 C   0  0  0  0  0  0  0  0  0  0  0  0
  196.7910  171.2240  144.8190 N   0  0  0  0  0  0  0  0  0  0  0  0
  197.6170  171.5490  143.6710 C   0  0  0  0  0  1  0  0  0  0  0  0
  196.0900  169.6590  146.5550 C   0  0  0  0  0  1  0  0  0  0  0  0
  197.2440  170.1600  145.7100 C   0  0  0  0  0  2  0  0  0  0  0  0
  194.3520  175.3130  145.1060 C   0  0  0  0  0  2  0  0  0  0  0  0
  194.5890  177.5280  145.8540 O   0  0  0  0  0  0  0  0  0  0  0  0
  194.4550  176.3590  146.1660 C   0  0  0  0  0  3  0  0  0  0  0  0
  1 17  1  6  0  0  0
  1  7  1  0  0  0  0
  2  3  2  0  0  0  0
  4  8  1  0  0  0  0
  5  3  1  0  0  0  0
  5 12  1  6  0  0  0
  6  9  1  0  0  0  0
  6  8  2  0  0  0  0
  7  5  1  0  0  0  0
  8 11  1  0  0  0  0
  9 10  1  0  0  0  0
 10 11  2  0  0  0  0
 10  7  1  0  0  0  0
 11  2  1  0  0  0  0
 13 14  1  0  0  0  0
 13  6  1  0  0  0  0
 14  4  2  0  0  0  0
 15 16  1  0  0  0  0
 15 14  1  0  0  0  0
 17 19  1  0  0  0  0
 18 19  1  0  0  0  0
 20  1  1  0  0  0  0
 20 21  1  0  0  0  0
 22 23  1  0  0  0  0
 22 21  1  0  0  0  0
 23 24  1  0  0  0  0
 25 24  1  6  0  0  0
 26 28  2  0  0  0  0
 28 25  1  0  0  0  0
 28 27  1  0  0  0  0
 29 26  1  0  0  0  0
 29 32  1  0  0  0  0
 30 29  1  0  0  0  0
 32 31  1  0  0  0  0
 33 25  1  0  0  0  0
 33 35  1  0  0  0  0
 34 35  2  0  0  0  0
M  END
>  <MODEL>
9

>  <REMARK>
 VINA RESULT:      -5.7      2.330      3.015
  Name = 
  15 active torsions:
  status: ('A' for Active; 'I' for Inactive)
    1  A    between atoms: N_3  and  C_25
    2  A    between atoms: N_3  and  O_34
    3  A    between atoms: C_6  and  N_10
    4  A    between atoms: C_8  and  C_16
    5  A    between atoms: C_8  and  O_17
    6  A    between atoms: C_9  and  C_35
    7  A    between atoms: N_10  and  C_30
    8  A    between atoms: C_12  and  C_15
    9  A    between atoms: C_15  and  C_21
   10  A    between atoms: C_16  and  N_18
   11  A    between atoms: C_16  and  C_32
   12  A    between atoms: C_21  and  C_29
   13  A    between atoms: C_21  and  C_31
   14  A    between atoms: C_25  and  C_32
   15  A    between atoms: C_31  and  O_34
                            x       y       z     vdW  Elec       q    Type
                         _______ _______ _______ _____ _____    ______ ____

>  <TORSDO>
F 15

$$$$
