=
 OpenBabel11042418513D

 26 28  0  0  1  0  0  0  0  0999 V2000
  188.6670  177.2160  144.6960 N   0  0  0  0  0  2  0  0  0  0  0  0
  190.6040  178.5130  144.5220 O   0  0  0  0  0  0  0  0  0  0  0  0
  189.8250  177.6750  143.9920 C   0  0  0  0  0  0  0  0  0  0  0  0
  190.9060  175.5170  142.6660 S   0  0  0  0  0  0  0  0  0  0  0  0
  190.1080  177.1820  142.6120 C   0  0  1  0  0  3  0  0  0  0  0  0
  187.5250  175.7770  140.7140 N   0  0  0  0  0  0  0  0  0  0  0  0
  188.8470  176.9490  141.8870 C   0  0  0  0  0  0  0  0  0  0  0  0
  189.5000  174.6580  141.8120 C   0  0  2  0  0  3  0  0  0  0  0  0
  188.5640  175.7220  141.5200 N   0  0  0  0  0  0  0  0  0  0  0  0
  187.1600  177.0540  140.6290 N   0  0  0  0  0  0  0  0  0  0  0  0
  187.9820  177.8220  141.3450 N   0  0  0  0  0  0  0  0  0  0  0  0
  188.9420  172.3650  142.0560 C   0  0  0  0  0  1  0  0  0  0  0  0
  188.8870  173.6680  142.7040 N   0  0  0  0  0  0  0  0  0  0  0  0
  189.7250  173.5400  143.8870 C   0  0  0  0  0  1  0  0  0  0  0  0
  188.2680  177.7630  145.9860 C   0  0  1  0  0  3  0  0  0  0  0  0
  184.0430  178.5790  146.0600 C   0  0  0  0  0  3  0  0  0  0  0  0
  186.0980  178.2190  144.8290 C   0  0  0  0  0  3  0  0  0  0  0  0
  184.7250  178.4840  144.8430 C   0  0  0  0  0  0  0  0  0  0  0  0
  186.7930  178.0370  146.0300 C   0  0  0  0  0  0  0  0  0  0  0  0
  186.1050  178.1320  147.2490 C   0  0  0  0  0  3  0  0  0  0  0  0
  184.7330  178.4050  147.2640 C   0  0  0  0  0  3  0  0  0  0  0  0
  183.9910  178.6780  143.5640 C   0  0  0  0  0  1  0  0  0  0  0  0
  190.0480  177.2050  147.5080 O   0  0  0  0  0  1  0  0  0  0  0  0
  188.7370  176.8820  147.1520 C   0  0  2  0  0  3  0  0  0  0  0  0
  188.6040  175.3770  146.8980 C   0  0  0  0  0  2  0  0  0  0  0  0
  189.7310  174.6900  147.3540 O   0  0  0  0  0  1  0  0  0  0  0  0
  3  2  2  0  0  0  0
  3  1  1  0  0  0  0
  5  4  1  0  0  0  0
  5  3  1  1  0  0  0
  6  9  1  0  0  0  0
  7  5  1  0  0  0  0
  8  4  1  0  0  0  0
  8 13  1  1  0  0  0
  9  8  1  0  0  0  0
  9  7  1  0  0  0  0
 10  6  2  0  0  0  0
 10 11  1  0  0  0  0
 11  7  2  0  0  0  0
 12 13  1  0  0  0  0
 13 14  1  0  0  0  0
 15  1  1  6  0  0  0
 15 19  1  0  0  0  0
 15 24  1  0  0  0  0
 16 21  1  0  0  0  0
 17 18  1  0  0  0  0
 17 19  2  0  0  0  0
 18 16  2  0  0  0  0
 19 20  1  0  0  0  0
 20 21  2  0  0  0  0
 22 18  1  0  0  0  0
 24 23  1  6  0  0  0
 25 24  1  0  0  0  0
 25 26  1  0  0  0  0
M  END
>  <MODEL>
1

>  <REMARK>
 VINA RESULT:      -6.6      0.000      0.000
  Name = 
  6 active torsions:
  status: ('A' for Active; 'I' for Inactive)
    1  A    between atoms: C_5  and  C_26
    2  A    between atoms: C_6  and  C_16
    3  A    between atoms: C_6  and  C_18
    4  A    between atoms: N_8  and  C_10
    5  A    between atoms: N_12  and  C_16
    6  A    between atoms: C_15  and  C_16
                            x       y       z     vdW  Elec       q    Type
                         _______ _______ _______ _____ _____    ______ ____

>  <TORSDO>
F 6

$$$$
=
 OpenBabel11042418513D

 26 28  0  0  1  0  0  0  0  0999 V2000
  187.1640  176.6810  144.7290 N   0  0  0  0  0  2  0  0  0  0  0  0
  189.1980  177.7510  145.1510 O   0  0  0  0  0  0  0  0  0  0  0  0
  188.5700  176.6700  144.9910 C   0  0  0  0  0  0  0  0  0  0  0  0
  190.3220  175.1260  143.5290 S   0  0  0  0  0  0  0  0  0  0  0  0
  189.3100  175.3750  145.0560 C   0  0  1  0  0  3  0  0  0  0  0  0
  192.2570  175.1600  146.9290 N   0  0  0  0  0  0  0  0  0  0  0  0
  190.3060  175.4120  146.1410 C   0  0  0  0  0  0  0  0  0  0  0  0
  191.9450  175.1690  144.4280 C   0  0  2  0  0  3  0  0  0  0  0  0
  191.5730  175.3240  145.8170 N   0  0  0  0  0  0  0  0  0  0  0  0
  191.3870  175.1870  147.9350 N   0  0  0  0  0  0  0  0  0  0  0  0
  190.1440  175.3300  147.4710 N   0  0  0  0  0  0  0  0  0  0  0  0
  193.8590  175.8150  143.1820 C   0  0  0  0  0  1  0  0  0  0  0  0
  192.7480  176.3130  143.9810 N   0  0  0  0  0  0  0  0  0  0  0  0
  191.9420  177.1040  143.0620 C   0  0  0  0  0  1  0  0  0  0  0  0
  186.4160  177.9150  144.5210 C   0  0  1  0  0  3  0  0  0  0  0  0
  184.7920  178.1090  140.5410 C   0  0  0  0  0  3  0  0  0  0  0  0
  184.4830  178.0730  142.9420 C   0  0  0  0  0  3  0  0  0  0  0  0
  183.9450  178.1370  141.6530 C   0  0  0  0  0  0  0  0  0  0  0  0
  185.8670  177.9910  143.1270 C   0  0  0  0  0  0  0  0  0  0  0  0
  186.7140  177.9650  142.0070 C   0  0  0  0  0  3  0  0  0  0  0  0
  186.1760  178.0210  140.7170 C   0  0  0  0  0  3  0  0  0  0  0  0
  182.4730  178.2220  141.4630 C   0  0  0  0  0  1  0  0  0  0  0  0
  185.5230  179.3360  146.2470 O   0  0  0  0  0  1  0  0  0  0  0  0
  185.3350  178.1180  145.5910 C   0  0  2  0  0  3  0  0  0  0  0  0
  185.2280  176.9730  146.6030 C   0  0  0  0  0  2  0  0  0  0  0  0
  185.9000  177.2870  147.7870 O   0  0  0  0  0  1  0  0  0  0  0  0
  1  3  1  0  0  0  0
  3  2  2  0  0  0  0
  4  8  1  0  0  0  0
  4  5  1  0  0  0  0
  5  3  1  6  0  0  0
  5  7  1  0  0  0  0
  6 10  2  0  0  0  0
  7 11  2  0  0  0  0
  8 13  1  6  0  0  0
  8  9  1  0  0  0  0
  9  7  1  0  0  0  0
  9  6  1  0  0  0  0
 11 10  1  0  0  0  0
 12 13  1  0  0  0  0
 14 13  1  0  0  0  0
 15  1  1  1  0  0  0
 15 24  1  0  0  0  0
 16 21  2  0  0  0  0
 16 18  1  0  0  0  0
 17 19  1  0  0  0  0
 18 17  2  0  0  0  0
 19 15  1  0  0  0  0
 20 19  2  0  0  0  0
 21 20  1  0  0  0  0
 22 18  1  0  0  0  0
 24 23  1  1  0  0  0
 24 25  1  0  0  0  0
 25 26  1  0  0  0  0
M  END
>  <MODEL>
2

>  <REMARK>
 VINA RESULT:      -6.5      2.915      4.675
  Name = 
  6 active torsions:
  status: ('A' for Active; 'I' for Inactive)
    1  A    between atoms: C_5  and  C_26
    2  A    between atoms: C_6  and  C_16
    3  A    between atoms: C_6  and  C_18
    4  A    between atoms: N_8  and  C_10
    5  A    between atoms: N_12  and  C_16
    6  A    between atoms: C_15  and  C_16
                            x       y       z     vdW  Elec       q    Type
                         _______ _______ _______ _____ _____    ______ ____

>  <TORSDO>
F 6

$$$$
=
 OpenBabel11042418513D

 26 28  0  0  1  0  0  0  0  0999 V2000
  189.4370  176.1240  144.7090 N   0  0  0  0  0  2  0  0  0  0  0  0
  190.3130  177.7950  143.3300 O   0  0  0  0  0  0  0  0  0  0  0  0
  190.0310  176.5770  143.4890 C   0  0  0  0  0  0  0  0  0  0  0  0
  191.9030  174.7330  142.6620 S   0  0  0  0  0  0  0  0  0  0  0  0
  190.3020  175.6120  142.3830 C   0  0  1  0  0  3  0  0  0  0  0  0
  188.7040  172.4990  142.3760 N   0  0  0  0  0  0  0  0  0  0  0  0
  189.2970  174.5340  142.3920 C   0  0  0  0  0  0  0  0  0  0  0  0
  191.1170  173.0610  142.8400 C   0  0  2  0  0  3  0  0  0  0  0  0
  189.7080  173.3110  142.6280 N   0  0  0  0  0  0  0  0  0  0  0  0
  187.6660  173.2530  142.0210 N   0  0  0  0  0  0  0  0  0  0  0  0
  188.0110  174.5410  142.0060 N   0  0  0  0  0  0  0  0  0  0  0  0
  191.9980  171.2330  144.0700 C   0  0  0  0  0  1  0  0  0  0  0  0
  191.3450  172.5290  144.1880 N   0  0  0  0  0  0  0  0  0  0  0  0
  192.3150  173.3840  144.8580 C   0  0  0  0  0  1  0  0  0  0  0  0
  189.0270  177.0390  145.7670 C   0  0  1  0  0  3  0  0  0  0  0  0
  184.8050  177.8510  145.6050 C   0  0  0  0  0  3  0  0  0  0  0  0
  187.0540  178.2210  144.7860 C   0  0  0  0  0  3  0  0  0  0  0  0
  185.6830  178.4910  144.7250 C   0  0  0  0  0  0  0  0  0  0  0  0
  187.5510  177.3030  145.7170 C   0  0  0  0  0  0  0  0  0  0  0  0
  186.6660  176.6620  146.5980 C   0  0  0  0  0  3  0  0  0  0  0  0
  185.2950  176.9380  146.5430 C   0  0  0  0  0  3  0  0  0  0  0  0
  185.1600  179.4690  143.7340 C   0  0  0  0  0  1  0  0  0  0  0  0
  190.4950  177.4030  147.6400 O   0  0  0  0  0  1  0  0  0  0  0  0
  189.4940  176.5630  147.1490 C   0  0  2  0  0  3  0  0  0  0  0  0
  189.9500  175.1010  147.1910 C   0  0  0  0  0  2  0  0  0  0  0  0
  188.9290  174.2700  147.6560 O   0  0  0  0  0  1  0  0  0  0  0  0
  2  3  2  0  0  0  0
  3  1  1  0  0  0  0
  4  8  1  0  0  0  0
  5  7  1  0  0  0  0
  5  4  1  0  0  0  0
  5  3  1  1  0  0  0
  6  9  1  0  0  0  0
  7  9  1  0  0  0  0
  8 13  1  1  0  0  0
  9  8  1  0  0  0  0
 10  6  2  0  0  0  0
 11 10  1  0  0  0  0
 11  7  2  0  0  0  0
 12 13  1  0  0  0  0
 13 14  1  0  0  0  0
 15  1  1  6  0  0  0
 15 24  1  0  0  0  0
 16 21  1  0  0  0  0
 17 19  2  0  0  0  0
 18 17  1  0  0  0  0
 18 16  2  0  0  0  0
 19 15  1  0  0  0  0
 19 20  1  0  0  0  0
 21 20  2  0  0  0  0
 22 18  1  0  0  0  0
 24 25  1  0  0  0  0
 24 23  1  6  0  0  0
 25 26  1  0  0  0  0
M  END
>  <MODEL>
3

>  <REMARK>
 VINA RESULT:      -6.4      1.557      2.168
  Name = 
  6 active torsions:
  status: ('A' for Active; 'I' for Inactive)
    1  A    between atoms: C_5  and  C_26
    2  A    between atoms: C_6  and  C_16
    3  A    between atoms: C_6  and  C_18
    4  A    between atoms: N_8  and  C_10
    5  A    between atoms: N_12  and  C_16
    6  A    between atoms: C_15  and  C_16
                            x       y       z     vdW  Elec       q    Type
                         _______ _______ _______ _____ _____    ______ ____

>  <TORSDO>
F 6

$$$$
=
 OpenBabel11042418513D

 26 28  0  0  1  0  0  0  0  0999 V2000
  187.3850  176.6700  142.7080 N   0  0  0  0  0  2  0  0  0  0  0  0
  187.0950  174.4720  141.9700 O   0  0  0  0  0  0  0  0  0  0  0  0
  187.8790  175.3660  142.3860 C   0  0  0  0  0  0  0  0  0  0  0  0
  190.2160  176.4700  143.3380 S   0  0  0  0  0  0  0  0  0  0  0  0
  189.3270  175.0480  142.5630 C   0  0  1  0  0  3  0  0  0  0  0  0
  190.3440  173.0660  145.2610 N   0  0  0  0  0  0  0  0  0  0  0  0
  189.4910  173.9530  143.5350 C   0  0  0  0  0  0  0  0  0  0  0  0
  190.6540  175.5390  144.8820 C   0  0  2  0  0  3  0  0  0  0  0  0
  190.1230  174.2120  144.6540 N   0  0  0  0  0  0  0  0  0  0  0  0
  189.8010  172.1110  144.5100 N   0  0  0  0  0  0  0  0  0  0  0  0
  189.2670  172.6360  143.4050 N   0  0  0  0  0  0  0  0  0  0  0  0
  191.0030  176.2700  147.1120 C   0  0  0  0  0  1  0  0  0  0  0  0
  190.0140  176.1530  146.0500 N   0  0  0  0  0  0  0  0  0  0  0  0
  189.6590  177.5220  145.7080 C   0  0  0  0  0  1  0  0  0  0  0  0
  185.9650  176.9970  142.6850 C   0  0  1  0  0  3  0  0  0  0  0  0
  184.6290  178.3210  146.5550 C   0  0  0  0  0  3  0  0  0  0  0  0
  186.0760  176.9460  145.1830 C   0  0  0  0  0  3  0  0  0  0  0  0
  185.6480  177.3710  146.4450 C   0  0  0  0  0  0  0  0  0  0  0  0
  185.4940  177.4770  144.0260 C   0  0  0  0  0  0  0  0  0  0  0  0
  184.4710  178.4310  144.1410 C   0  0  0  0  0  3  0  0  0  0  0  0
  184.0380  178.8510  145.4030 C   0  0  0  0  0  3  0  0  0  0  0  0
  186.2690  176.8030  147.6710 C   0  0  0  0  0  1  0  0  0  0  0  0
  184.3340  177.7290  141.0730 O   0  0  0  0  0  1  0  0  0  0  0  0
  185.6210  177.9760  141.5560 C   0  0  2  0  0  3  0  0  0  0  0  0
  186.6320  177.9920  140.4050 C   0  0  0  0  0  2  0  0  0  0  0  0
  186.2300  177.1420  139.3720 O   0  0  0  0  0  1  0  0  0  0  0  0
  2  3  2  0  0  0  0
  3  1  1  0  0  0  0
  4  8  1  0  0  0  0
  5  3  1  1  0  0  0
  5  4  1  0  0  0  0
  5  7  1  0  0  0  0
  7  9  1  0  0  0  0
  8 13  1  1  0  0  0
  9  8  1  0  0  0  0
  9  6  1  0  0  0  0
 10  6  2  0  0  0  0
 11  7  2  0  0  0  0
 11 10  1  0  0  0  0
 13 12  1  0  0  0  0
 14 13  1  0  0  0  0
 15  1  1  1  0  0  0
 15 19  1  0  0  0  0
 17 18  2  0  0  0  0
 18 16  1  0  0  0  0
 18 22  1  0  0  0  0
 19 20  2  0  0  0  0
 19 17  1  0  0  0  0
 20 21  1  0  0  0  0
 21 16  2  0  0  0  0
 24 23  1  6  0  0  0
 24 15  1  0  0  0  0
 25 24  1  0  0  0  0
 26 25  1  0  0  0  0
M  END
>  <MODEL>
4

>  <REMARK>
 VINA RESULT:      -6.2      2.878      4.881
  Name = 
  6 active torsions:
  status: ('A' for Active; 'I' for Inactive)
    1  A    between atoms: C_5  and  C_26
    2  A    between atoms: C_6  and  C_16
    3  A    between atoms: C_6  and  C_18
    4  A    between atoms: N_8  and  C_10
    5  A    between atoms: N_12  and  C_16
    6  A    between atoms: C_15  and  C_16
                            x       y       z     vdW  Elec       q    Type
                         _______ _______ _______ _____ _____    ______ ____

>  <TORSDO>
F 6

$$$$
=
 OpenBabel11042418513D

 26 28  0  0  1  0  0  0  0  0999 V2000
  189.9240  176.6830  144.4820 N   0  0  0  0  0  2  0  0  0  0  0  0
  191.1770  178.5170  143.7540 O   0  0  0  0  0  0  0  0  0  0  0  0
  190.9870  177.2710  143.7270 C   0  0  0  0  0  0  0  0  0  0  0  0
  193.4110  175.9630  143.7930 S   0  0  0  0  0  0  0  0  0  0  0  0
  191.8690  176.4140  142.8800 C   0  0  1  0  0  3  0  0  0  0  0  0
  191.1720  172.9990  142.5640 N   0  0  0  0  0  0  0  0  0  0  0  0
  191.2180  175.1180  142.6190 C   0  0  0  0  0  0  0  0  0  0  0  0
  193.0340  174.1460  143.8190 C   0  0  2  0  0  3  0  0  0  0  0  0
  191.7880  174.0360  143.0910 N   0  0  0  0  0  0  0  0  0  0  0  0
  190.1940  173.4720  141.7950 N   0  0  0  0  0  0  0  0  0  0  0  0
  190.2050  174.8050  141.7960 N   0  0  0  0  0  0  0  0  0  0  0  0
  193.9750  172.7960  145.5270 C   0  0  0  0  0  1  0  0  0  0  0  0
  192.8640  173.6780  145.1980 N   0  0  0  0  0  0  0  0  0  0  0  0
  193.0080  174.8200  146.0890 C   0  0  0  0  0  1  0  0  0  0  0  0
  188.9510  177.4820  145.2170 C   0  0  1  0  0  3  0  0  0  0  0  0
  185.0870  177.4580  143.3240 C   0  0  0  0  0  3  0  0  0  0  0  0
  186.5560  178.1930  145.1030 C   0  0  0  0  0  3  0  0  0  0  0  0
  185.2970  178.1920  144.4950 C   0  0  0  0  0  0  0  0  0  0  0  0
  187.6130  177.4700  144.5390 C   0  0  0  0  0  0  0  0  0  0  0  0
  187.3980  176.7350  143.3620 C   0  0  0  0  0  3  0  0  0  0  0  0
  186.1360  176.7280  142.7580 C   0  0  0  0  0  3  0  0  0  0  0  0
  184.1770  178.9600  145.1000 C   0  0  0  0  0  1  0  0  0  0  0  0
  190.0550  177.3850  147.3550 O   0  0  0  0  0  1  0  0  0  0  0  0
  188.8670  177.0690  146.6920 C   0  0  2  0  0  3  0  0  0  0  0  0
  188.5040  175.5970  146.9150 C   0  0  0  0  0  2  0  0  0  0  0  0
  189.5860  174.8880  147.4410 O   0  0  0  0  0  1  0  0  0  0  0  0
  3  2  2  0  0  0  0
  3  1  1  0  0  0  0
  4  8  1  0  0  0  0
  5  3  1  1  0  0  0
  5  4  1  0  0  0  0
  6  9  1  0  0  0  0
  7  5  1  0  0  0  0
  7  9  1  0  0  0  0
  8 13  1  1  0  0  0
  9  8  1  0  0  0  0
 10 11  1  0  0  0  0
 10  6  2  0  0  0  0
 11  7  2  0  0  0  0
 13 12  1  0  0  0  0
 13 14  1  0  0  0  0
 15  1  1  6  0  0  0
 15 24  1  0  0  0  0
 16 18  1  0  0  0  0
 18 22  1  0  0  0  0
 18 17  2  0  0  0  0
 19 17  1  0  0  0  0
 19 15  1  0  0  0  0
 20 19  2  0  0  0  0
 21 16  2  0  0  0  0
 21 20  1  0  0  0  0
 24 25  1  0  0  0  0
 24 23  1  6  0  0  0
 25 26  1  0  0  0  0
M  END
>  <MODEL>
5

>  <REMARK>
 VINA RESULT:      -6.1      2.248      3.154
  Name = 
  6 active torsions:
  status: ('A' for Active; 'I' for Inactive)
    1  A    between atoms: C_5  and  C_26
    2  A    between atoms: C_6  and  C_16
    3  A    between atoms: C_6  and  C_18
    4  A    between atoms: N_8  and  C_10
    5  A    between atoms: N_12  and  C_16
    6  A    between atoms: C_15  and  C_16
                            x       y       z     vdW  Elec       q    Type
                         _______ _______ _______ _____ _____    ______ ____

>  <TORSDO>
F 6

$$$$
=
 OpenBabel11042418513D

 26 28  0  0  1  0  0  0  0  0999 V2000
  189.3000  175.6850  144.6440 N   0  0  0  0  0  2  0  0  0  0  0  0
  189.3600  173.5020  143.8130 O   0  0  0  0  0  0  0  0  0  0  0  0
  189.8410  174.3610  144.5990 C   0  0  0  0  0  0  0  0  0  0  0  0
  192.5410  173.8150  144.5460 S   0  0  0  0  0  0  0  0  0  0  0  0
  190.9680  173.9810  145.5010 C   0  0  1  0  0  3  0  0  0  0  0  0
  192.5230  176.4320  147.4540 N   0  0  0  0  0  0  0  0  0  0  0  0
  191.2440  175.0680  146.4560 C   0  0  0  0  0  0  0  0  0  0  0  0
  193.3840  175.2190  145.4190 C   0  0  2  0  0  3  0  0  0  0  0  0
  192.4110  175.6620  146.3930 N   0  0  0  0  0  0  0  0  0  0  0  0
  191.3890  176.3230  148.1420 N   0  0  0  0  0  0  0  0  0  0  0  0
  190.5660  175.4580  147.5470 N   0  0  0  0  0  0  0  0  0  0  0  0
  195.1360  176.4860  144.4410 C   0  0  0  0  0  1  0  0  0  0  0  0
  193.6930  176.2990  144.4750 N   0  0  0  0  0  0  0  0  0  0  0  0
  193.3360  175.8500  143.1370 C   0  0  0  0  0  1  0  0  0  0  0  0
  188.1170  176.0730  143.8870 C   0  0  1  0  0  3  0  0  0  0  0  0
  185.5320  178.6240  146.1950 C   0  0  0  0  0  3  0  0  0  0  0  0
  186.6710  178.1000  144.1230 C   0  0  0  0  0  3  0  0  0  0  0  0
  185.8290  178.9350  144.8650 C   0  0  0  0  0  0  0  0  0  0  0  0
  187.2100  176.9460  144.7030 C   0  0  0  0  0  0  0  0  0  0  0  0
  186.9090  176.6380  146.0390 C   0  0  0  0  0  3  0  0  0  0  0  0
  186.0730  177.4770  146.7830 C   0  0  0  0  0  3  0  0  0  0  0  0
  185.2600  180.1600  144.2440 C   0  0  0  0  0  1  0  0  0  0  0  0
  188.1780  175.8260  141.4930 O   0  0  0  0  0  1  0  0  0  0  0  0
  188.4810  176.7030  142.5360 C   0  0  2  0  0  3  0  0  0  0  0  0
  189.9340  177.1780  142.4340 C   0  0  0  0  0  2  0  0  0  0  0  0
  190.1160  178.3880  143.1070 O   0  0  0  0  0  1  0  0  0  0  0  0
  2  3  2  0  0  0  0
  3  1  1  0  0  0  0
  4  8  1  0  0  0  0
  4  5  1  0  0  0  0
  5  3  1  6  0  0  0
  5  7  1  0  0  0  0
  6 10  2  0  0  0  0
  7 11  2  0  0  0  0
  8 13  1  6  0  0  0
  8  9  1  0  0  0  0
  9  7  1  0  0  0  0
  9  6  1  0  0  0  0
 11 10  1  0  0  0  0
 12 13  1  0  0  0  0
 14 13  1  0  0  0  0
 15  1  1  1  0  0  0
 15 19  1  0  0  0  0
 16 21  1  0  0  0  0
 17 19  2  0  0  0  0
 17 18  1  0  0  0  0
 18 16  2  0  0  0  0
 19 20  1  0  0  0  0
 20 21  2  0  0  0  0
 22 18  1  0  0  0  0
 24 23  1  6  0  0  0
 24 15  1  0  0  0  0
 25 24  1  0  0  0  0
 25 26  1  0  0  0  0
M  END
>  <MODEL>
6

>  <REMARK>
 VINA RESULT:      -6.1      3.069      4.893
  Name = 
  6 active torsions:
  status: ('A' for Active; 'I' for Inactive)
    1  A    between atoms: C_5  and  C_26
    2  A    between atoms: C_6  and  C_16
    3  A    between atoms: C_6  and  C_18
    4  A    between atoms: N_8  and  C_10
    5  A    between atoms: N_12  and  C_16
    6  A    between atoms: C_15  and  C_16
                            x       y       z     vdW  Elec       q    Type
                         _______ _______ _______ _____ _____    ______ ____

>  <TORSDO>
F 6

$$$$
=
 OpenBabel11042418513D

 26 28  0  0  1  0  0  0  0  0999 V2000
  188.5150  175.8090  143.7190 N   0  0  0  0  0  2  0  0  0  0  0  0
  188.4020  173.8310  142.4810 O   0  0  0  0  0  0  0  0  0  0  0  0
  188.9440  174.4790  143.4160 C   0  0  0  0  0  0  0  0  0  0  0  0
  191.6820  174.1860  143.4800 S   0  0  0  0  0  0  0  0  0  0  0  0
  190.0260  173.8380  144.2210 C   0  0  1  0  0  3  0  0  0  0  0  0
  191.1270  175.3700  147.1680 N   0  0  0  0  0  0  0  0  0  0  0  0
  190.0970  174.4530  145.5570 C   0  0  0  0  0  0  0  0  0  0  0  0
  192.2870  175.1600  144.9390 C   0  0  2  0  0  3  0  0  0  0  0  0
  191.1910  175.0980  145.8810 N   0  0  0  0  0  0  0  0  0  0  0  0
  189.9580  174.9120  147.6090 N   0  0  0  0  0  0  0  0  0  0  0  0
  189.2900  174.3150  146.6210 N   0  0  0  0  0  0  0  0  0  0  0  0
  193.9840  176.7950  144.6550 C   0  0  0  0  0  1  0  0  0  0  0  0
  192.5520  176.5500  144.5530 N   0  0  0  0  0  0  0  0  0  0  0  0
  192.2410  176.6980  143.1380 C   0  0  0  0  0  1  0  0  0  0  0  0
  187.3760  176.4340  143.0590 C   0  0  1  0  0  3  0  0  0  0  0  0
  184.9250  178.5140  145.9190 C   0  0  0  0  0  3  0  0  0  0  0  0
  186.9880  177.3870  145.3390 C   0  0  0  0  0  3  0  0  0  0  0  0
  186.1990  178.0620  146.2750 C   0  0  0  0  0  0  0  0  0  0  0  0
  186.5120  177.1690  144.0410 C   0  0  0  0  0  0  0  0  0  0  0  0
  185.2320  177.6260  143.6880 C   0  0  0  0  0  3  0  0  0  0  0  0
  184.4400  178.2950  144.6260 C   0  0  0  0  0  3  0  0  0  0  0  0
  186.7090  178.2890  147.6530 C   0  0  0  0  0  1  0  0  0  0  0  0
  187.6440  178.6660  142.1980 O   0  0  0  0  0  1  0  0  0  0  0  0
  187.8090  177.3160  141.8810 C   0  0  2  0  0  3  0  0  0  0  0  0
  187.1120  176.9870  140.5570 C   0  0  0  0  0  2  0  0  0  0  0  0
  186.1050  177.9140  140.2770 O   0  0  0  0  0  1  0  0  0  0  0  0
  2  3  2  0  0  0  0
  3  1  1  0  0  0  0
  4  5  1  0  0  0  0
  4  8  1  0  0  0  0
  5  3  1  6  0  0  0
  5  7  1  0  0  0  0
  6 10  2  0  0  0  0
  7  9  1  0  0  0  0
  7 11  2  0  0  0  0
  8 13  1  6  0  0  0
  8  9  1  0  0  0  0
  9  6  1  0  0  0  0
 11 10  1  0  0  0  0
 13 12  1  0  0  0  0
 14 13  1  0  0  0  0
 15  1  1  1  0  0  0
 15 19  1  0  0  0  0
 16 18  1  0  0  0  0
 17 18  2  0  0  0  0
 18 22  1  0  0  0  0
 19 17  1  0  0  0  0
 20 19  2  0  0  0  0
 20 21  1  0  0  0  0
 21 16  2  0  0  0  0
 24 23  1  1  0  0  0
 24 15  1  0  0  0  0
 25 24  1  0  0  0  0
 26 25  1  0  0  0  0
M  END
>  <MODEL>
7

>  <REMARK>
 VINA RESULT:      -6.1      2.862      4.924
  Name = 
  6 active torsions:
  status: ('A' for Active; 'I' for Inactive)
    1  A    between atoms: C_5  and  C_26
    2  A    between atoms: C_6  and  C_16
    3  A    between atoms: C_6  and  C_18
    4  A    between atoms: N_8  and  C_10
    5  A    between atoms: N_12  and  C_16
    6  A    between atoms: C_15  and  C_16
                            x       y       z     vdW  Elec       q    Type
                         _______ _______ _______ _____ _____    ______ ____

>  <TORSDO>
F 6

$$$$
=
 OpenBabel11042418513D

 26 28  0  0  1  0  0  0  0  0999 V2000
  188.7050  176.3390  146.0040 N   0  0  0  0  0  2  0  0  0  0  0  0
  190.0560  177.3820  147.6000 O   0  0  0  0  0  0  0  0  0  0  0  0
  189.9060  176.4420  146.7740 C   0  0  0  0  0  0  0  0  0  0  0  0
  190.7420  174.4710  145.0420 S   0  0  0  0  0  0  0  0  0  0  0  0
  191.0040  175.4470  146.5880 C   0  0  1  0  0  3  0  0  0  0  0  0
  194.0820  176.4930  145.2950 N   0  0  0  0  0  0  0  0  0  0  0  0
  192.2840  176.1400  146.3600 C   0  0  0  0  0  0  0  0  0  0  0  0
  192.2750  175.1080  144.2120 C   0  0  2  0  0  3  0  0  0  0  0  0
  192.8760  175.9740  145.2020 N   0  0  0  0  0  0  0  0  0  0  0  0
  194.1970  177.0090  146.5160 N   0  0  0  0  0  0  0  0  0  0  0  0
  193.0850  176.7900  147.2190 N   0  0  0  0  0  0  0  0  0  0  0  0
  192.9700  175.6640  142.0130 C   0  0  0  0  0  1  0  0  0  0  0  0
  191.9280  175.8700  143.0080 N   0  0  0  0  0  0  0  0  0  0  0  0
  190.7280  175.2840  142.4280 C   0  0  0  0  0  1  0  0  0  0  0  0
  187.6600  177.3540  146.0440 C   0  0  1  0  0  3  0  0  0  0  0  0
  186.2250  178.2040  142.0780 C   0  0  0  0  0  3  0  0  0  0  0  0
  187.5090  176.8300  143.6030 C   0  0  0  0  0  3  0  0  0  0  0  0
  187.0470  177.0980  142.3110 C   0  0  0  0  0  0  0  0  0  0  0  0
  187.1430  177.6590  144.6700 C   0  0  0  0  0  0  0  0  0  0  0  0
  186.3170  178.7690  144.4310 C   0  0  0  0  0  3  0  0  0  0  0  0
  185.8610  179.0410  143.1370 C   0  0  0  0  0  3  0  0  0  0  0  0
  187.4410  176.2150  141.1820 C   0  0  0  0  0  1  0  0  0  0  0  0
  185.4390  176.4700  146.3350 O   0  0  0  0  0  1  0  0  0  0  0  0
  186.5390  176.9840  147.0250 C   0  0  2  0  0  3  0  0  0  0  0  0
  186.1070  178.1280  147.9480 C   0  0  0  0  0  2  0  0  0  0  0  0
  184.8180  178.5660  147.6340 O   0  0  0  0  0  1  0  0  0  0  0  0
  1  3  1  0  0  0  0
  3  2  2  0  0  0  0
  4  5  1  0  0  0  0
  5  3  1  6  0  0  0
  6 10  2  0  0  0  0
  7  5  1  0  0  0  0
  7 11  2  0  0  0  0
  8 13  1  6  0  0  0
  8  4  1  0  0  0  0
  8  9  1  0  0  0  0
  9  6  1  0  0  0  0
  9  7  1  0  0  0  0
 10 11  1  0  0  0  0
 12 13  1  0  0  0  0
 14 13  1  0  0  0  0
 15  1  1  6  0  0  0
 15 24  1  0  0  0  0
 16 18  2  0  0  0  0
 16 21  1  0  0  0  0
 17 19  2  0  0  0  0
 18 17  1  0  0  0  0
 19 15  1  0  0  0  0
 20 19  1  0  0  0  0
 21 20  2  0  0  0  0
 22 18  1  0  0  0  0
 24 23  1  6  0  0  0
 24 25  1  0  0  0  0
 26 25  1  0  0  0  0
M  END
>  <MODEL>
8

>  <REMARK>
 VINA RESULT:      -6.0      3.130      4.644
  Name = 
  6 active torsions:
  status: ('A' for Active; 'I' for Inactive)
    1  A    between atoms: C_5  and  C_26
    2  A    between atoms: C_6  and  C_16
    3  A    between atoms: C_6  and  C_18
    4  A    between atoms: N_8  and  C_10
    5  A    between atoms: N_12  and  C_16
    6  A    between atoms: C_15  and  C_16
                            x       y       z     vdW  Elec       q    Type
                         _______ _______ _______ _____ _____    ______ ____

>  <TORSDO>
F 6

$$$$
=
 OpenBabel11042418513D

 26 28  0  0  1  0  0  0  0  0999 V2000
  190.4960  176.1010  144.6090 N   0  0  0  0  0  2  0  0  0  0  0  0
  192.5870  177.1380  144.7270 O   0  0  0  0  0  0  0  0  0  0  0  0
  191.8790  176.2060  144.2600 C   0  0  0  0  0  0  0  0  0  0  0  0
  193.9620  175.9560  142.4750 S   0  0  0  0  0  0  0  0  0  0  0  0
  192.4910  175.2220  143.3190 C   0  0  1  0  0  3  0  0  0  0  0  0
  194.5810  172.7070  144.5650 N   0  0  0  0  0  0  0  0  0  0  0  0
  193.0430  174.0790  144.0670 C   0  0  0  0  0  0  0  0  0  0  0  0
  195.1670  174.7620  143.2270 C   0  0  2  0  0  3  0  0  0  0  0  0
  194.3390  173.8810  144.0210 N   0  0  0  0  0  0  0  0  0  0  0  0
  193.4150  172.2140  144.9750 N   0  0  0  0  0  0  0  0  0  0  0  0
  192.4220  173.0490  144.6630 N   0  0  0  0  0  0  0  0  0  0  0  0
  197.3990  174.7680  144.0320 C   0  0  0  0  0  1  0  0  0  0  0  0
  196.1250  175.4720  144.0820 N   0  0  0  0  0  0  0  0  0  0  0  0
  196.3870  176.7750  143.4880 C   0  0  0  0  0  1  0  0  0  0  0  0
  189.8130  177.1070  145.4120 C   0  0  1  0  0  3  0  0  0  0  0  0
  185.9390  178.0550  143.7960 C   0  0  0  0  0  3  0  0  0  0  0  0
  187.3560  177.4940  145.6780 C   0  0  0  0  0  3  0  0  0  0  0  0
  186.0930  177.8020  145.1620 C   0  0  0  0  0  0  0  0  0  0  0  0
  188.4710  177.4480  144.8340 C   0  0  0  0  0  0  0  0  0  0  0  0
  188.3120  177.7040  143.4630 C   0  0  0  0  0  3  0  0  0  0  0  0
  187.0480  178.0040  142.9450 C   0  0  0  0  0  3  0  0  0  0  0  0
  184.9120  177.8470  146.0630 C   0  0  0  0  0  1  0  0  0  0  0  0
  190.5400  177.5330  147.6680 O   0  0  0  0  0  1  0  0  0  0  0  0
  189.7300  176.7020  146.8900 C   0  0  2  0  0  3  0  0  0  0  0  0
  190.0570  175.2300  147.1590 C   0  0  0  0  0  2  0  0  0  0  0  0
  188.9370  174.5480  147.6410 O   0  0  0  0  0  1  0  0  0  0  0  0
  3  1  1  0  0  0  0
  3  2  2  0  0  0  0
  4  8  1  0  0  0  0
  4  5  1  0  0  0  0
  5  7  1  0  0  0  0
  5  3  1  1  0  0  0
  6 10  2  0  0  0  0
  7 11  2  0  0  0  0
  8  9  1  0  0  0  0
  8 13  1  1  0  0  0
  9  7  1  0  0  0  0
  9  6  1  0  0  0  0
 11 10  1  0  0  0  0
 12 13  1  0  0  0  0
 14 13  1  0  0  0  0
 15  1  1  6  0  0  0
 15 24  1  0  0  0  0
 16 18  1  0  0  0  0
 18 17  2  0  0  0  0
 18 22  1  0  0  0  0
 19 15  1  0  0  0  0
 19 17  1  0  0  0  0
 20 19  2  0  0  0  0
 21 20  1  0  0  0  0
 21 16  2  0  0  0  0
 24 25  1  0  0  0  0
 24 23  1  1  0  0  0
 25 26  1  0  0  0  0
M  END
>  <MODEL>
9

>  <REMARK>
 VINA RESULT:      -5.9      3.768      4.902
  Name = 
  6 active torsions:
  status: ('A' for Active; 'I' for Inactive)
    1  A    between atoms: C_5  and  C_26
    2  A    between atoms: C_6  and  C_16
    3  A    between atoms: C_6  and  C_18
    4  A    between atoms: N_8  and  C_10
    5  A    between atoms: N_12  and  C_16
    6  A    between atoms: C_15  and  C_16
                            x       y       z     vdW  Elec       q    Type
                         _______ _______ _______ _____ _____    ______ ____

>  <TORSDO>
F 6

$$$$
