=
 OpenBabel11042419453D

 50 57  0  0  1  0  0  0  0  0999 V2000
  190.2950  175.3340  143.5910 C   0  0  1  0  0  3  0  0  0  0  0  0
  190.7780  173.5560  145.0160 C   0  0  2  0  0  3  0  0  0  0  0  0
  190.1380  176.8350  143.5740 C   0  0  0  0  0  0  0  0  0  0  0  0
  189.1660  177.4700  144.5090 C   0  0  0  0  0  2  0  0  0  0  0  0
  191.6700  174.8360  143.3130 C   0  0  0  0  0  0  0  0  0  0  0  0
  189.8620  174.7000  144.8630 N   0  0  1  0  0  0  0  0  0  0  0  0
  189.2450  176.9200  145.9350 C   0  0  1  0  0  0  0  0  0  0  0  0
  190.6970  177.5190  142.7320 O   0  0  0  0  0  0  0  0  0  0  0  0
  190.0740  175.6050  146.0180 C   0  0  1  0  0  3  0  0  0  0  0  0
  191.9270  173.8170  144.1090 C   0  0  0  0  0  0  0  0  0  0  0  0
  189.8730  177.8910  146.7170 O   0  0  0  0  0  1  0  0  0  0  0  0
  192.5550  175.3350  142.2050 C   0  0  1  0  0  3  0  0  0  0  0  0
  193.8860  175.6810  142.7310 N   0  0  0  0  0  2  0  0  0  0  0  0
  196.0570  175.4460  140.0200 O   0  0  0  0  0  0  0  0  0  0  0  0
  196.8260  176.2240  140.9090 C   0  0  0  0  0  2  0  0  0  0  0  0
  195.9380  176.5840  142.0910 C   0  0  0  0  0  2  0  0  0  0  0  0
  194.9600  175.0760  140.8040 C   0  0  1  0  0  3  0  0  0  0  0  0
  194.6260  176.1950  141.6530 N   0  0  1  0  0  0  0  0  0  0  0  0
  192.6450  174.3060  141.0540 C   0  0  0  0  0  2  0  0  0  0  0  0
  193.7160  174.6930  140.0220 C   0  0  2  0  0  3  0  0  0  0  0  0
  193.9840  173.6000  139.1950 O   0  0  0  0  0  0  0  0  0  0  0  0
  194.1780  172.5330  140.0730 C   0  0  0  0  0  1  0  0  0  0  0  0
  187.8680  176.7200  146.3910 N   0  0  0  0  0  2  0  0  0  0  0  0
  185.5260  177.1030  146.2970 N   0  0  0  0  0  0  0  0  0  0  0  0
  185.2310  178.5940  144.5180 N   0  0  2  0  0  0  0  0  0  0  0  0
  186.6580  178.2730  144.6850 C   0  0  0  0  0  2  0  0  0  0  0  0
  186.6970  177.3370  145.8430 C   0  0  0  0  0  0  0  0  0  0  0  0
  184.6220  177.8370  145.5360 N   0  0  0  0  0  2  0  0  0  0  0  0
  185.7690  178.4260  142.1160 C   0  0  0  0  0  2  0  0  0  0  0  0
  183.4110  178.6230  142.8570 C   0  0  0  0  0  2  0  0  0  0  0  0
  185.3370  177.8370  140.8500 N   0  0  0  0  0  2  0  0  0  0  0  0
  182.9900  178.1190  141.4790 C   0  0  0  0  0  2  0  0  0  0  0  0
  184.7840  178.0570  143.2300 C   0  0  2  0  0  3  0  0  0  0  0  0
  184.0720  178.4560  140.4590 C   0  0  0  0  0  2  0  0  0  0  0  0
  189.9460  174.8930  147.3760 C   0  0  0  0  0  2  0  0  0  0  0  0
  191.0500  175.1680  148.1860 O   0  0  0  0  0  1  0  0  0  0  0  0
  193.1510  173.0530  144.1170 C   0  0  0  0  0  0  0  0  0  0  0  0
  194.1750  172.4160  144.1220 C   0  0  0  0  0  3  0  0  0  0  0  0
  190.0580  172.2720  144.6250 C   0  0  0  0  0  2  0  0  0  0  0  0
  189.2060  172.5040  143.3930 C   0  0  0  0  0  2  0  0  0  0  0  0
  189.6660  171.5880  142.2780 C   0  0  0  0  0  2  0  0  0  0  0  0
  188.7910  173.5500  140.8720 C   0  0  0  0  0  3  0  0  0  0  0  0
  190.1080  172.5270  138.6490 N   0  0  0  0  0  0  0  0  0  0  0  0
  191.0050  170.6380  139.7410 C   0  0  0  0  0  3  0  0  0  0  0  0
  189.5490  172.2870  140.9630 C   0  0  0  0  0  0  0  0  0  0  0  0
  191.4600  170.7300  138.2750 C   0  0  0  0  0  3  0  0  0  0  0  0
  188.6430  174.1940  139.7060 C   0  0  0  0  0  3  0  0  0  0  0  0
  190.8000  171.8760  137.6230 N   0  0  0  0  0  0  0  0  0  0  0  0
  189.2000  173.6500  138.4090 C   0  0  0  0  0  3  0  0  0  0  0  0
  190.1700  171.8370  139.8700 C   0  0  0  0  0  0  0  0  0  0  0  0
  1  5  1  1  0  0  0
  1  6  1  0  0  0  0
  2 39  1  6  0  0  0
  3  1  1  0  0  0  0
  3  4  1  0  0  0  0
  4  7  1  0  0  0  0
  5 10  2  0  0  0  0
  6  2  1  0  0  0  0
  6  9  1  0  0  0  0
  7  9  1  0  0  0  0
  7 23  1  0  0  0  0
  7 11  1  0  0  0  0
  8  3  2  0  0  0  0
  9 35  1  0  0  0  0
 10 37  1  0  0  0  0
 10  2  1  0  0  0  0
 12 13  1  0  0  0  0
 12  5  1  0  0  0  0
 14 17  1  0  0  0  0
 14 15  1  0  0  0  0
 15 16  1  0  0  0  0
 17 18  1  0  0  0  0
 18 16  1  0  0  0  0
 18 13  1  0  0  0  0
 19 12  1  0  0  0  0
 20 17  1  0  0  0  0
 20 19  1  0  0  0  0
 21 20  1  0  0  0  0
 21 22  1  0  0  0  0
 25 26  1  0  0  0  0
 25 28  1  0  0  0  0
 26 27  1  0  0  0  0
 27 24  2  0  0  0  0
 27 23  1  0  0  0  0
 28 24  1  0  0  0  0
 29 33  1  0  0  0  0
 30 33  1  0  0  0  0
 31 29  1  0  0  0  0
 32 30  1  0  0  0  0
 33 25  1  0  0  0  0
 34 31  1  0  0  0  0
 34 32  1  0  0  0  0
 35 36  1  0  0  0  0
 37 38  3  0  0  0  0
 40 39  1  0  0  0  0
 41 40  1  0  0  0  0
 42 45  2  0  0  0  0
 43 50  1  0  0  0  0
 44 50  2  0  0  0  0
 45 41  1  0  0  0  0
 46 44  1  0  0  0  0
 47 42  1  0  0  0  0
 48 46  2  0  0  0  0
 48 43  1  0  0  0  0
 49 43  1  0  0  0  0
 49 47  2  0  0  0  0
 50 45  1  0  0  0  0
M  END
>  <MODEL>
1

>  <REMARK>
 VINA RESULT:      -8.3      0.000      0.000
  Name = 
  10 active torsions:
  status: ('A' for Active; 'I' for Inactive)
    1  A    between atoms: C_1  and  C_44
    2  A    between atoms: C_3  and  C_46
    3  A    between atoms: C_4  and  C_27
    4  A    between atoms: N_5  and  C_29
    5  A    between atoms: C_9  and  C_26
    6  A    between atoms: C_12  and  C_27
    7  A    between atoms: C_12  and  C_31
    8  A    between atoms: N_18  and  C_41
    9  A    between atoms: C_20  and  C_31
   10  A    between atoms: O_33  and  C_49
                            x       y       z     vdW  Elec       q    Type
                         _______ _______ _______ _____ _____    ______ ____

>  <TORSDO>
F 10

$$$$
=
 OpenBabel11042419453D

 50 57  0  0  1  0  0  0  0  0999 V2000
  191.1170  172.1350  141.6550 C   0  0  1  0  0  3  0  0  0  0  0  0
  193.2370  172.9050  142.2370 C   0  0  2  0  0  3  0  0  0  0  0  0
  189.7170  172.6160  141.3580 C   0  0  0  0  0  0  0  0  0  0  0  0
  189.0110  173.4530  142.3700 C   0  0  0  0  0  2  0  0  0  0  0  0
  192.0190  172.0380  140.4760 C   0  0  0  0  0  0  0  0  0  0  0  0
  191.8290  172.9530  142.6700 N   0  0  1  0  0  0  0  0  0  0  0  0
  189.8840  174.5630  142.9580 C   0  0  1  0  0  0  0  0  0  0  0  0
  189.1150  172.2340  140.3680 O   0  0  0  0  0  0  0  0  0  0  0  0
  191.3920  174.3690  142.6270 C   0  0  1  0  0  3  0  0  0  0  0  0
  193.2220  172.4560  140.8200 C   0  0  0  0  0  0  0  0  0  0  0  0
  189.4560  175.7660  142.3940 O   0  0  0  0  0  1  0  0  0  0  0  0
  191.6410  171.4280  139.1550 C   0  0  1  0  0  3  0  0  0  0  0  0
  191.8260  172.4060  138.0700 N   0  0  0  0  0  2  0  0  0  0  0  0
  192.2620  170.5230  135.1750 O   0  0  0  0  0  0  0  0  0  0  0  0
  191.9300  171.7780  134.6270 C   0  0  0  0  0  2  0  0  0  0  0  0
  191.5180  172.6860  135.7760 C   0  0  0  0  0  2  0  0  0  0  0  0
  192.3980  170.8070  136.5360 C   0  0  1  0  0  3  0  0  0  0  0  0
  191.3940  171.7840  136.8870 N   0  0  1  0  0  0  0  0  0  0  0  0
  192.4330  170.1260  138.8920 C   0  0  0  0  0  2  0  0  0  0  0  0
  192.2310  169.6120  137.4580 C   0  0  2  0  0  3  0  0  0  0  0  0
  193.1940  168.6430  137.1700 O   0  0  0  0  0  0  0  0  0  0  0  0
  194.4000  169.2080  137.5860 C   0  0  0  0  0  1  0  0  0  0  0  0
  189.6450  174.5720  144.4030 N   0  0  0  0  0  2  0  0  0  0  0  0
  188.7980  175.5240  146.4060 N   0  0  0  0  0  0  0  0  0  0  0  0
  187.7870  177.5270  145.7400 N   0  0  2  0  0  0  0  0  0  0  0  0
  188.3600  176.8320  144.5760 C   0  0  0  0  0  2  0  0  0  0  0  0
  188.9710  175.5970  145.1420 C   0  0  0  0  0  0  0  0  0  0  0  0
  188.0980  176.6590  146.8040 N   0  0  0  0  0  2  0  0  0  0  0  0
  185.9220  178.3740  144.3650 C   0  0  0  0  0  2  0  0  0  0  0  0
  185.6720  178.1820  146.8240 C   0  0  0  0  0  2  0  0  0  0  0  0
  184.4700  178.3420  144.2010 N   0  0  0  0  0  2  0  0  0  0  0  0
  184.1620  178.2750  146.6270 C   0  0  0  0  0  2  0  0  0  0  0  0
  186.3300  177.5520  145.5920 C   0  0  2  0  0  3  0  0  0  0  0  0
  183.8610  179.0310  145.3370 C   0  0  0  0  0  2  0  0  0  0  0  0
  192.3130  175.3110  143.4220 C   0  0  0  0  0  2  0  0  0  0  0  0
  192.7750  176.3530  142.6140 O   0  0  0  0  0  1  0  0  0  0  0  0
  194.3740  172.4860  139.9510 C   0  0  0  0  0  0  0  0  0  0  0  0
  195.3350  172.5090  139.2240 C   0  0  0  0  0  3  0  0  0  0  0  0
  194.0050  171.9220  143.1100 C   0  0  0  0  0  2  0  0  0  0  0  0
  193.8110  172.2620  144.5750 C   0  0  0  0  0  2  0  0  0  0  0  0
  195.1190  172.7550  145.1590 C   0  0  0  0  0  2  0  0  0  0  0  0
  194.4540  174.9660  146.2810 C   0  0  0  0  0  3  0  0  0  0  0  0
  195.8700  176.3620  144.3390 N   0  0  0  0  0  0  0  0  0  0  0  0
  196.5840  174.4600  143.1400 C   0  0  0  0  0  3  0  0  0  0  0  0
  195.1340  174.2480  145.1860 C   0  0  0  0  0  0  0  0  0  0  0  0
  197.1480  175.7620  142.5480 C   0  0  0  0  0  3  0  0  0  0  0  0
  194.4250  176.3050  146.3250 C   0  0  0  0  0  3  0  0  0  0  0  0
  196.5990  176.9170  143.2820 N   0  0  0  0  0  0  0  0  0  0  0  0
  195.0430  177.1620  145.2430 C   0  0  0  0  0  3  0  0  0  0  0  0
  195.8080  174.9600  144.2780 C   0  0  0  0  0  0  0  0  0  0  0  0
  1  5  1  6  0  0  0
  1  6  1  0  0  0  0
  2  6  1  0  0  0  0
  2 39  1  1  0  0  0
  3  1  1  0  0  0  0
  3  4  1  0  0  0  0
  4  7  1  0  0  0  0
  5 10  2  0  0  0  0
  7 23  1  0  0  0  0
  8  3  2  0  0  0  0
  9  6  1  0  0  0  0
  9  7  1  0  0  0  0
  9 35  1  0  0  0  0
 10  2  1  0  0  0  0
 11  7  1  0  0  0  0
 12  5  1  0  0  0  0
 13 12  1  0  0  0  0
 14 17  1  0  0  0  0
 15 14  1  0  0  0  0
 15 16  1  0  0  0  0
 16 18  1  0  0  0  0
 17 18  1  0  0  0  0
 17 20  1  0  0  0  0
 18 13  1  0  0  0  0
 19 12  1  0  0  0  0
 20 19  1  0  0  0  0
 21 20  1  0  0  0  0
 21 22  1  0  0  0  0
 23 27  1  0  0  0  0
 24 28  1  0  0  0  0
 25 28  1  0  0  0  0
 26 27  1  0  0  0  0
 26 25  1  0  0  0  0
 27 24  2  0  0  0  0
 29 33  1  0  0  0  0
 31 29  1  0  0  0  0
 31 34  1  0  0  0  0
 32 30  1  0  0  0  0
 33 25  1  0  0  0  0
 33 30  1  0  0  0  0
 34 32  1  0  0  0  0
 36 35  1  0  0  0  0
 37 10  1  0  0  0  0
 38 37  3  0  0  0  0
 39 40  1  0  0  0  0
 40 41  1  0  0  0  0
 41 45  1  0  0  0  0
 42 47  1  0  0  0  0
 43 49  1  0  0  0  0
 44 50  2  0  0  0  0
 45 42  2  0  0  0  0
 46 44  1  0  0  0  0
 46 48  2  0  0  0  0
 48 43  1  0  0  0  0
 49 47  2  0  0  0  0
 50 43  1  0  0  0  0
 50 45  1  0  0  0  0
M  END
>  <MODEL>
2

>  <REMARK>
 VINA RESULT:      -7.2      2.367      5.804
  Name = 
  10 active torsions:
  status: ('A' for Active; 'I' for Inactive)
    1  A    between atoms: C_1  and  C_44
    2  A    between atoms: C_3  and  C_46
    3  A    between atoms: C_4  and  C_27
    4  A    between atoms: N_5  and  C_29
    5  A    between atoms: C_9  and  C_26
    6  A    between atoms: C_12  and  C_27
    7  A    between atoms: C_12  and  C_31
    8  A    between atoms: N_18  and  C_41
    9  A    between atoms: C_20  and  C_31
   10  A    between atoms: O_33  and  C_49
                            x       y       z     vdW  Elec       q    Type
                         _______ _______ _______ _____ _____    ______ ____

>  <TORSDO>
F 10

$$$$
=
 OpenBabel11042419453D

 50 57  0  0  1  0  0  0  0  0999 V2000
  191.0310  175.9390  143.6180 C   0  0  1  0  0  3  0  0  0  0  0  0
  190.2640  173.8380  142.9700 C   0  0  2  0  0  3  0  0  0  0  0  0
  191.5070  176.7120  144.8240 C   0  0  0  0  0  0  0  0  0  0  0  0
  190.6290  176.7870  146.0270 C   0  0  0  0  0  2  0  0  0  0  0  0
  192.0960  175.2400  142.8500 C   0  0  0  0  0  0  0  0  0  0  0  0
  189.9920  174.9240  143.9280 N   0  0  1  0  0  0  0  0  0  0  0  0
  190.0130  175.4420  146.4150 C   0  0  1  0  0  0  0  0  0  0  0  0
  192.5340  177.3700  144.7870 O   0  0  0  0  0  0  0  0  0  0  0  0
  190.1650  174.3740  145.2940 C   0  0  1  0  0  3  0  0  0  0  0  0
  191.6460  174.0600  142.4690 C   0  0  0  0  0  0  0  0  0  0  0  0
  190.6890  174.9930  147.5520 O   0  0  0  0  0  1  0  0  0  0  0  0
  193.4130  175.8500  142.4600 C   0  0  1  0  0  3  0  0  0  0  0  0
  194.4850  175.3570  143.3410 N   0  0  0  0  0  2  0  0  0  0  0  0
  197.4320  175.7110  141.5220 O   0  0  0  0  0  0  0  0  0  0  0  0
  197.9410  175.5860  142.8300 C   0  0  0  0  0  2  0  0  0  0  0  0
  196.7590  175.6100  143.7880 C   0  0  0  0  0  2  0  0  0  0  0  0
  196.0710  175.4430  141.6940 C   0  0  1  0  0  3  0  0  0  0  0  0
  195.6630  176.0180  142.9540 N   0  0  1  0  0  0  0  0  0  0  0  0
  193.7320  175.5890  140.9700 C   0  0  0  0  0  2  0  0  0  0  0  0
  195.1680  176.0030  140.6090 C   0  0  2  0  0  3  0  0  0  0  0  0
  195.5120  175.4630  139.3690 O   0  0  0  0  0  0  0  0  0  0  0  0
  194.2980  175.0690  138.8060 C   0  0  0  0  0  1  0  0  0  0  0  0
  188.6060  175.6940  146.7350 N   0  0  0  0  0  2  0  0  0  0  0  0
  186.5030  176.7370  146.3740 N   0  0  0  0  0  0  0  0  0  0  0  0
  186.8190  178.0940  144.4950 N   0  0  2  0  0  0  0  0  0  0  0  0
  188.0660  177.3840  144.8280 C   0  0  0  0  0  2  0  0  0  0  0  0
  187.7240  176.5780  146.0330 C   0  0  0  0  0  0  0  0  0  0  0  0
  185.9280  177.6370  145.4830 N   0  0  0  0  0  2  0  0  0  0  0  0
  187.5180  177.3050  142.2640 C   0  0  0  0  0  2  0  0  0  0  0  0
  185.4520  178.6520  142.5210 C   0  0  0  0  0  2  0  0  0  0  0  0
  187.0260  176.7670  140.9970 N   0  0  0  0  0  2  0  0  0  0  0  0
  185.0240  178.1660  141.1400 C   0  0  0  0  0  2  0  0  0  0  0  0
  186.3410  177.6050  143.1990 C   0  0  2  0  0  3  0  0  0  0  0  0
  186.2580  177.8100  140.3190 C   0  0  0  0  0  2  0  0  0  0  0  0
  189.3290  173.1070  145.5460 C   0  0  0  0  0  2  0  0  0  0  0  0
  189.9630  171.9800  145.0200 O   0  0  0  0  0  1  0  0  0  0  0  0
  192.3840  173.1020  141.6810 C   0  0  0  0  0  0  0  0  0  0  0  0
  192.9980  172.3020  141.0200 C   0  0  0  0  0  3  0  0  0  0  0  0
  189.2570  173.9000  141.8290 C   0  0  0  0  0  2  0  0  0  0  0  0
  189.0480  172.5190  141.2400 C   0  0  0  0  0  2  0  0  0  0  0  0
  188.2140  172.6260  139.9790 C   0  0  0  0  0  2  0  0  0  0  0  0
  190.2270  171.8020  138.6150 C   0  0  0  0  0  3  0  0  0  0  0  0
  189.6830  173.7200  136.6790 N   0  0  0  0  0  0  0  0  0  0  0  0
  187.8070  174.6460  137.7690 C   0  0  0  0  0  3  0  0  0  0  0  0
  189.1060  172.7460  138.7870 C   0  0  0  0  0  0  0  0  0  0  0  0
  188.0650  175.3040  136.4040 C   0  0  0  0  0  3  0  0  0  0  0  0
  191.0630  171.8940  137.5720 C   0  0  0  0  0  3  0  0  0  0  0  0
  189.2960  174.7470  135.8120 N   0  0  0  0  0  0  0  0  0  0  0  0
  190.9410  172.9870  136.5350 C   0  0  0  0  0  3  0  0  0  0  0  0
  188.8790  173.6470  137.8280 C   0  0  0  0  0  0  0  0  0  0  0  0
  1  5  1  1  0  0  0
  1  6  1  0  0  0  0
  1  3  1  0  0  0  0
  2 39  1  6  0  0  0
  2  6  1  0  0  0  0
  3  4  1  0  0  0  0
  4  7  1  0  0  0  0
  6  9  1  0  0  0  0
  7 23  1  0  0  0  0
  7 11  1  0  0  0  0
  8  3  2  0  0  0  0
  9 35  1  0  0  0  0
  9  7  1  0  0  0  0
 10  5  2  0  0  0  0
 10  2  1  0  0  0  0
 12  5  1  0  0  0  0
 12 13  1  0  0  0  0
 14 17  1  0  0  0  0
 14 15  1  0  0  0  0
 15 16  1  0  0  0  0
 17 18  1  0  0  0  0
 18 13  1  0  0  0  0
 18 16  1  0  0  0  0
 19 12  1  0  0  0  0
 20 19  1  0  0  0  0
 20 17  1  0  0  0  0
 21 20  1  0  0  0  0
 22 21  1  0  0  0  0
 25 26  1  0  0  0  0
 25 28  1  0  0  0  0
 26 27  1  0  0  0  0
 27 24  2  0  0  0  0
 27 23  1  0  0  0  0
 28 24  1  0  0  0  0
 29 33  1  0  0  0  0
 30 33  1  0  0  0  0
 31 29  1  0  0  0  0
 32 30  1  0  0  0  0
 33 25  1  0  0  0  0
 34 31  1  0  0  0  0
 34 32  1  0  0  0  0
 36 35  1  0  0  0  0
 37 10  1  0  0  0  0
 38 37  3  0  0  0  0
 40 39  1  0  0  0  0
 41 40  1  0  0  0  0
 42 45  2  0  0  0  0
 43 50  1  0  0  0  0
 44 50  2  0  0  0  0
 45 41  1  0  0  0  0
 46 44  1  0  0  0  0
 47 42  1  0  0  0  0
 48 46  2  0  0  0  0
 48 43  1  0  0  0  0
 49 43  1  0  0  0  0
 49 47  2  0  0  0  0
 50 45  1  0  0  0  0
M  END
>  <MODEL>
3

>  <REMARK>
 VINA RESULT:      -7.2      1.710      2.536
  Name = 
  10 active torsions:
  status: ('A' for Active; 'I' for Inactive)
    1  A    between atoms: C_1  and  C_44
    2  A    between atoms: C_3  and  C_46
    3  A    between atoms: C_4  and  C_27
    4  A    between atoms: N_5  and  C_29
    5  A    between atoms: C_9  and  C_26
    6  A    between atoms: C_12  and  C_27
    7  A    between atoms: C_12  and  C_31
    8  A    between atoms: N_18  and  C_41
    9  A    between atoms: C_20  and  C_31
   10  A    between atoms: O_33  and  C_49
                            x       y       z     vdW  Elec       q    Type
                         _______ _______ _______ _____ _____    ______ ____

>  <TORSDO>
F 10

$$$$
=
 OpenBabel11042419453D

 50 57  0  0  1  0  0  0  0  0999 V2000
  189.9780  172.9020  141.2900 C   0  0  1  0  0  3  0  0  0  0  0  0
  192.0290  172.0570  142.0010 C   0  0  2  0  0  3  0  0  0  0  0  0
  189.1760  174.1780  141.2250 C   0  0  0  0  0  0  0  0  0  0  0  0
  188.9230  174.9390  142.4820 C   0  0  0  0  0  2  0  0  0  0  0  0
  190.8380  172.6290  140.1060 C   0  0  0  0  0  0  0  0  0  0  0  0
  190.8550  172.8050  142.4850 N   0  0  1  0  0  0  0  0  0  0  0  0
  190.1670  175.0880  143.3620 C   0  0  1  0  0  0  0  0  0  0  0  0
  188.6330  174.5310  140.1900 O   0  0  0  0  0  0  0  0  0  0  0  0
  191.3220  174.1420  142.9230 C   0  0  1  0  0  3  0  0  0  0  0  0
  191.9880  172.1320  140.5170 C   0  0  0  0  0  0  0  0  0  0  0  0
  190.6020  176.4090  143.2380 O   0  0  0  0  0  1  0  0  0  0  0  0
  190.3980  172.7720  138.6760 C   0  0  1  0  0  3  0  0  0  0  0  0
  191.2600  173.7340  137.9700 N   0  0  0  0  0  2  0  0  0  0  0  0
  191.0280  172.9030  134.5980 O   0  0  0  0  0  0  0  0  0  0  0  0
  191.5360  174.2150  134.5130 C   0  0  0  0  0  2  0  0  0  0  0  0
  191.5210  174.8050  135.9160 C   0  0  0  0  0  2  0  0  0  0  0  0
  191.0830  172.6390  135.9690 C   0  0  1  0  0  3  0  0  0  0  0  0
  190.7470  173.8570  136.6680 N   0  0  1  0  0  0  0  0  0  0  0  0
  190.3660  171.4010  137.9610 C   0  0  0  0  0  2  0  0  0  0  0  0
  190.1410  171.5480  136.4480 C   0  0  2  0  0  3  0  0  0  0  0  0
  190.4370  170.3420  135.8120 O   0  0  0  0  0  0  0  0  0  0  0  0
  191.6280  169.9150  136.4020 C   0  0  0  0  0  1  0  0  0  0  0  0
  189.7460  174.8250  144.7400 N   0  0  0  0  0  2  0  0  0  0  0  0
  188.6380  175.3870  146.7640 N   0  0  0  0  0  0  0  0  0  0  0  0
  187.6890  177.4880  146.3660 N   0  0  2  0  0  0  0  0  0  0  0  0
  188.4150  177.0220  145.1730 C   0  0  0  0  0  2  0  0  0  0  0  0
  188.9690  175.6960  145.5690 C   0  0  0  0  0  0  0  0  0  0  0  0
  187.8760  176.4320  147.2770 N   0  0  0  0  0  2  0  0  0  0  0  0
  186.0550  178.0100  144.5940 C   0  0  0  0  0  2  0  0  0  0  0  0
  185.5450  178.5490  146.9600 C   0  0  0  0  0  2  0  0  0  0  0  0
  184.6290  178.0170  144.2710 N   0  0  0  0  0  2  0  0  0  0  0  0
  184.0760  178.6680  146.5630 C   0  0  0  0  0  2  0  0  0  0  0  0
  186.2620  177.5540  146.0420 C   0  0  2  0  0  3  0  0  0  0  0  0
  183.9740  179.0380  145.0880 C   0  0  0  0  0  2  0  0  0  0  0  0
  192.4730  174.0780  143.9410 C   0  0  0  0  0  2  0  0  0  0  0  0
  193.5080  174.9410  143.5760 O   0  0  0  0  0  1  0  0  0  0  0  0
  193.0710  171.7190  139.6580 C   0  0  0  0  0  0  0  0  0  0  0  0
  193.9750  171.3730  138.9380 C   0  0  0  0  0  3  0  0  0  0  0  0
  191.9420  170.6120  142.4750 C   0  0  0  0  0  2  0  0  0  0  0  0
  192.8760  170.3890  143.6480 C   0  0  0  0  0  2  0  0  0  0  0  0
  194.2910  170.2000  143.1420 C   0  0  0  0  0  2  0  0  0  0  0  0
  195.5990  170.6370  145.3080 C   0  0  0  0  0  3  0  0  0  0  0  0
  196.7440  172.8870  144.1470 N   0  0  0  0  0  0  0  0  0  0  0  0
  195.6340  172.6880  142.0760 C   0  0  0  0  0  3  0  0  0  0  0  0
  195.2330  171.0430  143.9380 C   0  0  0  0  0  0  0  0  0  0  0  0
  196.6170  173.8700  142.0940 C   0  0  0  0  0  3  0  0  0  0  0  0
  196.4220  171.3800  146.0610 C   0  0  0  0  0  3  0  0  0  0  0  0
  197.2130  173.9970  143.4370 N   0  0  0  0  0  0  0  0  0  0  0  0
  196.9890  172.6950  145.5770 C   0  0  0  0  0  3  0  0  0  0  0  0
  195.8140  172.1290  143.4190 C   0  0  0  0  0  0  0  0  0  0  0  0
  1  5  1  6  0  0  0
  1  6  1  0  0  0  0
  2 39  1  6  0  0  0
  2  6  1  0  0  0  0
  3  1  1  0  0  0  0
  3  4  1  0  0  0  0
  4  7  1  0  0  0  0
  5 10  2  0  0  0  0
  6  9  1  0  0  0  0
  7 23  1  0  0  0  0
  8  3  2  0  0  0  0
  9  7  1  0  0  0  0
  9 35  1  0  0  0  0
 10  2  1  0  0  0  0
 11  7  1  0  0  0  0
 12  5  1  0  0  0  0
 13 12  1  0  0  0  0
 14 17  1  0  0  0  0
 15 14  1  0  0  0  0
 15 16  1  0  0  0  0
 16 18  1  0  0  0  0
 17 20  1  0  0  0  0
 17 18  1  0  0  0  0
 18 13  1  0  0  0  0
 19 12  1  0  0  0  0
 20 19  1  0  0  0  0
 21 22  1  0  0  0  0
 21 20  1  0  0  0  0
 23 27  1  0  0  0  0
 24 28  1  0  0  0  0
 25 28  1  0  0  0  0
 26 27  1  0  0  0  0
 26 25  1  0  0  0  0
 27 24  2  0  0  0  0
 29 33  1  0  0  0  0
 31 29  1  0  0  0  0
 31 34  1  0  0  0  0
 32 30  1  0  0  0  0
 33 25  1  0  0  0  0
 33 30  1  0  0  0  0
 34 32  1  0  0  0  0
 36 35  1  0  0  0  0
 37 10  1  0  0  0  0
 38 37  3  0  0  0  0
 39 40  1  0  0  0  0
 41 40  1  0  0  0  0
 41 45  1  0  0  0  0
 42 47  1  0  0  0  0
 43 49  1  0  0  0  0
 44 46  1  0  0  0  0
 44 50  2  0  0  0  0
 45 42  2  0  0  0  0
 46 48  2  0  0  0  0
 48 43  1  0  0  0  0
 49 47  2  0  0  0  0
 50 45  1  0  0  0  0
 50 43  1  0  0  0  0
M  END
>  <MODEL>
4

>  <REMARK>
 VINA RESULT:      -7.1      2.530      5.550
  Name = 
  10 active torsions:
  status: ('A' for Active; 'I' for Inactive)
    1  A    between atoms: C_1  and  C_44
    2  A    between atoms: C_3  and  C_46
    3  A    between atoms: C_4  and  C_27
    4  A    between atoms: N_5  and  C_29
    5  A    between atoms: C_9  and  C_26
    6  A    between atoms: C_12  and  C_27
    7  A    between atoms: C_12  and  C_31
    8  A    between atoms: N_18  and  C_41
    9  A    between atoms: C_20  and  C_31
   10  A    between atoms: O_33  and  C_49
                            x       y       z     vdW  Elec       q    Type
                         _______ _______ _______ _____ _____    ______ ____

>  <TORSDO>
F 10

$$$$
=
 OpenBabel11042419453D

 50 57  0  0  1  0  0  0  0  0999 V2000
  192.3860  173.4420  142.8500 C   0  0  1  0  0  3  0  0  0  0  0  0
  193.0870  172.7060  140.7550 C   0  0  2  0  0  3  0  0  0  0  0  0
  191.1980  173.4240  143.7800 C   0  0  0  0  0  0  0  0  0  0  0  0
  189.8870  173.9380  143.2880 C   0  0  0  0  0  2  0  0  0  0  0  0
  193.3400  172.3120  143.0170 C   0  0  0  0  0  0  0  0  0  0  0  0
  192.0210  173.4820  141.4110 N   0  0  1  0  0  0  0  0  0  0  0  0
  189.5250  173.4370  141.8880 C   0  0  1  0  0  0  0  0  0  0  0  0
  191.3190  173.1140  144.9540 O   0  0  0  0  0  0  0  0  0  0  0  0
  190.7360  172.7860  141.1590 C   0  0  1  0  0  3  0  0  0  0  0  0
  193.7480  171.9160  141.8270 C   0  0  0  0  0  0  0  0  0  0  0  0
  188.5270  172.4740  142.0400 O   0  0  0  0  0  1  0  0  0  0  0  0
  193.8530  171.8100  144.3370 C   0  0  1  0  0  3  0  0  0  0  0  0
  193.6720  170.3520  144.4350 N   0  0  0  0  0  2  0  0  0  0  0  0
  196.0410  169.2640  146.7410 O   0  0  0  0  0  0  0  0  0  0  0  0
  195.1580  168.1660  146.7300 C   0  0  0  0  0  2  0  0  0  0  0  0
  193.9450  168.5590  145.9000 C   0  0  0  0  0  2  0  0  0  0  0  0
  195.5550  170.0610  145.7010 C   0  0  1  0  0  3  0  0  0  0  0  0
  194.1130  169.9740  145.7130 N   0  0  1  0  0  0  0  0  0  0  0  0
  195.3270  172.2190  144.5580 C   0  0  0  0  0  2  0  0  0  0  0  0
  195.9370  171.5280  145.7890 C   0  0  2  0  0  3  0  0  0  0  0  0
  197.3250  171.6680  145.7630 O   0  0  0  0  0  0  0  0  0  0  0  0
  197.5830  172.4180  144.6150 C   0  0  0  0  0  1  0  0  0  0  0  0
  189.0040  174.5880  141.1470 N   0  0  0  0  0  2  0  0  0  0  0  0
  187.5310  176.4260  140.8450 N   0  0  0  0  0  0  0  0  0  0  0  0
  186.1730  176.4280  142.7500 N   0  0  2  0  0  0  0  0  0  0  0  0
  187.1420  175.3210  142.8150 C   0  0  0  0  0  2  0  0  0  0  0  0
  187.9210  175.4340  141.5500 C   0  0  0  0  0  0  0  0  0  0  0  0
  186.4860  177.0440  141.5250 N   0  0  0  0  0  2  0  0  0  0  0  0
  186.9290  176.6380  145.0890 C   0  0  0  0  0  2  0  0  0  0  0  0
  185.2540  178.2200  144.1720 C   0  0  0  0  0  2  0  0  0  0  0  0
  187.2880  177.6010  146.1300 N   0  0  0  0  0  2  0  0  0  0  0  0
  185.5660  179.1490  145.3410 C   0  0  0  0  0  2  0  0  0  0  0  0
  186.4840  177.3770  143.8230 C   0  0  2  0  0  3  0  0  0  0  0  0
  186.0840  178.3320  146.5190 C   0  0  0  0  0  2  0  0  0  0  0  0
  190.4740  172.5200  139.6670 C   0  0  0  0  0  2  0  0  0  0  0  0
  190.3040  171.1550  139.4280 O   0  0  0  0  0  1  0  0  0  0  0  0
  194.6990  170.8580  141.5810 C   0  0  0  0  0  0  0  0  0  0  0  0
  195.4940  169.9750  141.3780 C   0  0  0  0  0  3  0  0  0  0  0  0
  194.0760  173.6570  140.0930 C   0  0  0  0  0  2  0  0  0  0  0  0
  193.6050  175.0900  140.2450 C   0  0  0  0  0  2  0  0  0  0  0  0
  194.7560  175.9570  140.7100 C   0  0  0  0  0  2  0  0  0  0  0  0
  196.0560  175.6310  142.9010 C   0  0  0  0  0  3  0  0  0  0  0  0
  193.8230  176.4600  144.3330 N   0  0  0  0  0  0  0  0  0  0  0  0
  192.4410  176.8120  142.4540 C   0  0  0  0  0  3  0  0  0  0  0  0
  194.8040  175.9820  142.2030 C   0  0  0  0  0  0  0  0  0  0  0  0
  191.7400  177.1940  143.7670 C   0  0  0  0  0  3  0  0  0  0  0  0
  196.1300  175.6180  144.2390 C   0  0  0  0  0  3  0  0  0  0  0  0
  192.6170  176.8710  144.9080 N   0  0  0  0  0  0  0  0  0  0  0  0
  194.9340  175.9160  145.1150 C   0  0  0  0  0  3  0  0  0  0  0  0
  193.7580  176.3810  142.9320 C   0  0  0  0  0  0  0  0  0  0  0  0
  1  5  1  6  0  0  0
  1  3  1  0  0  0  0
  2 39  1  1  0  0  0
  2  6  1  0  0  0  0
  2 10  1  0  0  0  0
  3  8  2  0  0  0  0
  4  3  1  0  0  0  0
  5 12  1  0  0  0  0
  6  1  1  0  0  0  0
  7 11  1  0  0  0  0
  7  4  1  0  0  0  0
  9  6  1  0  0  0  0
  9  7  1  0  0  0  0
 10  5  2  0  0  0  0
 12 13  1  0  0  0  0
 12 19  1  0  0  0  0
 13 18  1  0  0  0  0
 15 14  1  0  0  0  0
 16 15  1  0  0  0  0
 17 18  1  0  0  0  0
 17 20  1  0  0  0  0
 17 14  1  0  0  0  0
 18 16  1  0  0  0  0
 19 20  1  0  0  0  0
 21 20  1  0  0  0  0
 22 21  1  0  0  0  0
 23 27  1  0  0  0  0
 23  7  1  0  0  0  0
 24 28  1  0  0  0  0
 24 27  2  0  0  0  0
 25 26  1  0  0  0  0
 25 33  1  0  0  0  0
 27 26  1  0  0  0  0
 28 25  1  0  0  0  0
 29 31  1  0  0  0  0
 30 32  1  0  0  0  0
 31 34  1  0  0  0  0
 32 34  1  0  0  0  0
 33 30  1  0  0  0  0
 33 29  1  0  0  0  0
 35  9  1  0  0  0  0
 36 35  1  0  0  0  0
 37 10  1  0  0  0  0
 38 37  3  0  0  0  0
 39 40  1  0  0  0  0
 40 41  1  0  0  0  0
 41 45  1  0  0  0  0
 42 47  1  0  0  0  0
 43 48  1  0  0  0  0
 43 49  1  0  0  0  0
 44 50  2  0  0  0  0
 44 46  1  0  0  0  0
 45 42  2  0  0  0  0
 45 50  1  0  0  0  0
 46 48  2  0  0  0  0
 47 49  2  0  0  0  0
 50 43  1  0  0  0  0
M  END
>  <MODEL>
5

>  <REMARK>
 VINA RESULT:      -7.1      3.018      6.251
  Name = 
  10 active torsions:
  status: ('A' for Active; 'I' for Inactive)
    1  A    between atoms: C_1  and  C_44
    2  A    between atoms: C_3  and  C_46
    3  A    between atoms: C_4  and  C_27
    4  A    between atoms: N_5  and  C_29
    5  A    between atoms: C_9  and  C_26
    6  A    between atoms: C_12  and  C_27
    7  A    between atoms: C_12  and  C_31
    8  A    between atoms: N_18  and  C_41
    9  A    between atoms: C_20  and  C_31
   10  A    between atoms: O_33  and  C_49
                            x       y       z     vdW  Elec       q    Type
                         _______ _______ _______ _____ _____    ______ ____

>  <TORSDO>
F 10

$$$$
=
 OpenBabel11042419453D

 50 57  0  0  1  0  0  0  0  0999 V2000
  189.2870  175.1850  142.5130 C   0  0  1  0  0  3  0  0  0  0  0  0
  191.0250  175.8280  143.9240 C   0  0  2  0  0  3  0  0  0  0  0  0
  188.5310  173.9690  142.0360 C   0  0  0  0  0  0  0  0  0  0  0  0
  189.2900  172.8390  141.4280 C   0  0  0  0  0  2  0  0  0  0  0  0
  188.7240  175.8500  143.7200 C   0  0  0  0  0  0  0  0  0  0  0  0
  190.7210  174.9250  142.8000 N   0  0  1  0  0  0  0  0  0  0  0  0
  190.5470  172.4590  142.2140 C   0  0  1  0  0  0  0  0  0  0  0  0
  187.3110  173.9470  142.0270 O   0  0  0  0  0  0  0  0  0  0  0  0
  190.9360  173.5350  143.2690 C   0  0  1  0  0  3  0  0  0  0  0  0
  189.7160  176.2300  144.5020 C   0  0  0  0  0  0  0  0  0  0  0  0
  190.2720  171.2620  142.8780 O   0  0  0  0  0  1  0  0  0  0  0  0
  187.2680  176.1570  143.9290 C   0  0  1  0  0  3  0  0  0  0  0  0
  187.0400  176.6400  145.3010 N   0  0  0  0  0  2  0  0  0  0  0  0
  184.1160  178.5230  145.1580 O   0  0  0  0  0  0  0  0  0  0  0  0
  184.2050  178.2760  146.5430 C   0  0  0  0  0  2  0  0  0  0  0  0
  185.3440  177.2920  146.7620 C   0  0  0  0  0  2  0  0  0  0  0  0
  185.3320  178.0290  144.6780 C   0  0  1  0  0  3  0  0  0  0  0  0
  185.6560  176.8420  145.4340 N   0  0  1  0  0  0  0  0  0  0  0  0
  186.7510  177.1630  142.8750 C   0  0  0  0  0  2  0  0  0  0  0  0
  185.3350  177.6620  143.2040 C   0  0  2  0  0  3  0  0  0  0  0  0
  185.0430  178.7840  142.4280 O   0  0  0  0  0  0  0  0  0  0  0  0
  184.3760  178.2780  141.3120 C   0  0  0  0  0  1  0  0  0  0  0  0
  191.6160  172.2530  141.2330 N   0  0  0  0  0  2  0  0  0  0  0  0
  192.4430  171.6160  139.1000 N   0  0  0  0  0  0  0  0  0  0  0  0
  190.5490  170.9700  137.8880 N   0  0  2  0  0  0  0  0  0  0  0  0
  190.1670  171.3920  139.2460 C   0  0  0  0  0  2  0  0  0  0  0  0
  191.4550  171.7600  139.8980 C   0  0  0  0  0  0  0  0  0  0  0  0
  191.9450  171.1430  137.8900 N   0  0  0  0  0  2  0  0  0  0  0  0
  191.0200  172.3240  135.8800 C   0  0  0  0  0  2  0  0  0  0  0  0
  189.5130  173.1930  137.6470 C   0  0  0  0  0  2  0  0  0  0  0  0
  190.4200  173.2300  134.9030 N   0  0  0  0  0  2  0  0  0  0  0  0
  188.9940  174.2090  136.6330 C   0  0  0  0  0  2  0  0  0  0  0  0
  189.9800  171.9220  136.9310 C   0  0  2  0  0  3  0  0  0  0  0  0
  190.0660  174.4750  135.5820 C   0  0  0  0  0  2  0  0  0  0  0  0
  192.3300  173.3090  143.8790 C   0  0  0  0  0  2  0  0  0  0  0  0
  192.2340  173.0120  145.2400 O   0  0  0  0  0  1  0  0  0  0  0  0
  189.5670  176.9320  145.7540 C   0  0  0  0  0  0  0  0  0  0  0  0
  189.4440  177.5210  146.7990 C   0  0  0  0  0  3  0  0  0  0  0  0
  191.7870  177.0420  143.4100 C   0  0  0  0  0  2  0  0  0  0  0  0
  193.1720  176.6340  142.9490 C   0  0  0  0  0  2  0  0  0  0  0  0
  194.1010  176.5490  144.1430 C   0  0  0  0  0  2  0  0  0  0  0  0
  196.0630  176.4450  142.4910 C   0  0  0  0  0  3  0  0  0  0  0  0
  197.3190  174.5770  144.1220 N   0  0  0  0  0  0  0  0  0  0  0  0
  195.6240  174.5020  145.7610 C   0  0  0  0  0  3  0  0  0  0  0  0
  195.4130  175.9700  143.7280 C   0  0  0  0  0  0  0  0  0  0  0  0
  196.8240  173.6140  146.1280 C   0  0  0  0  0  3  0  0  0  0  0  0
  197.2290  175.9320  142.0740 C   0  0  0  0  0  3  0  0  0  0  0  0
  197.8080  173.6320  145.0300 N   0  0  0  0  0  0  0  0  0  0  0  0
  197.9270  174.8120  142.8120 C   0  0  0  0  0  3  0  0  0  0  0  0
  196.0570  175.0760  144.4840 C   0  0  0  0  0  0  0  0  0  0  0  0
  1  3  1  1  0  0  0
  1  6  1  0  0  0  0
  1  5  1  0  0  0  0
  2 39  1  6  0  0  0
  2 10  1  0  0  0  0
  4  3  1  0  0  0  0
  4  7  1  0  0  0  0
  5 12  1  0  0  0  0
  5 10  2  0  0  0  0
  6  9  1  0  0  0  0
  6  2  1  0  0  0  0
  7 11  1  0  0  0  0
  7  9  1  0  0  0  0
  8  3  2  0  0  0  0
  9 35  1  0  0  0  0
 10 37  1  0  0  0  0
 12 13  1  0  0  0  0
 13 18  1  0  0  0  0
 14 15  1  0  0  0  0
 15 16  1  0  0  0  0
 17 14  1  0  0  0  0
 17 18  1  0  0  0  0
 18 16  1  0  0  0  0
 19 20  1  0  0  0  0
 19 12  1  0  0  0  0
 20 17  1  0  0  0  0
 21 20  1  0  0  0  0
 22 21  1  0  0  0  0
 23  7  1  0  0  0  0
 24 27  2  0  0  0  0
 25 28  1  0  0  0  0
 25 26  1  0  0  0  0
 26 27  1  0  0  0  0
 27 23  1  0  0  0  0
 28 24  1  0  0  0  0
 29 33  1  0  0  0  0
 31 34  1  0  0  0  0
 31 29  1  0  0  0  0
 32 30  1  0  0  0  0
 33 30  1  0  0  0  0
 33 25  1  0  0  0  0
 34 32  1  0  0  0  0
 35 36  1  0  0  0  0
 37 38  3  0  0  0  0
 40 39  1  0  0  0  0
 40 41  1  0  0  0  0
 42 45  2  0  0  0  0
 43 50  1  0  0  0  0
 43 48  1  0  0  0  0
 44 46  1  0  0  0  0
 45 41  1  0  0  0  0
 45 50  1  0  0  0  0
 47 42  1  0  0  0  0
 47 49  2  0  0  0  0
 48 46  2  0  0  0  0
 49 43  1  0  0  0  0
 50 44  2  0  0  0  0
M  END
>  <MODEL>
6

>  <REMARK>
 VINA RESULT:      -7.1      2.594      8.425
  Name = 
  10 active torsions:
  status: ('A' for Active; 'I' for Inactive)
    1  A    between atoms: C_1  and  C_44
    2  A    between atoms: C_3  and  C_46
    3  A    between atoms: C_4  and  C_27
    4  A    between atoms: N_5  and  C_29
    5  A    between atoms: C_9  and  C_26
    6  A    between atoms: C_12  and  C_27
    7  A    between atoms: C_12  and  C_31
    8  A    between atoms: N_18  and  C_41
    9  A    between atoms: C_20  and  C_31
   10  A    between atoms: O_33  and  C_49
                            x       y       z     vdW  Elec       q    Type
                         _______ _______ _______ _____ _____    ______ ____

>  <TORSDO>
F 10

$$$$
=
 OpenBabel11042419453D

 50 57  0  0  1  0  0  0  0  0999 V2000
  192.3800  174.2300  142.7510 C   0  0  1  0  0  3  0  0  0  0  0  0
  192.7630  173.3480  140.6300 C   0  0  2  0  0  3  0  0  0  0  0  0
  191.3290  174.3170  143.8310 C   0  0  0  0  0  0  0  0  0  0  0  0
  189.9830  174.8580  143.4880 C   0  0  0  0  0  2  0  0  0  0  0  0
  193.3070  173.0710  142.8580 C   0  0  0  0  0  0  0  0  0  0  0  0
  191.8240  174.2060  141.3740 N   0  0  1  0  0  0  0  0  0  0  0  0
  189.4160  174.2970  142.1820 C   0  0  1  0  0  0  0  0  0  0  0  0
  191.5970  174.0680  144.9950 O   0  0  0  0  0  0  0  0  0  0  0  0
  190.4930  173.5530  141.3390 C   0  0  1  0  0  3  0  0  0  0  0  0
  193.5350  172.5910  141.6510 C   0  0  0  0  0  0  0  0  0  0  0  0
  188.4140  173.3870  142.5250 O   0  0  0  0  0  1  0  0  0  0  0  0
  193.9760  172.6220  144.1270 C   0  0  1  0  0  3  0  0  0  0  0  0
  193.8190  171.1680  144.3000 N   0  0  0  0  0  2  0  0  0  0  0  0
  196.4530  170.1790  146.3490 O   0  0  0  0  0  0  0  0  0  0  0  0
  195.5840  169.0770  146.4840 C   0  0  0  0  0  2  0  0  0  0  0  0
  194.2790  169.4350  145.7890 C   0  0  0  0  0  2  0  0  0  0  0  0
  195.8410  170.9330  145.3440 C   0  0  1  0  0  3  0  0  0  0  0  0
  194.4120  170.8410  145.5310 N   0  0  1  0  0  0  0  0  0  0  0  0
  195.4630  173.0450  144.1560 C   0  0  0  0  0  2  0  0  0  0  0  0
  196.2190  172.4040  145.3310 C   0  0  2  0  0  3  0  0  0  0  0  0
  197.5930  172.5470  145.1360 O   0  0  0  0  0  0  0  0  0  0  0  0
  197.7670  173.8950  144.8180 C   0  0  0  0  0  1  0  0  0  0  0  0
  188.8400  175.4260  141.4470 N   0  0  0  0  0  2  0  0  0  0  0  0
  187.1880  177.0880  141.0690 N   0  0  0  0  0  0  0  0  0  0  0  0
  185.6290  176.7890  142.7890 N   0  0  2  0  0  0  0  0  0  0  0  0
  186.7190  175.8060  142.9100 C   0  0  0  0  0  2  0  0  0  0  0  0
  187.6180  176.1030  141.7600 C   0  0  0  0  0  0  0  0  0  0  0  0
  186.0000  177.5250  141.6480 N   0  0  0  0  0  2  0  0  0  0  0  0
  185.8390  176.8960  145.2450 C   0  0  0  0  0  2  0  0  0  0  0  0
  184.4100  178.5270  144.0420 C   0  0  0  0  0  2  0  0  0  0  0  0
  185.9520  177.8110  146.3790 N   0  0  0  0  0  2  0  0  0  0  0  0
  184.4490  179.4040  145.2900 C   0  0  0  0  0  2  0  0  0  0  0  0
  185.6890  177.6900  143.9430 C   0  0  2  0  0  3  0  0  0  0  0  0
  184.6890  178.5340  146.5180 C   0  0  0  0  0  2  0  0  0  0  0  0
  190.0210  173.2160  139.9150 C   0  0  0  0  0  2  0  0  0  0  0  0
  189.5270  171.9120  139.8510 O   0  0  0  0  0  1  0  0  0  0  0  0
  194.4050  171.4820  141.3460 C   0  0  0  0  0  0  0  0  0  0  0  0
  195.1340  170.5550  141.0900 C   0  0  0  0  0  3  0  0  0  0  0  0
  193.6860  174.2170  139.7850 C   0  0  0  0  0  2  0  0  0  0  0  0
  193.1950  174.2610  138.3520 C   0  0  0  0  0  2  0  0  0  0  0  0
  193.4990  172.9430  137.6700 C   0  0  0  0  0  2  0  0  0  0  0  0
  191.4500  173.0900  136.1290 C   0  0  0  0  0  3  0  0  0  0  0  0
  190.6870  170.5390  136.9230 N   0  0  0  0  0  0  0  0  0  0  0  0
  192.4850  170.1950  138.4110 C   0  0  0  0  0  3  0  0  0  0  0  0
  192.2400  172.3470  137.1300 C   0  0  0  0  0  0  0  0  0  0  0  0
  191.5730  168.9610  138.3110 C   0  0  0  0  0  3  0  0  0  0  0  0
  190.3030  172.5990  135.6400 C   0  0  0  0  0  3  0  0  0  0  0  0
  190.4230  169.2650  137.4380 N   0  0  0  0  0  0  0  0  0  0  0  0
  189.7250  171.2830  136.1100 C   0  0  0  0  0  3  0  0  0  0  0  0
  191.8380  171.1220  137.4770 C   0  0  0  0  0  0  0  0  0  0  0  0
  1  5  1  1  0  0  0
  1  3  1  0  0  0  0
  2 39  1  1  0  0  0
  2  6  1  0  0  0  0
  2 10  1  0  0  0  0
  3  8  2  0  0  0  0
  4  3  1  0  0  0  0
  5 12  1  0  0  0  0
  6  1  1  0  0  0  0
  7 11  1  0  0  0  0
  7  4  1  0  0  0  0
  9  6  1  0  0  0  0
  9  7  1  0  0  0  0
 10  5  2  0  0  0  0
 12 19  1  0  0  0  0
 12 13  1  0  0  0  0
 13 18  1  0  0  0  0
 14 15  1  0  0  0  0
 16 15  1  0  0  0  0
 17 18  1  0  0  0  0
 17 14  1  0  0  0  0
 18 16  1  0  0  0  0
 19 20  1  0  0  0  0
 20 17  1  0  0  0  0
 21 20  1  0  0  0  0
 22 21  1  0  0  0  0
 23 27  1  0  0  0  0
 23  7  1  0  0  0  0
 24 28  1  0  0  0  0
 24 27  2  0  0  0  0
 25 26  1  0  0  0  0
 25 33  1  0  0  0  0
 27 26  1  0  0  0  0
 28 25  1  0  0  0  0
 29 31  1  0  0  0  0
 30 32  1  0  0  0  0
 31 34  1  0  0  0  0
 32 34  1  0  0  0  0
 33 30  1  0  0  0  0
 33 29  1  0  0  0  0
 35  9  1  0  0  0  0
 36 35  1  0  0  0  0
 37 10  1  0  0  0  0
 38 37  3  0  0  0  0
 40 39  1  0  0  0  0
 41 40  1  0  0  0  0
 42 45  2  0  0  0  0
 43 48  1  0  0  0  0
 43 50  1  0  0  0  0
 45 50  1  0  0  0  0
 45 41  1  0  0  0  0
 46 44  1  0  0  0  0
 47 49  2  0  0  0  0
 47 42  1  0  0  0  0
 48 46  2  0  0  0  0
 49 43  1  0  0  0  0
 50 44  2  0  0  0  0
M  END
>  <MODEL>
7

>  <REMARK>
 VINA RESULT:      -7.0      2.872      5.063
  Name = 
  10 active torsions:
  status: ('A' for Active; 'I' for Inactive)
    1  A    between atoms: C_1  and  C_44
    2  A    between atoms: C_3  and  C_46
    3  A    between atoms: C_4  and  C_27
    4  A    between atoms: N_5  and  C_29
    5  A    between atoms: C_9  and  C_26
    6  A    between atoms: C_12  and  C_27
    7  A    between atoms: C_12  and  C_31
    8  A    between atoms: N_18  and  C_41
    9  A    between atoms: C_20  and  C_31
   10  A    between atoms: O_33  and  C_49
                            x       y       z     vdW  Elec       q    Type
                         _______ _______ _______ _____ _____    ______ ____

>  <TORSDO>
F 10

$$$$
=
 OpenBabel11042419453D

 50 57  0  0  1  0  0  0  0  0999 V2000
  189.7890  174.9310  142.1970 C   0  0  1  0  0  3  0  0  0  0  0  0
  191.8670  175.5040  143.0800 C   0  0  2  0  0  3  0  0  0  0  0  0
  188.5670  174.0920  142.4810 C   0  0  0  0  0  0  0  0  0  0  0  0
  188.7350  172.6320  142.7330 C   0  0  0  0  0  2  0  0  0  0  0  0
  189.7380  176.3250  142.7170 C   0  0  0  0  0  0  0  0  0  0  0  0
  191.0540  174.3350  142.6980 N   0  0  1  0  0  0  0  0  0  0  0  0
  189.8850  172.3090  143.6890 C   0  0  1  0  0  0  0  0  0  0  0  0
  187.4440  174.5610  142.3890 O   0  0  0  0  0  0  0  0  0  0  0  0
  190.8250  173.5270  143.9190 C   0  0  1  0  0  3  0  0  0  0  0  0
  190.9240  176.6480  143.1950 C   0  0  0  0  0  0  0  0  0  0  0  0
  189.3160  171.9480  144.9110 O   0  0  0  0  0  1  0  0  0  0  0  0
  188.5600  177.2480  142.5820 C   0  0  1  0  0  3  0  0  0  0  0  0
  187.8170  176.9510  141.3450 N   0  0  0  0  0  2  0  0  0  0  0  0
  184.5800  178.1050  141.8950 O   0  0  0  0  0  0  0  0  0  0  0  0
  184.5900  178.0050  140.4900 C   0  0  0  0  0  2  0  0  0  0  0  0
  186.0150  177.6870  140.0620 C   0  0  0  0  0  2  0  0  0  0  0  0
  185.7970  177.5200  142.2550 C   0  0  1  0  0  3  0  0  0  0  0  0
  186.7770  177.8920  141.2620 N   0  0  1  0  0  0  0  0  0  0  0  0
  187.6470  177.1760  143.8280 C   0  0  0  0  0  2  0  0  0  0  0  0
  186.3270  177.9350  143.6170 C   0  0  2  0  0  3  0  0  0  0  0  0
  185.4200  177.5800  144.6160 O   0  0  0  0  0  0  0  0  0  0  0  0
  186.1570  176.7910  145.4990 C   0  0  0  0  0  1  0  0  0  0  0  0
  190.6070  171.1700  143.1150 N   0  0  0  0  0  2  0  0  0  0  0  0
  191.4600  169.8950  141.3030 N   0  0  0  0  0  0  0  0  0  0  0  0
  190.8270  171.0770  139.3850 N   0  0  2  0  0  0  0  0  0  0  0  0
  190.3510  171.7710  140.5930 C   0  0  0  0  0  2  0  0  0  0  0  0
  190.8100  170.9130  141.7210 C   0  0  0  0  0  0  0  0  0  0  0  0
  191.4900  169.9530  139.9130 N   0  0  0  0  0  2  0  0  0  0  0  0
  193.2290  171.3180  138.8750 C   0  0  0  0  0  2  0  0  0  0  0  0
  191.8470  173.3200  139.3550 C   0  0  0  0  0  2  0  0  0  0  0  0
  194.2060  172.1440  138.1690 N   0  0  0  0  0  2  0  0  0  0  0  0
  192.9460  174.1680  138.7200 C   0  0  0  0  0  2  0  0  0  0  0  0
  191.8280  171.9220  138.7300 C   0  0  2  0  0  3  0  0  0  0  0  0
  194.2820  173.4430  138.8360 C   0  0  0  0  0  2  0  0  0  0  0  0
  192.1260  173.1580  144.6530 C   0  0  0  0  0  2  0  0  0  0  0  0
  192.3070  173.9650  145.7790 O   0  0  0  0  0  1  0  0  0  0  0  0
  191.2730  177.9280  143.7610 C   0  0  0  0  0  0  0  0  0  0  0  0
  191.5660  178.9970  144.2360 C   0  0  0  0  0  3  0  0  0  0  0  0
  192.9140  175.7690  142.0050 C   0  0  0  0  0  2  0  0  0  0  0  0
  194.2590  176.0500  142.6450 C   0  0  0  0  0  2  0  0  0  0  0  0
  195.2450  174.9700  142.2490 C   0  0  0  0  0  2  0  0  0  0  0  0
  196.0700  174.7300  144.6680 C   0  0  0  0  0  3  0  0  0  0  0  0
  195.5710  171.9980  144.5530 N   0  0  0  0  0  0  0  0  0  0  0  0
  194.7900  171.9840  142.3270 C   0  0  0  0  0  3  0  0  0  0  0  0
  195.5600  174.1110  143.4290 C   0  0  0  0  0  0  0  0  0  0  0  0
  194.7120  170.5930  142.9760 C   0  0  0  0  0  3  0  0  0  0  0  0
  196.3870  173.9890  145.7390 C   0  0  0  0  0  3  0  0  0  0  0  0
  195.2930  170.6460  144.3310 N   0  0  0  0  0  0  0  0  0  0  0  0
  196.2870  172.4810  145.7350 C   0  0  0  0  0  3  0  0  0  0  0  0
  195.3300  172.7950  143.4220 C   0  0  0  0  0  0  0  0  0  0  0  0
  1  3  1  1  0  0  0
  1  6  1  0  0  0  0
  1  5  1  0  0  0  0
  2 39  1  6  0  0  0
  2 10  1  0  0  0  0
  3  4  1  0  0  0  0
  4  7  1  0  0  0  0
  5 10  2  0  0  0  0
  6  2  1  0  0  0  0
  6  9  1  0  0  0  0
  7  9  1  0  0  0  0
  7 11  1  0  0  0  0
  8  3  2  0  0  0  0
  9 35  1  0  0  0  0
 10 37  1  0  0  0  0
 12  5  1  0  0  0  0
 12 19  1  0  0  0  0
 13 12  1  0  0  0  0
 14 17  1  0  0  0  0
 15 14  1  0  0  0  0
 16 15  1  0  0  0  0
 16 18  1  0  0  0  0
 17 20  1  0  0  0  0
 18 13  1  0  0  0  0
 18 17  1  0  0  0  0
 20 19  1  0  0  0  0
 20 21  1  0  0  0  0
 21 22  1  0  0  0  0
 23  7  1  0  0  0  0
 24 27  2  0  0  0  0
 25 28  1  0  0  0  0
 25 26  1  0  0  0  0
 26 27  1  0  0  0  0
 27 23  1  0  0  0  0
 28 24  1  0  0  0  0
 31 34  1  0  0  0  0
 31 29  1  0  0  0  0
 32 34  1  0  0  0  0
 32 30  1  0  0  0  0
 33 29  1  0  0  0  0
 33 30  1  0  0  0  0
 33 25  1  0  0  0  0
 35 36  1  0  0  0  0
 37 38  3  0  0  0  0
 39 40  1  0  0  0  0
 41 40  1  0  0  0  0
 41 45  1  0  0  0  0
 42 47  1  0  0  0  0
 43 49  1  0  0  0  0
 44 46  1  0  0  0  0
 44 50  2  0  0  0  0
 45 42  2  0  0  0  0
 46 48  2  0  0  0  0
 48 43  1  0  0  0  0
 49 47  2  0  0  0  0
 50 45  1  0  0  0  0
 50 43  1  0  0  0  0
M  END
>  <MODEL>
8

>  <REMARK>
 VINA RESULT:      -6.9      2.774      7.946
  Name = 
  10 active torsions:
  status: ('A' for Active; 'I' for Inactive)
    1  A    between atoms: C_1  and  C_44
    2  A    between atoms: C_3  and  C_46
    3  A    between atoms: C_4  and  C_27
    4  A    between atoms: N_5  and  C_29
    5  A    between atoms: C_9  and  C_26
    6  A    between atoms: C_12  and  C_27
    7  A    between atoms: C_12  and  C_31
    8  A    between atoms: N_18  and  C_41
    9  A    between atoms: C_20  and  C_31
   10  A    between atoms: O_33  and  C_49
                            x       y       z     vdW  Elec       q    Type
                         _______ _______ _______ _____ _____    ______ ____

>  <TORSDO>
F 10

$$$$
=
 OpenBabel11042419453D

 50 57  0  0  1  0  0  0  0  0999 V2000
  189.9930  173.8800  141.8280 C   0  0  1  0  0  3  0  0  0  0  0  0
  191.6830  174.4880  143.3110 C   0  0  2  0  0  3  0  0  0  0  0  0
  188.9510  174.4670  140.9070 C   0  0  0  0  0  0  0  0  0  0  0  0
  187.9620  175.4360  141.4590 C   0  0  0  0  0  2  0  0  0  0  0  0
  191.3180  173.6150  141.2030 C   0  0  0  0  0  0  0  0  0  0  0  0
  190.2500  174.6980  143.0410 N   0  0  1  0  0  0  0  0  0  0  0  0
  188.5910  176.4990  142.3620 C   0  0  1  0  0  0  0  0  0  0  0  0
  188.8310  174.0730  139.7580 O   0  0  0  0  0  0  0  0  0  0  0  0
  190.0490  176.1420  142.7720 C   0  0  1  0  0  3  0  0  0  0  0  0
  192.2680  173.9420  142.0570 C   0  0  0  0  0  0  0  0  0  0  0  0
  188.6100  177.6940  141.6400 O   0  0  0  0  0  1  0  0  0  0  0  0
  191.5200  172.9510  139.8700 C   0  0  1  0  0  3  0  0  0  0  0  0
  190.6120  171.8000  139.7300 N   0  0  0  0  0  2  0  0  0  0  0  0
  190.2250  171.3220  136.3040 O   0  0  0  0  0  0  0  0  0  0  0  0
  189.7910  170.0750  136.7970 C   0  0  0  0  0  2  0  0  0  0  0  0
  190.0750  170.0470  138.2910 C   0  0  0  0  0  2  0  0  0  0  0  0
  190.3840  172.0750  137.4710 C   0  0  1  0  0  3  0  0  0  0  0  0
  190.9060  171.2010  138.4950 N   0  0  1  0  0  0  0  0  0  0  0  0
  191.3480  173.9590  138.7110 C   0  0  0  0  0  2  0  0  0  0  0  0
  191.3260  173.2600  137.3420 C   0  0  2  0  0  3  0  0  0  0  0  0
  190.8550  174.1470  136.3730 O   0  0  0  0  0  0  0  0  0  0  0  0
  191.9390  174.9810  136.0990 C   0  0  0  0  0  1  0  0  0  0  0  0
  187.7180  176.6330  143.5310 N   0  0  0  0  0  2  0  0  0  0  0  0
  185.8160  177.4810  144.6720 N   0  0  0  0  0  0  0  0  0  0  0  0
  184.7210  178.8240  143.1000 N   0  0  2  0  0  0  0  0  0  0  0  0
  185.9330  178.2320  142.5100 C   0  0  0  0  0  2  0  0  0  0  0  0
  186.5260  177.4230  143.6110 C   0  0  0  0  0  0  0  0  0  0  0  0
  184.7300  178.3100  144.4100 N   0  0  0  0  0  2  0  0  0  0  0  0
  183.7260  178.3660  140.8880 C   0  0  0  0  0  2  0  0  0  0  0  0
  182.2840  179.0370  142.7910 C   0  0  0  0  0  2  0  0  0  0  0  0
  182.5790  177.7590  140.2150 N   0  0  0  0  0  2  0  0  0  0  0  0
  181.0890  178.5040  142.0060 C   0  0  0  0  0  2  0  0  0  0  0  0
  183.5530  178.2700  142.4080 C   0  0  2  0  0  3  0  0  0  0  0  0
  181.3920  178.5590  140.5130 C   0  0  0  0  0  2  0  0  0  0  0  0
  190.6050  177.0480  143.8840 C   0  0  0  0  0  2  0  0  0  0  0  0
  191.5330  177.9550  143.3680 O   0  0  0  0  0  1  0  0  0  0  0  0
  193.6850  173.8030  141.8210 C   0  0  0  0  0  0  0  0  0  0  0  0
  194.8690  173.6850  141.6260 C   0  0  0  0  0  3  0  0  0  0  0  0
  191.8460  173.5020  144.4600 C   0  0  0  0  0  2  0  0  0  0  0  0
  192.2240  174.2380  145.7310 C   0  0  0  0  0  2  0  0  0  0  0  0
  193.6360  173.8650  146.1330 C   0  0  0  0  0  2  0  0  0  0  0  0
  194.3100  176.1250  145.1190 C   0  0  0  0  0  3  0  0  0  0  0  0
  196.7520  175.0390  144.3560 N   0  0  0  0  0  0  0  0  0  0  0  0
  196.3360  172.8770  145.2040 C   0  0  0  0  0  3  0  0  0  0  0  0
  194.6180  174.7060  145.3860 C   0  0  0  0  0  0  0  0  0  0  0  0
  197.7480  173.0040  144.6090 C   0  0  0  0  0  3  0  0  0  0  0  0
  195.1550  176.9050  144.4310 C   0  0  0  0  0  3  0  0  0  0  0  0
  197.9180  174.3450  144.0180 N   0  0  0  0  0  0  0  0  0  0  0  0
  196.4470  176.3770  143.8480 C   0  0  0  0  0  3  0  0  0  0  0  0
  195.8060  174.2300  145.0060 C   0  0  0  0  0  0  0  0  0  0  0  0
  1  3  1  6  0  0  0
  1  6  1  0  0  0  0
  2 39  1  1  0  0  0
  3  4  1  0  0  0  0
  4  7  1  0  0  0  0
  5  1  1  0  0  0  0
  5 10  2  0  0  0  0
  6  2  1  0  0  0  0
  7  9  1  0  0  0  0
  7 23  1  0  0  0  0
  8  3  2  0  0  0  0
  9  6  1  0  0  0  0
  9 35  1  0  0  0  0
 10  2  1  0  0  0  0
 11  7  1  0  0  0  0
 12  5  1  0  0  0  0
 13 12  1  0  0  0  0
 14 15  1  0  0  0  0
 14 17  1  0  0  0  0
 15 16  1  0  0  0  0
 16 18  1  0  0  0  0
 17 18  1  0  0  0  0
 18 13  1  0  0  0  0
 19 12  1  0  0  0  0
 20 17  1  0  0  0  0
 20 19  1  0  0  0  0
 21 20  1  0  0  0  0
 22 21  1  0  0  0  0
 23 27  1  0  0  0  0
 25 28  1  0  0  0  0
 26 25  1  0  0  0  0
 26 27  1  0  0  0  0
 27 24  2  0  0  0  0
 28 24  1  0  0  0  0
 29 33  1  0  0  0  0
 31 34  1  0  0  0  0
 31 29  1  0  0  0  0
 32 30  1  0  0  0  0
 33 30  1  0  0  0  0
 33 25  1  0  0  0  0
 34 32  1  0  0  0  0
 36 35  1  0  0  0  0
 37 10  1  0  0  0  0
 38 37  3  0  0  0  0
 39 40  1  0  0  0  0
 40 41  1  0  0  0  0
 42 45  2  0  0  0  0
 43 50  1  0  0  0  0
 45 41  1  0  0  0  0
 46 44  1  0  0  0  0
 47 42  1  0  0  0  0
 48 43  1  0  0  0  0
 48 46  2  0  0  0  0
 49 43  1  0  0  0  0
 49 47  2  0  0  0  0
 50 44  2  0  0  0  0
 50 45  1  0  0  0  0
M  END
>  <MODEL>
9

>  <REMARK>
 VINA RESULT:      -6.9      2.325      5.345
  Name = 
  10 active torsions:
  status: ('A' for Active; 'I' for Inactive)
    1  A    between atoms: C_1  and  C_44
    2  A    between atoms: C_3  and  C_46
    3  A    between atoms: C_4  and  C_27
    4  A    between atoms: N_5  and  C_29
    5  A    between atoms: C_9  and  C_26
    6  A    between atoms: C_12  and  C_27
    7  A    between atoms: C_12  and  C_31
    8  A    between atoms: N_18  and  C_41
    9  A    between atoms: C_20  and  C_31
   10  A    between atoms: O_33  and  C_49
                            x       y       z     vdW  Elec       q    Type
                         _______ _______ _______ _____ _____    ______ ____

>  <TORSDO>
F 10

$$$$
