=
 OpenBabel11042416353D

 62 68  0  0  1  0  0  0  0  0999 V2000
  194.1140  175.7730  142.5170 O   0  0  0  0  0  0  0  0  0  0  0  0
  189.4620  172.7790  141.6430 C   0  0  1  0  0  3  0  0  0  0  0  0
  194.9730  174.9530  140.4190 C   0  0  2  0  0  3  0  0  0  0  0  0
  190.8850  170.2710  138.2110 C   0  0  0  0  0  0  0  0  0  0  0  0
  192.5280  177.9120  143.2700 O   0  0  0  0  0  0  0  0  0  0  0  0
  189.3730  173.2770  143.0390 C   0  0  1  0  0  3  0  0  0  0  0  0
  192.8160  171.2540  139.2710 C   0  0  0  0  0  0  0  0  0  0  0  0
  194.1230  175.9990  141.1350 C   0  0  0  0  0  2  0  0  0  0  0  0
  190.7590  171.0830  140.4320 C   0  0  0  0  0  0  0  0  0  0  0  0
  192.0640  171.4560  140.3870 N   0  0  0  0  0  0  0  0  0  0  0  0
  194.3780  173.6950  140.5330 O   0  0  0  0  0  0  0  0  0  0  0  0
  192.8050  175.6360  142.8450 N   0  0  0  0  0  2  0  0  0  0  0  0
  190.1820  170.5020  139.3480 N   0  0  0  0  0  0  0  0  0  0  0  0
  192.2430  170.6470  138.1390 C   0  0  0  0  0  0  0  0  0  0  0  0
  189.4250  174.7890  143.0410 C   0  0  0  0  0  2  0  0  0  0  0  0
  192.0270  176.7550  143.2800 C   0  0  0  0  0  0  0  0  0  0  0  0
  189.9490  171.3420  141.6510 C   0  0  0  0  0  2  0  0  0  0  0  0
  190.5930  176.5590  143.6830 C   0  0  1  0  0  3  0  0  0  0  0  0
  190.3410  175.2180  144.0010 O   0  0  0  0  0  0  0  0  0  0  0  0
  188.2310  172.8570  142.3280 O   0  0  0  0  0  0  0  0  0  0  0  0
  190.1870  169.6200  137.0640 C   0  0  0  0  0  1  0  0  0  0  0  0
  194.2500  171.6830  139.2660 C   0  0  0  0  0  2  0  0  0  0  0  0
  194.3470  173.1930  139.2260 C   0  0  0  0  0  2  0  0  0  0  0  0
  192.4620  171.0070  135.6730 C   0  0  0  0  0  1  0  0  0  0  0  0
  193.0910  170.4040  136.9140 C   0  0  2  0  0  3  0  0  0  0  0  0
  193.3310  169.0410  136.7270 O   0  0  0  0  0  0  0  0  0  0  0  0
  193.3120  168.8620  135.3430 C   0  0  0  0  0  1  0  0  0  0  0  0
  196.3910  174.9270  140.9840 C   0  0  0  0  0  2  0  0  0  0  0  0
  196.7440  174.5800  143.2880 C   0  0  0  0  0  2  0  0  0  0  0  0
  196.9080  173.5370  144.3850 C   0  0  2  0  0  0  0  0  0  0  0  0
  197.6480  173.0730  141.6920 C   0  0  0  0  0  2  0  0  0  0  0  0
  197.8600  172.3740  144.1160 C   0  0  0  0  0  2  0  0  0  0  0  0
  196.4870  173.9060  142.0150 N   0  0  0  0  0  0  0  0  0  0  0  0
  195.6770  173.0920  144.8840 O   0  0  0  0  0  0  0  0  0  0  0  0
  197.7420  171.8840  142.6630 C   0  0  1  0  0  3  0  0  0  0  0  0
  196.4970  173.8080  145.7830 C   0  0  2  0  0  3  0  0  0  0  0  0
  195.9890  175.0990  145.9330 O   0  0  0  0  0  0  0  0  0  0  0  0
  194.6430  174.9260  146.2510 C   0  0  0  0  0  2  0  0  0  0  0  0
  193.9790  176.2750  146.4180 C   0  0  0  0  0  1  0  0  0  0  0  0
  196.5570  170.9400  142.5070 C   0  0  0  0  0  2  0  0  0  0  0  0
  195.2730  168.9090  145.2850 O   0  0  0  0  0  0  0  0  0  0  0  0
  195.2550  169.6710  144.2820 C   0  0  0  0  0  0  0  0  0  0  0  0
  193.9550  170.2090  143.8000 C   0  0  0  0  0  1  0  0  0  0  0  0
  196.4830  170.0170  143.6350 N   0  0  0  0  0  2  0  0  0  0  0  0
  190.1810  177.4610  144.8470 C   0  0  0  0  0  2  0  0  0  0  0  0
  190.2940  176.7520  146.1920 C   0  0  0  0  0  2  0  0  0  0  0  0
  188.9640  176.2420  146.6420 C   0  0  0  0  0  0  0  0  0  0  0  0
  187.7680  176.9400  146.2820 N   0  0  0  0  0  2  0  0  0  0  0  0
  188.9120  175.2280  147.3820 O   0  0  0  0  0  0  0  0  0  0  0  0
  186.4350  176.5040  146.6790 C   0  0  1  0  0  3  0  0  0  0  0  0
  185.3450  177.1580  145.8860 C   0  0  2  0  0  3  0  0  0  0  0  0
  185.8010  175.8560  145.6020 O   0  0  0  0  0  0  0  0  0  0  0  0
  185.8070  178.1180  144.7790 C   0  0  1  0  0  3  0  0  0  0  0  0
  185.6680  177.4710  143.3920 C   0  0  2  0  0  3  0  0  0  0  0  0
  187.0820  177.8960  142.3190 S   0  0  0  0  0  0  0  0  0  0  0  0
  184.4410  177.9090  142.7450 N   0  0  0  0  0  2  0  0  0  0  0  0
  184.6110  177.6410  141.3280 C   0  0  0  0  0  2  0  0  0  0  0  0
  186.4670  177.3940  139.7120 C   0  0  0  0  0  1  0  0  0  0  0  0
  185.9690  178.1550  140.9210 C   0  0  2  0  0  3  0  0  0  0  0  0
  183.9390  179.4450  145.4910 O   0  0  0  0  0  1  0  0  0  0  0  0
  185.5090  180.5370  144.2320 O   0  0  0  0  0  0  0  0  0  0  0  0
  185.0250  179.3950  144.8600 C   0  0  0  0  0  0  0  0  0  0  0  0
  1 12  1  0  0  0  0
  2 17  1  1  0  0  0
  2 20  1  0  0  0  0
  2  6  1  0  0  0  0
  3 11  1  0  0  0  0
  3 28  1  1  0  0  0
  3  8  1  0  0  0  0
  4 13  2  0  0  0  0
  5 16  2  0  0  0  0
  6 15  1  6  0  0  0
  7 10  1  0  0  0  0
  8  1  1  0  0  0  0
  9 17  1  0  0  0  0
 10  9  2  0  0  0  0
 12 16  1  0  0  0  0
 13  9  1  0  0  0  0
 14  4  1  0  0  0  0
 14  7  2  0  0  0  0
 15 19  1  0  0  0  0
 16 18  1  0  0  0  0
 18 19  1  0  0  0  0
 18 45  1  1  0  0  0
 20  6  1  0  0  0  0
 21  4  1  0  0  0  0
 22  7  1  0  0  0  0
 23 22  1  0  0  0  0
 23 11  1  0  0  0  0
 25 24  1  6  0  0  0
 25 14  1  0  0  0  0
 26 25  1  0  0  0  0
 27 26  1  0  0  0  0
 28 33  1  0  0  0  0
 30 29  1  6  0  0  0
 30 34  1  0  0  0  0
 30 36  1  0  0  0  0
 31 33  1  0  0  0  0
 31 35  1  0  0  0  0
 32 30  1  0  0  0  0
 33 29  1  0  0  0  0
 34 36  1  0  0  0  0
 35 40  1  1  0  0  0
 35 32  1  0  0  0  0
 36 37  1  6  0  0  0
 37 38  1  0  0  0  0
 38 39  1  0  0  0  0
 40 44  1  0  0  0  0
 42 41  2  0  0  0  0
 43 42  1  0  0  0  0
 44 42  1  0  0  0  0
 45 46  1  0  0  0  0
 46 47  1  0  0  0  0
 47 49  2  0  0  0  0
 48 47  1  0  0  0  0
 50 48  1  6  0  0  0
 51 53  1  6  0  0  0
 51 50  1  0  0  0  0
 52 51  1  0  0  0  0
 52 50  1  0  0  0  0
 53 62  1  6  0  0  0
 54 53  1  1  0  0  0
 55 54  1  0  0  0  0
 56 54  1  0  0  0  0
 57 56  1  0  0  0  0
 59 58  1  6  0  0  0
 59 57  1  0  0  0  0
 59 55  1  0  0  0  0
 61 62  2  0  0  0  0
 62 60  1  0  0  0  0
M  END
>  <MODEL>
1

>  <REMARK>
 VINA RESULT:      -6.7      0.000      0.000
  Name = 
  15 active torsions:
  status: ('A' for Active; 'I' for Inactive)
    1  A    between atoms: C_1  and  C_30
    2  A    between atoms: C_4  and  C_53
    3  A    between atoms: C_5  and  N_10
    4  A    between atoms: C_8  and  C_41
    5  A    between atoms: C_17  and  C_30
    6  A    between atoms: O_22  and  C_45
    7  A    between atoms: O_22  and  C_60
    8  A    between atoms: N_24  and  C_41
    9  A    between atoms: C_26  and  C_39
   10  A    between atoms: C_26  and  O_44
   11  A    between atoms: C_30  and  C_34
   12  A    between atoms: C_37  and  C_51
   13  A    between atoms: C_49  and  C_61
   14  A    between atoms: C_51  and  N_52
   15  A    between atoms: C_53  and  C_61
                            x       y       z     vdW  Elec       q    Type
                         _______ _______ _______ _____ _____    ______ ____

>  <TORSDO>
F 15

$$$$
=
 OpenBabel11042416353D

 62 68  0  0  1  0  0  0  0  0999 V2000
  193.3520  173.3740  141.6040 O   0  0  0  0  0  0  0  0  0  0  0  0
  191.9760  176.3590  146.1390 C   0  0  1  0  0  3  0  0  0  0  0  0
  191.2980  174.0970  140.5700 C   0  0  2  0  0  3  0  0  0  0  0  0
  187.7040  177.2490  145.1150 C   0  0  0  0  0  0  0  0  0  0  0  0
  195.9150  174.4040  141.7730 O   0  0  0  0  0  0  0  0  0  0  0  0
  193.1580  175.5470  146.5250 C   0  0  1  0  0  3  0  0  0  0  0  0
  188.4570  175.4530  143.6910 C   0  0  0  0  0  0  0  0  0  0  0  0
  192.7650  174.4030  140.8570 C   0  0  0  0  0  2  0  0  0  0  0  0
  189.5940  175.9510  145.7070 C   0  0  0  0  0  0  0  0  0  0  0  0
  189.4580  175.2080  144.5790 N   0  0  0  0  0  0  0  0  0  0  0  0
  190.5660  174.1090  141.7600 O   0  0  0  0  0  0  0  0  0  0  0  0
  193.8280  173.9770  142.7220 N   0  0  0  0  0  2  0  0  0  0  0  0
  188.7250  176.9640  145.9620 N   0  0  0  0  0  0  0  0  0  0  0  0
  187.5380  176.4900  143.9370 C   0  0  0  0  0  0  0  0  0  0  0  0
  194.3170  175.8740  145.6100 C   0  0  0  0  0  2  0  0  0  0  0  0
  195.1760  174.4520  142.7940 C   0  0  0  0  0  0  0  0  0  0  0  0
  190.7150  175.6850  146.6470 C   0  0  0  0  0  2  0  0  0  0  0  0
  195.6860  175.0690  144.0650 C   0  0  1  0  0  3  0  0  0  0  0  0
  194.8970  174.6890  145.1590 O   0  0  0  0  0  0  0  0  0  0  0  0
  192.7910  176.7070  147.2360 O   0  0  0  0  0  0  0  0  0  0  0  0
  186.7820  178.3690  145.4650 C   0  0  0  0  0  1  0  0  0  0  0  0
  188.3460  174.6100  142.4600 C   0  0  0  0  0  2  0  0  0  0  0  0
  189.4670  174.9360  141.4960 C   0  0  0  0  0  2  0  0  0  0  0  0
  186.8010  177.7750  141.9210 C   0  0  0  0  0  1  0  0  0  0  0  0
  186.4160  176.7390  142.9590 C   0  0  2  0  0  3  0  0  0  0  0  0
  185.2460  177.1210  143.6200 O   0  0  0  0  0  0  0  0  0  0  0  0
  184.5220  177.8450  142.6720 C   0  0  0  0  0  1  0  0  0  0  0  0
  191.1520  172.7500  139.8660 C   0  0  0  0  0  2  0  0  0  0  0  0
  190.0330  173.2570  137.8540 C   0  0  0  0  0  2  0  0  0  0  0  0
  190.1740  173.3920  136.3450 C   0  0  2  0  0  0  0  0  0  0  0  0
  191.7640  171.6330  137.8920 C   0  0  0  0  0  2  0  0  0  0  0  0
  190.8960  172.2720  135.6010 C   0  0  0  0  0  2  0  0  0  0  0  0
  191.3350  172.9250  138.4340 N   0  0  0  0  0  0  0  0  0  0  0  0
  190.6490  174.6550  135.9660 O   0  0  0  0  0  0  0  0  0  0  0  0
  192.1090  171.7670  136.4000 C   0  0  1  0  0  3  0  0  0  0  0  0
  189.3340  174.3340  135.5670 C   0  0  2  0  0  3  0  0  0  0  0  0
  188.4310  175.0190  136.3820 O   0  0  0  0  0  0  0  0  0  0  0  0
  188.0570  176.1420  135.6460 C   0  0  0  0  0  2  0  0  0  0  0  0
  186.5500  176.2810  135.6560 C   0  0  0  0  0  1  0  0  0  0  0  0
  193.3120  172.6750  136.1830 C   0  0  0  0  0  2  0  0  0  0  0  0
  195.9620  173.3000  138.6500 O   0  0  0  0  0  0  0  0  0  0  0  0
  195.0910  173.5490  137.7740 C   0  0  0  0  0  0  0  0  0  0  0  0
  194.9170  174.9470  137.2970 C   0  0  0  0  0  1  0  0  0  0  0  0
  194.2990  172.4830  137.2420 N   0  0  0  0  0  2  0  0  0  0  0  0
  197.1530  174.7320  144.3340 C   0  0  0  0  0  2  0  0  0  0  0  0
  197.3120  173.4300  145.1100 C   0  0  0  0  0  2  0  0  0  0  0  0
  197.3480  172.2570  144.1860 C   0  0  0  0  0  0  0  0  0  0  0  0
  196.9660  170.9600  144.6550 N   0  0  0  0  0  2  0  0  0  0  0  0
  197.7680  172.4120  143.0120 O   0  0  0  0  0  0  0  0  0  0  0  0
  196.9720  169.7700  143.8140 C   0  0  1  0  0  3  0  0  0  0  0  0
  195.7850  168.8850  144.0440 C   0  0  2  0  0  3  0  0  0  0  0  0
  195.8530  169.7810  142.9590 O   0  0  0  0  0  0  0  0  0  0  0  0
  194.7580  169.3950  145.0680 C   0  0  1  0  0  3  0  0  0  0  0  0
  193.3400  169.3940  144.4760 C   0  0  2  0  0  3  0  0  0  0  0  0
  193.1970  168.2010  143.1020 S   0  0  0  0  0  0  0  0  0  0  0  0
  192.9910  170.7190  143.9850 N   0  0  0  0  0  2  0  0  0  0  0  0
  191.8850  170.5320  143.0630 C   0  0  0  0  0  2  0  0  0  0  0  0
  190.9790  168.7430  141.6140 C   0  0  0  0  0  1  0  0  0  0  0  0
  192.2400  169.3930  142.1400 C   0  0  2  0  0  3  0  0  0  0  0  0
  195.9350  168.2100  146.7890 O   0  0  0  0  0  0  0  0  0  0  0  0
  193.6510  168.1660  146.9390 O   0  0  0  0  0  1  0  0  0  0  0  0
  194.8270  168.5590  146.3090 C   0  0  0  0  0  0  0  0  0  0  0  0
  1 12  1  0  0  0  0
  2  6  1  0  0  0  0
  2 17  1  1  0  0  0
  2 20  1  0  0  0  0
  3 28  1  1  0  0  0
  3  8  1  0  0  0  0
  3 11  1  0  0  0  0
  4 21  1  0  0  0  0
  4 13  2  0  0  0  0
  5 16  2  0  0  0  0
  6 15  1  6  0  0  0
  6 20  1  0  0  0  0
  7 14  2  0  0  0  0
  7 10  1  0  0  0  0
  8  1  1  0  0  0  0
  9 13  1  0  0  0  0
  9 17  1  0  0  0  0
 10  9  2  0  0  0  0
 12 16  1  0  0  0  0
 14  4  1  0  0  0  0
 16 18  1  0  0  0  0
 18 45  1  1  0  0  0
 18 19  1  0  0  0  0
 19 15  1  0  0  0  0
 22  7  1  0  0  0  0
 23 11  1  0  0  0  0
 23 22  1  0  0  0  0
 25 24  1  6  0  0  0
 25 26  1  0  0  0  0
 25 14  1  0  0  0  0
 27 26  1  0  0  0  0
 29 33  1  0  0  0  0
 30 32  1  6  0  0  0
 30 29  1  0  0  0  0
 31 33  1  0  0  0  0
 32 35  1  0  0  0  0
 33 28  1  0  0  0  0
 34 30  1  0  0  0  0
 35 40  1  1  0  0  0
 35 31  1  0  0  0  0
 36 34  1  0  0  0  0
 36 30  1  0  0  0  0
 36 37  1  1  0  0  0
 38 39  1  0  0  0  0
 38 37  1  0  0  0  0
 40 44  1  0  0  0  0
 42 41  2  0  0  0  0
 43 42  1  0  0  0  0
 44 42  1  0  0  0  0
 45 46  1  0  0  0  0
 47 48  1  0  0  0  0
 47 46  1  0  0  0  0
 49 47  2  0  0  0  0
 50 51  1  0  0  0  0
 50 48  1  1  0  0  0
 51 53  1  1  0  0  0
 52 50  1  0  0  0  0
 52 51  1  0  0  0  0
 53 62  1  1  0  0  0
 54 53  1  6  0  0  0
 55 54  1  0  0  0  0
 56 54  1  0  0  0  0
 57 56  1  0  0  0  0
 59 58  1  1  0  0  0
 59 57  1  0  0  0  0
 59 55  1  0  0  0  0
 62 60  2  0  0  0  0
 62 61  1  0  0  0  0
M  END
>  <MODEL>
2

>  <REMARK>
 VINA RESULT:      -6.6      2.855      9.579
  Name = 
  15 active torsions:
  status: ('A' for Active; 'I' for Inactive)
    1  A    between atoms: C_1  and  C_30
    2  A    between atoms: C_4  and  C_53
    3  A    between atoms: C_5  and  N_10
    4  A    between atoms: C_8  and  C_41
    5  A    between atoms: C_17  and  C_30
    6  A    between atoms: O_22  and  C_45
    7  A    between atoms: O_22  and  C_60
    8  A    between atoms: N_24  and  C_41
    9  A    between atoms: C_26  and  C_39
   10  A    between atoms: C_26  and  O_44
   11  A    between atoms: C_30  and  C_34
   12  A    between atoms: C_37  and  C_51
   13  A    between atoms: C_49  and  C_61
   14  A    between atoms: C_51  and  N_52
   15  A    between atoms: C_53  and  C_61
                            x       y       z     vdW  Elec       q    Type
                         _______ _______ _______ _____ _____    ______ ____

>  <TORSDO>
F 15

$$$$
=
 OpenBabel11042416353D

 62 68  0  0  1  0  0  0  0  0999 V2000
  193.0300  173.4600  143.9170 O   0  0  0  0  0  0  0  0  0  0  0  0
  188.3350  174.2670  140.9710 C   0  0  1  0  0  3  0  0  0  0  0  0
  191.9770  174.5480  145.7930 C   0  0  2  0  0  3  0  0  0  0  0  0
  186.2600  177.1170  143.7380 C   0  0  0  0  0  0  0  0  0  0  0  0
  193.1130  170.8620  142.9670 O   0  0  0  0  0  0  0  0  0  0  0  0
  189.3510  173.7840  140.0010 C   0  0  1  0  0  3  0  0  0  0  0  0
  188.5870  177.0230  144.3680 C   0  0  0  0  0  0  0  0  0  0  0  0
  192.1960  173.2500  145.0220 C   0  0  0  0  0  2  0  0  0  0  0  0
  187.8920  176.3390  142.2100 C   0  0  0  0  0  0  0  0  0  0  0  0
  188.8710  176.5370  143.1300 N   0  0  0  0  0  0  0  0  0  0  0  0
  191.2510  175.4500  145.0120 O   0  0  0  0  0  0  0  0  0  0  0  0
  192.3080  173.0480  142.8450 N   0  0  0  0  0  2  0  0  0  0  0  0
  186.6010  176.6240  142.5210 N   0  0  0  0  0  0  0  0  0  0  0  0
  187.2590  177.3340  144.7110 C   0  0  0  0  0  0  0  0  0  0  0  0
  189.8620  172.4290  140.4350 C   0  0  0  0  0  2  0  0  0  0  0  0
  192.4140  171.7100  142.3480 C   0  0  0  0  0  0  0  0  0  0  0  0
  188.2230  175.7760  140.8740 C   0  0  0  0  0  2  0  0  0  0  0  0
  191.6380  171.3010  141.1290 C   0  0  1  0  0  3  0  0  0  0  0  0
  191.2550  172.4210  140.3790 O   0  0  0  0  0  0  0  0  0  0  0  0
  187.9700  173.6930  139.7350 O   0  0  0  0  0  0  0  0  0  0  0  0
  184.8220  177.4160  144.0070 C   0  0  0  0  0  1  0  0  0  0  0  0
  189.6970  177.2230  145.3500 C   0  0  0  0  0  2  0  0  0  0  0  0
  190.2110  175.8870  145.8420 C   0  0  0  0  0  2  0  0  0  0  0  0
  186.3950  176.8350  147.0060 C   0  0  0  0  0  1  0  0  0  0  0  0
  186.9550  177.8970  146.0790 C   0  0  2  0  0  3  0  0  0  0  0  0
  186.0810  178.9830  145.9950 O   0  0  0  0  0  0  0  0  0  0  0  0
  185.4920  179.0640  147.2580 C   0  0  0  0  0  1  0  0  0  0  0  0
  193.3110  175.1600  146.2150 C   0  0  0  0  0  2  0  0  0  0  0  0
  195.5070  174.5510  145.6130 C   0  0  0  0  0  2  0  0  0  0  0  0
  196.5330  174.5270  144.4890 C   0  0  2  0  0  0  0  0  0  0  0  0
  194.4910  176.4790  144.6710 C   0  0  0  0  0  2  0  0  0  0  0  0
  196.7190  175.8060  143.6760 C   0  0  0  0  0  2  0  0  0  0  0  0
  194.2490  175.1010  145.1060 N   0  0  0  0  0  0  0  0  0  0  0  0
  196.3920  173.4050  143.6630 O   0  0  0  0  0  0  0  0  0  0  0  0
  195.3710  176.4960  143.4100 C   0  0  1  0  0  3  0  0  0  0  0  0
  197.5820  173.4820  144.4170 C   0  0  2  0  0  3  0  0  0  0  0  0
  197.5010  172.5910  145.4890 O   0  0  0  0  0  0  0  0  0  0  0  0
  197.5810  171.3240  144.9140 C   0  0  0  0  0  2  0  0  0  0  0  0
  196.7950  170.3350  145.7470 C   0  0  0  0  0  1  0  0  0  0  0  0
  194.6620  175.8540  142.2240 C   0  0  0  0  0  2  0  0  0  0  0  0
  196.5000  175.2200  139.1070 O   0  0  0  0  0  0  0  0  0  0  0  0
  195.7900  174.9820  140.1210 C   0  0  0  0  0  0  0  0  0  0  0  0
  195.3550  173.5850  140.3930 C   0  0  0  0  0  1  0  0  0  0  0  0
  195.4300  176.0520  140.9980 N   0  0  0  0  0  2  0  0  0  0  0  0
  192.4070  170.3160  140.2460 C   0  0  0  0  0  2  0  0  0  0  0  0
  191.5050  169.2230  139.6830 C   0  0  0  0  0  2  0  0  0  0  0  0
  190.9130  169.6390  138.3760 C   0  0  0  0  0  0  0  0  0  0  0  0
  191.6410  170.5040  137.5000 N   0  0  0  0  0  2  0  0  0  0  0  0
  189.7500  169.2640  138.0810 O   0  0  0  0  0  0  0  0  0  0  0  0
  191.1330  170.9500  136.2090 C   0  0  1  0  0  3  0  0  0  0  0  0
  191.7680  172.2240  135.7380 C   0  0  2  0  0  3  0  0  0  0  0  0
  192.1740  170.9610  135.2610 O   0  0  0  0  0  0  0  0  0  0  0  0
  192.8610  172.8040  136.6500 C   0  0  1  0  0  3  0  0  0  0  0  0
  194.2120  172.8680  135.9220 C   0  0  2  0  0  3  0  0  0  0  0  0
  195.3840  171.6390  136.5920 S   0  0  0  0  0  0  0  0  0  0  0  0
  194.7980  174.1940  136.0510 N   0  0  0  0  0  2  0  0  0  0  0  0
  196.2120  174.0420  135.7590 C   0  0  0  0  0  2  0  0  0  0  0  0
  197.9300  172.2630  135.8430 C   0  0  0  0  0  1  0  0  0  0  0  0
  196.7200  172.8530  136.5350 C   0  0  2  0  0  3  0  0  0  0  0  0
  192.7220  174.5360  138.3040 O   0  0  0  0  0  1  0  0  0  0  0  0
  191.7420  175.0070  136.2890 O   0  0  0  0  0  0  0  0  0  0  0  0
  192.4430  174.1580  137.1380 C   0  0  0  0  0  0  0  0  0  0  0  0
  1  8  1  0  0  0  0
  2 17  1  6  0  0  0
  3 28  1  6  0  0  0
  4 21  1  0  0  0  0
  4 14  1  0  0  0  0
  6 15  1  1  0  0  0
  6  2  1  0  0  0  0
  7 14  2  0  0  0  0
  7 22  1  0  0  0  0
  8  3  1  0  0  0  0
  9 13  1  0  0  0  0
  9 10  2  0  0  0  0
 10  7  1  0  0  0  0
 11  3  1  0  0  0  0
 11 23  1  0  0  0  0
 12  1  1  0  0  0  0
 13  4  2  0  0  0  0
 14 25  1  0  0  0  0
 16 12  1  0  0  0  0
 16  5  2  0  0  0  0
 17  9  1  0  0  0  0
 18 45  1  6  0  0  0
 18 16  1  0  0  0  0
 19 15  1  0  0  0  0
 19 18  1  0  0  0  0
 20  6  1  0  0  0  0
 20  2  1  0  0  0  0
 22 23  1  0  0  0  0
 25 24  1  1  0  0  0
 26 25  1  0  0  0  0
 26 27  1  0  0  0  0
 30 32  1  6  0  0  0
 30 29  1  0  0  0  0
 31 33  1  0  0  0  0
 33 29  1  0  0  0  0
 33 28  1  0  0  0  0
 34 36  1  0  0  0  0
 34 30  1  0  0  0  0
 35 40  1  6  0  0  0
 35 32  1  0  0  0  0
 35 31  1  0  0  0  0
 36 30  1  0  0  0  0
 36 37  1  1  0  0  0
 38 37  1  0  0  0  0
 38 39  1  0  0  0  0
 41 42  2  0  0  0  0
 42 43  1  0  0  0  0
 42 44  1  0  0  0  0
 44 40  1  0  0  0  0
 46 45  1  0  0  0  0
 47 46  1  0  0  0  0
 48 47  1  0  0  0  0
 49 47  2  0  0  0  0
 50 48  1  1  0  0  0
 51 50  1  0  0  0  0
 51 53  1  1  0  0  0
 52 51  1  0  0  0  0
 52 50  1  0  0  0  0
 53 62  1  6  0  0  0
 54 56  1  0  0  0  0
 54 55  1  0  0  0  0
 54 53  1  1  0  0  0
 57 56  1  0  0  0  0
 57 59  1  0  0  0  0
 59 58  1  6  0  0  0
 59 55  1  0  0  0  0
 61 62  2  0  0  0  0
 62 60  1  0  0  0  0
M  END
>  <MODEL>
3

>  <REMARK>
 VINA RESULT:      -6.6      2.879      8.963
  Name = 
  15 active torsions:
  status: ('A' for Active; 'I' for Inactive)
    1  A    between atoms: C_1  and  C_30
    2  A    between atoms: C_4  and  C_53
    3  A    between atoms: C_5  and  N_10
    4  A    between atoms: C_8  and  C_41
    5  A    between atoms: C_17  and  C_30
    6  A    between atoms: O_22  and  C_45
    7  A    between atoms: O_22  and  C_60
    8  A    between atoms: N_24  and  C_41
    9  A    between atoms: C_26  and  C_39
   10  A    between atoms: C_26  and  O_44
   11  A    between atoms: C_30  and  C_34
   12  A    between atoms: C_37  and  C_51
   13  A    between atoms: C_49  and  C_61
   14  A    between atoms: C_51  and  N_52
   15  A    between atoms: C_53  and  C_61
                            x       y       z     vdW  Elec       q    Type
                         _______ _______ _______ _____ _____    ______ ____

>  <TORSDO>
F 15

$$$$
=
 OpenBabel11042416353D

 62 68  0  0  1  0  0  0  0  0999 V2000
  191.4110  173.1870  142.2260 O   0  0  0  0  0  0  0  0  0  0  0  0
  190.1240  176.9780  146.1420 C   0  0  1  0  0  3  0  0  0  0  0  0
  189.6260  174.0650  140.8640 C   0  0  2  0  0  3  0  0  0  0  0  0
  186.1930  178.3690  144.4980 C   0  0  0  0  0  0  0  0  0  0  0  0
  194.0830  173.8150  142.5770 O   0  0  0  0  0  0  0  0  0  0  0  0
  191.1030  176.0550  146.7710 C   0  0  1  0  0  3  0  0  0  0  0  0
  186.7640  176.2890  143.4160 C   0  0  0  0  0  0  0  0  0  0  0  0
  191.0870  174.1750  141.2880 C   0  0  0  0  0  2  0  0  0  0  0  0
  187.7630  176.8910  145.4770 C   0  0  0  0  0  0  0  0  0  0  0  0
  187.6130  176.0220  144.4440 N   0  0  0  0  0  0  0  0  0  0  0  0
  188.7920  174.3640  141.9440 O   0  0  0  0  0  0  0  0  0  0  0  0
  191.8690  173.8630  143.3090 N   0  0  0  0  0  2  0  0  0  0  0  0
  187.0600  178.0530  145.4930 N   0  0  0  0  0  0  0  0  0  0  0  0
  186.0180  177.4820  143.4140 C   0  0  0  0  0  0  0  0  0  0  0  0
  192.3870  176.0590  145.9710 C   0  0  0  0  0  2  0  0  0  0  0  0
  193.2650  174.1260  143.4840 C   0  0  0  0  0  0  0  0  0  0  0  0
  188.7210  176.5920  146.5730 C   0  0  0  0  0  2  0  0  0  0  0  0
  193.7440  174.8340  144.7200 C   0  0  1  0  0  3  0  0  0  0  0  0
  192.7960  174.7450  145.7480 O   0  0  0  0  0  0  0  0  0  0  0  0
  190.8730  177.3500  147.2790 O   0  0  0  0  0  0  0  0  0  0  0  0
  185.4470  179.6590  144.5870 C   0  0  0  0  0  1  0  0  0  0  0  0
  186.6330  175.3040  142.2980 C   0  0  0  0  0  2  0  0  0  0  0  0
  187.8840  175.3070  141.4450 C   0  0  0  0  0  2  0  0  0  0  0  0
  185.7270  178.5350  141.1630 C   0  0  0  0  0  1  0  0  0  0  0  0
  185.0580  177.7600  142.2820 C   0  0  2  0  0  3  0  0  0  0  0  0
  183.9240  178.4370  142.7360 O   0  0  0  0  0  0  0  0  0  0  0  0
  182.9610  178.2180  141.7500 C   0  0  0  0  0  1  0  0  0  0  0  0
  189.3210  172.6700  140.3240 C   0  0  0  0  0  2  0  0  0  0  0  0
  188.8900  173.4550  138.1440 C   0  0  0  0  0  2  0  0  0  0  0  0
  189.2740  173.3420  136.6760 C   0  0  2  0  0  0  0  0  0  0  0  0
  189.5250  171.1970  138.5060 C   0  0  0  0  0  2  0  0  0  0  0  0
  189.4110  171.9390  136.0890 C   0  0  0  0  0  2  0  0  0  0  0  0
  189.7510  172.5780  138.9380 N   0  0  0  0  0  0  0  0  0  0  0  0
  190.3730  174.1480  136.3500 O   0  0  0  0  0  0  0  0  0  0  0  0
  190.0800  170.9810  137.0880 C   0  0  1  0  0  3  0  0  0  0  0  0
  189.1430  174.4900  135.7470 C   0  0  2  0  0  3  0  0  0  0  0  0
  188.6210  175.6160  136.3850 O   0  0  0  0  0  0  0  0  0  0  0  0
  187.5540  176.0250  135.5860 C   0  0  0  0  0  2  0  0  0  0  0  0
  186.2830  176.0510  136.4050 C   0  0  0  0  0  1  0  0  0  0  0  0
  191.5950  171.1360  137.0510 C   0  0  0  0  0  2  0  0  0  0  0  0
  193.1980  168.2170  138.6010 O   0  0  0  0  0  0  0  0  0  0  0  0
  192.7130  168.9470  137.6960 C   0  0  0  0  0  0  0  0  0  0  0  0
  192.6400  168.4290  136.3030 C   0  0  0  0  0  1  0  0  0  0  0  0
  192.2260  170.2510  138.0250 N   0  0  0  0  0  2  0  0  0  0  0  0
  195.0970  174.3140  145.2080 C   0  0  0  0  0  2  0  0  0  0  0  0
  195.0220  172.8640  145.6730 C   0  0  0  0  0  2  0  0  0  0  0  0
  196.1990  172.0840  145.1860 C   0  0  0  0  0  0  0  0  0  0  0  0
  196.0850  171.2620  144.0200 N   0  0  0  0  0  2  0  0  0  0  0  0
  197.2720  172.1160  145.8400 O   0  0  0  0  0  0  0  0  0  0  0  0
  197.1880  170.4760  143.4820 C   0  0  1  0  0  3  0  0  0  0  0  0
  197.1030  170.2870  141.9980 C   0  0  2  0  0  3  0  0  0  0  0  0
  197.9410  171.2560  142.5850 O   0  0  0  0  0  0  0  0  0  0  0  0
  195.9220  170.9830  141.3010 C   0  0  1  0  0  3  0  0  0  0  0  0
  196.3000  171.4220  139.8780 C   0  0  2  0  0  3  0  0  0  0  0  0
  195.6220  173.0720  139.4930 S   0  0  0  0  0  0  0  0  0  0  0  0
  195.7980  170.4690  138.9000 N   0  0  0  0  0  2  0  0  0  0  0  0
  195.7850  171.1640  137.6250 C   0  0  0  0  0  2  0  0  0  0  0  0
  195.6440  173.4920  136.8000 C   0  0  0  0  0  1  0  0  0  0  0  0
  195.1480  172.5140  137.8420 C   0  0  2  0  0  3  0  0  0  0  0  0
  194.8800  168.8240  141.3980 O   0  0  0  0  0  1  0  0  0  0  0  0
  193.4580  170.6020  141.1550 O   0  0  0  0  0  0  0  0  0  0  0  0
  194.7350  170.0680  141.2880 C   0  0  0  0  0  0  0  0  0  0  0  0
  1 12  1  0  0  0  0
  2 17  1  1  0  0  0
  2  6  1  0  0  0  0
  2 20  1  0  0  0  0
  3 28  1  1  0  0  0
  3  8  1  0  0  0  0
  3 11  1  0  0  0  0
  4 21  1  0  0  0  0
  4 13  2  0  0  0  0
  5 16  2  0  0  0  0
  6 15  1  6  0  0  0
  6 20  1  0  0  0  0
  7 10  1  0  0  0  0
  8  1  1  0  0  0  0
  9 13  1  0  0  0  0
  9 17  1  0  0  0  0
 10  9  2  0  0  0  0
 12 16  1  0  0  0  0
 14  7  2  0  0  0  0
 14  4  1  0  0  0  0
 16 18  1  0  0  0  0
 18 45  1  1  0  0  0
 18 19  1  0  0  0  0
 19 15  1  0  0  0  0
 22  7  1  0  0  0  0
 23 11  1  0  0  0  0
 23 22  1  0  0  0  0
 25 24  1  6  0  0  0
 25 26  1  0  0  0  0
 25 14  1  0  0  0  0
 27 26  1  0  0  0  0
 29 33  1  0  0  0  0
 30 32  1  6  0  0  0
 30 29  1  0  0  0  0
 31 33  1  0  0  0  0
 32 35  1  0  0  0  0
 33 28  1  0  0  0  0
 34 30  1  0  0  0  0
 35 40  1  1  0  0  0
 35 31  1  0  0  0  0
 36 34  1  0  0  0  0
 36 37  1  1  0  0  0
 36 30  1  0  0  0  0
 38 37  1  0  0  0  0
 38 39  1  0  0  0  0
 40 44  1  0  0  0  0
 42 44  1  0  0  0  0
 42 41  2  0  0  0  0
 43 42  1  0  0  0  0
 45 46  1  0  0  0  0
 47 46  1  0  0  0  0
 47 49  2  0  0  0  0
 48 47  1  0  0  0  0
 50 48  1  6  0  0  0
 51 53  1  6  0  0  0
 51 52  1  0  0  0  0
 51 50  1  0  0  0  0
 52 50  1  0  0  0  0
 53 62  1  6  0  0  0
 54 53  1  1  0  0  0
 55 54  1  0  0  0  0
 56 54  1  0  0  0  0
 57 59  1  0  0  0  0
 57 56  1  0  0  0  0
 59 58  1  6  0  0  0
 59 55  1  0  0  0  0
 61 62  2  0  0  0  0
 62 60  1  0  0  0  0
M  END
>  <MODEL>
4

>  <REMARK>
 VINA RESULT:      -6.4      2.838      9.896
  Name = 
  15 active torsions:
  status: ('A' for Active; 'I' for Inactive)
    1  A    between atoms: C_1  and  C_30
    2  A    between atoms: C_4  and  C_53
    3  A    between atoms: C_5  and  N_10
    4  A    between atoms: C_8  and  C_41
    5  A    between atoms: C_17  and  C_30
    6  A    between atoms: O_22  and  C_45
    7  A    between atoms: O_22  and  C_60
    8  A    between atoms: N_24  and  C_41
    9  A    between atoms: C_26  and  C_39
   10  A    between atoms: C_26  and  O_44
   11  A    between atoms: C_30  and  C_34
   12  A    between atoms: C_37  and  C_51
   13  A    between atoms: C_49  and  C_61
   14  A    between atoms: C_51  and  N_52
   15  A    between atoms: C_53  and  C_61
                            x       y       z     vdW  Elec       q    Type
                         _______ _______ _______ _____ _____    ______ ____

>  <TORSDO>
F 15

$$$$
=
 OpenBabel11042416353D

 62 68  0  0  1  0  0  0  0  0999 V2000
  189.3780  172.1870  140.7940 O   0  0  0  0  0  0  0  0  0  0  0  0
  194.7000  170.5410  141.3760 C   0  0  1  0  0  3  0  0  0  0  0  0
  189.9530  174.2550  141.8920 C   0  0  2  0  0  3  0  0  0  0  0  0
  196.0990  173.7070  144.2230 C   0  0  0  0  0  0  0  0  0  0  0  0
  189.4460  171.2870  138.1780 O   0  0  0  0  0  0  0  0  0  0  0  0
  193.9500  169.3480  140.9040 C   0  0  1  0  0  3  0  0  0  0  0  0
  193.6860  173.7160  144.2200 C   0  0  0  0  0  0  0  0  0  0  0  0
  189.8920  173.4730  140.5830 C   0  0  0  0  0  2  0  0  0  0  0  0
  194.8870  171.8210  143.4620 C   0  0  0  0  0  0  0  0  0  0  0  0
  193.7120  172.4540  143.7140 N   0  0  0  0  0  0  0  0  0  0  0  0
  190.8890  173.6750  142.7500 O   0  0  0  0  0  0  0  0  0  0  0  0
  190.3360  171.3440  140.3320 N   0  0  0  0  0  2  0  0  0  0  0  0
  196.0640  172.4510  143.7120 N   0  0  0  0  0  0  0  0  0  0  0  0
  194.8920  174.3860  144.4960 C   0  0  0  0  0  0  0  0  0  0  0  0
  193.2950  169.6560  139.5760 C   0  0  0  0  0  2  0  0  0  0  0  0
  190.3110  170.8570  138.9870 C   0  0  0  0  0  0  0  0  0  0  0  0
  194.8890  170.4530  142.8790 C   0  0  0  0  0  2  0  0  0  0  0  0
  191.3590  169.8850  138.5240 C   0  0  1  0  0  3  0  0  0  0  0  0
  191.9640  169.2430  139.6120 O   0  0  0  0  0  0  0  0  0  0  0  0
  195.3490  169.4500  140.7620 O   0  0  0  0  0  0  0  0  0  0  0  0
  197.4300  174.3330  144.4820 C   0  0  0  0  0  1  0  0  0  0  0  0
  192.3690  174.3760  144.4800 C   0  0  0  0  0  2  0  0  0  0  0  0
  191.6960  174.7390  143.1730 C   0  0  0  0  0  2  0  0  0  0  0  0
  195.9540  176.6510  144.5090 C   0  0  0  0  0  1  0  0  0  0  0  0
  194.8550  175.7780  145.0810 C   0  0  2  0  0  3  0  0  0  0  0  0
  194.9350  175.7410  146.4750 O   0  0  0  0  0  0  0  0  0  0  0  0
  194.4630  176.9870  146.8910 C   0  0  0  0  0  1  0  0  0  0  0  0
  188.5800  174.3100  142.5560 C   0  0  0  0  0  2  0  0  0  0  0  0
  188.9830  175.6520  144.4510 C   0  0  0  0  0  2  0  0  0  0  0  0
  188.7290  177.0040  145.1030 C   0  0  2  0  0  0  0  0  0  0  0  0
  186.9200  175.8020  143.2880 C   0  0  0  0  0  2  0  0  0  0  0  0
  187.2970  177.5320  145.0970 C   0  0  0  0  0  2  0  0  0  0  0  0
  188.3660  175.6310  143.1250 N   0  0  0  0  0  0  0  0  0  0  0  0
  189.6410  177.9790  144.6770 O   0  0  0  0  0  0  0  0  0  0  0  0
  186.5980  177.2300  143.7610 C   0  0  1  0  0  3  0  0  0  0  0  0
  189.7050  177.6120  146.0390 C   0  0  2  0  0  3  0  0  0  0  0  0
  190.8150  176.7900  146.2370 O   0  0  0  0  0  0  0  0  0  0  0  0
  191.0160  176.7750  147.6160 C   0  0  0  0  0  2  0  0  0  0  0  0
  191.2060  175.3500  148.0890 C   0  0  0  0  0  1  0  0  0  0  0  0
  186.9760  178.2650  142.7100 C   0  0  0  0  0  2  0  0  0  0  0  0
  184.5770  178.6830  139.9580 O   0  0  0  0  0  0  0  0  0  0  0  0
  185.5850  178.2560  140.5830 C   0  0  0  0  0  0  0  0  0  0  0  0
  186.5400  177.3490  139.8900 C   0  0  0  0  0  1  0  0  0  0  0  0
  185.8030  178.6630  141.9360 N   0  0  0  0  0  2  0  0  0  0  0  0
  190.8070  168.8490  137.5440 C   0  0  0  0  0  2  0  0  0  0  0  0
  191.6750  168.7150  136.2980 C   0  0  0  0  0  2  0  0  0  0  0  0
  191.6710  169.9810  135.5050 C   0  0  0  0  0  0  0  0  0  0  0  0
  192.8660  170.7610  135.3890 N   0  0  0  0  0  2  0  0  0  0  0  0
  190.5980  170.3800  134.9880 O   0  0  0  0  0  0  0  0  0  0  0  0
  192.9420  172.0030  134.6310 C   0  0  1  0  0  3  0  0  0  0  0  0
  193.4900  173.1450  135.4340 C   0  0  2  0  0  3  0  0  0  0  0  0
  194.2830  172.4180  134.5230 O   0  0  0  0  0  0  0  0  0  0  0  0
  193.9190  172.8080  136.8710 C   0  0  1  0  0  3  0  0  0  0  0  0
  195.3050  173.3900  137.1850 C   0  0  2  0  0  3  0  0  0  0  0  0
  195.8950  172.8440  138.8240 S   0  0  0  0  0  0  0  0  0  0  0  0
  195.2650  174.8450  137.1630 N   0  0  0  0  0  2  0  0  0  0  0  0
  196.4340  175.2950  137.8970 C   0  0  0  0  0  2  0  0  0  0  0  0
  197.9360  174.4420  139.6690 C   0  0  0  0  0  1  0  0  0  0  0  0
  196.5050  174.5070  139.1810 C   0  0  2  0  0  3  0  0  0  0  0  0
  191.8080  173.8050  137.4220 O   0  0  0  0  0  0  0  0  0  0  0  0
  193.1290  173.2330  139.2020 O   0  0  0  0  0  1  0  0  0  0  0  0
  192.8880  173.3130  137.8350 C   0  0  0  0  0  0  0  0  0  0  0  0
  2 17  1  1  0  0  0
  3 28  1  1  0  0  0
  3 11  1  0  0  0  0
  4 21  1  0  0  0  0
  4 14  1  0  0  0  0
  5 16  2  0  0  0  0
  6 15  1  6  0  0  0
  6  2  1  0  0  0  0
  7 22  1  0  0  0  0
  7 14  2  0  0  0  0
  8  1  1  0  0  0  0
  8  3  1  0  0  0  0
  9 13  1  0  0  0  0
  9 10  2  0  0  0  0
 10  7  1  0  0  0  0
 11 23  1  0  0  0  0
 12  1  1  0  0  0  0
 13  4  2  0  0  0  0
 14 25  1  0  0  0  0
 15 19  1  0  0  0  0
 16 12  1  0  0  0  0
 17  9  1  0  0  0  0
 18 45  1  6  0  0  0
 18 16  1  0  0  0  0
 18 19  1  0  0  0  0
 20  6  1  0  0  0  0
 20  2  1  0  0  0  0
 23 22  1  0  0  0  0
 25 24  1  6  0  0  0
 25 26  1  0  0  0  0
 26 27  1  0  0  0  0
 28 33  1  0  0  0  0
 30 29  1  6  0  0  0
 30 36  1  0  0  0  0
 31 35  1  0  0  0  0
 32 30  1  0  0  0  0
 33 31  1  0  0  0  0
 33 29  1  0  0  0  0
 34 30  1  0  0  0  0
 34 36  1  0  0  0  0
 35 40  1  6  0  0  0
 35 32  1  0  0  0  0
 36 37  1  6  0  0  0
 37 38  1  0  0  0  0
 38 39  1  0  0  0  0
 41 42  2  0  0  0  0
 42 44  1  0  0  0  0
 43 42  1  0  0  0  0
 44 40  1  0  0  0  0
 46 45  1  0  0  0  0
 47 46  1  0  0  0  0
 48 47  1  0  0  0  0
 49 47  2  0  0  0  0
 50 48  1  1  0  0  0
 50 51  1  0  0  0  0
 51 53  1  1  0  0  0
 52 50  1  0  0  0  0
 52 51  1  0  0  0  0
 53 62  1  1  0  0  0
 54 53  1  1  0  0  0
 54 55  1  0  0  0  0
 55 59  1  0  0  0  0
 56 54  1  0  0  0  0
 56 57  1  0  0  0  0
 57 59  1  0  0  0  0
 59 58  1  6  0  0  0
 60 62  2  0  0  0  0
 62 61  1  0  0  0  0
M  END
>  <MODEL>
5

>  <REMARK>
 VINA RESULT:      -6.3      2.779     10.061
  Name = 
  15 active torsions:
  status: ('A' for Active; 'I' for Inactive)
    1  A    between atoms: C_1  and  C_30
    2  A    between atoms: C_4  and  C_53
    3  A    between atoms: C_5  and  N_10
    4  A    between atoms: C_8  and  C_41
    5  A    between atoms: C_17  and  C_30
    6  A    between atoms: O_22  and  C_45
    7  A    between atoms: O_22  and  C_60
    8  A    between atoms: N_24  and  C_41
    9  A    between atoms: C_26  and  C_39
   10  A    between atoms: C_26  and  O_44
   11  A    between atoms: C_30  and  C_34
   12  A    between atoms: C_37  and  C_51
   13  A    between atoms: C_49  and  C_61
   14  A    between atoms: C_51  and  N_52
   15  A    between atoms: C_53  and  C_61
                            x       y       z     vdW  Elec       q    Type
                         _______ _______ _______ _____ _____    ______ ____

>  <TORSDO>
F 15

$$$$
=
 OpenBabel11042416353D

 62 68  0  0  1  0  0  0  0  0999 V2000
  191.7810  174.1820  140.0660 O   0  0  0  0  0  0  0  0  0  0  0  0
  186.6840  175.8820  138.4820 C   0  0  1  0  0  3  0  0  0  0  0  0
  191.2220  174.7910  142.3300 C   0  0  2  0  0  3  0  0  0  0  0  0
  185.4610  178.0010  142.2360 C   0  0  0  0  0  0  0  0  0  0  0  0
  191.4420  171.9120  138.5190 O   0  0  0  0  0  0  0  0  0  0  0  0
  187.4400  175.6280  137.2280 C   0  0  1  0  0  3  0  0  0  0  0  0
  187.8490  177.6670  142.3100 C   0  0  0  0  0  0  0  0  0  0  0  0
  191.1670  173.7260  141.2390 C   0  0  0  0  0  2  0  0  0  0  0  0
  186.6810  177.5830  140.2510 C   0  0  0  0  0  0  0  0  0  0  0  0
  187.8370  177.5040  140.9590 N   0  0  0  0  0  0  0  0  0  0  0  0
  190.4380  175.8880  141.9660 O   0  0  0  0  0  0  0  0  0  0  0  0
  190.8260  174.0840  139.1060 N   0  0  0  0  0  2  0  0  0  0  0  0
  185.5080  177.8240  140.8920 N   0  0  0  0  0  0  0  0  0  0  0  0
  186.6480  177.9270  142.9950 C   0  0  0  0  0  0  0  0  0  0  0  0
  187.9050  174.1890  137.2000 C   0  0  0  0  0  2  0  0  0  0  0  0
  190.7120  172.9140  138.2890 C   0  0  0  0  0  0  0  0  0  0  0  0
  186.6890  177.3690  138.7790 C   0  0  0  0  0  2  0  0  0  0  0  0
  189.6760  172.8590  137.2020 C   0  0  1  0  0  3  0  0  0  0  0  0
  189.2530  174.1460  136.8470 O   0  0  0  0  0  0  0  0  0  0  0  0
  186.0310  175.6570  137.2510 O   0  0  0  0  0  0  0  0  0  0  0  0
  184.1370  178.2730  142.8710 C   0  0  0  0  0  1  0  0  0  0  0  0
  189.1450  177.5690  143.0490 C   0  0  0  0  0  2  0  0  0  0  0  0
  189.6260  176.1340  143.0810 C   0  0  0  0  0  2  0  0  0  0  0  0
  186.1360  176.9200  145.2270 C   0  0  0  0  0  1  0  0  0  0  0  0
  186.6720  178.1310  144.4910 C   0  0  2  0  0  3  0  0  0  0  0  0
  185.9640  179.2780  144.8550 O   0  0  0  0  0  0  0  0  0  0  0  0
  185.5400  179.0340  146.1620 C   0  0  0  0  0  1  0  0  0  0  0  0
  192.6610  175.2270  142.5920 C   0  0  0  0  0  2  0  0  0  0  0  0
  192.5150  176.0280  144.8040 C   0  0  0  0  0  2  0  0  0  0  0  0
  192.9180  175.7840  146.2510 C   0  0  2  0  0  0  0  0  0  0  0  0
  194.4790  174.9300  144.0500 C   0  0  0  0  0  2  0  0  0  0  0  0
  194.3790  175.4390  146.5280 C   0  0  0  0  0  2  0  0  0  0  0  0
  193.0160  174.9340  143.9720 N   0  0  0  0  0  0  0  0  0  0  0  0
  192.0460  174.9050  146.9060 O   0  0  0  0  0  0  0  0  0  0  0  0
  194.9400  174.4950  145.4510 C   0  0  1  0  0  3  0  0  0  0  0  0
  192.0700  176.2340  147.3810 C   0  0  2  0  0  3  0  0  0  0  0  0
  190.9240  176.8960  146.9380 O   0  0  0  0  0  0  0  0  0  0  0  0
  190.4420  177.5770  148.0550 C   0  0  0  0  0  2  0  0  0  0  0  0
  191.5320  177.6810  149.0990 C   0  0  0  0  0  1  0  0  0  0  0  0
  194.5520  173.0520  145.7450 C   0  0  0  0  0  2  0  0  0  0  0  0
  196.6250  170.0460  145.3470 O   0  0  0  0  0  0  0  0  0  0  0  0
  195.5850  170.7540  145.4180 C   0  0  0  0  0  0  0  0  0  0  0  0
  194.2520  170.0990  145.3360 C   0  0  0  0  0  1  0  0  0  0  0  0
  195.7040  172.1680  145.5920 N   0  0  0  0  0  2  0  0  0  0  0  0
  190.1640  172.1060  135.9640 C   0  0  0  0  0  2  0  0  0  0  0  0
  191.3460  172.8010  135.2960 C   0  0  0  0  0  2  0  0  0  0  0  0
  192.6270  172.1020  135.6140 C   0  0  0  0  0  0  0  0  0  0  0  0
  193.8370  172.8520  135.7640 N   0  0  0  0  0  2  0  0  0  0  0  0
  192.6410  170.8480  135.6940 O   0  0  0  0  0  0  0  0  0  0  0  0
  195.1230  172.2430  136.0770 C   0  0  1  0  0  3  0  0  0  0  0  0
  196.1240  173.2280  136.6030 C   0  0  2  0  0  3  0  0  0  0  0  0
  195.3940  172.3730  137.4530 O   0  0  0  0  0  0  0  0  0  0  0  0
  195.6200  174.6700  136.7690 C   0  0  1  0  0  3  0  0  0  0  0  0
  196.0740  175.2630  138.1120 C   0  0  2  0  0  3  0  0  0  0  0  0
  197.5770  174.4320  138.7280 S   0  0  0  0  0  0  0  0  0  0  0  0
  195.0230  175.1300  139.1100 N   0  0  0  0  0  2  0  0  0  0  0  0
  195.6690  175.2750  140.4020 C   0  0  0  0  0  2  0  0  0  0  0  0
  197.9170  174.9490  141.3820 C   0  0  0  0  0  1  0  0  0  0  0  0
  196.9010  174.4050  140.4020 C   0  0  2  0  0  3  0  0  0  0  0  0
  197.3090  175.5110  135.2870 O   0  0  0  0  0  1  0  0  0  0  0  0
  195.1870  176.2840  134.9130 O   0  0  0  0  0  0  0  0  0  0  0  0
  196.0970  175.5060  135.6200 C   0  0  0  0  0  0  0  0  0  0  0  0
  1  8  1  0  0  0  0
  2 17  1  6  0  0  0
  3 28  1  6  0  0  0
  4 21  1  0  0  0  0
  4 14  1  0  0  0  0
  6 15  1  1  0  0  0
  6 20  1  0  0  0  0
  6  2  1  0  0  0  0
  7 14  2  0  0  0  0
  7 22  1  0  0  0  0
  8  3  1  0  0  0  0
  9 13  1  0  0  0  0
  9 10  2  0  0  0  0
 10  7  1  0  0  0  0
 11  3  1  0  0  0  0
 11 23  1  0  0  0  0
 12  1  1  0  0  0  0
 13  4  2  0  0  0  0
 14 25  1  0  0  0  0
 16  5  2  0  0  0  0
 16 12  1  0  0  0  0
 17  9  1  0  0  0  0
 18 45  1  6  0  0  0
 18 16  1  0  0  0  0
 19 15  1  0  0  0  0
 19 18  1  0  0  0  0
 20  2  1  0  0  0  0
 22 23  1  0  0  0  0
 25 26  1  0  0  0  0
 25 24  1  1  0  0  0
 26 27  1  0  0  0  0
 28 33  1  0  0  0  0
 30 29  1  6  0  0  0
 30 32  1  0  0  0  0
 30 34  1  0  0  0  0
 30 36  1  0  0  0  0
 31 35  1  0  0  0  0
 33 31  1  0  0  0  0
 33 29  1  0  0  0  0
 34 36  1  0  0  0  0
 35 40  1  1  0  0  0
 35 32  1  0  0  0  0
 36 37  1  6  0  0  0
 37 38  1  0  0  0  0
 38 39  1  0  0  0  0
 41 42  2  0  0  0  0
 42 44  1  0  0  0  0
 43 42  1  0  0  0  0
 44 40  1  0  0  0  0
 46 47  1  0  0  0  0
 46 45  1  0  0  0  0
 47 49  2  0  0  0  0
 47 48  1  0  0  0  0
 50 48  1  1  0  0  0
 50 51  1  0  0  0  0
 50 52  1  0  0  0  0
 51 53  1  1  0  0  0
 51 52  1  0  0  0  0
 53 62  1  6  0  0  0
 54 53  1  6  0  0  0
 54 55  1  0  0  0  0
 54 56  1  0  0  0  0
 55 59  1  0  0  0  0
 56 57  1  0  0  0  0
 59 57  1  0  0  0  0
 59 58  1  1  0  0  0
 60 62  1  0  0  0  0
 61 62  2  0  0  0  0
M  END
>  <MODEL>
6

>  <REMARK>
 VINA RESULT:      -6.3      3.170      9.342
  Name = 
  15 active torsions:
  status: ('A' for Active; 'I' for Inactive)
    1  A    between atoms: C_1  and  C_30
    2  A    between atoms: C_4  and  C_53
    3  A    between atoms: C_5  and  N_10
    4  A    between atoms: C_8  and  C_41
    5  A    between atoms: C_17  and  C_30
    6  A    between atoms: O_22  and  C_45
    7  A    between atoms: O_22  and  C_60
    8  A    between atoms: N_24  and  C_41
    9  A    between atoms: C_26  and  C_39
   10  A    between atoms: C_26  and  O_44
   11  A    between atoms: C_30  and  C_34
   12  A    between atoms: C_37  and  C_51
   13  A    between atoms: C_49  and  C_61
   14  A    between atoms: C_51  and  N_52
   15  A    between atoms: C_53  and  C_61
                            x       y       z     vdW  Elec       q    Type
                         _______ _______ _______ _____ _____    ______ ____

>  <TORSDO>
F 15

$$$$
=
 OpenBabel11042416353D

 62 68  0  0  1  0  0  0  0  0999 V2000
  192.0880  174.3820  140.3420 O   0  0  0  0  0  0  0  0  0  0  0  0
  186.9260  175.6750  138.5950 C   0  0  1  0  0  3  0  0  0  0  0  0
  191.4620  175.1020  142.5560 C   0  0  2  0  0  3  0  0  0  0  0  0
  185.5280  177.9580  142.1890 C   0  0  0  0  0  0  0  0  0  0  0  0
  191.9030  172.0010  138.9440 O   0  0  0  0  0  0  0  0  0  0  0  0
  187.7140  175.3850  137.3690 C   0  0  1  0  0  3  0  0  0  0  0  0
  187.9300  177.7690  142.3100 C   0  0  0  0  0  0  0  0  0  0  0  0
  191.4850  173.9670  141.5360 C   0  0  0  0  0  2  0  0  0  0  0  0
  186.8000  177.4840  140.2490 C   0  0  0  0  0  0  0  0  0  0  0  0
  187.9470  177.5190  140.9730 N   0  0  0  0  0  0  0  0  0  0  0  0
  190.6220  176.1260  142.1120 O   0  0  0  0  0  0  0  0  0  0  0  0
  191.1550  174.1660  139.3810 N   0  0  0  0  0  2  0  0  0  0  0  0
  185.6050  177.6980  140.8600 N   0  0  0  0  0  0  0  0  0  0  0  0
  186.7060  178.0030  142.9640 C   0  0  0  0  0  0  0  0  0  0  0  0
  188.2600  173.9770  137.4410 C   0  0  0  0  0  2  0  0  0  0  0  0
  191.1200  172.9410  138.6410 C   0  0  0  0  0  0  0  0  0  0  0  0
  186.8410  177.1760  138.7950 C   0  0  0  0  0  2  0  0  0  0  0  0
  190.1050  172.7550  137.5490 C   0  0  1  0  0  3  0  0  0  0  0  0
  189.6140  173.9900  137.1060 O   0  0  0  0  0  0  0  0  0  0  0  0
  186.3050  175.3330  137.3750 O   0  0  0  0  0  0  0  0  0  0  0  0
  184.1810  178.1930  142.7900 C   0  0  0  0  0  1  0  0  0  0  0  0
  189.2190  177.7960  143.0690 C   0  0  0  0  0  2  0  0  0  0  0  0
  189.7810  176.3960  143.1990 C   0  0  0  0  0  2  0  0  0  0  0  0
  186.2050  177.1200  145.2500 C   0  0  0  0  0  1  0  0  0  0  0  0
  186.6970  178.3050  144.4440 C   0  0  2  0  0  3  0  0  0  0  0  0
  185.9300  179.4390  144.7220 O   0  0  0  0  0  0  0  0  0  0  0  0
  185.4890  179.2560  146.0340 C   0  0  0  0  0  1  0  0  0  0  0  0
  192.8700  175.6370  142.8050 C   0  0  0  0  0  2  0  0  0  0  0  0
  192.1610  176.2150  144.9770 C   0  0  0  0  0  2  0  0  0  0  0  0
  192.5010  176.1560  146.4590 C   0  0  2  0  0  0  0  0  0  0  0  0
  194.4700  176.2070  144.4270 C   0  0  0  0  0  2  0  0  0  0  0  0
  193.9180  176.5430  146.8740 C   0  0  0  0  0  2  0  0  0  0  0  0
  193.1970  175.5140  144.2160 N   0  0  0  0  0  0  0  0  0  0  0  0
  192.1000  174.9500  147.0500 O   0  0  0  0  0  0  0  0  0  0  0  0
  194.9550  176.0090  145.8730 C   0  0  1  0  0  3  0  0  0  0  0  0
  191.4440  176.1170  147.4980 C   0  0  2  0  0  3  0  0  0  0  0  0
  190.1650  176.1630  146.9390 O   0  0  0  0  0  0  0  0  0  0  0  0
  189.5640  174.9610  147.3070 C   0  0  0  0  0  2  0  0  0  0  0  0
  189.3130  174.1170  146.0770 C   0  0  0  0  0  1  0  0  0  0  0  0
  195.2790  174.5490  146.1590 C   0  0  0  0  0  2  0  0  0  0  0  0
  197.9410  172.5680  144.5840 O   0  0  0  0  0  0  0  0  0  0  0  0
  196.8120  172.8380  145.0730 C   0  0  0  0  0  0  0  0  0  0  0  0
  195.7910  171.7610  145.1870 C   0  0  0  0  0  1  0  0  0  0  0  0
  196.5370  174.1660  145.5250 N   0  0  0  0  0  2  0  0  0  0  0  0
  190.6540  171.9530  136.3680 C   0  0  0  0  0  2  0  0  0  0  0  0
  190.1920  170.5010  136.3950 C   0  0  0  0  0  2  0  0  0  0  0  0
  191.3450  169.5760  136.6110 C   0  0  0  0  0  0  0  0  0  0  0  0
  192.6750  169.9980  136.2910 N   0  0  0  0  0  2  0  0  0  0  0  0
  191.1300  168.4100  137.0270 O   0  0  0  0  0  0  0  0  0  0  0  0
  193.8500  169.1560  136.4770 C   0  0  1  0  0  3  0  0  0  0  0  0
  195.1270  169.9380  136.5310 C   0  0  2  0  0  3  0  0  0  0  0  0
  194.4800  169.4750  137.6950 O   0  0  0  0  0  0  0  0  0  0  0  0
  194.9820  171.4650  136.4360 C   0  0  1  0  0  3  0  0  0  0  0  0
  195.6290  172.1590  137.6440 C   0  0  2  0  0  3  0  0  0  0  0  0
  194.8830  173.7990  137.9430 S   0  0  0  0  0  0  0  0  0  0  0  0
  197.0580  172.3270  137.4310 N   0  0  0  0  0  2  0  0  0  0  0  0
  197.4890  173.3590  138.3570 C   0  0  0  0  0  2  0  0  0  0  0  0
  196.5030  175.2890  139.5510 C   0  0  0  0  0  1  0  0  0  0  0  0
  196.5150  174.5060  138.2550 C   0  0  2  0  0  3  0  0  0  0  0  0
  196.3990  171.2380  134.5130 O   0  0  0  0  0  0  0  0  0  0  0  0
  195.2240  173.1980  134.6530 O   0  0  0  0  0  1  0  0  0  0  0  0
  195.5800  171.9490  135.1490 C   0  0  0  0  0  0  0  0  0  0  0  0
  1  8  1  0  0  0  0
  2 17  1  6  0  0  0
  3 28  1  6  0  0  0
  4 21  1  0  0  0  0
  4 14  1  0  0  0  0
  6 20  1  0  0  0  0
  6 15  1  1  0  0  0
  6  2  1  0  0  0  0
  7 14  2  0  0  0  0
  7 22  1  0  0  0  0
  8  3  1  0  0  0  0
  9 13  1  0  0  0  0
  9 10  2  0  0  0  0
 10  7  1  0  0  0  0
 11  3  1  0  0  0  0
 11 23  1  0  0  0  0
 12  1  1  0  0  0  0
 13  4  2  0  0  0  0
 14 25  1  0  0  0  0
 16  5  2  0  0  0  0
 16 12  1  0  0  0  0
 17  9  1  0  0  0  0
 18 45  1  6  0  0  0
 18 16  1  0  0  0  0
 19 15  1  0  0  0  0
 19 18  1  0  0  0  0
 20  2  1  0  0  0  0
 22 23  1  0  0  0  0
 25 26  1  0  0  0  0
 25 24  1  1  0  0  0
 26 27  1  0  0  0  0
 28 33  1  0  0  0  0
 30 29  1  6  0  0  0
 30 32  1  0  0  0  0
 30 34  1  0  0  0  0
 30 36  1  0  0  0  0
 31 35  1  0  0  0  0
 33 31  1  0  0  0  0
 33 29  1  0  0  0  0
 34 36  1  0  0  0  0
 35 40  1  1  0  0  0
 35 32  1  0  0  0  0
 36 37  1  6  0  0  0
 37 38  1  0  0  0  0
 39 38  1  0  0  0  0
 41 42  2  0  0  0  0
 42 43  1  0  0  0  0
 42 44  1  0  0  0  0
 44 40  1  0  0  0  0
 45 46  1  0  0  0  0
 46 47  1  0  0  0  0
 47 49  2  0  0  0  0
 48 47  1  0  0  0  0
 50 48  1  1  0  0  0
 50 51  1  0  0  0  0
 50 52  1  0  0  0  0
 51 53  1  1  0  0  0
 51 52  1  0  0  0  0
 53 62  1  6  0  0  0
 54 53  1  6  0  0  0
 54 55  1  0  0  0  0
 55 59  1  0  0  0  0
 56 54  1  0  0  0  0
 56 57  1  0  0  0  0
 59 57  1  0  0  0  0
 59 58  1  1  0  0  0
 60 62  2  0  0  0  0
 61 62  1  0  0  0  0
M  END
>  <MODEL>
7

>  <REMARK>
 VINA RESULT:      -6.2      2.851      9.635
  Name = 
  15 active torsions:
  status: ('A' for Active; 'I' for Inactive)
    1  A    between atoms: C_1  and  C_30
    2  A    between atoms: C_4  and  C_53
    3  A    between atoms: C_5  and  N_10
    4  A    between atoms: C_8  and  C_41
    5  A    between atoms: C_17  and  C_30
    6  A    between atoms: O_22  and  C_45
    7  A    between atoms: O_22  and  C_60
    8  A    between atoms: N_24  and  C_41
    9  A    between atoms: C_26  and  C_39
   10  A    between atoms: C_26  and  O_44
   11  A    between atoms: C_30  and  C_34
   12  A    between atoms: C_37  and  C_51
   13  A    between atoms: C_49  and  C_61
   14  A    between atoms: C_51  and  N_52
   15  A    between atoms: C_53  and  C_61
                            x       y       z     vdW  Elec       q    Type
                         _______ _______ _______ _____ _____    ______ ____

>  <TORSDO>
F 15

$$$$
=
 OpenBabel11042416353D

 62 68  0  0  1  0  0  0  0  0999 V2000
  191.8030  172.7550  142.0950 O   0  0  0  0  0  0  0  0  0  0  0  0
  190.7350  176.3350  146.2680 C   0  0  1  0  0  3  0  0  0  0  0  0
  190.0210  173.7780  140.8330 C   0  0  2  0  0  3  0  0  0  0  0  0
  186.8220  177.9600  144.8060 C   0  0  0  0  0  0  0  0  0  0  0  0
  194.5020  173.2690  142.4210 O   0  0  0  0  0  0  0  0  0  0  0  0
  191.6940  175.3420  146.8150 C   0  0  1  0  0  3  0  0  0  0  0  0
  187.2950  175.9340  143.5840 C   0  0  0  0  0  0  0  0  0  0  0  0
  191.4950  173.8110  141.2280 C   0  0  0  0  0  2  0  0  0  0  0  0
  188.3590  176.3710  145.6540 C   0  0  0  0  0  0  0  0  0  0  0  0
  188.1570  175.5740  144.5730 N   0  0  0  0  0  0  0  0  0  0  0  0
  189.2220  174.0370  141.9490 O   0  0  0  0  0  0  0  0  0  0  0  0
  192.3080  173.3470  143.2070 N   0  0  0  0  0  2  0  0  0  0  0  0
  187.6980  177.5530  145.7590 N   0  0  0  0  0  0  0  0  0  0  0  0
  186.5920  177.1500  143.6740 C   0  0  0  0  0  0  0  0  0  0  0  0
  192.9600  175.3520  145.9870 C   0  0  0  0  0  2  0  0  0  0  0  0
  193.7150  173.5500  143.3650 C   0  0  0  0  0  0  0  0  0  0  0  0
  189.3290  175.9710  146.7070 C   0  0  0  0  0  2  0  0  0  0  0  0
  194.2450  174.1620  144.6310 C   0  0  1  0  0  3  0  0  0  0  0  0
  193.3170  174.0420  145.6730 O   0  0  0  0  0  0  0  0  0  0  0  0
  191.5210  176.6090  147.4080 O   0  0  0  0  0  0  0  0  0  0  0  0
  186.1250  179.2670  144.9930 C   0  0  0  0  0  1  0  0  0  0  0  0
  187.1050  175.0260  142.4100 C   0  0  0  0  0  2  0  0  0  0  0  0
  188.3370  175.0400  141.5310 C   0  0  0  0  0  2  0  0  0  0  0  0
  186.2050  178.5770  141.6560 C   0  0  0  0  0  1  0  0  0  0  0  0
  185.6190  177.5310  142.5840 C   0  0  2  0  0  3  0  0  0  0  0  0
  184.4090  177.9750  143.1200 O   0  0  0  0  0  0  0  0  0  0  0  0
  183.6330  178.3190  142.0120 C   0  0  0  0  0  1  0  0  0  0  0  0
  189.6550  172.4310  140.2150 C   0  0  0  0  0  2  0  0  0  0  0  0
  190.6370  171.4340  138.3180 C   0  0  0  0  0  2  0  0  0  0  0  0
  190.8140  171.5250  136.8090 C   0  0  2  0  0  0  0  0  0  0  0  0
  190.4010  173.7920  138.4530 C   0  0  0  0  0  2  0  0  0  0  0  0
  191.1830  172.8850  136.2230 C   0  0  0  0  0  2  0  0  0  0  0  0
  189.7580  172.5140  138.7670 N   0  0  0  0  0  0  0  0  0  0  0  0
  189.7530  170.9320  136.1120 O   0  0  0  0  0  0  0  0  0  0  0  0
  190.4260  174.0200  136.9320 C   0  0  1  0  0  3  0  0  0  0  0  0
  191.0160  170.3150  135.9760 C   0  0  2  0  0  3  0  0  0  0  0  0
  191.0390  169.1520  136.7470 O   0  0  0  0  0  0  0  0  0  0  0  0
  191.6050  168.1810  135.9230 C   0  0  0  0  0  2  0  0  0  0  0  0
  192.9460  168.6620  135.4120 C   0  0  0  0  0  1  0  0  0  0  0  0
  189.0200  174.1660  136.3650 C   0  0  0  0  0  2  0  0  0  0  0  0
  187.7350  177.3230  134.9950 O   0  0  0  0  0  0  0  0  0  0  0  0
  187.7980  176.3020  135.7300 C   0  0  0  0  0  0  0  0  0  0  0  0
  186.7110  176.0440  136.7130 C   0  0  0  0  0  1  0  0  0  0  0  0
  188.9020  175.4020  135.5960 N   0  0  0  0  0  2  0  0  0  0  0  0
  195.5890  173.5660  145.0540 C   0  0  0  0  0  2  0  0  0  0  0  0
  195.4410  172.1620  145.6280 C   0  0  0  0  0  2  0  0  0  0  0  0
  196.3980  171.2150  144.9810 C   0  0  0  0  0  0  0  0  0  0  0  0
  196.0230  170.5170  143.7890 N   0  0  0  0  0  2  0  0  0  0  0  0
  197.5110  170.9990  145.5220 O   0  0  0  0  0  0  0  0  0  0  0  0
  196.9020  169.5820  143.0980 C   0  0  1  0  0  3  0  0  0  0  0  0
  196.5540  169.4130  141.6500 C   0  0  2  0  0  3  0  0  0  0  0  0
  197.6050  170.2490  142.0770 O   0  0  0  0  0  0  0  0  0  0  0  0
  195.3890  170.2740  141.1370 C   0  0  1  0  0  3  0  0  0  0  0  0
  195.7700  171.0010  139.8380 C   0  0  2  0  0  3  0  0  0  0  0  0
  194.3550  171.9400  139.1670 S   0  0  0  0  0  0  0  0  0  0  0  0
  196.2190  170.0500  138.8330 N   0  0  0  0  0  2  0  0  0  0  0  0
  196.1120  170.7290  137.5540 C   0  0  0  0  0  2  0  0  0  0  0  0
  194.8030  172.5750  136.5540 C   0  0  0  0  0  1  0  0  0  0  0  0
  194.7580  171.3900  137.4950 C   0  0  2  0  0  3  0  0  0  0  0  0
  194.2880  168.1770  140.7540 O   0  0  0  0  0  0  0  0  0  0  0  0
  192.9130  169.9950  140.9680 O   0  0  0  0  0  1  0  0  0  0  0  0
  194.1770  169.4150  140.9410 C   0  0  0  0  0  0  0  0  0  0  0  0
  1 12  1  0  0  0  0
  2 17  1  1  0  0  0
  2  6  1  0  0  0  0
  2 20  1  0  0  0  0
  3 28  1  1  0  0  0
  3  8  1  0  0  0  0
  3 11  1  0  0  0  0
  4 21  1  0  0  0  0
  4 13  2  0  0  0  0
  5 16  2  0  0  0  0
  6 15  1  6  0  0  0
  6 20  1  0  0  0  0
  7 14  2  0  0  0  0
  7 10  1  0  0  0  0
  8  1  1  0  0  0  0
  9 13  1  0  0  0  0
  9 17  1  0  0  0  0
 10  9  2  0  0  0  0
 12 16  1  0  0  0  0
 14  4  1  0  0  0  0
 16 18  1  0  0  0  0
 18 45  1  1  0  0  0
 18 19  1  0  0  0  0
 19 15  1  0  0  0  0
 22  7  1  0  0  0  0
 23 11  1  0  0  0  0
 23 22  1  0  0  0  0
 25 24  1  1  0  0  0
 25 26  1  0  0  0  0
 25 14  1  0  0  0  0
 27 26  1  0  0  0  0
 29 33  1  0  0  0  0
 30 32  1  6  0  0  0
 30 29  1  0  0  0  0
 31 33  1  0  0  0  0
 32 35  1  0  0  0  0
 33 28  1  0  0  0  0
 34 30  1  0  0  0  0
 35 40  1  6  0  0  0
 35 31  1  0  0  0  0
 36 34  1  0  0  0  0
 36 37  1  1  0  0  0
 36 30  1  0  0  0  0
 38 37  1  0  0  0  0
 39 38  1  0  0  0  0
 41 42  2  0  0  0  0
 42 43  1  0  0  0  0
 44 42  1  0  0  0  0
 44 40  1  0  0  0  0
 45 46  1  0  0  0  0
 47 49  2  0  0  0  0
 47 46  1  0  0  0  0
 48 47  1  0  0  0  0
 50 48  1  1  0  0  0
 51 53  1  1  0  0  0
 51 52  1  0  0  0  0
 51 50  1  0  0  0  0
 52 50  1  0  0  0  0
 53 62  1  6  0  0  0
 54 53  1  1  0  0  0
 55 54  1  0  0  0  0
 56 54  1  0  0  0  0
 57 56  1  0  0  0  0
 59 58  1  6  0  0  0
 59 57  1  0  0  0  0
 59 55  1  0  0  0  0
 60 62  2  0  0  0  0
 62 61  1  0  0  0  0
M  END
>  <MODEL>
8

>  <REMARK>
 VINA RESULT:      -6.2      3.024     10.283
  Name = 
  15 active torsions:
  status: ('A' for Active; 'I' for Inactive)
    1  A    between atoms: C_1  and  C_30
    2  A    between atoms: C_4  and  C_53
    3  A    between atoms: C_5  and  N_10
    4  A    between atoms: C_8  and  C_41
    5  A    between atoms: C_17  and  C_30
    6  A    between atoms: O_22  and  C_45
    7  A    between atoms: O_22  and  C_60
    8  A    between atoms: N_24  and  C_41
    9  A    between atoms: C_26  and  C_39
   10  A    between atoms: C_26  and  O_44
   11  A    between atoms: C_30  and  C_34
   12  A    between atoms: C_37  and  C_51
   13  A    between atoms: C_49  and  C_61
   14  A    between atoms: C_51  and  N_52
   15  A    between atoms: C_53  and  C_61
                            x       y       z     vdW  Elec       q    Type
                         _______ _______ _______ _____ _____    ______ ____

>  <TORSDO>
F 15

$$$$
=
 OpenBabel11042416353D

 62 68  0  0  1  0  0  0  0  0999 V2000
  190.1520  171.6660  140.9760 O   0  0  0  0  0  0  0  0  0  0  0  0
  192.5180  175.7580  143.9800 C   0  0  1  0  0  3  0  0  0  0  0  0
  191.7950  170.1390  141.8610 C   0  0  2  0  0  3  0  0  0  0  0  0
  196.2800  173.6450  145.1920 C   0  0  0  0  0  0  0  0  0  0  0  0
  187.6720  172.5600  141.8160 O   0  0  0  0  0  0  0  0  0  0  0  0
  191.5420  176.4220  143.0790 C   0  0  1  0  0  3  0  0  0  0  0  0
  195.2850  172.4170  143.3690 C   0  0  0  0  0  0  0  0  0  0  0  0
  190.4450  170.8240  142.0560 C   0  0  0  0  0  2  0  0  0  0  0  0
  194.7120  174.6820  143.7520 C   0  0  0  0  0  0  0  0  0  0  0  0
  194.5830  173.5340  143.0390 N   0  0  0  0  0  0  0  0  0  0  0  0
  192.8210  171.0850  141.9070 O   0  0  0  0  0  0  0  0  0  0  0  0
  189.9620  172.8920  141.5250 N   0  0  0  0  0  2  0  0  0  0  0  0
  195.5500  174.7270  144.8200 N   0  0  0  0  0  0  0  0  0  0  0  0
  196.1670  172.4410  144.4660 C   0  0  0  0  0  0  0  0  0  0  0  0
  190.1580  175.8690  143.3360 C   0  0  0  0  0  2  0  0  0  0  0  0
  188.6570  173.3430  141.9000 C   0  0  0  0  0  0  0  0  0  0  0  0
  193.9110  175.8810  143.3910 C   0  0  0  0  0  2  0  0  0  0  0  0
  188.4750  174.7260  142.4590 C   0  0  1  0  0  3  0  0  0  0  0  0
  189.5550  175.5500  142.1190 O   0  0  0  0  0  0  0  0  0  0  0  0
  192.0130  177.0470  144.2510 O   0  0  0  0  0  0  0  0  0  0  0  0
  197.1880  173.7710  146.3700 C   0  0  0  0  0  1  0  0  0  0  0  0
  195.1100  171.1740  142.5560 C   0  0  0  0  0  2  0  0  0  0  0  0
  193.7500  170.5620  142.8160 C   0  0  0  0  0  2  0  0  0  0  0  0
  197.8570  170.7800  143.6640 C   0  0  0  0  0  1  0  0  0  0  0  0
  196.9610  171.2040  144.8110 C   0  0  2  0  0  3  0  0  0  0  0  0
  196.1200  170.1540  145.1890 O   0  0  0  0  0  0  0  0  0  0  0  0
  196.4160  169.9280  146.5340 C   0  0  0  0  0  1  0  0  0  0  0  0
  191.8300  169.3750  140.5400 C   0  0  0  0  0  2  0  0  0  0  0  0
  191.6370  170.2500  138.3590 C   0  0  0  0  0  2  0  0  0  0  0  0
  192.3410  171.0320  137.2600 C   0  0  2  0  0  0  0  0  0  0  0  0
  193.7260  169.4500  139.1550 C   0  0  0  0  0  2  0  0  0  0  0  0
  193.7750  170.6360  136.9190 C   0  0  0  0  0  2  0  0  0  0  0  0
  192.5090  170.1740  139.5320 N   0  0  0  0  0  0  0  0  0  0  0  0
  192.2130  172.4180  137.4280 O   0  0  0  0  0  0  0  0  0  0  0  0
  194.5730  170.2940  138.1880 C   0  0  1  0  0  3  0  0  0  0  0  0
  191.5860  171.8620  136.2910 C   0  0  2  0  0  3  0  0  0  0  0  0
  190.2090  171.8000  136.5170 O   0  0  0  0  0  0  0  0  0  0  0  0
  189.7000  172.9860  135.9910 C   0  0  0  0  0  2  0  0  0  0  0  0
  189.3480  173.9340  137.1160 C   0  0  0  0  0  1  0  0  0  0  0  0
  195.0910  171.5600  138.8570 C   0  0  0  0  0  2  0  0  0  0  0  0
  196.5010  174.5600  137.2740 O   0  0  0  0  0  0  0  0  0  0  0  0
  196.1160  173.7880  138.1920 C   0  0  0  0  0  0  0  0  0  0  0  0
  196.1760  174.2520  139.6050 C   0  0  0  0  0  1  0  0  0  0  0  0
  195.6130  172.4910  137.8610 N   0  0  0  0  0  2  0  0  0  0  0  0
  187.1620  175.3710  142.0130 C   0  0  0  0  0  2  0  0  0  0  0  0
  187.3860  176.4970  141.0090 C   0  0  0  0  0  2  0  0  0  0  0  0
  186.4920  177.6580  141.3000 C   0  0  0  0  0  0  0  0  0  0  0  0
  186.1890  178.0110  142.6540 N   0  0  0  0  0  2  0  0  0  0  0  0
  185.9690  178.2860  140.3450 O   0  0  0  0  0  0  0  0  0  0  0  0
  185.3290  179.1300  143.0170 C   0  0  1  0  0  3  0  0  0  0  0  0
  184.8750  179.0800  144.4440 C   0  0  2  0  0  3  0  0  0  0  0  0
  185.9430  179.8990  144.0250 O   0  0  0  0  0  0  0  0  0  0  0  0
  185.4210  177.9110  145.2790 C   0  0  1  0  0  3  0  0  0  0  0  0
  186.8020  178.2460  145.8630 C   0  0  2  0  0  3  0  0  0  0  0  0
  187.9940  176.8970  145.5590 S   0  0  0  0  0  0  0  0  0  0  0  0
  186.7080  178.4740  147.2970 N   0  0  0  0  0  2  0  0  0  0  0  0
  188.0540  178.3240  147.8210 C   0  0  0  0  0  2  0  0  0  0  0  0
  190.1480  177.1560  147.2080 C   0  0  0  0  0  1  0  0  0  0  0  0
  188.6380  177.0610  147.2380 C   0  0  2  0  0  3  0  0  0  0  0  0
  184.4410  176.4250  146.8880 O   0  0  0  0  0  1  0  0  0  0  0  0
  183.5330  178.5240  146.7940 O   0  0  0  0  0  0  0  0  0  0  0  0
  184.4440  177.5670  146.3630 C   0  0  0  0  0  0  0  0  0  0  0  0
  1 12  1  0  0  0  0
  1  8  1  0  0  0  0
  2 17  1  6  0  0  0
  2 20  1  0  0  0  0
  3 28  1  6  0  0  0
  3 11  1  0  0  0  0
  3  8  1  0  0  0  0
  4 21  1  0  0  0  0
  5 16  2  0  0  0  0
  6 15  1  1  0  0  0
  6  2  1  0  0  0  0
  6 20  1  0  0  0  0
  7 14  2  0  0  0  0
  9 13  1  0  0  0  0
 10  7  1  0  0  0  0
 10  9  2  0  0  0  0
 11 23  1  0  0  0  0
 12 16  1  0  0  0  0
 13  4  2  0  0  0  0
 14 25  1  0  0  0  0
 14  4  1  0  0  0  0
 16 18  1  0  0  0  0
 17  9  1  0  0  0  0
 18 45  1  6  0  0  0
 19 18  1  0  0  0  0
 19 15  1  0  0  0  0
 22 23  1  0  0  0  0
 22  7  1  0  0  0  0
 25 24  1  6  0  0  0
 25 26  1  0  0  0  0
 26 27  1  0  0  0  0
 29 33  1  0  0  0  0
 30 32  1  6  0  0  0
 30 34  1  0  0  0  0
 30 29  1  0  0  0  0
 31 33  1  0  0  0  0
 32 35  1  0  0  0  0
 33 28  1  0  0  0  0
 35 40  1  1  0  0  0
 35 31  1  0  0  0  0
 36 37  1  1  0  0  0
 36 30  1  0  0  0  0
 36 34  1  0  0  0  0
 38 37  1  0  0  0  0
 38 39  1  0  0  0  0
 41 42  2  0  0  0  0
 42 43  1  0  0  0  0
 44 42  1  0  0  0  0
 44 40  1  0  0  0  0
 46 47  1  0  0  0  0
 46 45  1  0  0  0  0
 47 48  1  0  0  0  0
 49 47  2  0  0  0  0
 50 48  1  1  0  0  0
 50 52  1  0  0  0  0
 50 51  1  0  0  0  0
 51 53  1  1  0  0  0
 52 51  1  0  0  0  0
 53 62  1  1  0  0  0
 54 53  1  1  0  0  0
 54 56  1  0  0  0  0
 55 54  1  0  0  0  0
 55 59  1  0  0  0  0
 56 57  1  0  0  0  0
 59 58  1  6  0  0  0
 59 57  1  0  0  0  0
 62 61  2  0  0  0  0
 62 60  1  0  0  0  0
M  END
>  <MODEL>
9

>  <REMARK>
 VINA RESULT:      -6.1      2.143      6.826
  Name = 
  15 active torsions:
  status: ('A' for Active; 'I' for Inactive)
    1  A    between atoms: C_1  and  C_30
    2  A    between atoms: C_4  and  C_53
    3  A    between atoms: C_5  and  N_10
    4  A    between atoms: C_8  and  C_41
    5  A    between atoms: C_17  and  C_30
    6  A    between atoms: O_22  and  C_45
    7  A    between atoms: O_22  and  C_60
    8  A    between atoms: N_24  and  C_41
    9  A    between atoms: C_26  and  C_39
   10  A    between atoms: C_26  and  O_44
   11  A    between atoms: C_30  and  C_34
   12  A    between atoms: C_37  and  C_51
   13  A    between atoms: C_49  and  C_61
   14  A    between atoms: C_51  and  N_52
   15  A    between atoms: C_53  and  C_61
                            x       y       z     vdW  Elec       q    Type
                         _______ _______ _______ _____ _____    ______ ____

>  <TORSDO>
F 15

$$$$
