=
 OpenBabel11042416563D

 35 40  0  0  1  0  0  0  0  0999 V2000
  184.2110  178.4270  142.3740 N   0  0  0  0  0  2  0  0  0  0  0  0
  189.8000  175.4630  145.5420 C   0  0  0  0  0  0  0  0  0  0  0  0
  186.4050  178.5750  143.6710 N   0  0  0  0  0  0  0  0  0  0  0  0
  184.3580  177.9290  144.7140 C   0  0  0  0  0  3  0  0  0  0  0  0
  185.6780  177.5350  140.3520 C   0  0  0  0  0  2  0  0  0  0  0  0
  188.5780  176.4910  142.2280 C   0  0  0  0  0  3  0  0  0  0  0  0
  185.1160  177.6440  145.9480 C   0  0  0  0  0  0  0  0  0  0  0  0
  188.7540  175.7500  146.2770 C   0  0  0  0  0  0  0  0  0  0  0  0
  188.1540  177.8230  141.6980 C   0  0  2  0  0  3  0  0  0  0  0  0
  186.4350  177.8990  146.0210 C   0  0  0  0  0  0  0  0  0  0  0  0
  189.2720  176.4560  143.3670 C   0  0  0  0  0  3  0  0  0  0  0  0
  183.7130  178.8410  140.1370 O   0  0  0  0  0  0  0  0  0  0  0  0
  184.4530  177.0480  147.0140 O   0  0  0  0  0  1  0  0  0  0  0  0
  187.0900  178.2260  142.5070 C   0  0  0  0  0  0  0  0  0  0  0  0
  184.5210  178.3230  140.9500 C   0  0  0  0  0  0  0  0  0  0  0  0
  191.1680  175.7960  146.0950 C   0  0  0  0  0  2  0  0  0  0  0  0
  187.2460  177.4480  147.1970 C   0  0  0  0  0  2  0  0  0  0  0  0
  192.4580  174.2310  141.7880 C   0  0  0  0  0  2  0  0  0  0  0  0
  186.8500  177.7900  141.1850 C   0  0  0  0  0  0  0  0  0  0  0  0
  187.7170  176.0370  147.0190 C   0  0  0  0  0  3  0  0  0  0  0  0
  190.8990  174.5440  143.5320 C   0  0  2  0  0  3  0  0  0  0  0  0
  187.1240  178.6790  144.9370 C   0  0  0  0  0  2  0  0  0  0  0  0
  193.1130  174.7900  143.0540 C   0  0  2  0  0  3  0  0  0  0  0  0
  190.9660  174.2490  142.0550 C   0  0  0  0  0  2  0  0  0  0  0  0
  184.9820  178.3350  143.6060 C   0  0  0  0  0  0  0  0  0  0  0  0
  192.3020  175.1650  145.2720 C   0  0  0  0  0  2  0  0  0  0  0  0
  189.6130  175.1760  144.0670 C   0  0  1  0  0  3  0  0  0  0  0  0
  192.0450  175.3710  143.8530 N   0  0  2  0  0  0  0  0  0  0  0  0
  194.1310  175.8620  142.6950 C   0  0  0  0  0  2  0  0  0  0  0  0
  196.8340  174.2160  144.9320 C   0  0  0  0  0  0  0  0  0  0  0  0
  197.9410  174.5510  144.4360 O   0  0  0  0  0  0  0  0  0  0  0  0
  196.5060  175.9020  142.5850 O   0  0  0  0  0  0  0  0  0  0  0  0
  195.6000  174.6580  144.3550 N   0  0  0  0  0  2  0  0  0  0  0  0
  196.8060  173.3470  146.1370 C   0  0  0  0  0  1  0  0  0  0  0  0
  195.4840  175.4930  143.1990 C   0  0  0  0  0  0  0  0  0  0  0  0
  1 25  1  0  0  0  0
  2 16  1  0  0  0  0
  2  8  2  0  0  0  0
  3 22  1  0  0  0  0
  4  7  1  0  0  0  0
  5 15  1  0  0  0  0
  5 19  1  0  0  0  0
  6 11  2  0  0  0  0
  7 10  2  0  0  0  0
  7 13  1  0  0  0  0
  8 20  2  0  0  0  0
  9  6  1  1  0  0  0
  9 14  1  0  0  0  0
 10 17  1  0  0  0  0
 12 15  2  0  0  0  0
 14  3  1  0  0  0  0
 15  1  1  0  0  0  0
 18 24  1  0  0  0  0
 18 23  1  0  0  0  0
 19  9  1  0  0  0  0
 19 14  2  0  0  0  0
 20 17  1  0  0  0  0
 21 24  1  6  0  0  0
 21 28  1  0  0  0  0
 21 27  1  0  0  0  0
 22 10  1  0  0  0  0
 23 29  1  6  0  0  0
 23 28  1  0  0  0  0
 25  3  1  0  0  0  0
 25  4  2  0  0  0  0
 26 16  1  0  0  0  0
 27 11  1  6  0  0  0
 27  2  1  0  0  0  0
 28 26  1  1  0  0  0
 29 35  1  0  0  0  0
 30 34  1  0  0  0  0
 31 30  2  0  0  0  0
 32 35  2  0  0  0  0
 33 30  1  0  0  0  0
 35 33  1  0  0  0  0
M  END
>  <MODEL>
1

>  <REMARK>
 VINA RESULT:      -9.1      0.000      0.000
  Name = 
  2 active torsions:
  status: ('A' for Active; 'I' for Inactive)
    1  A    between atoms: C_27  and  C_32
    2  A    between atoms: C_29  and  C_32
                            x       y       z     vdW  Elec       q    Type
                         _______ _______ _______ _____ _____    ______ ____

>  <TORSDO>
F 2

$$$$
=
 OpenBabel11042416563D

 35 40  0  0  1  0  0  0  0  0999 V2000
  186.5280  178.5100  145.2080 N   0  0  0  0  0  2  0  0  0  0  0  0
  190.0610  173.1080  142.3100 C   0  0  0  0  0  0  0  0  0  0  0  0
  188.6780  177.4120  144.3770 N   0  0  0  0  0  0  0  0  0  0  0  0
  187.6520  176.7870  146.4380 C   0  0  0  0  0  3  0  0  0  0  0  0
  185.7920  178.5730  142.6600 C   0  0  0  0  0  2  0  0  0  0  0  0
  188.0310  176.0390  141.4030 C   0  0  0  0  0  3  0  0  0  0  0  0
  188.6470  175.7040  146.5670 C   0  0  0  0  0  0  0  0  0  0  0  0
  189.9940  173.1720  143.6160 C   0  0  0  0  0  0  0  0  0  0  0  0
  188.2200  177.4970  141.6760 C   0  0  2  0  0  3  0  0  0  0  0  0
  189.6360  175.5670  145.6660 C   0  0  0  0  0  0  0  0  0  0  0  0
  189.0740  175.2240  141.5740 C   0  0  0  0  0  3  0  0  0  0  0  0
  185.2020  180.1890  144.2910 O   0  0  0  0  0  0  0  0  0  0  0  0
  188.5070  174.7900  147.6040 O   0  0  0  0  0  1  0  0  0  0  0  0
  188.2490  177.6170  143.0650 C   0  0  0  0  0  0  0  0  0  0  0  0
  185.8610  179.1400  144.0720 C   0  0  0  0  0  0  0  0  0  0  0  0
  191.3930  172.7570  141.6840 C   0  0  0  0  0  2  0  0  0  0  0  0
  190.5390  174.3710  145.6830 C   0  0  0  0  0  2  0  0  0  0  0  0
  188.8910  173.5820  137.7180 C   0  0  0  0  0  2  0  0  0  0  0  0
  187.1180  178.0510  142.3400 C   0  0  0  0  0  0  0  0  0  0  0  0
  189.9370  173.2300  144.9210 C   0  0  0  0  0  3  0  0  0  0  0  0
  189.0910  173.2270  140.0430 C   0  0  2  0  0  3  0  0  0  0  0  0
  189.8860  176.6330  144.6360 C   0  0  0  0  0  2  0  0  0  0  0  0
  190.3130  173.1820  138.1210 C   0  0  2  0  0  3  0  0  0  0  0  0
  188.1390  173.7900  139.0190 C   0  0  0  0  0  2  0  0  0  0  0  0
  187.6390  177.5800  145.3660 C   0  0  0  0  0  0  0  0  0  0  0  0
  191.2710  172.4460  140.1850 C   0  0  0  0  0  2  0  0  0  0  0  0
  188.9590  173.7330  141.4800 C   0  0  1  0  0  3  0  0  0  0  0  0
  190.4340  173.4520  139.5450 N   0  0  2  0  0  0  0  0  0  0  0  0
  191.3330  174.0080  137.3510 C   0  0  0  0  0  2  0  0  0  0  0  0
  192.1620  170.9780  135.0810 C   0  0  0  0  0  0  0  0  0  0  0  0
  193.2680  171.2450  134.5430 O   0  0  0  0  0  0  0  0  0  0  0  0
  193.1890  173.5610  135.9330 O   0  0  0  0  0  0  0  0  0  0  0  0
  191.5480  171.8880  136.0000 N   0  0  0  0  0  2  0  0  0  0  0  0
  191.4820  169.6970  134.7590 C   0  0  0  0  0  1  0  0  0  0  0  0
  192.0910  173.1510  136.3970 C   0  0  0  0  0  0  0  0  0  0  0  0
  1 25  1  0  0  0  0
  2  8  2  0  0  0  0
  3 22  1  0  0  0  0
  3 25  1  0  0  0  0
  4  7  1  0  0  0  0
  5 15  1  0  0  0  0
  6 11  2  0  0  0  0
  7 13  1  0  0  0  0
  8 20  2  0  0  0  0
  9  6  1  1  0  0  0
  9 19  1  0  0  0  0
  9 14  1  0  0  0  0
 10 17  1  0  0  0  0
 10  7  2  0  0  0  0
 14  3  1  0  0  0  0
 15 12  2  0  0  0  0
 15  1  1  0  0  0  0
 16  2  1  0  0  0  0
 18 23  1  0  0  0  0
 18 24  1  0  0  0  0
 19  5  1  0  0  0  0
 19 14  2  0  0  0  0
 20 17  1  0  0  0  0
 21 24  1  6  0  0  0
 21 27  1  0  0  0  0
 22 10  1  0  0  0  0
 23 29  1  6  0  0  0
 23 28  1  0  0  0  0
 25  4  2  0  0  0  0
 26 16  1  0  0  0  0
 27 11  1  6  0  0  0
 27  2  1  0  0  0  0
 28 21  1  0  0  0  0
 28 26  1  1  0  0  0
 30 33  1  0  0  0  0
 31 30  2  0  0  0  0
 32 35  2  0  0  0  0
 33 35  1  0  0  0  0
 34 30  1  0  0  0  0
 35 29  1  0  0  0  0
M  END
>  <MODEL>
2

>  <REMARK>
 VINA RESULT:      -8.7      4.102      5.652
  Name = 
  2 active torsions:
  status: ('A' for Active; 'I' for Inactive)
    1  A    between atoms: C_27  and  C_32
    2  A    between atoms: C_29  and  C_32
                            x       y       z     vdW  Elec       q    Type
                         _______ _______ _______ _____ _____    ______ ____

>  <TORSDO>
F 2

$$$$
=
 OpenBabel11042416563D

 35 40  0  0  1  0  0  0  0  0999 V2000
  186.4860  178.5100  145.1990 N   0  0  0  0  0  2  0  0  0  0  0  0
  190.1380  173.1540  142.3630 C   0  0  0  0  0  0  0  0  0  0  0  0
  188.6600  177.4520  144.3750 N   0  0  0  0  0  0  0  0  0  0  0  0
  187.6550  176.8310  146.4480 C   0  0  0  0  0  3  0  0  0  0  0  0
  185.7410  178.5210  142.6530 C   0  0  0  0  0  2  0  0  0  0  0  0
  188.0370  176.0240  141.4230 C   0  0  0  0  0  3  0  0  0  0  0  0
  188.6760  175.7740  146.5880 C   0  0  0  0  0  0  0  0  0  0  0  0
  190.0750  173.2340  143.6680 C   0  0  0  0  0  0  0  0  0  0  0  0
  188.1920  177.4890  141.6750 C   0  0  2  0  0  3  0  0  0  0  0  0
  189.6650  175.6480  145.6860 C   0  0  0  0  0  0  0  0  0  0  0  0
  189.1000  175.2360  141.6010 C   0  0  0  0  0  3  0  0  0  0  0  0
  185.1180  180.1440  144.2630 O   0  0  0  0  0  0  0  0  0  0  0  0
  188.5600  174.8710  147.6380 O   0  0  0  0  0  1  0  0  0  0  0  0
  188.2220  177.6290  143.0620 C   0  0  0  0  0  0  0  0  0  0  0  0
  185.8010  179.1080  144.0570 C   0  0  0  0  0  0  0  0  0  0  0  0
  191.4760  172.8260  141.7370 C   0  0  0  0  0  2  0  0  0  0  0  0
  190.5960  174.4750  145.7160 C   0  0  0  0  0  2  0  0  0  0  0  0
  188.9440  173.5370  137.7680 C   0  0  0  0  0  2  0  0  0  0  0  0
  187.0780  178.0260  142.3350 C   0  0  0  0  0  0  0  0  0  0  0  0
  190.0200  173.3090  144.9720 C   0  0  0  0  0  3  0  0  0  0  0  0
  189.1600  173.2200  140.0970 C   0  0  2  0  0  3  0  0  0  0  0  0
  189.8860  176.7060  144.6410 C   0  0  0  0  0  2  0  0  0  0  0  0
  190.3760  173.1780  138.1720 C   0  0  2  0  0  3  0  0  0  0  0  0
  188.1910  173.7450  139.0690 C   0  0  0  0  0  2  0  0  0  0  0  0
  187.6200  177.6090  145.3650 C   0  0  0  0  0  0  0  0  0  0  0  0
  191.3580  172.4920  140.2420 C   0  0  0  0  0  2  0  0  0  0  0  0
  189.0190  173.7420  141.5280 C   0  0  1  0  0  3  0  0  0  0  0  0
  190.4950  173.4690  139.5920 N   0  0  2  0  0  0  0  0  0  0  0  0
  191.3740  174.0170  137.3880 C   0  0  0  0  0  2  0  0  0  0  0  0
  194.6790  172.9760  135.6510 C   0  0  0  0  0  0  0  0  0  0  0  0
  194.5580  171.7500  135.3890 O   0  0  0  0  0  0  0  0  0  0  0  0
  192.1100  171.9280  136.5200 O   0  0  0  0  0  0  0  0  0  0  0  0
  193.6280  173.7020  136.2970 N   0  0  0  0  0  2  0  0  0  0  0  0
  195.9330  173.6820  135.2830 C   0  0  0  0  0  1  0  0  0  0  0  0
  192.3730  173.1460  136.7060 C   0  0  0  0  0  0  0  0  0  0  0  0
  1 25  1  0  0  0  0
  2  8  2  0  0  0  0
  3 22  1  0  0  0  0
  3 25  1  0  0  0  0
  4  7  1  0  0  0  0
  5 15  1  0  0  0  0
  6 11  2  0  0  0  0
  7 13  1  0  0  0  0
  8 20  2  0  0  0  0
  9  6  1  1  0  0  0
  9 19  1  0  0  0  0
  9 14  1  0  0  0  0
 10 17  1  0  0  0  0
 10  7  2  0  0  0  0
 14  3  1  0  0  0  0
 15 12  2  0  0  0  0
 15  1  1  0  0  0  0
 16  2  1  0  0  0  0
 18 23  1  0  0  0  0
 18 24  1  0  0  0  0
 19  5  1  0  0  0  0
 19 14  2  0  0  0  0
 20 17  1  0  0  0  0
 21 24  1  6  0  0  0
 21 27  1  0  0  0  0
 22 10  1  0  0  0  0
 23 29  1  6  0  0  0
 23 28  1  0  0  0  0
 25  4  2  0  0  0  0
 26 16  1  0  0  0  0
 27 11  1  6  0  0  0
 27  2  1  0  0  0  0
 28 21  1  0  0  0  0
 28 26  1  1  0  0  0
 30 33  1  0  0  0  0
 31 30  2  0  0  0  0
 32 35  2  0  0  0  0
 33 35  1  0  0  0  0
 34 30  1  0  0  0  0
 35 29  1  0  0  0  0
M  END
>  <MODEL>
3

>  <REMARK>
 VINA RESULT:      -8.4      3.884      5.265
  Name = 
  2 active torsions:
  status: ('A' for Active; 'I' for Inactive)
    1  A    between atoms: C_27  and  C_32
    2  A    between atoms: C_29  and  C_32
                            x       y       z     vdW  Elec       q    Type
                         _______ _______ _______ _____ _____    ______ ____

>  <TORSDO>
F 2

$$$$
=
 OpenBabel11042416563D

 35 40  0  0  1  0  0  0  0  0999 V2000
  191.9180  173.0160  142.6770 N   0  0  0  0  0  2  0  0  0  0  0  0
  187.2080  178.0160  144.3750 C   0  0  0  0  0  0  0  0  0  0  0  0
  189.7820  173.7980  143.8380 N   0  0  0  0  0  0  0  0  0  0  0  0
  191.9490  174.3020  144.7000 C   0  0  0  0  0  3  0  0  0  0  0  0
  190.6270  173.4610  140.4030 C   0  0  0  0  0  2  0  0  0  0  0  0
  188.0810  175.6810  141.6700 C   0  0  0  0  0  3  0  0  0  0  0  0
  191.3070  175.1470  145.7260 C   0  0  0  0  0  0  0  0  0  0  0  0
  188.1850  177.7780  145.2140 C   0  0  0  0  0  0  0  0  0  0  0  0
  188.1870  174.1900  141.6440 C   0  0  2  0  0  3  0  0  0  0  0  0
  189.9680  175.2240  145.8160 C   0  0  0  0  0  0  0  0  0  0  0  0
  187.4440  176.2520  142.6940 C   0  0  0  0  0  3  0  0  0  0  0  0
  192.2500  171.7680  140.7410 O   0  0  0  0  0  0  0  0  0  0  0  0
  192.1140  175.9130  146.5590 O   0  0  0  0  0  1  0  0  0  0  0  0
  189.1580  173.8680  142.5920 C   0  0  0  0  0  0  0  0  0  0  0  0
  191.5990  172.6940  141.2900 C   0  0  0  0  0  0  0  0  0  0  0  0
  185.8160  178.1960  144.9400 C   0  0  0  0  0  2  0  0  0  0  0  0
  189.3080  176.2120  146.7290 C   0  0  0  0  0  2  0  0  0  0  0  0
  184.7810  178.4370  140.2990 C   0  0  0  0  0  2  0  0  0  0  0  0
  189.4510  173.7640  141.2150 C   0  0  0  0  0  0  0  0  0  0  0  0
  189.1540  177.5440  146.0600 C   0  0  0  0  0  3  0  0  0  0  0  0
  186.2820  178.4090  142.1210 C   0  0  2  0  0  3  0  0  0  0  0  0
  189.0930  174.2890  145.0280 C   0  0  0  0  0  2  0  0  0  0  0  0
  184.0560  178.4990  141.6460 C   0  0  2  0  0  3  0  0  0  0  0  0
  186.2410  178.1900  140.6310 C   0  0  0  0  0  2  0  0  0  0  0  0
  191.2210  173.6880  143.7670 C   0  0  0  0  0  0  0  0  0  0  0  0
  184.8260  178.7370  143.8970 C   0  0  0  0  0  2  0  0  0  0  0  0
  187.4120  177.7360  142.9010 C   0  0  1  0  0  3  0  0  0  0  0  0
  184.9920  178.0100  142.6460 N   0  0  2  0  0  0  0  0  0  0  0  0
  182.8180  177.6150  141.6210 C   0  0  0  0  0  2  0  0  0  0  0  0
  179.3820  178.9350  140.4050 C   0  0  0  0  0  0  0  0  0  0  0  0
  179.0550  179.8400  141.2160 O   0  0  0  0  0  0  0  0  0  0  0  0
  181.3870  179.3130  142.4760 O   0  0  0  0  0  0  0  0  0  0  0  0
  180.6170  178.2230  140.5480 N   0  0  0  0  0  2  0  0  0  0  0  0
  178.4730  178.5990  139.2790 C   0  0  0  0  0  1  0  0  0  0  0  0
  181.5800  178.4450  141.5830 C   0  0  0  0  0  0  0  0  0  0  0  0
  1 25  1  0  0  0  0
  2 16  1  0  0  0  0
  2  8  2  0  0  0  0
  3 22  1  0  0  0  0
  4  7  1  0  0  0  0
  5 19  1  0  0  0  0
  5 15  1  0  0  0  0
  6 11  2  0  0  0  0
  7 10  2  0  0  0  0
  7 13  1  0  0  0  0
  8 20  2  0  0  0  0
  9  6  1  6  0  0  0
  9 14  1  0  0  0  0
 10 17  1  0  0  0  0
 12 15  2  0  0  0  0
 14  3  1  0  0  0  0
 15  1  1  0  0  0  0
 18 24  1  0  0  0  0
 18 23  1  0  0  0  0
 19  9  1  0  0  0  0
 19 14  2  0  0  0  0
 20 17  1  0  0  0  0
 21 24  1  6  0  0  0
 21 28  1  0  0  0  0
 21 27  1  0  0  0  0
 22 10  1  0  0  0  0
 23 29  1  6  0  0  0
 23 28  1  0  0  0  0
 25  3  1  0  0  0  0
 25  4  2  0  0  0  0
 26 16  1  0  0  0  0
 27 11  1  1  0  0  0
 27  2  1  0  0  0  0
 28 26  1  1  0  0  0
 30 33  1  0  0  0  0
 30 31  2  0  0  0  0
 33 35  1  0  0  0  0
 34 30  1  0  0  0  0
 35 29  1  0  0  0  0
 35 32  2  0  0  0  0
M  END
>  <MODEL>
4

>  <REMARK>
 VINA RESULT:      -8.4      2.775      9.499
  Name = 
  2 active torsions:
  status: ('A' for Active; 'I' for Inactive)
    1  A    between atoms: C_27  and  C_32
    2  A    between atoms: C_29  and  C_32
                            x       y       z     vdW  Elec       q    Type
                         _______ _______ _______ _____ _____    ______ ____

>  <TORSDO>
F 2

$$$$
=
 OpenBabel11042416563D

 35 40  0  0  1  0  0  0  0  0999 V2000
  195.5360  173.1570  140.0640 N   0  0  0  0  0  2  0  0  0  0  0  0
  192.8870  175.9260  146.0120 C   0  0  0  0  0  0  0  0  0  0  0  0
  194.3450  172.9440  142.3130 N   0  0  0  0  0  0  0  0  0  0  0  0
  196.7000  173.2890  142.1550 C   0  0  0  0  0  3  0  0  0  0  0  0
  193.3670  174.4460  139.2450 C   0  0  0  0  0  2  0  0  0  0  0  0
  192.0460  175.3590  142.4760 C   0  0  0  0  0  3  0  0  0  0  0  0
  196.7450  173.4220  143.6240 C   0  0  0  0  0  0  0  0  0  0  0  0
  194.1110  175.4630  146.0400 C   0  0  0  0  0  0  0  0  0  0  0  0
  191.9450  174.1030  141.6710 C   0  0  2  0  0  3  0  0  0  0  0  0
  195.6390  173.2410  144.3670 C   0  0  0  0  0  0  0  0  0  0  0  0
  192.0610  175.2570  143.8070 C   0  0  0  0  0  3  0  0  0  0  0  0
  194.7320  173.0700  137.8810 O   0  0  0  0  0  0  0  0  0  0  0  0
  197.9410  173.8010  144.2230 O   0  0  0  0  0  1  0  0  0  0  0  0
  193.2080  173.5130  141.7390 C   0  0  0  0  0  0  0  0  0  0  0  0
  194.5460  173.5030  139.0480 C   0  0  0  0  0  0  0  0  0  0  0  0
  191.9780  175.5960  147.1760 C   0  0  0  0  0  2  0  0  0  0  0  0
  195.6300  173.5510  145.8330 C   0  0  0  0  0  2  0  0  0  0  0  0
  188.8570  177.8960  144.4130 C   0  0  0  0  0  2  0  0  0  0  0  0
  192.7800  174.1360  140.5460 C   0  0  0  0  0  0  0  0  0  0  0  0
  195.3330  174.9980  146.0770 C   0  0  0  0  0  3  0  0  0  0  0  0
  191.0370  177.2160  145.0080 C   0  0  2  0  0  3  0  0  0  0  0  0
  194.3850  172.6860  143.7490 C   0  0  0  0  0  2  0  0  0  0  0  0
  188.8900  177.1860  145.7690 C   0  0  2  0  0  3  0  0  0  0  0  0
  190.2510  177.7430  143.8350 C   0  0  0  0  0  2  0  0  0  0  0  0
  195.5420  173.1020  141.5210 C   0  0  0  0  0  0  0  0  0  0  0  0
  190.6800  176.4170  147.1560 C   0  0  0  0  0  2  0  0  0  0  0  0
  192.3130  176.4300  144.7040 C   0  0  1  0  0  3  0  0  0  0  0  0
  190.1270  176.4220  145.8090 N   0  0  2  0  0  0  0  0  0  0  0  0
  187.7000  176.2490  145.9060 C   0  0  0  0  0  2  0  0  0  0  0  0
  184.5040  178.3640  145.3270 C   0  0  0  0  0  0  0  0  0  0  0  0
  183.9990  178.5430  146.4660 O   0  0  0  0  0  0  0  0  0  0  0  0
  186.0750  177.0980  147.4210 O   0  0  0  0  0  0  0  0  0  0  0  0
  185.7150  177.6190  145.1620 N   0  0  0  0  0  2  0  0  0  0  0  0
  183.8320  178.9360  144.1320 C   0  0  0  0  0  1  0  0  0  0  0  0
  186.4610  177.0140  146.2240 C   0  0  0  0  0  0  0  0  0  0  0  0
  1 25  1  0  0  0  0
  2  8  2  0  0  0  0
  2 16  1  0  0  0  0
  3 22  1  0  0  0  0
  4  7  1  0  0  0  0
  5 19  1  0  0  0  0
  6 11  2  0  0  0  0
  7 13  1  0  0  0  0
  7 10  2  0  0  0  0
  8 20  2  0  0  0  0
  9 14  1  0  0  0  0
  9  6  1  1  0  0  0
 10 17  1  0  0  0  0
 12 15  2  0  0  0  0
 14  3  1  0  0  0  0
 15  5  1  0  0  0  0
 15  1  1  0  0  0  0
 17 20  1  0  0  0  0
 18 23  1  0  0  0  0
 19  9  1  0  0  0  0
 19 14  2  0  0  0  0
 21 24  1  6  0  0  0
 21 28  1  0  0  0  0
 22 10  1  0  0  0  0
 23 28  1  0  0  0  0
 23 29  1  6  0  0  0
 24 18  1  0  0  0  0
 25  4  2  0  0  0  0
 25  3  1  0  0  0  0
 26 16  1  0  0  0  0
 27 11  1  6  0  0  0
 27 21  1  0  0  0  0
 27  2  1  0  0  0  0
 28 26  1  1  0  0  0
 29 35  1  0  0  0  0
 30 31  2  0  0  0  0
 33 30  1  0  0  0  0
 33 35  1  0  0  0  0
 34 30  1  0  0  0  0
 35 32  2  0  0  0  0
M  END
>  <MODEL>
5

>  <REMARK>
 VINA RESULT:      -8.3      2.389      9.154
  Name = 
  2 active torsions:
  status: ('A' for Active; 'I' for Inactive)
    1  A    between atoms: C_27  and  C_32
    2  A    between atoms: C_29  and  C_32
                            x       y       z     vdW  Elec       q    Type
                         _______ _______ _______ _____ _____    ______ ____

>  <TORSDO>
F 2

$$$$
=
 OpenBabel11042416563D

 35 40  0  0  1  0  0  0  0  0999 V2000
  194.6010  172.8440  141.9280 N   0  0  0  0  0  2  0  0  0  0  0  0
  190.1350  177.1700  145.3050 C   0  0  0  0  0  0  0  0  0  0  0  0
  192.6440  173.2720  143.5110 N   0  0  0  0  0  0  0  0  0  0  0  0
  194.9070  173.6620  144.1600 C   0  0  0  0  0  3  0  0  0  0  0  0
  192.9980  173.7170  140.0030 C   0  0  0  0  0  2  0  0  0  0  0  0
  190.6370  175.5100  142.0600 C   0  0  0  0  0  3  0  0  0  0  0  0
  194.4090  174.2400  145.4230 C   0  0  0  0  0  0  0  0  0  0  0  0
  191.2230  176.7950  145.9310 C   0  0  0  0  0  0  0  0  0  0  0  0
  190.7520  174.0660  141.6940 C   0  0  2  0  0  3  0  0  0  0  0  0
  193.0950  174.2430  145.7100 C   0  0  0  0  0  0  0  0  0  0  0  0
  190.1460  175.8210  143.2620 C   0  0  0  0  0  3  0  0  0  0  0  0
  194.6670  172.0560  139.7380 O   0  0  0  0  0  0  0  0  0  0  0  0
  195.3190  174.8390  146.2860 O   0  0  0  0  0  1  0  0  0  0  0  0
  191.8500  173.5850  142.4080 C   0  0  0  0  0  0  0  0  0  0  0  0
  194.0920  172.8160  140.5600 C   0  0  0  0  0  0  0  0  0  0  0  0
  188.8350  177.1690  146.0790 C   0  0  0  0  0  2  0  0  0  0  0  0
  192.5620  174.9850  146.8980 C   0  0  0  0  0  2  0  0  0  0  0  0
  187.1530  178.3650  141.7890 C   0  0  0  0  0  2  0  0  0  0  0  0
  191.9460  173.7920  141.0140 C   0  0  0  0  0  0  0  0  0  0  0  0
  192.3040  176.4220  146.5640 C   0  0  0  0  0  3  0  0  0  0  0  0
  188.8970  178.0030  143.3390 C   0  0  2  0  0  3  0  0  0  0  0  0
  192.1260  173.4670  144.8620 C   0  0  0  0  0  2  0  0  0  0  0  0
  186.6250  178.1060  143.2020 C   0  0  2  0  0  3  0  0  0  0  0  0
  188.6470  178.1090  141.8560 C   0  0  0  0  0  2  0  0  0  0  0  0
  194.0590  173.2360  143.2220 C   0  0  0  0  0  0  0  0  0  0  0  0
  187.7040  177.8830  145.3250 C   0  0  0  0  0  2  0  0  0  0  0  0
  190.1310  177.2230  143.7910 C   0  0  1  0  0  3  0  0  0  0  0  0
  187.6970  177.4500  143.9340 N   0  0  2  0  0  0  0  0  0  0  0  0
  185.4030  177.2010  143.1530 C   0  0  0  0  0  2  0  0  0  0  0  0
  182.0350  178.6170  141.8600 C   0  0  0  0  0  0  0  0  0  0  0  0
  181.6250  179.4000  142.7570 O   0  0  0  0  0  0  0  0  0  0  0  0
  183.8690  178.7440  144.1130 O   0  0  0  0  0  0  0  0  0  0  0  0
  183.2740  177.9130  142.0020 N   0  0  0  0  0  2  0  0  0  0  0  0
  181.2220  178.4220  140.6320 C   0  0  0  0  0  1  0  0  0  0  0  0
  184.1510  178.0080  143.1300 C   0  0  0  0  0  0  0  0  0  0  0  0
  1 25  1  0  0  0  0
  2  8  2  0  0  0  0
  2 16  1  0  0  0  0
  3 22  1  0  0  0  0
  4  7  1  0  0  0  0
  5 15  1  0  0  0  0
  5 19  1  0  0  0  0
  6 11  2  0  0  0  0
  7 10  2  0  0  0  0
  7 13  1  0  0  0  0
  8 20  2  0  0  0  0
  9  6  1  1  0  0  0
  9 14  1  0  0  0  0
 10 17  1  0  0  0  0
 12 15  2  0  0  0  0
 14  3  1  0  0  0  0
 15  1  1  0  0  0  0
 18 24  1  0  0  0  0
 18 23  1  0  0  0  0
 19  9  1  0  0  0  0
 19 14  2  0  0  0  0
 20 17  1  0  0  0  0
 21 24  1  6  0  0  0
 21 27  1  0  0  0  0
 21 28  1  0  0  0  0
 22 10  1  0  0  0  0
 23 29  1  6  0  0  0
 23 28  1  0  0  0  0
 25  3  1  0  0  0  0
 25  4  2  0  0  0  0
 26 16  1  0  0  0  0
 27 11  1  6  0  0  0
 27  2  1  0  0  0  0
 28 26  1  1  0  0  0
 30 33  1  0  0  0  0
 30 31  2  0  0  0  0
 33 35  1  0  0  0  0
 34 30  1  0  0  0  0
 35 29  1  0  0  0  0
 35 32  2  0  0  0  0
M  END
>  <MODEL>
6

>  <REMARK>
 VINA RESULT:      -8.2      2.076      9.105
  Name = 
  2 active torsions:
  status: ('A' for Active; 'I' for Inactive)
    1  A    between atoms: C_27  and  C_32
    2  A    between atoms: C_29  and  C_32
                            x       y       z     vdW  Elec       q    Type
                         _______ _______ _______ _____ _____    ______ ____

>  <TORSDO>
F 2

$$$$
=
 OpenBabel11042416563D

 35 40  0  0  1  0  0  0  0  0999 V2000
  184.6220  178.2250  143.9410 N   0  0  0  0  0  2  0  0  0  0  0  0
  190.4920  174.3160  144.5120 C   0  0  0  0  0  0  0  0  0  0  0  0
  187.1320  177.9750  144.3380 N   0  0  0  0  0  0  0  0  0  0  0  0
  185.5220  177.3920  146.0010 C   0  0  0  0  0  3  0  0  0  0  0  0
  185.1290  177.4860  141.4440 C   0  0  0  0  0  2  0  0  0  0  0  0
  188.3270  175.9120  142.0010 C   0  0  0  0  0  3  0  0  0  0  0  0
  186.6220  176.8650  146.8320 C   0  0  0  0  0  0  0  0  0  0  0  0
  189.8300  174.5970  145.6050 C   0  0  0  0  0  0  0  0  0  0  0  0
  187.9360  177.3400  141.7960 C   0  0  2  0  0  3  0  0  0  0  0  0
  187.9020  176.9770  146.4340 C   0  0  0  0  0  0  0  0  0  0  0  0
  189.3700  175.6500  142.7930 C   0  0  0  0  0  3  0  0  0  0  0  0
  183.4230  178.9950  142.1000 O   0  0  0  0  0  0  0  0  0  0  0  0
  186.3050  176.1920  148.0070 O   0  0  0  0  0  1  0  0  0  0  0  0
  187.3000  177.7270  142.9760 C   0  0  0  0  0  0  0  0  0  0  0  0
  184.3850  178.2910  142.5020 C   0  0  0  0  0  0  0  0  0  0  0  0
  192.0000  174.4330  144.5460 C   0  0  0  0  0  2  0  0  0  0  0  0
  189.0060  176.2890  147.1760 C   0  0  0  0  0  2  0  0  0  0  0  0
  191.4320  173.3690  139.9400 C   0  0  0  0  0  2  0  0  0  0  0  0
  186.5440  177.5070  141.8030 C   0  0  0  0  0  0  0  0  0  0  0  0
  189.1770  174.8780  146.7030 C   0  0  0  0  0  3  0  0  0  0  0  0
  190.6590  173.5850  142.1600 C   0  0  2  0  0  3  0  0  0  0  0  0
  188.2630  177.8300  145.2510 C   0  0  0  0  0  2  0  0  0  0  0  0
  192.5670  173.6780  140.9190 C   0  0  2  0  0  3  0  0  0  0  0  0
  190.1520  173.4950  140.7430 C   0  0  0  0  0  2  0  0  0  0  0  0
  185.7610  177.8860  144.7850 C   0  0  0  0  0  0  0  0  0  0  0  0
  192.6630  173.8160  143.3050 C   0  0  0  0  0  2  0  0  0  0  0  0
  189.7520  174.2570  143.1910 C   0  0  1  0  0  3  0  0  0  0  0  0
  191.9500  174.2430  142.1090 N   0  0  2  0  0  0  0  0  0  0  0  0
  193.5310  174.6860  140.3110 C   0  0  0  0  0  2  0  0  0  0  0  0
  196.7080  175.5860  142.3420 C   0  0  0  0  0  0  0  0  0  0  0  0
  197.4730  174.5910  142.2400 O   0  0  0  0  0  0  0  0  0  0  0  0
  195.5360  173.4740  140.7220 O   0  0  0  0  0  0  0  0  0  0  0  0
  195.4280  175.6030  141.7000 N   0  0  0  0  0  2  0  0  0  0  0  0
  197.1400  176.7620  143.1390 C   0  0  0  0  0  1  0  0  0  0  0  0
  194.8900  174.5400  140.9060 C   0  0  0  0  0  0  0  0  0  0  0  0
  1 25  1  0  0  0  0
  2 16  1  0  0  0  0
  2  8  2  0  0  0  0
  3 25  1  0  0  0  0
  3 22  1  0  0  0  0
  4  7  1  0  0  0  0
  5 19  1  0  0  0  0
  5 15  1  0  0  0  0
  6 11  2  0  0  0  0
  7 13  1  0  0  0  0
  8 20  2  0  0  0  0
  9 19  1  0  0  0  0
  9  6  1  1  0  0  0
  9 14  1  0  0  0  0
 10  7  2  0  0  0  0
 10 17  1  0  0  0  0
 12 15  2  0  0  0  0
 14  3  1  0  0  0  0
 15  1  1  0  0  0  0
 18 24  1  0  0  0  0
 18 23  1  0  0  0  0
 19 14  2  0  0  0  0
 20 17  1  0  0  0  0
 21 24  1  6  0  0  0
 21 27  1  0  0  0  0
 22 10  1  0  0  0  0
 23 29  1  6  0  0  0
 23 28  1  0  0  0  0
 25  4  2  0  0  0  0
 26 16  1  0  0  0  0
 27 11  1  6  0  0  0
 27  2  1  0  0  0  0
 28 21  1  0  0  0  0
 28 26  1  1  0  0  0
 29 35  1  0  0  0  0
 30 34  1  0  0  0  0
 31 30  2  0  0  0  0
 32 35  2  0  0  0  0
 33 30  1  0  0  0  0
 35 33  1  0  0  0  0
M  END
>  <MODEL>
7

>  <REMARK>
 VINA RESULT:      -8.1      1.655      2.060
  Name = 
  2 active torsions:
  status: ('A' for Active; 'I' for Inactive)
    1  A    between atoms: C_27  and  C_32
    2  A    between atoms: C_29  and  C_32
                            x       y       z     vdW  Elec       q    Type
                         _______ _______ _______ _____ _____    ______ ____

>  <TORSDO>
F 2

$$$$
=
 OpenBabel11042416563D

 35 40  0  0  1  0  0  0  0  0999 V2000
  190.5770  171.7070  138.6570 N   0  0  0  0  0  2  0  0  0  0  0  0
  190.5370  174.5370  145.1420 C   0  0  0  0  0  0  0  0  0  0  0  0
  189.8630  171.7110  141.1080 N   0  0  0  0  0  0  0  0  0  0  0  0
  192.0660  171.0940  140.4320 C   0  0  0  0  0  3  0  0  0  0  0  0
  189.0400  173.8530  138.3960 C   0  0  0  0  0  2  0  0  0  0  0  0
  188.8730  174.8070  141.8710 C   0  0  0  0  0  3  0  0  0  0  0  0
  192.4440  171.0120  141.8560 C   0  0  0  0  0  0  0  0  0  0  0  0
  191.4320  173.6200  144.8750 C   0  0  0  0  0  0  0  0  0  0  0  0
  188.1010  173.8100  141.0680 C   0  0  2  0  0  3  0  0  0  0  0  0
  191.5300  171.2010  142.8240 C   0  0  0  0  0  0  0  0  0  0  0  0
  189.0990  174.5410  143.1600 C   0  0  0  0  0  3  0  0  0  0  0  0
  189.4090  172.2270  136.7120 O   0  0  0  0  0  0  0  0  0  0  0  0
  193.7790  170.7980  142.1810 O   0  0  0  0  0  1  0  0  0  0  0  0
  188.9850  172.7580  140.8280 C   0  0  0  0  0  0  0  0  0  0  0  0
  189.6510  172.5480  137.9040 C   0  0  0  0  0  0  0  0  0  0  0  0
  189.8150  174.4580  146.4700 C   0  0  0  0  0  2  0  0  0  0  0  0
  191.9340  171.3000  144.2630 C   0  0  0  0  0  2  0  0  0  0  0  0
  187.4860  178.1490  144.5670 C   0  0  0  0  0  2  0  0  0  0  0  0
  188.6390  173.6450  139.7850 C   0  0  0  0  0  0  0  0  0  0  0  0
  192.3270  172.7020  144.6180 C   0  0  0  0  0  3  0  0  0  0  0  0
  189.2480  176.5790  144.6280 C   0  0  2  0  0  3  0  0  0  0  0  0
  190.0660  171.2800  142.4890 C   0  0  0  0  0  2  0  0  0  0  0  0
  187.4780  177.3220  145.8550 C   0  0  2  0  0  3  0  0  0  0  0  0
  188.5470  177.5210  143.6830 C   0  0  0  0  0  2  0  0  0  0  0  0
  190.8390  171.4720  140.0710 C   0  0  0  0  0  0  0  0  0  0  0  0
  189.0070  175.7280  146.7730 C   0  0  0  0  0  2  0  0  0  0  0  0
  189.9890  175.3900  144.0160 C   0  0  1  0  0  3  0  0  0  0  0  0
  188.2600  176.1250  145.5870 N   0  0  2  0  0  0  0  0  0  0  0  0
  186.0540  176.9350  146.2260 C   0  0  0  0  0  2  0  0  0  0  0  0
  184.0660  178.2910  143.1870 C   0  0  0  0  0  0  0  0  0  0  0  0
  183.2580  179.1350  143.6550 O   0  0  0  0  0  0  0  0  0  0  0  0
  184.3170  178.5530  146.0720 O   0  0  0  0  0  0  0  0  0  0  0  0
  184.9760  177.5870  144.0390 N   0  0  0  0  0  2  0  0  0  0  0  0
  184.0780  178.0200  141.7260 C   0  0  0  0  0  1  0  0  0  0  0  0
  185.0700  177.7490  145.4590 C   0  0  0  0  0  0  0  0  0  0  0  0
  1 25  1  0  0  0  0
  2 16  1  0  0  0  0
  3 22  1  0  0  0  0
  4  7  1  0  0  0  0
  5 19  1  0  0  0  0
  6 11  2  0  0  0  0
  7 13  1  0  0  0  0
  7 10  2  0  0  0  0
  8  2  2  0  0  0  0
  9  6  1  1  0  0  0
 10 17  1  0  0  0  0
 12 15  2  0  0  0  0
 14  9  1  0  0  0  0
 14  3  1  0  0  0  0
 15  5  1  0  0  0  0
 15  1  1  0  0  0  0
 16 26  1  0  0  0  0
 17 20  1  0  0  0  0
 18 23  1  0  0  0  0
 19 14  2  0  0  0  0
 19  9  1  0  0  0  0
 20  8  2  0  0  0  0
 21 24  1  6  0  0  0
 21 28  1  0  0  0  0
 22 10  1  0  0  0  0
 23 29  1  6  0  0  0
 24 18  1  0  0  0  0
 25  4  2  0  0  0  0
 25  3  1  0  0  0  0
 27 11  1  1  0  0  0
 27 21  1  0  0  0  0
 27  2  1  0  0  0  0
 28 23  1  0  0  0  0
 28 26  1  1  0  0  0
 30 31  2  0  0  0  0
 30 33  1  0  0  0  0
 33 35  1  0  0  0  0
 34 30  1  0  0  0  0
 35 32  2  0  0  0  0
 35 29  1  0  0  0  0
M  END
>  <MODEL>
8

>  <REMARK>
 VINA RESULT:      -8.1      3.299      8.372
  Name = 
  2 active torsions:
  status: ('A' for Active; 'I' for Inactive)
    1  A    between atoms: C_27  and  C_32
    2  A    between atoms: C_29  and  C_32
                            x       y       z     vdW  Elec       q    Type
                         _______ _______ _______ _____ _____    ______ ____

>  <TORSDO>
F 2

$$$$
=
 OpenBabel11042416563D

 35 40  0  0  1  0  0  0  0  0999 V2000
  196.6280  173.7160  143.4320 N   0  0  0  0  0  2  0  0  0  0  0  0
  189.6930  174.3530  142.1820 C   0  0  0  0  0  0  0  0  0  0  0  0
  194.6270  174.9150  142.3930 N   0  0  0  0  0  0  0  0  0  0  0  0
  195.5020  172.8900  141.4830 C   0  0  0  0  0  3  0  0  0  0  0  0
  195.6350  174.4760  145.7720 C   0  0  0  0  0  2  0  0  0  0  0  0
  192.2430  175.1140  144.7210 C   0  0  0  0  0  3  0  0  0  0  0  0
  194.3760  172.8720  140.5290 C   0  0  0  0  0  0  0  0  0  0  0  0
  190.4240  173.7230  141.2970 C   0  0  0  0  0  0  0  0  0  0  0  0
  193.4840  175.9460  144.6610 C   0  0  2  0  0  3  0  0  0  0  0  0
  193.4890  173.8810  140.4910 C   0  0  0  0  0  0  0  0  0  0  0  0
  191.3360  175.2610  143.7530 C   0  0  0  0  0  3  0  0  0  0  0  0
  197.9410  174.2320  145.2830 O   0  0  0  0  0  0  0  0  0  0  0  0
  194.2140  171.7590  139.7120 O   0  0  0  0  0  1  0  0  0  0  0  0
  194.2710  175.3720  143.6620 C   0  0  0  0  0  0  0  0  0  0  0  0
  196.7770  174.1740  144.8100 C   0  0  0  0  0  0  0  0  0  0  0  0
  188.6600  175.3380  141.6770 C   0  0  0  0  0  2  0  0  0  0  0  0
  192.2460  173.7890  139.6590 C   0  0  0  0  0  2  0  0  0  0  0  0
  188.1400  176.0340  146.3580 C   0  0  0  0  0  2  0  0  0  0  0  0
  194.6220  175.2130  145.0210 C   0  0  0  0  0  0  0  0  0  0  0  0
  191.1470  173.0970  140.4050 C   0  0  0  0  0  3  0  0  0  0  0  0
  188.9630  174.8560  144.4850 C   0  0  2  0  0  3  0  0  0  0  0  0
  193.7400  175.1500  141.2570 C   0  0  0  0  0  2  0  0  0  0  0  0
  187.5590  176.5600  145.0440 C   0  0  2  0  0  3  0  0  0  0  0  0
  189.2080  175.0320  145.9620 C   0  0  0  0  0  2  0  0  0  0  0  0
  195.6000  173.8480  142.4070 C   0  0  0  0  0  0  0  0  0  0  0  0
  187.6960  175.7930  142.7830 C   0  0  0  0  0  2  0  0  0  0  0  0
  190.1350  174.3730  143.6300 C   0  0  1  0  0  3  0  0  0  0  0  0
  188.4520  176.1170  143.9850 N   0  0  2  0  0  0  0  0  0  0  0  0
  187.4970  178.0810  145.0630 C   0  0  0  0  0  2  0  0  0  0  0  0
  184.1110  178.6520  143.2650 C   0  0  0  0  0  0  0  0  0  0  0  0
  183.3920  179.2870  144.0800 O   0  0  0  0  0  0  0  0  0  0  0  0
  185.5040  179.1730  145.7640 O   0  0  0  0  0  0  0  0  0  0  0  0
  185.4510  178.2720  143.5990 N   0  0  0  0  0  2  0  0  0  0  0  0
  183.5620  178.2910  141.9320 C   0  0  0  0  0  1  0  0  0  0  0  0
  186.1010  178.5530  144.8430 C   0  0  0  0  0  0  0  0  0  0  0  0
  1 15  1  0  0  0  0
  2 27  1  0  0  0  0
  3 25  1  0  0  0  0
  3 14  1  0  0  0  0
  4 25  2  0  0  0  0
  7  4  1  0  0  0  0
  8  2  2  0  0  0  0
  9  6  1  1  0  0  0
  9 19  1  0  0  0  0
 10  7  2  0  0  0  0
 10 22  1  0  0  0  0
 11  6  2  0  0  0  0
 13  7  1  0  0  0  0
 14  9  1  0  0  0  0
 14 19  2  0  0  0  0
 15 12  2  0  0  0  0
 15  5  1  0  0  0  0
 16  2  1  0  0  0  0
 16 26  1  0  0  0  0
 17 20  1  0  0  0  0
 17 10  1  0  0  0  0
 19  5  1  0  0  0  0
 20  8  2  0  0  0  0
 21 24  1  1  0  0  0
 22  3  1  0  0  0  0
 23 29  1  1  0  0  0
 23 18  1  0  0  0  0
 24 18  1  0  0  0  0
 25  1  1  0  0  0  0
 27 11  1  6  0  0  0
 27 21  1  0  0  0  0
 28 26  1  6  0  0  0
 28 21  1  0  0  0  0
 28 23  1  0  0  0  0
 30 33  1  0  0  0  0
 30 31  2  0  0  0  0
 33 35  1  0  0  0  0
 34 30  1  0  0  0  0
 35 29  1  0  0  0  0
 35 32  2  0  0  0  0
M  END
>  <MODEL>
9

>  <REMARK>
 VINA RESULT:      -7.9      1.961      9.625
  Name = 
  2 active torsions:
  status: ('A' for Active; 'I' for Inactive)
    1  A    between atoms: C_27  and  C_32
    2  A    between atoms: C_29  and  C_32
                            x       y       z     vdW  Elec       q    Type
                         _______ _______ _______ _____ _____    ______ ____

>  <TORSDO>
F 2

$$$$
