=
 OpenBabel11042418153D

 53 58  0  0  1  0  0  0  0  0999 V2000
  191.5150  175.8500  144.8410 C   0  0  1  0  0  3  0  0  0  0  0  0
  193.5020  171.0630  141.5120 C   0  0  0  0  0  2  0  0  0  0  0  0
  192.7110  175.2570  145.5720 C   0  0  0  0  0  0  0  0  0  0  0  0
  195.1500  174.3560  142.6990 C   0  0  2  0  0  3  0  0  0  0  0  0
  191.2870  175.3370  143.5400 O   0  0  0  0  0  0  0  0  0  0  0  0
  192.7170  175.2470  146.8340 O   0  0  0  0  0  0  0  0  0  0  0  0
  193.6720  172.5630  141.6790 C   0  0  0  0  0  2  0  0  0  0  0  0
  194.9270  172.8560  142.4860 C   0  0  0  0  0  2  0  0  0  0  0  0
  189.7990  173.6250  142.7680 C   0  0  0  0  0  2  0  0  0  0  0  0
  194.7800  174.1170  145.5030 O   0  0  0  0  0  0  0  0  0  0  0  0
  191.1040  170.3050  141.3030 C   0  0  0  0  0  2  0  0  0  0  0  0
  192.3450  170.7920  140.5550 C   0  0  2  0  0  3  0  0  0  0  0  0
  191.0000  173.9650  143.6330 C   0  0  0  0  0  2  0  0  0  0  0  0
  190.6020  171.2990  142.3420 C   0  0  0  0  0  2  0  0  0  0  0  0
  194.0550  174.9520  143.4540 N   0  0  0  0  0  2  0  0  0  0  0  0
  193.8950  174.7430  144.8580 C   0  0  0  0  0  0  0  0  0  0  0  0
  190.1830  172.6120  141.7000 C   0  0  0  0  0  2  0  0  0  0  0  0
  188.1460  177.0720  146.1620 C   0  0  0  0  0  0  0  0  0  0  0  0
  189.8960  174.9260  146.5560 C   0  0  0  0  0  3  0  0  0  0  0  0
  188.6920  174.9810  147.2600 C   0  0  0  0  0  3  0  0  0  0  0  0
  189.6620  177.9880  144.5500 F   0  0  0  0  0  0  0  0  0  0  0  0
  187.8170  176.0500  147.0610 C   0  0  0  0  0  3  0  0  0  0  0  0
  190.2440  175.9470  145.6550 C   0  0  0  0  0  0  0  0  0  0  0  0
  189.3580  177.0180  145.4520 C   0  0  0  0  0  0  0  0  0  0  0  0
  187.1680  178.1700  145.9230 C   0  0  0  0  0  2  0  0  0  0  0  0
  185.8190  177.6250  145.9050 N   0  0  0  0  0  2  0  0  0  0  0  0
  183.5490  178.9780  145.6880 O   0  0  0  0  0  0  0  0  0  0  0  0
  185.5750  179.9740  144.7310 O   0  0  0  0  0  0  0  0  0  0  0  0
  184.8330  178.6870  144.9580 S   0  0  0  0  0  0  0  0  0  0  0  0
  184.4710  177.9280  143.3850 C   0  0  0  0  0  2  0  0  0  0  0  0
  187.5030  176.2220  142.0930 C   0  0  0  0  0  2  0  0  0  0  0  0
  185.3150  177.9190  141.2050 C   0  0  0  0  0  2  0  0  0  0  0  0
  185.6920  177.7830  142.6120 N   0  0  0  0  0  0  0  0  0  0  0  0
  186.4880  177.6280  140.3040 C   0  0  0  0  0  3  0  0  0  0  0  0
  187.4750  176.8100  140.7040 C   0  0  0  0  0  3  0  0  0  0  0  0
  186.1660  176.4140  142.8130 C   0  0  0  0  0  2  0  0  0  0  0  0
  196.5050  176.8140  142.6470 O   0  0  0  0  0  1  0  0  0  0  0  0
  194.6140  176.4070  141.2600 C   0  0  0  0  0  2  0  0  0  0  0  0
  195.3740  175.1090  141.3850 C   0  0  1  0  0  0  0  0  0  0  0  0
  196.1360  176.4230  141.3610 C   0  0  2  0  0  3  0  0  0  0  0  0
  195.3980  174.3840  140.1930 O   0  0  0  0  0  1  0  0  0  0  0  0
  192.7350  169.7310  139.5400 C   0  0  0  0  0  2  0  0  0  0  0  0
  190.2620  171.5530  135.4840 C   0  0  0  0  0  0  0  0  0  0  0  0
  192.6350  171.6430  138.0940 O   0  0  0  0  0  0  0  0  0  0  0  0
  189.5330  171.6700  134.5130 O   0  0  0  0  0  0  0  0  0  0  0  0
  190.6510  170.2790  137.5880 C   0  0  0  0  0  2  0  0  0  0  0  0
  192.4940  170.7610  135.9290 O   0  0  0  0  0  0  0  0  0  0  0  0
  191.7410  171.8130  135.3650 C   0  0  0  0  0  2  0  0  0  0  0  0
  189.6960  171.2130  136.8320 C   0  0  1  0  0  3  0  0  0  0  0  0
  192.1180  170.6190  137.2820 C   0  0  1  0  0  0  0  0  0  0  0  0
  193.2220  170.3650  138.2430 C   0  0  2  0  0  3  0  0  0  0  0  0
  189.4550  172.4700  137.6110 C   0  0  0  0  0  3  0  0  0  0  0  0
  188.4410  172.6070  138.2750 O   0  0  0  0  0  0  0  0  0  0  0  0
  1  3  1  0  0  0  0
  1 23  1  1  0  0  0
  2  7  1  0  0  0  0
  3  6  2  0  0  0  0
  4  8  1  6  0  0  0
  4 15  1  0  0  0  0
  5 13  1  0  0  0  0
  5  1  1  0  0  0  0
  7  8  1  0  0  0  0
  9 13  1  0  0  0  0
 11 14  1  0  0  0  0
 12 42  1  6  0  0  0
 12 11  1  0  0  0  0
 12  2  1  0  0  0  0
 15 16  1  0  0  0  0
 16 10  2  0  0  0  0
 16  3  1  0  0  0  0
 17 14  1  0  0  0  0
 17  9  1  0  0  0  0
 18 22  1  0  0  0  0
 19 20  1  0  0  0  0
 21 24  1  0  0  0  0
 22 20  2  0  0  0  0
 23 19  2  0  0  0  0
 24 23  1  0  0  0  0
 24 18  2  0  0  0  0
 25 18  1  0  0  0  0
 26 25  1  0  0  0  0
 28 29  2  0  0  0  0
 29 27  2  0  0  0  0
 29 26  1  0  0  0  0
 30 29  1  0  0  0  0
 31 36  1  0  0  0  0
 32 33  1  0  0  0  0
 33 36  1  0  0  0  0
 33 30  1  0  0  0  0
 34 35  2  0  0  0  0
 34 32  1  0  0  0  0
 35 31  1  0  0  0  0
 38 40  1  0  0  0  0
 38 39  1  0  0  0  0
 39 41  1  6  0  0  0
 39  4  1  0  0  0  0
 40 39  1  0  0  0  0
 40 37  1  1  0  0  0
 43 49  1  0  0  0  0
 44 51  1  0  0  0  0
 45 43  2  0  0  0  0
 47 50  1  0  0  0  0
 48 43  1  0  0  0  0
 48 47  1  0  0  0  0
 49 46  1  0  0  0  0
 49 52  1  1  0  0  0
 50 46  1  1  0  0  0
 50 44  1  0  0  0  0
 50 51  1  0  0  0  0
 51 42  1  1  0  0  0
 52 53  2  0  0  0  0
M  END
>  <MODEL>
1

>  <REMARK>
 VINA RESULT:      -8.5      0.000      0.000
  Name = 
  10 active torsions:
  status: ('A' for Active; 'I' for Inactive)
    1  A    between atoms: C_2  and  C_51
    2  A    between atoms: C_3  and  C_52
    3  A    between atoms: C_11  and  C_28
    4  A    between atoms: C_15  and  C_39
    5  A    between atoms: N_27  and  C_42
    6  A    between atoms: N_31  and  S_40
    7  A    between atoms: N_31  and  C_51
    8  A    between atoms: C_33  and  C_46
    9  A    between atoms: C_35  and  C_46
   10  A    between atoms: S_40  and  C_42
                            x       y       z     vdW  Elec       q    Type
                         _______ _______ _______ _____ _____    ______ ____

>  <TORSDO>
F 10

$$$$
=
 OpenBabel11042418153D

 53 58  0  0  1  0  0  0  0  0999 V2000
  188.1410  174.9480  141.8070 C   0  0  1  0  0  3  0  0  0  0  0  0
  194.1980  173.8820  141.4500 C   0  0  0  0  0  2  0  0  0  0  0  0
  188.4570  174.6220  140.3550 C   0  0  0  0  0  0  0  0  0  0  0  0
  191.0620  171.7670  140.6340 C   0  0  2  0  0  3  0  0  0  0  0  0
  189.2020  174.7290  142.7200 O   0  0  0  0  0  0  0  0  0  0  0  0
  187.8240  175.2160  139.4390 O   0  0  0  0  0  0  0  0  0  0  0  0
  192.8690  173.1910  141.7050 C   0  0  0  0  0  2  0  0  0  0  0  0
  192.4060  172.4780  140.4440 C   0  0  0  0  0  2  0  0  0  0  0  0
  190.8120  176.2440  143.6450 C   0  0  0  0  0  2  0  0  0  0  0  0
  189.7790  173.4760  138.7660 O   0  0  0  0  0  0  0  0  0  0  0  0
  194.5720  175.9590  142.8340 C   0  0  0  0  0  2  0  0  0  0  0  0
  194.7330  174.4410  142.7650 C   0  0  2  0  0  3  0  0  0  0  0  0
  190.2710  175.5790  142.3910 C   0  0  0  0  0  2  0  0  0  0  0  0
  193.1230  176.4130  142.7130 C   0  0  0  0  0  2  0  0  0  0  0  0
  190.0030  172.7150  140.9550 N   0  0  0  0  0  2  0  0  0  0  0  0
  189.4400  173.5890  139.9750 C   0  0  0  0  0  0  0  0  0  0  0  0
  192.2730  175.8760  143.8540 C   0  0  0  0  0  2  0  0  0  0  0  0
  185.8070  177.6150  143.2320 C   0  0  0  0  0  0  0  0  0  0  0  0
  187.8890  177.4310  141.3740 C   0  0  0  0  0  3  0  0  0  0  0  0
  187.2920  178.6670  141.6320 C   0  0  0  0  0  3  0  0  0  0  0  0
  186.0000  175.2640  143.6540 F   0  0  0  0  0  0  0  0  0  0  0  0
  186.2550  178.7590  142.5620 C   0  0  0  0  0  3  0  0  0  0  0  0
  187.4460  176.2720  142.0340 C   0  0  0  0  0  0  0  0  0  0  0  0
  186.4070  176.3700  142.9750 C   0  0  0  0  0  0  0  0  0  0  0  0
  184.7410  177.7500  144.2640 C   0  0  0  0  0  2  0  0  0  0  0  0
  185.1220  178.7720  145.2270 N   0  0  0  0  0  2  0  0  0  0  0  0
  186.0420  178.8430  147.7120 O   0  0  0  0  0  0  0  0  0  0  0  0
  185.4940  176.6540  146.7530 O   0  0  0  0  0  0  0  0  0  0  0  0
  186.0700  178.0110  146.4580 S   0  0  0  0  0  0  0  0  0  0  0  0
  187.7520  177.8290  145.8960 C   0  0  0  0  0  2  0  0  0  0  0  0
  189.2370  174.6200  147.0240 C   0  0  0  0  0  2  0  0  0  0  0  0
  189.8370  177.4620  146.8890 C   0  0  0  0  0  2  0  0  0  0  0  0
  188.4770  176.9330  146.7790 N   0  0  0  0  0  0  0  0  0  0  0  0
  190.7200  176.5170  147.6630 C   0  0  0  0  0  3  0  0  0  0  0  0
  190.4620  175.1990  147.6860 C   0  0  0  0  0  3  0  0  0  0  0  0
  188.5590  175.6380  146.1040 C   0  0  0  0  0  2  0  0  0  0  0  0
  192.8780  169.6410  140.3800 O   0  0  0  0  0  1  0  0  0  0  0  0
  190.6690  169.3000  141.2000 C   0  0  0  0  0  2  0  0  0  0  0  0
  191.1290  170.6540  141.6830 C   0  0  1  0  0  0  0  0  0  0  0  0
  192.1360  169.5230  141.5550 C   0  0  2  0  0  3  0  0  0  0  0  0
  190.7070  170.9320  142.9830 O   0  0  0  0  0  1  0  0  0  0  0  0
  196.2090  174.1130  142.9160 C   0  0  0  0  0  2  0  0  0  0  0  0
  197.4020  169.7720  145.2880 C   0  0  0  0  0  0  0  0  0  0  0  0
  195.6310  171.7850  142.9940 O   0  0  0  0  0  0  0  0  0  0  0  0
  197.9400  168.9310  145.9880 O   0  0  0  0  0  0  0  0  0  0  0  0
  197.0640  172.2160  144.9470 C   0  0  0  0  0  2  0  0  0  0  0  0
  197.6790  170.6510  143.0600 O   0  0  0  0  0  0  0  0  0  0  0  0
  197.2340  169.5400  143.8090 C   0  0  0  0  0  2  0  0  0  0  0  0
  196.8370  171.0250  145.8900 C   0  0  1  0  0  3  0  0  0  0  0  0
  196.9520  171.7880  143.4750 C   0  0  1  0  0  0  0  0  0  0  0  0
  196.5160  172.7130  142.3980 C   0  0  2  0  0  3  0  0  0  0  0  0
  195.3770  170.8390  146.1670 C   0  0  0  0  0  3  0  0  0  0  0  0
  194.9250  169.7330  146.4120 O   0  0  0  0  0  0  0  0  0  0  0  0
  1 23  1  6  0  0  0
  1  5  1  0  0  0  0
  2  7  1  0  0  0  0
  2 12  1  0  0  0  0
  3  1  1  0  0  0  0
  4  8  1  1  0  0  0
  4 15  1  0  0  0  0
  4 39  1  0  0  0  0
  6  3  2  0  0  0  0
  8  7  1  0  0  0  0
  9 17  1  0  0  0  0
 10 16  2  0  0  0  0
 12 11  1  0  0  0  0
 12 42  1  6  0  0  0
 13  5  1  0  0  0  0
 13  9  1  0  0  0  0
 14 11  1  0  0  0  0
 14 17  1  0  0  0  0
 16  3  1  0  0  0  0
 16 15  1  0  0  0  0
 18 25  1  0  0  0  0
 19 20  2  0  0  0  0
 19 23  1  0  0  0  0
 20 22  1  0  0  0  0
 22 18  2  0  0  0  0
 23 24  2  0  0  0  0
 24 18  1  0  0  0  0
 24 21  1  0  0  0  0
 25 26  1  0  0  0  0
 26 29  1  0  0  0  0
 29 28  2  0  0  0  0
 29 27  2  0  0  0  0
 30 29  1  0  0  0  0
 30 33  1  0  0  0  0
 31 35  1  0  0  0  0
 32 34  1  0  0  0  0
 33 32  1  0  0  0  0
 34 35  2  0  0  0  0
 36 33  1  0  0  0  0
 36 31  1  0  0  0  0
 38 40  1  0  0  0  0
 38 39  1  0  0  0  0
 39 41  1  1  0  0  0
 40 37  1  6  0  0  0
 40 39  1  0  0  0  0
 43 49  1  0  0  0  0
 43 45  2  0  0  0  0
 44 50  1  0  0  0  0
 46 49  1  0  0  0  0
 47 50  1  0  0  0  0
 47 48  1  0  0  0  0
 48 43  1  0  0  0  0
 49 52  1  6  0  0  0
 50 46  1  1  0  0  0
 51 42  1  1  0  0  0
 51 44  1  0  0  0  0
 51 50  1  0  0  0  0
 52 53  2  0  0  0  0
M  END
>  <MODEL>
2

>  <REMARK>
 VINA RESULT:      -8.0      2.759      6.782
  Name = 
  10 active torsions:
  status: ('A' for Active; 'I' for Inactive)
    1  A    between atoms: C_2  and  C_51
    2  A    between atoms: C_3  and  C_52
    3  A    between atoms: C_11  and  C_28
    4  A    between atoms: C_15  and  C_39
    5  A    between atoms: N_27  and  C_42
    6  A    between atoms: N_31  and  S_40
    7  A    between atoms: N_31  and  C_51
    8  A    between atoms: C_33  and  C_46
    9  A    between atoms: C_35  and  C_46
   10  A    between atoms: S_40  and  C_42
                            x       y       z     vdW  Elec       q    Type
                         _______ _______ _______ _____ _____    ______ ____

>  <TORSDO>
F 10

$$$$
=
 OpenBabel11042418153D

 53 58  0  0  1  0  0  0  0  0999 V2000
  189.3080  177.1540  144.9670 C   0  0  1  0  0  3  0  0  0  0  0  0
  192.1880  171.8610  143.6900 C   0  0  0  0  0  2  0  0  0  0  0  0
  189.9530  176.6680  146.2570 C   0  0  0  0  0  0  0  0  0  0  0  0
  193.3690  175.2770  145.0700 C   0  0  2  0  0  3  0  0  0  0  0  0
  189.6790  176.4410  143.8000 O   0  0  0  0  0  0  0  0  0  0  0  0
  189.3590  176.8630  147.3530 O   0  0  0  0  0  0  0  0  0  0  0  0
  192.3950  173.3650  143.7150 C   0  0  0  0  0  2  0  0  0  0  0  0
  193.1380  173.7650  144.9800 C   0  0  0  0  0  2  0  0  0  0  0  0
  188.5850  174.6490  142.6440 C   0  0  0  0  0  2  0  0  0  0  0  0
  191.6940  175.5010  147.3500 O   0  0  0  0  0  0  0  0  0  0  0  0
  190.1190  171.1150  142.4530 C   0  0  0  0  0  2  0  0  0  0  0  0
  191.6040  171.4560  142.3400 C   0  0  2  0  0  3  0  0  0  0  0  0
  189.2570  175.1060  143.9270 C   0  0  0  0  0  2  0  0  0  0  0  0
  189.2770  172.2720  142.9760 C   0  0  0  0  0  2  0  0  0  0  0  0
  192.1070  176.0040  145.1140 N   0  0  0  0  0  2  0  0  0  0  0  0
  191.2820  176.0280  146.2800 C   0  0  0  0  0  0  0  0  0  0  0  0
  189.3340  173.4710  142.0420 C   0  0  0  0  0  2  0  0  0  0  0  0
  185.7440  178.1290  143.9990 C   0  0  0  0  0  0  0  0  0  0  0  0
  187.0860  176.9950  146.1740 C   0  0  0  0  0  3  0  0  0  0  0  0
  185.7010  177.1620  146.2210 C   0  0  0  0  0  3  0  0  0  0  0  0
  187.8290  178.3170  142.8340 F   0  0  0  0  0  0  0  0  0  0  0  0
  185.0310  177.7250  145.1330 C   0  0  0  0  0  3  0  0  0  0  0  0
  187.8170  177.4010  145.0450 C   0  0  0  0  0  0  0  0  0  0  0  0
  187.1390  177.9610  143.9500 C   0  0  0  0  0  0  0  0  0  0  0  0
  184.9980  178.6710  142.8290 C   0  0  0  0  0  2  0  0  0  0  0  0
  184.4720  177.5720  142.0350 N   0  0  0  0  0  2  0  0  0  0  0  0
  183.9430  179.4310  140.2200 O   0  0  0  0  0  0  0  0  0  0  0  0
  183.0190  177.1880  139.8680 O   0  0  0  0  0  0  0  0  0  0  0  0
  183.3420  178.2310  140.9010 S   0  0  0  0  0  0  0  0  0  0  0  0
  181.8470  178.7060  141.7480 C   0  0  0  0  0  2  0  0  0  0  0  0
  178.4510  177.7620  140.5860 C   0  0  0  0  0  2  0  0  0  0  0  0
  180.2760  180.0250  140.6260 C   0  0  0  0  0  2  0  0  0  0  0  0
  180.7190  178.6460  140.8360 N   0  0  0  0  0  0  0  0  0  0  0  0
  179.0070  180.0640  139.8140 C   0  0  0  0  0  3  0  0  0  0  0  0
  178.1480  179.0330  139.8330 C   0  0  0  0  0  3  0  0  0  0  0  0
  179.6440  177.9380  141.5290 C   0  0  0  0  0  2  0  0  0  0  0  0
  196.0740  174.5460  144.8900 O   0  0  0  0  0  1  0  0  0  0  0  0
  195.3450  176.7540  144.3790 C   0  0  0  0  0  2  0  0  0  0  0  0
  194.2580  175.8030  143.9400 C   0  0  1  0  0  0  0  0  0  0  0  0
  195.7130  175.3780  143.8310 C   0  0  2  0  0  3  0  0  0  0  0  0
  193.6590  176.1910  142.7410 O   0  0  0  0  0  1  0  0  0  0  0  0
  192.3300  170.2390  141.7930 C   0  0  0  0  0  2  0  0  0  0  0  0
  191.5510  169.9540  136.7730 C   0  0  0  0  0  0  0  0  0  0  0  0
  192.5090  171.5320  139.7800 O   0  0  0  0  0  0  0  0  0  0  0  0
  191.3030  169.5530  135.6480 O   0  0  0  0  0  0  0  0  0  0  0  0
  191.2270  169.5140  139.2020 C   0  0  0  0  0  2  0  0  0  0  0  0
  193.4790  170.0880  138.2130 O   0  0  0  0  0  0  0  0  0  0  0  0
  192.8610  170.6370  137.0690 C   0  0  0  0  0  2  0  0  0  0  0  0
  190.5340  169.8380  137.8710 C   0  0  1  0  0  3  0  0  0  0  0  0
  192.5920  170.2130  139.3030 C   0  0  1  0  0  0  0  0  0  0  0  0
  193.2010  170.6090  140.5990 C   0  0  2  0  0  3  0  0  0  0  0  0
  189.7540  171.1120  137.9750 C   0  0  0  0  0  3  0  0  0  0  0  0
  189.3300  171.4970  139.0510 O   0  0  0  0  0  0  0  0  0  0  0  0
  1 23  1  1  0  0  0
  1  3  1  0  0  0  0
  2  7  1  0  0  0  0
  3 16  1  0  0  0  0
  3  6  2  0  0  0  0
  4  8  1  6  0  0  0
  4 15  1  0  0  0  0
  5 13  1  0  0  0  0
  5  1  1  0  0  0  0
  7  8  1  0  0  0  0
  9 13  1  0  0  0  0
 11 14  1  0  0  0  0
 12 42  1  1  0  0  0
 12 11  1  0  0  0  0
 12  2  1  0  0  0  0
 15 16  1  0  0  0  0
 16 10  2  0  0  0  0
 17  9  1  0  0  0  0
 17 14  1  0  0  0  0
 18 22  1  0  0  0  0
 19 20  1  0  0  0  0
 21 24  1  0  0  0  0
 22 20  2  0  0  0  0
 23 19  2  0  0  0  0
 24 18  2  0  0  0  0
 24 23  1  0  0  0  0
 25 18  1  0  0  0  0
 26 25  1  0  0  0  0
 27 29  2  0  0  0  0
 28 29  2  0  0  0  0
 29 30  1  0  0  0  0
 29 26  1  0  0  0  0
 31 36  1  0  0  0  0
 32 33  1  0  0  0  0
 33 36  1  0  0  0  0
 33 30  1  0  0  0  0
 34 35  2  0  0  0  0
 34 32  1  0  0  0  0
 35 31  1  0  0  0  0
 39 41  1  6  0  0  0
 39 38  1  0  0  0  0
 39  4  1  0  0  0  0
 40 39  1  0  0  0  0
 40 38  1  0  0  0  0
 40 37  1  1  0  0  0
 43 48  1  0  0  0  0
 43 49  1  0  0  0  0
 44 51  1  0  0  0  0
 45 43  2  0  0  0  0
 47 50  1  0  0  0  0
 48 47  1  0  0  0  0
 49 52  1  1  0  0  0
 49 46  1  0  0  0  0
 50 46  1  1  0  0  0
 50 44  1  0  0  0  0
 50 51  1  0  0  0  0
 51 42  1  1  0  0  0
 52 53  2  0  0  0  0
M  END
>  <MODEL>
3

>  <REMARK>
 VINA RESULT:      -7.6      2.860      3.830
  Name = 
  10 active torsions:
  status: ('A' for Active; 'I' for Inactive)
    1  A    between atoms: C_2  and  C_51
    2  A    between atoms: C_3  and  C_52
    3  A    between atoms: C_11  and  C_28
    4  A    between atoms: C_15  and  C_39
    5  A    between atoms: N_27  and  C_42
    6  A    between atoms: N_31  and  S_40
    7  A    between atoms: N_31  and  C_51
    8  A    between atoms: C_33  and  C_46
    9  A    between atoms: C_35  and  C_46
   10  A    between atoms: S_40  and  C_42
                            x       y       z     vdW  Elec       q    Type
                         _______ _______ _______ _____ _____    ______ ____

>  <TORSDO>
F 10

$$$$
=
 OpenBabel11042418153D

 53 58  0  0  1  0  0  0  0  0999 V2000
  194.0740  173.0440  139.1740 C   0  0  1  0  0  3  0  0  0  0  0  0
  188.3320  173.4380  141.3690 C   0  0  0  0  0  2  0  0  0  0  0  0
  193.4230  171.6820  138.9810 C   0  0  0  0  0  0  0  0  0  0  0  0
  189.8100  172.5730  137.8990 C   0  0  2  0  0  3  0  0  0  0  0  0
  193.1990  174.0800  139.5830 O   0  0  0  0  0  0  0  0  0  0  0  0
  194.1230  170.6410  139.1130 O   0  0  0  0  0  0  0  0  0  0  0  0
  189.1520  173.6390  140.1060 C   0  0  0  0  0  2  0  0  0  0  0  0
  188.9970  172.4360  139.1900 C   0  0  0  0  0  2  0  0  0  0  0  0
  192.7310  174.9710  141.7580 C   0  0  0  0  0  2  0  0  0  0  0  0
  191.4820  170.3890  138.5990 O   0  0  0  0  0  0  0  0  0  0  0  0
  189.2680  174.5880  143.4110 C   0  0  0  0  0  2  0  0  0  0  0  0
  188.3560  174.7230  142.1920 C   0  0  2  0  0  3  0  0  0  0  0  0
  192.6680  173.7590  140.8440 C   0  0  0  0  0  2  0  0  0  0  0  0
  190.7110  174.2650  143.0460 C   0  0  0  0  0  2  0  0  0  0  0  0
  191.2380  172.6660  138.1800 N   0  0  0  0  0  2  0  0  0  0  0  0
  192.0090  171.5340  138.5850 C   0  0  0  0  0  0  0  0  0  0  0  0
  191.3350  175.3710  142.2080 C   0  0  0  0  0  2  0  0  0  0  0  0
  196.6550  172.3030  141.8910 C   0  0  0  0  0  0  0  0  0  0  0  0
  196.5290  173.6170  139.4260 C   0  0  0  0  0  3  0  0  0  0  0  0
  197.7390  173.5520  140.1200 C   0  0  0  0  0  3  0  0  0  0  0  0
  194.3290  171.7600  141.7000 F   0  0  0  0  0  0  0  0  0  0  0  0
  197.8020  172.8930  141.3490 C   0  0  0  0  0  3  0  0  0  0  0  0
  195.3670  173.0350  139.9600 C   0  0  0  0  0  0  0  0  0  0  0  0
  195.4360  172.3670  141.1940 C   0  0  0  0  0  0  0  0  0  0  0  0
  196.7630  171.5540  143.1750 C   0  0  0  0  0  2  0  0  0  0  0  0
  197.4970  172.3520  144.1440 N   0  0  0  0  0  2  0  0  0  0  0  0
  195.6030  171.6740  145.8710 O   0  0  0  0  0  0  0  0  0  0  0  0
  197.1470  173.4690  146.5070 O   0  0  0  0  0  0  0  0  0  0  0  0
  196.3810  172.8590  145.3660 S   0  0  0  0  0  0  0  0  0  0  0  0
  195.2610  174.0710  144.6930 C   0  0  0  0  0  2  0  0  0  0  0  0
  193.9640  176.9260  146.6790 C   0  0  0  0  0  2  0  0  0  0  0  0
  193.1310  174.3500  145.6170 C   0  0  0  0  0  2  0  0  0  0  0  0
  194.5370  174.7290  145.7660 N   0  0  0  0  0  0  0  0  0  0  0  0
  192.2650  175.1060  146.5920 C   0  0  0  0  0  3  0  0  0  0  0  0
  192.6350  176.3140  147.0460 C   0  0  0  0  0  3  0  0  0  0  0  0
  194.6340  176.1690  145.5300 C   0  0  0  0  0  2  0  0  0  0  0  0
  190.2000  172.5790  135.1190 O   0  0  0  0  0  1  0  0  0  0  0  0
  190.4660  174.5570  136.4170 C   0  0  0  0  0  2  0  0  0  0  0  0
  189.3500  173.7520  137.0380 C   0  0  1  0  0  0  0  0  0  0  0  0
  189.5360  173.7340  135.5300 C   0  0  2  0  0  3  0  0  0  0  0  0
  188.3050  174.5520  137.5000 O   0  0  0  0  0  1  0  0  0  0  0  0
  186.9580  175.0620  142.6810 C   0  0  0  0  0  2  0  0  0  0  0  0
  185.8250  178.6740  146.0810 C   0  0  0  0  0  0  0  0  0  0  0  0
  187.5700  177.2840  143.3480 O   0  0  0  0  0  0  0  0  0  0  0  0
  185.2980  179.3170  146.9740 O   0  0  0  0  0  0  0  0  0  0  0  0
  186.1280  176.3930  145.1300 C   0  0  0  0  0  2  0  0  0  0  0  0
  185.5390  178.3940  143.7040 O   0  0  0  0  0  0  0  0  0  0  0  0
  185.9990  179.2720  144.7100 C   0  0  0  0  0  2  0  0  0  0  0  0
  186.3710  177.3010  146.3440 C   0  0  1  0  0  3  0  0  0  0  0  0
  186.2490  177.1790  143.8150 C   0  0  1  0  0  0  0  0  0  0  0  0
  186.6720  176.5520  142.5370 C   0  0  2  0  0  3  0  0  0  0  0  0
  187.8330  177.3890  146.6560 C   0  0  0  0  0  3  0  0  0  0  0  0
  188.5070  176.3790  146.7720 O   0  0  0  0  0  0  0  0  0  0  0  0
  1  5  1  0  0  0  0
  1 23  1  1  0  0  0
  2 12  1  0  0  0  0
  3  6  2  0  0  0  0
  3  1  1  0  0  0  0
  4 15  1  0  0  0  0
  4  8  1  1  0  0  0
  5 13  1  0  0  0  0
  7  2  1  0  0  0  0
  8  7  1  0  0  0  0
  9 17  1  0  0  0  0
 12 42  1  1  0  0  0
 12 11  1  0  0  0  0
 13  9  1  0  0  0  0
 14 11  1  0  0  0  0
 15 16  1  0  0  0  0
 16 10  2  0  0  0  0
 16  3  1  0  0  0  0
 17 14  1  0  0  0  0
 18 25  1  0  0  0  0
 19 23  2  0  0  0  0
 19 20  1  0  0  0  0
 20 22  2  0  0  0  0
 22 18  1  0  0  0  0
 23 24  1  0  0  0  0
 24 21  1  0  0  0  0
 24 18  2  0  0  0  0
 25 26  1  0  0  0  0
 26 29  1  0  0  0  0
 29 27  2  0  0  0  0
 29 28  2  0  0  0  0
 30 29  1  0  0  0  0
 30 33  1  0  0  0  0
 31 35  1  0  0  0  0
 32 33  1  0  0  0  0
 32 34  1  0  0  0  0
 34 35  2  0  0  0  0
 36 33  1  0  0  0  0
 36 31  1  0  0  0  0
 38 39  1  0  0  0  0
 39 41  1  1  0  0  0
 39  4  1  0  0  0  0
 40 37  1  1  0  0  0
 40 38  1  0  0  0  0
 40 39  1  0  0  0  0
 43 49  1  0  0  0  0
 43 45  2  0  0  0  0
 44 50  1  0  0  0  0
 46 49  1  0  0  0  0
 47 50  1  0  0  0  0
 47 48  1  0  0  0  0
 48 43  1  0  0  0  0
 49 52  1  6  0  0  0
 50 46  1  1  0  0  0
 51 42  1  1  0  0  0
 51 44  1  0  0  0  0
 51 50  1  0  0  0  0
 52 53  2  0  0  0  0
M  END
>  <MODEL>
4

>  <REMARK>
 VINA RESULT:      -7.4      3.520      9.457
  Name = 
  10 active torsions:
  status: ('A' for Active; 'I' for Inactive)
    1  A    between atoms: C_2  and  C_51
    2  A    between atoms: C_3  and  C_52
    3  A    between atoms: C_11  and  C_28
    4  A    between atoms: C_15  and  C_39
    5  A    between atoms: N_27  and  C_42
    6  A    between atoms: N_31  and  S_40
    7  A    between atoms: N_31  and  C_51
    8  A    between atoms: C_33  and  C_46
    9  A    between atoms: C_35  and  C_46
   10  A    between atoms: S_40  and  C_42
                            x       y       z     vdW  Elec       q    Type
                         _______ _______ _______ _____ _____    ______ ____

>  <TORSDO>
F 10

$$$$
=
 OpenBabel11042418153D

 53 58  0  0  1  0  0  0  0  0999 V2000
  193.9010  171.7850  139.5870 C   0  0  1  0  0  3  0  0  0  0  0  0
  189.1320  174.6590  142.2220 C   0  0  0  0  0  2  0  0  0  0  0  0
  192.8780  170.7200  139.9520 C   0  0  0  0  0  0  0  0  0  0  0  0
  189.4960  172.4070  139.0970 C   0  0  2  0  0  3  0  0  0  0  0  0
  193.4560  173.1230  139.7250 O   0  0  0  0  0  0  0  0  0  0  0  0
  193.2800  169.5880  140.3410 O   0  0  0  0  0  0  0  0  0  0  0  0
  189.6680  174.2110  140.8730 C   0  0  0  0  0  2  0  0  0  0  0  0
  188.9890  172.9180  140.4490 C   0  0  0  0  0  2  0  0  0  0  0  0
  193.7520  174.6970  141.5080 C   0  0  0  0  0  2  0  0  0  0  0  0
  190.6240  170.0870  140.2810 O   0  0  0  0  0  0  0  0  0  0  0  0
  190.7810  175.9650  143.6150 C   0  0  0  0  0  2  0  0  0  0  0  0
  189.6890  176.0410  142.5490 C   0  0  2  0  0  3  0  0  0  0  0  0
  193.1570  173.3680  141.0770 C   0  0  0  0  0  2  0  0  0  0  0  0
  191.9610  175.0940  143.2030 C   0  0  0  0  0  2  0  0  0  0  0  0
  190.9200  172.0990  139.1470 N   0  0  0  0  0  2  0  0  0  0  0  0
  191.4260  170.9410  139.8120 C   0  0  0  0  0  0  0  0  0  0  0  0
  192.6550  175.6460  141.9680 C   0  0  0  0  0  2  0  0  0  0  0  0
  196.7290  171.0720  142.0530 C   0  0  0  0  0  0  0  0  0  0  0  0
  196.4060  171.5290  139.3130 C   0  0  0  0  0  3  0  0  0  0  0  0
  197.6760  171.2690  139.8310 C   0  0  0  0  0  3  0  0  0  0  0  0
  194.3660  171.3290  142.3550 F   0  0  0  0  0  0  0  0  0  0  0  0
  197.8370  171.0370  141.1980 C   0  0  0  0  0  3  0  0  0  0  0  0
  195.2850  171.5740  140.1590 C   0  0  0  0  0  0  0  0  0  0  0  0
  195.4490  171.3340  141.5330 C   0  0  0  0  0  0  0  0  0  0  0  0
  196.9180  170.7620  143.4980 C   0  0  0  0  0  2  0  0  0  0  0  0
  197.5010  171.9120  144.1710 N   0  0  0  0  0  2  0  0  0  0  0  0
  195.8750  171.1490  146.1200 O   0  0  0  0  0  0  0  0  0  0  0  0
  197.1940  173.1870  146.4580 O   0  0  0  0  0  0  0  0  0  0  0  0
  196.4310  172.3760  145.4490 S   0  0  0  0  0  0  0  0  0  0  0  0
  195.0960  173.3570  144.7900 C   0  0  0  0  0  2  0  0  0  0  0  0
  194.5610  176.7660  146.1580 C   0  0  0  0  0  2  0  0  0  0  0  0
  193.2450  174.1800  145.9590 C   0  0  0  0  0  2  0  0  0  0  0  0
  194.6850  174.3540  145.7630 N   0  0  0  0  0  0  0  0  0  0  0  0
  192.6870  175.2700  146.8360 C   0  0  0  0  0  3  0  0  0  0  0  0
  193.2750  176.4760  146.8920 C   0  0  0  0  0  3  0  0  0  0  0  0
  194.8930  175.6640  145.1480 C   0  0  0  0  0  2  0  0  0  0  0  0
  189.8980  171.6610  136.4200 O   0  0  0  0  0  1  0  0  0  0  0  0
  190.4020  173.8570  137.1890 C   0  0  0  0  0  2  0  0  0  0  0  0
  189.1920  173.3750  137.9510 C   0  0  1  0  0  0  0  0  0  0  0  0
  189.3820  172.9530  136.5030 C   0  0  2  0  0  3  0  0  0  0  0  0
  188.2520  174.3850  138.1590 O   0  0  0  0  0  1  0  0  0  0  0  0
  188.5840  176.9470  143.0660 C   0  0  0  0  0  2  0  0  0  0  0  0
  184.5670  178.4070  145.8260 C   0  0  0  0  0  0  0  0  0  0  0  0
  186.5520  176.1090  144.0290 O   0  0  0  0  0  0  0  0  0  0  0  0
  183.7880  179.0510  146.5090 O   0  0  0  0  0  0  0  0  0  0  0  0
  186.4500  178.5610  144.2040 C   0  0  0  0  0  2  0  0  0  0  0  0
  186.4910  177.0030  146.1930 O   0  0  0  0  0  0  0  0  0  0  0  0
  185.0860  177.0770  146.3070 C   0  0  0  0  0  2  0  0  0  0  0  0
  184.9730  178.8900  144.4640 C   0  0  1  0  0  3  0  0  0  0  0  0
  186.8410  177.2180  144.8430 C   0  0  1  0  0  0  0  0  0  0  0  0
  187.9180  176.3520  144.3010 C   0  0  2  0  0  3  0  0  0  0  0  0
  184.0990  178.2630  143.4220 C   0  0  0  0  0  3  0  0  0  0  0  0
  184.5150  178.0720  142.2920 O   0  0  0  0  0  0  0  0  0  0  0  0
  1  5  1  0  0  0  0
  1  3  1  0  0  0  0
  1 23  1  1  0  0  0
  2 12  1  0  0  0  0
  3  6  2  0  0  0  0
  4 15  1  0  0  0  0
  4  8  1  1  0  0  0
  5 13  1  0  0  0  0
  7  2  1  0  0  0  0
  8  7  1  0  0  0  0
  9 17  1  0  0  0  0
 12 42  1  1  0  0  0
 12 11  1  0  0  0  0
 13  9  1  0  0  0  0
 14 11  1  0  0  0  0
 15 16  1  0  0  0  0
 16  3  1  0  0  0  0
 16 10  2  0  0  0  0
 17 14  1  0  0  0  0
 18 25  1  0  0  0  0
 19 20  2  0  0  0  0
 19 23  1  0  0  0  0
 20 22  1  0  0  0  0
 22 18  2  0  0  0  0
 23 24  2  0  0  0  0
 24 18  1  0  0  0  0
 24 21  1  0  0  0  0
 25 26  1  0  0  0  0
 26 29  1  0  0  0  0
 29 27  2  0  0  0  0
 29 28  2  0  0  0  0
 30 29  1  0  0  0  0
 30 33  1  0  0  0  0
 31 35  1  0  0  0  0
 32 34  1  0  0  0  0
 33 32  1  0  0  0  0
 34 35  2  0  0  0  0
 36 33  1  0  0  0  0
 36 31  1  0  0  0  0
 38 39  1  0  0  0  0
 39 41  1  1  0  0  0
 39  4  1  0  0  0  0
 40 37  1  1  0  0  0
 40 38  1  0  0  0  0
 40 39  1  0  0  0  0
 43 48  1  0  0  0  0
 43 45  2  0  0  0  0
 44 51  1  0  0  0  0
 44 50  1  0  0  0  0
 46 49  1  0  0  0  0
 47 48  1  0  0  0  0
 49 52  1  6  0  0  0
 49 43  1  0  0  0  0
 50 46  1  6  0  0  0
 50 47  1  0  0  0  0
 51 42  1  6  0  0  0
 51 50  1  0  0  0  0
 53 52  2  0  0  0  0
M  END
>  <MODEL>
5

>  <REMARK>
 VINA RESULT:      -7.3      3.603      9.615
  Name = 
  10 active torsions:
  status: ('A' for Active; 'I' for Inactive)
    1  A    between atoms: C_2  and  C_51
    2  A    between atoms: C_3  and  C_52
    3  A    between atoms: C_11  and  C_28
    4  A    between atoms: C_15  and  C_39
    5  A    between atoms: N_27  and  C_42
    6  A    between atoms: N_31  and  S_40
    7  A    between atoms: N_31  and  C_51
    8  A    between atoms: C_33  and  C_46
    9  A    between atoms: C_35  and  C_46
   10  A    between atoms: S_40  and  C_42
                            x       y       z     vdW  Elec       q    Type
                         _______ _______ _______ _____ _____    ______ ____

>  <TORSDO>
F 10

$$$$
=
 OpenBabel11042418153D

 53 58  0  0  1  0  0  0  0  0999 V2000
  191.8330  175.7610  144.8590 C   0  0  1  0  0  3  0  0  0  0  0  0
  193.2010  171.7920  140.3510 C   0  0  0  0  0  2  0  0  0  0  0  0
  192.9490  174.8620  145.3720 C   0  0  0  0  0  0  0  0  0  0  0  0
  195.2460  174.4500  142.2790 C   0  0  2  0  0  3  0  0  0  0  0  0
  191.5380  175.6310  143.4790 O   0  0  0  0  0  0  0  0  0  0  0  0
  192.9600  174.5280  146.5880 O   0  0  0  0  0  0  0  0  0  0  0  0
  193.5550  173.1670  140.8890 C   0  0  0  0  0  2  0  0  0  0  0  0
  194.8400  173.0920  141.6990 C   0  0  0  0  0  2  0  0  0  0  0  0
  189.8470  174.3620  142.3500 C   0  0  0  0  0  2  0  0  0  0  0  0
  194.8620  173.5440  144.9410 O   0  0  0  0  0  0  0  0  0  0  0  0
  190.7270  171.4010  140.0420 C   0  0  0  0  0  2  0  0  0  0  0  0
  192.0150  171.9150  139.3990 C   0  0  2  0  0  3  0  0  0  0  0  0
  191.0840  174.3240  143.2300 C   0  0  0  0  0  2  0  0  0  0  0  0
  190.3550  172.1460  141.3170 C   0  0  0  0  0  2  0  0  0  0  0  0
  194.2360  174.9570  143.2000 N   0  0  0  0  0  2  0  0  0  0  0  0
  194.0580  174.4140  144.5080 C   0  0  0  0  0  0  0  0  0  0  0  0
  190.0980  173.6200  141.0460 C   0  0  0  0  0  2  0  0  0  0  0  0
  188.6320  176.9810  146.5490 C   0  0  0  0  0  0  0  0  0  0  0  0
  190.1330  174.6290  146.3590 C   0  0  0  0  0  3  0  0  0  0  0  0
  188.9480  174.6420  147.0960 C   0  0  0  0  0  3  0  0  0  0  0  0
  190.2290  178.0920  145.1510 F   0  0  0  0  0  0  0  0  0  0  0  0
  188.1970  175.8140  147.1880 C   0  0  0  0  0  3  0  0  0  0  0  0
  190.5870  175.7940  145.7160 C   0  0  0  0  0  0  0  0  0  0  0  0
  189.8250  176.9710  145.8050 C   0  0  0  0  0  0  0  0  0  0  0  0
  187.7820  178.2030  146.6130 C   0  0  0  0  0  2  0  0  0  0  0  0
  186.5570  177.9070  147.3390 N   0  0  0  0  0  2  0  0  0  0  0  0
  185.1080  176.4400  145.6720 O   0  0  0  0  0  0  0  0  0  0  0  0
  183.9880  178.2650  146.8660 O   0  0  0  0  0  0  0  0  0  0  0  0
  185.2630  177.8440  146.1910 S   0  0  0  0  0  0  0  0  0  0  0  0
  185.6070  178.9510  144.8360 C   0  0  0  0  0  2  0  0  0  0  0  0
  185.2980  177.5480  141.4130 C   0  0  0  0  0  2  0  0  0  0  0  0
  187.2440  178.8030  143.1730 C   0  0  0  0  0  2  0  0  0  0  0  0
  186.0090  178.1920  143.6650 N   0  0  0  0  0  0  0  0  0  0  0  0
  187.6640  178.1860  141.8630 C   0  0  0  0  0  3  0  0  0  0  0  0
  186.7550  177.6460  141.0360 C   0  0  0  0  0  3  0  0  0  0  0  0
  184.9780  178.3960  142.6480 C   0  0  0  0  0  2  0  0  0  0  0  0
  196.7460  176.7540  142.8520 O   0  0  0  0  0  1  0  0  0  0  0  0
  194.8780  176.8200  141.3770 C   0  0  0  0  0  2  0  0  0  0  0  0
  195.5560  175.4840  141.1930 C   0  0  1  0  0  0  0  0  0  0  0  0
  196.3950  176.7130  141.5030 C   0  0  2  0  0  3  0  0  0  0  0  0
  195.5740  175.0720  139.8600 O   0  0  0  0  0  1  0  0  0  0  0  0
  192.2670  171.1120  138.1340 C   0  0  0  0  0  2  0  0  0  0  0  0
  194.2450  174.5990  135.0010 C   0  0  0  0  0  0  0  0  0  0  0  0
  192.5600  171.6050  135.8040 O   0  0  0  0  0  0  0  0  0  0  0  0
  194.7660  175.6060  134.5500 O   0  0  0  0  0  0  0  0  0  0  0  0
  193.9780  173.1920  137.0380 C   0  0  0  0  0  2  0  0  0  0  0  0
  192.0230  173.8750  135.5900 O   0  0  0  0  0  0  0  0  0  0  0  0
  192.8920  174.1540  134.5130 C   0  0  0  0  0  2  0  0  0  0  0  0
  194.9670  173.7460  136.0030 C   0  0  1  0  0  3  0  0  0  0  0  0
  192.6180  172.8790  136.3950 C   0  0  1  0  0  0  0  0  0  0  0  0
  191.7060  171.8260  136.9100 C   0  0  2  0  0  3  0  0  0  0  0  0
  195.6780  172.6310  135.2990 C   0  0  0  0  0  3  0  0  0  0  0  0
  196.8230  172.7730  134.9040 O   0  0  0  0  0  0  0  0  0  0  0  0
  1  3  1  0  0  0  0
  1 23  1  1  0  0  0
  2  7  1  0  0  0  0
  3  6  2  0  0  0  0
  4  8  1  6  0  0  0
  4 15  1  0  0  0  0
  5  1  1  0  0  0  0
  7  8  1  0  0  0  0
  9 13  1  0  0  0  0
 11 14  1  0  0  0  0
 12 42  1  6  0  0  0
 12 11  1  0  0  0  0
 12  2  1  0  0  0  0
 13  5  1  0  0  0  0
 15 16  1  0  0  0  0
 16 10  2  0  0  0  0
 16  3  1  0  0  0  0
 17 14  1  0  0  0  0
 17  9  1  0  0  0  0
 18 25  1  0  0  0  0
 18 22  1  0  0  0  0
 19 20  1  0  0  0  0
 20 22  2  0  0  0  0
 21 24  1  0  0  0  0
 23 24  1  0  0  0  0
 23 19  2  0  0  0  0
 24 18  2  0  0  0  0
 25 26  1  0  0  0  0
 27 29  2  0  0  0  0
 29 28  2  0  0  0  0
 29 26  1  0  0  0  0
 30 29  1  0  0  0  0
 31 36  1  0  0  0  0
 32 33  1  0  0  0  0
 33 30  1  0  0  0  0
 34 32  1  0  0  0  0
 35 31  1  0  0  0  0
 35 34  2  0  0  0  0
 36 33  1  0  0  0  0
 38 40  1  0  0  0  0
 39 41  1  6  0  0  0
 39 38  1  0  0  0  0
 39 40  1  0  0  0  0
 39  4  1  0  0  0  0
 40 37  1  1  0  0  0
 43 49  1  0  0  0  0
 44 50  1  0  0  0  0
 44 51  1  0  0  0  0
 45 43  2  0  0  0  0
 47 50  1  0  0  0  0
 48 43  1  0  0  0  0
 48 47  1  0  0  0  0
 49 52  1  6  0  0  0
 49 46  1  0  0  0  0
 50 51  1  0  0  0  0
 50 46  1  1  0  0  0
 51 42  1  1  0  0  0
 53 52  2  0  0  0  0
M  END
>  <MODEL>
6

>  <REMARK>
 VINA RESULT:      -7.1      1.871      2.622
  Name = 
  10 active torsions:
  status: ('A' for Active; 'I' for Inactive)
    1  A    between atoms: C_2  and  C_51
    2  A    between atoms: C_3  and  C_52
    3  A    between atoms: C_11  and  C_28
    4  A    between atoms: C_15  and  C_39
    5  A    between atoms: N_27  and  C_42
    6  A    between atoms: N_31  and  S_40
    7  A    between atoms: N_31  and  C_51
    8  A    between atoms: C_33  and  C_46
    9  A    between atoms: C_35  and  C_46
   10  A    between atoms: S_40  and  C_42
                            x       y       z     vdW  Elec       q    Type
                         _______ _______ _______ _____ _____    ______ ____

>  <TORSDO>
F 10

$$$$
=
 OpenBabel11042418153D

 53 58  0  0  1  0  0  0  0  0999 V2000
  193.2220  175.7460  144.6470 C   0  0  1  0  0  3  0  0  0  0  0  0
  194.9140  170.5290  141.8420 C   0  0  0  0  0  2  0  0  0  0  0  0
  194.5370  175.3030  145.2730 C   0  0  0  0  0  0  0  0  0  0  0  0
  196.5690  174.0040  142.2400 C   0  0  2  0  0  3  0  0  0  0  0  0
  192.8300  175.0260  143.4910 O   0  0  0  0  0  0  0  0  0  0  0  0
  194.7280  175.4960  146.5050 O   0  0  0  0  0  0  0  0  0  0  0  0
  195.0400  172.0400  141.7460 C   0  0  0  0  0  2  0  0  0  0  0  0
  196.3850  172.4840  142.2990 C   0  0  0  0  0  2  0  0  0  0  0  0
  191.3230  173.1810  143.2290 C   0  0  0  0  0  2  0  0  0  0  0  0
  196.6230  174.2110  145.0700 O   0  0  0  0  0  0  0  0  0  0  0  0
  192.5480  169.6970  142.1180 C   0  0  0  0  0  2  0  0  0  0  0  0
  193.6430  170.0840  141.1250 C   0  0  2  0  0  3  0  0  0  0  0  0
  192.6210  173.6810  143.8390 C   0  0  0  0  0  2  0  0  0  0  0  0
  192.1590  170.8340  143.0540 C   0  0  0  0  0  2  0  0  0  0  0  0
  195.5700  174.6900  143.0500 N   0  0  0  0  0  2  0  0  0  0  0  0
  195.6260  174.7060  144.4770 C   0  0  0  0  0  0  0  0  0  0  0  0
  191.5920  172.0180  142.2860 C   0  0  0  0  0  2  0  0  0  0  0  0
  189.8530  176.7960  146.1090 C   0  0  0  0  0  0  0  0  0  0  0  0
  192.1110  175.3410  146.8870 C   0  0  0  0  0  3  0  0  0  0  0  0
  191.0290  175.4690  147.7610 C   0  0  0  0  0  3  0  0  0  0  0  0
  190.8800  177.2190  143.9860 F   0  0  0  0  0  0  0  0  0  0  0  0
  189.9010  176.1920  147.3710 C   0  0  0  0  0  3  0  0  0  0  0  0
  192.0800  175.9460  145.6190 C   0  0  0  0  0  0  0  0  0  0  0  0
  190.9410  176.6680  145.2270 C   0  0  0  0  0  0  0  0  0  0  0  0
  188.6140  177.5110  145.6940 C   0  0  0  0  0  2  0  0  0  0  0  0
  187.9550  178.0640  146.8670 N   0  0  0  0  0  2  0  0  0  0  0  0
  186.0080  176.4170  146.1420 O   0  0  0  0  0  0  0  0  0  0  0  0
  185.5990  177.9110  148.0420 O   0  0  0  0  0  0  0  0  0  0  0  0
  186.2530  177.7950  146.6940 S   0  0  0  0  0  0  0  0  0  0  0  0
  185.5600  179.0150  145.5940 C   0  0  0  0  0  2  0  0  0  0  0  0
  183.6440  178.2880  142.4990 C   0  0  0  0  0  2  0  0  0  0  0  0
  186.3370  178.9270  143.3910 C   0  0  0  0  0  2  0  0  0  0  0  0
  185.3030  178.4220  144.2940 N   0  0  0  0  0  0  0  0  0  0  0  0
  186.0700  178.4940  141.9720 C   0  0  0  0  0  3  0  0  0  0  0  0
  184.8190  178.2410  141.5550 C   0  0  0  0  0  3  0  0  0  0  0  0
  184.0180  178.9450  143.8310 C   0  0  0  0  0  2  0  0  0  0  0  0
  196.7820  176.7540  141.7190 O   0  0  0  0  0  1  0  0  0  0  0  0
  195.3480  175.3530  140.4360 C   0  0  0  0  0  2  0  0  0  0  0  0
  196.5650  174.5410  140.8060 C   0  0  1  0  0  0  0  0  0  0  0  0
  196.7130  176.0280  140.5310 C   0  0  2  0  0  3  0  0  0  0  0  0
  196.9820  173.6990  139.7740 O   0  0  0  0  0  1  0  0  0  0  0  0
  193.9280  168.8830  140.2410 C   0  0  0  0  0  2  0  0  0  0  0  0
  191.2410  170.3710  136.1850 C   0  0  0  0  0  0  0  0  0  0  0  0
  193.8260  170.6070  138.5750 O   0  0  0  0  0  0  0  0  0  0  0  0
  190.4420  170.4210  135.2650 O   0  0  0  0  0  0  0  0  0  0  0  0
  191.7260  169.3380  138.3980 C   0  0  0  0  0  2  0  0  0  0  0  0
  193.4500  169.4810  136.5560 O   0  0  0  0  0  0  0  0  0  0  0  0
  192.7180  170.5080  135.9220 C   0  0  0  0  0  2  0  0  0  0  0  0
  190.7700  170.2400  137.6040 C   0  0  1  0  0  3  0  0  0  0  0  0
  193.1800  169.5310  137.9410 C   0  0  1  0  0  0  0  0  0  0  0  0
  194.3430  169.3170  138.8400 C   0  0  2  0  0  3  0  0  0  0  0  0
  190.6740  171.5950  138.2330 C   0  0  0  0  0  3  0  0  0  0  0  0
  189.8610  171.8160  139.1150 O   0  0  0  0  0  0  0  0  0  0  0  0
  1  3  1  0  0  0  0
  1 23  1  1  0  0  0
  3  6  2  0  0  0  0
  4  8  1  6  0  0  0
  4 15  1  0  0  0  0
  5 13  1  0  0  0  0
  5  1  1  0  0  0  0
  7  2  1  0  0  0  0
  7  8  1  0  0  0  0
  9 13  1  0  0  0  0
 11 14  1  0  0  0  0
 12 42  1  6  0  0  0
 12  2  1  0  0  0  0
 12 11  1  0  0  0  0
 15 16  1  0  0  0  0
 16 10  2  0  0  0  0
 16  3  1  0  0  0  0
 17 14  1  0  0  0  0
 17  9  1  0  0  0  0
 18 22  1  0  0  0  0
 19 20  1  0  0  0  0
 21 24  1  0  0  0  0
 22 20  2  0  0  0  0
 23 19  2  0  0  0  0
 24 23  1  0  0  0  0
 24 18  2  0  0  0  0
 25 18  1  0  0  0  0
 25 26  1  0  0  0  0
 27 29  2  0  0  0  0
 29 26  1  0  0  0  0
 29 28  2  0  0  0  0
 30 29  1  0  0  0  0
 31 36  1  0  0  0  0
 32 33  1  0  0  0  0
 33 30  1  0  0  0  0
 34 32  1  0  0  0  0
 35 34  2  0  0  0  0
 35 31  1  0  0  0  0
 36 33  1  0  0  0  0
 38 40  1  0  0  0  0
 38 39  1  0  0  0  0
 39 41  1  6  0  0  0
 39  4  1  0  0  0  0
 40 39  1  0  0  0  0
 40 37  1  1  0  0  0
 43 49  1  0  0  0  0
 44 51  1  0  0  0  0
 45 43  2  0  0  0  0
 47 50  1  0  0  0  0
 48 43  1  0  0  0  0
 48 47  1  0  0  0  0
 49 52  1  1  0  0  0
 49 46  1  0  0  0  0
 50 46  1  1  0  0  0
 50 44  1  0  0  0  0
 50 51  1  0  0  0  0
 51 42  1  1  0  0  0
 52 53  2  0  0  0  0
M  END
>  <MODEL>
7

>  <REMARK>
 VINA RESULT:      -7.0      1.693      2.054
  Name = 
  10 active torsions:
  status: ('A' for Active; 'I' for Inactive)
    1  A    between atoms: C_2  and  C_51
    2  A    between atoms: C_3  and  C_52
    3  A    between atoms: C_11  and  C_28
    4  A    between atoms: C_15  and  C_39
    5  A    between atoms: N_27  and  C_42
    6  A    between atoms: N_31  and  S_40
    7  A    between atoms: N_31  and  C_51
    8  A    between atoms: C_33  and  C_46
    9  A    between atoms: C_35  and  C_46
   10  A    between atoms: S_40  and  C_42
                            x       y       z     vdW  Elec       q    Type
                         _______ _______ _______ _____ _____    ______ ____

>  <TORSDO>
F 10

$$$$
=
 OpenBabel11042418153D

 53 58  0  0  1  0  0  0  0  0999 V2000
  195.6390  173.3050  140.6240 C   0  0  1  0  0  3  0  0  0  0  0  0
  191.4270  176.3490  143.9320 C   0  0  0  0  0  2  0  0  0  0  0  0
  196.0780  174.7600  140.6850 C   0  0  0  0  0  0  0  0  0  0  0  0
  195.2350  175.7900  144.3240 C   0  0  2  0  0  3  0  0  0  0  0  0
  194.5540  172.9650  141.4700 O   0  0  0  0  0  0  0  0  0  0  0  0
  196.6450  175.2740  139.6810 O   0  0  0  0  0  0  0  0  0  0  0  0
  192.7210  175.5650  144.0640 C   0  0  0  0  0  2  0  0  0  0  0  0
  193.8960  176.5210  144.1970 C   0  0  0  0  0  2  0  0  0  0  0  0
  192.2080  172.7810  141.0140 C   0  0  0  0  0  2  0  0  0  0  0  0
  196.1500  176.8200  141.8430 O   0  0  0  0  0  0  0  0  0  0  0  0
  189.6350  175.1820  142.5920 C   0  0  0  0  0  2  0  0  0  0  0  0
  190.2470  175.3830  143.9780 C   0  0  2  0  0  3  0  0  0  0  0  0
  193.4200  173.6950  141.0740 C   0  0  0  0  0  2  0  0  0  0  0  0
  190.6250  174.6290  141.5740 C   0  0  0  0  0  2  0  0  0  0  0  0
  195.5170  174.9910  143.1380 N   0  0  0  0  0  2  0  0  0  0  0  0
  195.9190  175.5810  141.9000 C   0  0  0  0  0  0  0  0  0  0  0  0
  191.1360  173.2560  141.9820 C   0  0  0  0  0  2  0  0  0  0  0  0
  194.8390  170.9060  137.7600 C   0  0  0  0  0  0  0  0  0  0  0  0
  195.7020  173.5450  138.1030 C   0  0  0  0  0  3  0  0  0  0  0  0
  195.4980  173.0390  136.8170 C   0  0  0  0  0  3  0  0  0  0  0  0
  194.7880  170.6340  140.1400 F   0  0  0  0  0  0  0  0  0  0  0  0
  195.0640  171.7240  136.6470 C   0  0  0  0  0  3  0  0  0  0  0  0
  195.4860  172.7350  139.2310 C   0  0  0  0  0  0  0  0  0  0  0  0
  195.0430  171.4130  139.0560 C   0  0  0  0  0  0  0  0  0  0  0  0
  194.3190  169.5260  137.5530 C   0  0  0  0  0  2  0  0  0  0  0  0
  193.8910  169.3690  136.1720 N   0  0  0  0  0  2  0  0  0  0  0  0
  191.7570  170.5090  135.0870 O   0  0  0  0  0  0  0  0  0  0  0  0
  191.5750  168.1680  135.7920 O   0  0  0  0  0  0  0  0  0  0  0  0
  192.1660  169.5070  136.1330 S   0  0  0  0  0  0  0  0  0  0  0  0
  191.5680  170.0270  137.7300 C   0  0  0  0  0  2  0  0  0  0  0  0
  188.8730  172.4190  138.6200 C   0  0  0  0  0  2  0  0  0  0  0  0
  191.6170  172.3640  137.6580 C   0  0  0  0  0  2  0  0  0  0  0  0
  190.7280  171.2030  137.5860 N   0  0  0  0  0  0  0  0  0  0  0  0
  190.8250  173.6460  137.6750 C   0  0  0  0  0  3  0  0  0  0  0  0
  189.5730  173.6740  138.1600 C   0  0  0  0  0  3  0  0  0  0  0  0
  189.8490  171.2470  138.7540 C   0  0  0  0  0  2  0  0  0  0  0  0
  197.5750  174.3780  144.9710 O   0  0  0  0  0  1  0  0  0  0  0  0
  195.4160  173.4440  145.3380 C   0  0  0  0  0  2  0  0  0  0  0  0
  195.3170  174.9290  145.5880 C   0  0  1  0  0  0  0  0  0  0  0  0
  196.5970  174.1940  145.9480 C   0  0  2  0  0  3  0  0  0  0  0  0
  194.4840  175.2380  146.6640 O   0  0  0  0  0  1  0  0  0  0  0  0
  189.1650  175.9140  144.9020 C   0  0  0  0  0  2  0  0  0  0  0  0
  184.8220  178.5190  145.3890 C   0  0  0  0  0  0  0  0  0  0  0  0
  188.3010  178.0130  145.6810 O   0  0  0  0  0  0  0  0  0  0  0  0
  183.6560  178.8730  145.3260 O   0  0  0  0  0  0  0  0  0  0  0  0
  186.3560  176.5610  145.2830 C   0  0  0  0  0  2  0  0  0  0  0  0
  186.7990  178.7050  144.0230 O   0  0  0  0  0  0  0  0  0  0  0  0
  185.9200  179.4120  144.8740 C   0  0  0  0  0  2  0  0  0  0  0  0
  185.1940  177.2190  146.0410 C   0  0  1  0  0  3  0  0  0  0  0  0
  187.3340  177.6150  144.7420 C   0  0  1  0  0  0  0  0  0  0  0  0
  188.7790  177.3410  144.5320 C   0  0  2  0  0  3  0  0  0  0  0  0
  185.5620  177.4580  147.4730 C   0  0  0  0  0  3  0  0  0  0  0  0
  186.3590  176.7310  148.0410 O   0  0  0  0  0  0  0  0  0  0  0  0
  1 23  1  6  0  0  0
  1  3  1  0  0  0  0
  1  5  1  0  0  0  0
  2 12  1  0  0  0  0
  2  7  1  0  0  0  0
  3 16  1  0  0  0  0
  4  8  1  6  0  0  0
  4 39  1  0  0  0  0
  6  3  2  0  0  0  0
  7  8  1  0  0  0  0
  9 13  1  0  0  0  0
  9 17  1  0  0  0  0
 10 16  2  0  0  0  0
 11 12  1  0  0  0  0
 12 42  1  1  0  0  0
 13  5  1  0  0  0  0
 14 17  1  0  0  0  0
 14 11  1  0  0  0  0
 15  4  1  0  0  0  0
 16 15  1  0  0  0  0
 18 24  1  0  0  0  0
 19 23  1  0  0  0  0
 20 19  2  0  0  0  0
 22 20  1  0  0  0  0
 22 18  2  0  0  0  0
 24 23  2  0  0  0  0
 24 21  1  0  0  0  0
 25 18  1  0  0  0  0
 26 25  1  0  0  0  0
 27 29  2  0  0  0  0
 28 29  2  0  0  0  0
 29 26  1  0  0  0  0
 29 30  1  0  0  0  0
 31 36  1  0  0  0  0
 32 34  1  0  0  0  0
 33 32  1  0  0  0  0
 33 30  1  0  0  0  0
 33 36  1  0  0  0  0
 34 35  2  0  0  0  0
 35 31  1  0  0  0  0
 38 39  1  0  0  0  0
 38 40  1  0  0  0  0
 39 40  1  0  0  0  0
 39 41  1  1  0  0  0
 40 37  1  6  0  0  0
 43 49  1  0  0  0  0
 45 43  2  0  0  0  0
 46 49  1  0  0  0  0
 47 50  1  0  0  0  0
 47 48  1  0  0  0  0
 48 43  1  0  0  0  0
 49 52  1  1  0  0  0
 50 46  1  1  0  0  0
 50 44  1  0  0  0  0
 51 50  1  0  0  0  0
 51 42  1  1  0  0  0
 51 44  1  0  0  0  0
 52 53  2  0  0  0  0
M  END
>  <MODEL>
8

>  <REMARK>
 VINA RESULT:      -6.8      3.786      9.387
  Name = 
  10 active torsions:
  status: ('A' for Active; 'I' for Inactive)
    1  A    between atoms: C_2  and  C_51
    2  A    between atoms: C_3  and  C_52
    3  A    between atoms: C_11  and  C_28
    4  A    between atoms: C_15  and  C_39
    5  A    between atoms: N_27  and  C_42
    6  A    between atoms: N_31  and  S_40
    7  A    between atoms: N_31  and  C_51
    8  A    between atoms: C_33  and  C_46
    9  A    between atoms: C_35  and  C_46
   10  A    between atoms: S_40  and  C_42
                            x       y       z     vdW  Elec       q    Type
                         _______ _______ _______ _____ _____    ______ ____

>  <TORSDO>
F 10

$$$$
=
 OpenBabel11042418153D

 53 58  0  0  1  0  0  0  0  0999 V2000
  186.2790  177.8700  143.6180 C   0  0  1  0  0  3  0  0  0  0  0  0
  189.7590  172.9810  145.0070 C   0  0  0  0  0  2  0  0  0  0  0  0
  185.7840  177.3270  144.9510 C   0  0  0  0  0  0  0  0  0  0  0  0
  189.0570  176.3470  146.7790 C   0  0  2  0  0  3  0  0  0  0  0  0
  187.4860  177.3000  143.1440 O   0  0  0  0  0  0  0  0  0  0  0  0
  184.5510  177.3710  145.2130 O   0  0  0  0  0  0  0  0  0  0  0  0
  189.6870  174.4890  145.1700 C   0  0  0  0  0  2  0  0  0  0  0  0
  189.1630  174.8350  146.5550 C   0  0  0  0  0  2  0  0  0  0  0  0
  187.8750  175.5330  141.5730 C   0  0  0  0  0  2  0  0  0  0  0  0
  186.2290  176.2200  146.9910 O   0  0  0  0  0  0  0  0  0  0  0  0
  189.4480  172.1750  142.6350 C   0  0  0  0  0  2  0  0  0  0  0  0
  190.4500  172.6510  143.6860 C   0  0  2  0  0  3  0  0  0  0  0  0
  187.2850  175.9280  142.9150 C   0  0  0  0  0  2  0  0  0  0  0  0
  188.3670  173.2040  142.3290 C   0  0  0  0  0  2  0  0  0  0  0  0
  188.1180  176.9560  145.8460 N   0  0  0  0  0  2  0  0  0  0  0  0
  186.7040  176.8030  145.9780 C   0  0  0  0  0  0  0  0  0  0  0  0
  188.9590  174.4820  141.7570 C   0  0  0  0  0  2  0  0  0  0  0  0
  182.9640  178.5500  141.8460 C   0  0  0  0  0  0  0  0  0  0  0  0
  185.5670  177.7640  141.1890 C   0  0  0  0  0  3  0  0  0  0  0  0
  184.6130  177.9300  140.1830 C   0  0  0  0  0  3  0  0  0  0  0  0
  183.5940  178.6410  144.1560 F   0  0  0  0  0  0  0  0  0  0  0  0
  183.3160  178.3260  140.5100 C   0  0  0  0  0  3  0  0  0  0  0  0
  185.2280  177.9800  142.5360 C   0  0  0  0  0  0  0  0  0  0  0  0
  183.9230  178.3850  142.8620 C   0  0  0  0  0  0  0  0  0  0  0  0
  181.5900  179.0300  142.1640 C   0  0  0  0  0  2  0  0  0  0  0  0
  180.9100  179.4070  140.9340 N   0  0  0  0  0  2  0  0  0  0  0  0
  179.3760  177.6300  139.7010 O   0  0  0  0  0  0  0  0  0  0  0  0
  179.2460  177.7580  142.1460 O   0  0  0  0  0  0  0  0  0  0  0  0
  179.4010  178.5600  140.8840 S   0  0  0  0  0  0  0  0  0  0  0  0
  178.0590  179.7280  140.7590 C   0  0  0  0  0  2  0  0  0  0  0  0
  178.6900  181.9270  137.8350 C   0  0  0  0  0  2  0  0  0  0  0  0
  177.6960  182.0300  140.5660 C   0  0  0  0  0  2  0  0  0  0  0  0
  178.5040  180.9210  140.0590 N   0  0  0  0  0  0  0  0  0  0  0  0
  177.9700  183.2930  139.7900 C   0  0  0  0  0  3  0  0  0  0  0  0
  178.3880  183.2390  138.5160 C   0  0  0  0  0  3  0  0  0  0  0  0
  178.1670  180.7390  138.6470 C   0  0  0  0  0  2  0  0  0  0  0  0
  191.2000  175.5090  148.3880 O   0  0  0  0  0  1  0  0  0  0  0  0
  190.7940  177.8150  147.9590 C   0  0  0  0  0  2  0  0  0  0  0  0
  190.4160  177.0480  146.7150 C   0  0  1  0  0  0  0  0  0  0  0  0
  191.5810  176.5680  147.5650 C   0  0  2  0  0  3  0  0  0  0  0  0
  190.7700  177.7180  145.5430 O   0  0  0  0  0  1  0  0  0  0  0  0
  191.4820  171.5550  143.8890 C   0  0  0  0  0  2  0  0  0  0  0  0
  195.7870  169.3160  145.4180 C   0  0  0  0  0  0  0  0  0  0  0  0
  193.8680  171.7950  143.7990 O   0  0  0  0  0  0  0  0  0  0  0  0
  196.5950  168.5770  145.9550 O   0  0  0  0  0  0  0  0  0  0  0  0
  193.4240  169.5350  144.6640 C   0  0  0  0  0  2  0  0  0  0  0  0
  194.6070  171.3420  145.9750 O   0  0  0  0  0  0  0  0  0  0  0  0
  195.8640  170.8070  145.6200 C   0  0  0  0  0  2  0  0  0  0  0  0
  194.7420  168.7660  144.4910 C   0  0  1  0  0  3  0  0  0  0  0  0
  193.6820  171.0210  144.9580 C   0  0  1  0  0  0  0  0  0  0  0  0
  192.7280  172.0950  144.5810 C   0  0  2  0  0  3  0  0  0  0  0  0
  195.2250  168.8520  143.0760 C   0  0  0  0  0  3  0  0  0  0  0  0
  196.2680  169.4220  142.8070 O   0  0  0  0  0  0  0  0  0  0  0  0
  1 23  1  6  0  0  0
  1  3  1  0  0  0  0
  2  7  1  0  0  0  0
  3  6  2  0  0  0  0
  3 16  1  0  0  0  0
  4  8  1  6  0  0  0
  5  1  1  0  0  0  0
  7  8  1  0  0  0  0
  9 17  1  0  0  0  0
  9 13  1  0  0  0  0
 11 12  1  0  0  0  0
 12 42  1  1  0  0  0
 12  2  1  0  0  0  0
 13  5  1  0  0  0  0
 14 11  1  0  0  0  0
 15 16  1  0  0  0  0
 15  4  1  0  0  0  0
 16 10  2  0  0  0  0
 17 14  1  0  0  0  0
 18 25  1  0  0  0  0
 18 24  1  0  0  0  0
 19 23  1  0  0  0  0
 20 22  1  0  0  0  0
 20 19  2  0  0  0  0
 22 18  2  0  0  0  0
 23 24  2  0  0  0  0
 24 21  1  0  0  0  0
 26 25  1  0  0  0  0
 27 29  2  0  0  0  0
 29 26  1  0  0  0  0
 29 28  2  0  0  0  0
 30 29  1  0  0  0  0
 31 35  1  0  0  0  0
 31 36  1  0  0  0  0
 33 32  1  0  0  0  0
 33 30  1  0  0  0  0
 34 32  1  0  0  0  0
 35 34  2  0  0  0  0
 36 33  1  0  0  0  0
 39 41  1  6  0  0  0
 39  4  1  0  0  0  0
 39 40  1  0  0  0  0
 39 38  1  0  0  0  0
 40 38  1  0  0  0  0
 40 37  1  1  0  0  0
 43 48  1  0  0  0  0
 43 45  2  0  0  0  0
 44 51  1  0  0  0  0
 44 50  1  0  0  0  0
 48 47  1  0  0  0  0
 49 52  1  6  0  0  0
 49 46  1  0  0  0  0
 49 43  1  0  0  0  0
 50 46  1  6  0  0  0
 50 47  1  0  0  0  0
 51 42  1  6  0  0  0
 51 50  1  0  0  0  0
 53 52  2  0  0  0  0
M  END
>  <MODEL>
9

>  <REMARK>
 VINA RESULT:      -6.8      4.336      7.773
  Name = 
  10 active torsions:
  status: ('A' for Active; 'I' for Inactive)
    1  A    between atoms: C_2  and  C_51
    2  A    between atoms: C_3  and  C_52
    3  A    between atoms: C_11  and  C_28
    4  A    between atoms: C_15  and  C_39
    5  A    between atoms: N_27  and  C_42
    6  A    between atoms: N_31  and  S_40
    7  A    between atoms: N_31  and  C_51
    8  A    between atoms: C_33  and  C_46
    9  A    between atoms: C_35  and  C_46
   10  A    between atoms: S_40  and  C_42
                            x       y       z     vdW  Elec       q    Type
                         _______ _______ _______ _____ _____    ______ ____

>  <TORSDO>
F 10

$$$$
