=
 OpenBabel11042416143D

 33 37  0  0  1  0  0  0  0  0999 V2000
  187.8870  177.2600  141.2070 C   0  0  0  0  0  3  0  0  0  0  0  0
  187.7770  177.9200  143.5490 C   0  0  0  0  0  3  0  0  0  0  0  0
  184.2280  178.5270  143.6370 C   0  0  0  0  0  3  0  0  0  0  0  0
  188.5310  177.4960  142.4430 C   0  0  0  0  0  0  0  0  0  0  0  0
  185.4560  178.4930  144.2930 C   0  0  0  0  0  0  0  0  0  0  0  0
  186.4030  178.0890  143.3760 C   0  0  0  0  0  0  0  0  0  0  0  0
  185.8200  177.8580  142.1920 N   0  0  0  0  0  0  0  0  0  0  0  0
  184.5080  178.1180  142.3340 C   0  0  0  0  0  0  0  0  0  0  0  0
  186.5030  177.4500  141.0920 C   0  0  0  0  0  3  0  0  0  0  0  0
  183.5620  177.9880  141.2640 N   0  0  0  0  0  2  0  0  0  0  0  0
  180.0740  179.1490  141.9900 C   0  0  0  0  0  3  0  0  0  0  0  0
  180.0680  178.6470  140.5500 C   0  0  0  0  0  3  0  0  0  0  0  0
  181.4210  178.2020  140.2820 N   0  0  0  0  0  0  0  0  0  0  0  0
  182.1800  178.3620  141.3050 C   0  0  0  0  0  0  0  0  0  0  0  0
  181.4990  178.9500  142.4830 C   0  0  0  0  0  2  0  0  0  0  0  0
  189.9350  175.3190  143.8350 O   0  0  0  0  0  0  0  0  0  0  0  0
  190.6040  176.2420  143.2920 C   0  0  0  0  0  0  0  0  0  0  0  0
  189.9430  177.3160  142.6060 N   0  0  0  0  0  2  0  0  0  0  0  0
  192.0750  176.2150  143.3610 C   0  0  0  0  0  0  0  0  0  0  0  0
  194.1020  176.5170  144.6030 N   0  0  0  0  0  0  0  0  0  0  0  0
  192.7420  176.5440  144.5490 C   0  0  0  0  0  3  0  0  0  0  0  0
  194.2300  175.8400  142.3170 C   0  0  0  0  0  3  0  0  0  0  0  0
  196.2020  176.1580  143.6120 F   0  0  0  0  0  0  0  0  0  0  0  0
  194.8510  176.1750  143.5210 C   0  0  0  0  0  0  0  0  0  0  0  0
  192.8360  175.8620  142.2410 C   0  0  0  0  0  3  0  0  0  0  0  0
  185.6980  178.8920  145.7090 C   0  0  0  0  0  2  0  0  0  0  0  0
  185.8180  177.6570  146.5800 C   0  0  0  0  0  2  0  0  0  0  0  0
  187.1500  177.6780  147.3030 C   0  0  0  0  0  2  0  0  0  0  0  0
  188.3310  175.5560  146.8880 C   0  0  0  0  0  3  0  0  0  0  0  0
  188.2110  176.9840  146.4650 C   0  0  2  0  0  3  0  0  0  0  0  0
  190.2680  176.6130  147.2840 N   0  0  0  0  0  0  0  0  0  0  0  0
  189.5570  175.3890  147.3580 C   0  0  0  0  0  3  0  0  0  0  0  0
  189.5270  177.5140  146.7880 N   0  0  0  0  0  0  0  0  0  0  0  0
  1  4  1  0  0  0  0
  3  5  1  0  0  0  0
  4 18  1  0  0  0  0
  4  2  2  0  0  0  0
  5 26  1  0  0  0  0
  6  2  1  0  0  0  0
  6  5  2  0  0  0  0
  7  8  1  0  0  0  0
  7  6  1  0  0  0  0
  8  3  2  0  0  0  0
  9  1  2  0  0  0  0
  9  7  1  0  0  0  0
 10 14  1  0  0  0  0
 10  8  1  0  0  0  0
 11 15  1  0  0  0  0
 12 11  2  0  0  0  0
 13 12  1  0  0  0  0
 13 14  2  0  0  0  0
 14 15  1  0  0  0  0
 17 19  1  0  0  0  0
 17 16  2  0  0  0  0
 18 17  1  0  0  0  0
 19 21  1  0  0  0  0
 21 20  2  0  0  0  0
 22 24  2  0  0  0  0
 24 23  1  0  0  0  0
 24 20  1  0  0  0  0
 25 22  1  0  0  0  0
 25 19  2  0  0  0  0
 26 27  1  0  0  0  0
 27 28  1  0  0  0  0
 29 32  2  0  0  0  0
 30 33  1  0  0  0  0
 30 29  1  0  0  0  0
 30 28  1  1  0  0  0
 31 32  1  0  0  0  0
 33 31  2  0  0  0  0
M  END
>  <MODEL>
1

>  <REMARK>
 VINA RESULT:      -7.8      0.000      0.000
  Name = 
  7 active torsions:
  status: ('A' for Active; 'I' for Inactive)
    1  A    between atoms: C_3  and  C_12
    2  A    between atoms: N_4  and  C_32
    3  A    between atoms: C_5  and  C_25
    4  A    between atoms: C_19  and  N_27
    5  A    between atoms: C_21  and  C_31
    6  A    between atoms: C_25  and  C_30
    7  A    between atoms: C_30  and  C_31
                            x       y       z     vdW  Elec       q    Type
                         _______ _______ _______ _____ _____    ______ ____

>  <TORSDO>
F 7

$$$$
=
 OpenBabel11042416143D

 33 37  0  0  1  0  0  0  0  0999 V2000
  189.9080  177.8940  143.6510 C   0  0  0  0  0  3  0  0  0  0  0  0
  189.0200  175.7050  144.2450 C   0  0  0  0  0  3  0  0  0  0  0  0
  192.1240  174.3120  145.4260 C   0  0  0  0  0  3  0  0  0  0  0  0
  188.8190  176.9970  143.7330 C   0  0  0  0  0  0  0  0  0  0  0  0
  190.7590  174.1720  145.1900 C   0  0  0  0  0  0  0  0  0  0  0  0
  190.3070  175.3610  144.6600 C   0  0  0  0  0  0  0  0  0  0  0  0
  191.3210  176.2330  144.5690 N   0  0  0  0  0  0  0  0  0  0  0  0
  192.4230  175.6140  145.0290 C   0  0  0  0  0  0  0  0  0  0  0  0
  191.1800  177.4910  144.0810 C   0  0  0  0  0  3  0  0  0  0  0  0
  193.7120  176.2410  145.0760 N   0  0  0  0  0  2  0  0  0  0  0  0
  195.8620  175.8360  142.0330 C   0  0  0  0  0  3  0  0  0  0  0  0
  196.6680  176.6730  143.0200 C   0  0  0  0  0  3  0  0  0  0  0  0
  195.8270  176.8220  144.1910 N   0  0  0  0  0  0  0  0  0  0  0  0
  194.7010  176.2230  144.0400 C   0  0  0  0  0  0  0  0  0  0  0  0
  194.5440  175.5410  142.7330 C   0  0  0  0  0  2  0  0  0  0  0  0
  187.6910  176.8620  141.0210 O   0  0  0  0  0  0  0  0  0  0  0  0
  186.9760  177.2890  141.9700 C   0  0  0  0  0  0  0  0  0  0  0  0
  187.5020  177.3660  143.3040 N   0  0  0  0  0  2  0  0  0  0  0  0
  185.5900  177.7120  141.7060 C   0  0  0  0  0  0  0  0  0  0  0  0
  183.8690  178.3430  140.1640 N   0  0  0  0  0  0  0  0  0  0  0  0
  185.1510  177.9520  140.3970 C   0  0  0  0  0  3  0  0  0  0  0  0
  183.3730  178.2850  142.4980 C   0  0  0  0  0  3  0  0  0  0  0  0
  181.7110  178.9020  140.9090 F   0  0  0  0  0  0  0  0  0  0  0  0
  182.9800  178.5130  141.1790 C   0  0  0  0  0  0  0  0  0  0  0  0
  184.6840  177.8840  142.7590 C   0  0  0  0  0  3  0  0  0  0  0  0
  189.9610  172.9320  145.4100 C   0  0  0  0  0  2  0  0  0  0  0  0
  190.2140  171.9490  144.2840 C   0  0  0  0  0  2  0  0  0  0  0  0
  189.0930  172.0450  143.2680 C   0  0  0  0  0  2  0  0  0  0  0  0
  191.1040  172.6120  141.9620 C   0  0  0  0  0  2  0  0  0  0  0  0
  189.6650  172.2160  141.8720 C   0  0  2  0  0  3  0  0  0  0  0  0
  189.9410  174.2560  140.9780 N   0  0  0  0  0  0  0  0  0  0  0  0
  191.2130  173.8150  141.4220 C   0  0  0  0  0  3  0  0  0  0  0  0
  189.0660  173.3730  141.2240 N   0  0  0  0  0  2  0  0  0  0  0  0
  1  4  1  0  0  0  0
  1  9  2  0  0  0  0
  2  6  1  0  0  0  0
  4  2  2  0  0  0  0
  5 26  1  0  0  0  0
  5  3  1  0  0  0  0
  6  5  2  0  0  0  0
  7  6  1  0  0  0  0
  7  8  1  0  0  0  0
  8 10  1  0  0  0  0
  8  3  2  0  0  0  0
  9  7  1  0  0  0  0
 11 15  1  0  0  0  0
 11 12  2  0  0  0  0
 12 13  1  0  0  0  0
 14 13  2  0  0  0  0
 14 10  1  0  0  0  0
 15 14  1  0  0  0  0
 16 17  2  0  0  0  0
 17 18  1  0  0  0  0
 18  4  1  0  0  0  0
 19 17  1  0  0  0  0
 19 25  1  0  0  0  0
 20 21  1  0  0  0  0
 20 24  2  0  0  0  0
 21 19  2  0  0  0  0
 22 25  2  0  0  0  0
 23 24  1  0  0  0  0
 24 22  1  0  0  0  0
 27 26  1  0  0  0  0
 28 27  1  0  0  0  0
 30 29  1  0  0  0  0
 30 28  1  1  0  0  0
 31 33  1  0  0  0  0
 31 32  2  0  0  0  0
 32 29  1  0  0  0  0
 33 30  1  0  0  0  0
M  END
>  <MODEL>
2

>  <REMARK>
 VINA RESULT:      -7.8      3.568      9.222
  Name = 
  7 active torsions:
  status: ('A' for Active; 'I' for Inactive)
    1  A    between atoms: C_3  and  C_12
    2  A    between atoms: N_4  and  C_32
    3  A    between atoms: C_5  and  C_25
    4  A    between atoms: C_19  and  N_27
    5  A    between atoms: C_21  and  C_31
    6  A    between atoms: C_25  and  C_30
    7  A    between atoms: C_30  and  C_31
                            x       y       z     vdW  Elec       q    Type
                         _______ _______ _______ _____ _____    ______ ____

>  <TORSDO>
F 7

$$$$
=
 OpenBabel11042416143D

 33 37  0  0  1  0  0  0  0  0999 V2000
  191.5580  176.9330  144.4760 C   0  0  0  0  0  3  0  0  0  0  0  0
  190.5540  175.6800  142.6460 C   0  0  0  0  0  3  0  0  0  0  0  0
  193.6060  174.1950  141.4430 C   0  0  0  0  0  3  0  0  0  0  0  0
  190.4160  176.5580  143.7320 C   0  0  0  0  0  0  0  0  0  0  0  0
  192.2260  174.3480  141.3430 C   0  0  0  0  0  0  0  0  0  0  0  0
  191.8310  175.2070  142.3460 C   0  0  0  0  0  0  0  0  0  0  0  0
  192.8950  175.5810  143.0700 N   0  0  0  0  0  0  0  0  0  0  0  0
  193.9730  174.9780  142.5370 C   0  0  0  0  0  0  0  0  0  0  0  0
  192.8170  176.4280  144.1270 C   0  0  0  0  0  3  0  0  0  0  0  0
  195.3020  175.1510  143.0480 N   0  0  0  0  0  2  0  0  0  0  0  0
  196.3090  172.8710  145.8460 C   0  0  0  0  0  3  0  0  0  0  0  0
  197.5120  173.7670  145.5690 C   0  0  0  0  0  3  0  0  0  0  0  0
  197.1100  174.6420  144.4870 N   0  0  0  0  0  0  0  0  0  0  0  0
  195.9060  174.4020  144.1090 C   0  0  0  0  0  0  0  0  0  0  0  0
  195.2390  173.3100  144.8580 C   0  0  0  0  0  2  0  0  0  0  0  0
  188.6680  175.7570  145.9570 O   0  0  0  0  0  0  0  0  0  0  0  0
  188.2760  176.6420  145.1470 C   0  0  0  0  0  0  0  0  0  0  0  0
  189.1100  177.0520  144.0520 N   0  0  0  0  0  2  0  0  0  0  0  0
  186.9510  177.2610  145.3280 C   0  0  0  0  0  0  0  0  0  0  0  0
  185.3730  178.9820  144.7950 N   0  0  0  0  0  0  0  0  0  0  0  0
  186.5990  178.4170  144.6200 C   0  0  0  0  0  3  0  0  0  0  0  0
  184.7670  177.3010  146.3780 C   0  0  0  0  0  3  0  0  0  0  0  0
  183.2490  179.0410  145.7990 F   0  0  0  0  0  0  0  0  0  0  0  0
  184.4600  178.4520  145.6510 C   0  0  0  0  0  0  0  0  0  0  0  0
  186.0190  176.7070  146.2130 C   0  0  0  0  0  3  0  0  0  0  0  0
  191.3570  173.7430  140.2930 C   0  0  0  0  0  2  0  0  0  0  0  0
  191.0870  172.2880  140.6210 C   0  0  0  0  0  2  0  0  0  0  0  0
  189.7810  172.1760  141.3820 C   0  0  0  0  0  2  0  0  0  0  0  0
  189.4700  172.2420  143.8250 C   0  0  0  0  0  3  0  0  0  0  0  0
  189.9970  171.4300  142.6870 C   0  0  2  0  0  3  0  0  0  0  0  0
  191.6830  171.9760  144.0650 N   0  0  0  0  0  0  0  0  0  0  0  0
  190.4970  172.5350  144.6060 C   0  0  0  0  0  3  0  0  0  0  0  0
  191.4180  171.3560  142.9920 N   0  0  0  0  0  0  0  0  0  0  0  0
  2  4  2  0  0  0  0
  3  8  2  0  0  0  0
  4 18  1  0  0  0  0
  4  1  1  0  0  0  0
  5  3  1  0  0  0  0
  5  6  2  0  0  0  0
  6  2  1  0  0  0  0
  6  7  1  0  0  0  0
  7  9  1  0  0  0  0
  8 10  1  0  0  0  0
  8  7  1  0  0  0  0
  9  1  2  0  0  0  0
 10 14  1  0  0  0  0
 12 11  2  0  0  0  0
 13 12  1  0  0  0  0
 14 13  2  0  0  0  0
 14 15  1  0  0  0  0
 15 11  1  0  0  0  0
 17 19  1  0  0  0  0
 17 16  2  0  0  0  0
 18 17  1  0  0  0  0
 19 25  1  0  0  0  0
 20 24  2  0  0  0  0
 21 20  1  0  0  0  0
 21 19  2  0  0  0  0
 24 23  1  0  0  0  0
 24 22  1  0  0  0  0
 25 22  2  0  0  0  0
 26 27  1  0  0  0  0
 26  5  1  0  0  0  0
 27 28  1  0  0  0  0
 29 32  2  0  0  0  0
 30 28  1  6  0  0  0
 30 33  1  0  0  0  0
 30 29  1  0  0  0  0
 31 32  1  0  0  0  0
 33 31  2  0  0  0  0
M  END
>  <MODEL>
3

>  <REMARK>
 VINA RESULT:      -7.8      3.799      9.657
  Name = 
  7 active torsions:
  status: ('A' for Active; 'I' for Inactive)
    1  A    between atoms: C_3  and  C_12
    2  A    between atoms: N_4  and  C_32
    3  A    between atoms: C_5  and  C_25
    4  A    between atoms: C_19  and  N_27
    5  A    between atoms: C_21  and  C_31
    6  A    between atoms: C_25  and  C_30
    7  A    between atoms: C_30  and  C_31
                            x       y       z     vdW  Elec       q    Type
                         _______ _______ _______ _____ _____    ______ ____

>  <TORSDO>
F 7

$$$$
=
 OpenBabel11042416143D

 33 37  0  0  1  0  0  0  0  0999 V2000
  191.4250  176.6170  145.5310 C   0  0  0  0  0  3  0  0  0  0  0  0
  190.4120  174.4590  145.0300 C   0  0  0  0  0  3  0  0  0  0  0  0
  193.4910  172.6940  144.4190 C   0  0  0  0  0  3  0  0  0  0  0  0
  190.2730  175.8120  145.3810 C   0  0  0  0  0  0  0  0  0  0  0  0
  192.1010  172.6890  144.5010 C   0  0  0  0  0  0  0  0  0  0  0  0
  191.7030  173.9620  144.8450 C   0  0  0  0  0  0  0  0  0  0  0  0
  192.7760  174.7510  144.9940 N   0  0  0  0  0  0  0  0  0  0  0  0
  193.8620  173.9990  144.7410 C   0  0  0  0  0  0  0  0  0  0  0  0
  192.6960  176.0630  145.3300 C   0  0  0  0  0  3  0  0  0  0  0  0
  195.2010  174.5110  144.7960 N   0  0  0  0  0  2  0  0  0  0  0  0
  196.3380  176.4890  141.8230 C   0  0  0  0  0  3  0  0  0  0  0  0
  197.5110  176.4660  142.7970 C   0  0  0  0  0  3  0  0  0  0  0  0
  197.0590  175.6990  143.9400 N   0  0  0  0  0  0  0  0  0  0  0  0
  195.8510  175.2900  143.7850 C   0  0  0  0  0  0  0  0  0  0  0  0
  195.2320  175.6950  142.5000 C   0  0  0  0  0  2  0  0  0  0  0  0
  188.8440  177.7830  143.7320 O   0  0  0  0  0  0  0  0  0  0  0  0
  188.2780  177.3010  144.7520 C   0  0  0  0  0  0  0  0  0  0  0  0
  188.9540  176.3360  145.5740 N   0  0  0  0  0  2  0  0  0  0  0  0
  186.9130  177.7300  145.1010 C   0  0  0  0  0  0  0  0  0  0  0  0
  184.9040  177.4340  146.3720 N   0  0  0  0  0  0  0  0  0  0  0  0
  186.1650  177.0300  146.0570 C   0  0  0  0  0  3  0  0  0  0  0  0
  185.0400  179.2420  144.8200 C   0  0  0  0  0  3  0  0  0  0  0  0
  183.0760  178.8880  146.1170 F   0  0  0  0  0  0  0  0  0  0  0  0
  184.3330  178.5150  145.7780 C   0  0  0  0  0  0  0  0  0  0  0  0
  186.3350  178.8440  144.4820 C   0  0  0  0  0  3  0  0  0  0  0  0
  191.2160  171.5270  144.1980 C   0  0  0  0  0  2  0  0  0  0  0  0
  190.7410  171.6020  142.7610 C   0  0  0  0  0  2  0  0  0  0  0  0
  189.2450  171.8430  142.7370 C   0  0  0  0  0  2  0  0  0  0  0  0
  189.9770  173.7770  141.3970 C   0  0  0  0  0  3  0  0  0  0  0  0
  188.8830  172.7770  141.5950 C   0  0  2  0  0  3  0  0  0  0  0  0
  188.0980  174.8420  141.9970 N   0  0  0  0  0  0  0  0  0  0  0  0
  189.4640  174.9720  141.6420 C   0  0  0  0  0  3  0  0  0  0  0  0
  187.7600  173.6200  141.9750 N   0  0  0  0  0  0  0  0  0  0  0  0
  2  4  2  0  0  0  0
  3  5  1  0  0  0  0
  3  8  2  0  0  0  0
  4  1  1  0  0  0  0
  4 18  1  0  0  0  0
  5  6  2  0  0  0  0
  6  7  1  0  0  0  0
  6  2  1  0  0  0  0
  7  9  1  0  0  0  0
  8 10  1  0  0  0  0
  8  7  1  0  0  0  0
  9  1  2  0  0  0  0
 11 15  1  0  0  0  0
 11 12  2  0  0  0  0
 12 13  1  0  0  0  0
 14 13  2  0  0  0  0
 14 10  1  0  0  0  0
 15 14  1  0  0  0  0
 16 17  2  0  0  0  0
 17 19  1  0  0  0  0
 17 18  1  0  0  0  0
 19 21  1  0  0  0  0
 21 20  2  0  0  0  0
 22 24  2  0  0  0  0
 24 23  1  0  0  0  0
 24 20  1  0  0  0  0
 25 22  1  0  0  0  0
 25 19  2  0  0  0  0
 26  5  1  0  0  0  0
 27 26  1  0  0  0  0
 28 27  1  0  0  0  0
 29 30  1  0  0  0  0
 29 32  2  0  0  0  0
 30 33  1  0  0  0  0
 30 28  1  1  0  0  0
 32 31  1  0  0  0  0
 33 31  2  0  0  0  0
M  END
>  <MODEL>
4

>  <REMARK>
 VINA RESULT:      -7.7      3.903      9.578
  Name = 
  7 active torsions:
  status: ('A' for Active; 'I' for Inactive)
    1  A    between atoms: C_3  and  C_12
    2  A    between atoms: N_4  and  C_32
    3  A    between atoms: C_5  and  C_25
    4  A    between atoms: C_19  and  N_27
    5  A    between atoms: C_21  and  C_31
    6  A    between atoms: C_25  and  C_30
    7  A    between atoms: C_30  and  C_31
                            x       y       z     vdW  Elec       q    Type
                         _______ _______ _______ _____ _____    ______ ____

>  <TORSDO>
F 7

$$$$
=
 OpenBabel11042416143D

 33 37  0  0  1  0  0  0  0  0999 V2000
  189.2040  175.4550  141.6550 C   0  0  0  0  0  3  0  0  0  0  0  0
  188.4590  175.5570  143.9720 C   0  0  0  0  0  3  0  0  0  0  0  0
  191.5010  174.3050  145.4360 C   0  0  0  0  0  3  0  0  0  0  0  0
  188.2020  175.7540  142.6050 C   0  0  0  0  0  0  0  0  0  0  0  0
  190.2060  174.7910  145.5930 C   0  0  0  0  0  0  0  0  0  0  0  0
  189.7140  175.0680  144.3360 C   0  0  0  0  0  0  0  0  0  0  0  0
  190.6440  174.7920  143.4120 N   0  0  0  0  0  0  0  0  0  0  0  0
  191.7280  174.3320  144.0610 C   0  0  0  0  0  0  0  0  0  0  0  0
  190.4460  174.9630  142.0800 C   0  0  0  0  0  3  0  0  0  0  0  0
  192.9290  173.9250  143.3910 N   0  0  0  0  0  2  0  0  0  0  0  0
  195.7940  176.3370  143.5190 C   0  0  0  0  0  3  0  0  0  0  0  0
  196.2820  175.1340  142.7200 C   0  0  0  0  0  3  0  0  0  0  0  0
  195.1670  174.2100  142.6780 N   0  0  0  0  0  0  0  0  0  0  0  0
  194.1470  174.6740  143.3050 C   0  0  0  0  0  0  0  0  0  0  0  0
  194.3590  176.0140  143.9050 C   0  0  0  0  0  2  0  0  0  0  0  0
  187.1350  178.4730  142.9510 O   0  0  0  0  0  0  0  0  0  0  0  0
  186.4200  177.5920  142.3980 C   0  0  0  0  0  0  0  0  0  0  0  0
  186.9170  176.2560  142.2160 N   0  0  0  0  0  2  0  0  0  0  0  0
  185.0660  177.9370  141.9320 C   0  0  0  0  0  0  0  0  0  0  0  0
  182.8150  178.6070  142.4060 N   0  0  0  0  0  0  0  0  0  0  0  0
  184.0640  178.2910  142.8450 C   0  0  0  0  0  3  0  0  0  0  0  0
  183.4670  178.2440  140.1380 C   0  0  0  0  0  3  0  0  0  0  0  0
  181.2470  178.9120  140.6820 F   0  0  0  0  0  0  0  0  0  0  0  0
  182.5000  178.5910  141.0830 C   0  0  0  0  0  0  0  0  0  0  0  0
  184.7530  177.9160  140.5680 C   0  0  0  0  0  3  0  0  0  0  0  0
  189.4730  174.9150  146.8860 C   0  0  0  0  0  2  0  0  0  0  0  0
  188.9530  176.3290  147.0510 C   0  0  0  0  0  2  0  0  0  0  0  0
  187.4530  176.2930  147.2660 C   0  0  0  0  0  2  0  0  0  0  0  0
  186.2980  178.4590  147.4720 C   0  0  0  0  0  2  0  0  0  0  0  0
  186.7880  177.4280  146.5080 C   0  0  2  0  0  3  0  0  0  0  0  0
  184.5510  177.5770  146.3790 N   0  0  0  0  0  0  0  0  0  0  0  0
  184.9810  178.5100  147.3560 C   0  0  0  0  0  3  0  0  0  0  0  0
  185.5510  176.9640  145.8970 N   0  0  0  0  0  2  0  0  0  0  0  0
  1  9  2  0  0  0  0
  1  4  1  0  0  0  0
  2  6  1  0  0  0  0
  3  5  1  0  0  0  0
  4  2  2  0  0  0  0
  5 26  1  0  0  0  0
  6  5  2  0  0  0  0
  7  8  1  0  0  0  0
  7  6  1  0  0  0  0
  8  3  2  0  0  0  0
  9  7  1  0  0  0  0
 10  8  1  0  0  0  0
 11 15  1  0  0  0  0
 12 11  2  0  0  0  0
 13 12  1  0  0  0  0
 13 14  2  0  0  0  0
 14 10  1  0  0  0  0
 14 15  1  0  0  0  0
 17 16  2  0  0  0  0
 18 17  1  0  0  0  0
 18  4  1  0  0  0  0
 19 17  1  0  0  0  0
 19 21  1  0  0  0  0
 20 21  2  0  0  0  0
 22 25  1  0  0  0  0
 22 24  2  0  0  0  0
 23 24  1  0  0  0  0
 24 20  1  0  0  0  0
 25 19  2  0  0  0  0
 26 27  1  0  0  0  0
 27 28  1  0  0  0  0
 30 28  1  1  0  0  0
 30 29  1  0  0  0  0
 31 32  2  0  0  0  0
 32 29  1  0  0  0  0
 33 31  1  0  0  0  0
 33 30  1  0  0  0  0
M  END
>  <MODEL>
5

>  <REMARK>
 VINA RESULT:      -7.4      3.413      8.762
  Name = 
  7 active torsions:
  status: ('A' for Active; 'I' for Inactive)
    1  A    between atoms: C_3  and  C_12
    2  A    between atoms: N_4  and  C_32
    3  A    between atoms: C_5  and  C_25
    4  A    between atoms: C_19  and  N_27
    5  A    between atoms: C_21  and  C_31
    6  A    between atoms: C_25  and  C_30
    7  A    between atoms: C_30  and  C_31
                            x       y       z     vdW  Elec       q    Type
                         _______ _______ _______ _____ _____    ______ ____

>  <TORSDO>
F 7

$$$$
=
 OpenBabel11042416143D

 33 37  0  0  1  0  0  0  0  0999 V2000
  187.8020  174.6250  141.7660 C   0  0  0  0  0  3  0  0  0  0  0  0
  190.1690  175.0820  142.1140 C   0  0  0  0  0  3  0  0  0  0  0  0
  189.7230  178.0240  144.1430 C   0  0  0  0  0  3  0  0  0  0  0  0
  189.1580  174.2890  141.5480 C   0  0  0  0  0  0  0  0  0  0  0  0
  190.5730  177.1050  143.5330 C   0  0  0  0  0  0  0  0  0  0  0  0
  189.7840  176.1820  142.8810 C   0  0  0  0  0  0  0  0  0  0  0  0
  188.4900  176.4760  143.0690 N   0  0  0  0  0  0  0  0  0  0  0  0
  188.4380  177.5840  143.8290 C   0  0  0  0  0  0  0  0  0  0  0  0
  187.4750  175.7440  142.5430 C   0  0  0  0  0  3  0  0  0  0  0  0
  187.2080  178.2030  144.2310 N   0  0  0  0  0  2  0  0  0  0  0  0
  185.9240  177.2800  147.6290 C   0  0  0  0  0  3  0  0  0  0  0  0
  184.9200  178.2680  147.0440 C   0  0  0  0  0  3  0  0  0  0  0  0
  185.4270  178.6160  145.7320 N   0  0  0  0  0  0  0  0  0  0  0  0
  186.5280  178.0060  145.4760 C   0  0  0  0  0  0  0  0  0  0  0  0
  186.9980  177.1140  146.5640 C   0  0  0  0  0  2  0  0  0  0  0  0
  188.6480  173.8130  138.6920 O   0  0  0  0  0  0  0  0  0  0  0  0
  189.2760  172.9480  139.3630 C   0  0  0  0  0  0  0  0  0  0  0  0
  189.5380  173.1550  140.7590 N   0  0  0  0  0  2  0  0  0  0  0  0
  189.7450  171.7150  138.7070 C   0  0  0  0  0  0  0  0  0  0  0  0
  190.6930  169.5190  138.8470 N   0  0  0  0  0  0  0  0  0  0  0  0
  190.2610  170.6540  139.4620 C   0  0  0  0  0  3  0  0  0  0  0  0
  190.1320  170.4080  136.7030 C   0  0  0  0  0  3  0  0  0  0  0  0
  191.0770  168.2330  136.9170 F   0  0  0  0  0  0  0  0  0  0  0  0
  190.6390  169.3770  137.4960 C   0  0  0  0  0  0  0  0  0  0  0  0
  189.6850  171.5800  137.3150 C   0  0  0  0  0  3  0  0  0  0  0  0
  192.0620  177.1630  143.5340 C   0  0  0  0  0  2  0  0  0  0  0  0
  192.5930  176.7880  144.9030 C   0  0  0  0  0  2  0  0  0  0  0  0
  192.7310  175.2810  144.9950 C   0  0  0  0  0  2  0  0  0  0  0  0
  190.7060  174.1210  145.7840 C   0  0  0  0  0  3  0  0  0  0  0  0
  191.9860  174.7600  146.2130 C   0  0  2  0  0  3  0  0  0  0  0  0
  190.2520  175.8930  147.0780 N   0  0  0  0  0  0  0  0  0  0  0  0
  189.7190  174.8210  146.3200 C   0  0  0  0  0  3  0  0  0  0  0  0
  191.5190  175.8720  147.0270 N   0  0  0  0  0  0  0  0  0  0  0  0
  1  9  2  0  0  0  0
  2  6  1  0  0  0  0
  4  1  1  0  0  0  0
  4  2  2  0  0  0  0
  5 26  1  0  0  0  0
  5  3  1  0  0  0  0
  6  7  1  0  0  0  0
  6  5  2  0  0  0  0
  7  8  1  0  0  0  0
  8  3  2  0  0  0  0
  8 10  1  0  0  0  0
  9  7  1  0  0  0  0
 10 14  1  0  0  0  0
 12 11  2  0  0  0  0
 13 12  1  0  0  0  0
 14 13  2  0  0  0  0
 14 15  1  0  0  0  0
 15 11  1  0  0  0  0
 16 17  2  0  0  0  0
 17 18  1  0  0  0  0
 18  4  1  0  0  0  0
 19 17  1  0  0  0  0
 19 21  1  0  0  0  0
 20 21  2  0  0  0  0
 22 25  1  0  0  0  0
 22 24  2  0  0  0  0
 23 24  1  0  0  0  0
 24 20  1  0  0  0  0
 25 19  2  0  0  0  0
 26 27  1  0  0  0  0
 27 28  1  0  0  0  0
 29 30  1  0  0  0  0
 29 32  2  0  0  0  0
 30 28  1  6  0  0  0
 30 33  1  0  0  0  0
 32 31  1  0  0  0  0
 33 31  2  0  0  0  0
M  END
>  <MODEL>
6

>  <REMARK>
 VINA RESULT:      -7.4      4.367      6.183
  Name = 
  7 active torsions:
  status: ('A' for Active; 'I' for Inactive)
    1  A    between atoms: C_3  and  C_12
    2  A    between atoms: N_4  and  C_32
    3  A    between atoms: C_5  and  C_25
    4  A    between atoms: C_19  and  N_27
    5  A    between atoms: C_21  and  C_31
    6  A    between atoms: C_25  and  C_30
    7  A    between atoms: C_30  and  C_31
                            x       y       z     vdW  Elec       q    Type
                         _______ _______ _______ _____ _____    ______ ____

>  <TORSDO>
F 7

$$$$
=
 OpenBabel11042416143D

 33 37  0  0  1  0  0  0  0  0999 V2000
  188.1780  174.8370  141.3230 C   0  0  0  0  0  3  0  0  0  0  0  0
  189.8090  173.9060  142.8740 C   0  0  0  0  0  3  0  0  0  0  0  0
  189.4110  176.4060  145.4360 C   0  0  0  0  0  3  0  0  0  0  0  0
  189.1330  173.8460  141.6450 C   0  0  0  0  0  0  0  0  0  0  0  0
  190.0210  175.2390  144.9830 C   0  0  0  0  0  0  0  0  0  0  0  0
  189.5020  174.9580  143.7370 C   0  0  0  0  0  0  0  0  0  0  0  0
  188.5930  175.8840  143.4030 N   0  0  0  0  0  0  0  0  0  0  0  0
  188.5260  176.7640  144.4190 C   0  0  0  0  0  0  0  0  0  0  0  0
  187.9130  175.8730  142.2290 C   0  0  0  0  0  3  0  0  0  0  0  0
  187.6590  177.9050  144.4130 N   0  0  0  0  0  2  0  0  0  0  0  0
  184.4910  177.5870  146.3900 C   0  0  0  0  0  3  0  0  0  0  0  0
  184.4760  178.9840  145.7770 C   0  0  0  0  0  3  0  0  0  0  0  0
  185.7050  179.0940  145.0170 N   0  0  0  0  0  0  0  0  0  0  0  0
  186.4020  178.0180  145.0910 C   0  0  0  0  0  0  0  0  0  0  0  0
  185.7900  176.9510  145.9190 C   0  0  0  0  0  2  0  0  0  0  0  0
  191.3060  173.6900  139.6700 O   0  0  0  0  0  0  0  0  0  0  0  0
  190.5070  172.7200  139.7910 C   0  0  0  0  0  0  0  0  0  0  0  0
  189.4370  172.7700  140.7480 N   0  0  0  0  0  2  0  0  0  0  0  0
  190.6750  171.5260  138.9450 C   0  0  0  0  0  0  0  0  0  0  0  0
  192.0970  169.9330  137.8600 N   0  0  0  0  0  0  0  0  0  0  0  0
  191.9520  171.0360  138.6440 C   0  0  0  0  0  3  0  0  0  0  0  0
  189.7310  169.7280  137.6230 C   0  0  0  0  0  3  0  0  0  0  0  0
  191.2040  168.1800  136.5740 F   0  0  0  0  0  0  0  0  0  0  0  0
  191.0220  169.2760  137.3490 C   0  0  0  0  0  0  0  0  0  0  0  0
  189.5610  170.8590  138.4240 C   0  0  0  0  0  3  0  0  0  0  0  0
  191.0900  174.4830  145.6950 C   0  0  0  0  0  2  0  0  0  0  0  0
  191.6120  175.3010  146.8590 C   0  0  0  0  0  2  0  0  0  0  0  0
  192.9170  175.9640  146.4650 C   0  0  0  0  0  2  0  0  0  0  0  0
  194.8350  174.6270  145.6880 C   0  0  0  0  0  2  0  0  0  0  0  0
  193.5350  175.2410  145.2810 C   0  0  2  0  0  3  0  0  0  0  0  0
  195.2070  176.1700  144.1050 N   0  0  0  0  0  0  0  0  0  0  0  0
  195.7830  175.2040  144.9680 C   0  0  0  0  0  3  0  0  0  0  0  0
  193.9500  176.2020  144.2690 N   0  0  0  0  0  2  0  0  0  0  0  0
  1  4  1  0  0  0  0
  1  9  2  0  0  0  0
  2  6  1  0  0  0  0
  4  2  2  0  0  0  0
  5  3  1  0  0  0  0
  5 26  1  0  0  0  0
  6  5  2  0  0  0  0
  7  6  1  0  0  0  0
  7  8  1  0  0  0  0
  8  3  2  0  0  0  0
  9  7  1  0  0  0  0
 10  8  1  0  0  0  0
 10 14  1  0  0  0  0
 12 11  2  0  0  0  0
 13 14  2  0  0  0  0
 13 12  1  0  0  0  0
 14 15  1  0  0  0  0
 15 11  1  0  0  0  0
 16 17  2  0  0  0  0
 17 18  1  0  0  0  0
 18  4  1  0  0  0  0
 19 17  1  0  0  0  0
 20 21  2  0  0  0  0
 21 19  1  0  0  0  0
 22 25  1  0  0  0  0
 23 24  1  0  0  0  0
 24 22  2  0  0  0  0
 24 20  1  0  0  0  0
 25 19  2  0  0  0  0
 26 27  1  0  0  0  0
 28 27  1  0  0  0  0
 30 29  1  0  0  0  0
 30 28  1  1  0  0  0
 31 33  1  0  0  0  0
 31 32  2  0  0  0  0
 32 29  1  0  0  0  0
 33 30  1  0  0  0  0
M  END
>  <MODEL>
7

>  <REMARK>
 VINA RESULT:      -7.4      4.422      6.376
  Name = 
  7 active torsions:
  status: ('A' for Active; 'I' for Inactive)
    1  A    between atoms: C_3  and  C_12
    2  A    between atoms: N_4  and  C_32
    3  A    between atoms: C_5  and  C_25
    4  A    between atoms: C_19  and  N_27
    5  A    between atoms: C_21  and  C_31
    6  A    between atoms: C_25  and  C_30
    7  A    between atoms: C_30  and  C_31
                            x       y       z     vdW  Elec       q    Type
                         _______ _______ _______ _____ _____    ______ ____

>  <TORSDO>
F 7

$$$$
=
 OpenBabel11042416143D

 33 37  0  0  1  0  0  0  0  0999 V2000
  190.3260  177.0830  144.8720 C   0  0  0  0  0  3  0  0  0  0  0  0
  190.2570  175.5770  142.9590 C   0  0  0  0  0  3  0  0  0  0  0  0
  187.0650  176.6660  141.6960 C   0  0  0  0  0  3  0  0  0  0  0  0
  190.9190  176.0590  144.0990 C   0  0  0  0  0  0  0  0  0  0  0  0
  188.1850  175.8470  141.5800 C   0  0  0  0  0  0  0  0  0  0  0  0
  189.0240  176.1420  142.6330 C   0  0  0  0  0  0  0  0  0  0  0  0
  188.4860  177.1120  143.3860 N   0  0  0  0  0  0  0  0  0  0  0  0
  187.3050  177.4390  142.8320 C   0  0  0  0  0  0  0  0  0  0  0  0
  189.0830  177.6110  144.4970 C   0  0  0  0  0  3  0  0  0  0  0  0
  186.4350  178.4430  143.3730 N   0  0  0  0  0  2  0  0  0  0  0  0
  184.5200  177.4890  146.4500 C   0  0  0  0  0  3  0  0  0  0  0  0
  184.1190  178.9230  146.1230 C   0  0  0  0  0  3  0  0  0  0  0  0
  184.8660  179.2800  144.9330 N   0  0  0  0  0  0  0  0  0  0  0  0
  185.6080  178.3100  144.5350 C   0  0  0  0  0  0  0  0  0  0  0  0
  185.5200  177.0910  145.3750 C   0  0  0  0  0  2  0  0  0  0  0  0
  191.4760  173.3580  145.1200 O   0  0  0  0  0  0  0  0  0  0  0  0
  192.4310  174.1630  144.9440 C   0  0  0  0  0  0  0  0  0  0  0  0
  192.1880  175.4880  144.4460 N   0  0  0  0  0  2  0  0  0  0  0  0
  193.8090  173.7400  145.2500 C   0  0  0  0  0  0  0  0  0  0  0  0
  195.4290  172.0010  145.5500 N   0  0  0  0  0  0  0  0  0  0  0  0
  194.1530  172.3820  145.2650 C   0  0  0  0  0  3  0  0  0  0  0  0
  196.1020  174.2750  145.8220 C   0  0  0  0  0  3  0  0  0  0  0  0
  197.6590  172.4960  146.1040 F   0  0  0  0  0  0  0  0  0  0  0  0
  196.4000  172.9120  145.8260 C   0  0  0  0  0  0  0  0  0  0  0  0
  194.8000  174.6870  145.5330 C   0  0  0  0  0  3  0  0  0  0  0  0
  188.3910  174.7980  140.5410 C   0  0  0  0  0  2  0  0  0  0  0  0
  188.2320  173.4220  141.1580 C   0  0  0  0  0  2  0  0  0  0  0  0
  189.3940  172.5440  140.7420 C   0  0  0  0  0  2  0  0  0  0  0  0
  191.6740  172.4900  141.6750 C   0  0  0  0  0  3  0  0  0  0  0  0
  190.2380  172.1830  141.9520 C   0  0  2  0  0  3  0  0  0  0  0  0
  191.4360  170.2850  142.0020 N   0  0  0  0  0  0  0  0  0  0  0  0
  192.3340  171.3440  141.7170 C   0  0  0  0  0  3  0  0  0  0  0  0
  190.2600  170.7400  142.1350 N   0  0  0  0  0  0  0  0  0  0  0  0
  2  4  2  0  0  0  0
  3  8  2  0  0  0  0
  4 18  1  0  0  0  0
  4  1  1  0  0  0  0
  5  3  1  0  0  0  0
  5  6  2  0  0  0  0
  6  2  1  0  0  0  0
  6  7  1  0  0  0  0
  7  9  1  0  0  0  0
  8 10  1  0  0  0  0
  8  7  1  0  0  0  0
  9  1  2  0  0  0  0
 10 14  1  0  0  0  0
 12 11  2  0  0  0  0
 13 12  1  0  0  0  0
 14 13  2  0  0  0  0
 14 15  1  0  0  0  0
 15 11  1  0  0  0  0
 17 16  2  0  0  0  0
 17 19  1  0  0  0  0
 18 17  1  0  0  0  0
 19 21  2  0  0  0  0
 19 25  1  0  0  0  0
 20 24  2  0  0  0  0
 21 20  1  0  0  0  0
 22 24  1  0  0  0  0
 24 23  1  0  0  0  0
 25 22  2  0  0  0  0
 26 27  1  0  0  0  0
 26  5  1  0  0  0  0
 28 27  1  0  0  0  0
 29 32  2  0  0  0  0
 29 30  1  0  0  0  0
 30 28  1  6  0  0  0
 30 33  1  0  0  0  0
 31 33  2  0  0  0  0
 32 31  1  0  0  0  0
M  END
>  <MODEL>
8

>  <REMARK>
 VINA RESULT:      -7.3      3.270      5.339
  Name = 
  7 active torsions:
  status: ('A' for Active; 'I' for Inactive)
    1  A    between atoms: C_3  and  C_12
    2  A    between atoms: N_4  and  C_32
    3  A    between atoms: C_5  and  C_25
    4  A    between atoms: C_19  and  N_27
    5  A    between atoms: C_21  and  C_31
    6  A    between atoms: C_25  and  C_30
    7  A    between atoms: C_30  and  C_31
                            x       y       z     vdW  Elec       q    Type
                         _______ _______ _______ _____ _____    ______ ____

>  <TORSDO>
F 7

$$$$
=
 OpenBabel11042416143D

 33 37  0  0  1  0  0  0  0  0999 V2000
  191.3750  176.5140  143.9050 C   0  0  0  0  0  3  0  0  0  0  0  0
  190.1640  174.4910  143.2950 C   0  0  0  0  0  3  0  0  0  0  0  0
  193.0550  172.5400  142.3970 C   0  0  0  0  0  3  0  0  0  0  0  0
  190.1550  175.8190  143.7530 C   0  0  0  0  0  0  0  0  0  0  0  0
  191.6740  172.6390  142.5490 C   0  0  0  0  0  0  0  0  0  0  0  0
  191.3990  173.9090  143.0080 C   0  0  0  0  0  0  0  0  0  0  0  0
  192.5400  174.5950  143.1610 N   0  0  0  0  0  0  0  0  0  0  0  0
  193.5470  173.7810  142.7970 C   0  0  0  0  0  0  0  0  0  0  0  0
  192.5860  175.8780  143.5980 C   0  0  0  0  0  3  0  0  0  0  0  0
  194.9250  174.1780  142.8220 N   0  0  0  0  0  2  0  0  0  0  0  0
  196.7870  173.4980  146.0020 C   0  0  0  0  0  3  0  0  0  0  0  0
  197.7830  174.1580  145.0540 C   0  0  0  0  0  3  0  0  0  0  0  0
  197.0520  174.4150  143.8300 N   0  0  0  0  0  0  0  0  0  0  0  0
  195.8320  174.0220  143.9190 C   0  0  0  0  0  0  0  0  0  0  0  0
  195.4820  173.4140  145.2250 C   0  0  0  0  0  2  0  0  0  0  0  0
  188.8470  176.0900  146.3730 O   0  0  0  0  0  0  0  0  0  0  0  0
  188.2770  176.5490  145.3440 C   0  0  0  0  0  0  0  0  0  0  0  0
  188.8940  176.4300  144.0530 N   0  0  0  0  0  2  0  0  0  0  0  0
  186.9690  177.2140  145.4700 C   0  0  0  0  0  0  0  0  0  0  0  0
  184.8220  177.3920  146.5190 N   0  0  0  0  0  0  0  0  0  0  0  0
  186.0280  176.7720  146.4100 C   0  0  0  0  0  3  0  0  0  0  0  0
  185.3950  178.9230  144.7780 C   0  0  0  0  0  3  0  0  0  0  0  0
  183.2800  179.0420  145.8650 F   0  0  0  0  0  0  0  0  0  0  0  0
  184.4900  178.4480  145.7290 C   0  0  0  0  0  0  0  0  0  0  0  0
  186.6380  178.3000  144.6510 C   0  0  0  0  0  3  0  0  0  0  0  0
  190.6830  171.5800  142.2050 C   0  0  0  0  0  2  0  0  0  0  0  0
  190.3870  171.6120  140.7190 C   0  0  0  0  0  2  0  0  0  0  0  0
  189.0960  172.3690  140.4780 C   0  0  0  0  0  2  0  0  0  0  0  0
  188.3030  173.8800  138.7000 C   0  0  0  0  0  2  0  0  0  0  0  0
  189.3750  173.6530  139.7160 C   0  0  2  0  0  3  0  0  0  0  0  0
  190.2670  173.6040  137.6560 N   0  0  0  0  0  0  0  0  0  0  0  0
  188.8780  173.8440  137.5090 C   0  0  0  0  0  3  0  0  0  0  0  0
  190.5590  173.4940  138.8850 N   0  0  0  0  0  2  0  0  0  0  0  0
  2  4  2  0  0  0  0
  3  5  1  0  0  0  0
  3  8  2  0  0  0  0
  4  1  1  0  0  0  0
  4 18  1  0  0  0  0
  5  6  2  0  0  0  0
  6  7  1  0  0  0  0
  6  2  1  0  0  0  0
  7  9  1  0  0  0  0
  8 10  1  0  0  0  0
  8  7  1  0  0  0  0
  9  1  2  0  0  0  0
 10 14  1  0  0  0  0
 12 11  2  0  0  0  0
 13 14  2  0  0  0  0
 13 12  1  0  0  0  0
 14 15  1  0  0  0  0
 15 11  1  0  0  0  0
 17 19  1  0  0  0  0
 17 16  2  0  0  0  0
 18 17  1  0  0  0  0
 19 21  1  0  0  0  0
 21 20  2  0  0  0  0
 22 24  2  0  0  0  0
 24 23  1  0  0  0  0
 24 20  1  0  0  0  0
 25 22  1  0  0  0  0
 25 19  2  0  0  0  0
 26  5  1  0  0  0  0
 27 26  1  0  0  0  0
 28 27  1  0  0  0  0
 29 30  1  0  0  0  0
 30 28  1  6  0  0  0
 31 33  1  0  0  0  0
 32 31  2  0  0  0  0
 32 29  1  0  0  0  0
 33 30  1  0  0  0  0
M  END
>  <MODEL>
9

>  <REMARK>
 VINA RESULT:      -7.2      4.058     10.046
  Name = 
  7 active torsions:
  status: ('A' for Active; 'I' for Inactive)
    1  A    between atoms: C_3  and  C_12
    2  A    between atoms: N_4  and  C_32
    3  A    between atoms: C_5  and  C_25
    4  A    between atoms: C_19  and  N_27
    5  A    between atoms: C_21  and  C_31
    6  A    between atoms: C_25  and  C_30
    7  A    between atoms: C_30  and  C_31
                            x       y       z     vdW  Elec       q    Type
                         _______ _______ _______ _____ _____    ______ ____

>  <TORSDO>
F 7

$$$$
