=
 OpenBabel11042413553D

 51 58  0  0  1  0  0  0  0  0999 V2000
  193.8420  175.3260  140.9540 C   0  0  0  0  0  1  0  0  0  0  0  0
  193.5500  172.0400  142.2500 C   0  0  0  0  0  2  0  0  0  0  0  0
  194.1000  173.3750  142.4130 N   0  0  0  0  0  0  0  0  0  0  0  0
  194.4960  173.9700  141.1400 C   0  0  0  0  0  0  0  0  0  0  0  0
  193.9510  173.0100  140.0770 C   0  0  2  0  0  3  0  0  0  0  0  0
  196.0130  174.1140  141.0850 C   0  0  0  0  0  1  0  0  0  0  0  0
  193.7320  171.6830  140.7850 C   0  0  2  0  0  3  0  0  0  0  0  0
  194.4190  175.2280  146.2240 C   0  0  0  0  0  3  0  0  0  0  0  0
  193.0790  174.5750  144.3200 C   0  0  0  0  0  3  0  0  0  0  0  0
  193.1760  175.1910  145.5770 C   0  0  0  0  0  0  0  0  0  0  0  0
  195.5490  174.6720  145.6190 C   0  0  0  0  0  3  0  0  0  0  0  0
  195.4430  174.0700  144.3620 C   0  0  0  0  0  3  0  0  0  0  0  0
  194.2050  174.0080  143.7040 C   0  0  0  0  0  0  0  0  0  0  0  0
  188.3780  175.9950  146.3790 C   0  0  2  0  0  3  0  0  0  0  0  0
  188.2410  176.8710  144.0200 S   0  0  0  0  0  0  0  0  0  0  0  0
  192.0210  175.7880  146.1840 N   0  0  0  0  0  0  0  0  0  0  0  0
  186.1070  176.8130  145.9980 C   0  0  1  0  0  3  0  0  0  0  0  0
  189.8410  176.3370  146.4430 C   0  0  1  0  0  0  0  0  0  0  0  0
  184.9340  177.5910  146.6130 C   0  0  0  0  0  2  0  0  0  0  0  0
  190.7420  175.5300  145.6610 N   0  0  0  0  0  2  0  0  0  0  0  0
  188.9370  177.2250  145.6400 C   0  0  2  0  0  3  0  0  0  0  0  0
  190.5640  177.0590  147.9130 S   0  0  0  0  0  0  0  0  0  0  0  0
  192.1720  176.6450  147.2970 N   0  0  0  0  0  2  0  0  0  0  0  0
  184.9990  179.3900  144.8470 C   0  0  0  0  0  2  0  0  0  0  0  0
  184.1300  178.3360  145.5500 C   0  0  0  0  0  2  0  0  0  0  0  0
  186.4460  178.9390  144.6020 C   0  0  0  0  0  2  0  0  0  0  0  0
  186.5730  177.4130  144.6210 C   0  0  1  0  0  3  0  0  0  0  0  0
  187.2240  176.6860  147.0570 C   0  0  0  0  0  2  0  0  0  0  0  0
  194.6030  173.5490  137.6990 C   0  0  0  0  0  0  0  0  0  0  0  0
  194.8320  172.8510  138.9260 N   0  0  0  0  0  2  0  0  0  0  0  0
  193.5570  174.2360  137.5390 O   0  0  0  0  0  0  0  0  0  0  0  0
  196.8140  175.4610  134.6940 O   0  0  0  0  0  0  0  0  0  0  0  0
  195.4210  175.2990  134.6940 C   0  0  0  0  0  2  0  0  0  0  0  0
  195.0910  173.9430  135.2510 C   0  0  0  0  0  0  0  0  0  0  0  0
  197.1470  176.1770  135.8650 C   0  0  0  0  0  2  0  0  0  0  0  0
  196.8030  175.4060  137.1490 C   0  0  0  0  0  2  0  0  0  0  0  0
  195.6190  173.4990  136.5970 C   0  0  1  0  0  3  0  0  0  0  0  0
  196.8970  174.0120  136.9450 O   0  0  0  0  0  0  0  0  0  0  0  0
  194.3510  173.2030  134.6250 O   0  0  0  0  0  0  0  0  0  0  0  0
  192.4900  171.0020  140.2200 C   0  0  0  0  0  2  0  0  0  0  0  0
  188.2070  175.2360  140.6850 O   0  0  0  0  0  0  0  0  0  0  0  0
  190.1980  171.8130  141.7510 N   0  0  0  0  0  2  0  0  0  0  0  0
  189.1990  172.3500  142.6140 C   0  0  0  0  0  0  0  0  0  0  0  0
  188.9660  171.8060  143.7260 O   0  0  0  0  0  0  0  0  0  0  0  0
  189.4610  173.3700  139.8710 C   0  0  2  0  0  3  0  0  0  0  0  0
  188.4900  173.5260  142.2290 N   0  0  0  0  0  2  0  0  0  0  0  0
  190.4330  172.3800  140.4580 C   0  0  0  0  0  0  0  0  0  0  0  0
  188.7000  174.1080  140.9390 C   0  0  0  0  0  0  0  0  0  0  0  0
  191.4890  172.0040  139.7330 C   0  0  0  0  0  3  0  0  0  0  0  0
  188.4940  172.6450  138.9420 C   0  0  0  0  0  2  0  0  0  0  0  0
  188.2280  173.4280  137.8180 O   0  0  0  0  0  1  0  0  0  0  0  0
  1  4  1  0  0  0  0
  2  3  1  0  0  0  0
  3 13  1  0  0  0  0
  4  3  1  0  0  0  0
  5 30  1  6  0  0  0
  5  7  1  0  0  0  0
  5  4  1  0  0  0  0
  6  4  1  0  0  0  0
  7 40  1  6  0  0  0
  7  2  1  0  0  0  0
  9 10  1  0  0  0  0
 10 16  1  0  0  0  0
 10  8  2  0  0  0  0
 11  8  1  0  0  0  0
 12 11  2  0  0  0  0
 13  9  2  0  0  0  0
 13 12  1  0  0  0  0
 14 18  1  0  0  0  0
 14 28  1  1  0  0  0
 15 27  1  0  0  0  0
 16 23  1  0  0  0  0
 17 19  1  1  0  0  0
 17 28  1  0  0  0  0
 18 20  1  6  0  0  0
 18 22  1  0  0  0  0
 20 16  1  0  0  0  0
 21 15  1  6  0  0  0
 21 14  1  0  0  0  0
 21 18  1  0  0  0  0
 23 22  1  0  0  0  0
 24 25  1  0  0  0  0
 25 19  1  0  0  0  0
 26 24  1  0  0  0  0
 27 26  1  1  0  0  0
 27 17  1  0  0  0  0
 29 30  1  0  0  0  0
 31 29  2  0  0  0  0
 32 35  1  0  0  0  0
 33 32  1  0  0  0  0
 33 34  1  0  0  0  0
 34 37  1  0  0  0  0
 35 36  1  0  0  0  0
 37 38  1  0  0  0  0
 37 29  1  1  0  0  0
 38 36  1  0  0  0  0
 39 34  2  0  0  0  0
 41 48  2  0  0  0  0
 42 43  1  0  0  0  0
 43 44  2  0  0  0  0
 45 50  1  6  0  0  0
 45 47  1  0  0  0  0
 45 48  1  0  0  0  0
 46 43  1  0  0  0  0
 47 42  1  0  0  0  0
 48 46  1  0  0  0  0
 49 40  1  0  0  0  0
 49 47  2  0  0  0  0
 51 50  1  0  0  0  0
M  END
>  <MODEL>
1

>  <REMARK>
 VINA RESULT:      -8.7      0.000      0.000
  Name = 
  7 active torsions:
  status: ('A' for Active; 'I' for Inactive)
    1  A    between atoms: C_1  and  C_35
    2  A    between atoms: N_9  and  C_20
    3  A    between atoms: N_12  and  C_51
    4  A    between atoms: N_19  and  C_27
    5  A    between atoms: C_31  and  C_33
    6  A    between atoms: C_42  and  C_45
    7  A    between atoms: C_42  and  C_49
                            x       y       z     vdW  Elec       q    Type
                         _______ _______ _______ _____ _____    ______ ____

>  <TORSDO>
F 7

$$$$
=
 OpenBabel11042413553D

 51 58  0  0  1  0  0  0  0  0999 V2000
  193.9040  174.9350  140.9200 C   0  0  0  0  0  1  0  0  0  0  0  0
  193.6720  171.8160  142.5870 C   0  0  0  0  0  2  0  0  0  0  0  0
  194.2110  173.1640  142.5850 N   0  0  0  0  0  0  0  0  0  0  0  0
  194.5750  173.6140  141.2440 C   0  0  0  0  0  0  0  0  0  0  0  0
  194.0160  172.5360  140.3100 C   0  0  2  0  0  3  0  0  0  0  0  0
  196.0890  173.7610  141.1390 C   0  0  0  0  0  1  0  0  0  0  0  0
  193.8260  171.2950  141.1670 C   0  0  2  0  0  3  0  0  0  0  0  0
  194.5940  175.4410  146.1520 C   0  0  0  0  0  3  0  0  0  0  0  0
  193.2080  174.4950  144.4130 C   0  0  0  0  0  3  0  0  0  0  0  0
  193.3250  175.2490  145.5890 C   0  0  0  0  0  0  0  0  0  0  0  0
  195.7290  174.9000  145.5420 C   0  0  0  0  0  3  0  0  0  0  0  0
  195.6010  174.1580  144.3650 C   0  0  0  0  0  3  0  0  0  0  0  0
  194.3380  173.9410  143.7930 C   0  0  0  0  0  0  0  0  0  0  0  0
  188.5180  175.9700  146.4160 C   0  0  2  0  0  3  0  0  0  0  0  0
  188.3500  176.8230  144.0510 S   0  0  0  0  0  0  0  0  0  0  0  0
  192.1630  175.8300  146.1990 N   0  0  0  0  0  0  0  0  0  0  0  0
  186.2300  176.7420  146.0440 C   0  0  1  0  0  3  0  0  0  0  0  0
  189.9750  176.3400  146.4680 C   0  0  1  0  0  0  0  0  0  0  0  0
  185.0460  177.5030  146.6590 C   0  0  0  0  0  2  0  0  0  0  0  0
  190.8860  175.5440  145.6860 N   0  0  0  0  0  2  0  0  0  0  0  0
  189.0490  177.2040  145.6630 C   0  0  2  0  0  3  0  0  0  0  0  0
  190.6940  177.0880  147.9270 S   0  0  0  0  0  0  0  0  0  0  0  0
  192.3050  176.6990  147.3030 N   0  0  0  0  0  2  0  0  0  0  0  0
  185.0660  179.2880  144.8780 C   0  0  0  0  0  2  0  0  0  0  0  0
  184.2220  178.2230  145.5960 C   0  0  0  0  0  2  0  0  0  0  0  0
  186.5200  178.8610  144.6270 C   0  0  0  0  0  2  0  0  0  0  0  0
  186.6750  177.3390  144.6580 C   0  0  1  0  0  3  0  0  0  0  0  0
  187.3560  176.6450  147.0960 C   0  0  0  0  0  2  0  0  0  0  0  0
  194.5230  172.6620  137.8400 C   0  0  0  0  0  0  0  0  0  0  0  0
  194.8740  172.2530  139.1640 N   0  0  0  0  0  2  0  0  0  0  0  0
  193.3960  173.1800  137.6070 O   0  0  0  0  0  0  0  0  0  0  0  0
  197.5880  170.5260  135.9390 O   0  0  0  0  0  0  0  0  0  0  0  0
  197.6900  171.1390  137.1960 C   0  0  0  0  0  2  0  0  0  0  0  0
  196.9460  172.4450  137.1580 C   0  0  0  0  0  0  0  0  0  0  0  0
  196.5280  169.5960  136.0170 C   0  0  0  0  0  2  0  0  0  0  0  0
  195.1700  170.2670  136.2800 C   0  0  0  0  0  2  0  0  0  0  0  0
  195.5030  172.5120  136.7140 C   0  0  1  0  0  3  0  0  0  0  0  0
  195.1290  171.5640  135.7250 O   0  0  0  0  0  0  0  0  0  0  0  0
  197.5050  173.4630  137.5310 O   0  0  0  0  0  0  0  0  0  0  0  0
  192.5780  170.5470  140.7110 C   0  0  0  0  0  2  0  0  0  0  0  0
  187.0010  172.5390  141.8960 O   0  0  0  0  0  0  0  0  0  0  0  0
  190.6170  172.5060  139.9610 N   0  0  0  0  0  0  0  0  0  0  0  0
  189.5550  173.3200  139.4680 C   0  0  0  0  0  0  0  0  0  0  0  0
  189.7090  173.9850  138.4080 O   0  0  0  0  0  0  0  0  0  0  0  0
  189.3390  172.0940  142.1300 C   0  0  2  0  0  3  0  0  0  0  0  0
  188.3080  173.3490  140.1570 N   0  0  0  0  0  2  0  0  0  0  0  0
  190.4820  171.7940  141.1950 C   0  0  0  0  0  0  0  0  0  0  0  0
  188.1480  172.6520  141.3960 C   0  0  0  0  0  0  0  0  0  0  0  0
  191.3920  170.8880  141.5590 C   0  0  0  0  0  2  0  0  0  0  0  0
  189.8020  173.0740  143.2010 C   0  0  0  0  0  2  0  0  0  0  0  0
  189.9710  172.4110  144.4180 O   0  0  0  0  0  1  0  0  0  0  0  0
  1  4  1  0  0  0  0
  3  2  1  0  0  0  0
  3 13  1  0  0  0  0
  4  3  1  0  0  0  0
  5 30  1  6  0  0  0
  5  7  1  0  0  0  0
  5  4  1  0  0  0  0
  6  4  1  0  0  0  0
  7 40  1  6  0  0  0
  7  2  1  0  0  0  0
  9 10  2  0  0  0  0
 10  8  1  0  0  0  0
 10 16  1  0  0  0  0
 11  8  2  0  0  0  0
 12 11  1  0  0  0  0
 13 12  2  0  0  0  0
 13  9  1  0  0  0  0
 14 18  1  0  0  0  0
 14 28  1  1  0  0  0
 15 27  1  0  0  0  0
 16 23  1  0  0  0  0
 17 19  1  1  0  0  0
 17 28  1  0  0  0  0
 18 20  1  6  0  0  0
 18 22  1  0  0  0  0
 20 16  1  0  0  0  0
 21 15  1  6  0  0  0
 21 14  1  0  0  0  0
 21 18  1  0  0  0  0
 23 22  1  0  0  0  0
 24 25  1  0  0  0  0
 25 19  1  0  0  0  0
 26 24  1  0  0  0  0
 27 26  1  1  0  0  0
 27 17  1  0  0  0  0
 29 30  1  0  0  0  0
 31 29  2  0  0  0  0
 32 35  1  0  0  0  0
 32 33  1  0  0  0  0
 34 33  1  0  0  0  0
 34 39  2  0  0  0  0
 35 36  1  0  0  0  0
 37 34  1  0  0  0  0
 37 29  1  1  0  0  0
 38 36  1  0  0  0  0
 38 37  1  0  0  0  0
 40 49  1  0  0  0  0
 42 47  2  0  0  0  0
 43 42  1  0  0  0  0
 43 46  1  0  0  0  0
 44 43  2  0  0  0  0
 45 50  1  1  0  0  0
 46 48  1  0  0  0  0
 47 49  1  0  0  0  0
 47 45  1  0  0  0  0
 48 41  2  0  0  0  0
 48 45  1  0  0  0  0
 50 51  1  0  0  0  0
M  END
>  <MODEL>
2

>  <REMARK>
 VINA RESULT:      -8.0      1.368      2.498
  Name = 
  7 active torsions:
  status: ('A' for Active; 'I' for Inactive)
    1  A    between atoms: C_1  and  C_35
    2  A    between atoms: N_9  and  C_20
    3  A    between atoms: N_12  and  C_51
    4  A    between atoms: N_19  and  C_27
    5  A    between atoms: C_31  and  C_33
    6  A    between atoms: C_42  and  C_45
    7  A    between atoms: C_42  and  C_49
                            x       y       z     vdW  Elec       q    Type
                         _______ _______ _______ _____ _____    ______ ____

>  <TORSDO>
F 7

$$$$
=
 OpenBabel11042413553D

 51 58  0  0  1  0  0  0  0  0999 V2000
  190.2050  173.7480  144.1700 C   0  0  0  0  0  1  0  0  0  0  0  0
  191.8290  176.8560  144.6770 C   0  0  0  0  0  2  0  0  0  0  0  0
  191.8280  175.4240  144.9150 N   0  0  0  0  0  0  0  0  0  0  0  0
  190.4830  174.8970  145.1210 C   0  0  0  0  0  0  0  0  0  0  0  0
  189.5520  176.0620  144.7700 C   0  0  2  0  0  3  0  0  0  0  0  0
  190.3240  174.4270  146.5620 C   0  0  0  0  0  1  0  0  0  0  0  0
  190.3970  177.3210  144.8830 C   0  0  2  0  0  3  0  0  0  0  0  0
  195.4130  173.1420  144.9430 C   0  0  0  0  0  3  0  0  0  0  0  0
  193.8310  174.5370  143.7630 C   0  0  0  0  0  3  0  0  0  0  0  0
  195.0140  173.7850  143.7630 C   0  0  0  0  0  0  0  0  0  0  0  0
  194.6350  173.2380  146.1000 C   0  0  0  0  0  3  0  0  0  0  0  0
  193.4530  173.9830  146.0860 C   0  0  0  0  0  3  0  0  0  0  0  0
  193.0430  174.6470  144.9190 C   0  0  0  0  0  0  0  0  0  0  0  0
  196.9200  175.1610  139.4290 C   0  0  2  0  0  3  0  0  0  0  0  0
  194.5700  175.1620  138.5190 S   0  0  0  0  0  0  0  0  0  0  0  0
  195.7970  173.6620  142.5660 N   0  0  0  0  0  0  0  0  0  0  0  0
  197.0260  175.6620  137.0390 C   0  0  1  0  0  3  0  0  0  0  0  0
  196.5310  174.1640  140.4860 C   0  0  1  0  0  0  0  0  0  0  0  0
  197.7900  175.3950  135.7340 C   0  0  0  0  0  2  0  0  0  0  0  0
  195.6860  174.6310  141.5540 N   0  0  0  0  0  2  0  0  0  0  0  0
  195.8600  174.0790  139.1470 C   0  0  2  0  0  3  0  0  0  0  0  0
  197.6100  172.8030  140.9230 S   0  0  0  0  0  0  0  0  0  0  0  0
  196.6670  172.5610  142.4020 N   0  0  0  0  0  2  0  0  0  0  0  0
  195.7910  174.3630  134.5930 C   0  0  0  0  0  2  0  0  0  0  0  0
  196.8700  175.4550  134.5170 C   0  0  0  0  0  2  0  0  0  0  0  0
  195.2500  174.1230  136.0100 C   0  0  0  0  0  2  0  0  0  0  0  0
  195.4930  175.3300  136.9190 C   0  0  1  0  0  3  0  0  0  0  0  0
  197.7530  174.9390  138.1940 C   0  0  0  0  0  2  0  0  0  0  0  0
  188.3230  177.0090  146.7610 C   0  0  0  0  0  0  0  0  0  0  0  0
  188.3720  176.1460  145.6220 N   0  0  0  0  0  2  0  0  0  0  0  0
  189.3520  177.6400  147.1300 O   0  0  0  0  0  0  0  0  0  0  0  0
  184.4880  178.6750  147.0550 O   0  0  0  0  0  0  0  0  0  0  0  0
  185.6870  179.4030  147.0420 C   0  0  0  0  0  2  0  0  0  0  0  0
  186.7200  178.6460  147.8270 C   0  0  0  0  0  0  0  0  0  0  0  0
  184.4420  177.9330  145.8530 C   0  0  0  0  0  2  0  0  0  0  0  0
  185.5740  176.8980  145.7540 C   0  0  0  0  0  2  0  0  0  0  0  0
  187.0400  177.2020  147.5130 C   0  0  1  0  0  3  0  0  0  0  0  0
  185.9490  176.4310  147.0320 O   0  0  0  0  0  0  0  0  0  0  0  0
  187.3420  179.2190  148.7060 O   0  0  0  0  0  0  0  0  0  0  0  0
  189.9750  178.3170  143.8080 C   0  0  0  0  0  2  0  0  0  0  0  0
  186.3270  177.3330  139.0950 O   0  0  0  0  0  0  0  0  0  0  0  0
  187.2400  178.4360  142.9390 N   0  0  0  0  0  2  0  0  0  0  0  0
  185.9370  178.6870  142.4190 C   0  0  0  0  0  0  0  0  0  0  0  0
  185.0840  179.2970  143.1190 O   0  0  0  0  0  0  0  0  0  0  0  0
  187.7790  176.9300  140.9520 C   0  0  2  0  0  3  0  0  0  0  0  0
  185.6140  178.2800  141.0910 N   0  0  0  0  0  2  0  0  0  0  0  0
  188.2000  177.6910  142.1820 C   0  0  0  0  0  0  0  0  0  0  0  0
  186.5520  177.5280  140.3160 C   0  0  0  0  0  0  0  0  0  0  0  0
  189.4720  177.6200  142.5810 C   0  0  0  0  0  3  0  0  0  0  0  0
  187.5230  175.4730  141.3190 C   0  0  0  0  0  2  0  0  0  0  0  0
  187.0120  175.3860  142.6160 O   0  0  0  0  0  1  0  0  0  0  0  0
  1  4  1  0  0  0  0
  2  7  1  0  0  0  0
  2  3  1  0  0  0  0
  3 13  1  0  0  0  0
  3  4  1  0  0  0  0
  4  6  1  0  0  0  0
  5  7  1  0  0  0  0
  5  4  1  0  0  0  0
  5 30  1  1  0  0  0
  7 40  1  6  0  0  0
  8 11  1  0  0  0  0
  9 10  1  0  0  0  0
  9 13  2  0  0  0  0
 10  8  2  0  0  0  0
 12 11  2  0  0  0  0
 13 12  1  0  0  0  0
 14 28  1  6  0  0  0
 14 18  1  0  0  0  0
 16 10  1  0  0  0  0
 17 19  1  6  0  0  0
 17 28  1  0  0  0  0
 18 22  1  1  0  0  0
 18 20  1  0  0  0  0
 20 16  1  0  0  0  0
 21 15  1  1  0  0  0
 21 14  1  0  0  0  0
 21 18  1  0  0  0  0
 22 23  1  0  0  0  0
 23 16  1  0  0  0  0
 24 26  1  0  0  0  0
 25 24  1  0  0  0  0
 25 19  1  0  0  0  0
 27 26  1  1  0  0  0
 27 17  1  0  0  0  0
 27 15  1  0  0  0  0
 29 31  2  0  0  0  0
 30 29  1  0  0  0  0
 33 32  1  0  0  0  0
 33 34  1  0  0  0  0
 34 39  2  0  0  0  0
 35 32  1  0  0  0  0
 36 35  1  0  0  0  0
 36 38  1  0  0  0  0
 37 29  1  6  0  0  0
 37 34  1  0  0  0  0
 38 37  1  0  0  0  0
 41 48  2  0  0  0  0
 43 42  1  0  0  0  0
 43 44  2  0  0  0  0
 45 50  1  1  0  0  0
 45 47  1  0  0  0  0
 46 43  1  0  0  0  0
 47 49  2  0  0  0  0
 47 42  1  0  0  0  0
 48 45  1  0  0  0  0
 48 46  1  0  0  0  0
 49 40  1  0  0  0  0
 50 51  1  0  0  0  0
M  END
>  <MODEL>
3

>  <REMARK>
 VINA RESULT:      -7.4      4.173     10.188
  Name = 
  7 active torsions:
  status: ('A' for Active; 'I' for Inactive)
    1  A    between atoms: C_1  and  C_35
    2  A    between atoms: N_9  and  C_20
    3  A    between atoms: N_12  and  C_51
    4  A    between atoms: N_19  and  C_27
    5  A    between atoms: C_31  and  C_33
    6  A    between atoms: C_42  and  C_45
    7  A    between atoms: C_42  and  C_49
                            x       y       z     vdW  Elec       q    Type
                         _______ _______ _______ _____ _____    ______ ____

>  <TORSDO>
F 7

$$$$
=
 OpenBabel11042413553D

 51 58  0  0  1  0  0  0  0  0999 V2000
  191.6090  171.4970  142.0490 C   0  0  0  0  0  1  0  0  0  0  0  0
  194.4740  173.2600  140.9380 C   0  0  0  0  0  2  0  0  0  0  0  0
  193.3660  173.1930  141.8740 N   0  0  0  0  0  0  0  0  0  0  0  0
  192.1500  172.6720  141.2570 C   0  0  0  0  0  0  0  0  0  0  0  0
  192.5980  172.1740  139.8800 C   0  0  2  0  0  3  0  0  0  0  0  0
  191.0970  173.7720  141.1760 C   0  0  0  0  0  1  0  0  0  0  0  0
  193.9040  172.8910  139.5790 C   0  0  2  0  0  3  0  0  0  0  0  0
  193.7770  174.3460  145.9440 C   0  0  0  0  0  3  0  0  0  0  0  0
  192.4920  174.3190  143.8960 C   0  0  0  0  0  3  0  0  0  0  0  0
  192.6200  174.7060  145.2380 C   0  0  0  0  0  0  0  0  0  0  0  0
  194.7940  173.6250  145.3150 C   0  0  0  0  0  3  0  0  0  0  0  0
  194.6600  173.2530  143.9740 C   0  0  0  0  0  3  0  0  0  0  0  0
  193.5040  173.5900  143.2540 C   0  0  0  0  0  0  0  0  0  0  0  0
  188.0140  176.0380  146.3880 C   0  0  2  0  0  3  0  0  0  0  0  0
  187.7020  176.6520  143.9640 S   0  0  0  0  0  0  0  0  0  0  0  0
  191.5870  175.4730  145.8750 N   0  0  0  0  0  0  0  0  0  0  0  0
  185.7900  177.0160  146.1280 C   0  0  1  0  0  3  0  0  0  0  0  0
  189.4990  176.2480  146.2710 C   0  0  1  0  0  0  0  0  0  0  0  0
  184.7550  177.9640  146.7520 C   0  0  0  0  0  2  0  0  0  0  0  0
  190.2440  175.2780  145.5110 N   0  0  0  0  0  2  0  0  0  0  0  0
  188.5910  177.1200  145.4560 C   0  0  2  0  0  3  0  0  0  0  0  0
  190.4290  177.0600  147.5680 S   0  0  0  0  0  0  0  0  0  0  0  0
  191.9240  176.4310  146.8570 N   0  0  0  0  0  2  0  0  0  0  0  0
  184.7800  179.5390  144.7830 C   0  0  0  0  0  2  0  0  0  0  0  0
  183.9080  178.6570  145.6880 C   0  0  0  0  0  2  0  0  0  0  0  0
  186.1530  178.9300  144.4590 C   0  0  0  0  0  2  0  0  0  0  0  0
  186.1560  177.4120  144.6500 C   0  0  1  0  0  3  0  0  0  0  0  0
  186.9980  176.9060  147.0830 C   0  0  0  0  0  2  0  0  0  0  0  0
  190.7450  171.3740  138.3630 C   0  0  0  0  0  0  0  0  0  0  0  0
  191.6170  172.4090  138.8260 N   0  0  0  0  0  2  0  0  0  0  0  0
  190.8820  170.1890  138.7740 O   0  0  0  0  0  0  0  0  0  0  0  0
  189.3010  173.4330  135.0090 O   0  0  0  0  0  0  0  0  0  0  0  0
  189.6990  174.0300  136.2150 C   0  0  0  0  0  2  0  0  0  0  0  0
  189.2620  173.1540  137.3550 C   0  0  0  0  0  0  0  0  0  0  0  0
  190.4150  172.7200  134.5130 C   0  0  0  0  0  2  0  0  0  0  0  0
  190.8440  171.5730  135.4400 C   0  0  0  0  0  2  0  0  0  0  0  0
  189.6350  171.6890  137.4060 C   0  0  1  0  0  3  0  0  0  0  0  0
  189.7380  171.0470  136.1440 O   0  0  0  0  0  0  0  0  0  0  0  0
  188.6300  173.6430  138.2760 O   0  0  0  0  0  0  0  0  0  0  0  0
  194.8370  171.9540  138.8200 C   0  0  0  0  0  2  0  0  0  0  0  0
  197.3920  176.4390  135.6830 O   0  0  0  0  0  0  0  0  0  0  0  0
  194.4160  173.7870  136.6490 N   0  0  0  0  0  0  0  0  0  0  0  0
  194.1550  174.8410  135.7260 C   0  0  0  0  0  0  0  0  0  0  0  0
  192.9980  174.9920  135.2500 O   0  0  0  0  0  0  0  0  0  0  0  0
  196.9210  174.2490  136.5200 C   0  0  2  0  0  3  0  0  0  0  0  0
  195.1980  175.7470  135.3720 N   0  0  0  0  0  2  0  0  0  0  0  0
  195.7380  173.5620  137.1510 C   0  0  0  0  0  0  0  0  0  0  0  0
  196.5290  175.5410  135.8540 C   0  0  0  0  0  0  0  0  0  0  0  0
  195.9470  172.7060  138.1530 C   0  0  0  0  0  2  0  0  0  0  0  0
  197.5720  173.3130  135.5080 C   0  0  0  0  0  2  0  0  0  0  0  0
  196.6010  172.7620  134.6690 O   0  0  0  0  0  1  0  0  0  0  0  0
  2  3  1  0  0  0  0
  3 13  1  0  0  0  0
  4  3  1  0  0  0  0
  4  1  1  0  0  0  0
  5 30  1  6  0  0  0
  5  4  1  0  0  0  0
  6  4  1  0  0  0  0
  7 40  1  1  0  0  0
  7  5  1  0  0  0  0
  7  2  1  0  0  0  0
  9 10  1  0  0  0  0
 10 16  1  0  0  0  0
 10  8  2  0  0  0  0
 11  8  1  0  0  0  0
 12 11  2  0  0  0  0
 13  9  2  0  0  0  0
 13 12  1  0  0  0  0
 14 28  1  1  0  0  0
 15 27  1  0  0  0  0
 16 23  1  0  0  0  0
 17 19  1  1  0  0  0
 17 28  1  0  0  0  0
 18 20  1  6  0  0  0
 18 14  1  0  0  0  0
 18 22  1  0  0  0  0
 20 16  1  0  0  0  0
 21 15  1  6  0  0  0
 21 18  1  0  0  0  0
 21 14  1  0  0  0  0
 23 22  1  0  0  0  0
 24 25  1  0  0  0  0
 25 19  1  0  0  0  0
 26 24  1  0  0  0  0
 27 26  1  1  0  0  0
 27 17  1  0  0  0  0
 29 31  2  0  0  0  0
 29 30  1  0  0  0  0
 32 33  1  0  0  0  0
 33 34  1  0  0  0  0
 34 37  1  0  0  0  0
 34 39  2  0  0  0  0
 35 32  1  0  0  0  0
 35 36  1  0  0  0  0
 36 38  1  0  0  0  0
 37 29  1  6  0  0  0
 38 37  1  0  0  0  0
 41 48  2  0  0  0  0
 42 47  2  0  0  0  0
 43 42  1  0  0  0  0
 44 43  2  0  0  0  0
 45 50  1  6  0  0  0
 45 47  1  0  0  0  0
 46 43  1  0  0  0  0
 46 48  1  0  0  0  0
 47 49  1  0  0  0  0
 48 45  1  0  0  0  0
 49 40  1  0  0  0  0
 51 50  1  0  0  0  0
M  END
>  <MODEL>
4

>  <REMARK>
 VINA RESULT:      -7.3      1.936      5.162
  Name = 
  7 active torsions:
  status: ('A' for Active; 'I' for Inactive)
    1  A    between atoms: C_1  and  C_35
    2  A    between atoms: N_9  and  C_20
    3  A    between atoms: N_12  and  C_51
    4  A    between atoms: N_19  and  C_27
    5  A    between atoms: C_31  and  C_33
    6  A    between atoms: C_42  and  C_45
    7  A    between atoms: C_42  and  C_49
                            x       y       z     vdW  Elec       q    Type
                         _______ _______ _______ _____ _____    ______ ____

>  <TORSDO>
F 7

$$$$
=
 OpenBabel11042413553D

 51 58  0  0  1  0  0  0  0  0999 V2000
  192.3790  173.2590  141.8250 C   0  0  0  0  0  1  0  0  0  0  0  0
  195.8550  172.7280  142.2680 C   0  0  0  0  0  2  0  0  0  0  0  0
  194.7570  173.6780  142.2380 N   0  0  0  0  0  0  0  0  0  0  0  0
  193.7670  173.3490  141.2170 C   0  0  0  0  0  0  0  0  0  0  0  0
  194.1750  171.9600  140.7160 C   0  0  2  0  0  3  0  0  0  0  0  0
  193.7840  174.4040  140.1170 C   0  0  0  0  0  1  0  0  0  0  0  0
  195.6390  171.7930  141.0900 C   0  0  2  0  0  3  0  0  0  0  0  0
  194.5640  176.9690  144.9200 C   0  0  0  0  0  3  0  0  0  0  0  0
  193.5390  175.0200  143.9220 C   0  0  0  0  0  3  0  0  0  0  0  0
  193.4660  176.1040  144.8080 C   0  0  0  0  0  0  0  0  0  0  0  0
  195.7100  176.7610  144.1490 C   0  0  0  0  0  3  0  0  0  0  0  0
  195.7680  175.6820  143.2620 C   0  0  0  0  0  3  0  0  0  0  0  0
  194.6860  174.7960  143.1460 C   0  0  0  0  0  0  0  0  0  0  0  0
  188.6420  176.0580  145.8250 C   0  0  2  0  0  3  0  0  0  0  0  0
  188.3290  177.6450  143.8920 S   0  0  0  0  0  0  0  0  0  0  0  0
  192.2760  176.3340  145.5780 N   0  0  0  0  0  0  0  0  0  0  0  0
  186.2850  176.6980  145.7350 C   0  0  1  0  0  3  0  0  0  0  0  0
  190.0610  176.5200  146.0020 C   0  0  1  0  0  0  0  0  0  0  0  0
  185.0590  177.0920  146.5710 C   0  0  0  0  0  2  0  0  0  0  0  0
  191.0140  176.1240  144.9970 N   0  0  0  0  0  2  0  0  0  0  0  0
  189.0410  177.5170  145.5390 C   0  0  2  0  0  3  0  0  0  0  0  0
  190.7560  176.7900  147.6300 S   0  0  0  0  0  0  0  0  0  0  0  0
  192.3760  176.7850  146.9130 N   0  0  0  0  0  2  0  0  0  0  0  0
  184.8710  179.3700  145.5060 C   0  0  0  0  0  2  0  0  0  0  0  0
  184.1440  178.0530  145.8170 C   0  0  0  0  0  2  0  0  0  0  0  0
  186.3480  179.1890  145.1270 C   0  0  0  0  0  2  0  0  0  0  0  0
  186.6350  177.7680  144.6370 C   0  0  1  0  0  3  0  0  0  0  0  0
  187.4460  176.3530  146.6920 C   0  0  0  0  0  2  0  0  0  0  0  0
  192.8050  171.1420  138.7590 C   0  0  0  0  0  0  0  0  0  0  0  0
  193.9760  171.7740  139.2830 N   0  0  0  0  0  2  0  0  0  0  0  0
  191.9590  170.6180  139.5350 O   0  0  0  0  0  0  0  0  0  0  0  0
  190.1440  170.9890  135.5240 O   0  0  0  0  0  0  0  0  0  0  0  0
  190.3430  169.9600  136.4560 C   0  0  0  0  0  2  0  0  0  0  0  0
  191.8040  169.8970  136.8010 C   0  0  0  0  0  0  0  0  0  0  0  0
  189.7290  172.1290  136.2480 C   0  0  0  0  0  2  0  0  0  0  0  0
  190.8030  172.6330  137.2240 C   0  0  0  0  0  2  0  0  0  0  0  0
  192.5500  171.1220  137.2820 C   0  0  1  0  0  3  0  0  0  0  0  0
  192.1000  172.3550  136.7410 O   0  0  0  0  0  0  0  0  0  0  0  0
  192.3900  168.8290  136.7320 O   0  0  0  0  0  0  0  0  0  0  0  0
  195.9040  170.3420  141.4760 C   0  0  0  0  0  2  0  0  0  0  0  0
  196.8130  168.2440  147.0660 O   0  0  0  0  0  0  0  0  0  0  0  0
  194.5670  169.3690  143.8240 N   0  0  0  0  0  2  0  0  0  0  0  0
  193.9500  168.6870  144.9130 C   0  0  0  0  0  0  0  0  0  0  0  0
  192.7290  168.3800  144.8560 O   0  0  0  0  0  0  0  0  0  0  0  0
  196.6740  169.7460  145.2110 C   0  0  2  0  0  3  0  0  0  0  0  0
  194.7280  168.3190  146.0500 N   0  0  0  0  0  2  0  0  0  0  0  0
  195.9360  169.7790  143.8980 C   0  0  0  0  0  0  0  0  0  0  0  0
  196.0960  168.7230  146.1530 C   0  0  0  0  0  0  0  0  0  0  0  0
  196.5650  170.2420  142.8160 C   0  0  0  0  0  3  0  0  0  0  0  0
  196.6350  171.1300  145.8510 C   0  0  0  0  0  2  0  0  0  0  0  0
  195.3550  171.6760  145.7360 O   0  0  0  0  0  1  0  0  0  0  0  0
  3  2  1  0  0  0  0
  3 13  1  0  0  0  0
  4  1  1  0  0  0  0
  4  3  1  0  0  0  0
  5 30  1  6  0  0  0
  5  7  1  0  0  0  0
  5  4  1  0  0  0  0
  6  4  1  0  0  0  0
  7 40  1  1  0  0  0
  7  2  1  0  0  0  0
  9 10  2  0  0  0  0
 10  8  1  0  0  0  0
 10 16  1  0  0  0  0
 11  8  2  0  0  0  0
 12 11  1  0  0  0  0
 13 12  2  0  0  0  0
 13  9  1  0  0  0  0
 14 18  1  0  0  0  0
 14 28  1  1  0  0  0
 15 27  1  0  0  0  0
 16 23  1  0  0  0  0
 17 19  1  1  0  0  0
 17 28  1  0  0  0  0
 18 20  1  6  0  0  0
 18 22  1  0  0  0  0
 20 16  1  0  0  0  0
 21 15  1  6  0  0  0
 21 14  1  0  0  0  0
 21 18  1  0  0  0  0
 23 22  1  0  0  0  0
 24 25  1  0  0  0  0
 25 19  1  0  0  0  0
 26 24  1  0  0  0  0
 27 26  1  1  0  0  0
 27 17  1  0  0  0  0
 29 30  1  0  0  0  0
 29 31  2  0  0  0  0
 32 35  1  0  0  0  0
 32 33  1  0  0  0  0
 33 34  1  0  0  0  0
 34 37  1  0  0  0  0
 35 36  1  0  0  0  0
 37 29  1  1  0  0  0
 38 36  1  0  0  0  0
 38 37  1  0  0  0  0
 39 34  2  0  0  0  0
 40 49  1  0  0  0  0
 42 47  1  0  0  0  0
 42 43  1  0  0  0  0
 43 46  1  0  0  0  0
 44 43  2  0  0  0  0
 45 50  1  1  0  0  0
 45 48  1  0  0  0  0
 46 48  1  0  0  0  0
 47 45  1  0  0  0  0
 48 41  2  0  0  0  0
 49 47  2  0  0  0  0
 51 50  1  0  0  0  0
M  END
>  <MODEL>
5

>  <REMARK>
 VINA RESULT:      -7.0      3.115      5.044
  Name = 
  7 active torsions:
  status: ('A' for Active; 'I' for Inactive)
    1  A    between atoms: C_1  and  C_35
    2  A    between atoms: N_9  and  C_20
    3  A    between atoms: N_12  and  C_51
    4  A    between atoms: N_19  and  C_27
    5  A    between atoms: C_31  and  C_33
    6  A    between atoms: C_42  and  C_45
    7  A    between atoms: C_42  and  C_49
                            x       y       z     vdW  Elec       q    Type
                         _______ _______ _______ _____ _____    ______ ____

>  <TORSDO>
F 7

$$$$
=
 OpenBabel11042413553D

 51 58  0  0  1  0  0  0  0  0999 V2000
  190.4190  174.0410  144.2350 C   0  0  0  0  0  1  0  0  0  0  0  0
  191.8150  177.2800  144.5770 C   0  0  0  0  0  2  0  0  0  0  0  0
  191.9370  175.8600  144.8550 N   0  0  0  0  0  0  0  0  0  0  0  0
  190.6470  175.2380  145.1390 C   0  0  0  0  0  0  0  0  0  0  0  0
  189.6140  176.3160  144.7990 C   0  0  2  0  0  3  0  0  0  0  0  0
  190.5910  174.8030  146.5990 C   0  0  0  0  0  1  0  0  0  0  0  0
  190.3610  177.6390  144.8370 C   0  0  2  0  0  3  0  0  0  0  0  0
  195.6910  173.8710  144.7700 C   0  0  0  0  0  3  0  0  0  0  0  0
  193.5550  174.3510  143.7470 C   0  0  0  0  0  3  0  0  0  0  0  0
  194.7900  173.6900  143.7120 C   0  0  0  0  0  0  0  0  0  0  0  0
  195.3570  174.6890  145.8530 C   0  0  0  0  0  3  0  0  0  0  0  0
  194.1190  175.3360  145.8820 C   0  0  0  0  0  3  0  0  0  0  0  0
  193.2080  175.1800  144.8250 C   0  0  0  0  0  0  0  0  0  0  0  0
  194.7600  172.0490  139.0630 C   0  0  2  0  0  3  0  0  0  0  0  0
  192.2940  171.6130  139.3470 S   0  0  0  0  0  0  0  0  0  0  0  0
  195.1210  172.8260  142.6150 N   0  0  0  0  0  0  0  0  0  0  0  0
  193.9320  170.9870  137.0240 C   0  0  1  0  0  3  0  0  0  0  0  0
  194.9740  171.9210  140.5460 C   0  0  1  0  0  0  0  0  0  0  0  0
  194.2370  169.9440  135.9380 C   0  0  0  0  0  2  0  0  0  0  0  0
  194.4710  172.9830  141.3780 N   0  0  0  0  0  2  0  0  0  0  0  0
  193.9160  171.0730  139.9040 C   0  0  2  0  0  3  0  0  0  0  0  0
  196.3940  171.0560  141.2100 S   0  0  0  0  0  0  0  0  0  0  0  0
  196.0890  171.8100  142.7830 N   0  0  0  0  0  2  0  0  0  0  0  0
  192.2280  168.5320  136.5110 C   0  0  0  0  0  2  0  0  0  0  0  0
  192.9640  169.2970  135.4000 C   0  0  0  0  0  2  0  0  0  0  0  0
  192.2690  169.2300  137.8780 C   0  0  0  0  0  2  0  0  0  0  0  0
  192.5550  170.7280  137.7390 C   0  0  1  0  0  3  0  0  0  0  0  0
  195.1440  171.0810  137.9750 C   0  0  0  0  0  2  0  0  0  0  0  0
  188.4150  177.2110  146.8320 C   0  0  0  0  0  0  0  0  0  0  0  0
  188.4690  176.3350  145.7030 N   0  0  0  0  0  2  0  0  0  0  0  0
  189.4150  177.9130  147.1460 O   0  0  0  0  0  0  0  0  0  0  0  0
  184.4810  178.5950  147.2630 O   0  0  0  0  0  0  0  0  0  0  0  0
  185.6200  179.4100  147.1720 C   0  0  0  0  0  2  0  0  0  0  0  0
  186.7430  178.7560  147.9280 C   0  0  0  0  0  0  0  0  0  0  0  0
  184.4370  177.8150  146.0860 C   0  0  0  0  0  2  0  0  0  0  0  0
  185.6380  176.8640  145.9610 C   0  0  0  0  0  2  0  0  0  0  0  0
  187.1570  177.3310  147.6390 C   0  0  1  0  0  3  0  0  0  0  0  0
  186.1060  176.4670  147.2320 O   0  0  0  0  0  0  0  0  0  0  0  0
  187.3590  179.4010  148.7610 O   0  0  0  0  0  0  0  0  0  0  0  0
  189.8150  178.5650  143.7550 C   0  0  0  0  0  2  0  0  0  0  0  0
  186.3530  177.1430  139.0140 O   0  0  0  0  0  0  0  0  0  0  0  0
  187.0950  178.4010  142.8470 N   0  0  0  0  0  2  0  0  0  0  0  0
  185.7820  178.5140  142.3040 C   0  0  0  0  0  0  0  0  0  0  0  0
  184.8630  179.0510  142.9800 O   0  0  0  0  0  0  0  0  0  0  0  0
  187.8080  176.9180  140.8980 C   0  0  2  0  0  3  0  0  0  0  0  0
  185.5210  178.0530  140.9810 N   0  0  0  0  0  2  0  0  0  0  0  0
  188.1340  177.7390  142.1180 C   0  0  0  0  0  0  0  0  0  0  0  0
  186.5390  177.3810  140.2340 C   0  0  0  0  0  0  0  0  0  0  0  0
  189.4010  177.8000  142.5360 C   0  0  0  0  0  3  0  0  0  0  0  0
  187.6890  175.4500  141.2910 C   0  0  0  0  0  2  0  0  0  0  0  0
  186.8460  175.3140  142.3960 O   0  0  0  0  0  1  0  0  0  0  0  0
  1  4  1  0  0  0  0
  2  7  1  0  0  0  0
  2  3  1  0  0  0  0
  3  4  1  0  0  0  0
  4  6  1  0  0  0  0
  5  7  1  0  0  0  0
  5  4  1  0  0  0  0
  5 30  1  1  0  0  0
  7 40  1  6  0  0  0
  8 11  1  0  0  0  0
  9 13  2  0  0  0  0
 10  9  1  0  0  0  0
 10  8  2  0  0  0  0
 11 12  2  0  0  0  0
 13  3  1  0  0  0  0
 13 12  1  0  0  0  0
 14 28  1  6  0  0  0
 14 21  1  0  0  0  0
 14 18  1  0  0  0  0
 16 23  1  0  0  0  0
 16 10  1  0  0  0  0
 17 19  1  6  0  0  0
 17 27  1  0  0  0  0
 17 28  1  0  0  0  0
 18 22  1  1  0  0  0
 18 20  1  0  0  0  0
 20 16  1  0  0  0  0
 21 15  1  1  0  0  0
 21 18  1  0  0  0  0
 22 23  1  0  0  0  0
 24 26  1  0  0  0  0
 25 19  1  0  0  0  0
 25 24  1  0  0  0  0
 27 26  1  1  0  0  0
 27 15  1  0  0  0  0
 29 31  2  0  0  0  0
 30 29  1  0  0  0  0
 33 32  1  0  0  0  0
 33 34  1  0  0  0  0
 34 39  2  0  0  0  0
 35 32  1  0  0  0  0
 36 35  1  0  0  0  0
 36 38  1  0  0  0  0
 37 29  1  6  0  0  0
 37 34  1  0  0  0  0
 38 37  1  0  0  0  0
 41 48  2  0  0  0  0
 43 42  1  0  0  0  0
 43 44  2  0  0  0  0
 45 50  1  1  0  0  0
 45 47  1  0  0  0  0
 46 43  1  0  0  0  0
 47 49  2  0  0  0  0
 47 42  1  0  0  0  0
 48 45  1  0  0  0  0
 48 46  1  0  0  0  0
 49 40  1  0  0  0  0
 50 51  1  0  0  0  0
M  END
>  <MODEL>
6

>  <REMARK>
 VINA RESULT:      -6.8      4.205     10.060
  Name = 
  7 active torsions:
  status: ('A' for Active; 'I' for Inactive)
    1  A    between atoms: C_1  and  C_35
    2  A    between atoms: N_9  and  C_20
    3  A    between atoms: N_12  and  C_51
    4  A    between atoms: N_19  and  C_27
    5  A    between atoms: C_31  and  C_33
    6  A    between atoms: C_42  and  C_45
    7  A    between atoms: C_42  and  C_49
                            x       y       z     vdW  Elec       q    Type
                         _______ _______ _______ _____ _____    ______ ____

>  <TORSDO>
F 7

$$$$
=
 OpenBabel11042413553D

 51 58  0  0  1  0  0  0  0  0999 V2000
  193.2910  174.8830  140.9510 C   0  0  0  0  0  1  0  0  0  0  0  0
  196.0100  173.1650  142.4380 C   0  0  0  0  0  2  0  0  0  0  0  0
  195.3140  174.4260  142.2530 N   0  0  0  0  0  0  0  0  0  0  0  0
  194.7740  174.5680  140.9050 C   0  0  0  0  0  0  0  0  0  0  0  0
  194.9650  173.1900  140.2630 C   0  0  2  0  0  3  0  0  0  0  0  0
  195.5160  175.6740  140.1620 C   0  0  0  0  0  1  0  0  0  0  0  0
  196.0500  172.4980  141.0730 C   0  0  2  0  0  3  0  0  0  0  0  0
  194.9380  177.2650  145.3930 C   0  0  0  0  0  3  0  0  0  0  0  0
  194.0100  175.4570  144.0850 C   0  0  0  0  0  3  0  0  0  0  0  0
  193.8760  176.3910  145.1220 C   0  0  0  0  0  0  0  0  0  0  0  0
  196.1090  177.2140  144.6310 C   0  0  0  0  0  3  0  0  0  0  0  0
  196.2270  176.2850  143.5950 C   0  0  0  0  0  3  0  0  0  0  0  0
  195.1810  175.3910  143.3170 C   0  0  0  0  0  0  0  0  0  0  0  0
  189.0480  175.9380  146.0140 C   0  0  2  0  0  3  0  0  0  0  0  0
  188.6680  177.7030  144.2570 S   0  0  0  0  0  0  0  0  0  0  0  0
  192.6620  176.4630  145.8840 N   0  0  0  0  0  0  0  0  0  0  0  0
  186.6580  176.4370  145.9390 C   0  0  1  0  0  3  0  0  0  0  0  0
  190.4330  176.4650  146.2730 C   0  0  1  0  0  0  0  0  0  0  0  0
  185.3950  176.6620  146.7840 C   0  0  0  0  0  2  0  0  0  0  0  0
  191.4250  176.2390  145.2540 N   0  0  0  0  0  2  0  0  0  0  0  0
  189.3580  177.4420  145.8960 C   0  0  2  0  0  3  0  0  0  0  0  0
  191.0820  176.5990  147.9360 S   0  0  0  0  0  0  0  0  0  0  0  0
  192.7100  176.7720  147.2610 N   0  0  0  0  0  2  0  0  0  0  0  0
  185.0800  179.0270  145.9650 C   0  0  0  0  0  2  0  0  0  0  0  0
  184.4330  177.6410  146.1150 C   0  0  0  0  0  2  0  0  0  0  0  0
  186.5720  178.9790  145.6030 C   0  0  0  0  0  2  0  0  0  0  0  0
  186.9570  177.6400  144.9700 C   0  0  1  0  0  3  0  0  0  0  0  0
  187.8220  176.0630  146.8810 C   0  0  0  0  0  2  0  0  0  0  0  0
  194.3720  172.9670  137.8200 C   0  0  0  0  0  0  0  0  0  0  0  0
  195.3220  173.2470  138.8510 N   0  0  0  0  0  2  0  0  0  0  0  0
  193.2190  172.5440  138.1100 O   0  0  0  0  0  0  0  0  0  0  0  0
  197.1520  172.8750  134.6840 O   0  0  0  0  0  0  0  0  0  0  0  0
  197.2390  173.6970  135.8170 C   0  0  0  0  0  2  0  0  0  0  0  0
  195.8590  174.1750  136.1740 C   0  0  0  0  0  0  0  0  0  0  0  0
  197.1170  171.5400  135.1430 C   0  0  0  0  0  2  0  0  0  0  0  0
  195.8720  171.2370  135.9910 C   0  0  0  0  0  2  0  0  0  0  0  0
  194.7210  173.2020  136.3810 C   0  0  1  0  0  3  0  0  0  0  0  0
  194.7760  172.0290  135.5840 O   0  0  0  0  0  0  0  0  0  0  0  0
  195.6640  175.3690  136.3390 O   0  0  0  0  0  0  0  0  0  0  0  0
  195.7400  171.0080  141.1730 C   0  0  0  0  0  2  0  0  0  0  0  0
  190.4310  168.1660  141.6380 O   0  0  0  0  0  0  0  0  0  0  0  0
  193.7630  169.5470  139.6870 N   0  0  0  0  0  0  0  0  0  0  0  0
  192.8800  168.6430  139.0280 C   0  0  0  0  0  0  0  0  0  0  0  0
  193.1500  168.2250  137.8710 O   0  0  0  0  0  0  0  0  0  0  0  0
  192.0550  169.9180  141.5440 C   0  0  2  0  0  3  0  0  0  0  0  0
  191.7080  168.1840  139.7000 N   0  0  0  0  0  2  0  0  0  0  0  0
  193.4410  170.0800  140.9750 C   0  0  0  0  0  0  0  0  0  0  0  0
  191.3590  168.7060  140.9850 C   0  0  0  0  0  0  0  0  0  0  0  0
  194.3480  170.7690  141.6710 C   0  0  0  0  0  2  0  0  0  0  0  0
  191.2390  171.1720  141.2570 C   0  0  0  0  0  2  0  0  0  0  0  0
  190.1760  171.2700  142.1570 O   0  0  0  0  0  1  0  0  0  0  0  0
  3  2  1  0  0  0  0
  3 13  1  0  0  0  0
  4  1  1  0  0  0  0
  4  3  1  0  0  0  0
  5 30  1  6  0  0  0
  5  4  1  0  0  0  0
  5  7  1  0  0  0  0
  6  4  1  0  0  0  0
  7 40  1  1  0  0  0
  7  2  1  0  0  0  0
  9 10  2  0  0  0  0
 10  8  1  0  0  0  0
 10 16  1  0  0  0  0
 11  8  2  0  0  0  0
 12 11  1  0  0  0  0
 13 12  2  0  0  0  0
 13  9  1  0  0  0  0
 14 18  1  0  0  0  0
 14 28  1  1  0  0  0
 15 27  1  0  0  0  0
 16 23  1  0  0  0  0
 17 19  1  1  0  0  0
 17 28  1  0  0  0  0
 18 20  1  6  0  0  0
 18 22  1  0  0  0  0
 20 16  1  0  0  0  0
 21 15  1  6  0  0  0
 21 14  1  0  0  0  0
 21 18  1  0  0  0  0
 23 22  1  0  0  0  0
 24 25  1  0  0  0  0
 25 19  1  0  0  0  0
 26 24  1  0  0  0  0
 27 26  1  1  0  0  0
 27 17  1  0  0  0  0
 29 31  2  0  0  0  0
 29 30  1  0  0  0  0
 32 35  1  0  0  0  0
 32 33  1  0  0  0  0
 33 34  1  0  0  0  0
 34 39  2  0  0  0  0
 34 37  1  0  0  0  0
 35 36  1  0  0  0  0
 37 29  1  1  0  0  0
 38 36  1  0  0  0  0
 38 37  1  0  0  0  0
 40 49  1  0  0  0  0
 42 47  2  0  0  0  0
 43 42  1  0  0  0  0
 43 46  1  0  0  0  0
 44 43  2  0  0  0  0
 45 50  1  6  0  0  0
 46 48  1  0  0  0  0
 47 45  1  0  0  0  0
 47 49  1  0  0  0  0
 48 45  1  0  0  0  0
 48 41  2  0  0  0  0
 50 51  1  0  0  0  0
M  END
>  <MODEL>
7

>  <REMARK>
 VINA RESULT:      -6.7      2.078      3.156
  Name = 
  7 active torsions:
  status: ('A' for Active; 'I' for Inactive)
    1  A    between atoms: C_1  and  C_35
    2  A    between atoms: N_9  and  C_20
    3  A    between atoms: N_12  and  C_51
    4  A    between atoms: N_19  and  C_27
    5  A    between atoms: C_31  and  C_33
    6  A    between atoms: C_42  and  C_45
    7  A    between atoms: C_42  and  C_49
                            x       y       z     vdW  Elec       q    Type
                         _______ _______ _______ _____ _____    ______ ____

>  <TORSDO>
F 7

$$$$
=
 OpenBabel11042413553D

 51 58  0  0  1  0  0  0  0  0999 V2000
  191.0300  173.7940  138.8640 C   0  0  0  0  0  1  0  0  0  0  0  0
  189.2460  171.9600  136.4120 C   0  0  0  0  0  2  0  0  0  0  0  0
  189.2310  173.0400  137.3830 N   0  0  0  0  0  0  0  0  0  0  0  0
  189.9990  172.7180  138.5820 C   0  0  0  0  0  0  0  0  0  0  0  0
  190.7280  171.4150  138.2370 C   0  0  2  0  0  3  0  0  0  0  0  0
  189.0610  172.5730  139.7750 C   0  0  0  0  0  1  0  0  0  0  0  0
  189.9560  170.7960  137.0830 C   0  0  2  0  0  3  0  0  0  0  0  0
  187.2020  176.7020  136.6540 C   0  0  0  0  0  3  0  0  0  0  0  0
  187.8290  174.9220  138.1650 C   0  0  0  0  0  3  0  0  0  0  0  0
  187.1550  176.1290  137.9330 C   0  0  0  0  0  0  0  0  0  0  0  0
  187.8990  176.0700  135.6210 C   0  0  0  0  0  3  0  0  0  0  0  0
  188.5600  174.8620  135.8610 C   0  0  0  0  0  3  0  0  0  0  0  0
  188.5380  174.2800  137.1380 C   0  0  0  0  0  0  0  0  0  0  0  0
  186.4620  178.5050  142.1970 C   0  0  2  0  0  3  0  0  0  0  0  0
  187.3860  176.4690  143.3570 S   0  0  0  0  0  0  0  0  0  0  0  0
  186.4130  176.7620  138.9870 N   0  0  0  0  0  0  0  0  0  0  0  0
  186.3120  178.8670  144.6090 C   0  0  1  0  0  3  0  0  0  0  0  0
  186.0320  177.6680  141.0250 C   0  0  1  0  0  0  0  0  0  0  0  0
  185.4340  179.4130  145.7440 C   0  0  0  0  0  2  0  0  0  0  0  0
  187.0680  177.1510  140.1680 N   0  0  0  0  0  2  0  0  0  0  0  0
  185.9860  177.0540  142.3930 C   0  0  2  0  0  3  0  0  0  0  0  0
  184.4550  177.9340  140.2190 S   0  0  0  0  0  0  0  0  0  0  0  0
  185.0250  176.9790  138.8400 N   0  0  0  0  0  2  0  0  0  0  0  0
  185.2600  177.1770  146.8960 C   0  0  0  0  0  2  0  0  0  0  0  0
  185.6570  178.6530  147.0490 C   0  0  0  0  0  2  0  0  0  0  0  0
  185.6270  176.5740  145.5320 C   0  0  0  0  0  2  0  0  0  0  0  0
  186.7360  177.3700  144.8420 C   0  0  1  0  0  3  0  0  0  0  0  0
  185.6030  179.1340  143.2630 C   0  0  0  0  0  2  0  0  0  0  0  0
  192.0140  170.3910  140.1520 C   0  0  0  0  0  0  0  0  0  0  0  0
  190.8290  170.4870  139.3580 N   0  0  0  0  0  2  0  0  0  0  0  0
  193.0550  171.0270  139.8300 O   0  0  0  0  0  0  0  0  0  0  0  0
  193.0840  169.8610  144.1710 O   0  0  0  0  0  0  0  0  0  0  0  0
  193.9860  169.9620  143.1010 C   0  0  0  0  0  2  0  0  0  0  0  0
  193.4100  169.2390  141.9150 C   0  0  0  0  0  0  0  0  0  0  0  0
  192.3180  171.0480  144.1800 C   0  0  0  0  0  2  0  0  0  0  0  0
  191.4650  171.2110  142.9120 C   0  0  0  0  0  2  0  0  0  0  0  0
  192.0260  169.5570  141.3990 C   0  0  1  0  0  3  0  0  0  0  0  0
  191.0880  169.9560  142.3880 O   0  0  0  0  0  0  0  0  0  0  0  0
  194.0900  168.4090  141.3330 O   0  0  0  0  0  0  0  0  0  0  0  0
  190.9270  170.1110  136.1290 C   0  0  0  0  0  2  0  0  0  0  0  0
  196.6830  171.5590  135.0110 O   0  0  0  0  0  0  0  0  0  0  0  0
  193.6390  169.5680  136.9050 N   0  0  0  0  0  2  0  0  0  0  0  0
  194.9900  169.1660  137.1180 C   0  0  0  0  0  0  0  0  0  0  0  0
  195.2450  168.1660  137.8420 O   0  0  0  0  0  0  0  0  0  0  0  0
  194.4200  171.7130  135.7680 C   0  0  2  0  0  3  0  0  0  0  0  0
  196.0480  169.8760  136.4780 N   0  0  0  0  0  2  0  0  0  0  0  0
  193.3340  170.7370  136.1380 C   0  0  0  0  0  0  0  0  0  0  0  0
  195.7720  171.0510  135.7110 C   0  0  0  0  0  0  0  0  0  0  0  0
  192.0760  171.0050  135.7790 C   0  0  0  0  0  3  0  0  0  0  0  0
  194.4380  172.8590  136.7730 C   0  0  0  0  0  2  0  0  0  0  0  0
  194.3750  174.0840  136.1070 O   0  0  0  0  0  1  0  0  0  0  0  0
  2  7  1  0  0  0  0
  2  3  1  0  0  0  0
  3  4  1  0  0  0  0
  4  1  1  0  0  0  0
  4  6  1  0  0  0  0
  5  4  1  0  0  0  0
  5 30  1  1  0  0  0
  7 40  1  6  0  0  0
  7  5  1  0  0  0  0
  8 10  1  0  0  0  0
 10  9  2  0  0  0  0
 10 16  1  0  0  0  0
 11 12  1  0  0  0  0
 11  8  2  0  0  0  0
 12 13  2  0  0  0  0
 13  3  1  0  0  0  0
 13  9  1  0  0  0  0
 14 21  1  0  0  0  0
 14 28  1  1  0  0  0
 15 27  1  0  0  0  0
 16 20  1  0  0  0  0
 17 28  1  6  0  0  0
 17 27  1  0  0  0  0
 17 19  1  0  0  0  0
 18 20  1  6  0  0  0
 18 14  1  0  0  0  0
 18 21  1  0  0  0  0
 19 25  1  0  0  0  0
 21 15  1  6  0  0  0
 22 18  1  0  0  0  0
 23 16  1  0  0  0  0
 23 22  1  0  0  0  0
 24 25  1  0  0  0  0
 26 24  1  0  0  0  0
 27 26  1  6  0  0  0
 30 29  1  0  0  0  0
 31 29  2  0  0  0  0
 32 35  1  0  0  0  0
 33 32  1  0  0  0  0
 34 33  1  0  0  0  0
 36 35  1  0  0  0  0
 37 29  1  6  0  0  0
 37 34  1  0  0  0  0
 37 38  1  0  0  0  0
 38 36  1  0  0  0  0
 39 34  2  0  0  0  0
 41 48  2  0  0  0  0
 42 43  1  0  0  0  0
 43 44  2  0  0  0  0
 45 47  1  0  0  0  0
 45 50  1  1  0  0  0
 46 43  1  0  0  0  0
 47 42  1  0  0  0  0
 48 45  1  0  0  0  0
 48 46  1  0  0  0  0
 49 40  1  0  0  0  0
 49 47  2  0  0  0  0
 51 50  1  0  0  0  0
M  END
>  <MODEL>
8

>  <REMARK>
 VINA RESULT:      -6.4      3.676      7.500
  Name = 
  7 active torsions:
  status: ('A' for Active; 'I' for Inactive)
    1  A    between atoms: C_1  and  C_35
    2  A    between atoms: N_9  and  C_20
    3  A    between atoms: N_12  and  C_51
    4  A    between atoms: N_19  and  C_27
    5  A    between atoms: C_31  and  C_33
    6  A    between atoms: C_42  and  C_45
    7  A    between atoms: C_42  and  C_49
                            x       y       z     vdW  Elec       q    Type
                         _______ _______ _______ _____ _____    ______ ____

>  <TORSDO>
F 7

$$$$
=
 OpenBabel11042413553D

 51 58  0  0  1  0  0  0  0  0999 V2000
  191.5630  172.1290  142.6650 C   0  0  0  0  0  1  0  0  0  0  0  0
  193.5840  173.0480  139.9040 C   0  0  0  0  0  2  0  0  0  0  0  0
  192.3210  172.5010  140.3660 N   0  0  0  0  0  0  0  0  0  0  0  0
  192.4810  171.6630  141.5510 C   0  0  0  0  0  0  0  0  0  0  0  0
  193.9330  171.8810  141.9870 C   0  0  2  0  0  3  0  0  0  0  0  0
  192.1790  170.2100  141.2040 C   0  0  0  0  0  1  0  0  0  0  0  0
  194.6630  172.4090  140.7620 C   0  0  2  0  0  3  0  0  0  0  0  0
  188.6490  173.3640  138.4110 C   0  0  0  0  0  3  0  0  0  0  0  0
  190.2420  173.8260  140.1690 C   0  0  0  0  0  3  0  0  0  0  0  0
  189.0280  174.1170  139.5310 C   0  0  0  0  0  0  0  0  0  0  0  0
  189.4630  172.3290  137.9450 C   0  0  0  0  0  3  0  0  0  0  0  0
  190.6670  172.0430  138.5940 C   0  0  0  0  0  3  0  0  0  0  0  0
  191.0720  172.7940  139.7080 C   0  0  0  0  0  0  0  0  0  0  0  0
  187.5630  177.7120  142.5710 C   0  0  2  0  0  3  0  0  0  0  0  0
  187.3430  175.9570  144.3660 S   0  0  0  0  0  0  0  0  0  0  0  0
  188.1770  175.1610  140.0290 N   0  0  0  0  0  0  0  0  0  0  0  0
  186.6550  178.7770  144.5740 C   0  0  1  0  0  3  0  0  0  0  0  0
  187.3640  176.6740  141.5020 C   0  0  1  0  0  0  0  0  0  0  0  0
  185.6280  179.7910  145.1000 C   0  0  0  0  0  2  0  0  0  0  0  0
  188.4370  175.7380  141.2840 N   0  0  0  0  0  2  0  0  0  0  0  0
  186.6390  176.5030  142.8040 C   0  0  2  0  0  3  0  0  0  0  0  0
  186.3500  177.0020  140.0630 S   0  0  0  0  0  0  0  0  0  0  0  0
  187.0730  175.5960  139.2630 N   0  0  0  0  0  2  0  0  0  0  0  0
  184.3840  178.0630  146.4520 C   0  0  0  0  0  2  0  0  0  0  0  0
  185.1180  179.4120  146.4880 C   0  0  0  0  0  2  0  0  0  0  0  0
  185.0260  177.0320  145.5130 C   0  0  0  0  0  2  0  0  0  0  0  0
  186.4950  177.3590  145.2350 C   0  0  1  0  0  3  0  0  0  0  0  0
  186.6040  178.7790  143.0310 C   0  0  0  0  0  2  0  0  0  0  0  0
  194.7030  170.4300  143.9040 C   0  0  0  0  0  0  0  0  0  0  0  0
  194.5770  170.6780  142.5010 N   0  0  0  0  0  2  0  0  0  0  0  0
  194.3630  171.3100  144.7420 O   0  0  0  0  0  0  0  0  0  0  0  0
  196.8170  168.1660  146.7290 O   0  0  0  0  0  0  0  0  0  0  0  0
  197.3810  169.1290  145.8790 C   0  0  0  0  0  2  0  0  0  0  0  0
  196.7140  169.0370  144.5350 C   0  0  0  0  0  0  0  0  0  0  0  0
  195.8260  168.8190  147.4940 C   0  0  0  0  0  2  0  0  0  0  0  0
  194.6740  169.3610  146.6330 C   0  0  0  0  0  2  0  0  0  0  0  0
  195.2100  169.1090  144.3990 C   0  0  1  0  0  3  0  0  0  0  0  0
  194.4780  168.5620  145.4860 O   0  0  0  0  0  0  0  0  0  0  0  0
  197.4010  168.9440  143.5310 O   0  0  0  0  0  0  0  0  0  0  0  0
  195.7090  173.4310  141.1930 C   0  0  0  0  0  2  0  0  0  0  0  0
  194.9050  177.7150  145.3750 O   0  0  0  0  0  0  0  0  0  0  0  0
  195.7900  173.9470  144.0180 N   0  0  0  0  0  2  0  0  0  0  0  0
  196.0290  174.2840  145.3820 C   0  0  0  0  0  0  0  0  0  0  0  0
  196.5620  173.4450  146.1560 O   0  0  0  0  0  0  0  0  0  0  0  0
  194.4340  176.0820  143.6920 C   0  0  2  0  0  3  0  0  0  0  0  0
  195.6970  175.5870  145.8570 N   0  0  0  0  0  2  0  0  0  0  0  0
  195.1290  174.8640  143.1410 C   0  0  0  0  0  0  0  0  0  0  0  0
  195.0290  176.5200  145.0040 C   0  0  0  0  0  0  0  0  0  0  0  0
  195.0770  174.6310  141.8280 C   0  0  0  0  0  3  0  0  0  0  0  0
  192.9480  175.7870  143.8620 C   0  0  0  0  0  2  0  0  0  0  0  0
  192.7700  174.6980  144.7180 O   0  0  0  0  0  1  0  0  0  0  0  0
  2  3  1  0  0  0  0
  2  7  1  0  0  0  0
  3  4  1  0  0  0  0
  4  5  1  0  0  0  0
  4  1  1  0  0  0  0
  5 30  1  6  0  0  0
  6  4  1  0  0  0  0
  7 40  1  1  0  0  0
  7  5  1  0  0  0  0
  8 10  1  0  0  0  0
 10 16  1  0  0  0  0
 10  9  2  0  0  0  0
 11  8  2  0  0  0  0
 11 12  1  0  0  0  0
 12 13  2  0  0  0  0
 13  9  1  0  0  0  0
 13  3  1  0  0  0  0
 14 21  1  0  0  0  0
 14 28  1  6  0  0  0
 15 27  1  0  0  0  0
 16 20  1  0  0  0  0
 17 28  1  6  0  0  0
 17 19  1  0  0  0  0
 17 27  1  0  0  0  0
 18 22  1  6  0  0  0
 18 14  1  0  0  0  0
 18 21  1  0  0  0  0
 19 25  1  0  0  0  0
 20 18  1  0  0  0  0
 21 15  1  1  0  0  0
 23 16  1  0  0  0  0
 23 22  1  0  0  0  0
 24 25  1  0  0  0  0
 26 24  1  0  0  0  0
 27 26  1  6  0  0  0
 29 31  2  0  0  0  0
 30 29  1  0  0  0  0
 32 35  1  0  0  0  0
 33 32  1  0  0  0  0
 34 33  1  0  0  0  0
 36 35  1  0  0  0  0
 37 29  1  1  0  0  0
 37 34  1  0  0  0  0
 37 38  1  0  0  0  0
 38 36  1  0  0  0  0
 39 34  2  0  0  0  0
 40 49  1  0  0  0  0
 42 43  1  0  0  0  0
 43 46  1  0  0  0  0
 43 44  2  0  0  0  0
 45 50  1  1  0  0  0
 45 48  1  0  0  0  0
 47 45  1  0  0  0  0
 47 42  1  0  0  0  0
 48 41  2  0  0  0  0
 48 46  1  0  0  0  0
 49 47  2  0  0  0  0
 50 51  1  0  0  0  0
M  END
>  <MODEL>
9

>  <REMARK>
 VINA RESULT:      -6.3      3.936      7.206
  Name = 
  7 active torsions:
  status: ('A' for Active; 'I' for Inactive)
    1  A    between atoms: C_1  and  C_35
    2  A    between atoms: N_9  and  C_20
    3  A    between atoms: N_12  and  C_51
    4  A    between atoms: N_19  and  C_27
    5  A    between atoms: C_31  and  C_33
    6  A    between atoms: C_42  and  C_45
    7  A    between atoms: C_42  and  C_49
                            x       y       z     vdW  Elec       q    Type
                         _______ _______ _______ _____ _____    ______ ____

>  <TORSDO>
F 7

$$$$
