=
 OpenBabel11042418383D

 37 38  0  0  1  0  0  0  0  0999 V2000
  190.0370  174.3750  142.5030 C   0  0  0  0  0  0  0  0  0  0  0  0
  192.5160  174.1990  142.4320 C   0  0  2  0  0  3  0  0  0  0  0  0
  191.3310  175.1470  142.3570 C   0  0  2  0  0  3  0  0  0  0  0  0
  189.5130  174.1080  143.7090 C   0  0  0  0  0  3  0  0  0  0  0  0
  191.7030  174.3130  144.7750 C   0  0  2  0  0  3  0  0  0  0  0  0
  192.2480  175.1300  143.5960 C   0  0  1  0  0  3  0  0  0  0  0  0
  193.8530  174.8530  141.4610 Cl  0  0  0  0  0  0  0  0  0  0  0  0
  190.1990  174.5400  144.9670 C   0  0  1  0  0  3  0  0  0  0  0  0
  190.2920  171.6960  141.3110 O   0  0  0  0  0  1  0  0  0  0  0  0
  189.3240  173.9450  141.2890 C   0  0  0  0  0  0  0  0  0  0  0  0
  188.6150  174.7840  140.6620 O   0  0  0  0  0  0  0  0  0  0  0  0
  189.4260  172.6090  140.7840 N   0  0  0  0  0  2  0  0  0  0  0  0
  192.4960  174.6080  146.0420 C   0  0  0  0  0  2  0  0  0  0  0  0
  193.4400  175.7860  145.8320 C   0  0  0  0  0  2  0  0  0  0  0  0
  194.8620  175.3870  146.0730 C   0  0  0  0  0  3  0  0  0  0  0  0
  195.3160  174.2330  145.6600 C   0  0  0  0  0  0  0  0  0  0  0  0
  195.7550  173.0880  145.2190 C   0  0  0  0  0  3  0  0  0  0  0  0
  197.0600  172.5390  145.6930 C   0  0  0  0  0  2  0  0  0  0  0  0
  197.0260  171.0190  145.7080 C   0  0  0  0  0  2  0  0  0  0  0  0
  195.6010  170.5140  145.9100 C   0  0  0  0  0  1  0  0  0  0  0  0
  189.9330  175.9080  145.2160 O   0  0  0  0  0  0  0  0  0  0  0  0
  189.0930  176.1300  146.3500 C   0  0  1  0  0  0  0  0  0  0  0  0
  189.0740  174.9630  147.3650 C   0  0  0  0  0  1  0  0  0  0  0  0
  189.7010  177.3510  147.0480 C   0  0  0  0  0  2  0  0  0  0  0  0
  190.7940  177.0220  147.8630 O   0  0  0  0  0  1  0  0  0  0  0  0
  187.6570  176.4680  145.8700 C   0  0  1  0  0  3  0  0  0  0  0  0
  186.7200  176.7290  147.0390 C   0  0  0  0  0  1  0  0  0  0  0  0
  187.6110  177.6770  144.9260 C   0  0  0  0  0  2  0  0  0  0  0  0
  187.3310  177.3070  143.4630 C   0  0  2  0  0  3  0  0  0  0  0  0
  188.3970  177.8260  142.5460 C   0  0  0  0  0  0  0  0  0  0  0  0
  188.1190  177.9860  141.1960 O   0  0  0  0  0  0  0  0  0  0  0  0
  189.5640  178.0560  142.9710 O   0  0  0  0  0  1  0  0  0  0  0  0
  185.9370  177.7260  143.0100 C   0  0  0  0  0  2  0  0  0  0  0  0
  184.5220  178.8920  144.7370 C   0  0  0  0  0  0  0  0  0  0  0  0
  184.7070  180.0140  144.1860 O   0  0  0  0  0  0  0  0  0  0  0  0
  183.8270  178.8170  145.9370 O   0  0  0  0  0  1  0  0  0  0  0  0
  185.0130  177.6990  144.1350 N   0  0  0  0  0  2  0  0  0  0  0  0
  1  4  2  0  0  0  0
  2  7  1  6  0  0  0
  2  6  1  0  0  0  0
  3  2  1  0  0  0  0
  3  1  1  1  0  0  0
  3  6  1  0  0  0  0
  4  8  1  0  0  0  0
  5  8  1  0  0  0  0
  5 13  1  1  0  0  0
  6  5  1  0  0  0  0
  8 21  1  0  0  0  0
 10  1  1  0  0  0  0
 11 10  2  0  0  0  0
 12 10  1  0  0  0  0
 12  9  1  0  0  0  0
 14 13  1  0  0  0  0
 14 15  1  0  0  0  0
 16 15  2  0  0  0  0
 17 16  2  0  0  0  0
 17 18  1  0  0  0  0
 18 19  1  0  0  0  0
 19 20  1  0  0  0  0
 21 22  1  0  0  0  0
 22 24  1  0  0  0  0
 22 23  1  0  0  0  0
 24 25  1  0  0  0  0
 26 22  1  0  0  0  0
 26 27  1  0  0  0  0
 28 26  1  0  0  0  0
 29 28  1  0  0  0  0
 30 32  1  0  0  0  0
 30 29  1  0  0  0  0
 31 30  2  0  0  0  0
 33 29  1  0  0  0  0
 33 37  1  0  0  0  0
 34 36  1  0  0  0  0
 35 34  2  0  0  0  0
 37 34  1  0  0  0  0
M  END
>  <MODEL>
1

>  <REMARK>
 VINA RESULT:      -6.7      0.000      0.000
  Name = 
  15 active torsions:
  status: ('A' for Active; 'I' for Inactive)
    1  A    between atoms: C_1  and  C_10
    2  A    between atoms: C_3  and  C_16
    3  A    between atoms: C_6  and  C_8
    4  A    between atoms: C_8  and  C_20
    5  A    between atoms: C_8  and  O_34
    6  A    between atoms: C_13  and  C_23
    7  A    between atoms: C_13  and  C_24
    8  A    between atoms: C_13  and  C_37
    9  A    between atoms: C_15  and  C_26
   10  A    between atoms: C_16  and  C_26
   11  A    between atoms: C_19  and  C_29
   12  A    between atoms: C_20  and  C_23
   13  A    between atoms: C_25  and  O_34
   14  A    between atoms: N_27  and  C_37
   15  A    between atoms: C_29  and  C_30
                            x       y       z     vdW  Elec       q    Type
                         _______ _______ _______ _____ _____    ______ ____

>  <TORSDO>
F 15

$$$$
=
 OpenBabel11042418383D

 37 38  0  0  1  0  0  0  0  0999 V2000
  186.6490  178.1160  144.2850 C   0  0  0  0  0  0  0  0  0  0  0  0
  186.4400  178.1620  146.7620 C   0  0  2  0  0  3  0  0  0  0  0  0
  186.0680  177.4130  145.4940 C   0  0  2  0  0  3  0  0  0  0  0  0
  187.8940  177.8560  143.8550 C   0  0  0  0  0  3  0  0  0  0  0  0
  188.5640  177.0780  146.0720 C   0  0  2  0  0  3  0  0  0  0  0  0
  187.1040  176.8320  146.4750 C   0  0  1  0  0  3  0  0  0  0  0  0
  185.1660  177.9250  147.9780 Cl  0  0  0  0  0  0  0  0  0  0  0  0
  188.7730  176.8770  144.5670 C   0  0  1  0  0  3  0  0  0  0  0  0
  185.3000  177.5040  141.7420 O   0  0  0  0  0  1  0  0  0  0  0  0
  185.8110  179.0760  143.5480 C   0  0  0  0  0  0  0  0  0  0  0  0
  185.7130  180.2620  143.9760 O   0  0  0  0  0  0  0  0  0  0  0  0
  185.1180  178.7120  142.3490 N   0  0  0  0  0  2  0  0  0  0  0  0
  189.5020  176.2110  146.9040 C   0  0  0  0  0  2  0  0  0  0  0  0
  190.8980  176.8180  146.9620 C   0  0  0  0  0  2  0  0  0  0  0  0
  191.9430  175.7570  147.1080 C   0  0  0  0  0  3  0  0  0  0  0  0
  193.1430  175.9230  146.6180 C   0  0  0  0  0  0  0  0  0  0  0  0
  194.3410  176.1180  146.1440 C   0  0  0  0  0  3  0  0  0  0  0  0
  195.3010  174.9830  146.0090 C   0  0  0  0  0  2  0  0  0  0  0  0
  196.0270  175.0520  144.6760 C   0  0  0  0  0  2  0  0  0  0  0  0
  195.7720  176.3920  143.9930 C   0  0  0  0  0  1  0  0  0  0  0  0
  188.4270  175.5570  144.1910 O   0  0  0  0  0  0  0  0  0  0  0  0
  189.4550  174.8810  143.4650 C   0  0  1  0  0  0  0  0  0  0  0  0
  190.7250  175.7290  143.2220 C   0  0  0  0  0  1  0  0  0  0  0  0
  189.8430  173.6960  144.3570 C   0  0  0  0  0  2  0  0  0  0  0  0
  191.2320  173.5460  144.4840 O   0  0  0  0  0  1  0  0  0  0  0  0
  188.8780  174.3540  142.1240 C   0  0  1  0  0  3  0  0  0  0  0  0
  188.1950  175.4590  141.3340 C   0  0  0  0  0  1  0  0  0  0  0  0
  189.9400  173.6970  141.2330 C   0  0  0  0  0  2  0  0  0  0  0  0
  189.5170  172.3310  140.6740 C   0  0  2  0  0  3  0  0  0  0  0  0
  190.3950  171.2280  141.1840 C   0  0  0  0  0  0  0  0  0  0  0  0
  191.2060  170.5350  140.2970 O   0  0  0  0  0  0  0  0  0  0  0  0
  190.3570  170.8760  142.3970 O   0  0  0  0  0  1  0  0  0  0  0  0
  189.4230  172.3250  139.1520 C   0  0  0  0  0  2  0  0  0  0  0  0
  188.4250  174.1510  137.7330 C   0  0  0  0  0  0  0  0  0  0  0  0
  189.4860  174.2560  137.0550 O   0  0  0  0  0  0  0  0  0  0  0  0
  187.3740  175.0320  137.5150 O   0  0  0  0  0  1  0  0  0  0  0  0
  188.2910  173.1300  138.7160 N   0  0  0  0  0  2  0  0  0  0  0  0
  2  7  1  1  0  0  0
  3  1  1  6  0  0  0
  3  6  1  0  0  0  0
  3  2  1  0  0  0  0
  4  1  2  0  0  0  0
  4  8  1  0  0  0  0
  5  6  1  0  0  0  0
  5 13  1  1  0  0  0
  6  2  1  0  0  0  0
  8  5  1  0  0  0  0
  9 12  1  0  0  0  0
 10 11  2  0  0  0  0
 10  1  1  0  0  0  0
 12 10  1  0  0  0  0
 13 14  1  0  0  0  0
 14 15  1  0  0  0  0
 16 15  2  0  0  0  0
 17 16  2  0  0  0  0
 18 17  1  0  0  0  0
 19 18  1  0  0  0  0
 20 19  1  0  0  0  0
 21  8  1  0  0  0  0
 22 21  1  0  0  0  0
 22 24  1  0  0  0  0
 23 22  1  0  0  0  0
 24 25  1  0  0  0  0
 26 22  1  0  0  0  0
 27 26  1  0  0  0  0
 28 26  1  0  0  0  0
 29 30  1  0  0  0  0
 29 28  1  0  0  0  0
 30 32  1  0  0  0  0
 31 30  2  0  0  0  0
 33 29  1  0  0  0  0
 34 37  1  0  0  0  0
 35 34  2  0  0  0  0
 36 34  1  0  0  0  0
 37 33  1  0  0  0  0
M  END
>  <MODEL>
2

>  <REMARK>
 VINA RESULT:      -6.3      2.807      6.286
  Name = 
  15 active torsions:
  status: ('A' for Active; 'I' for Inactive)
    1  A    between atoms: C_1  and  C_10
    2  A    between atoms: C_3  and  C_16
    3  A    between atoms: C_6  and  C_8
    4  A    between atoms: C_8  and  C_20
    5  A    between atoms: C_8  and  O_34
    6  A    between atoms: C_13  and  C_23
    7  A    between atoms: C_13  and  C_24
    8  A    between atoms: C_13  and  C_37
    9  A    between atoms: C_15  and  C_26
   10  A    between atoms: C_16  and  C_26
   11  A    between atoms: C_19  and  C_29
   12  A    between atoms: C_20  and  C_23
   13  A    between atoms: C_25  and  O_34
   14  A    between atoms: N_27  and  C_37
   15  A    between atoms: C_29  and  C_30
                            x       y       z     vdW  Elec       q    Type
                         _______ _______ _______ _____ _____    ______ ____

>  <TORSDO>
F 15

$$$$
=
 OpenBabel11042418383D

 37 38  0  0  1  0  0  0  0  0999 V2000
  194.5030  175.1210  143.6340 C   0  0  0  0  0  0  0  0  0  0  0  0
  194.0020  175.8320  145.9630 C   0  0  2  0  0  3  0  0  0  0  0  0
  193.8320  176.1720  144.4920 C   0  0  2  0  0  3  0  0  0  0  0  0
  193.8580  174.0040  143.2620 C   0  0  0  0  0  3  0  0  0  0  0  0
  192.3330  174.1770  145.1640 C   0  0  2  0  0  3  0  0  0  0  0  0
  192.6370  175.6720  145.3270 C   0  0  1  0  0  3  0  0  0  0  0  0
  194.0280  177.3340  146.9120 Cl  0  0  0  0  0  0  0  0  0  0  0  0
  192.4520  173.7360  143.7010 C   0  0  1  0  0  3  0  0  0  0  0  0
  195.1850  176.6710  141.2270 O   0  0  0  0  0  1  0  0  0  0  0  0
  195.8810  175.3530  143.1700 C   0  0  0  0  0  0  0  0  0  0  0  0
  196.8380  174.8000  143.7840 O   0  0  0  0  0  0  0  0  0  0  0  0
  196.1680  176.1730  142.0310 N   0  0  0  0  0  2  0  0  0  0  0  0
  190.9700  173.8410  145.7560 C   0  0  0  0  0  2  0  0  0  0  0  0
  190.5300  174.9080  146.7510 C   0  0  0  0  0  2  0  0  0  0  0  0
  189.0510  174.8630  146.9730 C   0  0  0  0  0  3  0  0  0  0  0  0
  188.3030  175.9090  146.7380 C   0  0  0  0  0  0  0  0  0  0  0  0
  187.5730  176.9550  146.4740 C   0  0  0  0  0  3  0  0  0  0  0  0
  186.1620  177.0410  146.9570 C   0  0  0  0  0  2  0  0  0  0  0  0
  185.6320  178.4580  146.8100 C   0  0  0  0  0  2  0  0  0  0  0  0
  184.2320  178.4500  146.2040 C   0  0  0  0  0  1  0  0  0  0  0  0
  191.5480  174.4630  142.8900 O   0  0  0  0  0  0  0  0  0  0  0  0
  190.8250  173.6470  141.9660 C   0  0  1  0  0  0  0  0  0  0  0  0
  191.2700  173.8070  140.4940 C   0  0  0  0  0  1  0  0  0  0  0  0
  191.1340  172.2090  142.3970 C   0  0  0  0  0  2  0  0  0  0  0  0
  191.6000  171.4140  141.3400 O   0  0  0  0  0  1  0  0  0  0  0  0
  189.3050  173.9190  142.1170 C   0  0  1  0  0  3  0  0  0  0  0  0
  188.5450  172.6600  142.5040 C   0  0  0  0  0  1  0  0  0  0  0  0
  188.9930  175.0160  143.1440 C   0  0  0  0  0  2  0  0  0  0  0  0
  188.2900  176.2410  142.5440 C   0  0  2  0  0  3  0  0  0  0  0  0
  189.0760  177.4970  142.7690 C   0  0  0  0  0  0  0  0  0  0  0  0
  189.0640  178.4930  141.8020 O   0  0  0  0  0  0  0  0  0  0  0  0
  189.8030  177.6340  143.7930 O   0  0  0  0  0  1  0  0  0  0  0  0
  186.8480  176.3790  143.0200 C   0  0  0  0  0  2  0  0  0  0  0  0
  185.4490  178.2130  142.0080 C   0  0  0  0  0  0  0  0  0  0  0  0
  185.8190  179.0360  142.8920 O   0  0  0  0  0  1  0  0  0  0  0  0
  184.4870  178.5840  141.0770 O   0  0  0  0  0  0  0  0  0  0  0  0
  186.0140  176.9070  141.9500 N   0  0  0  0  0  2  0  0  0  0  0  0
  2  7  1  1  0  0  0
  3  1  1  6  0  0  0
  3  6  1  0  0  0  0
  3  2  1  0  0  0  0
  4  1  2  0  0  0  0
  4  8  1  0  0  0  0
  5  6  1  0  0  0  0
  5 13  1  6  0  0  0
  6  2  1  0  0  0  0
  8  5  1  0  0  0  0
  9 12  1  0  0  0  0
 10  1  1  0  0  0  0
 10 11  2  0  0  0  0
 12 10  1  0  0  0  0
 13 14  1  0  0  0  0
 14 15  1  0  0  0  0
 16 15  2  0  0  0  0
 17 16  2  0  0  0  0
 17 18  1  0  0  0  0
 19 18  1  0  0  0  0
 20 19  1  0  0  0  0
 21  8  1  0  0  0  0
 22 26  1  0  0  0  0
 22 24  1  0  0  0  0
 22 21  1  0  0  0  0
 23 22  1  0  0  0  0
 25 24  1  0  0  0  0
 26 27  1  0  0  0  0
 26 28  1  0  0  0  0
 29 30  1  0  0  0  0
 29 33  1  0  0  0  0
 29 28  1  0  0  0  0
 30 32  1  0  0  0  0
 31 30  2  0  0  0  0
 34 35  1  0  0  0  0
 36 34  2  0  0  0  0
 37 34  1  0  0  0  0
 37 33  1  0  0  0  0
M  END
>  <MODEL>
3

>  <REMARK>
 VINA RESULT:      -6.3      2.736      6.151
  Name = 
  15 active torsions:
  status: ('A' for Active; 'I' for Inactive)
    1  A    between atoms: C_1  and  C_10
    2  A    between atoms: C_3  and  C_16
    3  A    between atoms: C_6  and  C_8
    4  A    between atoms: C_8  and  C_20
    5  A    between atoms: C_8  and  O_34
    6  A    between atoms: C_13  and  C_23
    7  A    between atoms: C_13  and  C_24
    8  A    between atoms: C_13  and  C_37
    9  A    between atoms: C_15  and  C_26
   10  A    between atoms: C_16  and  C_26
   11  A    between atoms: C_19  and  C_29
   12  A    between atoms: C_20  and  C_23
   13  A    between atoms: C_25  and  O_34
   14  A    between atoms: N_27  and  C_37
   15  A    between atoms: C_29  and  C_30
                            x       y       z     vdW  Elec       q    Type
                         _______ _______ _______ _____ _____    ______ ____

>  <TORSDO>
F 15

$$$$
=
 OpenBabel11042418383D

 37 38  0  0  1  0  0  0  0  0999 V2000
  190.5060  174.0390  142.8020 C   0  0  0  0  0  0  0  0  0  0  0  0
  192.9620  173.6740  142.6550 C   0  0  2  0  0  3  0  0  0  0  0  0
  191.8430  174.6940  142.5240 C   0  0  2  0  0  3  0  0  0  0  0  0
  190.0210  173.9380  144.0490 C   0  0  0  0  0  3  0  0  0  0  0  0
  192.2670  174.0910  145.0010 C   0  0  2  0  0  3  0  0  0  0  0  0
  192.8120  174.7380  143.7210 C   0  0  1  0  0  3  0  0  0  0  0  0
  194.2940  174.1220  141.5680 Cl  0  0  0  0  0  0  0  0  0  0  0  0
  190.7930  174.4480  145.2260 C   0  0  1  0  0  3  0  0  0  0  0  0
  188.5130  175.6510  141.3560 O   0  0  0  0  0  1  0  0  0  0  0  0
  189.7100  173.5380  141.6690 C   0  0  0  0  0  0  0  0  0  0  0  0
  189.8180  172.3250  141.3300 O   0  0  0  0  0  0  0  0  0  0  0  0
  188.8010  174.3810  140.9520 N   0  0  0  0  0  2  0  0  0  0  0  0
  193.1360  174.4580  146.1980 C   0  0  0  0  0  2  0  0  0  0  0  0
  194.3290  175.3030  145.7670 C   0  0  0  0  0  2  0  0  0  0  0  0
  195.6160  174.5760  145.9980 C   0  0  0  0  0  3  0  0  0  0  0  0
  195.8320  173.4030  145.4610 C   0  0  0  0  0  0  0  0  0  0  0  0
  196.0370  172.2460  144.8970 C   0  0  0  0  0  3  0  0  0  0  0  0
  197.1650  171.3730  145.3390 C   0  0  0  0  0  2  0  0  0  0  0  0
  196.6860  170.3610  146.3660 C   0  0  0  0  0  2  0  0  0  0  0  0
  195.3010  169.8360  146.0010 C   0  0  0  0  0  1  0  0  0  0  0  0
  190.6340  175.8500  145.3360 O   0  0  0  0  0  0  0  0  0  0  0  0
  189.7640  176.2450  146.3980 C   0  0  1  0  0  0  0  0  0  0  0  0
  189.0440  175.0710  147.1010 C   0  0  0  0  0  1  0  0  0  0  0  0
  190.6860  176.9140  147.4240 C   0  0  0  0  0  2  0  0  0  0  0  0
  191.1960  176.0090  148.3670 O   0  0  0  0  0  1  0  0  0  0  0  0
  188.7390  177.2830  145.8670 C   0  0  1  0  0  3  0  0  0  0  0  0
  188.9700  177.5970  144.3970 C   0  0  0  0  0  1  0  0  0  0  0  0
  187.2840  176.8330  146.0500 C   0  0  0  0  0  2  0  0  0  0  0  0
  186.2670  177.9800  145.9500 C   0  0  2  0  0  3  0  0  0  0  0  0
  185.8650  178.4830  147.3030 C   0  0  0  0  0  0  0  0  0  0  0  0
  186.8460  178.8490  148.2140 O   0  0  0  0  0  1  0  0  0  0  0  0
  184.6510  178.5150  147.6510 O   0  0  0  0  0  0  0  0  0  0  0  0
  185.0580  177.6160  145.0960 C   0  0  0  0  0  2  0  0  0  0  0  0
  185.6690  178.0540  142.6920 C   0  0  0  0  0  0  0  0  0  0  0  0
  185.6620  179.3030  142.8780 O   0  0  0  0  0  1  0  0  0  0  0  0
  185.8630  177.5450  141.4140 O   0  0  0  0  0  0  0  0  0  0  0  0
  185.4890  177.1570  143.7830 N   0  0  0  0  0  2  0  0  0  0  0  0
  1  4  2  0  0  0  0
  2  7  1  6  0  0  0
  2  6  1  0  0  0  0
  3  2  1  0  0  0  0
  3  1  1  1  0  0  0
  3  6  1  0  0  0  0
  4  8  1  0  0  0  0
  5  8  1  0  0  0  0
  5 13  1  1  0  0  0
  6  5  1  0  0  0  0
  8 21  1  0  0  0  0
 10  1  1  0  0  0  0
 11 10  2  0  0  0  0
 12  9  1  0  0  0  0
 12 10  1  0  0  0  0
 14 15  1  0  0  0  0
 14 13  1  0  0  0  0
 16 15  2  0  0  0  0
 17 18  1  0  0  0  0
 17 16  2  0  0  0  0
 18 19  1  0  0  0  0
 20 19  1  0  0  0  0
 21 22  1  0  0  0  0
 22 23  1  0  0  0  0
 22 24  1  0  0  0  0
 24 25  1  0  0  0  0
 26 28  1  0  0  0  0
 26 22  1  0  0  0  0
 27 26  1  0  0  0  0
 29 28  1  0  0  0  0
 29 30  1  0  0  0  0
 30 32  2  0  0  0  0
 30 31  1  0  0  0  0
 33 29  1  0  0  0  0
 34 35  1  0  0  0  0
 34 37  1  0  0  0  0
 36 34  2  0  0  0  0
 37 33  1  0  0  0  0
M  END
>  <MODEL>
4

>  <REMARK>
 VINA RESULT:      -6.2      1.252      2.543
  Name = 
  15 active torsions:
  status: ('A' for Active; 'I' for Inactive)
    1  A    between atoms: C_1  and  C_10
    2  A    between atoms: C_3  and  C_16
    3  A    between atoms: C_6  and  C_8
    4  A    between atoms: C_8  and  C_20
    5  A    between atoms: C_8  and  O_34
    6  A    between atoms: C_13  and  C_23
    7  A    between atoms: C_13  and  C_24
    8  A    between atoms: C_13  and  C_37
    9  A    between atoms: C_15  and  C_26
   10  A    between atoms: C_16  and  C_26
   11  A    between atoms: C_19  and  C_29
   12  A    between atoms: C_20  and  C_23
   13  A    between atoms: C_25  and  O_34
   14  A    between atoms: N_27  and  C_37
   15  A    between atoms: C_29  and  C_30
                            x       y       z     vdW  Elec       q    Type
                         _______ _______ _______ _____ _____    ______ ____

>  <TORSDO>
F 15

$$$$
=
 OpenBabel11042418383D

 37 38  0  0  1  0  0  0  0  0999 V2000
  186.9050  177.9250  143.9410 C   0  0  0  0  0  0  0  0  0  0  0  0
  185.9390  177.5870  146.2070 C   0  0  2  0  0  3  0  0  0  0  0  0
  186.1360  176.9720  144.8320 C   0  0  2  0  0  3  0  0  0  0  0  0
  188.2470  177.9410  143.9260 C   0  0  0  0  0  3  0  0  0  0  0  0
  188.3460  176.9830  146.1720 C   0  0  2  0  0  3  0  0  0  0  0  0
  186.9150  176.4410  146.0510 C   0  0  1  0  0  3  0  0  0  0  0  0
  184.4280  176.9720  146.9130 Cl  0  0  0  0  0  0  0  0  0  0  0  0
  189.0450  177.0330  144.8090 C   0  0  1  0  0  3  0  0  0  0  0  0
  186.5900  177.4760  141.0490 O   0  0  0  0  0  1  0  0  0  0  0  0
  186.1570  178.8240  143.0480 C   0  0  0  0  0  0  0  0  0  0  0  0
  185.6780  179.8970  143.5150 O   0  0  0  0  0  0  0  0  0  0  0  0
  185.9720  178.5290  141.6580 N   0  0  0  0  0  2  0  0  0  0  0  0
  189.1380  176.1770  147.1950 C   0  0  0  0  0  2  0  0  0  0  0  0
  190.4650  176.8550  147.5130 C   0  0  0  0  0  2  0  0  0  0  0  0
  191.5900  175.8680  147.5090 C   0  0  0  0  0  3  0  0  0  0  0  0
  192.7390  176.1610  146.9600 C   0  0  0  0  0  0  0  0  0  0  0  0
  193.8850  176.4820  146.4290 C   0  0  0  0  0  3  0  0  0  0  0  0
  194.9120  175.4350  146.1460 C   0  0  0  0  0  2  0  0  0  0  0  0
  194.7750  174.9240  144.7210 C   0  0  0  0  0  2  0  0  0  0  0  0
  195.1350  176.0160  143.7190 C   0  0  0  0  0  1  0  0  0  0  0  0
  189.1080  175.7390  144.2370 O   0  0  0  0  0  0  0  0  0  0  0  0
  190.3660  175.4440  143.6280 C   0  0  1  0  0  0  0  0  0  0  0  0
  190.2970  175.2310  142.0980 C   0  0  0  0  0  1  0  0  0  0  0  0
  191.2250  176.6860  143.8930 C   0  0  0  0  0  2  0  0  0  0  0  0
  191.9230  177.1150  142.7550 O   0  0  0  0  0  1  0  0  0  0  0  0
  191.0020  174.2140  144.3290 C   0  0  1  0  0  3  0  0  0  0  0  0
  189.9520  173.3500  145.0100 C   0  0  0  0  0  1  0  0  0  0  0  0
  191.8150  173.3340  143.3710 C   0  0  0  0  0  2  0  0  0  0  0  0
  191.5250  171.8330  143.5150 C   0  0  2  0  0  3  0  0  0  0  0  0
  192.6490  171.1150  144.2000 C   0  0  0  0  0  0  0  0  0  0  0  0
  192.7950  169.7470  144.0190 O   0  0  0  0  0  0  0  0  0  0  0  0
  193.4220  171.7240  144.9910 O   0  0  0  0  0  1  0  0  0  0  0  0
  191.1560  171.1780  142.1890 C   0  0  0  0  0  2  0  0  0  0  0  0
  189.5570  172.2120  140.5390 C   0  0  0  0  0  0  0  0  0  0  0  0
  190.4510  172.2650  139.6480 O   0  0  0  0  0  0  0  0  0  0  0  0
  188.3080  172.7710  140.3010 O   0  0  0  0  0  1  0  0  0  0  0  0
  189.8140  171.5770  141.7880 N   0  0  0  0  0  2  0  0  0  0  0  0
  2  7  1  1  0  0  0
  3  1  1  6  0  0  0
  3  6  1  0  0  0  0
  3  2  1  0  0  0  0
  4  1  2  0  0  0  0
  4  8  1  0  0  0  0
  5 13  1  1  0  0  0
  6  5  1  0  0  0  0
  6  2  1  0  0  0  0
  8  5  1  0  0  0  0
  9 12  1  0  0  0  0
 10 11  2  0  0  0  0
 10  1  1  0  0  0  0
 12 10  1  0  0  0  0
 13 14  1  0  0  0  0
 15 14  1  0  0  0  0
 16 15  2  0  0  0  0
 17 16  2  0  0  0  0
 18 17  1  0  0  0  0
 19 18  1  0  0  0  0
 20 19  1  0  0  0  0
 21  8  1  0  0  0  0
 22 24  1  0  0  0  0
 22 21  1  0  0  0  0
 22 26  1  0  0  0  0
 23 22  1  0  0  0  0
 25 24  1  0  0  0  0
 26 27  1  0  0  0  0
 28 29  1  0  0  0  0
 28 26  1  0  0  0  0
 29 30  1  0  0  0  0
 30 32  1  0  0  0  0
 31 30  2  0  0  0  0
 33 29  1  0  0  0  0
 34 37  1  0  0  0  0
 35 34  2  0  0  0  0
 36 34  1  0  0  0  0
 37 33  1  0  0  0  0
M  END
>  <MODEL>
5

>  <REMARK>
 VINA RESULT:      -6.2      2.689      6.384
  Name = 
  15 active torsions:
  status: ('A' for Active; 'I' for Inactive)
    1  A    between atoms: C_1  and  C_10
    2  A    between atoms: C_3  and  C_16
    3  A    between atoms: C_6  and  C_8
    4  A    between atoms: C_8  and  C_20
    5  A    between atoms: C_8  and  O_34
    6  A    between atoms: C_13  and  C_23
    7  A    between atoms: C_13  and  C_24
    8  A    between atoms: C_13  and  C_37
    9  A    between atoms: C_15  and  C_26
   10  A    between atoms: C_16  and  C_26
   11  A    between atoms: C_19  and  C_29
   12  A    between atoms: C_20  and  C_23
   13  A    between atoms: C_25  and  O_34
   14  A    between atoms: N_27  and  C_37
   15  A    between atoms: C_29  and  C_30
                            x       y       z     vdW  Elec       q    Type
                         _______ _______ _______ _____ _____    ______ ____

>  <TORSDO>
F 15

$$$$
=
 OpenBabel11042418383D

 37 38  0  0  1  0  0  0  0  0999 V2000
  186.9440  177.8480  144.0660 C   0  0  0  0  0  0  0  0  0  0  0  0
  186.3780  178.0910  146.4750 C   0  0  2  0  0  3  0  0  0  0  0  0
  186.1780  177.2490  145.2270 C   0  0  2  0  0  3  0  0  0  0  0  0
  188.2320  177.5420  143.8440 C   0  0  0  0  0  3  0  0  0  0  0  0
  188.5550  176.9330  146.1890 C   0  0  2  0  0  3  0  0  0  0  0  0
  187.0470  176.7350  146.3910 C   0  0  1  0  0  3  0  0  0  0  0  0
  184.9360  177.9640  147.5050 Cl  0  0  0  0  0  0  0  0  0  0  0  0
  188.9760  176.6120  144.7510 C   0  0  1  0  0  3  0  0  0  0  0  0
  186.3590  177.2020  141.2550 O   0  0  0  0  0  1  0  0  0  0  0  0
  186.2430  178.7560  143.1430 C   0  0  0  0  0  0  0  0  0  0  0  0
  185.9320  179.9160  143.5390 O   0  0  0  0  0  0  0  0  0  0  0  0
  185.9190  178.3710  141.8020 N   0  0  0  0  0  2  0  0  0  0  0  0
  189.3420  176.1240  147.2130 C   0  0  0  0  0  2  0  0  0  0  0  0
  190.7380  176.7030  147.4090 C   0  0  0  0  0  2  0  0  0  0  0  0
  191.7850  175.6420  147.2800 C   0  0  0  0  0  3  0  0  0  0  0  0
  192.9710  175.9210  146.8080 C   0  0  0  0  0  0  0  0  0  0  0  0
  194.1560  176.2260  146.3570 C   0  0  0  0  0  3  0  0  0  0  0  0
  195.1110  175.1560  145.9420 C   0  0  0  0  0  2  0  0  0  0  0  0
  194.4540  174.2110  144.9480 C   0  0  0  0  0  2  0  0  0  0  0  0
  194.3720  172.7990  145.5200 C   0  0  0  0  0  1  0  0  0  0  0  0
  188.6590  175.2700  144.4300 O   0  0  0  0  0  0  0  0  0  0  0  0
  189.7490  174.5460  143.8580 C   0  0  1  0  0  0  0  0  0  0  0  0
  191.0370  175.3800  143.6680 C   0  0  0  0  0  1  0  0  0  0  0  0
  190.0520  173.4370  144.8720 C   0  0  0  0  0  2  0  0  0  0  0  0
  189.3920  172.2360  144.5750 O   0  0  0  0  0  1  0  0  0  0  0  0
  189.2980  173.9110  142.5150 C   0  0  1  0  0  3  0  0  0  0  0  0
  187.8360  174.2070  142.2170 C   0  0  0  0  0  1  0  0  0  0  0  0
  190.1450  174.3730  141.3220 C   0  0  0  0  0  2  0  0  0  0  0  0
  190.6480  173.2210  140.4400 C   0  0  2  0  0  3  0  0  0  0  0  0
  189.8160  173.0660  139.2030 C   0  0  0  0  0  0  0  0  0  0  0  0
  190.1840  173.7340  138.0440 O   0  0  0  0  0  0  0  0  0  0  0  0
  188.7480  172.3910  139.2200 O   0  0  0  0  0  1  0  0  0  0  0  0
  190.7780  171.9100  141.2080 C   0  0  0  0  0  2  0  0  0  0  0  0
  192.8170  171.0790  142.4310 C   0  0  0  0  0  0  0  0  0  0  0  0
  192.1530  170.8960  143.4900 O   0  0  0  0  0  1  0  0  0  0  0  0
  194.1920  170.8880  142.4340 O   0  0  0  0  0  0  0  0  0  0  0  0
  192.1670  171.4740  141.2270 N   0  0  0  0  0  2  0  0  0  0  0  0
  2  7  1  1  0  0  0
  3  1  1  6  0  0  0
  3  6  1  0  0  0  0
  3  2  1  0  0  0  0
  4  1  2  0  0  0  0
  4  8  1  0  0  0  0
  5  6  1  0  0  0  0
  5 13  1  1  0  0  0
  6  2  1  0  0  0  0
  8  5  1  0  0  0  0
  9 12  1  0  0  0  0
 10 11  2  0  0  0  0
 10  1  1  0  0  0  0
 12 10  1  0  0  0  0
 13 14  1  0  0  0  0
 15 14  1  0  0  0  0
 16 15  2  0  0  0  0
 17 16  2  0  0  0  0
 18 17  1  0  0  0  0
 19 20  1  0  0  0  0
 19 18  1  0  0  0  0
 21  8  1  0  0  0  0
 22 21  1  0  0  0  0
 22 24  1  0  0  0  0
 23 22  1  0  0  0  0
 25 24  1  0  0  0  0
 26 22  1  0  0  0  0
 27 26  1  0  0  0  0
 28 26  1  0  0  0  0
 29 33  1  0  0  0  0
 29 28  1  0  0  0  0
 30 32  1  0  0  0  0
 30 29  1  0  0  0  0
 31 30  2  0  0  0  0
 33 37  1  0  0  0  0
 34 36  2  0  0  0  0
 34 35  1  0  0  0  0
 37 34  1  0  0  0  0
M  END
>  <MODEL>
6

>  <REMARK>
 VINA RESULT:      -6.1      2.689      6.435
  Name = 
  15 active torsions:
  status: ('A' for Active; 'I' for Inactive)
    1  A    between atoms: C_1  and  C_10
    2  A    between atoms: C_3  and  C_16
    3  A    between atoms: C_6  and  C_8
    4  A    between atoms: C_8  and  C_20
    5  A    between atoms: C_8  and  O_34
    6  A    between atoms: C_13  and  C_23
    7  A    between atoms: C_13  and  C_24
    8  A    between atoms: C_13  and  C_37
    9  A    between atoms: C_15  and  C_26
   10  A    between atoms: C_16  and  C_26
   11  A    between atoms: C_19  and  C_29
   12  A    between atoms: C_20  and  C_23
   13  A    between atoms: C_25  and  O_34
   14  A    between atoms: N_27  and  C_37
   15  A    between atoms: C_29  and  C_30
                            x       y       z     vdW  Elec       q    Type
                         _______ _______ _______ _____ _____    ______ ____

>  <TORSDO>
F 15

$$$$
=
 OpenBabel11042418383D

 37 38  0  0  1  0  0  0  0  0999 V2000
  186.8290  177.9010  143.9430 C   0  0  0  0  0  0  0  0  0  0  0  0
  186.4720  177.9500  146.4040 C   0  0  2  0  0  3  0  0  0  0  0  0
  186.1330  177.2310  145.1090 C   0  0  2  0  0  3  0  0  0  0  0  0
  188.0800  177.5650  143.5880 C   0  0  0  0  0  3  0  0  0  0  0  0
  188.5630  176.7390  145.8370 C   0  0  2  0  0  3  0  0  0  0  0  0
  187.0690  176.5820  146.1480 C   0  0  1  0  0  3  0  0  0  0  0  0
  185.1120  177.7890  147.5370 Cl  0  0  0  0  0  0  0  0  0  0  0  0
  188.8510  176.5310  144.3460 C   0  0  1  0  0  3  0  0  0  0  0  0
  185.9440  177.5090  141.1640 O   0  0  0  0  0  1  0  0  0  0  0  0
  186.0990  178.9130  143.1640 C   0  0  0  0  0  0  0  0  0  0  0  0
  185.8970  180.0530  143.6730 O   0  0  0  0  0  0  0  0  0  0  0  0
  185.6280  178.6520  141.8370 N   0  0  0  0  0  2  0  0  0  0  0  0
  189.3920  175.8120  146.7180 C   0  0  0  0  0  2  0  0  0  0  0  0
  190.5170  176.5760  147.4060 C   0  0  0  0  0  2  0  0  0  0  0  0
  191.7350  175.7210  147.5580 C   0  0  0  0  0  3  0  0  0  0  0  0
  192.8290  175.9830  146.8910 C   0  0  0  0  0  0  0  0  0  0  0  0
  193.9160  176.2760  146.2360 C   0  0  0  0  0  3  0  0  0  0  0  0
  195.0340  175.2910  146.1350 C   0  0  0  0  0  2  0  0  0  0  0  0
  194.5010  173.9170  145.7630 C   0  0  0  0  0  2  0  0  0  0  0  0
  195.5970  173.0680  145.1250 C   0  0  0  0  0  1  0  0  0  0  0  0
  188.4480  175.2360  143.9400 O   0  0  0  0  0  0  0  0  0  0  0  0
  189.4170  174.5610  143.1360 C   0  0  1  0  0  0  0  0  0  0  0  0
  189.2010  173.0340  143.0280 C   0  0  0  0  0  1  0  0  0  0  0  0
  189.2420  175.1610  141.7360 C   0  0  0  0  0  2  0  0  0  0  0  0
  188.0200  174.8090  141.1440 O   0  0  0  0  0  1  0  0  0  0  0  0
  190.8400  174.8820  143.6640 C   0  0  1  0  0  3  0  0  0  0  0  0
  191.4810  173.6710  144.3220 C   0  0  0  0  0  1  0  0  0  0  0  0
  191.7810  175.4020  142.5690 C   0  0  0  0  0  2  0  0  0  0  0  0
  192.8010  174.3600  142.0870 C   0  0  2  0  0  3  0  0  0  0  0  0
  194.2070  174.8660  142.2050 C   0  0  0  0  0  0  0  0  0  0  0  0
  194.4380  176.1200  142.7520 O   0  0  0  0  0  1  0  0  0  0  0  0
  195.1780  174.1960  141.7520 O   0  0  0  0  0  0  0  0  0  0  0  0
  192.4960  173.8490  140.6830 C   0  0  0  0  0  2  0  0  0  0  0  0
  190.9030  171.9890  140.0940 C   0  0  0  0  0  0  0  0  0  0  0  0
  190.2760  172.7300  139.2860 O   0  0  0  0  0  0  0  0  0  0  0  0
  190.4420  170.7050  140.3560 O   0  0  0  0  0  1  0  0  0  0  0  0
  192.0870  172.4530  140.7350 N   0  0  0  0  0  2  0  0  0  0  0  0
  2  7  1  1  0  0  0
  3  1  1  6  0  0  0
  3  6  1  0  0  0  0
  3  2  1  0  0  0  0
  4  1  2  0  0  0  0
  4  8  1  0  0  0  0
  5  6  1  0  0  0  0
  5 13  1  1  0  0  0
  6  2  1  0  0  0  0
  8  5  1  0  0  0  0
  9 12  1  0  0  0  0
 10 11  2  0  0  0  0
 10  1  1  0  0  0  0
 12 10  1  0  0  0  0
 13 14  1  0  0  0  0
 14 15  1  0  0  0  0
 16 15  2  0  0  0  0
 17 16  2  0  0  0  0
 18 17  1  0  0  0  0
 19 18  1  0  0  0  0
 20 19  1  0  0  0  0
 21  8  1  0  0  0  0
 22 26  1  0  0  0  0
 22 21  1  0  0  0  0
 23 22  1  0  0  0  0
 24 22  1  0  0  0  0
 25 24  1  0  0  0  0
 26 27  1  0  0  0  0
 28 26  1  0  0  0  0
 29 30  1  0  0  0  0
 29 28  1  0  0  0  0
 30 31  1  0  0  0  0
 32 30  2  0  0  0  0
 33 37  1  0  0  0  0
 33 29  1  0  0  0  0
 34 36  1  0  0  0  0
 34 37  1  0  0  0  0
 35 34  2  0  0  0  0
M  END
>  <MODEL>
7

>  <REMARK>
 VINA RESULT:      -6.1      2.615      6.389
  Name = 
  15 active torsions:
  status: ('A' for Active; 'I' for Inactive)
    1  A    between atoms: C_1  and  C_10
    2  A    between atoms: C_3  and  C_16
    3  A    between atoms: C_6  and  C_8
    4  A    between atoms: C_8  and  C_20
    5  A    between atoms: C_8  and  O_34
    6  A    between atoms: C_13  and  C_23
    7  A    between atoms: C_13  and  C_24
    8  A    between atoms: C_13  and  C_37
    9  A    between atoms: C_15  and  C_26
   10  A    between atoms: C_16  and  C_26
   11  A    between atoms: C_19  and  C_29
   12  A    between atoms: C_20  and  C_23
   13  A    between atoms: C_25  and  O_34
   14  A    between atoms: N_27  and  C_37
   15  A    between atoms: C_29  and  C_30
                            x       y       z     vdW  Elec       q    Type
                         _______ _______ _______ _____ _____    ______ ____

>  <TORSDO>
F 15

$$$$
=
 OpenBabel11042418383D

 37 38  0  0  1  0  0  0  0  0999 V2000
  194.6070  174.4700  144.8910 C   0  0  0  0  0  0  0  0  0  0  0  0
  194.5280  176.5830  146.1980 C   0  0  2  0  0  3  0  0  0  0  0  0
  194.4870  175.9770  144.8060 C   0  0  2  0  0  3  0  0  0  0  0  0
  193.5280  173.6900  145.0630 C   0  0  0  0  0  3  0  0  0  0  0  0
  192.2830  175.5300  146.0790 C   0  0  2  0  0  3  0  0  0  0  0  0
  193.2150  176.5700  145.4430 C   0  0  1  0  0  3  0  0  0  0  0  0
  195.2340  178.2110  146.1080 Cl  0  0  0  0  0  0  0  0  0  0  0  0
  192.1590  174.2780  145.2050 C   0  0  1  0  0  3  0  0  0  0  0  0
  195.7300  173.5920  142.3150 O   0  0  0  0  0  1  0  0  0  0  0  0
  195.9350  173.8520  144.7420 C   0  0  0  0  0  0  0  0  0  0  0  0
  196.6180  173.6050  145.7770 O   0  0  0  0  0  0  0  0  0  0  0  0
  196.4680  173.5040  143.4590 N   0  0  0  0  0  2  0  0  0  0  0  0
  190.9260  176.1500  146.3910 C   0  0  0  0  0  2  0  0  0  0  0  0
  190.1920  175.3460  147.4570 C   0  0  0  0  0  2  0  0  0  0  0  0
  188.7290  175.2560  147.1540 C   0  0  0  0  0  3  0  0  0  0  0  0
  188.0260  176.3300  146.9130 C   0  0  0  0  0  0  0  0  0  0  0  0
  187.3470  177.4120  146.6510 C   0  0  0  0  0  3  0  0  0  0  0  0
  185.8540  177.3900  146.6400 C   0  0  0  0  0  2  0  0  0  0  0  0
  185.3000  178.8040  146.5920 C   0  0  0  0  0  2  0  0  0  0  0  0
  185.5060  179.4180  145.2110 C   0  0  0  0  0  1  0  0  0  0  0  0
  191.6450  174.6130  143.9290 O   0  0  0  0  0  0  0  0  0  0  0  0
  190.6580  173.6970  143.4520 C   0  0  1  0  0  0  0  0  0  0  0  0
  191.2250  172.5380  142.6000 C   0  0  0  0  0  1  0  0  0  0  0  0
  190.0460  173.0920  144.7210 C   0  0  0  0  0  2  0  0  0  0  0  0
  189.9290  171.6960  144.6540 O   0  0  0  0  0  1  0  0  0  0  0  0
  189.5670  174.4760  142.6700 C   0  0  1  0  0  3  0  0  0  0  0  0
  188.4190  173.5690  142.2550 C   0  0  0  0  0  1  0  0  0  0  0  0
  188.9960  175.6600  143.4600 C   0  0  0  0  0  2  0  0  0  0  0  0
  189.1610  177.0120  142.7510 C   0  0  2  0  0  3  0  0  0  0  0  0
  190.4490  177.6810  143.1280 C   0  0  0  0  0  0  0  0  0  0  0  0
  190.4500  178.6500  144.1210 O   0  0  0  0  0  1  0  0  0  0  0  0
  191.5190  177.4250  142.5080 O   0  0  0  0  0  0  0  0  0  0  0  0
  187.9620  177.9310  142.9560 C   0  0  0  0  0  2  0  0  0  0  0  0
  185.9730  177.6510  141.4360 C   0  0  0  0  0  0  0  0  0  0  0  0
  185.2770  177.1670  142.3720 O   0  0  0  0  0  1  0  0  0  0  0  0
  185.4600  177.7010  140.1460 O   0  0  0  0  0  0  0  0  0  0  0  0
  187.2800  178.1570  141.6900 N   0  0  0  0  0  2  0  0  0  0  0  0
  1  4  2  0  0  0  0
  2  7  1  6  0  0  0
  3  1  1  1  0  0  0
  3  6  1  0  0  0  0
  3  2  1  0  0  0  0
  4  8  1  0  0  0  0
  5 13  1  6  0  0  0
  6  5  1  0  0  0  0
  6  2  1  0  0  0  0
  8  5  1  0  0  0  0
  9 12  1  0  0  0  0
 10  1  1  0  0  0  0
 10 11  2  0  0  0  0
 12 10  1  0  0  0  0
 13 14  1  0  0  0  0
 15 14  1  0  0  0  0
 16 15  2  0  0  0  0
 17 16  2  0  0  0  0
 18 17  1  0  0  0  0
 19 18  1  0  0  0  0
 20 19  1  0  0  0  0
 21  8  1  0  0  0  0
 22 21  1  0  0  0  0
 22 24  1  0  0  0  0
 23 22  1  0  0  0  0
 25 24  1  0  0  0  0
 26 22  1  0  0  0  0
 26 28  1  0  0  0  0
 27 26  1  0  0  0  0
 29 33  1  0  0  0  0
 29 30  1  0  0  0  0
 29 28  1  0  0  0  0
 30 31  1  0  0  0  0
 32 30  2  0  0  0  0
 34 37  1  0  0  0  0
 34 35  1  0  0  0  0
 36 34  2  0  0  0  0
 37 33  1  0  0  0  0
M  END
>  <MODEL>
8

>  <REMARK>
 VINA RESULT:      -6.0      2.737      6.149
  Name = 
  15 active torsions:
  status: ('A' for Active; 'I' for Inactive)
    1  A    between atoms: C_1  and  C_10
    2  A    between atoms: C_3  and  C_16
    3  A    between atoms: C_6  and  C_8
    4  A    between atoms: C_8  and  C_20
    5  A    between atoms: C_8  and  O_34
    6  A    between atoms: C_13  and  C_23
    7  A    between atoms: C_13  and  C_24
    8  A    between atoms: C_13  and  C_37
    9  A    between atoms: C_15  and  C_26
   10  A    between atoms: C_16  and  C_26
   11  A    between atoms: C_19  and  C_29
   12  A    between atoms: C_20  and  C_23
   13  A    between atoms: C_25  and  O_34
   14  A    between atoms: N_27  and  C_37
   15  A    between atoms: C_29  and  C_30
                            x       y       z     vdW  Elec       q    Type
                         _______ _______ _______ _____ _____    ______ ____

>  <TORSDO>
F 15

$$$$
=
 OpenBabel11042418383D

 37 38  0  0  1  0  0  0  0  0999 V2000
  185.6850  177.8990  145.0280 C   0  0  0  0  0  0  0  0  0  0  0  0
  186.2990  177.4010  147.3860 C   0  0  2  0  0  3  0  0  0  0  0  0
  185.8210  176.8090  146.0710 C   0  0  2  0  0  3  0  0  0  0  0  0
  186.7260  178.2760  144.2690 C   0  0  0  0  0  3  0  0  0  0  0  0
  188.3160  177.4690  145.9410 C   0  0  2  0  0  3  0  0  0  0  0  0
  187.2560  176.5560  146.5710 C   0  0  1  0  0  3  0  0  0  0  0  0
  185.6650  176.4280  148.7310 Cl  0  0  0  0  0  0  0  0  0  0  0  0
  188.0760  177.6520  144.4380 C   0  0  1  0  0  3  0  0  0  0  0  0
  184.4110  178.2140  142.3940 O   0  0  0  0  0  1  0  0  0  0  0  0
  184.3690  178.5270  144.8220 C   0  0  0  0  0  0  0  0  0  0  0  0
  183.7690  179.0350  145.8120 O   0  0  0  0  0  0  0  0  0  0  0  0
  183.7580  178.5970  143.5290 N   0  0  0  0  0  2  0  0  0  0  0  0
  189.7160  176.9480  146.2400 C   0  0  0  0  0  2  0  0  0  0  0  0
  189.6580  175.5750  146.8980 C   0  0  0  0  0  2  0  0  0  0  0  0
  191.0230  174.9730  147.0140 C   0  0  0  0  0  3  0  0  0  0  0  0
  192.0930  175.6770  146.7530 C   0  0  0  0  0  0  0  0  0  0  0  0
  193.1470  176.4040  146.5110 C   0  0  0  0  0  3  0  0  0  0  0  0
  194.4850  175.7670  146.3280 C   0  0  0  0  0  2  0  0  0  0  0  0
  195.1060  176.1980  145.0100 C   0  0  0  0  0  2  0  0  0  0  0  0
  194.4910  175.4250  143.8460 C   0  0  0  0  0  1  0  0  0  0  0  0
  188.1160  176.4020  143.7740 O   0  0  0  0  0  0  0  0  0  0  0  0
  188.7680  176.4500  142.5040 C   0  0  1  0  0  0  0  0  0  0  0  0
  187.8580  176.0870  141.3080 C   0  0  0  0  0  1  0  0  0  0  0  0
  189.1950  177.9130  142.3440 C   0  0  0  0  0  2  0  0  0  0  0  0
  188.5660  178.5460  141.2610 O   0  0  0  0  0  1  0  0  0  0  0  0
  190.0270  175.5420  142.5370 C   0  0  1  0  0  3  0  0  0  0  0  0
  191.2590  176.3080  142.9920 C   0  0  0  0  0  1  0  0  0  0  0  0
  189.8530  174.3120  143.4370 C   0  0  0  0  0  2  0  0  0  0  0  0
  190.8810  173.2030  143.1710 C   0  0  2  0  0  3  0  0  0  0  0  0
  190.5750  172.4550  141.9080 C   0  0  0  0  0  0  0  0  0  0  0  0
  191.2240  172.8060  140.7330 O   0  0  0  0  0  0  0  0  0  0  0  0
  189.6870  171.5570  141.8840 O   0  0  0  0  0  1  0  0  0  0  0  0
  191.0510  172.2650  144.3610 C   0  0  0  0  0  2  0  0  0  0  0  0
  193.4570  171.6160  144.7300 C   0  0  0  0  0  0  0  0  0  0  0  0
  193.5950  172.4940  145.6280 O   0  0  0  0  0  1  0  0  0  0  0  0
  194.5530  170.8710  144.3160 O   0  0  0  0  0  0  0  0  0  0  0  0
  192.1830  171.3760  144.1420 N   0  0  0  0  0  2  0  0  0  0  0  0
  2  7  1  1  0  0  0
  3  1  1  6  0  0  0
  3  6  1  0  0  0  0
  3  2  1  0  0  0  0
  4  8  1  0  0  0  0
  4  1  2  0  0  0  0
  5 13  1  6  0  0  0
  5  6  1  0  0  0  0
  6  2  1  0  0  0  0
  8  5  1  0  0  0  0
  9 12  1  0  0  0  0
 10  1  1  0  0  0  0
 10 11  2  0  0  0  0
 12 10  1  0  0  0  0
 13 14  1  0  0  0  0
 14 15  1  0  0  0  0
 16 15  2  0  0  0  0
 17 16  2  0  0  0  0
 18 17  1  0  0  0  0
 19 18  1  0  0  0  0
 20 19  1  0  0  0  0
 21  8  1  0  0  0  0
 22 26  1  0  0  0  0
 22 21  1  0  0  0  0
 23 22  1  0  0  0  0
 24 22  1  0  0  0  0
 25 24  1  0  0  0  0
 26 27  1  0  0  0  0
 26 28  1  0  0  0  0
 29 28  1  0  0  0  0
 29 33  1  0  0  0  0
 30 29  1  0  0  0  0
 31 30  2  0  0  0  0
 32 30  1  0  0  0  0
 34 35  1  0  0  0  0
 36 34  2  0  0  0  0
 37 33  1  0  0  0  0
 37 34  1  0  0  0  0
M  END
>  <MODEL>
9

>  <REMARK>
 VINA RESULT:      -6.0      2.735      6.908
  Name = 
  15 active torsions:
  status: ('A' for Active; 'I' for Inactive)
    1  A    between atoms: C_1  and  C_10
    2  A    between atoms: C_3  and  C_16
    3  A    between atoms: C_6  and  C_8
    4  A    between atoms: C_8  and  C_20
    5  A    between atoms: C_8  and  O_34
    6  A    between atoms: C_13  and  C_23
    7  A    between atoms: C_13  and  C_24
    8  A    between atoms: C_13  and  C_37
    9  A    between atoms: C_15  and  C_26
   10  A    between atoms: C_16  and  C_26
   11  A    between atoms: C_19  and  C_29
   12  A    between atoms: C_20  and  C_23
   13  A    between atoms: C_25  and  O_34
   14  A    between atoms: N_27  and  C_37
   15  A    between atoms: C_29  and  C_30
                            x       y       z     vdW  Elec       q    Type
                         _______ _______ _______ _____ _____    ______ ____

>  <TORSDO>
F 15

$$$$
