=
 OpenBabel11042414013D

 31 34  0  0  1  0  0  0  0  0999 V2000
  194.1090  175.7850  144.3280 P   0  0  2  0  0  0  0  0  0  0  0  0
  189.5750  175.3960  146.0660 C   0  0  0  0  0  0  0  0  0  0  0  0
  190.6440  176.3010  145.9790 C   0  0  0  0  0  3  0  0  0  0  0  0
  189.6920  174.1050  145.5200 C   0  0  0  0  0  3  0  0  0  0  0  0
  193.1580  174.3770  144.1830 O   0  0  0  0  0  0  0  0  0  0  0  0
  191.9280  174.6190  144.7880 C   0  0  0  0  0  0  0  0  0  0  0  0
  191.8110  175.8990  145.3340 C   0  0  0  0  0  0  0  0  0  0  0  0
  190.8710  173.7010  144.8740 C   0  0  0  0  0  0  0  0  0  0  0  0
  194.4230  176.3900  142.9800 O   0  0  0  0  0  0  0  0  0  0  0  0
  195.5010  175.5230  145.2520 O   0  0  0  0  0  1  0  0  0  0  0  0
  192.9390  176.6950  145.1730 O   0  0  0  0  0  0  0  0  0  0  0  0
  192.1380  171.6830  144.6290 O   0  0  0  0  0  1  0  0  0  0  0  0
  190.9450  172.3190  144.2810 C   0  0  2  0  0  3  0  0  0  0  0  0
  190.7290  172.2790  142.7630 C   0  0  1  0  0  3  0  0  0  0  0  0
  191.6960  171.3150  142.1010 C   0  0  0  0  0  1  0  0  0  0  0  0
  189.3590  171.9180  142.4190 N   0  0  0  0  0  2  0  0  0  0  0  0
  188.9070  172.8420  141.3910 C   0  0  0  0  0  2  0  0  0  0  0  0
  187.9840  173.8810  142.0040 C   0  0  0  0  0  2  0  0  0  0  0  0
  188.4090  175.2530  141.6000 C   0  0  0  0  0  0  0  0  0  0  0  0
  189.6230  175.8610  142.2110 C   0  0  0  0  0  1  0  0  0  0  0  0
  187.7800  175.8700  140.7550 O   0  0  0  0  0  0  0  0  0  0  0  0
  188.3250  175.7910  146.7720 C   0  0  0  0  0  2  0  0  0  0  0  0
  184.5070  178.3860  145.1180 N   0  0  0  0  0  0  0  0  0  0  0  0
  186.2190  176.8680  146.0440 C   0  0  1  0  0  3  0  0  0  0  0  0
  184.6100  178.1850  143.8430 C   0  0  0  0  0  3  0  0  0  0  0  0
  187.7270  177.0250  146.1220 C   0  0  2  0  0  3  0  0  0  0  0  0
  185.5790  178.2550  146.0830 C   0  0  2  0  0  3  0  0  0  0  0  0
  187.0880  176.6400  144.8030 C   0  0  2  0  0  3  0  0  0  0  0  0
  185.0420  178.5280  147.4730 C   0  0  0  0  0  1  0  0  0  0  0  0
  187.0580  177.7920  143.9080 N   0  0  0  0  0  2  0  0  0  0  0  0
  185.8400  177.6820  143.1160 C   0  0  0  0  0  2  0  0  0  0  0  0
  1  9  2  6  0  0  0
  1 11  1  0  0  0  0
  1 10  1  0  0  0  0
  2 22  1  0  0  0  0
  3  2  1  0  0  0  0
  4  2  2  0  0  0  0
  5  1  1  0  0  0  0
  5  6  1  0  0  0  0
  6  8  2  0  0  0  0
  6  7  1  0  0  0  0
  7  3  2  0  0  0  0
  8  4  1  0  0  0  0
 11  7  1  0  0  0  0
 13 12  1  6  0  0  0
 13  8  1  0  0  0  0
 14 15  1  6  0  0  0
 14 13  1  0  0  0  0
 16 14  1  0  0  0  0
 17 18  1  0  0  0  0
 17 16  1  0  0  0  0
 19 18  1  0  0  0  0
 19 20  1  0  0  0  0
 21 19  2  0  0  0  0
 23 27  1  0  0  0  0
 24 27  1  0  0  0  0
 24 26  1  0  0  0  0
 25 23  2  0  0  0  0
 26 22  1  0  0  0  0
 27 29  1  0  0  0  0
 28 24  1  0  0  0  0
 28 26  1  0  0  0  0
 30 28  1  0  0  0  0
 31 25  1  0  0  0  0
 31 30  1  0  0  0  0
M  END
>  <MODEL>
1

>  <REMARK>
 VINA RESULT:      -6.7      0.000      0.000
  Name = 
  8 active torsions:
  status: ('A' for Active; 'I' for Inactive)
    1  A    between atoms: C_3  and  C_16
    2  A    between atoms: N_5  and  C_8
    3  A    between atoms: N_5  and  C_24
    4  A    between atoms: C_6  and  C_8
    5  A    between atoms: C_6  and  C_25
    6  A    between atoms: C_12  and  C_13
    7  A    between atoms: C_12  and  C_19
    8  A    between atoms: C_16  and  C_24
                            x       y       z     vdW  Elec       q    Type
                         _______ _______ _______ _____ _____    ______ ____

>  <TORSDO>
F 8

$$$$
=
 OpenBabel11042414013D

 31 34  0  0  1  0  0  0  0  0999 V2000
  190.6880  172.3870  141.8400 P   0  0  2  0  0  0  0  0  0  0  0  0
  188.9360  176.8070  142.9020 C   0  0  0  0  0  0  0  0  0  0  0  0
  188.5230  175.5340  142.4800 C   0  0  0  0  0  3  0  0  0  0  0  0
  190.2980  177.0690  143.1370 C   0  0  0  0  0  3  0  0  0  0  0  0
  191.6630  173.6990  142.3290 O   0  0  0  0  0  0  0  0  0  0  0  0
  190.8350  174.7970  142.5480 C   0  0  0  0  0  0  0  0  0  0  0  0
  189.4840  174.5400  142.3110 C   0  0  0  0  0  0  0  0  0  0  0  0
  191.2640  176.0660  142.9620 C   0  0  0  0  0  0  0  0  0  0  0  0
  190.7270  171.2570  142.8420 O   0  0  0  0  0  1  0  0  0  0  0  0
  191.0560  171.8680  140.2730 O   0  0  0  0  0  0  0  0  0  0  0  0
  189.2110  173.2380  141.9050 O   0  0  0  0  0  0  0  0  0  0  0  0
  193.4990  176.2110  142.1110 O   0  0  0  0  0  1  0  0  0  0  0  0
  192.7080  176.3830  143.2490 C   0  0  2  0  0  3  0  0  0  0  0  0
  193.2910  175.6110  144.4390 C   0  0  1  0  0  3  0  0  0  0  0  0
  194.8090  175.6160  144.4000 C   0  0  0  0  0  1  0  0  0  0  0  0
  192.8280  176.1460  145.7130 N   0  0  0  0  0  2  0  0  0  0  0  0
  192.5590  175.0180  146.5900 C   0  0  0  0  0  2  0  0  0  0  0  0
  191.5180  175.4080  147.6250 C   0  0  0  0  0  2  0  0  0  0  0  0
  190.2740  175.8840  146.9520 C   0  0  0  0  0  0  0  0  0  0  0  0
  189.4470  174.9290  146.1640 C   0  0  0  0  0  1  0  0  0  0  0  0
  189.9210  177.0470  147.0610 O   0  0  0  0  0  0  0  0  0  0  0  0
  187.9330  177.8960  143.0660 C   0  0  0  0  0  2  0  0  0  0  0  0
  184.2060  178.7360  146.1400 N   0  0  0  0  0  0  0  0  0  0  0  0
  186.1130  178.6230  144.5770 C   0  0  1  0  0  3  0  0  0  0  0  0
  184.7490  178.4210  147.2720 C   0  0  0  0  0  3  0  0  0  0  0  0
  186.7880  177.4210  143.9410 C   0  0  2  0  0  3  0  0  0  0  0  0
  184.6470  178.2830  144.8370 C   0  0  2  0  0  3  0  0  0  0  0  0
  187.0860  177.7600  145.3870 C   0  0  2  0  0  3  0  0  0  0  0  0
  183.7810  178.9120  143.7650 C   0  0  0  0  0  1  0  0  0  0  0  0
  186.3770  176.8410  146.2720 N   0  0  0  0  0  2  0  0  0  0  0  0
  186.0050  177.5960  147.4610 C   0  0  0  0  0  2  0  0  0  0  0  0
  1 10  2  6  0  0  0
  1 11  1  0  0  0  0
  1  5  1  0  0  0  0
  1  9  1  0  0  0  0
  2 22  1  0  0  0  0
  2  4  1  0  0  0  0
  3  2  2  0  0  0  0
  5  6  1  0  0  0  0
  6  8  1  0  0  0  0
  7  3  1  0  0  0  0
  7  6  2  0  0  0  0
  8  4  2  0  0  0  0
  8 13  1  0  0  0  0
 11  7  1  0  0  0  0
 13 12  1  6  0  0  0
 13 14  1  0  0  0  0
 14 15  1  1  0  0  0
 14 16  1  0  0  0  0
 16 17  1  0  0  0  0
 17 18  1  0  0  0  0
 19 21  2  0  0  0  0
 19 18  1  0  0  0  0
 20 19  1  0  0  0  0
 22 26  1  0  0  0  0
 23 25  2  0  0  0  0
 24 27  1  0  0  0  0
 24 28  1  0  0  0  0
 25 31  1  0  0  0  0
 26 24  1  0  0  0  0
 26 28  1  0  0  0  0
 27 23  1  0  0  0  0
 28 30  1  0  0  0  0
 29 27  1  0  0  0  0
 30 31  1  0  0  0  0
M  END
>  <MODEL>
2

>  <REMARK>
 VINA RESULT:      -6.7      2.474      4.631
  Name = 
  8 active torsions:
  status: ('A' for Active; 'I' for Inactive)
    1  A    between atoms: C_3  and  C_16
    2  A    between atoms: N_5  and  C_8
    3  A    between atoms: N_5  and  C_24
    4  A    between atoms: C_6  and  C_8
    5  A    between atoms: C_6  and  C_25
    6  A    between atoms: C_12  and  C_13
    7  A    between atoms: C_12  and  C_19
    8  A    between atoms: C_16  and  C_24
                            x       y       z     vdW  Elec       q    Type
                         _______ _______ _______ _____ _____    ______ ____

>  <TORSDO>
F 8

$$$$
=
 OpenBabel11042414013D

 31 34  0  0  1  0  0  0  0  0999 V2000
  194.4550  176.2380  144.8600 P   0  0  2  0  0  0  0  0  0  0  0  0
  190.0270  177.2760  143.1150 C   0  0  0  0  0  0  0  0  0  0  0  0
  191.0810  177.8460  143.8460 C   0  0  0  0  0  3  0  0  0  0  0  0
  190.1160  175.9480  142.6600 C   0  0  0  0  0  3  0  0  0  0  0  0
  193.4990  175.1290  143.9850 O   0  0  0  0  0  0  0  0  0  0  0  0
  192.3060  175.7590  143.6450 C   0  0  0  0  0  0  0  0  0  0  0  0
  192.2130  177.0760  144.0990 C   0  0  0  0  0  0  0  0  0  0  0  0
  191.2570  175.1730  142.9200 C   0  0  0  0  0  0  0  0  0  0  0  0
  195.7300  176.5810  144.1250 O   0  0  0  0  0  0  0  0  0  0  0  0
  194.7490  175.7180  146.4430 O   0  0  0  0  0  1  0  0  0  0  0  0
  193.3280  177.5170  144.8040 O   0  0  0  0  0  0  0  0  0  0  0  0
  190.7770  173.6790  141.1100 O   0  0  0  0  0  1  0  0  0  0  0  0
  191.3210  173.7640  142.3930 C   0  0  2  0  0  3  0  0  0  0  0  0
  190.6870  172.7220  143.3230 C   0  0  1  0  0  3  0  0  0  0  0  0
  191.7270  172.1100  144.2440 C   0  0  0  0  0  1  0  0  0  0  0  0
  189.6010  173.2870  144.1120 N   0  0  0  0  0  2  0  0  0  0  0  0
  190.0100  173.2590  145.5070 C   0  0  0  0  0  2  0  0  0  0  0  0
  189.3970  174.4350  146.2470 C   0  0  0  0  0  2  0  0  0  0  0  0
  190.4680  175.3160  146.7960 C   0  0  0  0  0  0  0  0  0  0  0  0
  190.1430  176.7120  147.2020 C   0  0  0  0  0  1  0  0  0  0  0  0
  191.6040  174.8920  146.9350 O   0  0  0  0  0  0  0  0  0  0  0  0
  188.7940  178.0690  142.8520 C   0  0  0  0  0  2  0  0  0  0  0  0
  184.3580  178.1870  144.9390 N   0  0  0  0  0  0  0  0  0  0  0  0
  186.5630  178.4370  143.8570 C   0  0  1  0  0  3  0  0  0  0  0  0
  184.6710  178.0260  146.1850 C   0  0  0  0  0  3  0  0  0  0  0  0
  187.5930  177.3870  143.4820 C   0  0  2  0  0  3  0  0  0  0  0  0
  185.1740  177.8010  143.8060 C   0  0  2  0  0  3  0  0  0  0  0  0
  187.4690  177.8220  144.9280 C   0  0  2  0  0  3  0  0  0  0  0  0
  184.4780  178.2030  142.5220 C   0  0  0  0  0  1  0  0  0  0  0  0
  186.7700  176.7980  145.6990 N   0  0  0  0  0  2  0  0  0  0  0  0
  185.9860  177.4910  146.7120 C   0  0  0  0  0  2  0  0  0  0  0  0
  1  9  2  6  0  0  0
  1 10  1  0  0  0  0
  2  3  1  0  0  0  0
  3  7  2  0  0  0  0
  4  8  1  0  0  0  0
  4  2  2  0  0  0  0
  5  1  1  0  0  0  0
  6  5  1  0  0  0  0
  6  7  1  0  0  0  0
  7 11  1  0  0  0  0
  8  6  2  0  0  0  0
 11  1  1  0  0  0  0
 13 12  1  6  0  0  0
 13  8  1  0  0  0  0
 13 14  1  0  0  0  0
 14 16  1  0  0  0  0
 14 15  1  1  0  0  0
 16 17  1  0  0  0  0
 17 18  1  0  0  0  0
 18 19  1  0  0  0  0
 19 21  2  0  0  0  0
 19 20  1  0  0  0  0
 22  2  1  0  0  0  0
 22 26  1  0  0  0  0
 23 25  2  0  0  0  0
 24 28  1  0  0  0  0
 25 31  1  0  0  0  0
 26 24  1  0  0  0  0
 26 28  1  0  0  0  0
 27 24  1  0  0  0  0
 27 23  1  0  0  0  0
 28 30  1  0  0  0  0
 29 27  1  0  0  0  0
 30 31  1  0  0  0  0
M  END
>  <MODEL>
3

>  <REMARK>
 VINA RESULT:      -6.6      1.742      3.237
  Name = 
  8 active torsions:
  status: ('A' for Active; 'I' for Inactive)
    1  A    between atoms: C_3  and  C_16
    2  A    between atoms: N_5  and  C_8
    3  A    between atoms: N_5  and  C_24
    4  A    between atoms: C_6  and  C_8
    5  A    between atoms: C_6  and  C_25
    6  A    between atoms: C_12  and  C_13
    7  A    between atoms: C_12  and  C_19
    8  A    between atoms: C_16  and  C_24
                            x       y       z     vdW  Elec       q    Type
                         _______ _______ _______ _____ _____    ______ ____

>  <TORSDO>
F 8

$$$$
=
 OpenBabel11042414013D

 31 34  0  0  1  0  0  0  0  0999 V2000
  186.2850  177.7820  146.0280 P   0  0  2  0  0  0  0  0  0  0  0  0
  191.0290  176.7050  145.7790 C   0  0  0  0  0  0  0  0  0  0  0  0
  190.0050  176.9450  146.7080 C   0  0  0  0  0  3  0  0  0  0  0  0
  190.7650  176.7660  144.3990 C   0  0  0  0  0  3  0  0  0  0  0  0
  187.1360  177.5910  144.5620 O   0  0  0  0  0  0  0  0  0  0  0  0
  188.4600  177.2890  144.8660 C   0  0  0  0  0  0  0  0  0  0  0  0
  188.7260  177.2320  146.2350 C   0  0  0  0  0  0  0  0  0  0  0  0
  189.4760  177.0590  143.9260 C   0  0  0  0  0  0  0  0  0  0  0  0
  185.2110  176.7320  146.1930 O   0  0  0  0  0  0  0  0  0  0  0  0
  185.6800  179.3500  146.2150 O   0  0  0  0  0  1  0  0  0  0  0  0
  187.6230  177.4840  147.0430 O   0  0  0  0  0  0  0  0  0  0  0  0
  188.8150  178.3550  142.0220 O   0  0  0  0  0  1  0  0  0  0  0  0
  189.2310  177.0890  142.4410 C   0  0  2  0  0  3  0  0  0  0  0  0
  188.2630  176.0080  141.9460 C   0  0  1  0  0  3  0  0  0  0  0  0
  187.2430  176.5890  140.9840 C   0  0  0  0  0  1  0  0  0  0  0  0
  188.9650  174.9000  141.3110 N   0  0  0  0  0  2  0  0  0  0  0  0
  189.0120  173.8050  142.2680 C   0  0  0  0  0  2  0  0  0  0  0  0
  190.4340  173.6200  142.7680 C   0  0  0  0  0  2  0  0  0  0  0  0
  190.4460  172.7570  143.9840 C   0  0  0  0  0  0  0  0  0  0  0  0
  189.8810  173.2720  145.2620 C   0  0  0  0  0  1  0  0  0  0  0  0
  190.8970  171.6240  143.9320 O   0  0  0  0  0  0  0  0  0  0  0  0
  192.4110  176.4210  146.2570 C   0  0  0  0  0  2  0  0  0  0  0  0
  196.1650  173.6540  144.7390 N   0  0  0  0  0  0  0  0  0  0  0  0
  194.3810  174.9970  145.7930 C   0  0  1  0  0  3  0  0  0  0  0  0
  196.9580  174.5600  144.2660 C   0  0  0  0  0  3  0  0  0  0  0  0
  193.2060  175.7260  145.1670 C   0  0  2  0  0  3  0  0  0  0  0  0
  194.7340  173.7940  144.9190 C   0  0  2  0  0  3  0  0  0  0  0  0
  194.5890  176.3400  145.0850 C   0  0  2  0  0  3  0  0  0  0  0  0
  194.1770  172.5310  145.5430 C   0  0  0  0  0  1  0  0  0  0  0  0
  195.1370  176.1590  143.7440 N   0  0  0  0  0  2  0  0  0  0  0  0
  196.5740  175.9770  143.8930 C   0  0  0  0  0  2  0  0  0  0  0  0
  1  9  2  1  0  0  0
  1 10  1  0  0  0  0
  1 11  1  0  0  0  0
  2 22  1  0  0  0  0
  2  3  1  0  0  0  0
  4  2  2  0  0  0  0
  5  6  1  0  0  0  0
  5  1  1  0  0  0  0
  6  7  1  0  0  0  0
  7  3  2  0  0  0  0
  7 11  1  0  0  0  0
  8  4  1  0  0  0  0
  8  6  2  0  0  0  0
 13 12  1  1  0  0  0
 13  8  1  0  0  0  0
 14 15  1  6  0  0  0
 14 13  1  0  0  0  0
 16 14  1  0  0  0  0
 16 17  1  0  0  0  0
 17 18  1  0  0  0  0
 18 19  1  0  0  0  0
 19 20  1  0  0  0  0
 21 19  2  0  0  0  0
 23 27  1  0  0  0  0
 25 23  2  0  0  0  0
 26 24  1  0  0  0  0
 26 22  1  0  0  0  0
 27 29  1  0  0  0  0
 27 24  1  0  0  0  0
 28 26  1  0  0  0  0
 28 24  1  0  0  0  0
 30 31  1  0  0  0  0
 30 28  1  0  0  0  0
 31 25  1  0  0  0  0
M  END
>  <MODEL>
4

>  <REMARK>
 VINA RESULT:      -6.6      3.767      7.139
  Name = 
  8 active torsions:
  status: ('A' for Active; 'I' for Inactive)
    1  A    between atoms: C_3  and  C_16
    2  A    between atoms: N_5  and  C_8
    3  A    between atoms: N_5  and  C_24
    4  A    between atoms: C_6  and  C_8
    5  A    between atoms: C_6  and  C_25
    6  A    between atoms: C_12  and  C_13
    7  A    between atoms: C_12  and  C_19
    8  A    between atoms: C_16  and  C_24
                            x       y       z     vdW  Elec       q    Type
                         _______ _______ _______ _____ _____    ______ ____

>  <TORSDO>
F 8

$$$$
=
 OpenBabel11042414013D

 31 34  0  0  1  0  0  0  0  0999 V2000
  186.5140  177.5950  146.4610 P   0  0  2  0  0  0  0  0  0  0  0  0
  191.1950  176.2950  146.1060 C   0  0  0  0  0  0  0  0  0  0  0  0
  190.3220  177.0500  146.9050 C   0  0  0  0  0  3  0  0  0  0  0  0
  190.7130  175.6230  144.9680 C   0  0  0  0  0  3  0  0  0  0  0  0
  187.1280  176.6040  145.2160 O   0  0  0  0  0  0  0  0  0  0  0  0
  188.4940  176.4400  145.4270 C   0  0  0  0  0  0  0  0  0  0  0  0
  188.9750  177.1090  146.5540 C   0  0  0  0  0  0  0  0  0  0  0  0
  189.3560  175.6880  144.6150 C   0  0  0  0  0  0  0  0  0  0  0  0
  185.5180  176.8560  147.3240 O   0  0  0  0  0  1  0  0  0  0  0  0
  185.8900  179.0510  145.8680 O   0  0  0  0  0  0  0  0  0  0  0  0
  188.0050  177.8130  147.2580 O   0  0  0  0  0  0  0  0  0  0  0  0
  189.3230  173.6100  143.4230 O   0  0  0  0  0  1  0  0  0  0  0  0
  188.8790  174.9330  143.4030 C   0  0  2  0  0  3  0  0  0  0  0  0
  189.2330  175.6060  142.0700 C   0  0  1  0  0  3  0  0  0  0  0  0
  188.5580  174.9000  140.9080 C   0  0  0  0  0  1  0  0  0  0  0  0
  188.8760  177.0190  142.0640 N   0  0  0  0  0  2  0  0  0  0  0  0
  187.5480  177.1330  141.4830 C   0  0  0  0  0  2  0  0  0  0  0  0
  186.8020  178.2880  142.1290 C   0  0  0  0  0  2  0  0  0  0  0  0
  185.3740  178.2860  141.6990 C   0  0  0  0  0  0  0  0  0  0  0  0
  184.2930  178.2900  142.7230 C   0  0  0  0  0  1  0  0  0  0  0  0
  185.0870  178.3030  140.5120 O   0  0  0  0  0  0  0  0  0  0  0  0
  192.6440  176.2350  146.4430 C   0  0  0  0  0  2  0  0  0  0  0  0
  196.7010  174.2690  144.5140 N   0  0  0  0  0  0  0  0  0  0  0  0
  194.8110  175.2560  145.7580 C   0  0  1  0  0  3  0  0  0  0  0  0
  197.1920  175.2900  143.8880 C   0  0  0  0  0  3  0  0  0  0  0  0
  193.4260  175.6540  145.2800 C   0  0  2  0  0  3  0  0  0  0  0  0
  195.3140  174.0990  144.8950 C   0  0  2  0  0  3  0  0  0  0  0  0
  194.6050  176.5530  144.9670 C   0  0  2  0  0  3  0  0  0  0  0  0
  195.1540  172.7960  145.6510 C   0  0  0  0  0  1  0  0  0  0  0  0
  194.9960  176.3960  143.5700 N   0  0  0  0  0  2  0  0  0  0  0  0
  196.4430  176.5520  143.5130 C   0  0  0  0  0  2  0  0  0  0  0  0
  1 10  2  6  0  0  0
  1 11  1  0  0  0  0
  1  9  1  0  0  0  0
  2 22  1  0  0  0  0
  2  3  1  0  0  0  0
  4  2  2  0  0  0  0
  5  6  1  0  0  0  0
  5  1  1  0  0  0  0
  6  7  1  0  0  0  0
  7  3  2  0  0  0  0
  7 11  1  0  0  0  0
  8  4  1  0  0  0  0
  8  6  2  0  0  0  0
 13 12  1  6  0  0  0
 13  8  1  0  0  0  0
 14 15  1  6  0  0  0
 14 13  1  0  0  0  0
 16 14  1  0  0  0  0
 17 16  1  0  0  0  0
 17 18  1  0  0  0  0
 19 18  1  0  0  0  0
 19 20  1  0  0  0  0
 21 19  2  0  0  0  0
 23 27  1  0  0  0  0
 25 23  2  0  0  0  0
 26 24  1  0  0  0  0
 26 22  1  0  0  0  0
 27 29  1  0  0  0  0
 27 24  1  0  0  0  0
 28 26  1  0  0  0  0
 28 24  1  0  0  0  0
 30 28  1  0  0  0  0
 31 30  1  0  0  0  0
 31 25  1  0  0  0  0
M  END
>  <MODEL>
5

>  <REMARK>
 VINA RESULT:      -6.5      3.943      7.025
  Name = 
  8 active torsions:
  status: ('A' for Active; 'I' for Inactive)
    1  A    between atoms: C_3  and  C_16
    2  A    between atoms: N_5  and  C_8
    3  A    between atoms: N_5  and  C_24
    4  A    between atoms: C_6  and  C_8
    5  A    between atoms: C_6  and  C_25
    6  A    between atoms: C_12  and  C_13
    7  A    between atoms: C_12  and  C_19
    8  A    between atoms: C_16  and  C_24
                            x       y       z     vdW  Elec       q    Type
                         _______ _______ _______ _____ _____    ______ ____

>  <TORSDO>
F 8

$$$$
=
 OpenBabel11042414013D

 31 34  0  0  1  0  0  0  0  0999 V2000
  189.3860  173.3150  139.5040 P   0  0  2  0  0  0  0  0  0  0  0  0
  188.9440  175.7390  143.7070 C   0  0  0  0  0  0  0  0  0  0  0  0
  188.4630  175.7290  142.3880 C   0  0  0  0  0  3  0  0  0  0  0  0
  189.8970  174.7910  144.1210 C   0  0  0  0  0  3  0  0  0  0  0  0
  190.2540  172.9220  140.9190 O   0  0  0  0  0  0  0  0  0  0  0  0
  189.8820  173.8160  141.9190 C   0  0  0  0  0  0  0  0  0  0  0  0
  188.9390  174.7600  141.5090 C   0  0  0  0  0  0  0  0  0  0  0  0
  190.3780  173.8170  143.2310 C   0  0  0  0  0  0  0  0  0  0  0  0
  188.4500  172.2030  139.0940 O   0  0  0  0  0  1  0  0  0  0  0  0
  190.4060  173.7910  138.2420 O   0  0  0  0  0  0  0  0  0  0  0  0
  188.5440  174.6340  140.1820 O   0  0  0  0  0  0  0  0  0  0  0  0
  190.7730  171.8520  144.5430 O   0  0  0  0  0  1  0  0  0  0  0  0
  191.3790  172.8060  143.7230 C   0  0  2  0  0  3  0  0  0  0  0  0
  192.5990  173.4240  144.4180 C   0  0  1  0  0  3  0  0  0  0  0  0
  193.4900  172.3480  145.0100 C   0  0  0  0  0  1  0  0  0  0  0  0
  193.3720  174.2630  143.5120 N   0  0  0  0  0  2  0  0  0  0  0  0
  194.0640  175.2570  144.3170 C   0  0  0  0  0  2  0  0  0  0  0  0
  193.0780  176.3130  144.7870 C   0  0  0  0  0  2  0  0  0  0  0  0
  193.0850  176.3990  146.2760 C   0  0  0  0  0  0  0  0  0  0  0  0
  191.8080  176.2670  147.0310 C   0  0  0  0  0  1  0  0  0  0  0  0
  194.1340  176.5570  146.8800 O   0  0  0  0  0  0  0  0  0  0  0  0
  188.4710  176.7800  144.6610 C   0  0  0  0  0  2  0  0  0  0  0  0
  184.0540  178.9030  144.4950 N   0  0  0  0  0  0  0  0  0  0  0  0
  186.3920  178.1120  144.4930 C   0  0  1  0  0  3  0  0  0  0  0  0
  183.8030  179.0410  145.7570 C   0  0  0  0  0  3  0  0  0  0  0  0
  186.9590  176.7320  144.7760 C   0  0  2  0  0  3  0  0  0  0  0  0
  184.9850  177.9560  143.9170 C   0  0  2  0  0  3  0  0  0  0  0  0
  186.5140  177.6030  145.9330 C   0  0  2  0  0  3  0  0  0  0  0  0
  185.0280  178.1420  142.4140 C   0  0  0  0  0  1  0  0  0  0  0  0
  185.2310  177.1350  146.4470 N   0  0  0  0  0  2  0  0  0  0  0  0
  184.4960  178.3120  146.8890 C   0  0  0  0  0  2  0  0  0  0  0  0
  1 10  2  6  0  0  0
  1 11  1  0  0  0  0
  1  5  1  0  0  0  0
  2  4  1  0  0  0  0
  2 22  1  0  0  0  0
  3  2  2  0  0  0  0
  5  6  1  0  0  0  0
  6  8  1  0  0  0  0
  7  6  2  0  0  0  0
  7  3  1  0  0  0  0
  8 13  1  0  0  0  0
  8  4  2  0  0  0  0
  9  1  1  0  0  0  0
 11  7  1  0  0  0  0
 13 14  1  0  0  0  0
 13 12  1  1  0  0  0
 14 15  1  6  0  0  0
 16 17  1  0  0  0  0
 16 14  1  0  0  0  0
 17 18  1  0  0  0  0
 18 19  1  0  0  0  0
 19 21  2  0  0  0  0
 19 20  1  0  0  0  0
 22 26  1  0  0  0  0
 23 25  2  0  0  0  0
 24 26  1  0  0  0  0
 24 28  1  0  0  0  0
 25 31  1  0  0  0  0
 26 28  1  0  0  0  0
 27 24  1  0  0  0  0
 27 23  1  0  0  0  0
 28 30  1  0  0  0  0
 29 27  1  0  0  0  0
 30 31  1  0  0  0  0
M  END
>  <MODEL>
6

>  <REMARK>
 VINA RESULT:      -6.4      2.421      4.719
  Name = 
  8 active torsions:
  status: ('A' for Active; 'I' for Inactive)
    1  A    between atoms: C_3  and  C_16
    2  A    between atoms: N_5  and  C_8
    3  A    between atoms: N_5  and  C_24
    4  A    between atoms: C_6  and  C_8
    5  A    between atoms: C_6  and  C_25
    6  A    between atoms: C_12  and  C_13
    7  A    between atoms: C_12  and  C_19
    8  A    between atoms: C_16  and  C_24
                            x       y       z     vdW  Elec       q    Type
                         _______ _______ _______ _____ _____    ______ ____

>  <TORSDO>
F 8

$$$$
=
 OpenBabel11042414013D

 31 34  0  0  1  0  0  0  0  0999 V2000
  194.2330  176.0150  145.5220 P   0  0  2  0  0  0  0  0  0  0  0  0
  189.4100  175.9590  146.2050 C   0  0  0  0  0  0  0  0  0  0  0  0
  190.5990  176.3980  146.8070 C   0  0  0  0  0  3  0  0  0  0  0  0
  189.4470  175.2710  144.9780 C   0  0  0  0  0  3  0  0  0  0  0  0
  193.1320  175.2990  144.4330 O   0  0  0  0  0  0  0  0  0  0  0  0
  191.8470  175.4690  144.9420 C   0  0  0  0  0  0  0  0  0  0  0  0
  191.8080  176.1480  146.1610 C   0  0  0  0  0  0  0  0  0  0  0  0
  190.6670  175.0180  144.3320 C   0  0  0  0  0  0  0  0  0  0  0  0
  194.9610  177.1810  144.8960 O   0  0  0  0  0  0  0  0  0  0  0  0
  195.2950  174.8820  146.1920 O   0  0  0  0  0  1  0  0  0  0  0  0
  193.0550  176.5320  146.6420 O   0  0  0  0  0  0  0  0  0  0  0  0
  189.7870  174.9130  142.1060 O   0  0  0  0  0  1  0  0  0  0  0  0
  190.6590  174.3000  143.0090 C   0  0  2  0  0  3  0  0  0  0  0  0
  190.3640  172.7990  143.1150 C   0  0  1  0  0  3  0  0  0  0  0  0
  188.9200  172.5000  142.7550 C   0  0  0  0  0  1  0  0  0  0  0  0
  191.2560  172.0100  142.2750 N   0  0  0  0  0  2  0  0  0  0  0  0
  192.6140  172.2350  142.7440 C   0  0  0  0  0  2  0  0  0  0  0  0
  192.7620  171.7080  144.1610 C   0  0  0  0  0  2  0  0  0  0  0  0
  194.1700  171.8660  144.6260 C   0  0  0  0  0  0  0  0  0  0  0  0
  195.1930  172.4410  143.7090 C   0  0  0  0  0  1  0  0  0  0  0  0
  194.4840  171.5450  145.7620 O   0  0  0  0  0  0  0  0  0  0  0  0
  188.1060  176.1900  146.8860 C   0  0  0  0  0  2  0  0  0  0  0  0
  185.9390  179.1980  143.6760 N   0  0  0  0  0  0  0  0  0  0  0  0
  187.2400  177.9110  145.3320 C   0  0  1  0  0  3  0  0  0  0  0  0
  184.9150  179.5900  144.3630 C   0  0  0  0  0  3  0  0  0  0  0  0
  187.0310  176.5030  145.8600 C   0  0  2  0  0  3  0  0  0  0  0  0
  186.6970  177.9860  143.9060 C   0  0  2  0  0  3  0  0  0  0  0  0
  186.1550  177.6260  146.3770 C   0  0  2  0  0  3  0  0  0  0  0  0
  187.8450  177.9140  142.9210 C   0  0  0  0  0  1  0  0  0  0  0  0
  184.8310  177.5480  145.7670 N   0  0  0  0  0  2  0  0  0  0  0  0
  184.3590  178.9160  145.6000 C   0  0  0  0  0  2  0  0  0  0  0  0
  1  9  2  6  0  0  0
  1 10  1  0  0  0  0
  1 11  1  0  0  0  0
  2  3  1  0  0  0  0
  2 22  1  0  0  0  0
  4  2  2  0  0  0  0
  5  6  1  0  0  0  0
  5  1  1  0  0  0  0
  6  7  1  0  0  0  0
  7 11  1  0  0  0  0
  7  3  2  0  0  0  0
  8  6  2  0  0  0  0
  8  4  1  0  0  0  0
 13 12  1  6  0  0  0
 13 14  1  0  0  0  0
 13  8  1  0  0  0  0
 14 15  1  6  0  0  0
 16 17  1  0  0  0  0
 16 14  1  0  0  0  0
 17 18  1  0  0  0  0
 18 19  1  0  0  0  0
 19 21  2  0  0  0  0
 20 19  1  0  0  0  0
 23 27  1  0  0  0  0
 23 25  2  0  0  0  0
 24 26  1  0  0  0  0
 24 28  1  0  0  0  0
 25 31  1  0  0  0  0
 26 28  1  0  0  0  0
 26 22  1  0  0  0  0
 27 24  1  0  0  0  0
 29 27  1  0  0  0  0
 30 28  1  0  0  0  0
 31 30  1  0  0  0  0
M  END
>  <MODEL>
7

>  <REMARK>
 VINA RESULT:      -6.4      1.690      3.420
  Name = 
  8 active torsions:
  status: ('A' for Active; 'I' for Inactive)
    1  A    between atoms: C_3  and  C_16
    2  A    between atoms: N_5  and  C_8
    3  A    between atoms: N_5  and  C_24
    4  A    between atoms: C_6  and  C_8
    5  A    between atoms: C_6  and  C_25
    6  A    between atoms: C_12  and  C_13
    7  A    between atoms: C_12  and  C_19
    8  A    between atoms: C_16  and  C_24
                            x       y       z     vdW  Elec       q    Type
                         _______ _______ _______ _____ _____    ______ ____

>  <TORSDO>
F 8

$$$$
=
 OpenBabel11042414013D

 31 34  0  0  1  0  0  0  0  0999 V2000
  193.8700  173.9930  145.2410 P   0  0  2  0  0  0  0  0  0  0  0  0
  189.3630  175.6830  145.9900 C   0  0  0  0  0  0  0  0  0  0  0  0
  190.6200  175.5950  146.6080 C   0  0  0  0  0  3  0  0  0  0  0  0
  189.1620  175.1360  144.7100 C   0  0  0  0  0  3  0  0  0  0  0  0
  192.6000  173.8320  144.1130 O   0  0  0  0  0  0  0  0  0  0  0  0
  191.4630  174.4260  144.6540 C   0  0  0  0  0  0  0  0  0  0  0  0
  191.6590  174.9670  145.9260 C   0  0  0  0  0  0  0  0  0  0  0  0
  190.2100  174.5000  144.0260 C   0  0  0  0  0  0  0  0  0  0  0  0
  194.9910  174.8510  144.7030 O   0  0  0  0  0  0  0  0  0  0  0  0
  194.4210  172.4940  145.7980 O   0  0  0  0  0  1  0  0  0  0  0  0
  192.9510  174.8160  146.4180 O   0  0  0  0  0  0  0  0  0  0  0  0
  189.4350  174.9290  141.8010 O   0  0  0  0  0  1  0  0  0  0  0  0
  189.9580  173.9500  142.6480 C   0  0  2  0  0  3  0  0  0  0  0  0
  189.0820  172.6910  142.6300 C   0  0  1  0  0  3  0  0  0  0  0  0
  187.8170  172.9190  141.8220 C   0  0  0  0  0  1  0  0  0  0  0  0
  189.8010  171.5370  142.1050 N   0  0  0  0  0  2  0  0  0  0  0  0
  191.0200  172.0270  141.4800 C   0  0  0  0  0  2  0  0  0  0  0  0
  191.1680  171.4200  140.0960 C   0  0  0  0  0  2  0  0  0  0  0  0
  190.2130  172.0610  139.1460 C   0  0  0  0  0  0  0  0  0  0  0  0
  190.4440  173.4630  138.6980 C   0  0  0  0  0  1  0  0  0  0  0  0
  189.2560  171.4360  138.7170 O   0  0  0  0  0  0  0  0  0  0  0  0
  188.2280  176.3260  146.7080 C   0  0  0  0  0  2  0  0  0  0  0  0
  185.7600  179.1940  143.5870 N   0  0  0  0  0  0  0  0  0  0  0  0
  187.2060  177.9860  145.1820 C   0  0  1  0  0  3  0  0  0  0  0  0
  184.7670  179.5630  144.3300 C   0  0  0  0  0  3  0  0  0  0  0  0
  187.0820  176.5820  145.7460 C   0  0  2  0  0  3  0  0  0  0  0  0
  186.5740  178.0130  143.7910 C   0  0  2  0  0  3  0  0  0  0  0  0
  186.1990  177.6830  146.2960 C   0  0  2  0  0  3  0  0  0  0  0  0
  187.6620  177.9620  142.7370 C   0  0  0  0  0  1  0  0  0  0  0  0
  184.8440  177.5470  145.7720 N   0  0  0  0  0  2  0  0  0  0  0  0
  184.3130  178.8930  145.6100 C   0  0  0  0  0  2  0  0  0  0  0  0
  1  9  2  6  0  0  0
  1 10  1  0  0  0  0
  1 11  1  0  0  0  0
  2  3  1  0  0  0  0
  2 22  1  0  0  0  0
  4  2  2  0  0  0  0
  5  6  1  0  0  0  0
  5  1  1  0  0  0  0
  6  7  1  0  0  0  0
  7 11  1  0  0  0  0
  7  3  2  0  0  0  0
  8  6  2  0  0  0  0
  8  4  1  0  0  0  0
 13 12  1  6  0  0  0
 13  8  1  0  0  0  0
 14 15  1  6  0  0  0
 14 13  1  0  0  0  0
 16 14  1  0  0  0  0
 17 16  1  0  0  0  0
 18 17  1  0  0  0  0
 19 18  1  0  0  0  0
 20 19  1  0  0  0  0
 21 19  2  0  0  0  0
 23 27  1  0  0  0  0
 23 25  2  0  0  0  0
 24 26  1  0  0  0  0
 24 28  1  0  0  0  0
 25 31  1  0  0  0  0
 26 28  1  0  0  0  0
 26 22  1  0  0  0  0
 27 24  1  0  0  0  0
 29 27  1  0  0  0  0
 30 28  1  0  0  0  0
 31 30  1  0  0  0  0
M  END
>  <MODEL>
8

>  <REMARK>
 VINA RESULT:      -6.3      1.817      2.806
  Name = 
  8 active torsions:
  status: ('A' for Active; 'I' for Inactive)
    1  A    between atoms: C_3  and  C_16
    2  A    between atoms: N_5  and  C_8
    3  A    between atoms: N_5  and  C_24
    4  A    between atoms: C_6  and  C_8
    5  A    between atoms: C_6  and  C_25
    6  A    between atoms: C_12  and  C_13
    7  A    between atoms: C_12  and  C_19
    8  A    between atoms: C_16  and  C_24
                            x       y       z     vdW  Elec       q    Type
                         _______ _______ _______ _____ _____    ______ ____

>  <TORSDO>
F 8

$$$$
=
 OpenBabel11042414013D

 31 34  0  0  1  0  0  0  0  0999 V2000
  186.3440  177.7940  146.2100 P   0  0  2  0  0  0  0  0  0  0  0  0
  188.1550  175.9870  142.0640 C   0  0  0  0  0  0  0  0  0  0  0  0
  186.9490  176.1240  142.7680 C   0  0  0  0  0  3  0  0  0  0  0  0
  189.3540  176.4820  142.6080 C   0  0  0  0  0  3  0  0  0  0  0  0
  187.9950  177.8700  145.7860 O   0  0  0  0  0  0  0  0  0  0  0  0
  188.1520  177.2610  144.5440 C   0  0  0  0  0  0  0  0  0  0  0  0
  186.9640  176.7660  144.0040 C   0  0  0  0  0  0  0  0  0  0  0  0
  189.3670  177.1250  143.8560 C   0  0  0  0  0  0  0  0  0  0  0  0
  185.7270  179.1690  146.3070 O   0  0  0  0  0  0  0  0  0  0  0  0
  186.0860  176.8760  147.6070 O   0  0  0  0  0  1  0  0  0  0  0  0
  185.8440  176.9730  144.8010 O   0  0  0  0  0  0  0  0  0  0  0  0
  191.1350  178.7220  143.6120 O   0  0  0  0  0  1  0  0  0  0  0  0
  190.6680  177.6610  144.3900 C   0  0  2  0  0  3  0  0  0  0  0  0
  191.7570  176.5950  144.5650 C   0  0  1  0  0  3  0  0  0  0  0  0
  192.8820  176.7970  143.5670 C   0  0  0  0  0  1  0  0  0  0  0  0
  192.2940  176.5860  145.9190 N   0  0  0  0  0  2  0  0  0  0  0  0
  191.9070  175.3270  146.5360 C   0  0  0  0  0  2  0  0  0  0  0  0
  190.6980  175.5430  147.4300 C   0  0  0  0  0  2  0  0  0  0  0  0
  189.5610  174.6900  146.9770 C   0  0  0  0  0  0  0  0  0  0  0  0
  189.6820  173.9040  145.7180 C   0  0  0  0  0  1  0  0  0  0  0  0
  188.5410  174.6170  147.6430 O   0  0  0  0  0  0  0  0  0  0  0  0
  188.1720  175.2830  140.7520 C   0  0  0  0  0  2  0  0  0  0  0  0
  191.8080  171.9960  140.6020 N   0  0  0  0  0  0  0  0  0  0  0  0
  190.1930  173.8630  140.5990 C   0  0  1  0  0  3  0  0  0  0  0  0
  191.5430  171.3910  139.4890 C   0  0  0  0  0  3  0  0  0  0  0  0
  188.7100  173.8740  140.9240 C   0  0  2  0  0  3  0  0  0  0  0  0
  190.8630  172.7480  141.4010 C   0  0  2  0  0  3  0  0  0  0  0  0
  189.1710  173.3440  139.5820 C   0  0  2  0  0  3  0  0  0  0  0  0
  191.5750  173.3420  142.6000 C   0  0  0  0  0  1  0  0  0  0  0  0
  189.1150  171.8850  139.5750 N   0  0  0  0  0  2  0  0  0  0  0  0
  190.2220  171.4210  138.7500 C   0  0  0  0  0  2  0  0  0  0  0  0
  1  9  2  1  0  0  0
  1 10  1  0  0  0  0
  2  4  2  0  0  0  0
  2  3  1  0  0  0  0
  3  7  2  0  0  0  0
  4  8  1  0  0  0  0
  5  1  1  0  0  0  0
  6  5  1  0  0  0  0
  7  6  1  0  0  0  0
  7 11  1  0  0  0  0
  8 13  1  0  0  0  0
  8  6  2  0  0  0  0
 11  1  1  0  0  0  0
 13 12  1  6  0  0  0
 13 14  1  0  0  0  0
 14 15  1  6  0  0  0
 14 16  1  0  0  0  0
 16 17  1  0  0  0  0
 17 18  1  0  0  0  0
 19 18  1  0  0  0  0
 19 21  2  0  0  0  0
 20 19  1  0  0  0  0
 22 26  1  0  0  0  0
 22  2  1  0  0  0  0
 23 27  1  0  0  0  0
 24 26  1  0  0  0  0
 24 27  1  0  0  0  0
 25 23  2  0  0  0  0
 27 29  1  0  0  0  0
 28 24  1  0  0  0  0
 28 26  1  0  0  0  0
 30 28  1  0  0  0  0
 31 25  1  0  0  0  0
 31 30  1  0  0  0  0
M  END
>  <MODEL>
9

>  <REMARK>
 VINA RESULT:      -6.2      3.504      7.035
  Name = 
  8 active torsions:
  status: ('A' for Active; 'I' for Inactive)
    1  A    between atoms: C_3  and  C_16
    2  A    between atoms: N_5  and  C_8
    3  A    between atoms: N_5  and  C_24
    4  A    between atoms: C_6  and  C_8
    5  A    between atoms: C_6  and  C_25
    6  A    between atoms: C_12  and  C_13
    7  A    between atoms: C_12  and  C_19
    8  A    between atoms: C_16  and  C_24
                            x       y       z     vdW  Elec       q    Type
                         _______ _______ _______ _____ _____    ______ ____

>  <TORSDO>
F 8

$$$$
