=
 OpenBabel11042417323D

 39 42  0  0  1  0  0  0  0  0999 V2000
  190.7450  175.0210  144.2830 C   0  0  0  0  0  3  0  0  0  0  0  0
  191.2400  175.9770  145.0800 C   0  0  0  0  0  0  0  0  0  0  0  0
  192.9500  172.6030  142.4850 C   0  0  0  0  0  2  0  0  0  0  0  0
  191.4770  173.8780  143.8180 N   0  0  0  0  0  0  0  0  0  0  0  0
  192.9200  172.0020  143.8850 C   0  0  2  0  0  3  0  0  0  0  0  0
  191.7960  172.7070  144.6150 C   0  0  0  0  0  2  0  0  0  0  0  0
  192.2110  173.9260  142.5730 C   0  0  0  0  0  2  0  0  0  0  0  0
  194.1750  172.2930  144.5580 N   0  0  0  0  0  2  0  0  0  0  0  0
  195.4500  169.0760  145.8420 C   0  0  1  0  0  3  0  0  0  0  0  0
  197.1570  169.6500  145.5820 S   0  0  0  0  0  0  0  0  0  0  0  0
  195.1640  168.9410  147.3270 C   0  0  0  0  0  1  0  0  0  0  0  0
  194.5570  170.0550  145.2470 N   0  0  0  0  0  0  0  0  0  0  0  0
  194.9620  171.2810  145.1850 C   0  0  0  0  0  0  0  0  0  0  0  0
  196.5550  171.6750  145.8800 S   0  0  0  0  0  0  0  0  0  0  0  0
  190.3820  177.1450  145.3850 C   0  0  0  0  0  0  0  0  0  0  0  0
  190.2040  178.1130  144.5380 N   0  0  0  0  0  0  0  0  0  0  0  0
  190.8280  178.1410  143.2840 N   0  0  0  0  0  1  0  0  0  0  0  0
  189.7380  177.2430  146.7270 C   0  0  0  0  0  2  0  0  0  0  0  0
  188.9240  175.9880  147.0040 C   0  0  0  0  0  2  0  0  0  0  0  0
  187.5730  176.1460  146.4850 N   0  0  0  0  0  2  0  0  0  0  0  0
  186.0550  177.3350  147.8250 O   0  0  0  0  0  1  0  0  0  0  0  0
  187.0980  177.4610  146.9010 C   0  0  2  0  0  3  0  0  0  0  0  0
  186.6710  178.2410  145.7450 N   0  0  0  0  0  2  0  0  0  0  0  0
  185.2650  178.2030  145.6690 N   0  0  0  0  0  0  0  0  0  0  0  0
  184.7930  177.8920  144.3220 C   0  0  1  0  0  3  0  0  0  0  0  0
  184.9020  179.1800  144.7560 O   0  0  0  0  0  0  0  0  0  0  0  0
  187.8820  174.2830  141.9980 S   0  0  0  0  0  1  0  0  0  0  0  0
  186.4620  178.6000  142.5810 C   0  0  0  0  0  3  0  0  0  0  0  0
  186.3130  176.2480  143.1420 C   0  0  0  0  0  3  0  0  0  0  0  0
  185.8660  177.5660  143.3140 C   0  0  0  0  0  0  0  0  0  0  0  0
  187.3280  175.9650  142.2240 C   0  0  0  0  0  0  0  0  0  0  0  0
  187.4780  178.3160  141.6630 C   0  0  0  0  0  3  0  0  0  0  0  0
  187.9090  176.9980  141.4830 C   0  0  0  0  0  3  0  0  0  0  0  0
  192.5810  175.8930  145.5810 N   0  0  0  0  0  2  0  0  0  0  0  0
  194.4460  175.6700  144.2120 F   0  0  0  0  0  0  0  0  0  0  0  0
  193.7240  176.5670  144.9810 C   0  0  2  0  0  3  0  0  0  0  0  0
  195.0760  178.3980  145.7030 F   0  0  0  0  0  0  0  0  0  0  0  0
  194.6070  177.1470  146.0710 C   0  0  0  0  0  3  0  0  0  0  0  0
  193.8950  177.2470  147.2530 F   0  0  0  0  0  0  0  0  0  0  0  0
  1  2  2  0  0  0  0
  2 15  1  0  0  0  0
  2 34  1  0  0  0  0
  3  7  1  0  0  0  0
  3  5  1  0  0  0  0
  4  1  1  0  0  0  0
  4  6  1  0  0  0  0
  5  8  1  1  0  0  0
  5  6  1  0  0  0  0
  7  4  1  0  0  0  0
  8 13  1  0  0  0  0
  9 11  1  1  0  0  0
 10  9  1  0  0  0  0
 10 14  1  0  0  0  0
 12  9  1  0  0  0  0
 13 12  2  0  0  0  0
 13 14  1  0  0  0  0
 15 18  1  0  0  0  0
 16 15  2  0  0  0  0
 17 16  1  0  0  0  0
 18 19  1  0  0  0  0
 20 22  1  0  0  0  0
 20 19  1  0  0  0  0
 22 21  1  1  0  0  0
 23 22  1  0  0  0  0
 24 23  1  0  0  0  0
 25 30  1  6  0  0  0
 25 26  1  0  0  0  0
 25 24  1  0  0  0  0
 26 24  1  0  0  0  0
 27 31  1  0  0  0  0
 28 30  1  0  0  0  0
 29 30  2  0  0  0  0
 31 29  1  0  0  0  0
 32 28  2  0  0  0  0
 33 32  1  0  0  0  0
 33 31  2  0  0  0  0
 36 35  1  1  0  0  0
 36 34  1  0  0  0  0
 36 38  1  0  0  0  0
 37 38  1  0  0  0  0
 38 39  1  0  0  0  0
M  END
>  <MODEL>
1

>  <REMARK>
 VINA RESULT:      -6.9      0.000      0.000
  Name = 
  13 active torsions:
  status: ('A' for Active; 'I' for Inactive)
    1  A    between atoms: C_3  and  N_8
    2  A    between atoms: N_6  and  C_17
    3  A    between atoms: C_11  and  C_13
    4  A    between atoms: C_11  and  C_33
    5  A    between atoms: C_13  and  C_21
    6  A    between atoms: C_16  and  C_30
    7  A    between atoms: N_18  and  C_21
    8  A    between atoms: N_18  and  C_31
    9  A    between atoms: C_20  and  C_36
   10  A    between atoms: N_24  and  N_28
   11  A    between atoms: N_28  and  C_31
   12  A    between atoms: C_33  and  N_34
   13  A    between atoms: N_34  and  C_36
                            x       y       z     vdW  Elec       q    Type
                         _______ _______ _______ _____ _____    ______ ____

>  <TORSDO>
F 13

$$$$
=
 OpenBabel11042417323D

 39 42  0  0  1  0  0  0  0  0999 V2000
  191.4150  174.8800  142.3490 C   0  0  0  0  0  3  0  0  0  0  0  0
  190.4640  174.0020  142.0100 C   0  0  0  0  0  0  0  0  0  0  0  0
  193.8320  174.2400  145.1210 C   0  0  0  0  0  2  0  0  0  0  0  0
  192.5580  174.5830  143.1650 N   0  0  0  0  0  0  0  0  0  0  0  0
  194.4230  173.3900  144.0030 C   0  0  2  0  0  3  0  0  0  0  0  0
  193.7190  173.8270  142.7350 C   0  0  0  0  0  2  0  0  0  0  0  0
  192.5140  174.7790  144.5970 C   0  0  0  0  0  2  0  0  0  0  0  0
  194.1170  171.9910  144.2530 N   0  0  0  0  0  2  0  0  0  0  0  0
  197.1320  170.5170  145.7900 C   0  0  1  0  0  3  0  0  0  0  0  0
  196.0840  169.3940  146.7660 S   0  0  0  0  0  0  0  0  0  0  0  0
  197.9270  169.7300  144.7640 C   0  0  0  0  0  1  0  0  0  0  0  0
  196.2620  171.4720  145.1260 N   0  0  0  0  0  0  0  0  0  0  0  0
  195.0580  171.0950  144.8460 C   0  0  0  0  0  0  0  0  0  0  0  0
  194.5840  169.4250  145.2500 S   0  0  0  0  0  0  0  0  0  0  0  0
  189.2970  174.4960  141.2450 C   0  0  0  0  0  0  0  0  0  0  0  0
  189.0520  174.1110  140.0290 N   0  0  0  0  0  0  0  0  0  0  0  0
  189.8840  173.2190  139.3400 N   0  0  0  0  0  1  0  0  0  0  0  0
  188.3970  175.5100  141.8670 C   0  0  0  0  0  2  0  0  0  0  0  0
  187.6160  176.2430  140.7870 C   0  0  0  0  0  2  0  0  0  0  0  0
  187.1560  177.5290  141.2900 N   0  0  0  0  0  2  0  0  0  0  0  0
  185.2230  178.5690  140.4540 O   0  0  0  0  0  1  0  0  0  0  0  0
  185.6980  177.5170  141.2460 C   0  0  2  0  0  3  0  0  0  0  0  0
  185.1450  177.5950  142.5930 N   0  0  0  0  0  2  0  0  0  0  0  0
  184.6900  178.9100  142.8190 N   0  0  0  0  0  0  0  0  0  0  0  0
  184.9650  179.3630  144.1800 C   0  0  1  0  0  3  0  0  0  0  0  0
  183.7590  178.8250  143.8420 O   0  0  0  0  0  0  0  0  0  0  0  0
  189.6350  177.2140  145.4250 S   0  0  0  0  0  1  0  0  0  0  0  0
  185.1040  177.6110  145.9780 C   0  0  0  0  0  3  0  0  0  0  0  0
  187.1480  178.2760  144.8600 C   0  0  0  0  0  3  0  0  0  0  0  0
  185.7630  178.4110  145.0350 C   0  0  0  0  0  0  0  0  0  0  0  0
  187.8700  177.3690  145.6420 C   0  0  0  0  0  0  0  0  0  0  0  0
  185.8270  176.7040  146.7590 C   0  0  0  0  0  3  0  0  0  0  0  0
  187.2100  176.5850  146.5920 C   0  0  0  0  0  3  0  0  0  0  0  0
  190.5510  172.6300  142.4210 N   0  0  0  0  0  2  0  0  0  0  0  0
  188.3210  172.2140  142.9250 F   0  0  0  0  0  0  0  0  0  0  0  0
  189.6220  171.9900  143.3410 C   0  0  2  0  0  3  0  0  0  0  0  0
  189.3020  173.8250  144.8350 F   0  0  0  0  0  0  0  0  0  0  0  0
  189.8230  172.5450  144.7400 C   0  0  0  0  0  3  0  0  0  0  0  0
  189.2070  171.7230  145.6670 F   0  0  0  0  0  0  0  0  0  0  0  0
  1  4  1  0  0  0  0
  2  1  2  0  0  0  0
  2 34  1  0  0  0  0
  4  7  1  0  0  0  0
  5  8  1  1  0  0  0
  5  3  1  0  0  0  0
  6  4  1  0  0  0  0
  6  5  1  0  0  0  0
  7  3  1  0  0  0  0
  8 13  1  0  0  0  0
  9 11  1  6  0  0  0
  9 10  1  0  0  0  0
 12  9  1  0  0  0  0
 13 12  2  0  0  0  0
 13 14  1  0  0  0  0
 14 10  1  0  0  0  0
 15 18  1  0  0  0  0
 15  2  1  0  0  0  0
 16 15  2  0  0  0  0
 17 16  1  0  0  0  0
 19 20  1  0  0  0  0
 19 18  1  0  0  0  0
 22 21  1  6  0  0  0
 22 20  1  0  0  0  0
 22 23  1  0  0  0  0
 23 24  1  0  0  0  0
 24 26  1  0  0  0  0
 24 25  1  0  0  0  0
 25 30  1  1  0  0  0
 26 25  1  0  0  0  0
 27 31  1  0  0  0  0
 28 32  1  0  0  0  0
 29 30  1  0  0  0  0
 29 31  2  0  0  0  0
 30 28  2  0  0  0  0
 31 33  1  0  0  0  0
 33 32  2  0  0  0  0
 34 36  1  0  0  0  0
 36 35  1  6  0  0  0
 36 38  1  0  0  0  0
 38 37  1  0  0  0  0
 38 39  1  0  0  0  0
M  END
>  <MODEL>
2

>  <REMARK>
 VINA RESULT:      -6.8      3.040      4.520
  Name = 
  13 active torsions:
  status: ('A' for Active; 'I' for Inactive)
    1  A    between atoms: C_3  and  N_8
    2  A    between atoms: N_6  and  C_17
    3  A    between atoms: C_11  and  C_13
    4  A    between atoms: C_11  and  C_33
    5  A    between atoms: C_13  and  C_21
    6  A    between atoms: C_16  and  C_30
    7  A    between atoms: N_18  and  C_21
    8  A    between atoms: N_18  and  C_31
    9  A    between atoms: C_20  and  C_36
   10  A    between atoms: N_24  and  N_28
   11  A    between atoms: N_28  and  C_31
   12  A    between atoms: C_33  and  N_34
   13  A    between atoms: N_34  and  C_36
                            x       y       z     vdW  Elec       q    Type
                         _______ _______ _______ _____ _____    ______ ____

>  <TORSDO>
F 13

$$$$
=
 OpenBabel11042417323D

 39 42  0  0  1  0  0  0  0  0999 V2000
  192.1140  176.3980  145.0400 C   0  0  0  0  0  3  0  0  0  0  0  0
  191.4730  175.2940  145.4440 C   0  0  0  0  0  0  0  0  0  0  0  0
  195.6610  176.0920  143.9170 C   0  0  0  0  0  2  0  0  0  0  0  0
  193.3590  176.4120  144.3270 N   0  0  0  0  0  0  0  0  0  0  0  0
  194.9150  176.0000  142.5910 C   0  0  2  0  0  3  0  0  0  0  0  0
  193.4960  176.4420  142.8830 C   0  0  0  0  0  2  0  0  0  0  0  0
  194.6010  176.1080  145.0030 C   0  0  0  0  0  2  0  0  0  0  0  0
  194.8960  174.6150  142.1490 N   0  0  0  0  0  2  0  0  0  0  0  0
  195.1140  174.6870  138.4650 C   0  0  1  0  0  3  0  0  0  0  0  0
  196.0440  173.1230  138.4910 S   0  0  0  0  0  0  0  0  0  0  0  0
  193.7460  174.4700  137.8430 C   0  0  0  0  0  1  0  0  0  0  0  0
  194.9740  175.1430  139.8370 N   0  0  0  0  0  0  0  0  0  0  0  0
  194.9640  174.2490  140.7700 C   0  0  0  0  0  0  0  0  0  0  0  0
  195.0680  172.5350  140.2940 S   0  0  0  0  0  0  0  0  0  0  0  0
  190.2470  175.4570  146.2590 C   0  0  0  0  0  0  0  0  0  0  0  0
  190.2750  175.4680  147.5570 N   0  0  0  0  0  0  0  0  0  0  0  0
  191.4600  175.3020  148.2860 N   0  0  0  0  0  1  0  0  0  0  0  0
  188.9270  175.5630  145.5730 C   0  0  0  0  0  2  0  0  0  0  0  0
  188.1900  176.8030  146.0550 C   0  0  0  0  0  2  0  0  0  0  0  0
  187.0560  176.4190  146.8820 N   0  0  0  0  0  2  0  0  0  0  0  0
  184.7420  176.7280  146.6250 O   0  0  0  0  0  1  0  0  0  0  0  0
  185.9850  177.3730  146.6230 C   0  0  2  0  0  3  0  0  0  0  0  0
  186.2060  178.0590  145.3540 N   0  0  0  0  0  2  0  0  0  0  0  0
  184.9600  178.2780  144.7350 N   0  0  0  0  0  0  0  0  0  0  0  0
  184.9970  177.9910  143.3030 C   0  0  1  0  0  3  0  0  0  0  0  0
  185.1720  179.2570  143.7770 O   0  0  0  0  0  0  0  0  0  0  0  0
  187.9100  173.7550  142.0590 S   0  0  0  0  0  1  0  0  0  0  0  0
  187.3500  178.2840  142.4680 C   0  0  0  0  0  3  0  0  0  0  0  0
  186.4740  176.0350  142.6720 C   0  0  0  0  0  3  0  0  0  0  0  0
  186.2940  177.4210  142.7860 C   0  0  0  0  0  0  0  0  0  0  0  0
  187.6920  175.5200  142.2170 C   0  0  0  0  0  0  0  0  0  0  0  0
  188.5670  177.7690  142.0130 C   0  0  0  0  0  3  0  0  0  0  0  0
  188.7370  176.3870  141.8860 C   0  0  0  0  0  3  0  0  0  0  0  0
  191.9890  173.9920  145.1370 N   0  0  0  0  0  2  0  0  0  0  0  0
  190.9590  174.0530  143.0550 F   0  0  0  0  0  0  0  0  0  0  0  0
  191.6690  173.2470  143.9280 C   0  0  2  0  0  3  0  0  0  0  0  0
  189.7750  172.3680  145.0870 F   0  0  0  0  0  0  0  0  0  0  0  0
  190.8500  172.0190  144.2850 C   0  0  0  0  0  3  0  0  0  0  0  0
  190.3900  171.4070  143.1330 F   0  0  0  0  0  0  0  0  0  0  0  0
  1  2  2  0  0  0  0
  2 15  1  0  0  0  0
  3  7  1  0  0  0  0
  4  7  1  0  0  0  0
  4  1  1  0  0  0  0
  5  8  1  1  0  0  0
  5  6  1  0  0  0  0
  5  3  1  0  0  0  0
  6  4  1  0  0  0  0
  9 11  1  1  0  0  0
  9 10  1  0  0  0  0
  9 12  1  0  0  0  0
 10 14  1  0  0  0  0
 12 13  2  0  0  0  0
 13  8  1  0  0  0  0
 14 13  1  0  0  0  0
 15 16  2  0  0  0  0
 16 17  1  0  0  0  0
 18 19  1  0  0  0  0
 18 15  1  0  0  0  0
 19 20  1  0  0  0  0
 22 21  1  6  0  0  0
 22 20  1  0  0  0  0
 23 22  1  0  0  0  0
 24 23  1  0  0  0  0
 25 30  1  1  0  0  0
 25 26  1  0  0  0  0
 25 24  1  0  0  0  0
 26 24  1  0  0  0  0
 27 31  1  0  0  0  0
 28 30  1  0  0  0  0
 29 30  2  0  0  0  0
 31 29  1  0  0  0  0
 32 28  2  0  0  0  0
 33 32  1  0  0  0  0
 33 31  2  0  0  0  0
 34  2  1  0  0  0  0
 36 35  1  6  0  0  0
 36 38  1  0  0  0  0
 36 34  1  0  0  0  0
 38 37  1  0  0  0  0
 39 38  1  0  0  0  0
M  END
>  <MODEL>
3

>  <REMARK>
 VINA RESULT:      -6.6      3.005      4.469
  Name = 
  13 active torsions:
  status: ('A' for Active; 'I' for Inactive)
    1  A    between atoms: C_3  and  N_8
    2  A    between atoms: N_6  and  C_17
    3  A    between atoms: C_11  and  C_13
    4  A    between atoms: C_11  and  C_33
    5  A    between atoms: C_13  and  C_21
    6  A    between atoms: C_16  and  C_30
    7  A    between atoms: N_18  and  C_21
    8  A    between atoms: N_18  and  C_31
    9  A    between atoms: C_20  and  C_36
   10  A    between atoms: N_24  and  N_28
   11  A    between atoms: N_28  and  C_31
   12  A    between atoms: C_33  and  N_34
   13  A    between atoms: N_34  and  C_36
                            x       y       z     vdW  Elec       q    Type
                         _______ _______ _______ _____ _____    ______ ____

>  <TORSDO>
F 13

$$$$
=
 OpenBabel11042417323D

 39 42  0  0  1  0  0  0  0  0999 V2000
  192.3670  174.9750  142.1160 C   0  0  0  0  0  3  0  0  0  0  0  0
  191.8460  175.0260  143.3480 C   0  0  0  0  0  0  0  0  0  0  0  0
  195.8460  176.1710  141.4830 C   0  0  0  0  0  2  0  0  0  0  0  0
  193.7610  175.1140  141.8060 N   0  0  0  0  0  0  0  0  0  0  0  0
  196.0940  174.7270  141.9020 C   0  0  2  0  0  3  0  0  0  0  0  0
  194.7420  174.0460  141.8630 C   0  0  0  0  0  2  0  0  0  0  0  0
  194.3630  176.4230  141.6780 C   0  0  0  0  0  2  0  0  0  0  0  0
  196.5960  174.7040  143.2660 N   0  0  0  0  0  2  0  0  0  0  0  0
  195.3940  171.5560  144.7730 C   0  0  1  0  0  3  0  0  0  0  0  0
  196.9060  171.4630  145.7820 S   0  0  0  0  0  0  0  0  0  0  0  0
  194.1900  171.8120  145.6600 C   0  0  0  0  0  1  0  0  0  0  0  0
  195.5590  172.6440  143.8250 N   0  0  0  0  0  0  0  0  0  0  0  0
  196.3270  173.6260  144.1640 C   0  0  0  0  0  0  0  0  0  0  0  0
  197.0750  173.5900  145.7810 S   0  0  0  0  0  0  0  0  0  0  0  0
  190.3730  174.9660  143.4860 C   0  0  0  0  0  0  0  0  0  0  0  0
  189.7520  173.8760  143.8200 N   0  0  0  0  0  0  0  0  0  0  0  0
  190.4240  172.6670  144.0500 N   0  0  0  0  0  1  0  0  0  0  0  0
  189.5640  176.1830  143.1840 C   0  0  0  0  0  2  0  0  0  0  0  0
  188.2330  175.7810  142.5680 C   0  0  0  0  0  2  0  0  0  0  0  0
  188.1010  176.3650  141.2410 N   0  0  0  0  0  2  0  0  0  0  0  0
  186.6330  177.8300  140.1390 O   0  0  0  0  0  1  0  0  0  0  0  0
  186.7220  176.8160  141.0990 C   0  0  2  0  0  3  0  0  0  0  0  0
  186.1980  177.2740  142.3820 N   0  0  0  0  0  2  0  0  0  0  0  0
  185.8300  178.6290  142.2610 N   0  0  0  0  0  0  0  0  0  0  0  0
  185.6250  179.2630  143.5610 C   0  0  1  0  0  3  0  0  0  0  0  0
  184.5820  178.7430  142.8530 O   0  0  0  0  0  0  0  0  0  0  0  0
  189.2500  177.1460  146.7780 S   0  0  0  0  0  1  0  0  0  0  0  0
  184.9090  177.7650  145.4490 C   0  0  0  0  0  3  0  0  0  0  0  0
  187.2740  178.2050  145.1630 C   0  0  0  0  0  3  0  0  0  0  0  0
  185.9460  178.4080  144.7610 C   0  0  0  0  0  0  0  0  0  0  0  0
  187.5590  177.3880  146.2610 C   0  0  0  0  0  0  0  0  0  0  0  0
  185.1940  176.9470  146.5460 C   0  0  0  0  0  3  0  0  0  0  0  0
  186.5190  176.7610  146.9540 C   0  0  0  0  0  3  0  0  0  0  0  0
  192.6900  175.1870  144.4960 N   0  0  0  0  0  2  0  0  0  0  0  0
  192.5500  177.5010  144.3390 F   0  0  0  0  0  0  0  0  0  0  0  0
  192.9330  176.4570  145.1640 C   0  0  2  0  0  3  0  0  0  0  0  0
  194.7470  177.9070  145.7220 F   0  0  0  0  0  0  0  0  0  0  0  0
  194.4060  176.5810  145.5090 C   0  0  0  0  0  3  0  0  0  0  0  0
  194.6890  175.8410  146.6440 F   0  0  0  0  0  0  0  0  0  0  0  0
  1  2  2  0  0  0  0
  2 15  1  0  0  0  0
  2 34  1  0  0  0  0
  3  7  1  0  0  0  0
  3  5  1  0  0  0  0
  4  6  1  0  0  0  0
  4  1  1  0  0  0  0
  5  8  1  1  0  0  0
  6  5  1  0  0  0  0
  7  4  1  0  0  0  0
  8 13  1  0  0  0  0
  9 11  1  1  0  0  0
  9 10  1  0  0  0  0
 12 13  2  0  0  0  0
 12  9  1  0  0  0  0
 13 14  1  0  0  0  0
 14 10  1  0  0  0  0
 15 16  2  0  0  0  0
 16 17  1  0  0  0  0
 18 15  1  0  0  0  0
 19 18  1  0  0  0  0
 20 19  1  0  0  0  0
 22 21  1  6  0  0  0
 22 20  1  0  0  0  0
 22 23  1  0  0  0  0
 24 23  1  0  0  0  0
 24 26  1  0  0  0  0
 24 25  1  0  0  0  0
 25 30  1  1  0  0  0
 26 25  1  0  0  0  0
 28 32  1  0  0  0  0
 29 31  2  0  0  0  0
 30 29  1  0  0  0  0
 30 28  2  0  0  0  0
 31 27  1  0  0  0  0
 31 33  1  0  0  0  0
 32 33  2  0  0  0  0
 34 36  1  0  0  0  0
 36 35  1  6  0  0  0
 36 38  1  0  0  0  0
 38 37  1  0  0  0  0
 38 39  1  0  0  0  0
M  END
>  <MODEL>
4

>  <REMARK>
 VINA RESULT:      -6.6      2.489      3.753
  Name = 
  13 active torsions:
  status: ('A' for Active; 'I' for Inactive)
    1  A    between atoms: C_3  and  N_8
    2  A    between atoms: N_6  and  C_17
    3  A    between atoms: C_11  and  C_13
    4  A    between atoms: C_11  and  C_33
    5  A    between atoms: C_13  and  C_21
    6  A    between atoms: C_16  and  C_30
    7  A    between atoms: N_18  and  C_21
    8  A    between atoms: N_18  and  C_31
    9  A    between atoms: C_20  and  C_36
   10  A    between atoms: N_24  and  N_28
   11  A    between atoms: N_28  and  C_31
   12  A    between atoms: C_33  and  N_34
   13  A    between atoms: N_34  and  C_36
                            x       y       z     vdW  Elec       q    Type
                         _______ _______ _______ _____ _____    ______ ____

>  <TORSDO>
F 13

$$$$
=
 OpenBabel11042417323D

 39 42  0  0  1  0  0  0  0  0999 V2000
  193.1730  176.4810  144.8600 C   0  0  0  0  0  3  0  0  0  0  0  0
  191.9040  176.0860  145.0220 C   0  0  0  0  0  0  0  0  0  0  0  0
  196.0810  174.4010  145.9340 C   0  0  0  0  0  2  0  0  0  0  0  0
  194.3190  175.6220  144.9470 N   0  0  0  0  0  0  0  0  0  0  0  0
  195.6650  173.6970  144.6480 C   0  0  2  0  0  3  0  0  0  0  0  0
  194.7090  174.6420  143.9500 C   0  0  0  0  0  2  0  0  0  0  0  0
  195.0340  175.4680  146.1950 C   0  0  0  0  0  2  0  0  0  0  0  0
  194.9580  172.4710  144.9800 N   0  0  0  0  0  2  0  0  0  0  0  0
  197.5400  169.9150  145.6320 C   0  0  1  0  0  3  0  0  0  0  0  0
  196.4530  169.1330  146.8650 S   0  0  0  0  0  0  0  0  0  0  0  0
  197.7060  169.0030  144.4300 C   0  0  0  0  0  1  0  0  0  0  0  0
  196.9260  171.1680  145.2290 N   0  0  0  0  0  0  0  0  0  0  0  0
  195.6380  171.2550  145.2950 C   0  0  0  0  0  0  0  0  0  0  0  0
  194.7230  169.8190  145.8220 S   0  0  0  0  0  0  0  0  0  0  0  0
  190.8430  177.1190  145.0020 C   0  0  0  0  0  0  0  0  0  0  0  0
  190.2210  177.4950  146.0770 N   0  0  0  0  0  0  0  0  0  0  0  0
  190.4860  176.9360  147.3350 N   0  0  0  0  0  1  0  0  0  0  0  0
  190.4360  177.7160  143.6970 C   0  0  0  0  0  2  0  0  0  0  0  0
  189.1250  177.1010  143.2320 C   0  0  0  0  0  2  0  0  0  0  0  0
  188.7850  177.5960  141.9060 N   0  0  0  0  0  2  0  0  0  0  0  0
  186.9300  177.9790  140.5160 O   0  0  0  0  0  1  0  0  0  0  0  0
  187.3300  177.6030  141.8040 C   0  0  2  0  0  3  0  0  0  0  0  0
  186.7510  178.4940  142.8040 N   0  0  0  0  0  2  0  0  0  0  0  0
  185.3850  178.6740  142.5110 N   0  0  0  0  0  0  0  0  0  0  0  0
  184.5310  178.3800  143.6590 C   0  0  1  0  0  3  0  0  0  0  0  0
  184.7840  177.4400  142.7050 O   0  0  0  0  0  0  0  0  0  0  0  0
  186.3370  179.9750  148.3680 S   0  0  0  0  0  1  0  0  0  0  0  0
  185.8020  176.7820  145.1260 C   0  0  0  0  0  3  0  0  0  0  0  0
  185.4310  179.0360  145.9320 C   0  0  0  0  0  3  0  0  0  0  0  0
  185.2540  178.0580  144.9430 C   0  0  0  0  0  0  0  0  0  0  0  0
  186.1270  178.7310  147.1060 C   0  0  0  0  0  0  0  0  0  0  0  0
  186.4980  176.4770  146.3000 C   0  0  0  0  0  3  0  0  0  0  0  0
  186.6580  177.4510  147.2900 C   0  0  0  0  0  3  0  0  0  0  0  0
  191.5880  174.7070  145.2600 N   0  0  0  0  0  2  0  0  0  0  0  0
  191.2740  174.3620  142.9840 F   0  0  0  0  0  0  0  0  0  0  0  0
  191.1330  173.7820  144.2320 C   0  0  2  0  0  3  0  0  0  0  0  0
  189.0590  173.0650  143.2900 F   0  0  0  0  0  0  0  0  0  0  0  0
  189.6790  173.4200  144.4770 C   0  0  0  0  0  3  0  0  0  0  0  0
  189.5970  172.3710  145.3750 F   0  0  0  0  0  0  0  0  0  0  0  0
  1  4  1  0  0  0  0
  1  2  2  0  0  0  0
  2 34  1  0  0  0  0
  3  7  1  0  0  0  0
  4  7  1  0  0  0  0
  5  8  1  1  0  0  0
  5  3  1  0  0  0  0
  6  5  1  0  0  0  0
  6  4  1  0  0  0  0
  8 13  1  0  0  0  0
  9 11  1  6  0  0  0
  9 10  1  0  0  0  0
 12 13  2  0  0  0  0
 12  9  1  0  0  0  0
 13 14  1  0  0  0  0
 14 10  1  0  0  0  0
 15  2  1  0  0  0  0
 15 16  2  0  0  0  0
 16 17  1  0  0  0  0
 18 15  1  0  0  0  0
 19 18  1  0  0  0  0
 20 19  1  0  0  0  0
 22 21  1  6  0  0  0
 22 20  1  0  0  0  0
 22 23  1  0  0  0  0
 24 26  1  0  0  0  0
 24 23  1  0  0  0  0
 24 25  1  0  0  0  0
 25 30  1  1  0  0  0
 26 25  1  0  0  0  0
 28 32  1  0  0  0  0
 29 31  2  0  0  0  0
 30 28  2  0  0  0  0
 30 29  1  0  0  0  0
 31 33  1  0  0  0  0
 31 27  1  0  0  0  0
 32 33  2  0  0  0  0
 36 35  1  6  0  0  0
 36 38  1  0  0  0  0
 36 34  1  0  0  0  0
 37 38  1  0  0  0  0
 38 39  1  0  0  0  0
M  END
>  <MODEL>
5

>  <REMARK>
 VINA RESULT:      -6.5      2.864      4.226
  Name = 
  13 active torsions:
  status: ('A' for Active; 'I' for Inactive)
    1  A    between atoms: C_3  and  N_8
    2  A    between atoms: N_6  and  C_17
    3  A    between atoms: C_11  and  C_13
    4  A    between atoms: C_11  and  C_33
    5  A    between atoms: C_13  and  C_21
    6  A    between atoms: C_16  and  C_30
    7  A    between atoms: N_18  and  C_21
    8  A    between atoms: N_18  and  C_31
    9  A    between atoms: C_20  and  C_36
   10  A    between atoms: N_24  and  N_28
   11  A    between atoms: N_28  and  C_31
   12  A    between atoms: C_33  and  N_34
   13  A    between atoms: N_34  and  C_36
                            x       y       z     vdW  Elec       q    Type
                         _______ _______ _______ _____ _____    ______ ____

>  <TORSDO>
F 13

$$$$
=
 OpenBabel11042417323D

 39 42  0  0  1  0  0  0  0  0999 V2000
  193.3100  176.0400  142.5670 C   0  0  0  0  0  3  0  0  0  0  0  0
  192.3120  175.6000  143.3440 C   0  0  0  0  0  0  0  0  0  0  0  0
  196.9260  175.6210  143.3960 C   0  0  0  0  0  2  0  0  0  0  0  0
  194.6790  175.6250  142.6720 N   0  0  0  0  0  0  0  0  0  0  0  0
  196.5330  174.1960  143.0260 C   0  0  2  0  0  3  0  0  0  0  0  0
  195.1790  174.3000  142.3560 C   0  0  0  0  0  2  0  0  0  0  0  0
  195.6440  176.4330  143.3850 C   0  0  0  0  0  2  0  0  0  0  0  0
  196.3990  173.4070  144.2400 N   0  0  0  0  0  2  0  0  0  0  0  0
  197.2500  169.9320  143.3320 C   0  0  1  0  0  3  0  0  0  0  0  0
  197.9390  169.6670  144.9950 S   0  0  0  0  0  0  0  0  0  0  0  0
  195.9920  169.1030  143.1490 C   0  0  0  0  0  1  0  0  0  0  0  0
  196.9430  171.3450  143.1980 N   0  0  0  0  0  0  0  0  0  0  0  0
  196.6510  172.0020  144.2720 C   0  0  0  0  0  0  0  0  0  0  0  0
  196.5980  171.1100  145.8140 S   0  0  0  0  0  0  0  0  0  0  0  0
  190.9730  176.2060  143.1710 C   0  0  0  0  0  0  0  0  0  0  0  0
  190.0540  175.6580  142.4350 N   0  0  0  0  0  0  0  0  0  0  0  0
  190.2660  174.4650  141.7300 N   0  0  0  0  0  1  0  0  0  0  0  0
  190.6790  177.5170  143.8200 C   0  0  0  0  0  2  0  0  0  0  0  0
  189.5440  177.3570  144.8200 C   0  0  0  0  0  2  0  0  0  0  0  0
  190.0510  177.5090  146.1760 N   0  0  0  0  0  2  0  0  0  0  0  0
  188.9570  175.5950  146.9870 O   0  0  0  0  0  1  0  0  0  0  0  0
  189.0330  176.9900  147.0820 C   0  0  2  0  0  3  0  0  0  0  0  0
  187.7370  177.5960  146.7970 N   0  0  0  0  0  2  0  0  0  0  0  0
  186.7230  176.7370  147.2660 N   0  0  0  0  0  0  0  0  0  0  0  0
  185.5230  176.7940  146.4360 C   0  0  1  0  0  3  0  0  0  0  0  0
  185.6390  177.5470  147.5660 O   0  0  0  0  0  0  0  0  0  0  0  0
  186.8670  177.2590  141.3410 S   0  0  0  0  0  1  0  0  0  0  0  0
  185.2680  179.0040  145.2650 C   0  0  0  0  0  3  0  0  0  0  0  0
  186.1270  177.1250  144.0000 C   0  0  0  0  0  3  0  0  0  0  0  0
  185.6260  177.6510  145.1990 C   0  0  0  0  0  0  0  0  0  0  0  0
  186.2430  177.9390  142.8690 C   0  0  0  0  0  0  0  0  0  0  0  0
  185.3850  179.8180  144.1330 C   0  0  0  0  0  3  0  0  0  0  0  0
  185.8690  179.2840  142.9360 C   0  0  0  0  0  3  0  0  0  0  0  0
  192.5490  174.6030  144.3480 N   0  0  0  0  0  2  0  0  0  0  0  0
  193.1950  173.7500  146.4110 F   0  0  0  0  0  0  0  0  0  0  0  0
  193.3390  174.8250  145.5510 C   0  0  2  0  0  3  0  0  0  0  0  0
  192.4010  175.8300  147.5040 F   0  0  0  0  0  0  0  0  0  0  0  0
  192.8840  176.1030  146.2340 C   0  0  0  0  0  3  0  0  0  0  0  0
  193.9380  176.9940  146.3210 F   0  0  0  0  0  0  0  0  0  0  0  0
  1  4  1  0  0  0  0
  1  2  2  0  0  0  0
  2 34  1  0  0  0  0
  4  7  1  0  0  0  0
  5  3  1  0  0  0  0
  5  8  1  1  0  0  0
  6  4  1  0  0  0  0
  6  5  1  0  0  0  0
  7  3  1  0  0  0  0
  8 13  1  0  0  0  0
  9 11  1  1  0  0  0
  9 10  1  0  0  0  0
 10 14  1  0  0  0  0
 12  9  1  0  0  0  0
 12 13  2  0  0  0  0
 13 14  1  0  0  0  0
 15  2  1  0  0  0  0
 15 18  1  0  0  0  0
 16 15  2  0  0  0  0
 17 16  1  0  0  0  0
 18 19  1  0  0  0  0
 19 20  1  0  0  0  0
 20 22  1  0  0  0  0
 22 21  1  6  0  0  0
 23 22  1  0  0  0  0
 23 24  1  0  0  0  0
 24 26  1  0  0  0  0
 25 30  1  6  0  0  0
 25 24  1  0  0  0  0
 25 26  1  0  0  0  0
 27 31  1  0  0  0  0
 29 30  2  0  0  0  0
 30 28  1  0  0  0  0
 31 33  2  0  0  0  0
 31 29  1  0  0  0  0
 32 28  2  0  0  0  0
 33 32  1  0  0  0  0
 34 36  1  0  0  0  0
 36 38  1  0  0  0  0
 36 35  1  1  0  0  0
 38 39  1  0  0  0  0
 38 37  1  0  0  0  0
M  END
>  <MODEL>
6

>  <REMARK>
 VINA RESULT:      -6.4      2.219      3.024
  Name = 
  13 active torsions:
  status: ('A' for Active; 'I' for Inactive)
    1  A    between atoms: C_3  and  N_8
    2  A    between atoms: N_6  and  C_17
    3  A    between atoms: C_11  and  C_13
    4  A    between atoms: C_11  and  C_33
    5  A    between atoms: C_13  and  C_21
    6  A    between atoms: C_16  and  C_30
    7  A    between atoms: N_18  and  C_21
    8  A    between atoms: N_18  and  C_31
    9  A    between atoms: C_20  and  C_36
   10  A    between atoms: N_24  and  N_28
   11  A    between atoms: N_28  and  C_31
   12  A    between atoms: C_33  and  N_34
   13  A    between atoms: N_34  and  C_36
                            x       y       z     vdW  Elec       q    Type
                         _______ _______ _______ _____ _____    ______ ____

>  <TORSDO>
F 13

$$$$
=
 OpenBabel11042417323D

 39 42  0  0  1  0  0  0  0  0999 V2000
  190.5220  173.6400  144.9000 C   0  0  0  0  0  3  0  0  0  0  0  0
  190.6530  174.9170  145.2810 C   0  0  0  0  0  0  0  0  0  0  0  0
  192.4210  171.2590  142.7410 C   0  0  0  0  0  2  0  0  0  0  0  0
  191.3120  172.9970  143.8900 N   0  0  0  0  0  0  0  0  0  0  0  0
  192.0180  172.3270  141.7320 C   0  0  2  0  0  3  0  0  0  0  0  0
  191.5300  173.5060  142.5480 C   0  0  0  0  0  2  0  0  0  0  0  0
  191.7330  171.6220  144.0440 C   0  0  0  0  0  2  0  0  0  0  0  0
  190.9200  171.8290  140.9200 N   0  0  0  0  0  2  0  0  0  0  0  0
  191.6550  172.8120  137.4390 C   0  0  1  0  0  3  0  0  0  0  0  0
  190.8390  171.2990  136.8410 S   0  0  0  0  0  0  0  0  0  0  0  0
  190.8450  174.0330  137.0450 C   0  0  0  0  0  1  0  0  0  0  0  0
  191.7530  172.7210  138.8850 N   0  0  0  0  0  0  0  0  0  0  0  0
  190.8600  172.0230  139.5070 C   0  0  0  0  0  0  0  0  0  0  0  0
  189.5580  171.2780  138.5460 S   0  0  0  0  0  0  0  0  0  0  0  0
  189.6890  175.4540  146.2680 C   0  0  0  0  0  0  0  0  0  0  0  0
  190.0160  175.6830  147.5030 N   0  0  0  0  0  0  0  0  0  0  0  0
  191.2980  175.4170  148.0040 N   0  0  0  0  0  1  0  0  0  0  0  0
  188.2780  175.6950  145.8470 C   0  0  0  0  0  2  0  0  0  0  0  0
  187.8990  177.1450  146.1120 C   0  0  0  0  0  2  0  0  0  0  0  0
  186.9720  177.2210  147.2310 N   0  0  0  0  0  2  0  0  0  0  0  0
  184.8740  176.4130  146.5500 O   0  0  0  0  0  1  0  0  0  0  0  0
  185.6620  177.5620  146.6880 C   0  0  2  0  0  3  0  0  0  0  0  0
  185.8010  178.2470  145.4070 N   0  0  0  0  0  2  0  0  0  0  0  0
  184.5250  178.3740  144.8230 N   0  0  0  0  0  0  0  0  0  0  0  0
  184.5500  178.1180  143.3840 C   0  0  1  0  0  3  0  0  0  0  0  0
  184.6320  179.3850  143.8810 O   0  0  0  0  0  0  0  0  0  0  0  0
  187.8460  174.1660  142.1670 S   0  0  0  0  0  1  0  0  0  0  0  0
  186.8150  178.6230  142.4180 C   0  0  0  0  0  3  0  0  0  0  0  0
  186.2010  176.3050  142.7590 C   0  0  0  0  0  3  0  0  0  0  0  0
  185.8760  177.6670  142.8250 C   0  0  0  0  0  0  0  0  0  0  0  0
  187.4440  175.9020  142.2630 C   0  0  0  0  0  0  0  0  0  0  0  0
  188.0590  178.2200  141.9230 C   0  0  0  0  0  3  0  0  0  0  0  0
  188.3720  176.8600  141.8440 C   0  0  0  0  0  3  0  0  0  0  0  0
  191.6710  175.7520  144.7110 N   0  0  0  0  0  2  0  0  0  0  0  0
  192.5030  176.7420  142.7800 F   0  0  0  0  0  0  0  0  0  0  0  0
  191.4330  176.7290  143.6580 C   0  0  2  0  0  3  0  0  0  0  0  0
  191.7440  179.0850  143.4250 F   0  0  0  0  0  0  0  0  0  0  0  0
  191.2460  178.1060  144.2700 C   0  0  0  0  0  3  0  0  0  0  0  0
  189.9040  178.3380  144.5090 F   0  0  0  0  0  0  0  0  0  0  0  0
  1  2  2  0  0  0  0
  2 15  1  0  0  0  0
  3  7  1  0  0  0  0
  4  7  1  0  0  0  0
  4  1  1  0  0  0  0
  5  8  1  6  0  0  0
  5  6  1  0  0  0  0
  5  3  1  0  0  0  0
  6  4  1  0  0  0  0
  9 11  1  1  0  0  0
  9 12  1  0  0  0  0
 10  9  1  0  0  0  0
 10 14  1  0  0  0  0
 12 13  2  0  0  0  0
 13  8  1  0  0  0  0
 14 13  1  0  0  0  0
 15 16  2  0  0  0  0
 16 17  1  0  0  0  0
 18 19  1  0  0  0  0
 18 15  1  0  0  0  0
 19 20  1  0  0  0  0
 22 21  1  6  0  0  0
 22 20  1  0  0  0  0
 23 22  1  0  0  0  0
 24 23  1  0  0  0  0
 25 30  1  1  0  0  0
 25 26  1  0  0  0  0
 25 24  1  0  0  0  0
 26 24  1  0  0  0  0
 27 31  1  0  0  0  0
 28 30  1  0  0  0  0
 29 30  2  0  0  0  0
 31 29  1  0  0  0  0
 32 28  2  0  0  0  0
 33 32  1  0  0  0  0
 33 31  2  0  0  0  0
 34  2  1  0  0  0  0
 36 35  1  6  0  0  0
 36 38  1  0  0  0  0
 36 34  1  0  0  0  0
 37 38  1  0  0  0  0
 38 39  1  0  0  0  0
M  END
>  <MODEL>
7

>  <REMARK>
 VINA RESULT:      -6.4      3.263      4.439
  Name = 
  13 active torsions:
  status: ('A' for Active; 'I' for Inactive)
    1  A    between atoms: C_3  and  N_8
    2  A    between atoms: N_6  and  C_17
    3  A    between atoms: C_11  and  C_13
    4  A    between atoms: C_11  and  C_33
    5  A    between atoms: C_13  and  C_21
    6  A    between atoms: C_16  and  C_30
    7  A    between atoms: N_18  and  C_21
    8  A    between atoms: N_18  and  C_31
    9  A    between atoms: C_20  and  C_36
   10  A    between atoms: N_24  and  N_28
   11  A    between atoms: N_28  and  C_31
   12  A    between atoms: C_33  and  N_34
   13  A    between atoms: N_34  and  C_36
                            x       y       z     vdW  Elec       q    Type
                         _______ _______ _______ _____ _____    ______ ____

>  <TORSDO>
F 13

$$$$
=
 OpenBabel11042417323D

 39 42  0  0  1  0  0  0  0  0999 V2000
  192.7980  174.4350  142.0090 C   0  0  0  0  0  3  0  0  0  0  0  0
  192.6420  174.7220  143.3070 C   0  0  0  0  0  0  0  0  0  0  0  0
  196.0560  173.6440  140.3670 C   0  0  0  0  0  2  0  0  0  0  0  0
  194.0480  174.4550  141.3050 N   0  0  0  0  0  0  0  0  0  0  0  0
  195.5900  174.8430  139.5510 C   0  0  2  0  0  3  0  0  0  0  0  0
  194.4450  175.4550  140.3310 C   0  0  0  0  0  2  0  0  0  0  0  0
  194.9170  173.2980  141.3080 C   0  0  0  0  0  2  0  0  0  0  0  0
  195.0920  174.3820  138.2650 N   0  0  0  0  0  2  0  0  0  0  0  0
  197.1700  176.0140  135.6880 C   0  0  1  0  0  3  0  0  0  0  0  0
  196.9930  174.5510  134.6200 S   0  0  0  0  0  0  0  0  0  0  0  0
  196.4390  177.1970  135.0800 C   0  0  0  0  0  1  0  0  0  0  0  0
  196.6050  175.6880  136.9860 N   0  0  0  0  0  0  0  0  0  0  0  0
  195.6590  174.8080  137.0260 C   0  0  0  0  0  0  0  0  0  0  0  0
  195.0940  174.1100  135.4870 S   0  0  0  0  0  0  0  0  0  0  0  0
  191.2670  174.7530  143.8550 C   0  0  0  0  0  0  0  0  0  0  0  0
  190.7350  173.7280  144.4480 N   0  0  0  0  0  0  0  0  0  0  0  0
  191.4080  172.5070  144.5910 N   0  0  0  0  0  1  0  0  0  0  0  0
  190.4430  175.9850  143.6810 C   0  0  0  0  0  2  0  0  0  0  0  0
  189.3140  176.0010  144.7000 C   0  0  0  0  0  2  0  0  0  0  0  0
  189.5070  177.0980  145.6380 N   0  0  0  0  0  2  0  0  0  0  0  0
  188.3560  175.4380  146.8370 O   0  0  0  0  0  1  0  0  0  0  0  0
  188.7380  176.7840  146.8370 C   0  0  2  0  0  3  0  0  0  0  0  0
  187.5680  177.6510  146.9360 N   0  0  0  0  0  2  0  0  0  0  0  0
  186.4850  176.8930  147.4230 N   0  0  0  0  0  0  0  0  0  0  0  0
  185.3090  176.9940  146.5620 C   0  0  1  0  0  3  0  0  0  0  0  0
  185.4580  177.7950  147.6560 O   0  0  0  0  0  0  0  0  0  0  0  0
  186.6800  177.0710  141.4540 S   0  0  0  0  0  1  0  0  0  0  0  0
  185.2910  179.1620  145.2880 C   0  0  0  0  0  3  0  0  0  0  0  0
  185.9380  177.1430  144.1150 C   0  0  0  0  0  3  0  0  0  0  0  0
  185.5000  177.7770  145.2870 C   0  0  0  0  0  0  0  0  0  0  0  0
  186.1380  177.8860  142.9470 C   0  0  0  0  0  0  0  0  0  0  0  0
  185.4910  179.9040  144.1200 C   0  0  0  0  0  3  0  0  0  0  0  0
  185.9120  179.2650  142.9490 C   0  0  0  0  0  3  0  0  0  0  0  0
  193.7740  175.0400  144.1290 N   0  0  0  0  0  2  0  0  0  0  0  0
  195.2760  176.7930  144.3930 F   0  0  0  0  0  0  0  0  0  0  0  0
  194.0110  176.3450  144.7280 C   0  0  2  0  0  3  0  0  0  0  0  0
  194.4200  177.3670  146.8480 F   0  0  0  0  0  0  0  0  0  0  0  0
  193.8770  176.2470  146.2380 C   0  0  0  0  0  3  0  0  0  0  0  0
  192.5440  176.1280  146.5880 F   0  0  0  0  0  0  0  0  0  0  0  0
  1  2  2  0  0  0  0
  2 15  1  0  0  0  0
  2 34  1  0  0  0  0
  3  7  1  0  0  0  0
  4  7  1  0  0  0  0
  4  1  1  0  0  0  0
  5  8  1  6  0  0  0
  5  6  1  0  0  0  0
  5  3  1  0  0  0  0
  6  4  1  0  0  0  0
  9 11  1  6  0  0  0
  9 12  1  0  0  0  0
 10 14  1  0  0  0  0
 10  9  1  0  0  0  0
 12 13  2  0  0  0  0
 13  8  1  0  0  0  0
 14 13  1  0  0  0  0
 15 16  2  0  0  0  0
 16 17  1  0  0  0  0
 18 15  1  0  0  0  0
 18 19  1  0  0  0  0
 19 20  1  0  0  0  0
 20 22  1  0  0  0  0
 22 21  1  6  0  0  0
 22 23  1  0  0  0  0
 23 24  1  0  0  0  0
 24 26  1  0  0  0  0
 25 30  1  6  0  0  0
 25 24  1  0  0  0  0
 25 26  1  0  0  0  0
 27 31  1  0  0  0  0
 29 30  2  0  0  0  0
 30 28  1  0  0  0  0
 31 33  2  0  0  0  0
 31 29  1  0  0  0  0
 32 28  2  0  0  0  0
 33 32  1  0  0  0  0
 34 36  1  0  0  0  0
 36 35  1  1  0  0  0
 36 38  1  0  0  0  0
 38 39  1  0  0  0  0
 38 37  1  0  0  0  0
M  END
>  <MODEL>
8

>  <REMARK>
 VINA RESULT:      -6.4      4.186      5.488
  Name = 
  13 active torsions:
  status: ('A' for Active; 'I' for Inactive)
    1  A    between atoms: C_3  and  N_8
    2  A    between atoms: N_6  and  C_17
    3  A    between atoms: C_11  and  C_13
    4  A    between atoms: C_11  and  C_33
    5  A    between atoms: C_13  and  C_21
    6  A    between atoms: C_16  and  C_30
    7  A    between atoms: N_18  and  C_21
    8  A    between atoms: N_18  and  C_31
    9  A    between atoms: C_20  and  C_36
   10  A    between atoms: N_24  and  N_28
   11  A    between atoms: N_28  and  C_31
   12  A    between atoms: C_33  and  N_34
   13  A    between atoms: N_34  and  C_36
                            x       y       z     vdW  Elec       q    Type
                         _______ _______ _______ _____ _____    ______ ____

>  <TORSDO>
F 13

$$$$
=
 OpenBabel11042417323D

 39 42  0  0  1  0  0  0  0  0999 V2000
  192.6060  175.2350  141.7040 C   0  0  0  0  0  3  0  0  0  0  0  0
  192.2260  175.7740  142.8700 C   0  0  0  0  0  0  0  0  0  0  0  0
  195.9380  173.6620  141.1060 C   0  0  0  0  0  2  0  0  0  0  0  0
  193.9600  174.9270  141.3430 N   0  0  0  0  0  0  0  0  0  0  0  0
  195.8850  174.6930  139.9850 C   0  0  2  0  0  3  0  0  0  0  0  0
  194.7310  175.6140  140.3240 C   0  0  0  0  0  2  0  0  0  0  0  0
  194.5810  173.6970  141.7820 C   0  0  0  0  0  2  0  0  0  0  0  0
  195.5970  174.0200  138.7290 N   0  0  0  0  0  2  0  0  0  0  0  0
  197.6390  175.6930  136.1490 C   0  0  1  0  0  3  0  0  0  0  0  0
  197.8030  174.1150  135.2570 S   0  0  0  0  0  0  0  0  0  0  0  0
  196.7950  176.6630  135.3430 C   0  0  0  0  0  1  0  0  0  0  0  0
  197.0050  175.4170  137.4260 N   0  0  0  0  0  0  0  0  0  0  0  0
  196.2110  174.4000  137.4970 C   0  0  0  0  0  0  0  0  0  0  0  0
  195.9200  173.4560  136.0140 S   0  0  0  0  0  0  0  0  0  0  0  0
  190.7980  176.1240  143.0450 C   0  0  0  0  0  0  0  0  0  0  0  0
  190.4120  177.3280  143.3360 N   0  0  0  0  0  0  0  0  0  0  0  0
  191.3140  178.3830  143.5320 N   0  0  0  0  0  1  0  0  0  0  0  0
  189.7680  175.0510  142.9330 C   0  0  0  0  0  2  0  0  0  0  0  0
  188.3760  175.6650  142.9570 C   0  0  0  0  0  2  0  0  0  0  0  0
  187.8070  175.6570  141.6170 N   0  0  0  0  0  2  0  0  0  0  0  0
  188.1840  177.9460  141.2490 O   0  0  0  0  0  1  0  0  0  0  0  0
  187.1980  176.9640  141.3960 C   0  0  2  0  0  3  0  0  0  0  0  0
  186.2950  177.3000  142.4920 N   0  0  0  0  0  2  0  0  0  0  0  0
  185.8620  178.6310  142.3280 N   0  0  0  0  0  0  0  0  0  0  0  0
  185.5600  179.2740  143.6050 C   0  0  1  0  0  3  0  0  0  0  0  0
  184.5820  178.6880  142.8570 O   0  0  0  0  0  0  0  0  0  0  0  0
  189.1470  177.0380  146.7830 S   0  0  0  0  0  1  0  0  0  0  0  0
  184.8130  177.9340  145.5970 C   0  0  0  0  0  3  0  0  0  0  0  0
  187.1910  178.1700  145.1940 C   0  0  0  0  0  3  0  0  0  0  0  0
  185.8660  178.4570  144.8350 C   0  0  0  0  0  0  0  0  0  0  0  0
  187.4590  177.3880  146.3220 C   0  0  0  0  0  0  0  0  0  0  0  0
  185.0820  177.1520  146.7240 C   0  0  0  0  0  3  0  0  0  0  0  0
  186.4050  176.8820  147.0880 C   0  0  0  0  0  3  0  0  0  0  0  0
  193.1870  176.0490  143.8990 N   0  0  0  0  0  2  0  0  0  0  0  0
  192.4980  174.1560  145.0580 F   0  0  0  0  0  0  0  0  0  0  0  0
  193.3830  175.2200  145.0800 C   0  0  2  0  0  3  0  0  0  0  0  0
  192.4120  175.3480  147.2580 F   0  0  0  0  0  0  0  0  0  0  0  0
  193.1650  176.0520  146.3310 C   0  0  0  0  0  3  0  0  0  0  0  0
  194.3840  176.3940  146.8880 F   0  0  0  0  0  0  0  0  0  0  0  0
  1  2  2  0  0  0  0
  2 15  1  0  0  0  0
  2 34  1  0  0  0  0
  3  7  1  0  0  0  0
  4  1  1  0  0  0  0
  4  7  1  0  0  0  0
  5  8  1  6  0  0  0
  5  6  1  0  0  0  0
  5  3  1  0  0  0  0
  6  4  1  0  0  0  0
  9 11  1  6  0  0  0
  9 12  1  0  0  0  0
 10 14  1  0  0  0  0
 10  9  1  0  0  0  0
 12 13  2  0  0  0  0
 13  8  1  0  0  0  0
 14 13  1  0  0  0  0
 15 16  2  0  0  0  0
 16 17  1  0  0  0  0
 18 19  1  0  0  0  0
 18 15  1  0  0  0  0
 20 19  1  0  0  0  0
 22 21  1  1  0  0  0
 22 20  1  0  0  0  0
 22 23  1  0  0  0  0
 24 23  1  0  0  0  0
 24 26  1  0  0  0  0
 24 25  1  0  0  0  0
 25 30  1  1  0  0  0
 26 25  1  0  0  0  0
 28 32  1  0  0  0  0
 29 31  2  0  0  0  0
 30 29  1  0  0  0  0
 30 28  2  0  0  0  0
 31 27  1  0  0  0  0
 31 33  1  0  0  0  0
 32 33  2  0  0  0  0
 34 36  1  0  0  0  0
 36 35  1  6  0  0  0
 36 38  1  0  0  0  0
 38 39  1  0  0  0  0
 38 37  1  0  0  0  0
M  END
>  <MODEL>
9

>  <REMARK>
 VINA RESULT:      -6.4      4.345      5.663
  Name = 
  13 active torsions:
  status: ('A' for Active; 'I' for Inactive)
    1  A    between atoms: C_3  and  N_8
    2  A    between atoms: N_6  and  C_17
    3  A    between atoms: C_11  and  C_13
    4  A    between atoms: C_11  and  C_33
    5  A    between atoms: C_13  and  C_21
    6  A    between atoms: C_16  and  C_30
    7  A    between atoms: N_18  and  C_21
    8  A    between atoms: N_18  and  C_31
    9  A    between atoms: C_20  and  C_36
   10  A    between atoms: N_24  and  N_28
   11  A    between atoms: N_28  and  C_31
   12  A    between atoms: C_33  and  N_34
   13  A    between atoms: N_34  and  C_36
                            x       y       z     vdW  Elec       q    Type
                         _______ _______ _______ _____ _____    ______ ____

>  <TORSDO>
F 13

$$$$
