=
 OpenBabel11042418083D

 40 45  0  0  1  0  0  0  0  0999 V2000
  189.5280  173.1780  141.0690 C   0  0  1  0  0  3  0  0  0  0  0  0
  186.9200  177.0340  139.6910 O   0  0  0  0  0  0  0  0  0  0  0  0
  187.3330  176.9800  141.9850 N   0  0  0  0  0  2  0  0  0  0  0  0
  190.0680  172.4100  142.6290 S   0  0  0  0  0  0  0  0  0  0  0  0
  189.3700  173.7830  143.6070 C   0  0  2  0  0  3  0  0  0  0  0  0
  188.6870  174.6810  142.6950 N   0  0  0  0  0  0  0  0  0  0  0  0
  188.1380  175.2040  140.4380 N   0  0  0  0  0  2  0  0  0  0  0  0
  187.4430  176.4350  140.6680 C   0  0  0  0  0  0  0  0  0  0  0  0
  188.7640  174.3950  141.4400 C   0  0  0  0  0  0  0  0  0  0  0  0
  192.3480  175.2450  144.8500 C   0  0  0  0  0  0  0  0  0  0  0  0
  193.6480  175.6090  144.9520 N   0  0  0  0  0  0  0  0  0  0  0  0
  190.4580  174.5010  144.3500 C   0  0  0  0  0  0  0  0  0  0  0  0
  191.4800  175.5720  145.8340 C   0  0  0  0  0  0  0  0  0  0  0  0
  193.6190  176.4080  146.4330 S   0  0  0  0  0  0  0  0  0  0  0  0
  190.2530  175.1130  145.5620 N   0  0  0  0  0  0  0  0  0  0  0  0
  192.0030  176.2730  146.8970 C   0  0  0  0  0  0  0  0  0  0  0  0
  191.7430  174.5520  143.8800 N   0  0  0  0  0  2  0  0  0  0  0  0
  191.3340  176.7760  148.1240 C   0  0  0  0  0  1  0  0  0  0  0  0
  186.7610  178.2940  142.2530 C   0  0  0  0  0  2  0  0  0  0  0  0
  186.4320  178.4690  143.7390 C   0  0  1  0  0  3  0  0  0  0  0  0
  185.0730  177.8790  144.0750 C   0  0  1  0  0  3  0  0  0  0  0  0
  184.1250  178.9520  144.3560 C   0  0  0  0  0  2  0  0  0  0  0  0
  184.1010  178.2790  143.0500 N   0  0  0  0  0  2  0  0  0  0  0  0
  187.5050  177.8660  144.6330 C   0  0  0  0  0  2  0  0  0  0  0  0
  186.9480  176.7280  145.4670 C   0  0  0  0  0  2  0  0  0  0  0  0
  186.7420  178.2510  147.3960 C   0  0  0  0  0  2  0  0  0  0  0  0
  187.3000  176.9230  146.9280 C   0  0  0  0  0  3  0  0  0  0  0  0
  186.0200  176.9650  147.7420 C   0  0  0  0  0  2  0  0  0  0  0  0
  190.6910  173.5530  140.2840 N   0  0  0  0  0  2  0  0  0  0  0  0
  191.7290  172.5730  140.5630 C   0  0  0  0  0  2  0  0  0  0  0  0
  195.3660  174.5550  141.7040 C   0  0  0  0  0  0  0  0  0  0  0  0
  192.9830  173.2620  140.9640 C   0  0  0  0  0  0  0  0  0  0  0  0
  193.9450  172.5820  141.7190 C   0  0  0  0  0  3  0  0  0  0  0  0
  195.1300  173.2290  142.0860 C   0  0  0  0  0  3  0  0  0  0  0  0
  193.2130  174.5830  140.5670 C   0  0  0  0  0  3  0  0  0  0  0  0
  194.3980  175.2270  140.9370 C   0  0  0  0  0  3  0  0  0  0  0  0
  196.5710  175.1580  142.0970 O   0  0  0  0  0  0  0  0  0  0  0  0
  196.8020  175.8430  143.2980 C   0  0  0  0  0  0  0  0  0  0  0  0
  196.9150  177.0980  143.3340 O   0  0  0  0  0  0  0  0  0  0  0  0
  196.8900  175.1370  144.4520 F   0  0  0  0  0  0  0  0  0  0  0  0
  1 29  1  6  0  0  0
  1  9  1  0  0  0  0
  1  4  1  0  0  0  0
  2  8  2  0  0  0  0
  3 19  1  0  0  0  0
  4  5  1  0  0  0  0
  5 12  1  6  0  0  0
  6  5  1  0  0  0  0
  7  8  1  0  0  0  0
  7  9  1  0  0  0  0
  8  3  1  0  0  0  0
  9  6  2  0  0  0  0
 10 11  2  0  0  0  0
 10 13  1  0  0  0  0
 11 14  1  0  0  0  0
 12 15  2  0  0  0  0
 13 16  2  0  0  0  0
 14 16  1  0  0  0  0
 15 13  1  0  0  0  0
 16 18  1  0  0  0  0
 17 12  1  0  0  0  0
 17 10  1  0  0  0  0
 20 19  1  6  0  0  0
 20 24  1  0  0  0  0
 21 20  1  6  0  0  0
 21 22  1  0  0  0  0
 23 21  1  0  0  0  0
 23 22  1  0  0  0  0
 24 25  1  0  0  0  0
 25 27  1  0  0  0  0
 26 28  1  0  0  0  0
 27 26  1  0  0  0  0
 27 28  1  0  0  0  0
 29 30  1  0  0  0  0
 30 32  1  0  0  0  0
 31 34  1  0  0  0  0
 31 37  1  0  0  0  0
 32 33  1  0  0  0  0
 33 34  2  0  0  0  0
 35 36  1  0  0  0  0
 35 32  2  0  0  0  0
 36 31  2  0  0  0  0
 37 38  1  0  0  0  0
 38 39  2  0  0  0  0
 38 40  1  0  0  0  0
M  END
>  <MODEL>
1

>  <REMARK>
 VINA RESULT:      -6.9      0.000      0.000
  Name = 
  12 active torsions:
  status: ('A' for Active; 'I' for Inactive)
    1  A    between atoms: C_1  and  O_27
    2  A    between atoms: C_2  and  N_30
    3  A    between atoms: C_3  and  C_18
    4  A    between atoms: C_5  and  C_25
    5  A    between atoms: N_6  and  C_20
    6  A    between atoms: C_8  and  C_21
    7  A    between atoms: C_8  and  C_33
    8  A    between atoms: C_10  and  O_27
    9  A    between atoms: C_11  and  C_22
   10  A    between atoms: C_18  and  C_20
   11  A    between atoms: C_18  and  C_33
   12  A    between atoms: C_25  and  N_30
                            x       y       z     vdW  Elec       q    Type
                         _______ _______ _______ _____ _____    ______ ____

>  <TORSDO>
F 12

$$$$
=
 OpenBabel11042418083D

 40 45  0  0  1  0  0  0  0  0999 V2000
  190.2930  175.7660  147.0440 C   0  0  1  0  0  3  0  0  0  0  0  0
  194.7520  177.5360  146.3050 O   0  0  0  0  0  0  0  0  0  0  0  0
  194.2850  175.6570  145.0050 N   0  0  0  0  0  2  0  0  0  0  0  0
  189.3300  174.3020  146.5480 S   0  0  0  0  0  0  0  0  0  0  0  0
  190.6670  173.7310  145.4460 C   0  0  2  0  0  3  0  0  0  0  0  0
  191.7920  174.6330  145.6030 N   0  0  0  0  0  0  0  0  0  0  0  0
  192.6470  176.6090  146.6210 N   0  0  0  0  0  2  0  0  0  0  0  0
  193.9310  176.6360  145.9850 C   0  0  0  0  0  0  0  0  0  0  0  0
  191.6160  175.6430  146.3850 C   0  0  0  0  0  0  0  0  0  0  0  0
  189.9560  173.1110  142.0310 C   0  0  0  0  0  0  0  0  0  0  0  0
  189.9630  172.5290  140.8080 N   0  0  0  0  0  0  0  0  0  0  0  0
  190.1950  173.7080  144.0220 C   0  0  0  0  0  0  0  0  0  0  0  0
  189.2750  174.2640  142.2230 C   0  0  0  0  0  0  0  0  0  0  0  0
  189.0060  173.6190  139.9550 S   0  0  0  0  0  0  0  0  0  0  0  0
  189.4000  174.6890  143.4840 N   0  0  0  0  0  0  0  0  0  0  0  0
  188.6180  174.7710  141.1240 C   0  0  0  0  0  0  0  0  0  0  0  0
  190.5700  172.7180  143.1510 N   0  0  0  0  0  2  0  0  0  0  0  0
  187.7940  176.0000  140.9940 C   0  0  0  0  0  1  0  0  0  0  0  0
  195.5190  175.7230  144.2310 C   0  0  0  0  0  2  0  0  0  0  0  0
  196.2820  174.3950  144.2790 C   0  0  1  0  0  3  0  0  0  0  0  0
  197.4750  174.4110  143.3400 C   0  0  1  0  0  3  0  0  0  0  0  0
  197.2160  173.5390  142.2000 C   0  0  0  0  0  2  0  0  0  0  0  0
  197.0750  174.9940  142.0540 N   0  0  0  0  0  2  0  0  0  0  0  0
  196.7270  174.0470  145.6920 C   0  0  0  0  0  2  0  0  0  0  0  0
  196.6740  172.5500  145.9310 C   0  0  0  0  0  2  0  0  0  0  0  0
  195.6460  170.8440  144.4760 C   0  0  0  0  0  2  0  0  0  0  0  0
  195.3600  171.9820  145.4340 C   0  0  0  0  0  3  0  0  0  0  0  0
  195.2360  170.5440  145.9040 C   0  0  0  0  0  2  0  0  0  0  0  0
  189.6250  176.9680  146.5780 N   0  0  0  0  0  2  0  0  0  0  0  0
  188.2510  176.9050  147.0530 C   0  0  0  0  0  2  0  0  0  0  0  0
  185.5910  178.4700  144.0630 C   0  0  0  0  0  0  0  0  0  0  0  0
  187.3320  177.4550  146.0210 C   0  0  0  0  0  0  0  0  0  0  0  0
  187.8150  177.7620  144.7450 C   0  0  0  0  0  3  0  0  0  0  0  0
  186.9460  178.2680  143.7720 C   0  0  0  0  0  3  0  0  0  0  0  0
  185.9780  177.6420  146.3200 C   0  0  0  0  0  3  0  0  0  0  0  0
  185.1130  178.1490  145.3460 C   0  0  0  0  0  3  0  0  0  0  0  0
  184.7610  178.9790  143.0520 O   0  0  0  0  0  0  0  0  0  0  0  0
  184.1430  178.2370  142.0350 C   0  0  0  0  0  0  0  0  0  0  0  0
  182.8880  178.2000  141.9110 O   0  0  0  0  0  0  0  0  0  0  0  0
  184.9160  177.5540  141.1560 F   0  0  0  0  0  0  0  0  0  0  0  0
  1 29  1  6  0  0  0
  3  8  1  0  0  0  0
  4  1  1  0  0  0  0
  5 12  1  6  0  0  0
  5  6  1  0  0  0  0
  5  4  1  0  0  0  0
  6  9  2  0  0  0  0
  8  2  2  0  0  0  0
  8  7  1  0  0  0  0
  9  7  1  0  0  0  0
  9  1  1  0  0  0  0
 10 13  1  0  0  0  0
 10 17  1  0  0  0  0
 11 10  2  0  0  0  0
 13 15  1  0  0  0  0
 14 11  1  0  0  0  0
 14 16  1  0  0  0  0
 15 12  2  0  0  0  0
 16 13  2  0  0  0  0
 17 12  1  0  0  0  0
 18 16  1  0  0  0  0
 19  3  1  0  0  0  0
 20 19  1  1  0  0  0
 20 24  1  0  0  0  0
 21 20  1  1  0  0  0
 22 21  1  0  0  0  0
 23 22  1  0  0  0  0
 23 21  1  0  0  0  0
 24 25  1  0  0  0  0
 26 27  1  0  0  0  0
 26 28  1  0  0  0  0
 27 28  1  0  0  0  0
 27 25  1  0  0  0  0
 29 30  1  0  0  0  0
 31 36  1  0  0  0  0
 32 35  1  0  0  0  0
 32 30  1  0  0  0  0
 33 32  2  0  0  0  0
 34 31  2  0  0  0  0
 34 33  1  0  0  0  0
 36 35  2  0  0  0  0
 37 31  1  0  0  0  0
 38 37  1  0  0  0  0
 39 38  2  0  0  0  0
 40 38  1  0  0  0  0
M  END
>  <MODEL>
2

>  <REMARK>
 VINA RESULT:      -6.9      3.222      9.211
  Name = 
  12 active torsions:
  status: ('A' for Active; 'I' for Inactive)
    1  A    between atoms: C_1  and  O_27
    2  A    between atoms: C_2  and  N_30
    3  A    between atoms: C_3  and  C_18
    4  A    between atoms: C_5  and  C_25
    5  A    between atoms: N_6  and  C_20
    6  A    between atoms: C_8  and  C_21
    7  A    between atoms: C_8  and  C_33
    8  A    between atoms: C_10  and  O_27
    9  A    between atoms: C_11  and  C_22
   10  A    between atoms: C_18  and  C_20
   11  A    between atoms: C_18  and  C_33
   12  A    between atoms: C_25  and  N_30
                            x       y       z     vdW  Elec       q    Type
                         _______ _______ _______ _____ _____    ______ ____

>  <TORSDO>
F 12

$$$$
=
 OpenBabel11042418083D

 40 45  0  0  1  0  0  0  0  0999 V2000
  190.4420  175.5480  146.8490 C   0  0  1  0  0  3  0  0  0  0  0  0
  194.7610  177.6080  146.0290 O   0  0  0  0  0  0  0  0  0  0  0  0
  194.3370  175.7840  144.6390 N   0  0  0  0  0  2  0  0  0  0  0  0
  189.5380  174.0630  146.3060 S   0  0  0  0  0  0  0  0  0  0  0  0
  190.8520  173.6340  145.1150 C   0  0  2  0  0  3  0  0  0  0  0  0
  191.9330  174.5880  145.2790 N   0  0  0  0  0  0  0  0  0  0  0  0
  192.7260  176.5460  146.3770 N   0  0  0  0  0  2  0  0  0  0  0  0
  193.9760  176.6830  145.6900 C   0  0  0  0  0  0  0  0  0  0  0  0
  191.7390  175.5390  146.1270 C   0  0  0  0  0  0  0  0  0  0  0  0
  190.0050  173.1620  141.7080 C   0  0  0  0  0  0  0  0  0  0  0  0
  189.9730  172.6420  140.4580 N   0  0  0  0  0  0  0  0  0  0  0  0
  190.3170  173.6670  143.7140 C   0  0  0  0  0  0  0  0  0  0  0  0
  189.3020  174.2840  141.9870 C   0  0  0  0  0  0  0  0  0  0  0  0
  188.9490  173.7440  139.7030 S   0  0  0  0  0  0  0  0  0  0  0  0
  189.4730  174.6500  143.2620 N   0  0  0  0  0  0  0  0  0  0  0  0
  188.5840  174.8250  140.9450 C   0  0  0  0  0  0  0  0  0  0  0  0
  190.6790  172.7320  142.7790 N   0  0  0  0  0  2  0  0  0  0  0  0
  187.7220  176.0350  140.9130 C   0  0  0  0  0  1  0  0  0  0  0  0
  195.5290  175.9640  143.8180 C   0  0  0  0  0  2  0  0  0  0  0  0
  196.7070  175.1450  144.3540 C   0  0  1  0  0  3  0  0  0  0  0  0
  196.2380  173.8260  144.9430 C   0  0  1  0  0  3  0  0  0  0  0  0
  197.3580  172.8950  145.0220 C   0  0  0  0  0  2  0  0  0  0  0  0
  196.9080  173.6010  146.2290 N   0  0  0  0  0  2  0  0  0  0  0  0
  197.7620  174.9010  143.2850 C   0  0  0  0  0  2  0  0  0  0  0  0
  197.4750  175.7130  142.0370 C   0  0  0  0  0  2  0  0  0  0  0  0
  196.4560  175.2670  139.8360 C   0  0  0  0  0  2  0  0  0  0  0  0
  197.5330  174.8290  140.8070 C   0  0  0  0  0  3  0  0  0  0  0  0
  197.8940  175.6820  139.6050 C   0  0  0  0  0  2  0  0  0  0  0  0
  189.6900  176.7350  146.4850 N   0  0  0  0  0  2  0  0  0  0  0  0
  188.2910  176.4600  146.7750 C   0  0  0  0  0  2  0  0  0  0  0  0
  185.7880  178.3040  143.8090 C   0  0  0  0  0  0  0  0  0  0  0  0
  187.4250  177.1060  145.7530 C   0  0  0  0  0  0  0  0  0  0  0  0
  187.9980  177.7100  144.6290 C   0  0  0  0  0  3  0  0  0  0  0  0
  187.1800  178.3060  143.6630 C   0  0  0  0  0  3  0  0  0  0  0  0
  186.0340  177.0880  145.9040 C   0  0  0  0  0  3  0  0  0  0  0  0
  185.2200  177.6870  144.9370 C   0  0  0  0  0  3  0  0  0  0  0  0
  185.0120  178.9150  142.8110 O   0  0  0  0  0  0  0  0  0  0  0  0
  184.2490  178.2580  141.8360 C   0  0  0  0  0  0  0  0  0  0  0  0
  182.9970  178.1480  141.9370 O   0  0  0  0  0  0  0  0  0  0  0  0
  184.8740  177.7400  140.7500 F   0  0  0  0  0  0  0  0  0  0  0  0
  1 29  1  6  0  0  0
  3  8  1  0  0  0  0
  4  1  1  0  0  0  0
  5 12  1  6  0  0  0
  5  6  1  0  0  0  0
  5  4  1  0  0  0  0
  6  9  2  0  0  0  0
  8  2  2  0  0  0  0
  8  7  1  0  0  0  0
  9  7  1  0  0  0  0
  9  1  1  0  0  0  0
 10 13  1  0  0  0  0
 10 17  1  0  0  0  0
 11 10  2  0  0  0  0
 13 15  1  0  0  0  0
 14 11  1  0  0  0  0
 14 16  1  0  0  0  0
 15 12  2  0  0  0  0
 16 13  2  0  0  0  0
 17 12  1  0  0  0  0
 18 16  1  0  0  0  0
 19 20  1  0  0  0  0
 19  3  1  0  0  0  0
 20 24  1  6  0  0  0
 21 20  1  6  0  0  0
 21 22  1  0  0  0  0
 21 23  1  0  0  0  0
 22 23  1  0  0  0  0
 25 24  1  0  0  0  0
 26 27  1  0  0  0  0
 27 25  1  0  0  0  0
 28 26  1  0  0  0  0
 28 27  1  0  0  0  0
 29 30  1  0  0  0  0
 31 36  1  0  0  0  0
 32 35  1  0  0  0  0
 32 30  1  0  0  0  0
 33 32  2  0  0  0  0
 34 31  2  0  0  0  0
 34 33  1  0  0  0  0
 36 35  2  0  0  0  0
 37 31  1  0  0  0  0
 38 39  2  0  0  0  0
 38 37  1  0  0  0  0
 40 38  1  0  0  0  0
M  END
>  <MODEL>
3

>  <REMARK>
 VINA RESULT:      -6.9      3.219      9.370
  Name = 
  12 active torsions:
  status: ('A' for Active; 'I' for Inactive)
    1  A    between atoms: C_1  and  O_27
    2  A    between atoms: C_2  and  N_30
    3  A    between atoms: C_3  and  C_18
    4  A    between atoms: C_5  and  C_25
    5  A    between atoms: N_6  and  C_20
    6  A    between atoms: C_8  and  C_21
    7  A    between atoms: C_8  and  C_33
    8  A    between atoms: C_10  and  O_27
    9  A    between atoms: C_11  and  C_22
   10  A    between atoms: C_18  and  C_20
   11  A    between atoms: C_18  and  C_33
   12  A    between atoms: C_25  and  N_30
                            x       y       z     vdW  Elec       q    Type
                         _______ _______ _______ _____ _____    ______ ____

>  <TORSDO>
F 12

$$$$
=
 OpenBabel11042418083D

 40 45  0  0  1  0  0  0  0  0999 V2000
  190.0140  172.1150  141.3940 C   0  0  1  0  0  3  0  0  0  0  0  0
  187.2680  176.0790  141.9520 O   0  0  0  0  0  0  0  0  0  0  0  0
  188.4310  175.4910  143.8850 N   0  0  0  0  0  2  0  0  0  0  0  0
  191.0160  171.0160  142.4460 S   0  0  0  0  0  0  0  0  0  0  0  0
  190.7520  172.0840  143.9020 C   0  0  2  0  0  3  0  0  0  0  0  0
  189.8410  173.1460  143.5190 N   0  0  0  0  0  0  0  0  0  0  0  0
  188.5840  174.1740  141.7780 N   0  0  0  0  0  2  0  0  0  0  0  0
  188.0640  175.2840  142.5190 C   0  0  0  0  0  0  0  0  0  0  0  0
  189.4760  173.1740  142.2830 C   0  0  0  0  0  0  0  0  0  0  0  0
  194.0760  172.7670  144.9220 C   0  0  0  0  0  0  0  0  0  0  0  0
  195.3890  172.5920  145.2030 N   0  0  0  0  0  0  0  0  0  0  0  0
  192.0590  172.6460  144.3810 C   0  0  0  0  0  0  0  0  0  0  0  0
  193.4850  173.9560  145.1800 C   0  0  0  0  0  0  0  0  0  0  0  0
  195.7650  174.1120  145.8210 S   0  0  0  0  0  0  0  0  0  0  0  0
  192.1890  173.9280  144.8530 N   0  0  0  0  0  0  0  0  0  0  0  0
  194.2930  174.9290  145.7240 C   0  0  0  0  0  0  0  0  0  0  0  0
  193.2010  171.8910  144.4170 N   0  0  0  0  0  2  0  0  0  0  0  0
  193.9650  176.3220  146.1220 C   0  0  0  0  0  1  0  0  0  0  0  0
  188.0430  176.6770  144.6390 C   0  0  0  0  0  2  0  0  0  0  0  0
  188.4690  176.5730  146.1070 C   0  0  1  0  0  3  0  0  0  0  0  0
  189.9790  176.6320  146.2470 C   0  0  1  0  0  3  0  0  0  0  0  0
  190.3330  177.1330  147.5710 C   0  0  0  0  0  2  0  0  0  0  0  0
  190.4100  175.6940  147.2890 N   0  0  0  0  0  2  0  0  0  0  0  0
  187.8160  177.6460  146.9650 C   0  0  0  0  0  2  0  0  0  0  0  0
  186.3720  177.2970  147.2750 C   0  0  0  0  0  2  0  0  0  0  0  0
  185.4270  179.0750  145.8510 C   0  0  0  0  0  2  0  0  0  0  0  0
  185.5140  178.5460  147.2680 C   0  0  0  0  0  3  0  0  0  0  0  0
  184.2730  178.2850  146.4340 C   0  0  0  0  0  2  0  0  0  0  0  0
  190.8570  172.7150  140.3760 N   0  0  0  0  0  2  0  0  0  0  0  0
  192.0890  171.9410  140.3310 C   0  0  0  0  0  2  0  0  0  0  0  0
  195.3570  174.3090  141.8040 C   0  0  0  0  0  0  0  0  0  0  0  0
  193.2220  172.7620  140.8320 C   0  0  0  0  0  0  0  0  0  0  0  0
  193.0180  174.1030  141.1780 C   0  0  0  0  0  3  0  0  0  0  0  0
  194.0830  174.8700  141.6610 C   0  0  0  0  0  3  0  0  0  0  0  0
  194.4890  172.1880  140.9830 C   0  0  0  0  0  3  0  0  0  0  0  0
  195.5520  172.9590  141.4640 C   0  0  0  0  0  3  0  0  0  0  0  0
  196.3920  175.1220  142.2940 O   0  0  0  0  0  0  0  0  0  0  0  0
  196.3460  176.5130  142.4590 C   0  0  0  0  0  0  0  0  0  0  0  0
  196.4720  177.0500  143.5930 O   0  0  0  0  0  0  0  0  0  0  0  0
  196.1760  177.3000  141.3690 F   0  0  0  0  0  0  0  0  0  0  0  0
  1 29  1  6  0  0  0
  1  9  1  0  0  0  0
  1  4  1  0  0  0  0
  2  8  2  0  0  0  0
  3 19  1  0  0  0  0
  4  5  1  0  0  0  0
  5 12  1  6  0  0  0
  6  5  1  0  0  0  0
  7  9  1  0  0  0  0
  7  8  1  0  0  0  0
  8  3  1  0  0  0  0
  9  6  2  0  0  0  0
 10 13  1  0  0  0  0
 10 11  2  0  0  0  0
 11 14  1  0  0  0  0
 12 17  1  0  0  0  0
 12 15  2  0  0  0  0
 13 16  2  0  0  0  0
 15 13  1  0  0  0  0
 16 14  1  0  0  0  0
 16 18  1  0  0  0  0
 17 10  1  0  0  0  0
 20 19  1  6  0  0  0
 20 24  1  0  0  0  0
 21 20  1  1  0  0  0
 21 23  1  0  0  0  0
 21 22  1  0  0  0  0
 23 22  1  0  0  0  0
 24 25  1  0  0  0  0
 26 28  1  0  0  0  0
 26 27  1  0  0  0  0
 27 25  1  0  0  0  0
 28 27  1  0  0  0  0
 30 29  1  0  0  0  0
 30 32  1  0  0  0  0
 31 37  1  0  0  0  0
 32 35  2  0  0  0  0
 32 33  1  0  0  0  0
 33 34  2  0  0  0  0
 34 31  1  0  0  0  0
 35 36  1  0  0  0  0
 36 31  2  0  0  0  0
 37 38  1  0  0  0  0
 38 39  2  0  0  0  0
 40 38  1  0  0  0  0
M  END
>  <MODEL>
4

>  <REMARK>
 VINA RESULT:      -6.7      1.925      2.974
  Name = 
  12 active torsions:
  status: ('A' for Active; 'I' for Inactive)
    1  A    between atoms: C_1  and  O_27
    2  A    between atoms: C_2  and  N_30
    3  A    between atoms: C_3  and  C_18
    4  A    between atoms: C_5  and  C_25
    5  A    between atoms: N_6  and  C_20
    6  A    between atoms: C_8  and  C_21
    7  A    between atoms: C_8  and  C_33
    8  A    between atoms: C_10  and  O_27
    9  A    between atoms: C_11  and  C_22
   10  A    between atoms: C_18  and  C_20
   11  A    between atoms: C_18  and  C_33
   12  A    between atoms: C_25  and  N_30
                            x       y       z     vdW  Elec       q    Type
                         _______ _______ _______ _____ _____    ______ ____

>  <TORSDO>
F 12

$$$$
=
 OpenBabel11042418083D

 40 45  0  0  1  0  0  0  0  0999 V2000
  190.6080  175.8260  146.6530 C   0  0  1  0  0  3  0  0  0  0  0  0
  194.9490  177.8230  145.7950 O   0  0  0  0  0  0  0  0  0  0  0  0
  194.4980  175.9890  144.4270 N   0  0  0  0  0  2  0  0  0  0  0  0
  189.6830  174.3470  146.1300 S   0  0  0  0  0  0  0  0  0  0  0  0
  190.9880  173.8880  144.9400 C   0  0  2  0  0  3  0  0  0  0  0  0
  192.0820  174.8300  145.0890 N   0  0  0  0  0  0  0  0  0  0  0  0
  192.9020  176.7900  146.1620 N   0  0  0  0  0  2  0  0  0  0  0  0
  194.1510  176.9040  145.4700 C   0  0  0  0  0  0  0  0  0  0  0  0
  191.9020  175.7930  145.9270 C   0  0  0  0  0  0  0  0  0  0  0  0
  189.2590  174.4020  141.8910 C   0  0  0  0  0  0  0  0  0  0  0  0
  188.3660  174.8790  140.9910 N   0  0  0  0  0  0  0  0  0  0  0  0
  190.4490  173.9110  143.5400 C   0  0  0  0  0  0  0  0  0  0  0  0
  190.1370  173.4410  141.5220 C   0  0  0  0  0  0  0  0  0  0  0  0
  188.7870  173.9650  139.6410 S   0  0  0  0  0  0  0  0  0  0  0  0
  190.9210  173.0900  142.5470 N   0  0  0  0  0  0  0  0  0  0  0  0
  190.0530  173.0120  140.2160 C   0  0  0  0  0  0  0  0  0  0  0  0
  189.4130  174.7310  143.1770 N   0  0  0  0  0  2  0  0  0  0  0  0
  190.8540  171.9850  139.5020 C   0  0  0  0  0  1  0  0  0  0  0  0
  195.6890  176.1460  143.6000 C   0  0  0  0  0  2  0  0  0  0  0  0
  196.4680  174.8310  143.4870 C   0  0  1  0  0  3  0  0  0  0  0  0
  197.5070  174.9010  142.3820 C   0  0  1  0  0  3  0  0  0  0  0  0
  197.0490  174.1380  141.2260 C   0  0  0  0  0  2  0  0  0  0  0  0
  196.9400  175.6030  141.2230 N   0  0  0  0  0  2  0  0  0  0  0  0
  197.1230  174.4440  144.8040 C   0  0  0  0  0  2  0  0  0  0  0  0
  197.3440  172.9460  144.8870 C   0  0  0  0  0  2  0  0  0  0  0  0
  195.7490  171.0660  144.9440 C   0  0  0  0  0  2  0  0  0  0  0  0
  196.2370  172.2920  145.6890 C   0  0  0  0  0  3  0  0  0  0  0  0
  196.6920  170.9100  146.1190 C   0  0  0  0  0  2  0  0  0  0  0  0
  189.8690  177.0190  146.2780 N   0  0  0  0  0  2  0  0  0  0  0  0
  188.5180  176.8640  146.7940 C   0  0  0  0  0  2  0  0  0  0  0  0
  185.6650  177.8330  143.7310 C   0  0  0  0  0  0  0  0  0  0  0  0
  187.5290  177.2060  145.7380 C   0  0  0  0  0  0  0  0  0  0  0  0
  187.9490  177.8380  144.5630 C   0  0  0  0  0  3  0  0  0  0  0  0
  187.0180  178.1490  143.5660 C   0  0  0  0  0  3  0  0  0  0  0  0
  186.1800  176.8750  145.9090 C   0  0  0  0  0  3  0  0  0  0  0  0
  185.2530  177.1890  144.9110 C   0  0  0  0  0  3  0  0  0  0  0  0
  184.7710  178.1650  142.7000 O   0  0  0  0  0  0  0  0  0  0  0  0
  184.9950  178.0030  141.3250 C   0  0  0  0  0  0  0  0  0  0  0  0
  184.3330  178.6460  140.4660 O   0  0  0  0  0  0  0  0  0  0  0  0
  185.9580  177.1430  140.9120 F   0  0  0  0  0  0  0  0  0  0  0  0
  1 29  1  6  0  0  0
  3  8  1  0  0  0  0
  4  1  1  0  0  0  0
  5 12  1  6  0  0  0
  5  6  1  0  0  0  0
  5  4  1  0  0  0  0
  6  9  2  0  0  0  0
  8  2  2  0  0  0  0
  8  7  1  0  0  0  0
  9  7  1  0  0  0  0
  9  1  1  0  0  0  0
 10 17  1  0  0  0  0
 11 10  2  0  0  0  0
 13 10  1  0  0  0  0
 13 15  1  0  0  0  0
 14 16  1  0  0  0  0
 14 11  1  0  0  0  0
 15 12  2  0  0  0  0
 16 13  2  0  0  0  0
 17 12  1  0  0  0  0
 18 16  1  0  0  0  0
 19  3  1  0  0  0  0
 20 19  1  1  0  0  0
 20 24  1  0  0  0  0
 21 20  1  1  0  0  0
 22 21  1  0  0  0  0
 23 22  1  0  0  0  0
 23 21  1  0  0  0  0
 24 25  1  0  0  0  0
 25 27  1  0  0  0  0
 26 27  1  0  0  0  0
 26 28  1  0  0  0  0
 27 28  1  0  0  0  0
 29 30  1  0  0  0  0
 31 36  1  0  0  0  0
 32 35  1  0  0  0  0
 32 30  1  0  0  0  0
 33 32  2  0  0  0  0
 34 31  2  0  0  0  0
 34 33  1  0  0  0  0
 36 35  2  0  0  0  0
 37 31  1  0  0  0  0
 38 37  1  0  0  0  0
 39 38  2  0  0  0  0
 40 38  1  0  0  0  0
M  END
>  <MODEL>
5

>  <REMARK>
 VINA RESULT:      -6.7      2.977      9.145
  Name = 
  12 active torsions:
  status: ('A' for Active; 'I' for Inactive)
    1  A    between atoms: C_1  and  O_27
    2  A    between atoms: C_2  and  N_30
    3  A    between atoms: C_3  and  C_18
    4  A    between atoms: C_5  and  C_25
    5  A    between atoms: N_6  and  C_20
    6  A    between atoms: C_8  and  C_21
    7  A    between atoms: C_8  and  C_33
    8  A    between atoms: C_10  and  O_27
    9  A    between atoms: C_11  and  C_22
   10  A    between atoms: C_18  and  C_20
   11  A    between atoms: C_18  and  C_33
   12  A    between atoms: C_25  and  N_30
                            x       y       z     vdW  Elec       q    Type
                         _______ _______ _______ _____ _____    ______ ____

>  <TORSDO>
F 12

$$$$
=
 OpenBabel11042418083D

 40 45  0  0  1  0  0  0  0  0999 V2000
  191.9250  175.1340  146.4760 C   0  0  1  0  0  3  0  0  0  0  0  0
  192.5470  173.3000  142.0250 O   0  0  0  0  0  0  0  0  0  0  0  0
  190.3040  173.4900  142.6320 N   0  0  0  0  0  2  0  0  0  0  0  0
  190.5480  175.4030  147.6370 S   0  0  0  0  0  0  0  0  0  0  0  0
  189.3280  174.8430  146.4020 C   0  0  2  0  0  3  0  0  0  0  0  0
  190.0530  174.3960  145.2270 N   0  0  0  0  0  0  0  0  0  0  0  0
  192.1630  174.1420  144.1540 N   0  0  0  0  0  2  0  0  0  0  0  0
  191.7010  173.6310  142.8970 C   0  0  0  0  0  0  0  0  0  0  0  0
  191.3340  174.5400  145.2520 C   0  0  0  0  0  0  0  0  0  0  0  0
  187.4710  177.5130  144.9950 C   0  0  0  0  0  0  0  0  0  0  0  0
  187.0570  178.4630  144.1240 N   0  0  0  0  0  0  0  0  0  0  0  0
  188.3860  175.9590  146.0560 C   0  0  0  0  0  0  0  0  0  0  0  0
  186.8840  177.4120  146.2100 C   0  0  0  0  0  0  0  0  0  0  0  0
  185.8440  179.1930  145.0350 S   0  0  0  0  0  0  0  0  0  0  0  0
  187.4390  176.4310  146.9300 N   0  0  0  0  0  0  0  0  0  0  0  0
  185.8760  178.3120  146.4720 C   0  0  0  0  0  0  0  0  0  0  0  0
  188.4450  176.6090  144.8510 N   0  0  0  0  0  2  0  0  0  0  0  0
  185.0410  178.4730  147.6910 C   0  0  0  0  0  1  0  0  0  0  0  0
  189.7810  173.1090  141.3250 C   0  0  0  0  0  2  0  0  0  0  0  0
  189.2760  174.3290  140.5470 C   0  0  1  0  0  3  0  0  0  0  0  0
  188.1650  173.9470  139.5850 C   0  0  1  0  0  3  0  0  0  0  0  0
  188.7410  173.4550  138.3380 C   0  0  0  0  0  2  0  0  0  0  0  0
  188.2190  172.5030  139.3270 N   0  0  0  0  0  2  0  0  0  0  0  0
  188.8120  175.4420  141.4750 C   0  0  0  0  0  2  0  0  0  0  0  0
  187.3840  175.8510  141.1670 C   0  0  0  0  0  2  0  0  0  0  0  0
  186.3890  177.5310  139.6600 C   0  0  0  0  0  2  0  0  0  0  0  0
  187.3170  177.3290  140.8410 C   0  0  0  0  0  3  0  0  0  0  0  0
  185.8980  177.8190  141.0640 C   0  0  0  0  0  2  0  0  0  0  0  0
  192.5420  176.4070  146.1520 N   0  0  0  0  0  2  0  0  0  0  0  0
  193.8600  176.4130  146.7690 C   0  0  0  0  0  2  0  0  0  0  0  0
  196.8520  175.2820  143.9000 C   0  0  0  0  0  0  0  0  0  0  0  0
  194.8890  176.0170  145.7720 C   0  0  0  0  0  0  0  0  0  0  0  0
  195.2090  176.8770  144.7160 C   0  0  0  0  0  3  0  0  0  0  0  0
  196.1860  176.5090  143.7850 C   0  0  0  0  0  3  0  0  0  0  0  0
  195.5560  174.7950  145.9030 C   0  0  0  0  0  3  0  0  0  0  0  0
  196.5310  174.4280  144.9700 C   0  0  0  0  0  3  0  0  0  0  0  0
  197.8250  174.9590  142.9410 O   0  0  0  0  0  0  0  0  0  0  0  0
  197.5840  174.5450  141.6230 C   0  0  0  0  0  0  0  0  0  0  0  0
  197.7450  175.3230  140.6440 O   0  0  0  0  0  0  0  0  0  0  0  0
  197.1820  173.2710  141.3970 F   0  0  0  0  0  0  0  0  0  0  0  0
  1 29  1  6  0  0  0
  1  4  1  0  0  0  0
  2  8  2  0  0  0  0
  3  8  1  0  0  0  0
  5 12  1  6  0  0  0
  5  4  1  0  0  0  0
  6  9  2  0  0  0  0
  6  5  1  0  0  0  0
  7  9  1  0  0  0  0
  8  7  1  0  0  0  0
  9  1  1  0  0  0  0
 10 13  1  0  0  0  0
 11 10  2  0  0  0  0
 11 14  1  0  0  0  0
 12 15  2  0  0  0  0
 13 16  2  0  0  0  0
 13 15  1  0  0  0  0
 14 16  1  0  0  0  0
 16 18  1  0  0  0  0
 17 10  1  0  0  0  0
 17 12  1  0  0  0  0
 19  3  1  0  0  0  0
 20 19  1  1  0  0  0
 20 24  1  0  0  0  0
 21 20  1  1  0  0  0
 22 23  1  0  0  0  0
 22 21  1  0  0  0  0
 23 21  1  0  0  0  0
 25 24  1  0  0  0  0
 26 27  1  0  0  0  0
 26 28  1  0  0  0  0
 27 28  1  0  0  0  0
 27 25  1  0  0  0  0
 29 30  1  0  0  0  0
 31 36  1  0  0  0  0
 32 35  1  0  0  0  0
 32 30  1  0  0  0  0
 33 32  2  0  0  0  0
 34 31  2  0  0  0  0
 34 33  1  0  0  0  0
 36 35  2  0  0  0  0
 37 31  1  0  0  0  0
 38 37  1  0  0  0  0
 39 38  2  0  0  0  0
 40 38  1  0  0  0  0
M  END
>  <MODEL>
6

>  <REMARK>
 VINA RESULT:      -6.5      2.524      5.633
  Name = 
  12 active torsions:
  status: ('A' for Active; 'I' for Inactive)
    1  A    between atoms: C_1  and  O_27
    2  A    between atoms: C_2  and  N_30
    3  A    between atoms: C_3  and  C_18
    4  A    between atoms: C_5  and  C_25
    5  A    between atoms: N_6  and  C_20
    6  A    between atoms: C_8  and  C_21
    7  A    between atoms: C_8  and  C_33
    8  A    between atoms: C_10  and  O_27
    9  A    between atoms: C_11  and  C_22
   10  A    between atoms: C_18  and  C_20
   11  A    between atoms: C_18  and  C_33
   12  A    between atoms: C_25  and  N_30
                            x       y       z     vdW  Elec       q    Type
                         _______ _______ _______ _____ _____    ______ ____

>  <TORSDO>
F 12

$$$$
=
 OpenBabel11042418083D

 40 45  0  0  1  0  0  0  0  0999 V2000
  188.4600  175.3660  141.3190 C   0  0  1  0  0  3  0  0  0  0  0  0
  192.9760  174.5900  142.9240 O   0  0  0  0  0  0  0  0  0  0  0  0
  192.0290  176.5490  143.7640 N   0  0  0  0  0  2  0  0  0  0  0  0
  187.2160  176.6930  141.3990 S   0  0  0  0  0  0  0  0  0  0  0  0
  188.2640  177.6790  142.5220 C   0  0  2  0  0  3  0  0  0  0  0  0
  189.5280  176.9840  142.6810 N   0  0  0  0  0  0  0  0  0  0  0  0
  190.8250  175.0510  142.1810 N   0  0  0  0  0  2  0  0  0  0  0  0
  191.9850  175.3670  142.9600 C   0  0  0  0  0  0  0  0  0  0  0  0
  189.6320  175.8390  142.0970 C   0  0  0  0  0  0  0  0  0  0  0  0
  187.2440  177.8460  145.9100 C   0  0  0  0  0  0  0  0  0  0  0  0
  187.2680  177.7380  147.2600 N   0  0  0  0  0  0  0  0  0  0  0  0
  187.5830  177.8620  143.8460 C   0  0  0  0  0  0  0  0  0  0  0  0
  186.1190  178.2670  145.2890 C   0  0  0  0  0  0  0  0  0  0  0  0
  185.7030  178.2380  147.6260 S   0  0  0  0  0  0  0  0  0  0  0  0
  186.2850  178.2910  143.9630 N   0  0  0  0  0  0  0  0  0  0  0  0
  185.0510  178.5660  146.1050 C   0  0  0  0  0  0  0  0  0  0  0  0
  188.2090  177.5650  145.0280 N   0  0  0  0  0  2  0  0  0  0  0  0
  183.6900  179.0440  145.7510 C   0  0  0  0  0  1  0  0  0  0  0  0
  193.1250  176.8420  144.6800 C   0  0  0  0  0  2  0  0  0  0  0  0
  192.7890  176.4130  146.1110 C   0  0  1  0  0  3  0  0  0  0  0  0
  191.2930  176.2320  146.2950 C   0  0  1  0  0  3  0  0  0  0  0  0
  191.0370  175.3790  147.4500 C   0  0  0  0  0  2  0  0  0  0  0  0
  190.8820  176.8340  147.5690 N   0  0  0  0  0  2  0  0  0  0  0  0
  193.5270  175.1440  146.5110 C   0  0  0  0  0  2  0  0  0  0  0  0
  194.9970  175.2250  146.1430 C   0  0  0  0  0  2  0  0  0  0  0  0
  196.3790  174.3250  144.3100 C   0  0  0  0  0  2  0  0  0  0  0  0
  195.4360  173.9580  145.4380 C   0  0  0  0  0  3  0  0  0  0  0  0
  196.9330  173.7900  145.6140 C   0  0  0  0  0  2  0  0  0  0  0  0
  187.9250  174.1610  141.9290 N   0  0  0  0  0  2  0  0  0  0  0  0
  188.1930  173.0640  141.0120 C   0  0  0  0  0  2  0  0  0  0  0  0
  191.5790  170.7930  142.3720 C   0  0  0  0  0  0  0  0  0  0  0  0
  189.3690  172.2850  141.4840 C   0  0  0  0  0  0  0  0  0  0  0  0
  189.4700  171.9130  142.8280 C   0  0  0  0  0  3  0  0  0  0  0  0
  190.5710  171.1700  143.2680 C   0  0  0  0  0  3  0  0  0  0  0  0
  190.3640  171.9040  140.5770 C   0  0  0  0  0  3  0  0  0  0  0  0
  191.4650  171.1640  141.0200 C   0  0  0  0  0  3  0  0  0  0  0  0
  192.6630  170.0480  142.8620 O   0  0  0  0  0  0  0  0  0  0  0  0
  193.7050  170.5320  143.6660 C   0  0  0  0  0  0  0  0  0  0  0  0
  194.0620  169.9350  144.7180 O   0  0  0  0  0  0  0  0  0  0  0  0
  194.3530  171.6610  143.2930 F   0  0  0  0  0  0  0  0  0  0  0  0
  1  4  1  0  0  0  0
  1 29  1  1  0  0  0
  1  9  1  0  0  0  0
  2  8  2  0  0  0  0
  3 19  1  0  0  0  0
  4  5  1  0  0  0  0
  5  6  1  0  0  0  0
  5 12  1  1  0  0  0
  7  8  1  0  0  0  0
  8  3  1  0  0  0  0
  9  7  1  0  0  0  0
  9  6  2  0  0  0  0
 10 11  2  0  0  0  0
 11 14  1  0  0  0  0
 12 15  2  0  0  0  0
 12 17  1  0  0  0  0
 13 10  1  0  0  0  0
 13 16  2  0  0  0  0
 15 13  1  0  0  0  0
 16 14  1  0  0  0  0
 17 10  1  0  0  0  0
 18 16  1  0  0  0  0
 20 19  1  6  0  0  0
 20 24  1  0  0  0  0
 21 20  1  1  0  0  0
 21 22  1  0  0  0  0
 21 23  1  0  0  0  0
 22 23  1  0  0  0  0
 25 24  1  0  0  0  0
 26 27  1  0  0  0  0
 26 28  1  0  0  0  0
 27 28  1  0  0  0  0
 27 25  1  0  0  0  0
 30 32  1  0  0  0  0
 30 29  1  0  0  0  0
 31 37  1  0  0  0  0
 31 34  1  0  0  0  0
 32 33  1  0  0  0  0
 33 34  2  0  0  0  0
 35 36  1  0  0  0  0
 35 32  2  0  0  0  0
 36 31  2  0  0  0  0
 37 38  1  0  0  0  0
 38 39  2  0  0  0  0
 40 38  1  0  0  0  0
M  END
>  <MODEL>
7

>  <REMARK>
 VINA RESULT:      -6.5      3.030      6.331
  Name = 
  12 active torsions:
  status: ('A' for Active; 'I' for Inactive)
    1  A    between atoms: C_1  and  O_27
    2  A    between atoms: C_2  and  N_30
    3  A    between atoms: C_3  and  C_18
    4  A    between atoms: C_5  and  C_25
    5  A    between atoms: N_6  and  C_20
    6  A    between atoms: C_8  and  C_21
    7  A    between atoms: C_8  and  C_33
    8  A    between atoms: C_10  and  O_27
    9  A    between atoms: C_11  and  C_22
   10  A    between atoms: C_18  and  C_20
   11  A    between atoms: C_18  and  C_33
   12  A    between atoms: C_25  and  N_30
                            x       y       z     vdW  Elec       q    Type
                         _______ _______ _______ _____ _____    ______ ____

>  <TORSDO>
F 12

$$$$
=
 OpenBabel11042418083D

 40 45  0  0  1  0  0  0  0  0999 V2000
  190.2240  176.1030  146.9320 C   0  0  1  0  0  3  0  0  0  0  0  0
  194.5720  177.9170  145.7620 O   0  0  0  0  0  0  0  0  0  0  0  0
  194.1290  175.8680  144.7400 N   0  0  0  0  0  2  0  0  0  0  0  0
  189.3020  174.5540  146.6750 S   0  0  0  0  0  0  0  0  0  0  0  0
  190.6140  173.8910  145.5950 C   0  0  2  0  0  3  0  0  0  0  0  0
  191.7070  174.8440  145.5810 N   0  0  0  0  0  0  0  0  0  0  0  0
  192.5220  176.9650  146.2930 N   0  0  0  0  0  2  0  0  0  0  0  0
  193.7760  176.9540  145.6000 C   0  0  0  0  0  0  0  0  0  0  0  0
  191.5220  175.9410  146.2330 C   0  0  0  0  0  0  0  0  0  0  0  0
  189.6770  172.7360  142.3790 C   0  0  0  0  0  0  0  0  0  0  0  0
  189.5470  171.9350  141.2950 N   0  0  0  0  0  0  0  0  0  0  0  0
  190.0840  173.6640  144.2090 C   0  0  0  0  0  0  0  0  0  0  0  0
  189.1810  173.9950  142.3470 C   0  0  0  0  0  0  0  0  0  0  0  0
  188.7250  172.9710  140.2550 S   0  0  0  0  0  0  0  0  0  0  0  0
  189.4210  174.6320  143.4980 N   0  0  0  0  0  0  0  0  0  0  0  0
  188.5610  174.3730  141.1780 C   0  0  0  0  0  0  0  0  0  0  0  0
  190.2720  172.4790  143.5480 N   0  0  0  0  0  2  0  0  0  0  0  0
  187.9220  175.6650  140.8180 C   0  0  0  0  0  1  0  0  0  0  0  0
  195.3250  175.8750  143.9070 C   0  0  0  0  0  2  0  0  0  0  0  0
  196.1590  174.6060  144.1140 C   0  0  1  0  0  3  0  0  0  0  0  0
  195.7070  173.8460  145.3480 C   0  0  1  0  0  3  0  0  0  0  0  0
  196.2520  172.4930  145.3210 C   0  0  0  0  0  2  0  0  0  0  0  0
  196.8750  173.5150  146.1720 N   0  0  0  0  0  2  0  0  0  0  0  0
  196.1250  173.6990  142.8930 C   0  0  0  0  0  2  0  0  0  0  0  0
  195.4450  174.3820  141.7210 C   0  0  0  0  0  2  0  0  0  0  0  0
  193.4530  173.0410  142.2860 C   0  0  0  0  0  2  0  0  0  0  0  0
  194.3530  173.4970  141.1550 C   0  0  0  0  0  3  0  0  0  0  0  0
  193.0100  174.1690  141.3760 C   0  0  0  0  0  2  0  0  0  0  0  0
  189.4880  177.2090  146.3450 N   0  0  0  0  0  2  0  0  0  0  0  0
  188.1400  177.1620  146.8890 C   0  0  0  0  0  2  0  0  0  0  0  0
  185.2930  177.9120  143.7600 C   0  0  0  0  0  0  0  0  0  0  0  0
  187.1490  177.4170  145.8110 C   0  0  0  0  0  0  0  0  0  0  0  0
  186.4410  178.6240  145.7800 C   0  0  0  0  0  3  0  0  0  0  0  0
  185.5180  178.8670  144.7580 C   0  0  0  0  0  3  0  0  0  0  0  0
  186.9410  176.4600  144.8120 C   0  0  0  0  0  3  0  0  0  0  0  0
  186.0150  176.7060  143.7920 C   0  0  0  0  0  3  0  0  0  0  0  0
  184.3560  178.2050  142.7560 O   0  0  0  0  0  0  0  0  0  0  0  0
  184.6160  178.2950  141.3810 C   0  0  0  0  0  0  0  0  0  0  0  0
  183.6850  178.3010  140.5300 O   0  0  0  0  0  0  0  0  0  0  0  0
  185.9000  178.3940  140.9590 F   0  0  0  0  0  0  0  0  0  0  0  0
  1 29  1  6  0  0  0
  3  8  1  0  0  0  0
  4  1  1  0  0  0  0
  5 12  1  6  0  0  0
  5  4  1  0  0  0  0
  6  5  1  0  0  0  0
  6  9  2  0  0  0  0
  8  2  2  0  0  0  0
  8  7  1  0  0  0  0
  9  7  1  0  0  0  0
  9  1  1  0  0  0  0
 10 17  1  0  0  0  0
 11 10  2  0  0  0  0
 13 10  1  0  0  0  0
 13 15  1  0  0  0  0
 14 16  1  0  0  0  0
 14 11  1  0  0  0  0
 15 12  2  0  0  0  0
 16 13  2  0  0  0  0
 17 12  1  0  0  0  0
 18 16  1  0  0  0  0
 19 20  1  0  0  0  0
 19  3  1  0  0  0  0
 20 24  1  6  0  0  0
 21 20  1  6  0  0  0
 21 23  1  0  0  0  0
 22 21  1  0  0  0  0
 22 23  1  0  0  0  0
 25 24  1  0  0  0  0
 27 28  1  0  0  0  0
 27 25  1  0  0  0  0
 27 26  1  0  0  0  0
 28 26  1  0  0  0  0
 29 30  1  0  0  0  0
 31 36  2  0  0  0  0
 31 34  1  0  0  0  0
 32 30  1  0  0  0  0
 33 32  1  0  0  0  0
 34 33  2  0  0  0  0
 35 32  2  0  0  0  0
 36 35  1  0  0  0  0
 37 31  1  0  0  0  0
 38 37  1  0  0  0  0
 39 38  2  0  0  0  0
 40 38  1  0  0  0  0
M  END
>  <MODEL>
8

>  <REMARK>
 VINA RESULT:      -6.5      2.937      8.954
  Name = 
  12 active torsions:
  status: ('A' for Active; 'I' for Inactive)
    1  A    between atoms: C_1  and  O_27
    2  A    between atoms: C_2  and  N_30
    3  A    between atoms: C_3  and  C_18
    4  A    between atoms: C_5  and  C_25
    5  A    between atoms: N_6  and  C_20
    6  A    between atoms: C_8  and  C_21
    7  A    between atoms: C_8  and  C_33
    8  A    between atoms: C_10  and  O_27
    9  A    between atoms: C_11  and  C_22
   10  A    between atoms: C_18  and  C_20
   11  A    between atoms: C_18  and  C_33
   12  A    between atoms: C_25  and  N_30
                            x       y       z     vdW  Elec       q    Type
                         _______ _______ _______ _____ _____    ______ ____

>  <TORSDO>
F 12

$$$$
=
 OpenBabel11042418083D

 40 45  0  0  1  0  0  0  0  0999 V2000
  189.3080  172.9160  140.7590 C   0  0  1  0  0  3  0  0  0  0  0  0
  187.2110  177.2920  140.6120 O   0  0  0  0  0  0  0  0  0  0  0  0
  188.0310  176.7400  142.7240 N   0  0  0  0  0  2  0  0  0  0  0  0
  189.9870  171.7940  142.0230 S   0  0  0  0  0  0  0  0  0  0  0  0
  189.7380  173.0370  143.3350 C   0  0  2  0  0  3  0  0  0  0  0  0
  189.0660  174.1810  142.7470 N   0  0  0  0  0  0  0  0  0  0  0  0
  188.2040  175.2000  140.7750 N   0  0  0  0  0  2  0  0  0  0  0  0
  187.7930  176.4490  141.3450 C   0  0  0  0  0  0  0  0  0  0  0  0
  188.8540  174.1340  141.4770 C   0  0  0  0  0  0  0  0  0  0  0  0
  192.6630  174.6280  144.5460 C   0  0  0  0  0  0  0  0  0  0  0  0
  193.5610  175.5960  144.8480 N   0  0  0  0  0  0  0  0  0  0  0  0
  191.0550  173.4390  143.9300 C   0  0  0  0  0  0  0  0  0  0  0  0
  192.9590  173.3330  144.8010 C   0  0  0  0  0  0  0  0  0  0  0  0
  194.8040  174.6590  145.4880 S   0  0  0  0  0  0  0  0  0  0  0  0
  191.9600  172.5300  144.4200 N   0  0  0  0  0  0  0  0  0  0  0  0
  194.1900  173.0920  145.3680 C   0  0  0  0  0  0  0  0  0  0  0  0
  191.4580  174.7480  143.9810 N   0  0  0  0  0  2  0  0  0  0  0  0
  194.8170  171.8050  145.7650 C   0  0  0  0  0  1  0  0  0  0  0  0
  187.7590  178.0450  143.3160 C   0  0  0  0  0  2  0  0  0  0  0  0
  186.9600  177.9140  144.6160 C   0  0  1  0  0  3  0  0  0  0  0  0
  185.5320  178.3990  144.4350 C   0  0  1  0  0  3  0  0  0  0  0  0
  185.5150  179.8530  144.3290 C   0  0  0  0  0  2  0  0  0  0  0  0
  185.3950  179.0310  143.1180 N   0  0  0  0  0  2  0  0  0  0  0  0
  186.9710  176.4890  145.1490 C   0  0  0  0  0  2  0  0  0  0  0  0
  187.8010  176.3830  146.4140 C   0  0  0  0  0  2  0  0  0  0  0  0
  190.0780  175.9280  147.2430 C   0  0  0  0  0  2  0  0  0  0  0  0
  189.0830  175.6220  146.1430 C   0  0  0  0  0  3  0  0  0  0  0  0
  189.3080  174.6240  147.2640 C   0  0  0  0  0  2  0  0  0  0  0  0
  190.3510  173.2690  139.8120 N   0  0  0  0  0  2  0  0  0  0  0  0
  191.4300  172.3090  139.9880 C   0  0  0  0  0  2  0  0  0  0  0  0
  195.1180  174.3600  140.7970 C   0  0  0  0  0  0  0  0  0  0  0  0
  192.7020  173.0240  140.2740 C   0  0  0  0  0  0  0  0  0  0  0  0
  193.5990  172.5100  141.2170 C   0  0  0  0  0  3  0  0  0  0  0  0
  194.8000  173.1770  141.4760 C   0  0  0  0  0  3  0  0  0  0  0  0
  193.0140  174.1990  139.5820 C   0  0  0  0  0  3  0  0  0  0  0  0
  194.2160  174.8650  139.8440 C   0  0  0  0  0  3  0  0  0  0  0  0
  196.3370  174.9910  141.0930 O   0  0  0  0  0  0  0  0  0  0  0  0
  196.6820  175.6000  142.3080 C   0  0  0  0  0  0  0  0  0  0  0  0
  196.3230  176.7770  142.5840 O   0  0  0  0  0  0  0  0  0  0  0  0
  197.4050  174.8980  143.2140 F   0  0  0  0  0  0  0  0  0  0  0  0
  1 29  1  6  0  0  0
  1  9  1  0  0  0  0
  1  4  1  0  0  0  0
  2  8  2  0  0  0  0
  3 19  1  0  0  0  0
  4  5  1  0  0  0  0
  5 12  1  6  0  0  0
  6  5  1  0  0  0  0
  7  8  1  0  0  0  0
  7  9  1  0  0  0  0
  8  3  1  0  0  0  0
  9  6  2  0  0  0  0
 10 13  1  0  0  0  0
 10 11  2  0  0  0  0
 11 14  1  0  0  0  0
 12 17  1  0  0  0  0
 12 15  2  0  0  0  0
 13 16  2  0  0  0  0
 15 13  1  0  0  0  0
 16 14  1  0  0  0  0
 16 18  1  0  0  0  0
 17 10  1  0  0  0  0
 20 19  1  6  0  0  0
 20 24  1  0  0  0  0
 21 20  1  6  0  0  0
 22 21  1  0  0  0  0
 23 22  1  0  0  0  0
 23 21  1  0  0  0  0
 24 25  1  0  0  0  0
 26 28  1  0  0  0  0
 27 25  1  0  0  0  0
 27 26  1  0  0  0  0
 27 28  1  0  0  0  0
 29 30  1  0  0  0  0
 30 32  1  0  0  0  0
 31 37  1  0  0  0  0
 31 34  1  0  0  0  0
 32 33  1  0  0  0  0
 33 34  2  0  0  0  0
 35 36  1  0  0  0  0
 35 32  2  0  0  0  0
 36 31  2  0  0  0  0
 37 38  1  0  0  0  0
 38 39  2  0  0  0  0
 38 40  1  0  0  0  0
M  END
>  <MODEL>
9

>  <REMARK>
 VINA RESULT:      -6.5      1.422      1.964
  Name = 
  12 active torsions:
  status: ('A' for Active; 'I' for Inactive)
    1  A    between atoms: C_1  and  O_27
    2  A    between atoms: C_2  and  N_30
    3  A    between atoms: C_3  and  C_18
    4  A    between atoms: C_5  and  C_25
    5  A    between atoms: N_6  and  C_20
    6  A    between atoms: C_8  and  C_21
    7  A    between atoms: C_8  and  C_33
    8  A    between atoms: C_10  and  O_27
    9  A    between atoms: C_11  and  C_22
   10  A    between atoms: C_18  and  C_20
   11  A    between atoms: C_18  and  C_33
   12  A    between atoms: C_25  and  N_30
                            x       y       z     vdW  Elec       q    Type
                         _______ _______ _______ _____ _____    ______ ____

>  <TORSDO>
F 12

$$$$
