=
 OpenBabel11042417273D

 29 35  0  0  1  0  0  0  0  0999 V2000
  189.7540  173.2310  144.1730 C   0  0  0  0  0  3  0  0  0  0  0  0
  186.8090  177.4710  142.6010 N   0  0  0  0  0  0  0  0  0  0  0  0
  185.5640  178.4910  144.4540 C   0  0  0  0  0  0  0  0  0  0  0  0
  184.4530  178.2980  146.3120 O   0  0  0  0  0  0  0  0  0  0  0  0
  186.8800  178.2850  143.8220 C   0  0  1  0  0  3  0  0  0  0  0  0
  188.9920  173.6160  141.0160 C   0  0  1  0  0  3  0  0  0  0  0  0
  183.7050  178.9780  145.4510 C   0  0  0  0  0  3  0  0  0  0  0  0
  189.5520  171.8560  143.7990 N   0  0  0  0  0  0  0  0  0  0  0  0
  187.7320  176.5810  142.3600 C   0  0  0  0  0  0  0  0  0  0  0  0
  189.9510  173.9270  143.0630 C   0  0  1  0  0  3  0  0  0  0  0  0
  188.8410  175.0260  141.4320 C   0  0  2  0  0  3  0  0  0  0  0  0
  189.6980  173.0250  141.9830 C   0  0  1  0  0  3  0  0  0  0  0  0
  188.6950  176.6110  144.5840 C   0  0  0  0  0  0  0  0  0  0  0  0
  187.5570  177.4920  144.9390 C   0  0  2  0  0  3  0  0  0  0  0  0
  186.7950  177.3440  146.0380 C   0  0  0  0  0  2  0  0  0  0  0  0
  184.3810  179.1540  144.2290 C   0  0  0  0  0  3  0  0  0  0  0  0
  189.4840  171.7380  142.5310 N   0  0  0  0  0  2  0  0  0  0  0  0
  189.4310  175.2230  142.6560 C   0  0  1  0  0  3  0  0  0  0  0  0
  185.5680  178.0330  145.6960 C   0  0  0  0  0  0  0  0  0  0  0  0
  188.7010  176.2040  143.2950 C   0  0  0  0  0  0  0  0  0  0  0  0
  187.7650  175.8210  141.2410 N   0  0  0  0  0  2  0  0  0  0  0  0
  189.3810  175.4040  146.6740 C   0  0  0  0  0  3  0  0  0  0  0  0
  189.7220  176.2060  145.5750 C   0  0  0  0  0  0  0  0  0  0  0  0
  192.0120  176.2980  146.3940 C   0  0  0  0  0  3  0  0  0  0  0  0
  191.6620  175.4870  147.4760 C   0  0  0  0  0  3  0  0  0  0  0  0
  191.0460  176.6590  145.4500 C   0  0  0  0  0  3  0  0  0  0  0  0
  190.3460  175.0420  147.6170 C   0  0  0  0  0  3  0  0  0  0  0  0
  188.2710  173.1710  138.7230 C   0  0  0  0  0  2  0  0  0  0  0  0
  188.1910  172.8960  140.0170 C   0  0  0  0  0  3  0  0  0  0  0  0
  3 19  2  0  0  0  0
  5  2  1  6  0  0  0
  5  3  1  0  0  0  0
  5 14  1  0  0  0  0
  6 29  1  1  0  0  0
  6 11  1  0  0  0  0
  6 12  1  0  0  0  0
  7  4  1  0  0  0  0
  8  1  2  0  0  0  0
  9  2  2  0  0  0  0
  9 20  1  0  0  0  0
 10  1  1  1  0  0  0
 11 21  1  1  0  0  0
 11 18  1  0  0  0  0
 12 17  1  1  0  0  0
 12 10  1  0  0  0  0
 13 14  1  0  0  0  0
 13 23  1  0  0  0  0
 14 15  1  6  0  0  0
 16  3  1  0  0  0  0
 16  7  2  0  0  0  0
 17  8  1  0  0  0  0
 18 10  1  0  0  0  0
 18 20  1  1  0  0  0
 19 15  1  0  0  0  0
 19  4  1  0  0  0  0
 20 13  2  0  0  0  0
 21  9  1  0  0  0  0
 22 27  1  0  0  0  0
 23 22  2  0  0  0  0
 24 25  1  0  0  0  0
 25 27  2  0  0  0  0
 26 23  1  0  0  0  0
 26 24  2  0  0  0  0
 28 29  2  0  0  0  0
M  END
>  <MODEL>
1

>  <REMARK>
 VINA RESULT:      -9.0      0.000      0.000
  Name = 
  2 active torsions:
  status: ('A' for Active; 'I' for Inactive)
    1  A    between atoms: C_7  and  C_27
    2  A    between atoms: C_11  and  C_18
                            x       y       z     vdW  Elec       q    Type
                         _______ _______ _______ _____ _____    ______ ____

>  <TORSDO>
F 2

$$$$
=
 OpenBabel11042417273D

 29 35  0  0  1  0  0  0  0  0999 V2000
  192.0030  175.4450  142.6440 C   0  0  0  0  0  3  0  0  0  0  0  0
  189.1670  176.2320  147.1670 N   0  0  0  0  0  0  0  0  0  0  0  0
  187.0650  177.4320  146.7620 C   0  0  0  0  0  0  0  0  0  0  0  0
  185.9330  178.9440  145.6860 O   0  0  0  0  0  0  0  0  0  0  0  0
  187.8060  176.1660  146.6170 C   0  0  1  0  0  3  0  0  0  0  0  0
  193.4780  175.2540  145.5560 C   0  0  1  0  0  3  0  0  0  0  0  0
  185.8020  179.1760  146.9870 C   0  0  0  0  0  3  0  0  0  0  0  0
  193.2770  176.0280  142.3130 N   0  0  0  0  0  0  0  0  0  0  0  0
  190.1520  175.6570  146.5320 C   0  0  0  0  0  0  0  0  0  0  0  0
  192.1520  174.7580  143.7660 C   0  0  1  0  0  3  0  0  0  0  0  0
  192.0990  174.9880  146.0120 C   0  0  2  0  0  3  0  0  0  0  0  0
  193.4700  175.0530  144.2360 C   0  0  1  0  0  3  0  0  0  0  0  0
  188.9410  175.2990  144.4640 C   0  0  0  0  0  0  0  0  0  0  0  0
  187.8630  176.0990  145.0910 C   0  0  2  0  0  3  0  0  0  0  0  0
  187.2030  177.1000  144.4800 C   0  0  0  0  0  2  0  0  0  0  0  0
  186.4990  178.2140  147.7410 C   0  0  0  0  0  3  0  0  0  0  0  0
  194.1200  175.8330  143.2510 N   0  0  0  0  0  2  0  0  0  0  0  0
  191.3000  174.6720  144.9410 C   0  0  1  0  0  3  0  0  0  0  0  0
  186.6810  177.8840  145.5790 C   0  0  0  0  0  0  0  0  0  0  0  0
  190.0340  175.1340  145.2410 C   0  0  0  0  0  0  0  0  0  0  0  0
  191.4240  175.6330  146.9900 N   0  0  0  0  0  2  0  0  0  0  0  0
  188.5640  175.5900  142.0000 C   0  0  0  0  0  3  0  0  0  0  0  0
  188.8210  174.7470  143.0920 C   0  0  0  0  0  0  0  0  0  0  0  0
  188.7840  172.8370  141.5840 C   0  0  0  0  0  3  0  0  0  0  0  0
  188.5420  173.6890  140.5030 C   0  0  0  0  0  3  0  0  0  0  0  0
  188.9180  173.3630  142.8720 C   0  0  0  0  0  3  0  0  0  0  0  0
  188.4300  175.0660  140.7120 C   0  0  0  0  0  3  0  0  0  0  0  0
  194.5320  177.3230  146.3210 C   0  0  0  0  0  2  0  0  0  0  0  0
  194.5220  175.9980  146.2740 C   0  0  0  0  0  3  0  0  0  0  0  0
  3 16  1  0  0  0  0
  4  7  1  0  0  0  0
  5  3  1  6  0  0  0
  5  2  1  0  0  0  0
  6 11  1  0  0  0  0
  6 29  1  6  0  0  0
  7 16  2  0  0  0  0
  8  1  2  0  0  0  0
  8 17  1  0  0  0  0
  9 21  1  0  0  0  0
  9  2  2  0  0  0  0
 10  1  1  6  0  0  0
 10 12  1  0  0  0  0
 10 18  1  0  0  0  0
 11 21  1  6  0  0  0
 12 17  1  6  0  0  0
 12  6  1  0  0  0  0
 13 14  1  0  0  0  0
 13 20  2  0  0  0  0
 14 15  1  6  0  0  0
 14  5  1  0  0  0  0
 15 19  1  0  0  0  0
 18 20  1  6  0  0  0
 18 11  1  0  0  0  0
 19  4  1  0  0  0  0
 19  3  2  0  0  0  0
 20  9  1  0  0  0  0
 22 23  1  0  0  0  0
 23 13  1  0  0  0  0
 24 26  1  0  0  0  0
 25 27  1  0  0  0  0
 25 24  2  0  0  0  0
 26 23  2  0  0  0  0
 27 22  2  0  0  0  0
 29 28  2  0  0  0  0
M  END
>  <MODEL>
2

>  <REMARK>
 VINA RESULT:      -8.2      2.584      5.172
  Name = 
  2 active torsions:
  status: ('A' for Active; 'I' for Inactive)
    1  A    between atoms: C_7  and  C_27
    2  A    between atoms: C_11  and  C_18
                            x       y       z     vdW  Elec       q    Type
                         _______ _______ _______ _____ _____    ______ ____

>  <TORSDO>
F 2

$$$$
=
 OpenBabel11042417273D

 29 35  0  0  1  0  0  0  0  0999 V2000
  192.1360  175.3840  144.8930 C   0  0  0  0  0  3  0  0  0  0  0  0
  186.9450  176.8330  144.6260 N   0  0  0  0  0  0  0  0  0  0  0  0
  186.1620  177.1080  142.3160 C   0  0  0  0  0  0  0  0  0  0  0  0
  186.5270  177.7140  140.2620 O   0  0  0  0  0  0  0  0  0  0  0  0
  186.5680  176.1640  143.3740 C   0  0  1  0  0  3  0  0  0  0  0  0
  190.6680  176.7050  147.5000 C   0  0  1  0  0  3  0  0  0  0  0  0
  185.4410  178.3440  140.6920 C   0  0  0  0  0  3  0  0  0  0  0  0
  193.2230  176.1680  145.4170 N   0  0  0  0  0  0  0  0  0  0  0  0
  187.9660  176.3980  145.3130 C   0  0  0  0  0  0  0  0  0  0  0  0
  191.2490  175.2240  145.8640 C   0  0  1  0  0  3  0  0  0  0  0  0
  189.4550  176.2140  146.8150 C   0  0  2  0  0  3  0  0  0  0  0  0
  191.6910  176.0530  146.9420 C   0  0  1  0  0  3  0  0  0  0  0  0
  188.8530  174.9740  143.5640 C   0  0  0  0  0  0  0  0  0  0  0  0
  187.8090  175.5760  142.7030 C   0  0  2  0  0  3  0  0  0  0  0  0
  188.0230  176.0410  141.4590 C   0  0  0  0  0  2  0  0  0  0  0  0
  185.1400  177.9770  142.0170 C   0  0  0  0  0  3  0  0  0  0  0  0
  192.9540  176.5870  146.5910 N   0  0  0  0  0  2  0  0  0  0  0  0
  189.7980  175.3090  145.8400 C   0  0  1  0  0  3  0  0  0  0  0  0
  186.9300  176.9680  141.2480 C   0  0  0  0  0  0  0  0  0  0  0  0
  188.8630  175.4390  144.8330 C   0  0  0  0  0  0  0  0  0  0  0  0
  188.3530  176.9280  146.4960 N   0  0  0  0  0  2  0  0  0  0  0  0
  190.7640  174.2970  142.0850 C   0  0  0  0  0  3  0  0  0  0  0  0
  189.8090  173.9590  143.0570 C   0  0  0  0  0  0  0  0  0  0  0  0
  190.6280  171.6670  143.0180 C   0  0  0  0  0  3  0  0  0  0  0  0
  191.5830  172.0200  142.0610 C   0  0  0  0  0  3  0  0  0  0  0  0
  189.7430  172.6310  143.5100 C   0  0  0  0  0  3  0  0  0  0  0  0
  191.6490  173.3340  141.5930 C   0  0  0  0  0  3  0  0  0  0  0  0
  191.4400  177.9590  149.4520 C   0  0  0  0  0  2  0  0  0  0  0  0
  190.8030  177.9370  148.2900 C   0  0  0  0  0  3  0  0  0  0  0  0
  1  8  2  0  0  0  0
  2  9  2  0  0  0  0
  4  7  1  0  0  0  0
  4 19  1  0  0  0  0
  5  3  1  6  0  0  0
  5  2  1  0  0  0  0
  6 29  1  6  0  0  0
  7 16  2  0  0  0  0
  8 17  1  0  0  0  0
  9 21  1  0  0  0  0
 10  1  1  6  0  0  0
 10 12  1  0  0  0  0
 11 21  1  6  0  0  0
 11  6  1  0  0  0  0
 12 17  1  6  0  0  0
 12  6  1  0  0  0  0
 13 20  2  0  0  0  0
 14 15  1  1  0  0  0
 14  5  1  0  0  0  0
 14 13  1  0  0  0  0
 16  3  1  0  0  0  0
 18 20  1  6  0  0  0
 18 10  1  0  0  0  0
 18 11  1  0  0  0  0
 19 15  1  0  0  0  0
 19  3  2  0  0  0  0
 20  9  1  0  0  0  0
 22 23  1  0  0  0  0
 23 26  2  0  0  0  0
 23 13  1  0  0  0  0
 24 26  1  0  0  0  0
 25 24  2  0  0  0  0
 27 25  1  0  0  0  0
 27 22  2  0  0  0  0
 29 28  2  0  0  0  0
M  END
>  <MODEL>
3

>  <REMARK>
 VINA RESULT:      -7.7      2.772      5.432
  Name = 
  2 active torsions:
  status: ('A' for Active; 'I' for Inactive)
    1  A    between atoms: C_7  and  C_27
    2  A    between atoms: C_11  and  C_18
                            x       y       z     vdW  Elec       q    Type
                         _______ _______ _______ _____ _____    ______ ____

>  <TORSDO>
F 2

$$$$
=
 OpenBabel11042417273D

 29 35  0  0  1  0  0  0  0  0999 V2000
  189.3800  173.9390  144.6110 C   0  0  0  0  0  3  0  0  0  0  0  0
  187.0400  176.6930  140.6030 N   0  0  0  0  0  0  0  0  0  0  0  0
  185.1010  177.9930  141.3610 C   0  0  0  0  0  0  0  0  0  0  0  0
  183.3590  178.2070  142.6430 O   0  0  0  0  0  0  0  0  0  0  0  0
  186.5700  177.8650  141.3530 C   0  0  1  0  0  3  0  0  0  0  0  0
  189.9100  173.0740  141.5020 C   0  0  1  0  0  3  0  0  0  0  0  0
  182.9730  178.3870  141.3850 C   0  0  0  0  0  3  0  0  0  0  0  0
  189.4300  172.5090  144.7590 N   0  0  0  0  0  0  0  0  0  0  0  0
  188.0360  175.9860  141.0610 C   0  0  0  0  0  0  0  0  0  0  0  0
  189.9570  174.2470  143.4590 C   0  0  1  0  0  3  0  0  0  0  0  0
  189.5180  174.4770  141.2560 C   0  0  2  0  0  3  0  0  0  0  0  0
  190.2100  173.0030  142.8010 C   0  0  1  0  0  3  0  0  0  0  0  0
  188.0350  176.9610  143.2790 C   0  0  0  0  0  0  0  0  0  0  0  0
  186.7970  177.6520  142.8490 C   0  0  2  0  0  3  0  0  0  0  0  0
  185.6720  177.7270  143.5840 C   0  0  0  0  0  2  0  0  0  0  0  0
  184.0650  178.2790  140.5040 C   0  0  0  0  0  3  0  0  0  0  0  0
  189.8770  171.9600  143.6980 N   0  0  0  0  0  2  0  0  0  0  0  0
  189.5610  175.1920  142.4270 C   0  0  1  0  0  3  0  0  0  0  0  0
  184.6410  177.9890  142.6020 C   0  0  0  0  0  0  0  0  0  0  0  0
  188.5770  176.1560  142.3390 C   0  0  0  0  0  0  0  0  0  0  0  0
  188.5580  174.9190  140.4130 N   0  0  0  0  0  2  0  0  0  0  0  0
  187.8450  176.8550  145.7790 C   0  0  0  0  0  3  0  0  0  0  0  0
  188.6090  177.1370  144.6360 C   0  0  0  0  0  0  0  0  0  0  0  0
  190.4500  177.8180  146.0750 C   0  0  0  0  0  3  0  0  0  0  0  0
  189.6830  177.5210  147.2040 C   0  0  0  0  0  3  0  0  0  0  0  0
  189.9140  177.6310  144.7980 C   0  0  0  0  0  3  0  0  0  0  0  0
  188.3800  177.0420  147.0560 C   0  0  0  0  0  3  0  0  0  0  0  0
  190.5800  171.1530  140.1450 C   0  0  0  0  0  2  0  0  0  0  0  0
  189.6180  171.9100  140.6550 C   0  0  0  0  0  3  0  0  0  0  0  0
  1  8  2  0  0  0  0
  2  9  2  0  0  0  0
  3 19  2  0  0  0  0
  5  2  1  6  0  0  0
  5  3  1  0  0  0  0
  5 14  1  0  0  0  0
  6 29  1  1  0  0  0
  6 12  1  0  0  0  0
  7  4  1  0  0  0  0
  9 20  1  0  0  0  0
 10  1  1  1  0  0  0
 11 21  1  1  0  0  0
 11  6  1  0  0  0  0
 11 18  1  0  0  0  0
 12 10  1  0  0  0  0
 12 17  1  1  0  0  0
 13 23  1  0  0  0  0
 14 13  1  0  0  0  0
 14 15  1  6  0  0  0
 16  3  1  0  0  0  0
 16  7  2  0  0  0  0
 17  8  1  0  0  0  0
 18 20  1  1  0  0  0
 18 10  1  0  0  0  0
 19  4  1  0  0  0  0
 19 15  1  0  0  0  0
 20 13  2  0  0  0  0
 21  9  1  0  0  0  0
 22 27  1  0  0  0  0
 23 26  1  0  0  0  0
 23 22  2  0  0  0  0
 24 25  1  0  0  0  0
 26 24  2  0  0  0  0
 27 25  2  0  0  0  0
 28 29  2  0  0  0  0
M  END
>  <MODEL>
4

>  <REMARK>
 VINA RESULT:      -7.7      1.830      2.291
  Name = 
  2 active torsions:
  status: ('A' for Active; 'I' for Inactive)
    1  A    between atoms: C_7  and  C_27
    2  A    between atoms: C_11  and  C_18
                            x       y       z     vdW  Elec       q    Type
                         _______ _______ _______ _____ _____    ______ ____

>  <TORSDO>
F 2

$$$$
=
 OpenBabel11042417273D

 29 35  0  0  1  0  0  0  0  0999 V2000
  192.5060  173.1860  144.5700 C   0  0  0  0  0  3  0  0  0  0  0  0
  187.9410  175.7140  143.1930 N   0  0  0  0  0  0  0  0  0  0  0  0
  186.8810  176.8450  145.0960 C   0  0  0  0  0  0  0  0  0  0  0  0
  186.3840  176.9140  147.2110 O   0  0  0  0  0  0  0  0  0  0  0  0
  187.9940  176.8450  144.1300 C   0  0  1  0  0  3  0  0  0  0  0  0
  190.9400  172.3580  141.8210 C   0  0  1  0  0  3  0  0  0  0  0  0
  185.2610  177.0550  146.5170 C   0  0  0  0  0  3  0  0  0  0  0  0
  192.7360  171.7660  144.5740 N   0  0  0  0  0  0  0  0  0  0  0  0
  189.0400  175.0970  142.8570 C   0  0  0  0  0  0  0  0  0  0  0  0
  192.1710  173.5380  143.3380 C   0  0  1  0  0  3  0  0  0  0  0  0
  190.3890  173.7210  141.9630 C   0  0  2  0  0  3  0  0  0  0  0  0
  192.0180  172.3180  142.6080 C   0  0  1  0  0  3  0  0  0  0  0  0
  190.4180  176.0760  144.5930 C   0  0  0  0  0  0  0  0  0  0  0  0
  189.1550  176.6570  145.1070 C   0  0  2  0  0  3  0  0  0  0  0  0
  188.7780  176.6380  146.3980 C   0  0  0  0  0  2  0  0  0  0  0  0
  185.5210  177.0390  145.1330 C   0  0  0  0  0  3  0  0  0  0  0  0
  192.4210  171.2530  143.4490 N   0  0  0  0  0  2  0  0  0  0  0  0
  191.1360  174.4420  142.8620 C   0  0  1  0  0  3  0  0  0  0  0  0
  187.3410  176.8070  146.3360 C   0  0  0  0  0  0  0  0  0  0  0  0
  190.2700  175.3180  143.4850 C   0  0  0  0  0  0  0  0  0  0  0  0
  189.0850  174.0770  141.9690 N   0  0  0  0  0  2  0  0  0  0  0  0
  191.9170  175.9390  146.6010 C   0  0  0  0  0  3  0  0  0  0  0  0
  191.7230  176.3050  145.2600 C   0  0  0  0  0  0  0  0  0  0  0  0
  193.9970  177.1720  145.2030 C   0  0  0  0  0  3  0  0  0  0  0  0
  194.1810  176.7890  146.5340 C   0  0  0  0  0  3  0  0  0  0  0  0
  192.7730  176.9340  144.5700 C   0  0  0  0  0  3  0  0  0  0  0  0
  193.1400  176.1750  147.2330 C   0  0  0  0  0  3  0  0  0  0  0  0
  190.8150  170.3480  140.4350 C   0  0  0  0  0  2  0  0  0  0  0  0
  190.2460  171.1700  141.3050 C   0  0  0  0  0  3  0  0  0  0  0  0
  1  8  2  0  0  0  0
  3 16  1  0  0  0  0
  3 19  2  0  0  0  0
  5  2  1  6  0  0  0
  5  3  1  0  0  0  0
  5 14  1  0  0  0  0
  6 29  1  1  0  0  0
  6 11  1  0  0  0  0
  6 12  1  0  0  0  0
  7  4  1  0  0  0  0
  9  2  2  0  0  0  0
  9 20  1  0  0  0  0
 10  1  1  1  0  0  0
 11 21  1  1  0  0  0
 11 18  1  0  0  0  0
 12 10  1  0  0  0  0
 12 17  1  1  0  0  0
 13 14  1  0  0  0  0
 13 23  1  0  0  0  0
 14 15  1  1  0  0  0
 16  7  2  0  0  0  0
 17  8  1  0  0  0  0
 18 10  1  0  0  0  0
 18 20  1  1  0  0  0
 19 15  1  0  0  0  0
 19  4  1  0  0  0  0
 20 13  2  0  0  0  0
 21  9  1  0  0  0  0
 22 27  1  0  0  0  0
 23 22  2  0  0  0  0
 24 25  1  0  0  0  0
 25 27  2  0  0  0  0
 26 24  2  0  0  0  0
 26 23  1  0  0  0  0
 28 29  2  0  0  0  0
M  END
>  <MODEL>
5

>  <REMARK>
 VINA RESULT:      -7.4      1.878      2.498
  Name = 
  2 active torsions:
  status: ('A' for Active; 'I' for Inactive)
    1  A    between atoms: C_7  and  C_27
    2  A    between atoms: C_11  and  C_18
                            x       y       z     vdW  Elec       q    Type
                         _______ _______ _______ _____ _____    ______ ____

>  <TORSDO>
F 2

$$$$
=
 OpenBabel11042417273D

 29 35  0  0  1  0  0  0  0  0999 V2000
  188.2870  175.8350  146.9360 C   0  0  0  0  0  3  0  0  0  0  0  0
  189.1580  177.9390  142.0430 N   0  0  0  0  0  0  0  0  0  0  0  0
  187.1660  177.8500  140.6130 C   0  0  0  0  0  0  0  0  0  0  0  0
  185.3640  176.8310  139.9500 O   0  0  0  0  0  0  0  0  0  0  0  0
  187.8220  178.4850  141.7700 C   0  0  1  0  0  3  0  0  0  0  0  0
  191.3410  176.1620  145.8140 C   0  0  1  0  0  3  0  0  0  0  0  0
  186.1050  177.1000  138.8810 C   0  0  0  0  0  3  0  0  0  0  0  0
  188.8780  174.6390  147.4770 N   0  0  0  0  0  0  0  0  0  0  0  0
  189.5390  177.7400  143.2750 C   0  0  0  0  0  0  0  0  0  0  0  0
  189.2700  176.6670  146.6280 C   0  0  1  0  0  3  0  0  0  0  0  0
  190.7040  177.1880  144.9620 C   0  0  2  0  0  3  0  0  0  0  0  0
  190.4820  175.9300  146.8090 C   0  0  1  0  0  3  0  0  0  0  0  0
  187.3390  177.9920  144.2600 C   0  0  0  0  0  0  0  0  0  0  0  0
  186.8470  178.0490  142.8630 C   0  0  2  0  0  3  0  0  0  0  0  0
  185.7870  177.3620  142.4010 C   0  0  0  0  0  2  0  0  0  0  0  0
  187.2820  177.7800  139.2450 C   0  0  0  0  0  3  0  0  0  0  0  0
  190.1490  174.6750  147.3720 N   0  0  0  0  0  2  0  0  0  0  0  0
  189.4640  177.5080  145.4570 C   0  0  1  0  0  3  0  0  0  0  0  0
  186.0140  177.3050  140.9720 C   0  0  0  0  0  0  0  0  0  0  0  0
  188.6760  177.8330  144.3720 C   0  0  0  0  0  0  0  0  0  0  0  0
  190.7650  177.2820  143.6150 N   0  0  0  0  0  2  0  0  0  0  0  0
  185.4410  177.1100  145.6450 C   0  0  0  0  0  3  0  0  0  0  0  0
  186.4250  178.0860  145.4250 C   0  0  0  0  0  0  0  0  0  0  0  0
  185.6300  179.2830  147.3890 C   0  0  0  0  0  3  0  0  0  0  0  0
  184.6640  178.2970  147.6040 C   0  0  0  0  0  3  0  0  0  0  0  0
  186.5030  179.1800  146.3030 C   0  0  0  0  0  3  0  0  0  0  0  0
  184.5680  177.2120  146.7310 C   0  0  0  0  0  3  0  0  0  0  0  0
  193.5330  175.1460  146.1920 C   0  0  0  0  0  2  0  0  0  0  0  0
  192.4440  175.2640  145.4450 C   0  0  0  0  0  3  0  0  0  0  0  0
  1  8  2  0  0  0  0
  2  9  2  0  0  0  0
  3 19  2  0  0  0  0
  4 19  1  0  0  0  0
  5  3  1  6  0  0  0
  5  2  1  0  0  0  0
  5 14  1  0  0  0  0
  6 29  1  6  0  0  0
  6 12  1  0  0  0  0
  7 16  2  0  0  0  0
  7  4  1  0  0  0  0
  9 21  1  0  0  0  0
  9 20  1  0  0  0  0
 10 12  1  0  0  0  0
 10  1  1  6  0  0  0
 11 21  1  6  0  0  0
 11 18  1  0  0  0  0
 11  6  1  0  0  0  0
 12 17  1  6  0  0  0
 13 20  2  0  0  0  0
 13 23  1  0  0  0  0
 14 15  1  6  0  0  0
 14 13  1  0  0  0  0
 16  3  1  0  0  0  0
 17  8  1  0  0  0  0
 18 20  1  6  0  0  0
 18 10  1  0  0  0  0
 19 15  1  0  0  0  0
 22 27  1  0  0  0  0
 23 22  2  0  0  0  0
 23 26  1  0  0  0  0
 24 25  1  0  0  0  0
 26 24  2  0  0  0  0
 27 25  2  0  0  0  0
 29 28  2  0  0  0  0
M  END
>  <MODEL>
6

>  <REMARK>
 VINA RESULT:      -7.3      3.087      5.164
  Name = 
  2 active torsions:
  status: ('A' for Active; 'I' for Inactive)
    1  A    between atoms: C_7  and  C_27
    2  A    between atoms: C_11  and  C_18
                            x       y       z     vdW  Elec       q    Type
                         _______ _______ _______ _____ _____    ______ ____

>  <TORSDO>
F 2

$$$$
=
 OpenBabel11042417273D

 29 35  0  0  1  0  0  0  0  0999 V2000
  188.9820  175.3470  142.6150 C   0  0  0  0  0  3  0  0  0  0  0  0
  193.0440  172.1530  144.1700 N   0  0  0  0  0  0  0  0  0  0  0  0
  194.8340  173.3910  145.3040 C   0  0  0  0  0  0  0  0  0  0  0  0
  196.0460  175.1830  145.5150 O   0  0  0  0  0  0  0  0  0  0  0  0
  193.4610  172.8610  145.3880 C   0  0  1  0  0  3  0  0  0  0  0  0
  189.3690  172.4040  141.2420 C   0  0  1  0  0  3  0  0  0  0  0  0
  196.8630  174.1430  145.3880 C   0  0  0  0  0  3  0  0  0  0  0  0
  188.5960  175.6540  141.2630 N   0  0  0  0  0  0  0  0  0  0  0  0
  191.8300  172.3020  143.7150 C   0  0  0  0  0  0  0  0  0  0  0  0
  188.9030  174.0340  142.7700 C   0  0  1  0  0  3  0  0  0  0  0  0
  190.0970  172.1360  142.5000 C   0  0  2  0  0  3  0  0  0  0  0  0
  188.6400  173.4990  141.4710 C   0  0  1  0  0  3  0  0  0  0  0  0
  191.2810  174.2160  145.0950 C   0  0  0  0  0  0  0  0  0  0  0  0
  192.7040  174.1830  145.5060 C   0  0  2  0  0  3  0  0  0  0  0  0
  193.5050  175.2630  145.5620 C   0  0  0  0  0  2  0  0  0  0  0  0
  196.1340  172.9450  145.2670 C   0  0  0  0  0  3  0  0  0  0  0  0
  188.4320  174.5850  140.5860 N   0  0  0  0  0  2  0  0  0  0  0  0
  189.8070  173.1050  143.4290 C   0  0  1  0  0  3  0  0  0  0  0  0
  194.8380  174.7030  145.4780 C   0  0  0  0  0  0  0  0  0  0  0  0
  190.9360  173.2580  144.2070 C   0  0  0  0  0  0  0  0  0  0  0  0
  191.3530  171.6540  142.6280 N   0  0  0  0  0  2  0  0  0  0  0  0
  189.2500  174.8550  146.4240 C   0  0  0  0  0  3  0  0  0  0  0  0
  190.3310  175.2320  145.6130 C   0  0  0  0  0  0  0  0  0  0  0  0
  189.5690  177.5410  145.7280 C   0  0  0  0  0  3  0  0  0  0  0  0
  188.5060  177.1530  146.5470 C   0  0  0  0  0  3  0  0  0  0  0  0
  190.4750  176.5840  145.2600 C   0  0  0  0  0  3  0  0  0  0  0  0
  188.3450  175.8100  146.8930 C   0  0  0  0  0  3  0  0  0  0  0  0
  190.7460  172.3000  139.2250 C   0  0  0  0  0  2  0  0  0  0  0  0
  189.6870  171.8850  139.9050 C   0  0  0  0  0  3  0  0  0  0  0  0
  3  5  1  0  0  0  0
  3 19  2  0  0  0  0
  5  2  1  6  0  0  0
  5 14  1  0  0  0  0
  6 29  1  6  0  0  0
  6 12  1  0  0  0  0
  6 11  1  0  0  0  0
  7  4  1  0  0  0  0
  8  1  2  0  0  0  0
  9  2  2  0  0  0  0
  9 20  1  0  0  0  0
 10  1  1  6  0  0  0
 10 18  1  0  0  0  0
 11 21  1  6  0  0  0
 11 18  1  0  0  0  0
 12 17  1  6  0  0  0
 12 10  1  0  0  0  0
 13 14  1  0  0  0  0
 13 23  1  0  0  0  0
 14 15  1  6  0  0  0
 16  3  1  0  0  0  0
 16  7  2  0  0  0  0
 17  8  1  0  0  0  0
 18 20  1  6  0  0  0
 19  4  1  0  0  0  0
 19 15  1  0  0  0  0
 20 13  2  0  0  0  0
 21  9  1  0  0  0  0
 22 27  1  0  0  0  0
 23 22  2  0  0  0  0
 24 25  1  0  0  0  0
 25 27  2  0  0  0  0
 26 23  1  0  0  0  0
 26 24  2  0  0  0  0
 28 29  2  0  0  0  0
M  END
>  <MODEL>
7

>  <REMARK>
 VINA RESULT:      -7.2      3.270      6.323
  Name = 
  2 active torsions:
  status: ('A' for Active; 'I' for Inactive)
    1  A    between atoms: C_7  and  C_27
    2  A    between atoms: C_11  and  C_18
                            x       y       z     vdW  Elec       q    Type
                         _______ _______ _______ _____ _____    ______ ____

>  <TORSDO>
F 2

$$$$
=
 OpenBabel11042417273D

 29 35  0  0  1  0  0  0  0  0999 V2000
  189.4510  174.2470  143.3680 C   0  0  0  0  0  3  0  0  0  0  0  0
  194.6610  172.9970  144.0170 N   0  0  0  0  0  0  0  0  0  0  0  0
  196.1110  174.9770  144.0190 C   0  0  0  0  0  0  0  0  0  0  0  0
  196.5890  176.9640  143.2800 O   0  0  0  0  0  0  0  0  0  0  0  0
  195.1080  174.1860  144.7550 C   0  0  1  0  0  3  0  0  0  0  0  0
  190.4940  171.2070  142.7620 C   0  0  1  0  0  3  0  0  0  0  0  0
  197.6600  176.1950  143.1230 C   0  0  0  0  0  3  0  0  0  0  0  0
  188.6220  173.9230  142.2380 N   0  0  0  0  0  0  0  0  0  0  0  0
  193.4020  172.6540  144.0400 C   0  0  0  0  0  0  0  0  0  0  0  0
  189.9060  173.1100  143.8750 C   0  0  1  0  0  3  0  0  0  0  0  0
  191.5870  171.6170  143.6680 C   0  0  2  0  0  3  0  0  0  0  0  0
  189.5080  172.0850  142.9610 C   0  0  1  0  0  3  0  0  0  0  0  0
  192.5940  174.7360  144.9810 C   0  0  0  0  0  0  0  0  0  0  0  0
  193.9840  175.2190  144.8090 C   0  0  2  0  0  3  0  0  0  0  0  0
  194.3150  176.4080  144.2740 C   0  0  0  0  0  2  0  0  0  0  0  0
  197.4180  174.8940  143.6040 C   0  0  0  0  0  3  0  0  0  0  0  0
  188.6810  172.6760  141.9760 N   0  0  0  0  0  2  0  0  0  0  0  0
  191.2310  172.7520  144.3530 C   0  0  1  0  0  3  0  0  0  0  0  0
  195.6810  176.2150  143.8330 C   0  0  0  0  0  0  0  0  0  0  0  0
  192.3940  173.4630  144.5720 C   0  0  0  0  0  0  0  0  0  0  0  0
  192.9150  171.5520  143.4260 N   0  0  0  0  0  2  0  0  0  0  0  0
  190.9180  175.2780  146.7680 C   0  0  0  0  0  3  0  0  0  0  0  0
  191.5210  175.5940  145.5410 C   0  0  0  0  0  0  0  0  0  0  0  0
  190.0350  177.5120  145.3430 C   0  0  0  0  0  3  0  0  0  0  0  0
  189.4530  177.1940  146.5720 C   0  0  0  0  0  3  0  0  0  0  0  0
  191.0610  176.7130  144.8280 C   0  0  0  0  0  3  0  0  0  0  0  0
  189.8930  176.0760  147.2840 C   0  0  0  0  0  3  0  0  0  0  0  0
  190.8690  169.0360  141.7010 C   0  0  0  0  0  2  0  0  0  0  0  0
  190.5980  170.3290  141.5880 C   0  0  0  0  0  3  0  0  0  0  0  0
  2  9  2  0  0  0  0
  3  5  1  0  0  0  0
  4 19  1  0  0  0  0
  5  2  1  6  0  0  0
  5 14  1  0  0  0  0
  6 29  1  6  0  0  0
  6 12  1  0  0  0  0
  6 11  1  0  0  0  0
  7  4  1  0  0  0  0
  7 16  2  0  0  0  0
  8  1  2  0  0  0  0
  9 20  1  0  0  0  0
 10  1  1  6  0  0  0
 10 18  1  0  0  0  0
 11 21  1  6  0  0  0
 11 18  1  0  0  0  0
 12 17  1  6  0  0  0
 12 10  1  0  0  0  0
 13 23  1  0  0  0  0
 14 15  1  6  0  0  0
 14 13  1  0  0  0  0
 16  3  1  0  0  0  0
 17  8  1  0  0  0  0
 18 20  1  6  0  0  0
 19  3  2  0  0  0  0
 19 15  1  0  0  0  0
 20 13  2  0  0  0  0
 21  9  1  0  0  0  0
 22 27  1  0  0  0  0
 23 22  2  0  0  0  0
 24 25  1  0  0  0  0
 25 27  2  0  0  0  0
 26 24  2  0  0  0  0
 26 23  1  0  0  0  0
 29 28  2  0  0  0  0
M  END
>  <MODEL>
8

>  <REMARK>
 VINA RESULT:      -6.9      3.891      6.791
  Name = 
  2 active torsions:
  status: ('A' for Active; 'I' for Inactive)
    1  A    between atoms: C_7  and  C_27
    2  A    between atoms: C_11  and  C_18
                            x       y       z     vdW  Elec       q    Type
                         _______ _______ _______ _____ _____    ______ ____

>  <TORSDO>
F 2

$$$$
=
 OpenBabel11042417273D

 29 35  0  0  1  0  0  0  0  0999 V2000
  188.1890  175.1730  141.1290 C   0  0  0  0  0  3  0  0  0  0  0  0
  191.9160  173.6670  144.7290 N   0  0  0  0  0  0  0  0  0  0  0  0
  193.1300  175.5760  145.6820 C   0  0  0  0  0  0  0  0  0  0  0  0
  194.0140  177.5490  145.4610 O   0  0  0  0  0  0  0  0  0  0  0  0
  191.8630  174.8230  145.6350 C   0  0  1  0  0  3  0  0  0  0  0  0
  189.2980  172.0970  141.1490 C   0  0  1  0  0  3  0  0  0  0  0  0
  194.9400  176.7310  145.9490 C   0  0  0  0  0  3  0  0  0  0  0  0
  188.2000  174.9070  139.7150 N   0  0  0  0  0  0  0  0  0  0  0  0
  190.8890  173.3840  143.9760 C   0  0  0  0  0  0  0  0  0  0  0  0
  188.2130  174.0090  141.7600 C   0  0  1  0  0  3  0  0  0  0  0  0
  189.6350  172.4410  142.5450 C   0  0  2  0  0  3  0  0  0  0  0  0
  188.4170  173.0180  140.7500 C   0  0  1  0  0  3  0  0  0  0  0  0
  189.7380  175.4880  144.3250 C   0  0  0  0  0  0  0  0  0  0  0  0
  190.9640  175.9080  145.0430 C   0  0  2  0  0  3  0  0  0  0  0  0
  191.5860  177.0870  144.8640 C   0  0  0  0  0  2  0  0  0  0  0  0
  194.4200  175.4370  146.1340 C   0  0  0  0  0  3  0  0  0  0  0  0
  188.3680  173.6620  139.4910 N   0  0  0  0  0  2  0  0  0  0  0  0
  188.9720  173.5820  142.9240 C   0  0  1  0  0  3  0  0  0  0  0  0
  192.9350  176.8360  145.3260 C   0  0  0  0  0  0  0  0  0  0  0  0
  189.7880  174.2330  143.8270 C   0  0  0  0  0  0  0  0  0  0  0  0
  190.8390  172.3160  143.1480 N   0  0  0  0  0  2  0  0  0  0  0  0
  188.5880  177.4210  143.2110 C   0  0  0  0  0  3  0  0  0  0  0  0
  188.5700  176.3880  144.1610 C   0  0  0  0  0  0  0  0  0  0  0  0
  186.3490  177.1070  144.8520 C   0  0  0  0  0  3  0  0  0  0  0  0
  186.3750  178.1220  143.8920 C   0  0  0  0  0  3  0  0  0  0  0  0
  187.4430  176.2470  144.9880 C   0  0  0  0  0  3  0  0  0  0  0  0
  187.4950  178.2800  143.0740 C   0  0  0  0  0  3  0  0  0  0  0  0
  191.2190  171.6130  139.7160 C   0  0  0  0  0  2  0  0  0  0  0  0
  190.0620  171.2330  140.2390 C   0  0  0  0  0  3  0  0  0  0  0  0
  3 16  1  0  0  0  0
  4  7  1  0  0  0  0
  5  2  1  6  0  0  0
  5  3  1  0  0  0  0
  6 29  1  6  0  0  0
  6 11  1  0  0  0  0
  7 16  2  0  0  0  0
  8  1  2  0  0  0  0
  9  2  2  0  0  0  0
 10  1  1  6  0  0  0
 10 18  1  0  0  0  0
 11 18  1  0  0  0  0
 11 21  1  6  0  0  0
 12 17  1  6  0  0  0
 12  6  1  0  0  0  0
 12 10  1  0  0  0  0
 13 14  1  0  0  0  0
 14 15  1  6  0  0  0
 14  5  1  0  0  0  0
 15 19  1  0  0  0  0
 17  8  1  0  0  0  0
 18 20  1  6  0  0  0
 19  4  1  0  0  0  0
 19  3  2  0  0  0  0
 20  9  1  0  0  0  0
 20 13  2  0  0  0  0
 21  9  1  0  0  0  0
 22 23  1  0  0  0  0
 23 13  1  0  0  0  0
 23 26  2  0  0  0  0
 24 26  1  0  0  0  0
 25 24  2  0  0  0  0
 27 22  2  0  0  0  0
 27 25  1  0  0  0  0
 28 29  2  0  0  0  0
M  END
>  <MODEL>
9

>  <REMARK>
 VINA RESULT:      -6.9      2.455      5.566
  Name = 
  2 active torsions:
  status: ('A' for Active; 'I' for Inactive)
    1  A    between atoms: C_7  and  C_27
    2  A    between atoms: C_11  and  C_18
                            x       y       z     vdW  Elec       q    Type
                         _______ _______ _______ _____ _____    ______ ____

>  <TORSDO>
F 2

$$$$
