=
 OpenBabel11042417503D

 57 59  0  0  1  0  0  0  0  0999 V2000
  186.5670  178.0170  143.6710 C   0  0  0  0  0  0  0  0  0  0  0  0
  186.5640  178.2760  147.9000 N   0  0  0  0  0  1  0  0  0  0  0  0
  185.7380  179.0090  145.7300 C   0  0  0  0  0  3  0  0  0  0  0  0
  187.4220  177.2670  145.8270 C   0  0  0  0  0  0  0  0  0  0  0  0
  186.5760  178.1810  146.4790 C   0  0  0  0  0  0  0  0  0  0  0  0
  185.7330  178.9280  144.3360 C   0  0  0  0  0  3  0  0  0  0  0  0
  187.4090  177.1850  144.4310 C   0  0  0  0  0  3  0  0  0  0  0  0
  186.5400  177.9370  142.1930 C   0  0  0  0  0  0  0  0  0  0  0  0
  185.4710  178.3500  141.5120 C   0  0  0  0  0  2  0  0  0  0  0  0
  187.6790  177.4160  141.4980 N   0  0  0  0  0  2  0  0  0  0  0  0
  187.7040  176.1170  140.8440 C   0  0  0  0  0  2  0  0  0  0  0  0
  188.4930  175.1440  141.6940 C   0  0  0  0  0  2  0  0  0  0  0  0
  188.1860  173.7260  141.2620 C   0  0  0  0  0  2  0  0  0  0  0  0
  189.4850  172.9790  141.0590 C   0  0  0  0  0  2  0  0  0  0  0  0
  190.2400  173.5840  139.8940 C   0  0  0  0  0  2  0  0  0  0  0  0
  190.3100  172.6080  138.8010 N   0  0  0  0  0  0  0  0  0  0  0  0
  188.1220  173.7550  137.7200 O   0  0  0  0  0  1  0  0  0  0  0  0
  189.4970  173.2320  137.3700 P   0  0  0  0  0  0  0  0  0  0  0  0
  190.4160  174.4740  136.6830 O   0  0  0  0  0  1  0  0  0  0  0  0
  189.3360  171.9820  136.2420 O   0  0  0  0  0  0  0  0  0  0  0  0
  191.6240  172.1650  138.4670 N   0  0  0  0  0  0  0  0  0  0  0  0
  194.7360  171.8320  138.0480 C   0  0  0  0  0  2  0  0  0  0  0  0
  192.7010  172.7780  139.3020 C   0  0  1  0  0  3  0  0  0  0  0  0
  193.2550  174.5370  137.4570 C   0  0  0  0  0  2  0  0  0  0  0  0
  194.0160  171.9770  139.3870 C   0  0  0  0  0  2  0  0  0  0  0  0
  194.1260  173.5040  136.7500 C   0  0  0  0  0  2  0  0  0  0  0  0
  195.1630  173.0780  137.5820 O   0  0  0  0  0  0  0  0  0  0  0  0
  192.9870  174.2470  138.9430 C   0  0  0  0  0  2  0  0  0  0  0  0
  189.9830  169.8570  138.6710 O   0  0  0  0  0  1  0  0  0  0  0  0
  191.5820  170.4030  138.6410 P   0  0  0  0  0  0  0  0  0  0  0  0
  192.3170  169.7470  137.4940 O   0  0  0  0  0  0  0  0  0  0  0  0
  192.3260  169.9630  140.0940 O   0  0  0  0  0  1  0  0  0  0  0  0
  188.3240  176.3600  146.6000 C   0  0  0  0  0  2  0  0  0  0  0  0
  188.8010  175.2220  145.7190 C   0  0  0  0  0  2  0  0  0  0  0  0
  189.8190  174.5310  146.3720 O   0  0  0  0  0  0  0  0  0  0  0  0
  190.2910  173.6180  145.4280 C   0  0  0  0  0  2  0  0  0  0  0  0
  191.6860  173.9950  144.9300 C   0  0  1  0  0  3  0  0  0  0  0  0
  192.5290  171.7510  144.3840 C   0  0  0  0  0  0  0  0  0  0  0  0
  191.3850  171.4090  143.4820 C   0  0  0  0  0  1  0  0  0  0  0  0
  192.6320  172.8920  144.9890 N   0  0  0  0  0  0  0  0  0  0  0  0
  193.6020  170.7160  144.5610 C   0  0  1  0  0  3  0  0  0  0  0  0
  194.3980  170.5600  143.2700 C   0  0  0  0  0  2  0  0  0  0  0  0
  194.5910  169.0940  142.9110 C   0  0  0  0  0  2  0  0  0  0  0  0
  193.3460  168.2990  143.2540 C   0  0  0  0  0  1  0  0  0  0  0  0
  194.5340  171.0680  145.7230 C   0  0  0  0  0  2  0  0  0  0  0  0
  194.6750  169.0360  147.0970 C   0  0  0  0  0  2  0  0  0  0  0  0
  195.2580  169.8650  146.2360 C   0  0  0  0  0  3  0  0  0  0  0  0
  191.6910  174.7250  143.5880 C   0  0  0  0  0  2  0  0  0  0  0  0
  192.4640  176.6920  142.5020 O   0  0  0  0  0  1  0  0  0  0  0  0
  192.7100  175.8570  143.5980 C   0  0  2  0  0  3  0  0  0  0  0  0
  196.5920  175.7520  143.9760 C   0  0  0  0  0  2  0  0  0  0  0  0
  197.1300  175.2630  142.3080 S   0  0  0  0  0  0  0  0  0  0  0  0
  194.4600  174.7090  142.1730 C   0  0  0  0  0  2  0  0  0  0  0  0
  195.8140  174.0190  142.1600 C   0  0  0  0  0  2  0  0  0  0  0  0
  194.9230  176.9550  145.3090 C   0  0  0  0  0  1  0  0  0  0  0  0
  195.1910  176.3510  143.9420 C   0  0  2  0  0  3  0  0  0  0  0  0
  194.1420  175.2840  143.5600 C   0  0  1  0  0  3  0  0  0  0  0  0
  1  6  2  0  0  0  0
  1  7  1  0  0  0  0
  3  5  2  0  0  0  0
  4  5  1  0  0  0  0
  4 33  1  0  0  0  0
  5  2  1  0  0  0  0
  6  3  1  0  0  0  0
  7  4  2  0  0  0  0
  8  1  1  0  0  0  0
  9  8  2  0  0  0  0
 10  8  1  0  0  0  0
 11 10  1  0  0  0  0
 11 12  1  0  0  0  0
 13 12  1  0  0  0  0
 14 13  1  0  0  0  0
 15 14  1  0  0  0  0
 16 15  1  0  0  0  0
 18 17  1  0  0  0  0
 18 16  1  0  0  0  0
 19 18  1  0  0  0  0
 20 18  2  0  0  0  0
 21 30  1  0  0  0  0
 21 16  1  0  0  0  0
 22 25  1  0  0  0  0
 23 21  1  6  0  0  0
 23 25  1  0  0  0  0
 24 28  1  0  0  0  0
 26 24  1  0  0  0  0
 26 27  1  0  0  0  0
 27 22  1  0  0  0  0
 28 23  1  0  0  0  0
 30 29  1  0  0  0  0
 30 32  1  0  0  0  0
 31 30  2  0  0  0  0
 34 35  1  0  0  0  0
 34 33  1  0  0  0  0
 36 35  1  0  0  0  0
 37 48  1  6  0  0  0
 37 40  1  0  0  0  0
 37 36  1  0  0  0  0
 38 41  1  0  0  0  0
 38 40  2  0  0  0  0
 39 38  1  0  0  0  0
 41 42  1  6  0  0  0
 41 45  1  0  0  0  0
 43 44  1  0  0  0  0
 43 42  1  0  0  0  0
 45 47  1  0  0  0  0
 47 46  2  0  0  0  0
 48 50  1  0  0  0  0
 50 49  1  6  0  0  0
 52 51  1  0  0  0  0
 53 57  1  0  0  0  0
 54 53  1  0  0  0  0
 54 52  1  0  0  0  0
 56 51  1  0  0  0  0
 56 55  1  1  0  0  0
 57 50  1  6  0  0  0
 57 56  1  0  0  0  0
M  END
>  <MODEL>
1

>  <REMARK>
 VINA RESULT:      -5.4      0.000      0.000
  Name = 
  26 active torsions:
  status: ('A' for Active; 'I' for Inactive)
    1  A    between atoms: C_1  and  C_27
    2  A    between atoms: C_4  and  C_27
    3  A    between atoms: C_4  and  C_54
    4  A    between atoms: C_5  and  C_16
    5  A    between atoms: C_6  and  C_35
    6  A    between atoms: P_8  and  N_55
    7  A    between atoms: C_9  and  C_21
    8  A    between atoms: C_9  and  O_29
    9  A    between atoms: C_10  and  C_42
   10  A    between atoms: C_10  and  N_55
   11  A    between atoms: C_14  and  C_30
   12  A    between atoms: C_14  and  N_52
   13  A    between atoms: C_14  and  C_53
   14  A    between atoms: C_16  and  N_49
   15  A    between atoms: P_18  and  N_28
   16  A    between atoms: C_19  and  C_23
   17  A    between atoms: C_19  and  C_42
   18  A    between atoms: C_21  and  C_31
   19  A    between atoms: C_23  and  C_46
   20  A    between atoms: C_27  and  C_35
   21  A    between atoms: N_28  and  C_34
   22  A    between atoms: N_28  and  N_55
   23  A    between atoms: O_29  and  C_30
   24  A    between atoms: C_32  and  C_53
   25  A    between atoms: C_32  and  C_57
   26  A    between atoms: C_46  and  N_49
                            x       y       z     vdW  Elec       q    Type
                         _______ _______ _______ _____ _____    ______ ____

>  <TORSDO>
F 26

$$$$
=
 OpenBabel11042417503D

 57 59  0  0  1  0  0  0  0  0999 V2000
  186.3630  177.4110  144.3560 C   0  0  0  0  0  0  0  0  0  0  0  0
  186.8940  177.6740  140.1610 N   0  0  0  0  0  1  0  0  0  0  0  0
  186.2420  178.6750  142.2830 C   0  0  0  0  0  3  0  0  0  0  0  0
  187.0150  176.3770  142.2470 C   0  0  0  0  0  0  0  0  0  0  0  0
  186.7170  177.5720  141.5700 C   0  0  0  0  0  0  0  0  0  0  0  0
  186.0650  178.5950  143.6660 C   0  0  0  0  0  3  0  0  0  0  0  0
  186.8420  176.3040  143.6330 C   0  0  0  0  0  3  0  0  0  0  0  0
  186.1810  177.3490  145.8240 C   0  0  0  0  0  0  0  0  0  0  0  0
  184.9620  177.4040  146.3580 C   0  0  0  0  0  2  0  0  0  0  0  0
  187.3320  177.2240  146.6690 N   0  0  0  0  0  2  0  0  0  0  0  0
  187.9680  175.9550  146.9870 C   0  0  0  0  0  2  0  0  0  0  0  0
  189.4340  176.0250  146.6160 C   0  0  0  0  0  2  0  0  0  0  0  0
  189.9370  174.6390  146.2700 C   0  0  0  0  0  2  0  0  0  0  0  0
  190.7680  174.7150  145.0090 C   0  0  0  0  0  2  0  0  0  0  0  0
  192.1740  174.2340  145.3000 C   0  0  0  0  0  2  0  0  0  0  0  0
  193.1390  175.1700  144.7120 N   0  0  0  0  0  0  0  0  0  0  0  0
  195.1140  175.2960  146.5440 O   0  0  0  0  0  1  0  0  0  0  0  0
  193.9540  176.0830  145.9760 P   0  0  0  0  0  0  0  0  0  0  0  0
  194.5170  177.5510  145.3520 O   0  0  0  0  0  0  0  0  0  0  0  0
  192.8510  176.4040  147.2180 O   0  0  0  0  0  1  0  0  0  0  0  0
  194.0960  174.5810  143.8340 N   0  0  0  0  0  0  0  0  0  0  0  0
  196.1230  172.5470  142.5210 C   0  0  0  0  0  2  0  0  0  0  0  0
  193.8330  173.1420  143.5280 C   0  0  1  0  0  3  0  0  0  0  0  0
  195.2900  172.3550  145.5430 C   0  0  0  0  0  2  0  0  0  0  0  0
  194.6080  172.5640  142.3250 C   0  0  0  0  0  2  0  0  0  0  0  0
  196.5410  172.5080  144.6840 C   0  0  0  0  0  2  0  0  0  0  0  0
  196.4740  171.6810  143.5610 O   0  0  0  0  0  0  0  0  0  0  0  0
  193.9770  172.2240  144.7540 C   0  0  0  0  0  2  0  0  0  0  0  0
  192.8670  176.7650  142.4980 O   0  0  0  0  0  1  0  0  0  0  0  0
  194.0650  175.5790  142.3710 P   0  0  0  0  0  0  0  0  0  0  0  0
  195.4080  176.2410  142.1620 O   0  0  0  0  0  1  0  0  0  0  0  0
  193.7170  174.6060  141.0320 O   0  0  0  0  0  0  0  0  0  0  0  0
  187.5340  175.1820  141.5160 C   0  0  0  0  0  2  0  0  0  0  0  0
  188.9680  174.9040  141.9210 C   0  0  0  0  0  2  0  0  0  0  0  0
  189.2420  173.5500  141.7430 O   0  0  0  0  0  0  0  0  0  0  0  0
  190.5800  173.5060  141.3510 C   0  0  0  0  0  2  0  0  0  0  0  0
  190.7700  172.6640  140.0890 C   0  0  1  0  0  3  0  0  0  0  0  0
  190.2270  173.5420  137.8580 C   0  0  0  0  0  0  0  0  0  0  0  0
  188.9270  172.8100  137.7540 C   0  0  0  0  0  1  0  0  0  0  0  0
  190.9980  173.4630  138.8970 N   0  0  0  0  0  0  0  0  0  0  0  0
  190.6220  174.4180  136.7040 C   0  0  1  0  0  3  0  0  0  0  0  0
  192.1160  174.2870  136.4340 C   0  0  0  0  0  2  0  0  0  0  0  0
  192.8380  175.6080  136.6530 C   0  0  0  0  0  2  0  0  0  0  0  0
  194.2710  175.5130  136.1660 C   0  0  0  0  0  1  0  0  0  0  0  0
  189.8200  174.0810  135.4450 C   0  0  0  0  0  2  0  0  0  0  0  0
  189.6190  176.4360  134.7720 C   0  0  0  0  0  2  0  0  0  0  0  0
  189.0330  175.2560  134.9590 C   0  0  0  0  0  3  0  0  0  0  0  0
  191.7680  171.5190  140.2510 C   0  0  0  0  0  2  0  0  0  0  0  0
  191.4040  169.6120  138.8810 O   0  0  0  0  0  1  0  0  0  0  0  0
  192.0440  170.8560  138.9070 C   0  0  2  0  0  3  0  0  0  0  0  0
  195.3900  170.0570  137.0650 C   0  0  0  0  0  2  0  0  0  0  0  0
  196.1700  168.8540  138.1830 S   0  0  0  0  0  0  0  0  0  0  0  0
  194.1920  169.8410  139.7850 C   0  0  0  0  0  2  0  0  0  0  0  0
  195.7060  169.8040  139.6610 C   0  0  0  0  0  2  0  0  0  0  0  0
  193.2860  170.9460  136.1720 C   0  0  0  0  0  1  0  0  0  0  0  0
  193.8850  170.1210  137.2980 C   0  0  2  0  0  3  0  0  0  0  0  0
  193.5650  170.7130  138.6880 C   0  0  1  0  0  3  0  0  0  0  0  0
  1  8  1  0  0  0  0
  2  5  1  0  0  0  0
  3  6  2  0  0  0  0
  4  7  1  0  0  0  0
  5  4  2  0  0  0  0
  5  3  1  0  0  0  0
  6  1  1  0  0  0  0
  7  1  2  0  0  0  0
  8  9  2  0  0  0  0
  8 10  1  0  0  0  0
 10 11  1  0  0  0  0
 12 11  1  0  0  0  0
 13 12  1  0  0  0  0
 14 15  1  0  0  0  0
 14 13  1  0  0  0  0
 16 15  1  0  0  0  0
 16 18  1  0  0  0  0
 18 17  1  0  0  0  0
 18 20  1  0  0  0  0
 19 18  2  0  0  0  0
 21 16  1  0  0  0  0
 22 27  1  0  0  0  0
 23 21  1  1  0  0  0
 23 28  1  0  0  0  0
 25 22  1  0  0  0  0
 25 23  1  0  0  0  0
 26 24  1  0  0  0  0
 27 26  1  0  0  0  0
 28 24  1  0  0  0  0
 30 29  1  0  0  0  0
 30 21  1  0  0  0  0
 31 30  1  0  0  0  0
 32 30  2  0  0  0  0
 33 34  1  0  0  0  0
 33  4  1  0  0  0  0
 35 34  1  0  0  0  0
 36 35  1  0  0  0  0
 37 48  1  1  0  0  0
 37 36  1  0  0  0  0
 38 40  2  0  0  0  0
 39 38  1  0  0  0  0
 40 37  1  0  0  0  0
 41 45  1  6  0  0  0
 41 38  1  0  0  0  0
 42 43  1  0  0  0  0
 42 41  1  0  0  0  0
 44 43  1  0  0  0  0
 46 47  2  0  0  0  0
 47 45  1  0  0  0  0
 50 49  1  1  0  0  0
 50 48  1  0  0  0  0
 51 56  1  0  0  0  0
 51 52  1  0  0  0  0
 52 54  1  0  0  0  0
 54 53  1  0  0  0  0
 56 55  1  6  0  0  0
 56 57  1  0  0  0  0
 57 50  1  1  0  0  0
 57 53  1  0  0  0  0
M  END
>  <MODEL>
2

>  <REMARK>
 VINA RESULT:      -5.2      2.988      7.388
  Name = 
  26 active torsions:
  status: ('A' for Active; 'I' for Inactive)
    1  A    between atoms: C_1  and  C_27
    2  A    between atoms: C_4  and  C_27
    3  A    between atoms: C_4  and  C_54
    4  A    between atoms: C_5  and  C_16
    5  A    between atoms: C_6  and  C_35
    6  A    between atoms: P_8  and  N_55
    7  A    between atoms: C_9  and  C_21
    8  A    between atoms: C_9  and  O_29
    9  A    between atoms: C_10  and  C_42
   10  A    between atoms: C_10  and  N_55
   11  A    between atoms: C_14  and  C_30
   12  A    between atoms: C_14  and  N_52
   13  A    between atoms: C_14  and  C_53
   14  A    between atoms: C_16  and  N_49
   15  A    between atoms: P_18  and  N_28
   16  A    between atoms: C_19  and  C_23
   17  A    between atoms: C_19  and  C_42
   18  A    between atoms: C_21  and  C_31
   19  A    between atoms: C_23  and  C_46
   20  A    between atoms: C_27  and  C_35
   21  A    between atoms: N_28  and  C_34
   22  A    between atoms: N_28  and  N_55
   23  A    between atoms: O_29  and  C_30
   24  A    between atoms: C_32  and  C_53
   25  A    between atoms: C_32  and  C_57
   26  A    between atoms: C_46  and  N_49
                            x       y       z     vdW  Elec       q    Type
                         _______ _______ _______ _____ _____    ______ ____

>  <TORSDO>
F 26

$$$$
=
 OpenBabel11042417503D

 57 59  0  0  1  0  0  0  0  0999 V2000
  189.9190  173.1980  137.3010 C   0  0  0  0  0  0  0  0  0  0  0  0
  193.1790  170.7830  136.0820 N   0  0  0  0  0  1  0  0  0  0  0  0
  192.0340  172.9310  136.1330 C   0  0  0  0  0  3  0  0  0  0  0  0
  191.0350  171.0310  137.2610 C   0  0  0  0  0  0  0  0  0  0  0  0
  192.0770  171.5830  136.4950 C   0  0  0  0  0  0  0  0  0  0  0  0
  190.9620  173.7330  136.5320 C   0  0  0  0  0  3  0  0  0  0  0  0
  189.9670  171.8400  137.6640 C   0  0  0  0  0  3  0  0  0  0  0  0
  188.7970  174.0670  137.7250 C   0  0  0  0  0  0  0  0  0  0  0  0
  188.1810  174.8550  136.8450 C   0  0  0  0  0  2  0  0  0  0  0  0
  188.3740  174.0470  139.0940 N   0  0  0  0  0  2  0  0  0  0  0  0
  189.2900  174.0530  140.2240 C   0  0  0  0  0  2  0  0  0  0  0  0
  188.6230  173.3890  141.4100 C   0  0  0  0  0  2  0  0  0  0  0  0
  189.6430  173.1640  142.5060 C   0  0  0  0  0  2  0  0  0  0  0  0
  189.2190  173.9290  143.7410 C   0  0  0  0  0  2  0  0  0  0  0  0
  188.5690  175.2330  143.3300 C   0  0  0  0  0  2  0  0  0  0  0  0
  189.0680  176.3160  144.1850 N   0  0  0  0  0  0  0  0  0  0  0  0
  191.1940  176.7760  142.5900 O   0  0  0  0  0  1  0  0  0  0  0  0
  190.0090  177.4600  143.2350 P   0  0  0  0  0  0  0  0  0  0  0  0
  189.0350  178.1510  142.0380 O   0  0  0  0  0  0  0  0  0  0  0  0
  190.5740  178.6850  144.2560 O   0  0  0  0  0  1  0  0  0  0  0  0
  188.0710  177.0020  144.9380 N   0  0  0  0  0  0  0  0  0  0  0  0
  185.4160  178.2510  146.1060 C   0  0  0  0  0  2  0  0  0  0  0  0
  186.6790  176.5270  144.6750 C   0  0  1  0  0  3  0  0  0  0  0  0
  186.2000  178.5330  143.0770 C   0  0  0  0  0  2  0  0  0  0  0  0
  185.6650  176.7730  145.8120 C   0  0  0  0  0  2  0  0  0  0  0  0
  185.8790  179.4050  144.2870 C   0  0  0  0  0  2  0  0  0  0  0  0
  184.8110  178.8740  145.0110 O   0  0  0  0  0  0  0  0  0  0  0  0
  186.1120  177.0190  143.3320 C   0  0  0  0  0  2  0  0  0  0  0  0
  188.4220  178.2490  147.4650 O   0  0  0  0  0  1  0  0  0  0  0  0
  188.5310  176.7810  146.6340 P   0  0  0  0  0  0  0  0  0  0  0  0
  187.6270  175.7620  147.2910 O   0  0  0  0  0  1  0  0  0  0  0  0
  190.1290  176.2340  146.7180 O   0  0  0  0  0  0  0  0  0  0  0  0
  191.0550  169.5960  137.6740 C   0  0  0  0  0  2  0  0  0  0  0  0
  190.4740  169.4430  139.0660 C   0  0  0  0  0  2  0  0  0  0  0  0
  191.5130  169.3400  139.9890 O   0  0  0  0  0  0  0  0  0  0  0  0
  191.4560  170.5260  140.7220 C   0  0  0  0  0  2  0  0  0  0  0  0
  192.8000  170.8490  141.3740 C   0  0  1  0  0  3  0  0  0  0  0  0
  194.3590  171.9130  139.7980 C   0  0  0  0  0  0  0  0  0  0  0  0
  194.7840  170.6270  139.1630 C   0  0  0  0  0  1  0  0  0  0  0  0
  193.4830  171.9720  140.7520 N   0  0  0  0  0  0  0  0  0  0  0  0
  194.9730  173.1790  139.2750 C   0  0  1  0  0  3  0  0  0  0  0  0
  195.3230  173.0210  137.7990 C   0  0  0  0  0  2  0  0  0  0  0  0
  196.5260  173.8710  137.4200 C   0  0  0  0  0  2  0  0  0  0  0  0
  196.7940  173.7720  135.9300 C   0  0  0  0  0  1  0  0  0  0  0  0
  194.0450  174.3780  139.4770 C   0  0  0  0  0  2  0  0  0  0  0  0
  194.3070  175.8850  141.4010 C   0  0  0  0  0  2  0  0  0  0  0  0
  194.7300  175.4920  140.2030 C   0  0  0  0  0  3  0  0  0  0  0  0
  192.7450  170.9440  142.8980 C   0  0  0  0  0  2  0  0  0  0  0  0
  194.3790  170.5770  144.5830 O   0  0  0  0  0  1  0  0  0  0  0  0
  194.0990  171.3600  143.4580 C   0  0  2  0  0  3  0  0  0  0  0  0
  195.4530  174.8200  144.6500 C   0  0  0  0  0  2  0  0  0  0  0  0
  194.2980  175.2470  145.9880 S   0  0  0  0  0  0  0  0  0  0  0  0
  192.9630  173.1880  144.7920 C   0  0  0  0  0  2  0  0  0  0  0  0
  192.8570  174.6840  145.0350 C   0  0  0  0  0  2  0  0  0  0  0  0
  196.6040  173.0200  143.4460 C   0  0  0  0  0  1  0  0  0  0  0  0
  195.4480  173.3190  144.3850 C   0  0  2  0  0  3  0  0  0  0  0  0
  194.0920  172.8630  143.8030 C   0  0  1  0  0  3  0  0  0  0  0  0
  1  7  1  0  0  0  0
  1  8  1  0  0  0  0
  2  5  1  0  0  0  0
  3  5  2  0  0  0  0
  3  6  1  0  0  0  0
  4  7  2  0  0  0  0
  4 33  1  0  0  0  0
  5  4  1  0  0  0  0
  6  1  2  0  0  0  0
  8 10  1  0  0  0  0
  9  8  2  0  0  0  0
 10 11  1  0  0  0  0
 11 12  1  0  0  0  0
 12 13  1  0  0  0  0
 13 14  1  0  0  0  0
 15 14  1  0  0  0  0
 15 16  1  0  0  0  0
 16 21  1  0  0  0  0
 17 18  1  0  0  0  0
 18 16  1  0  0  0  0
 18 20  1  0  0  0  0
 19 18  2  0  0  0  0
 21 30  1  0  0  0  0
 23 21  1  1  0  0  0
 23 25  1  0  0  0  0
 24 28  1  0  0  0  0
 24 26  1  0  0  0  0
 25 22  1  0  0  0  0
 26 27  1  0  0  0  0
 27 22  1  0  0  0  0
 28 23  1  0  0  0  0
 30 32  2  0  0  0  0
 30 31  1  0  0  0  0
 30 29  1  0  0  0  0
 33 34  1  0  0  0  0
 34 35  1  0  0  0  0
 35 36  1  0  0  0  0
 37 36  1  6  0  0  0
 37 48  1  0  0  0  0
 38 40  2  0  0  0  0
 39 38  1  0  0  0  0
 40 37  1  0  0  0  0
 41 42  1  6  0  0  0
 41 45  1  0  0  0  0
 41 38  1  0  0  0  0
 43 42  1  0  0  0  0
 44 43  1  0  0  0  0
 45 47  1  0  0  0  0
 47 46  2  0  0  0  0
 48 50  1  0  0  0  0
 50 49  1  1  0  0  0
 51 52  1  0  0  0  0
 53 54  1  0  0  0  0
 54 52  1  0  0  0  0
 56 55  1  6  0  0  0
 56 51  1  0  0  0  0
 57 50  1  1  0  0  0
 57 56  1  0  0  0  0
 57 53  1  0  0  0  0
M  END
>  <MODEL>
3

>  <REMARK>
 VINA RESULT:      -5.0      3.046      8.314
  Name = 
  26 active torsions:
  status: ('A' for Active; 'I' for Inactive)
    1  A    between atoms: C_1  and  C_27
    2  A    between atoms: C_4  and  C_27
    3  A    between atoms: C_4  and  C_54
    4  A    between atoms: C_5  and  C_16
    5  A    between atoms: C_6  and  C_35
    6  A    between atoms: P_8  and  N_55
    7  A    between atoms: C_9  and  C_21
    8  A    between atoms: C_9  and  O_29
    9  A    between atoms: C_10  and  C_42
   10  A    between atoms: C_10  and  N_55
   11  A    between atoms: C_14  and  C_30
   12  A    between atoms: C_14  and  N_52
   13  A    between atoms: C_14  and  C_53
   14  A    between atoms: C_16  and  N_49
   15  A    between atoms: P_18  and  N_28
   16  A    between atoms: C_19  and  C_23
   17  A    between atoms: C_19  and  C_42
   18  A    between atoms: C_21  and  C_31
   19  A    between atoms: C_23  and  C_46
   20  A    between atoms: C_27  and  C_35
   21  A    between atoms: N_28  and  C_34
   22  A    between atoms: N_28  and  N_55
   23  A    between atoms: O_29  and  C_30
   24  A    between atoms: C_32  and  C_53
   25  A    between atoms: C_32  and  C_57
   26  A    between atoms: C_46  and  N_49
                            x       y       z     vdW  Elec       q    Type
                         _______ _______ _______ _____ _____    ______ ____

>  <TORSDO>
F 26

$$$$
=
 OpenBabel11042417503D

 57 59  0  0  1  0  0  0  0  0999 V2000
  191.7680  170.6170  137.8600 C   0  0  0  0  0  0  0  0  0  0  0  0
  195.2950  171.3340  135.6260 N   0  0  0  0  0  1  0  0  0  0  0  0
  192.8690  171.1850  135.7690 C   0  0  0  0  0  3  0  0  0  0  0  0
  194.2000  170.7480  137.7490 C   0  0  0  0  0  0  0  0  0  0  0  0
  194.1180  171.0880  136.3870 C   0  0  0  0  0  0  0  0  0  0  0  0
  191.7020  170.9500  136.5000 C   0  0  0  0  0  3  0  0  0  0  0  0
  193.0280  170.5200  138.4780 C   0  0  0  0  0  3  0  0  0  0  0  0
  190.5200  170.3830  138.6220 C   0  0  0  0  0  0  0  0  0  0  0  0
  190.3230  169.2320  139.2630 C   0  0  0  0  0  2  0  0  0  0  0  0
  189.5230  171.4120  138.6670 N   0  0  0  0  0  2  0  0  0  0  0  0
  189.5240  172.4960  139.6360 C   0  0  0  0  0  2  0  0  0  0  0  0
  190.2450  172.0470  140.8900 C   0  0  0  0  0  2  0  0  0  0  0  0
  189.2810  172.0430  142.0570 C   0  0  0  0  0  2  0  0  0  0  0  0
  189.7360  173.0630  143.0770 C   0  0  0  0  0  2  0  0  0  0  0  0
  188.7920  174.2460  143.0650 C   0  0  0  0  0  2  0  0  0  0  0  0
  189.2810  175.2680  143.9980 N   0  0  0  0  0  0  0  0  0  0  0  0
  191.9470  175.5050  144.3250 O   0  0  0  0  0  1  0  0  0  0  0  0
  190.8070  175.9360  143.4300 P   0  0  0  0  0  0  0  0  0  0  0  0
  191.1050  175.4210  141.8460 O   0  0  0  0  0  0  0  0  0  0  0  0
  190.7050  177.6240  143.4460 O   0  0  0  0  0  1  0  0  0  0  0  0
  188.3590  176.3180  144.2850 N   0  0  0  0  0  0  0  0  0  0  0  0
  186.2280  178.5840  143.7440 C   0  0  0  0  0  2  0  0  0  0  0  0
  187.0200  176.1400  143.6460 C   0  0  1  0  0  3  0  0  0  0  0  0
  187.8400  177.2210  141.4180 C   0  0  0  0  0  2  0  0  0  0  0  0
  185.9280  177.1300  144.1010 C   0  0  0  0  0  2  0  0  0  0  0  0
  187.5870  178.6040  142.0100 C   0  0  0  0  0  2  0  0  0  0  0  0
  186.2440  178.7560  142.3570 O   0  0  0  0  0  0  0  0  0  0  0  0
  187.0830  176.0750  142.1100 C   0  0  0  0  0  2  0  0  0  0  0  0
  188.9900  175.0090  146.7250 O   0  0  0  0  0  1  0  0  0  0  0  0
  188.2420  176.3670  146.0510 P   0  0  0  0  0  0  0  0  0  0  0  0
  188.9000  177.6210  146.5830 O   0  0  0  0  0  1  0  0  0  0  0  0
  186.6140  176.3650  146.5080 O   0  0  0  0  0  0  0  0  0  0  0  0
  195.5190  170.6460  138.4420 C   0  0  0  0  0  2  0  0  0  0  0  0
  195.3130  170.4390  139.9300 C   0  0  0  0  0  2  0  0  0  0  0  0
  196.5250  170.6190  140.5920 O   0  0  0  0  0  0  0  0  0  0  0  0
  196.6140  171.9950  140.8020 C   0  0  0  0  0  2  0  0  0  0  0  0
  195.4760  172.5040  141.6870 C   0  0  1  0  0  3  0  0  0  0  0  0
  195.2030  172.2980  144.1210 C   0  0  0  0  0  0  0  0  0  0  0  0
  193.9030  171.5630  144.0350 C   0  0  0  0  0  1  0  0  0  0  0  0
  195.8650  172.6820  143.0760 N   0  0  0  0  0  0  0  0  0  0  0  0
  195.7530  172.5710  145.4910 C   0  0  1  0  0  3  0  0  0  0  0  0
  197.0260  171.7630  145.7160 C   0  0  0  0  0  2  0  0  0  0  0  0
  196.7110  170.3460  146.1700 C   0  0  0  0  0  2  0  0  0  0  0  0
  197.1360  169.3450  145.1120 C   0  0  0  0  0  1  0  0  0  0  0  0
  196.0230  174.0620  145.7000 C   0  0  0  0  0  2  0  0  0  0  0  0
  194.7880  176.1360  146.1590 C   0  0  0  0  0  2  0  0  0  0  0  0
  194.7650  174.8180  145.9870 C   0  0  0  0  0  3  0  0  0  0  0  0
  194.7290  173.7050  141.1090 C   0  0  0  0  0  2  0  0  0  0  0  0
  195.7940  175.5970  140.1430 O   0  0  0  0  0  1  0  0  0  0  0  0
  195.4640  174.2600  139.8960 C   0  0  2  0  0  3  0  0  0  0  0  0
  194.3290  174.7240  136.1920 C   0  0  0  0  0  2  0  0  0  0  0  0
  192.6660  175.4370  136.3830 S   0  0  0  0  0  0  0  0  0  0  0  0
  193.1450  174.5550  138.9220 C   0  0  0  0  0  2  0  0  0  0  0  0
  192.2410  174.2930  137.7290 C   0  0  0  0  0  2  0  0  0  0  0  0
  196.5890  174.5410  137.1230 C   0  0  0  0  0  1  0  0  0  0  0  0
  195.1590  174.9330  137.4520 C   0  0  2  0  0  3  0  0  0  0  0  0
  194.5880  174.1190  138.6330 C   0  0  1  0  0  3  0  0  0  0  0  0
  1  7  1  0  0  0  0
  1  8  1  0  0  0  0
  2  5  1  0  0  0  0
  3  5  2  0  0  0  0
  3  6  1  0  0  0  0
  4 33  1  0  0  0  0
  4  7  2  0  0  0  0
  5  4  1  0  0  0  0
  6  1  2  0  0  0  0
  8 10  1  0  0  0  0
  8  9  2  0  0  0  0
 10 11  1  0  0  0  0
 11 12  1  0  0  0  0
 12 13  1  0  0  0  0
 13 14  1  0  0  0  0
 15 14  1  0  0  0  0
 15 16  1  0  0  0  0
 16 21  1  0  0  0  0
 18 20  1  0  0  0  0
 18 16  1  0  0  0  0
 18 17  1  0  0  0  0
 19 18  2  0  0  0  0
 21 30  1  0  0  0  0
 22 25  1  0  0  0  0
 23 25  1  0  0  0  0
 23 21  1  6  0  0  0
 24 26  1  0  0  0  0
 24 28  1  0  0  0  0
 26 27  1  0  0  0  0
 27 22  1  0  0  0  0
 28 23  1  0  0  0  0
 30 32  2  0  0  0  0
 30 31  1  0  0  0  0
 30 29  1  0  0  0  0
 33 34  1  0  0  0  0
 34 35  1  0  0  0  0
 35 36  1  0  0  0  0
 37 36  1  6  0  0  0
 37 40  1  0  0  0  0
 38 41  1  0  0  0  0
 39 38  1  0  0  0  0
 40 38  2  0  0  0  0
 41 45  1  6  0  0  0
 41 42  1  0  0  0  0
 42 43  1  0  0  0  0
 44 43  1  0  0  0  0
 45 47  1  0  0  0  0
 47 46  2  0  0  0  0
 48 37  1  0  0  0  0
 50 49  1  1  0  0  0
 50 48  1  0  0  0  0
 51 52  1  0  0  0  0
 51 56  1  0  0  0  0
 52 54  1  0  0  0  0
 54 53  1  0  0  0  0
 56 55  1  6  0  0  0
 56 57  1  0  0  0  0
 57 53  1  0  0  0  0
 57 50  1  1  0  0  0
M  END
>  <MODEL>
4

>  <REMARK>
 VINA RESULT:      -4.7      3.196      8.330
  Name = 
  26 active torsions:
  status: ('A' for Active; 'I' for Inactive)
    1  A    between atoms: C_1  and  C_27
    2  A    between atoms: C_4  and  C_27
    3  A    between atoms: C_4  and  C_54
    4  A    between atoms: C_5  and  C_16
    5  A    between atoms: C_6  and  C_35
    6  A    between atoms: P_8  and  N_55
    7  A    between atoms: C_9  and  C_21
    8  A    between atoms: C_9  and  O_29
    9  A    between atoms: C_10  and  C_42
   10  A    between atoms: C_10  and  N_55
   11  A    between atoms: C_14  and  C_30
   12  A    between atoms: C_14  and  N_52
   13  A    between atoms: C_14  and  C_53
   14  A    between atoms: C_16  and  N_49
   15  A    between atoms: P_18  and  N_28
   16  A    between atoms: C_19  and  C_23
   17  A    between atoms: C_19  and  C_42
   18  A    between atoms: C_21  and  C_31
   19  A    between atoms: C_23  and  C_46
   20  A    between atoms: C_27  and  C_35
   21  A    between atoms: N_28  and  C_34
   22  A    between atoms: N_28  and  N_55
   23  A    between atoms: O_29  and  C_30
   24  A    between atoms: C_32  and  C_53
   25  A    between atoms: C_32  and  C_57
   26  A    between atoms: C_46  and  N_49
                            x       y       z     vdW  Elec       q    Type
                         _______ _______ _______ _____ _____    ______ ____

>  <TORSDO>
F 26

$$$$
=
 OpenBabel11042417503D

 57 59  0  0  1  0  0  0  0  0999 V2000
  188.3740  174.2940  137.9930 C   0  0  0  0  0  0  0  0  0  0  0  0
  190.7420  171.2970  136.1610 N   0  0  0  0  0  1  0  0  0  0  0  0
  189.5540  173.4200  136.0560 C   0  0  0  0  0  3  0  0  0  0  0  0
  189.5450  172.1610  138.1290 C   0  0  0  0  0  0  0  0  0  0  0  0
  189.9440  172.2960  136.7870 C   0  0  0  0  0  0  0  0  0  0  0  0
  188.7740  174.4120  136.6550 C   0  0  0  0  0  3  0  0  0  0  0  0
  188.7700  173.1600  138.7250 C   0  0  0  0  0  3  0  0  0  0  0  0
  187.5570  175.3620  138.6140 C   0  0  0  0  0  0  0  0  0  0  0  0
  186.6970  176.0680  137.8830 C   0  0  0  0  0  2  0  0  0  0  0  0
  187.6970  175.6260  140.0160 N   0  0  0  0  0  2  0  0  0  0  0  0
  187.1430  176.7980  140.6770 C   0  0  0  0  0  2  0  0  0  0  0  0
  188.2110  177.4340  141.5420 C   0  0  0  0  0  2  0  0  0  0  0  0
  187.5820  177.9760  142.8090 C   0  0  0  0  0  2  0  0  0  0  0  0
  188.2790  177.3670  144.0050 C   0  0  0  0  0  2  0  0  0  0  0  0
  189.6330  176.8350  143.5860 C   0  0  0  0  0  2  0  0  0  0  0  0
  189.8790  175.5520  144.2540 N   0  0  0  0  0  0  0  0  0  0  0  0
  190.4770  174.7280  141.7570 O   0  0  0  0  0  0  0  0  0  0  0  0
  189.9140  174.2460  143.0750 P   0  0  0  0  0  0  0  0  0  0  0  0
  190.8580  172.9690  143.6600 O   0  0  0  0  0  1  0  0  0  0  0  0
  188.3360  173.6900  142.8260 O   0  0  0  0  0  1  0  0  0  0  0  0
  191.0450  175.5080  145.0740 N   0  0  0  0  0  0  0  0  0  0  0  0
  193.9710  175.7520  146.2370 C   0  0  0  0  0  2  0  0  0  0  0  0
  192.0140  176.6140  144.8070 C   0  0  1  0  0  3  0  0  0  0  0  0
  193.4280  175.1120  143.2100 C   0  0  0  0  0  2  0  0  0  0  0  0
  193.0170  176.9090  145.9430 C   0  0  0  0  0  2  0  0  0  0  0  0
  194.1420  174.5180  144.4200 C   0  0  0  0  0  2  0  0  0  0  0  0
  194.8040  175.5130  145.1410 O   0  0  0  0  0  0  0  0  0  0  0  0
  192.7490  176.4690  143.4630 C   0  0  0  0  0  2  0  0  0  0  0  0
  191.6160  174.9290  147.7940 O   0  0  0  0  0  1  0  0  0  0  0  0
  190.4470  175.5460  146.7400 P   0  0  0  0  0  0  0  0  0  0  0  0
  190.1060  176.9640  147.1400 O   0  0  0  0  0  1  0  0  0  0  0  0
  189.0570  174.5910  146.8620 O   0  0  0  0  0  0  0  0  0  0  0  0
  189.9530  170.9750  138.9410 C   0  0  0  0  0  2  0  0  0  0  0  0
  190.6720  171.4250  140.1970 C   0  0  0  0  0  2  0  0  0  0  0  0
  191.8680  170.7200  140.3200 O   0  0  0  0  0  0  0  0  0  0  0  0
  192.7470  171.3560  139.4430 C   0  0  0  0  0  2  0  0  0  0  0  0
  194.1300  171.5410  140.0670 C   0  0  1  0  0  3  0  0  0  0  0  0
  194.4330  173.8410  139.2560 C   0  0  0  0  0  0  0  0  0  0  0  0
  193.0390  174.2700  139.5880 C   0  0  0  0  0  1  0  0  0  0  0  0
  194.8760  172.6460  139.4900 N   0  0  0  0  0  0  0  0  0  0  0  0
  195.3440  174.8660  138.6460 C   0  0  1  0  0  3  0  0  0  0  0  0
  196.6130  175.0020  139.4790 C   0  0  0  0  0  2  0  0  0  0  0  0
  196.2910  175.1790  140.9550 C   0  0  0  0  0  2  0  0  0  0  0  0
  196.3610  176.6450  141.3390 C   0  0  0  0  0  1  0  0  0  0  0  0
  195.6920  174.5150  137.1970 C   0  0  0  0  0  2  0  0  0  0  0  0
  194.2180  175.3670  135.4260 C   0  0  0  0  0  2  0  0  0  0  0  0
  195.2430  175.5780  136.2470 C   0  0  0  0  0  3  0  0  0  0  0  0
  194.1260  171.5460  141.5950 C   0  0  0  0  0  2  0  0  0  0  0  0
  196.0490  170.1500  141.5850 O   0  0  0  0  0  1  0  0  0  0  0  0
  195.5340  171.3300  142.1350 C   0  0  2  0  0  3  0  0  0  0  0  0
  196.8350  171.6090  145.8030 C   0  0  0  0  0  2  0  0  0  0  0  0
  196.5130  169.9420  146.4560 S   0  0  0  0  0  0  0  0  0  0  0  0
  195.0380  169.8910  144.1590 C   0  0  0  0  0  2  0  0  0  0  0  0
  194.8760  169.8610  145.6700 C   0  0  0  0  0  2  0  0  0  0  0  0
  197.4080  172.9520  143.8340 C   0  0  0  0  0  1  0  0  0  0  0  0
  196.8920  171.5950  144.2800 C   0  0  2  0  0  3  0  0  0  0  0  0
  195.5090  171.2700  143.6760 C   0  0  1  0  0  3  0  0  0  0  0  0
  1  8  1  0  0  0  0
  1  7  1  0  0  0  0
  2  5  1  0  0  0  0
  3  6  1  0  0  0  0
  3  5  2  0  0  0  0
  4  7  2  0  0  0  0
  4 33  1  0  0  0  0
  5  4  1  0  0  0  0
  6  1  2  0  0  0  0
  8 10  1  0  0  0  0
  9  8  2  0  0  0  0
 10 11  1  0  0  0  0
 11 12  1  0  0  0  0
 12 13  1  0  0  0  0
 13 14  1  0  0  0  0
 15 14  1  0  0  0  0
 15 16  1  0  0  0  0
 16 21  1  0  0  0  0
 17 18  2  0  0  0  0
 18 19  1  0  0  0  0
 18 16  1  0  0  0  0
 20 18  1  0  0  0  0
 21 30  1  0  0  0  0
 23 21  1  1  0  0  0
 23 25  1  0  0  0  0
 24 28  1  0  0  0  0
 24 26  1  0  0  0  0
 25 22  1  0  0  0  0
 26 27  1  0  0  0  0
 27 22  1  0  0  0  0
 28 23  1  0  0  0  0
 30 32  2  0  0  0  0
 30 31  1  0  0  0  0
 30 29  1  0  0  0  0
 33 34  1  0  0  0  0
 34 35  1  0  0  0  0
 36 35  1  0  0  0  0
 37 36  1  6  0  0  0
 37 48  1  0  0  0  0
 38 40  2  0  0  0  0
 38 39  1  0  0  0  0
 40 37  1  0  0  0  0
 41 45  1  6  0  0  0
 41 38  1  0  0  0  0
 41 42  1  0  0  0  0
 42 43  1  0  0  0  0
 43 44  1  0  0  0  0
 46 47  2  0  0  0  0
 47 45  1  0  0  0  0
 48 50  1  0  0  0  0
 50 49  1  6  0  0  0
 51 52  1  0  0  0  0
 53 54  1  0  0  0  0
 54 52  1  0  0  0  0
 56 55  1  6  0  0  0
 56 51  1  0  0  0  0
 57 50  1  6  0  0  0
 57 53  1  0  0  0  0
 57 56  1  0  0  0  0
M  END
>  <MODEL>
5

>  <REMARK>
 VINA RESULT:      -4.7      2.917      7.535
  Name = 
  26 active torsions:
  status: ('A' for Active; 'I' for Inactive)
    1  A    between atoms: C_1  and  C_27
    2  A    between atoms: C_4  and  C_27
    3  A    between atoms: C_4  and  C_54
    4  A    between atoms: C_5  and  C_16
    5  A    between atoms: C_6  and  C_35
    6  A    between atoms: P_8  and  N_55
    7  A    between atoms: C_9  and  C_21
    8  A    between atoms: C_9  and  O_29
    9  A    between atoms: C_10  and  C_42
   10  A    between atoms: C_10  and  N_55
   11  A    between atoms: C_14  and  C_30
   12  A    between atoms: C_14  and  N_52
   13  A    between atoms: C_14  and  C_53
   14  A    between atoms: C_16  and  N_49
   15  A    between atoms: P_18  and  N_28
   16  A    between atoms: C_19  and  C_23
   17  A    between atoms: C_19  and  C_42
   18  A    between atoms: C_21  and  C_31
   19  A    between atoms: C_23  and  C_46
   20  A    between atoms: C_27  and  C_35
   21  A    between atoms: N_28  and  C_34
   22  A    between atoms: N_28  and  N_55
   23  A    between atoms: O_29  and  C_30
   24  A    between atoms: C_32  and  C_53
   25  A    between atoms: C_32  and  C_57
   26  A    between atoms: C_46  and  N_49
                            x       y       z     vdW  Elec       q    Type
                         _______ _______ _______ _____ _____    ______ ____

>  <TORSDO>
F 26

$$$$
=
 OpenBabel11042417503D

 57 59  0  0  1  0  0  0  0  0999 V2000
  192.0770  169.7200  138.5390 C   0  0  0  0  0  0  0  0  0  0  0  0
  195.3060  169.3250  135.8250 N   0  0  0  0  0  1  0  0  0  0  0  0
  192.9160  169.4390  136.2750 C   0  0  0  0  0  3  0  0  0  0  0  0
  194.4760  169.6000  138.1240 C   0  0  0  0  0  0  0  0  0  0  0  0
  194.2300  169.4550  136.7470 C   0  0  0  0  0  0  0  0  0  0  0  0
  191.8470  169.5690  137.1640 C   0  0  0  0  0  3  0  0  0  0  0  0
  193.4020  169.7360  139.0100 C   0  0  0  0  0  3  0  0  0  0  0  0
  190.9310  169.8690  139.4650 C   0  0  0  0  0  0  0  0  0  0  0  0
  190.7940  169.0530  140.5090 C   0  0  0  0  0  2  0  0  0  0  0  0
  189.9700  170.9050  139.2310 N   0  0  0  0  0  2  0  0  0  0  0  0
  190.1920  172.3040  139.5620 C   0  0  0  0  0  2  0  0  0  0  0  0
  190.4450  172.4310  141.0500 C   0  0  0  0  0  2  0  0  0  0  0  0
  189.1620  172.8200  141.7520 C   0  0  0  0  0  2  0  0  0  0  0  0
  189.0800  174.3280  141.8330 C   0  0  0  0  0  2  0  0  0  0  0  0
  188.7990  174.7440  143.2620 C   0  0  0  0  0  2  0  0  0  0  0  0
  189.4780  176.0150  143.5400 N   0  0  0  0  0  0  0  0  0  0  0  0
  187.9420  178.1660  143.0030 O   0  0  0  0  0  0  0  0  0  0  0  0
  188.3220  177.2120  144.1130 P   0  0  0  0  0  0  0  0  0  0  0  0
  186.9350  176.4400  144.6950 O   0  0  0  0  0  1  0  0  0  0  0  0
  189.0270  178.0930  145.3740 O   0  0  0  0  0  1  0  0  0  0  0  0
  190.5830  175.9280  144.4360 N   0  0  0  0  0  0  0  0  0  0  0  0
  192.4290  175.1770  146.8860 C   0  0  0  0  0  2  0  0  0  0  0  0
  190.8110  174.5570  144.9860 C   0  0  1  0  0  3  0  0  0  0  0  0
  189.2960  175.0370  147.0550 C   0  0  0  0  0  2  0  0  0  0  0  0
  192.1880  174.3230  145.6430 C   0  0  0  0  0  2  0  0  0  0  0  0
  190.4740  175.7190  147.7440 C   0  0  0  0  0  2  0  0  0  0  0  0
  191.5370  174.8280  147.9030 O   0  0  0  0  0  0  0  0  0  0  0  0
  189.6810  174.0790  145.9160 C   0  0  0  0  0  2  0  0  0  0  0  0
  191.5360  177.8130  142.5390 O   0  0  0  0  0  1  0  0  0  0  0  0
  191.9800  176.5050  143.5130 P   0  0  0  0  0  0  0  0  0  0  0  0
  193.0880  176.9280  144.4520 O   0  0  0  0  0  1  0  0  0  0  0  0
  192.5490  175.2630  142.5160 O   0  0  0  0  0  0  0  0  0  0  0  0
  195.8700  169.6310  138.6610 C   0  0  0  0  0  2  0  0  0  0  0  0
  195.8510  169.4970  140.1710 C   0  0  0  0  0  2  0  0  0  0  0  0
  197.0060  170.0710  140.6980 O   0  0  0  0  0  0  0  0  0  0  0  0
  196.9090  171.4250  140.3760 C   0  0  0  0  0  2  0  0  0  0  0  0
  195.7820  172.1070  141.1510 C   0  0  1  0  0  3  0  0  0  0  0  0
  195.1490  171.9720  143.5230 C   0  0  0  0  0  0  0  0  0  0  0  0
  193.7200  171.6310  143.2470 C   0  0  0  0  0  1  0  0  0  0  0  0
  196.0220  172.1620  142.5840 N   0  0  0  0  0  0  0  0  0  0  0  0
  195.5710  172.0730  144.9600 C   0  0  1  0  0  3  0  0  0  0  0  0
  196.2830  170.7950  145.3880 C   0  0  0  0  0  2  0  0  0  0  0  0
  195.4890  170.0460  146.4480 C   0  0  0  0  0  2  0  0  0  0  0  0
  194.9170  168.7650  145.8720 C   0  0  0  0  0  1  0  0  0  0  0  0
  196.4690  173.2890  145.1970 C   0  0  0  0  0  2  0  0  0  0  0  0
  196.0990  175.5540  144.3190 C   0  0  0  0  0  2  0  0  0  0  0  0
  195.6990  174.5690  145.1180 C   0  0  0  0  0  3  0  0  0  0  0  0
  195.3430  173.4460  140.5600 C   0  0  0  0  0  2  0  0  0  0  0  0
  196.8110  174.8490  139.3240 O   0  0  0  0  0  1  0  0  0  0  0  0
  196.0300  173.6920  139.2220 C   0  0  2  0  0  3  0  0  0  0  0  0
  194.4670  174.7640  135.8120 C   0  0  0  0  0  2  0  0  0  0  0  0
  192.9540  175.6280  136.3340 S   0  0  0  0  0  0  0  0  0  0  0  0
  193.6580  174.3720  138.6530 C   0  0  0  0  0  2  0  0  0  0  0  0
  192.5720  174.3720  137.5900 C   0  0  0  0  0  2  0  0  0  0  0  0
  196.7910  174.2070  136.3610 C   0  0  0  0  0  1  0  0  0  0  0  0
  195.4830  174.7110  136.9460 C   0  0  2  0  0  3  0  0  0  0  0  0
  194.9790  173.8170  138.1000 C   0  0  1  0  0  3  0  0  0  0  0  0
  1  7  1  0  0  0  0
  1  8  1  0  0  0  0
  2  5  1  0  0  0  0
  3  5  2  0  0  0  0
  3  6  1  0  0  0  0
  4 33  1  0  0  0  0
  4  7  2  0  0  0  0
  5  4  1  0  0  0  0
  6  1  2  0  0  0  0
  8  9  2  0  0  0  0
 10  8  1  0  0  0  0
 10 11  1  0  0  0  0
 11 12  1  0  0  0  0
 12 13  1  0  0  0  0
 13 14  1  0  0  0  0
 14 15  1  0  0  0  0
 15 16  1  0  0  0  0
 16 18  1  0  0  0  0
 16 21  1  0  0  0  0
 17 18  2  0  0  0  0
 18 19  1  0  0  0  0
 18 20  1  0  0  0  0
 22 27  1  0  0  0  0
 23 21  1  1  0  0  0
 23 25  1  0  0  0  0
 23 28  1  0  0  0  0
 24 26  1  0  0  0  0
 25 22  1  0  0  0  0
 26 27  1  0  0  0  0
 28 24  1  0  0  0  0
 29 30  1  0  0  0  0
 30 21  1  0  0  0  0
 30 31  1  0  0  0  0
 32 30  2  0  0  0  0
 33 34  1  0  0  0  0
 34 35  1  0  0  0  0
 36 35  1  0  0  0  0
 37 36  1  6  0  0  0
 37 40  1  0  0  0  0
 38 41  1  0  0  0  0
 39 38  1  0  0  0  0
 40 38  2  0  0  0  0
 41 45  1  6  0  0  0
 41 42  1  0  0  0  0
 42 43  1  0  0  0  0
 44 43  1  0  0  0  0
 46 47  2  0  0  0  0
 47 45  1  0  0  0  0
 48 37  1  0  0  0  0
 50 49  1  1  0  0  0
 50 48  1  0  0  0  0
 51 52  1  0  0  0  0
 51 56  1  0  0  0  0
 52 54  1  0  0  0  0
 54 53  1  0  0  0  0
 56 55  1  6  0  0  0
 56 57  1  0  0  0  0
 57 53  1  0  0  0  0
 57 50  1  1  0  0  0
M  END
>  <MODEL>
6

>  <REMARK>
 VINA RESULT:      -4.6      3.627      8.413
  Name = 
  26 active torsions:
  status: ('A' for Active; 'I' for Inactive)
    1  A    between atoms: C_1  and  C_27
    2  A    between atoms: C_4  and  C_27
    3  A    between atoms: C_4  and  C_54
    4  A    between atoms: C_5  and  C_16
    5  A    between atoms: C_6  and  C_35
    6  A    between atoms: P_8  and  N_55
    7  A    between atoms: C_9  and  C_21
    8  A    between atoms: C_9  and  O_29
    9  A    between atoms: C_10  and  C_42
   10  A    between atoms: C_10  and  N_55
   11  A    between atoms: C_14  and  C_30
   12  A    between atoms: C_14  and  N_52
   13  A    between atoms: C_14  and  C_53
   14  A    between atoms: C_16  and  N_49
   15  A    between atoms: P_18  and  N_28
   16  A    between atoms: C_19  and  C_23
   17  A    between atoms: C_19  and  C_42
   18  A    between atoms: C_21  and  C_31
   19  A    between atoms: C_23  and  C_46
   20  A    between atoms: C_27  and  C_35
   21  A    between atoms: N_28  and  C_34
   22  A    between atoms: N_28  and  N_55
   23  A    between atoms: O_29  and  C_30
   24  A    between atoms: C_32  and  C_53
   25  A    between atoms: C_32  and  C_57
   26  A    between atoms: C_46  and  N_49
                            x       y       z     vdW  Elec       q    Type
                         _______ _______ _______ _____ _____    ______ ____

>  <TORSDO>
F 26

$$$$
=
 OpenBabel11042417503D

 57 59  0  0  1  0  0  0  0  0999 V2000
  196.0550  173.3570  143.4610 C   0  0  0  0  0  0  0  0  0  0  0  0
  193.4430  174.6400  146.5390 N   0  0  0  0  0  1  0  0  0  0  0  0
  195.6320  174.6520  145.4740 C   0  0  0  0  0  3  0  0  0  0  0  0
  193.8550  173.3140  144.5080 C   0  0  0  0  0  0  0  0  0  0  0  0
  194.3120  174.1990  145.5020 C   0  0  0  0  0  0  0  0  0  0  0  0
  196.4990  174.2340  144.4620 C   0  0  0  0  0  3  0  0  0  0  0  0
  194.7240  172.9040  143.4930 C   0  0  0  0  0  3  0  0  0  0  0  0
  196.9850  172.9340  142.3890 C   0  0  0  0  0  0  0  0  0  0  0  0
  197.9400  172.0380  142.6350 C   0  0  0  0  0  2  0  0  0  0  0  0
  196.8450  173.4950  141.0780 N   0  0  0  0  0  2  0  0  0  0  0  0
  196.9590  174.9160  140.7900 C   0  0  0  0  0  2  0  0  0  0  0  0
  197.2830  175.1040  139.3220 C   0  0  0  0  0  2  0  0  0  0  0  0
  197.3640  173.7540  138.6430 C   0  0  0  0  0  2  0  0  0  0  0  0
  196.2320  173.6320  137.6480 C   0  0  0  0  0  2  0  0  0  0  0  0
  195.1230  172.7890  138.2430 C   0  0  0  0  0  2  0  0  0  0  0  0
  194.2060  172.3700  137.1770 N   0  0  0  0  0  0  0  0  0  0  0  0
  195.8040  170.6040  135.9110 O   0  0  0  0  0  1  0  0  0  0  0  0
  194.5270  170.7020  136.7160 P   0  0  0  0  0  0  0  0  0  0  0  0
  194.6550  169.7370  138.0990 O   0  0  0  0  0  1  0  0  0  0  0  0
  193.2420  170.1380  135.7720 O   0  0  0  0  0  0  0  0  0  0  0  0
  192.8210  172.5440  137.4660 N   0  0  0  0  0  0  0  0  0  0  0  0
  189.9980  172.8340  138.8520 C   0  0  0  0  0  2  0  0  0  0  0  0
  192.5520  173.1330  138.8130 C   0  0  1  0  0  3  0  0  0  0  0  0
  192.1480  170.7790  139.8620 C   0  0  0  0  0  2  0  0  0  0  0  0
  191.1730  173.8020  138.9840 C   0  0  0  0  0  2  0  0  0  0  0  0
  190.7120  170.8100  139.3490 C   0  0  0  0  0  2  0  0  0  0  0  0
  190.0180  171.8960  139.8870 O   0  0  0  0  0  0  0  0  0  0  0  0
  192.8250  172.1550  139.9700 C   0  0  0  0  0  2  0  0  0  0  0  0
  190.9950  172.7520  135.3020 O   0  0  0  0  0  1  0  0  0  0  0  0
  192.1970  173.5690  136.1650 P   0  0  0  0  0  0  0  0  0  0  0  0
  191.6260  174.8480  136.7350 O   0  0  0  0  0  1  0  0  0  0  0  0
  193.4530  173.9550  135.1000 O   0  0  0  0  0  0  0  0  0  0  0  0
  192.4460  172.8190  144.5030 C   0  0  0  0  0  2  0  0  0  0  0  0
  191.6220  173.5940  143.4940 C   0  0  0  0  0  2  0  0  0  0  0  0
  191.7930  174.9590  143.7140 O   0  0  0  0  0  0  0  0  0  0  0  0
  191.0730  175.5760  142.6900 C   0  0  0  0  0  2  0  0  0  0  0  0
  189.6770  175.9910  143.1540 C   0  0  1  0  0  3  0  0  0  0  0  0
  189.3490  175.6920  145.5730 C   0  0  0  0  0  0  0  0  0  0  0  0
  189.0260  174.2350  145.4710 C   0  0  0  0  0  1  0  0  0  0  0  0
  189.6390  176.4230  144.5420 N   0  0  0  0  0  0  0  0  0  0  0  0
  189.3520  176.3060  146.9430 C   0  0  1  0  0  3  0  0  0  0  0  0
  190.7800  176.6210  147.3730 C   0  0  0  0  0  2  0  0  0  0  0  0
  190.8720  177.9900  148.0300 C   0  0  0  0  0  2  0  0  0  0  0  0
  191.5220  177.8770  149.3960 C   0  0  0  0  0  1  0  0  0  0  0  0
  188.4890  177.5680  146.9930 C   0  0  0  0  0  2  0  0  0  0  0  0
  186.2490  178.2680  147.7220 C   0  0  0  0  0  2  0  0  0  0  0  0
  187.1370  177.2900  147.5700 C   0  0  0  0  0  3  0  0  0  0  0  0
  188.9650  176.9500  142.2020 C   0  0  0  0  0  2  0  0  0  0  0  0
  187.8870  175.7630  140.4480 O   0  0  0  0  0  1  0  0  0  0  0  0
  187.6610  176.3400  141.7030 C   0  0  2  0  0  3  0  0  0  0  0  0
  184.3960  178.2600  142.6410 C   0  0  0  0  0  2  0  0  0  0  0  0
  183.4870  178.2700  141.0650 S   0  0  0  0  0  0  0  0  0  0  0  0
  185.9700  177.5090  140.2240 C   0  0  0  0  0  2  0  0  0  0  0  0
  184.9830  178.6590  140.1100 C   0  0  0  0  0  2  0  0  0  0  0  0
  185.9660  177.0480  144.0810 C   0  0  0  0  0  1  0  0  0  0  0  0
  185.4370  177.1470  142.6620 C   0  0  2  0  0  3  0  0  0  0  0  0
  186.5610  177.4200  141.6380 C   0  0  1  0  0  3  0  0  0  0  0  0
  1  7  2  0  0  0  0
  1  6  1  0  0  0  0
  3  5  1  0  0  0  0
  4  5  2  0  0  0  0
  5  2  1  0  0  0  0
  6  3  2  0  0  0  0
  7  4  1  0  0  0  0
  8  9  2  0  0  0  0
  8  1  1  0  0  0  0
 10  8  1  0  0  0  0
 11 10  1  0  0  0  0
 12 11  1  0  0  0  0
 13 12  1  0  0  0  0
 14 15  1  0  0  0  0
 14 13  1  0  0  0  0
 16 21  1  0  0  0  0
 16 15  1  0  0  0  0
 17 18  1  0  0  0  0
 18 16  1  0  0  0  0
 18 19  1  0  0  0  0
 20 18  2  0  0  0  0
 22 25  1  0  0  0  0
 22 27  1  0  0  0  0
 23 21  1  6  0  0  0
 23 25  1  0  0  0  0
 23 28  1  0  0  0  0
 24 28  1  0  0  0  0
 26 24  1  0  0  0  0
 26 27  1  0  0  0  0
 29 30  1  0  0  0  0
 30 31  1  0  0  0  0
 30 21  1  0  0  0  0
 32 30  2  0  0  0  0
 33  4  1  0  0  0  0
 34 35  1  0  0  0  0
 34 33  1  0  0  0  0
 36 37  1  0  0  0  0
 36 35  1  0  0  0  0
 37 48  1  6  0  0  0
 37 40  1  0  0  0  0
 38 41  1  0  0  0  0
 39 38  1  0  0  0  0
 40 38  2  0  0  0  0
 41 45  1  6  0  0  0
 41 42  1  0  0  0  0
 42 43  1  0  0  0  0
 43 44  1  0  0  0  0
 45 47  1  0  0  0  0
 47 46  2  0  0  0  0
 50 49  1  6  0  0  0
 50 48  1  0  0  0  0
 51 56  1  0  0  0  0
 52 51  1  0  0  0  0
 53 57  1  0  0  0  0
 54 53  1  0  0  0  0
 54 52  1  0  0  0  0
 56 55  1  1  0  0  0
 57 50  1  6  0  0  0
 57 56  1  0  0  0  0
M  END
>  <MODEL>
7

>  <REMARK>
 VINA RESULT:      -4.1      3.021      7.954
  Name = 
  26 active torsions:
  status: ('A' for Active; 'I' for Inactive)
    1  A    between atoms: C_1  and  C_27
    2  A    between atoms: C_4  and  C_27
    3  A    between atoms: C_4  and  C_54
    4  A    between atoms: C_5  and  C_16
    5  A    between atoms: C_6  and  C_35
    6  A    between atoms: P_8  and  N_55
    7  A    between atoms: C_9  and  C_21
    8  A    between atoms: C_9  and  O_29
    9  A    between atoms: C_10  and  C_42
   10  A    between atoms: C_10  and  N_55
   11  A    between atoms: C_14  and  C_30
   12  A    between atoms: C_14  and  N_52
   13  A    between atoms: C_14  and  C_53
   14  A    between atoms: C_16  and  N_49
   15  A    between atoms: P_18  and  N_28
   16  A    between atoms: C_19  and  C_23
   17  A    between atoms: C_19  and  C_42
   18  A    between atoms: C_21  and  C_31
   19  A    between atoms: C_23  and  C_46
   20  A    between atoms: C_27  and  C_35
   21  A    between atoms: N_28  and  C_34
   22  A    between atoms: N_28  and  N_55
   23  A    between atoms: O_29  and  C_30
   24  A    between atoms: C_32  and  C_53
   25  A    between atoms: C_32  and  C_57
   26  A    between atoms: C_46  and  N_49
                            x       y       z     vdW  Elec       q    Type
                         _______ _______ _______ _____ _____    ______ ____

>  <TORSDO>
F 26

$$$$
=
 OpenBabel11042417503D

 57 59  0  0  1  0  0  0  0  0999 V2000
  196.5260  172.8890  144.6510 C   0  0  0  0  0  0  0  0  0  0  0  0
  195.8430  168.8380  145.6880 N   0  0  0  0  0  1  0  0  0  0  0  0
  196.7720  171.0310  146.1980 C   0  0  0  0  0  3  0  0  0  0  0  0
  195.5930  170.7040  144.1050 C   0  0  0  0  0  0  0  0  0  0  0  0
  196.0690  170.1960  145.3270 C   0  0  0  0  0  0  0  0  0  0  0  0
  197.0000  172.3670  145.8630 C   0  0  0  0  0  3  0  0  0  0  0  0
  195.8180  172.0440  143.7760 C   0  0  0  0  0  3  0  0  0  0  0  0
  196.7670  174.3110  144.3180 C   0  0  0  0  0  0  0  0  0  0  0  0
  197.9410  174.7010  143.8240 C   0  0  0  0  0  2  0  0  0  0  0  0
  195.7210  175.2670  144.5270 N   0  0  0  0  0  2  0  0  0  0  0  0
  195.0610  175.4780  145.8060 C   0  0  0  0  0  2  0  0  0  0  0  0
  193.7850  174.6640  145.8510 C   0  0  0  0  0  2  0  0  0  0  0  0
  192.7690  175.2600  144.9000 C   0  0  0  0  0  2  0  0  0  0  0  0
  192.2800  176.5770  145.4610 C   0  0  0  0  0  2  0  0  0  0  0  0
  190.9370  176.9200  144.8510 C   0  0  0  0  0  2  0  0  0  0  0  0
  190.0220  175.7860  145.0220 N   0  0  0  0  0  0  0  0  0  0  0  0
  189.1740  177.4470  146.9700 O   0  0  0  0  0  1  0  0  0  0  0  0
  188.9080  176.0930  146.3500 P   0  0  0  0  0  0  0  0  0  0  0  0
  187.3140  176.0300  145.7900 O   0  0  0  0  0  0  0  0  0  0  0  0
  189.1210  174.9000  147.5300 O   0  0  0  0  0  1  0  0  0  0  0  0
  189.3000  175.4070  143.8520 N   0  0  0  0  0  0  0  0  0  0  0  0
  187.6530  175.4930  141.1590 C   0  0  0  0  0  2  0  0  0  0  0  0
  189.6060  176.2450  142.6540 C   0  0  1  0  0  3  0  0  0  0  0  0
  187.6520  177.8870  143.1920 C   0  0  0  0  0  2  0  0  0  0  0  0
  189.1660  175.6560  141.2970 C   0  0  0  0  0  2  0  0  0  0  0  0
  186.6770  176.9310  142.5130 C   0  0  0  0  0  2  0  0  0  0  0  0
  187.0230  176.7400  141.1740 O   0  0  0  0  0  0  0  0  0  0  0  0
  189.1240  177.7010  142.7910 C   0  0  0  0  0  2  0  0  0  0  0  0
  188.3790  172.8810  142.9400 O   0  0  0  0  0  1  0  0  0  0  0  0
  189.7070  173.7050  143.5820 P   0  0  0  0  0  0  0  0  0  0  0  0
  190.8780  173.5910  142.6320 O   0  0  0  0  0  0  0  0  0  0  0  0
  190.1240  172.9850  145.0550 O   0  0  0  0  0  1  0  0  0  0  0  0
  194.8290  169.8410  143.1540 C   0  0  0  0  0  2  0  0  0  0  0  0
  194.0790  170.7000  142.1550 C   0  0  0  0  0  2  0  0  0  0  0  0
  193.1550  169.9130  141.4730 O   0  0  0  0  0  0  0  0  0  0  0  0
  193.5030  170.0400  140.1280 C   0  0  0  0  0  2  0  0  0  0  0  0
  193.7380  171.5010  139.7440 C   0  0  1  0  0  3  0  0  0  0  0  0
  195.8710  172.0250  138.6380 C   0  0  0  0  0  0  0  0  0  0  0  0
  196.5950  172.3260  139.9120 C   0  0  0  0  0  1  0  0  0  0  0  0
  194.6280  171.6570  138.6050 N   0  0  0  0  0  0  0  0  0  0  0  0
  196.6460  172.1410  137.3580 C   0  0  1  0  0  3  0  0  0  0  0  0
  196.7540  170.7770  136.6850 C   0  0  0  0  0  2  0  0  0  0  0  0
  196.4960  170.8750  135.1890 C   0  0  0  0  0  2  0  0  0  0  0  0
  195.5620  169.7660  134.7410 C   0  0  0  0  0  1  0  0  0  0  0  0
  196.0090  173.1560  136.4070 C   0  0  0  0  0  2  0  0  0  0  0  0
  196.0680  175.6100  136.2800 C   0  0  0  0  0  2  0  0  0  0  0  0
  195.9270  174.5160  137.0240 C   0  0  0  0  0  3  0  0  0  0  0  0
  192.4580  172.3270  139.6290 C   0  0  0  0  0  2  0  0  0  0  0  0
  192.9650  174.6250  139.9590 O   0  0  0  0  0  1  0  0  0  0  0  0
  192.7440  173.6670  138.9630 C   0  0  2  0  0  3  0  0  0  0  0  0
  189.3190  173.3820  137.1160 C   0  0  0  0  0  2  0  0  0  0  0  0
  189.8000  173.5920  135.3740 S   0  0  0  0  0  0  0  0  0  0  0  0
  192.0720  174.4220  136.6410 C   0  0  0  0  0  2  0  0  0  0  0  0
  190.9440  174.9480  135.7680 C   0  0  0  0  0  2  0  0  0  0  0  0
  189.9770  172.5530  139.3270 C   0  0  0  0  0  1  0  0  0  0  0  0
  190.5100  172.9450  137.9600 C   0  0  2  0  0  3  0  0  0  0  0  0
  191.5690  174.0670  138.0470 C   0  0  1  0  0  3  0  0  0  0  0  0
  1  6  1  0  0  0  0
  4  5  2  0  0  0  0
  5  2  1  0  0  0  0
  5  3  1  0  0  0  0
  6  3  2  0  0  0  0
  7  4  1  0  0  0  0
  7  1  2  0  0  0  0
  8 10  1  0  0  0  0
  8  1  1  0  0  0  0
  9  8  2  0  0  0  0
 10 11  1  0  0  0  0
 11 12  1  0  0  0  0
 13 14  1  0  0  0  0
 13 12  1  0  0  0  0
 15 16  1  0  0  0  0
 15 14  1  0  0  0  0
 16 18  1  0  0  0  0
 18 17  1  0  0  0  0
 18 20  1  0  0  0  0
 19 18  2  0  0  0  0
 21 16  1  0  0  0  0
 22 27  1  0  0  0  0
 22 25  1  0  0  0  0
 23 28  1  0  0  0  0
 23 21  1  1  0  0  0
 25 23  1  0  0  0  0
 26 24  1  0  0  0  0
 27 26  1  0  0  0  0
 28 24  1  0  0  0  0
 29 30  1  0  0  0  0
 30 21  1  0  0  0  0
 30 32  1  0  0  0  0
 31 30  2  0  0  0  0
 33  4  1  0  0  0  0
 34 33  1  0  0  0  0
 35 34  1  0  0  0  0
 36 35  1  0  0  0  0
 37 48  1  6  0  0  0
 37 36  1  0  0  0  0
 38 39  1  0  0  0  0
 40 38  2  0  0  0  0
 40 37  1  0  0  0  0
 41 45  1  6  0  0  0
 41 38  1  0  0  0  0
 42 41  1  0  0  0  0
 43 42  1  0  0  0  0
 44 43  1  0  0  0  0
 45 47  1  0  0  0  0
 46 47  2  0  0  0  0
 50 48  1  0  0  0  0
 50 49  1  1  0  0  0
 51 56  1  0  0  0  0
 52 54  1  0  0  0  0
 52 51  1  0  0  0  0
 53 57  1  0  0  0  0
 54 53  1  0  0  0  0
 56 57  1  0  0  0  0
 56 55  1  1  0  0  0
 57 50  1  1  0  0  0
M  END
>  <MODEL>
8

>  <REMARK>
 VINA RESULT:      -4.1      3.159      8.763
  Name = 
  26 active torsions:
  status: ('A' for Active; 'I' for Inactive)
    1  A    between atoms: C_1  and  C_27
    2  A    between atoms: C_4  and  C_27
    3  A    between atoms: C_4  and  C_54
    4  A    between atoms: C_5  and  C_16
    5  A    between atoms: C_6  and  C_35
    6  A    between atoms: P_8  and  N_55
    7  A    between atoms: C_9  and  C_21
    8  A    between atoms: C_9  and  O_29
    9  A    between atoms: C_10  and  C_42
   10  A    between atoms: C_10  and  N_55
   11  A    between atoms: C_14  and  C_30
   12  A    between atoms: C_14  and  N_52
   13  A    between atoms: C_14  and  C_53
   14  A    between atoms: C_16  and  N_49
   15  A    between atoms: P_18  and  N_28
   16  A    between atoms: C_19  and  C_23
   17  A    between atoms: C_19  and  C_42
   18  A    between atoms: C_21  and  C_31
   19  A    between atoms: C_23  and  C_46
   20  A    between atoms: C_27  and  C_35
   21  A    between atoms: N_28  and  C_34
   22  A    between atoms: N_28  and  N_55
   23  A    between atoms: O_29  and  C_30
   24  A    between atoms: C_32  and  C_53
   25  A    between atoms: C_32  and  C_57
   26  A    between atoms: C_46  and  N_49
                            x       y       z     vdW  Elec       q    Type
                         _______ _______ _______ _____ _____    ______ ____

>  <TORSDO>
F 26

$$$$
=
 OpenBabel11042417503D

 57 59  0  0  1  0  0  0  0  0999 V2000
  195.3060  173.8010  144.7180 C   0  0  0  0  0  0  0  0  0  0  0  0
  197.1830  170.0860  145.5080 N   0  0  0  0  0  1  0  0  0  0  0  0
  196.8150  172.4330  146.0440 C   0  0  0  0  0  3  0  0  0  0  0  0
  195.6600  171.4580  144.1480 C   0  0  0  0  0  0  0  0  0  0  0  0
  196.5480  171.3300  145.2310 C   0  0  0  0  0  0  0  0  0  0  0  0
  196.1990  173.6600  145.7900 C   0  0  0  0  0  3  0  0  0  0  0  0
  195.0410  172.6870  143.9020 C   0  0  0  0  0  3  0  0  0  0  0  0
  194.6540  175.1080  144.4710 C   0  0  0  0  0  0  0  0  0  0  0  0
  195.1140  175.9260  143.5260 C   0  0  0  0  0  2  0  0  0  0  0  0
  193.5160  175.4830  145.2570 N   0  0  0  0  0  2  0  0  0  0  0  0
  192.3000  174.6890  145.3510 C   0  0  0  0  0  2  0  0  0  0  0  0
  191.7270  174.4870  143.9640 C   0  0  0  0  0  2  0  0  0  0  0  0
  190.5330  175.3970  143.7700 C   0  0  0  0  0  2  0  0  0  0  0  0
  189.2640  174.5880  143.9290 C   0  0  0  0  0  2  0  0  0  0  0  0
  188.0690  175.4460  143.5700 C   0  0  0  0  0  2  0  0  0  0  0  0
  188.3190  176.8290  143.9920 N   0  0  0  0  0  0  0  0  0  0  0  0
  187.6500  179.1370  142.7690 O   0  0  0  0  0  1  0  0  0  0  0  0
  188.4710  177.8800  142.5890 P   0  0  0  0  0  0  0  0  0  0  0  0
  190.0940  178.2920  142.3530 O   0  0  0  0  0  1  0  0  0  0  0  0
  187.9130  177.0530  141.2230 O   0  0  0  0  0  0  0  0  0  0  0  0
  187.3660  177.3640  144.9080 N   0  0  0  0  0  0  0  0  0  0  0  0
  184.7710  178.2230  146.4910 C   0  0  0  0  0  2  0  0  0  0  0  0
  186.0370  176.6800  144.8690 C   0  0  1  0  0  3  0  0  0  0  0  0
  185.0130  178.5600  143.3770 C   0  0  0  0  0  2  0  0  0  0  0  0
  185.1910  176.7930  146.1540 C   0  0  0  0  0  2  0  0  0  0  0  0
  184.7610  179.3980  144.6270 C   0  0  0  0  0  2  0  0  0  0  0  0
  183.9130  178.7260  145.5090 O   0  0  0  0  0  0  0  0  0  0  0  0
  185.1970  177.0550  143.6350 C   0  0  0  0  0  2  0  0  0  0  0  0
  187.8840  175.6850  147.1380 O   0  0  0  0  0  1  0  0  0  0  0  0
  188.1240  177.2330  146.5030 P   0  0  0  0  0  0  0  0  0  0  0  0
  189.6070  177.5110  146.4010 O   0  0  0  0  0  0  0  0  0  0  0  0
  187.4250  178.3580  147.5540 O   0  0  0  0  0  1  0  0  0  0  0  0
  195.3450  170.2950  143.2650 C   0  0  0  0  0  2  0  0  0  0  0  0
  195.3090  170.7360  141.8140 C   0  0  0  0  0  2  0  0  0  0  0  0
  196.5190  170.4110  141.2050 O   0  0  0  0  0  0  0  0  0  0  0  0
  196.7010  171.3940  140.2310 C   0  0  0  0  0  2  0  0  0  0  0  0
  195.6310  171.3130  139.1430 C   0  0  1  0  0  3  0  0  0  0  0  0
  194.9800  173.6120  138.5620 C   0  0  0  0  0  0  0  0  0  0  0  0
  194.2420  173.8540  139.8400 C   0  0  0  0  0  1  0  0  0  0  0  0
  195.5830  172.4950  138.2980 N   0  0  0  0  0  0  0  0  0  0  0  0
  195.0280  174.7350  137.5670 C   0  0  1  0  0  3  0  0  0  0  0  0
  195.9810  174.3870  136.4290 C   0  0  0  0  0  2  0  0  0  0  0  0
  197.2170  175.2730  136.4490 C   0  0  0  0  0  2  0  0  0  0  0  0
  197.5610  175.6660  137.8740 C   0  0  0  0  0  1  0  0  0  0  0  0
  193.6370  175.0580  137.0190 C   0  0  0  0  0  2  0  0  0  0  0  0
  193.3430  176.5450  135.0850 C   0  0  0  0  0  2  0  0  0  0  0  0
  193.5920  176.4120  136.3850 C   0  0  0  0  0  3  0  0  0  0  0  0
  195.6440  170.0050  138.3530 C   0  0  0  0  0  2  0  0  0  0  0  0
  194.3760  170.3180  136.3690 O   0  0  0  0  0  1  0  0  0  0  0  0
  194.3060  169.7840  137.6600 C   0  0  2  0  0  3  0  0  0  0  0  0
  191.1760  170.0210  139.9790 C   0  0  0  0  0  2  0  0  0  0  0  0
  190.0150  170.9850  138.9640 S   0  0  0  0  0  0  0  0  0  0  0  0
  192.3480  171.3890  137.6040 C   0  0  0  0  0  2  0  0  0  0  0  0
  191.3130  172.1380  138.4280 C   0  0  0  0  0  2  0  0  0  0  0  0
  193.0110  168.3940  139.9890 C   0  0  0  0  0  1  0  0  0  0  0  0
  192.2460  169.3690  139.1110 C   0  0  2  0  0  3  0  0  0  0  0  0
  193.1710  170.4330  138.4790 C   0  0  1  0  0  3  0  0  0  0  0  0
  1  6  1  0  0  0  0
  4  5  2  0  0  0  0
  5  2  1  0  0  0  0
  5  3  1  0  0  0  0
  6  3  2  0  0  0  0
  7  4  1  0  0  0  0
  7  1  2  0  0  0  0
  8  1  1  0  0  0  0
  8 10  1  0  0  0  0
  9  8  2  0  0  0  0
 10 11  1  0  0  0  0
 12 11  1  0  0  0  0
 13 14  1  0  0  0  0
 13 12  1  0  0  0  0
 15 14  1  0  0  0  0
 15 16  1  0  0  0  0
 16 21  1  0  0  0  0
 18 17  1  0  0  0  0
 18 16  1  0  0  0  0
 19 18  1  0  0  0  0
 20 18  2  0  0  0  0
 21 30  1  0  0  0  0
 23 21  1  1  0  0  0
 23 25  1  0  0  0  0
 24 28  1  0  0  0  0
 24 26  1  0  0  0  0
 25 22  1  0  0  0  0
 26 27  1  0  0  0  0
 27 22  1  0  0  0  0
 28 23  1  0  0  0  0
 30 29  1  0  0  0  0
 30 32  1  0  0  0  0
 31 30  2  0  0  0  0
 33  4  1  0  0  0  0
 34 33  1  0  0  0  0
 35 34  1  0  0  0  0
 36 35  1  0  0  0  0
 37 48  1  6  0  0  0
 37 36  1  0  0  0  0
 38 39  1  0  0  0  0
 40 38  2  0  0  0  0
 40 37  1  0  0  0  0
 41 42  1  6  0  0  0
 41 38  1  0  0  0  0
 42 43  1  0  0  0  0
 43 44  1  0  0  0  0
 45 41  1  0  0  0  0
 46 47  2  0  0  0  0
 47 45  1  0  0  0  0
 50 49  1  6  0  0  0
 50 48  1  0  0  0  0
 52 51  1  0  0  0  0
 53 54  1  0  0  0  0
 53 57  1  0  0  0  0
 54 52  1  0  0  0  0
 56 51  1  0  0  0  0
 56 55  1  1  0  0  0
 57 50  1  6  0  0  0
 57 56  1  0  0  0  0
M  END
>  <MODEL>
9

>  <REMARK>
 VINA RESULT:      -4.1      3.401      9.508
  Name = 
  26 active torsions:
  status: ('A' for Active; 'I' for Inactive)
    1  A    between atoms: C_1  and  C_27
    2  A    between atoms: C_4  and  C_27
    3  A    between atoms: C_4  and  C_54
    4  A    between atoms: C_5  and  C_16
    5  A    between atoms: C_6  and  C_35
    6  A    between atoms: P_8  and  N_55
    7  A    between atoms: C_9  and  C_21
    8  A    between atoms: C_9  and  O_29
    9  A    between atoms: C_10  and  C_42
   10  A    between atoms: C_10  and  N_55
   11  A    between atoms: C_14  and  C_30
   12  A    between atoms: C_14  and  N_52
   13  A    between atoms: C_14  and  C_53
   14  A    between atoms: C_16  and  N_49
   15  A    between atoms: P_18  and  N_28
   16  A    between atoms: C_19  and  C_23
   17  A    between atoms: C_19  and  C_42
   18  A    between atoms: C_21  and  C_31
   19  A    between atoms: C_23  and  C_46
   20  A    between atoms: C_27  and  C_35
   21  A    between atoms: N_28  and  C_34
   22  A    between atoms: N_28  and  N_55
   23  A    between atoms: O_29  and  C_30
   24  A    between atoms: C_32  and  C_53
   25  A    between atoms: C_32  and  C_57
   26  A    between atoms: C_46  and  N_49
                            x       y       z     vdW  Elec       q    Type
                         _______ _______ _______ _____ _____    ______ ____

>  <TORSDO>
F 26

$$$$
