=
 OpenBabel11042415343D

 47 52  0  0  1  0  0  0  0  0999 V2000
  191.0240  171.8060  142.6660 C   0  0  0  0  0  0  0  0  0  0  0  0
  192.0930  170.1400  141.5770 N   0  0  0  0  0  0  0  0  0  0  0  0
  189.8050  172.8400  140.8210 C   0  0  0  0  0  0  0  0  0  0  0  0
  188.9710  174.7490  143.8300 C   0  0  0  0  0  3  0  0  0  0  0  0
  188.2590  175.3820  142.8940 C   0  0  0  0  0  0  0  0  0  0  0  0
  190.7050  171.8820  141.3260 C   0  0  0  0  0  0  0  0  0  0  0  0
  189.2760  173.7380  141.7750 C   0  0  0  0  0  0  0  0  0  0  0  0
  190.5070  172.7010  143.6130 C   0  0  0  0  0  3  0  0  0  0  0  0
  189.6310  173.6730  143.1140 C   0  0  0  0  0  0  0  0  0  0  0  0
  191.8360  170.7760  142.8320 C   0  0  0  0  0  0  0  0  0  0  0  0
  191.4210  170.7890  140.6750 C   0  0  0  0  0  3  0  0  0  0  0  0
  188.4450  174.7490  141.5770 C   0  0  0  0  0  3  0  0  0  0  0  0
  186.5740  176.6190  144.2390 C   0  0  0  0  0  3  0  0  0  0  0  0
  184.9700  179.9130  143.7760 O   0  0  0  0  0  1  0  0  0  0  0  0
  187.4290  176.5740  143.1310 C   0  0  0  0  0  0  0  0  0  0  0  0
  186.6370  178.7690  142.4690 C   0  0  0  0  0  3  0  0  0  0  0  0
  185.7550  177.7320  144.4770 C   0  0  0  0  0  0  0  0  0  0  0  0
  187.4590  177.6600  142.2490 C   0  0  0  0  0  3  0  0  0  0  0  0
  185.7850  178.8060  143.5750 C   0  0  0  0  0  0  0  0  0  0  0  0
  184.3460  178.2330  147.8340 O   0  0  0  0  0  1  0  0  0  0  0  0
  186.4350  178.8830  147.1740 O   0  0  0  0  0  0  0  0  0  0  0  0
  185.2010  178.3000  146.9140 C   0  0  0  0  0  0  0  0  0  0  0  0
  184.8790  177.7910  145.6110 N   0  0  0  0  0  2  0  0  0  0  0  0
  190.3390  173.5610  138.4690 N   0  0  0  0  0  2  0  0  0  0  0  0
  191.0000  174.2750  136.3630 O   0  0  0  0  0  0  0  0  0  0  0  0
  190.2470  173.5290  137.0410 C   0  0  0  0  0  0  0  0  0  0  0  0
  189.4570  172.9030  139.3850 C   0  0  0  0  0  0  0  0  0  0  0  0
  188.3780  172.4010  138.9790 O   0  0  0  0  0  0  0  0  0  0  0  0
  190.0840  171.2870  136.0370 C   0  0  0  0  0  1  0  0  0  0  0  0
  189.3460  172.5790  136.3270 C   0  0  0  0  0  2  0  0  0  0  0  0
  192.4090  170.3120  144.1290 C   0  0  0  0  0  2  0  0  0  0  0  0
  193.8620  170.3800  144.0850 N   0  0  0  0  0  2  0  0  0  0  0  0
  194.2320  171.6620  144.5170 N   0  0  0  0  0  2  0  0  0  0  0  0
  195.1230  172.2180  143.5080 C   0  0  0  0  0  2  0  0  0  0  0  0
  194.5500  173.5120  142.9580 C   0  0  0  0  0  2  0  0  0  0  0  0
  193.6820  174.1160  143.9640 N   0  0  0  0  0  2  0  0  0  0  0  0
  190.7280  176.4990  146.5960 C   0  0  0  0  0  3  0  0  0  0  0  0
  194.3050  175.3230  144.5260 C   0  0  2  0  0  0  0  0  0  0  0  0
  194.2850  175.3090  146.0620 C   0  0  0  0  0  2  0  0  0  0  0  0
  189.8220  177.3870  146.0090 C   0  0  0  0  0  3  0  0  0  0  0  0
  191.3220  177.6720  144.1320 C   0  0  0  0  0  3  0  0  0  0  0  0
  192.2270  176.7730  144.7050 C   0  0  0  0  0  0  0  0  0  0  0  0
  191.9370  176.2000  145.9630 C   0  0  0  0  0  0  0  0  0  0  0  0
  190.1190  177.9750  144.7800 C   0  0  0  0  0  3  0  0  0  0  0  0
  193.5490  176.5550  144.0240 C   0  0  0  0  0  2  0  0  0  0  0  0
  192.8570  175.1990  146.5990 C   0  0  0  0  0  2  0  0  0  0  0  0
  195.6290  175.4220  144.0880 O   0  0  0  0  0  1  0  0  0  0  0  0
  1 10  2  0  0  0  0
  1  8  1  0  0  0  0
  2 10  1  0  0  0  0
  3  6  2  0  0  0  0
  3  7  1  0  0  0  0
  5 15  1  0  0  0  0
  5  4  2  0  0  0  0
  6  1  1  0  0  0  0
  7  9  1  0  0  0  0
  9  8  2  0  0  0  0
  9  4  1  0  0  0  0
 10 31  1  0  0  0  0
 11  6  1  0  0  0  0
 11  2  2  0  0  0  0
 12  7  2  0  0  0  0
 12  5  1  0  0  0  0
 13 17  1  0  0  0  0
 15 13  2  0  0  0  0
 16 19  1  0  0  0  0
 17 23  1  0  0  0  0
 18 16  2  0  0  0  0
 18 15  1  0  0  0  0
 19 14  1  0  0  0  0
 19 17  2  0  0  0  0
 22 21  2  0  0  0  0
 22 20  1  0  0  0  0
 23 22  1  0  0  0  0
 24 27  1  0  0  0  0
 25 26  2  0  0  0  0
 26 24  1  0  0  0  0
 27  3  1  0  0  0  0
 28 27  2  0  0  0  0
 29 30  1  0  0  0  0
 30 26  1  0  0  0  0
 32 31  1  0  0  0  0
 32 33  1  0  0  0  0
 34 33  1  0  0  0  0
 35 34  1  0  0  0  0
 35 36  1  0  0  0  0
 36 38  1  0  0  0  0
 38 47  1  6  0  0  0
 38 39  1  0  0  0  0
 39 46  1  0  0  0  0
 40 37  1  0  0  0  0
 41 42  2  0  0  0  0
 41 44  1  0  0  0  0
 42 43  1  0  0  0  0
 43 37  2  0  0  0  0
 43 46  1  0  0  0  0
 44 40  2  0  0  0  0
 45 38  1  0  0  0  0
 45 42  1  0  0  0  0
M  END
>  <MODEL>
1

>  <REMARK>
 VINA RESULT:      -7.7      0.000      0.000
  Name = 
  11 active torsions:
  status: ('A' for Active; 'I' for Inactive)
    1  A    between atoms: N_2  and  N_17
    2  A    between atoms: N_2  and  C_18
    3  A    between atoms: C_8  and  N_12
    4  A    between atoms: C_8  and  C_18
    5  A    between atoms: C_11  and  C_29
    6  A    between atoms: N_12  and  C_13
    7  A    between atoms: C_16  and  N_17
    8  A    between atoms: C_16  and  C_43
    9  A    between atoms: C_22  and  C_25
   10  A    between atoms: C_23  and  N_47
   11  A    between atoms: C_27  and  C_40
                            x       y       z     vdW  Elec       q    Type
                         _______ _______ _______ _____ _____    ______ ____

>  <TORSDO>
F 11

$$$$
=
 OpenBabel11042415343D

 47 52  0  0  1  0  0  0  0  0999 V2000
  193.6390  175.6700  141.6290 C   0  0  0  0  0  0  0  0  0  0  0  0
  194.9940  174.5940  140.1760 N   0  0  0  0  0  0  0  0  0  0  0  0
  191.6110  174.3220  141.4360 C   0  0  0  0  0  0  0  0  0  0  0  0
  190.8870  176.9640  143.8630 C   0  0  0  0  0  3  0  0  0  0  0  0
  189.7350  176.2900  143.8350 C   0  0  0  0  0  0  0  0  0  0  0  0
  192.9350  174.6260  141.0630 C   0  0  0  0  0  0  0  0  0  0  0  0
  191.0420  175.1790  142.4040 C   0  0  0  0  0  0  0  0  0  0  0  0
  193.0720  176.5250  142.5840 C   0  0  0  0  0  3  0  0  0  0  0  0
  191.7480  176.2450  142.9420 C   0  0  0  0  0  0  0  0  0  0  0  0
  194.8590  175.6580  141.1230 C   0  0  0  0  0  0  0  0  0  0  0  0
  193.8540  173.9720  140.1370 C   0  0  0  0  0  3  0  0  0  0  0  0
  189.8180  175.1480  142.9070 C   0  0  0  0  0  3  0  0  0  0  0  0
  187.3060  176.8070  143.9330 C   0  0  0  0  0  3  0  0  0  0  0  0
  185.0940  177.7920  146.7210 O   0  0  0  0  0  1  0  0  0  0  0  0
  188.5290  176.6530  144.5960 C   0  0  0  0  0  0  0  0  0  0  0  0
  187.4400  177.2540  146.6790 C   0  0  0  0  0  3  0  0  0  0  0  0
  186.1460  177.1740  144.6290 C   0  0  0  0  0  0  0  0  0  0  0  0
  188.5880  176.8740  145.9780 C   0  0  0  0  0  3  0  0  0  0  0  0
  186.2240  177.4080  146.0090 C   0  0  0  0  0  0  0  0  0  0  0  0
  183.4520  178.2410  142.3670 O   0  0  0  0  0  1  0  0  0  0  0  0
  185.6490  178.8450  142.1740 O   0  0  0  0  0  0  0  0  0  0  0  0
  184.6260  178.1540  142.8130 C   0  0  0  0  0  0  0  0  0  0  0  0
  184.8870  177.3310  143.9600 N   0  0  0  0  0  2  0  0  0  0  0  0
  190.0810  173.4050  139.6610 N   0  0  0  0  0  2  0  0  0  0  0  0
  188.6870  172.7220  137.9360 O   0  0  0  0  0  0  0  0  0  0  0  0
  189.4800  172.3870  138.8530 C   0  0  0  0  0  0  0  0  0  0  0  0
  190.8720  173.1920  140.8340 C   0  0  0  0  0  0  0  0  0  0  0  0
  190.9210  172.0550  141.3700 O   0  0  0  0  0  0  0  0  0  0  0  0
  189.7100  170.2380  137.6730 C   0  0  0  0  0  1  0  0  0  0  0  0
  189.8290  170.9450  139.0090 C   0  0  0  0  0  2  0  0  0  0  0  0
  195.9630  176.5990  141.4740 C   0  0  0  0  0  2  0  0  0  0  0  0
  197.2450  175.9170  141.3930 N   0  0  0  0  0  2  0  0  0  0  0  0
  197.3690  175.1250  142.5440 N   0  0  0  0  0  2  0  0  0  0  0  0
  197.9360  173.8480  142.1320 C   0  0  0  0  0  2  0  0  0  0  0  0
  197.1520  172.7030  142.7470 C   0  0  0  0  0  2  0  0  0  0  0  0
  196.0560  173.2470  143.5440 N   0  0  0  0  0  2  0  0  0  0  0  0
  192.3660  174.4380  146.0530 C   0  0  0  0  0  3  0  0  0  0  0  0
  196.2260  172.8970  144.9620 C   0  0  2  0  0  0  0  0  0  0  0  0
  195.1360  171.9270  145.4410 C   0  0  0  0  0  2  0  0  0  0  0  0
  192.2250  175.7490  146.5170 C   0  0  0  0  0  3  0  0  0  0  0  0
  194.6270  176.0260  146.4540 C   0  0  0  0  0  3  0  0  0  0  0  0
  194.7770  174.7210  145.9750 C   0  0  0  0  0  0  0  0  0  0  0  0
  193.6340  173.9110  145.7970 C   0  0  0  0  0  0  0  0  0  0  0  0
  193.3540  176.5410  146.7210 C   0  0  0  0  0  3  0  0  0  0  0  0
  196.1660  174.1760  145.8000 C   0  0  0  0  0  2  0  0  0  0  0  0
  193.7400  172.5180  145.2470 C   0  0  0  0  0  2  0  0  0  0  0  0
  197.4800  172.3100  145.1600 O   0  0  0  0  0  1  0  0  0  0  0  0
  1  8  1  0  0  0  0
  2 10  1  0  0  0  0
  3  7  1  0  0  0  0
  5  4  2  0  0  0  0
  5 15  1  0  0  0  0
  6  3  2  0  0  0  0
  6  1  1  0  0  0  0
  7 12  2  0  0  0  0
  7  9  1  0  0  0  0
  8  9  2  0  0  0  0
  9  4  1  0  0  0  0
 10 31  1  0  0  0  0
 10  1  2  0  0  0  0
 11  2  2  0  0  0  0
 11  6  1  0  0  0  0
 12  5  1  0  0  0  0
 13 15  2  0  0  0  0
 13 17  1  0  0  0  0
 15 18  1  0  0  0  0
 17 19  2  0  0  0  0
 18 16  2  0  0  0  0
 19 16  1  0  0  0  0
 19 14  1  0  0  0  0
 20 22  1  0  0  0  0
 21 22  2  0  0  0  0
 22 23  1  0  0  0  0
 23 17  1  0  0  0  0
 24 27  1  0  0  0  0
 25 26  2  0  0  0  0
 26 30  1  0  0  0  0
 26 24  1  0  0  0  0
 27 28  2  0  0  0  0
 27  3  1  0  0  0  0
 29 30  1  0  0  0  0
 32 31  1  0  0  0  0
 32 33  1  0  0  0  0
 34 33  1  0  0  0  0
 34 35  1  0  0  0  0
 35 36  1  0  0  0  0
 36 38  1  0  0  0  0
 37 40  1  0  0  0  0
 38 47  1  1  0  0  0
 38 39  1  0  0  0  0
 38 45  1  0  0  0  0
 40 44  2  0  0  0  0
 41 44  1  0  0  0  0
 42 41  2  0  0  0  0
 43 42  1  0  0  0  0
 43 37  2  0  0  0  0
 45 42  1  0  0  0  0
 46 39  1  0  0  0  0
 46 43  1  0  0  0  0
M  END
>  <MODEL>
2

>  <REMARK>
 VINA RESULT:      -7.7      2.270      3.746
  Name = 
  11 active torsions:
  status: ('A' for Active; 'I' for Inactive)
    1  A    between atoms: N_2  and  N_17
    2  A    between atoms: N_2  and  C_18
    3  A    between atoms: C_8  and  N_12
    4  A    between atoms: C_8  and  C_18
    5  A    between atoms: C_11  and  C_29
    6  A    between atoms: N_12  and  C_13
    7  A    between atoms: C_16  and  N_17
    8  A    between atoms: C_16  and  C_43
    9  A    between atoms: C_22  and  C_25
   10  A    between atoms: C_23  and  N_47
   11  A    between atoms: C_27  and  C_40
                            x       y       z     vdW  Elec       q    Type
                         _______ _______ _______ _____ _____    ______ ____

>  <TORSDO>
F 11

$$$$
=
 OpenBabel11042415343D

 47 52  0  0  1  0  0  0  0  0999 V2000
  191.3770  171.9770  142.9790 C   0  0  0  0  0  0  0  0  0  0  0  0
  192.5300  170.4270  141.8060 N   0  0  0  0  0  0  0  0  0  0  0  0
  189.9770  172.9250  141.2170 C   0  0  0  0  0  0  0  0  0  0  0  0
  189.1370  174.7100  144.3000 C   0  0  0  0  0  3  0  0  0  0  0  0
  188.3250  175.2910  143.4130 C   0  0  0  0  0  0  0  0  0  0  0  0
  190.9830  172.0430  141.6580 C   0  0  0  0  0  0  0  0  0  0  0  0
  189.4220  173.7590  142.2130 C   0  0  0  0  0  0  0  0  0  0  0  0
  190.8330  172.8090  143.9670 C   0  0  0  0  0  3  0  0  0  0  0  0
  189.8500  173.7070  143.5320 C   0  0  0  0  0  0  0  0  0  0  0  0
  192.2830  171.0210  143.0840 C   0  0  0  0  0  0  0  0  0  0  0  0
  191.7570  171.0270  140.9510 C   0  0  0  0  0  3  0  0  0  0  0  0
  188.4970  174.6960  142.0760 C   0  0  0  0  0  3  0  0  0  0  0  0
  186.2690  176.6000  142.9220 C   0  0  0  0  0  3  0  0  0  0  0  0
  184.8260  179.6200  144.4800 O   0  0  0  0  0  1  0  0  0  0  0  0
  187.4070  176.4010  143.7140 C   0  0  0  0  0  0  0  0  0  0  0  0
  186.8010  178.3540  145.0190 C   0  0  0  0  0  3  0  0  0  0  0  0
  185.3900  177.6630  143.1710 C   0  0  0  0  0  0  0  0  0  0  0  0
  187.6640  177.2830  144.7700 C   0  0  0  0  0  3  0  0  0  0  0  0
  185.6700  178.5480  144.2220 C   0  0  0  0  0  0  0  0  0  0  0  0
  183.0850  178.4660  140.4230 O   0  0  0  0  0  1  0  0  0  0  0  0
  185.3630  178.3890  140.2500 O   0  0  0  0  0  0  0  0  0  0  0  0
  184.1910  178.2580  140.9850 C   0  0  0  0  0  0  0  0  0  0  0  0
  184.2200  177.8730  142.3680 N   0  0  0  0  0  2  0  0  0  0  0  0
  190.3810  173.6270  138.8340 N   0  0  0  0  0  2  0  0  0  0  0  0
  190.9260  174.3230  136.6890 O   0  0  0  0  0  0  0  0  0  0  0  0
  190.2110  173.5840  137.4130 C   0  0  0  0  0  0  0  0  0  0  0  0
  189.5510  172.9770  139.8020 C   0  0  0  0  0  0  0  0  0  0  0  0
  188.4500  172.4730  139.4600 O   0  0  0  0  0  0  0  0  0  0  0  0
  189.9970  171.3430  136.4160 C   0  0  0  0  0  1  0  0  0  0  0  0
  189.2710  172.6290  136.7580 C   0  0  0  0  0  2  0  0  0  0  0  0
  192.9620  170.5910  144.3410 C   0  0  0  0  0  2  0  0  0  0  0  0
  194.3410  170.2200  144.0630 N   0  0  0  0  0  2  0  0  0  0  0  0
  195.1240  171.3710  144.2320 N   0  0  0  0  0  2  0  0  0  0  0  0
  195.9840  171.4850  143.0630 C   0  0  0  0  0  2  0  0  0  0  0  0
  195.6050  172.7100  142.2500 C   0  0  0  0  0  2  0  0  0  0  0  0
  194.7200  173.5560  143.0440 N   0  0  0  0  0  2  0  0  0  0  0  0
  192.8310  175.6920  146.6770 C   0  0  0  0  0  3  0  0  0  0  0  0
  195.3410  174.8660  143.2890 C   0  0  2  0  0  0  0  0  0  0  0  0
  195.9670  174.9440  144.6890 C   0  0  0  0  0  2  0  0  0  0  0  0
  191.6450  176.4170  146.5280 C   0  0  0  0  0  3  0  0  0  0  0  0
  192.1630  176.7770  144.1930 C   0  0  0  0  0  3  0  0  0  0  0  0
  193.3440  176.0410  144.3290 C   0  0  0  0  0  0  0  0  0  0  0  0
  193.6920  175.5150  145.5920 C   0  0  0  0  0  0  0  0  0  0  0  0
  191.3120  176.9620  145.2880 C   0  0  0  0  0  3  0  0  0  0  0  0
  194.2750  175.9550  143.1530 C   0  0  0  0  0  2  0  0  0  0  0  0
  194.9290  174.6830  145.7800 C   0  0  0  0  0  2  0  0  0  0  0  0
  196.3300  175.1090  142.3310 O   0  0  0  0  0  1  0  0  0  0  0  0
  1 10  2  0  0  0  0
  1  8  1  0  0  0  0
  2 10  1  0  0  0  0
  3  6  2  0  0  0  0
  3  7  1  0  0  0  0
  5 15  1  0  0  0  0
  5  4  2  0  0  0  0
  6  1  1  0  0  0  0
  7  9  1  0  0  0  0
  9  8  2  0  0  0  0
  9  4  1  0  0  0  0
 10 31  1  0  0  0  0
 11  6  1  0  0  0  0
 11  2  2  0  0  0  0
 12  7  2  0  0  0  0
 12  5  1  0  0  0  0
 13 17  2  0  0  0  0
 13 15  1  0  0  0  0
 15 18  2  0  0  0  0
 17 19  1  0  0  0  0
 18 16  1  0  0  0  0
 19 14  1  0  0  0  0
 19 16  2  0  0  0  0
 20 22  1  0  0  0  0
 21 22  2  0  0  0  0
 22 23  1  0  0  0  0
 23 17  1  0  0  0  0
 24 27  1  0  0  0  0
 25 26  2  0  0  0  0
 26 24  1  0  0  0  0
 27  3  1  0  0  0  0
 28 27  2  0  0  0  0
 29 30  1  0  0  0  0
 30 26  1  0  0  0  0
 32 33  1  0  0  0  0
 32 31  1  0  0  0  0
 34 33  1  0  0  0  0
 35 36  1  0  0  0  0
 35 34  1  0  0  0  0
 36 38  1  0  0  0  0
 38 47  1  6  0  0  0
 38 39  1  0  0  0  0
 39 46  1  0  0  0  0
 40 37  1  0  0  0  0
 41 42  2  0  0  0  0
 41 44  1  0  0  0  0
 42 43  1  0  0  0  0
 43 46  1  0  0  0  0
 43 37  2  0  0  0  0
 44 40  2  0  0  0  0
 45 38  1  0  0  0  0
 45 42  1  0  0  0  0
M  END
>  <MODEL>
3

>  <REMARK>
 VINA RESULT:      -7.5      1.352      2.168
  Name = 
  11 active torsions:
  status: ('A' for Active; 'I' for Inactive)
    1  A    between atoms: N_2  and  N_17
    2  A    between atoms: N_2  and  C_18
    3  A    between atoms: C_8  and  N_12
    4  A    between atoms: C_8  and  C_18
    5  A    between atoms: C_11  and  C_29
    6  A    between atoms: N_12  and  C_13
    7  A    between atoms: C_16  and  N_17
    8  A    between atoms: C_16  and  C_43
    9  A    between atoms: C_22  and  C_25
   10  A    between atoms: C_23  and  N_47
   11  A    between atoms: C_27  and  C_40
                            x       y       z     vdW  Elec       q    Type
                         _______ _______ _______ _____ _____    ______ ____

>  <TORSDO>
F 11

$$$$
=
 OpenBabel11042415343D

 47 52  0  0  1  0  0  0  0  0999 V2000
  192.6780  172.5720  144.4230 C   0  0  0  0  0  0  0  0  0  0  0  0
  193.8590  171.1410  143.1330 N   0  0  0  0  0  0  0  0  0  0  0  0
  190.7920  173.0540  142.9490 C   0  0  0  0  0  0  0  0  0  0  0  0
  190.2480  174.9790  146.0140 C   0  0  0  0  0  3  0  0  0  0  0  0
  189.1740  175.3030  145.2890 C   0  0  0  0  0  0  0  0  0  0  0  0
  192.0220  172.4230  143.2180 C   0  0  0  0  0  0  0  0  0  0  0  0
  190.2920  173.8760  143.9840 C   0  0  0  0  0  0  0  0  0  0  0  0
  192.1890  173.3940  145.4470 C   0  0  0  0  0  3  0  0  0  0  0  0
  190.9790  174.0460  145.1780 C   0  0  0  0  0  0  0  0  0  0  0  0
  193.7600  171.8140  144.3920 C   0  0  0  0  0  0  0  0  0  0  0  0
  192.8250  171.4940  142.4300 C   0  0  0  0  0  3  0  0  0  0  0  0
  189.1900  174.6080  143.9900 C   0  0  0  0  0  3  0  0  0  0  0  0
  187.0030  176.4510  144.9020 C   0  0  0  0  0  3  0  0  0  0  0  0
  185.1920  179.0350  146.8210 O   0  0  0  0  0  1  0  0  0  0  0  0
  188.1320  176.2540  145.7080 C   0  0  0  0  0  0  0  0  0  0  0  0
  187.2780  177.9140  147.2570 C   0  0  0  0  0  3  0  0  0  0  0  0
  186.0050  177.3670  145.2660 C   0  0  0  0  0  0  0  0  0  0  0  0
  188.2600  176.9890  146.8930 C   0  0  0  0  0  3  0  0  0  0  0  0
  186.1560  178.1070  146.4460 C   0  0  0  0  0  0  0  0  0  0  0  0
  183.6470  178.5480  142.7060 O   0  0  0  0  0  0  0  0  0  0  0  0
  185.8690  179.0780  142.7920 O   0  0  0  0  0  1  0  0  0  0  0  0
  184.7530  178.4170  143.2910 C   0  0  0  0  0  0  0  0  0  0  0  0
  184.8440  177.5730  144.4500 N   0  0  0  0  0  2  0  0  0  0  0  0
  190.6600  173.4040  140.4600 N   0  0  0  0  0  2  0  0  0  0  0  0
  190.7150  173.7890  138.1730 O   0  0  0  0  0  0  0  0  0  0  0  0
  190.2130  173.1400  139.1260 C   0  0  0  0  0  0  0  0  0  0  0  0
  190.0890  172.8750  141.6610 C   0  0  0  0  0  0  0  0  0  0  0  0
  188.9800  172.2820  141.6300 O   0  0  0  0  0  0  0  0  0  0  0  0
  189.8280  171.0830  137.8290 C   0  0  0  0  0  1  0  0  0  0  0  0
  189.2290  172.0600  138.8210 C   0  0  0  0  0  2  0  0  0  0  0  0
  194.7500  171.6540  145.4960 C   0  0  0  0  0  2  0  0  0  0  0  0
  196.0160  171.1700  144.9670 N   0  0  0  0  0  2  0  0  0  0  0  0
  196.7250  172.2860  144.4990 N   0  0  0  0  0  2  0  0  0  0  0  0
  197.5390  171.8420  143.3760 C   0  0  0  0  0  2  0  0  0  0  0  0
  197.2500  172.6880  142.1500 C   0  0  0  0  0  2  0  0  0  0  0  0
  196.1270  173.5750  142.4350 N   0  0  0  0  0  2  0  0  0  0  0  0
  193.9470  176.7820  144.9440 C   0  0  0  0  0  3  0  0  0  0  0  0
  196.4030  174.9320  141.9430 C   0  0  2  0  0  0  0  0  0  0  0  0
  197.0620  175.8040  143.0220 C   0  0  0  0  0  2  0  0  0  0  0  0
  192.6090  177.0900  144.6830 C   0  0  0  0  0  3  0  0  0  0  0  0
  192.8930  176.3640  142.3920 C   0  0  0  0  0  3  0  0  0  0  0  0
  194.2290  176.0400  142.6490 C   0  0  0  0  0  0  0  0  0  0  0  0
  194.7670  176.2760  143.9330 C   0  0  0  0  0  0  0  0  0  0  0  0
  192.0830  176.8840  143.4070 C   0  0  0  0  0  3  0  0  0  0  0  0
  195.0880  175.5810  141.5050 C   0  0  0  0  0  2  0  0  0  0  0  0
  196.1830  175.9060  144.2690 C   0  0  0  0  0  2  0  0  0  0  0  0
  197.2450  174.8710  140.8280 O   0  0  0  0  0  1  0  0  0  0  0  0
  1  8  1  0  0  0  0
  2 10  1  0  0  0  0
  3  6  2  0  0  0  0
  3  7  1  0  0  0  0
  5 15  1  0  0  0  0
  5  4  2  0  0  0  0
  6  1  1  0  0  0  0
  7 12  2  0  0  0  0
  7  9  1  0  0  0  0
  9  8  2  0  0  0  0
  9  4  1  0  0  0  0
 10  1  2  0  0  0  0
 10 31  1  0  0  0  0
 11  2  2  0  0  0  0
 11  6  1  0  0  0  0
 12  5  1  0  0  0  0
 13 17  2  0  0  0  0
 13 15  1  0  0  0  0
 15 18  2  0  0  0  0
 17 19  1  0  0  0  0
 18 16  1  0  0  0  0
 19 14  1  0  0  0  0
 19 16  2  0  0  0  0
 20 22  2  0  0  0  0
 21 22  1  0  0  0  0
 22 23  1  0  0  0  0
 23 17  1  0  0  0  0
 24 27  1  0  0  0  0
 25 26  2  0  0  0  0
 26 24  1  0  0  0  0
 27  3  1  0  0  0  0
 28 27  2  0  0  0  0
 29 30  1  0  0  0  0
 30 26  1  0  0  0  0
 32 31  1  0  0  0  0
 33 32  1  0  0  0  0
 34 33  1  0  0  0  0
 35 36  1  0  0  0  0
 35 34  1  0  0  0  0
 38 47  1  6  0  0  0
 38 36  1  0  0  0  0
 38 39  1  0  0  0  0
 39 46  1  0  0  0  0
 40 37  1  0  0  0  0
 41 42  2  0  0  0  0
 41 44  1  0  0  0  0
 42 43  1  0  0  0  0
 43 46  1  0  0  0  0
 43 37  2  0  0  0  0
 44 40  2  0  0  0  0
 45 38  1  0  0  0  0
 45 42  1  0  0  0  0
M  END
>  <MODEL>
4

>  <REMARK>
 VINA RESULT:      -7.2      1.868      2.979
  Name = 
  11 active torsions:
  status: ('A' for Active; 'I' for Inactive)
    1  A    between atoms: N_2  and  N_17
    2  A    between atoms: N_2  and  C_18
    3  A    between atoms: C_8  and  N_12
    4  A    between atoms: C_8  and  C_18
    5  A    between atoms: C_11  and  C_29
    6  A    between atoms: N_12  and  C_13
    7  A    between atoms: C_16  and  N_17
    8  A    between atoms: C_16  and  C_43
    9  A    between atoms: C_22  and  C_25
   10  A    between atoms: C_23  and  N_47
   11  A    between atoms: C_27  and  C_40
                            x       y       z     vdW  Elec       q    Type
                         _______ _______ _______ _____ _____    ______ ____

>  <TORSDO>
F 11

$$$$
=
 OpenBabel11042415343D

 47 52  0  0  1  0  0  0  0  0999 V2000
  194.2700  174.1740  141.5240 C   0  0  0  0  0  0  0  0  0  0  0  0
  196.0810  172.9520  140.9490 N   0  0  0  0  0  0  0  0  0  0  0  0
  193.6640  173.1130  143.6380 C   0  0  0  0  0  0  0  0  0  0  0  0
  191.2260  175.7820  143.0680 C   0  0  0  0  0  3  0  0  0  0  0  0
  190.8160  175.2760  144.2340 C   0  0  0  0  0  0  0  0  0  0  0  0
  194.4720  173.2080  142.4880 C   0  0  0  0  0  0  0  0  0  0  0  0
  192.6130  174.0530  143.7210 C   0  0  0  0  0  0  0  0  0  0  0  0
  193.2230  175.1030  141.6000 C   0  0  0  0  0  3  0  0  0  0  0  0
  192.3990  174.9990  142.7280 C   0  0  0  0  0  0  0  0  0  0  0  0
  195.2180  174.0420  140.6130 C   0  0  0  0  0  0  0  0  0  0  0  0
  195.6470  172.4520  142.0660 C   0  0  0  0  0  3  0  0  0  0  0  0
  191.6900  174.1710  144.6620 C   0  0  0  0  0  3  0  0  0  0  0  0
  188.8090  176.7290  144.4380 C   0  0  0  0  0  3  0  0  0  0  0  0
  186.3010  177.1230  147.1200 O   0  0  0  0  0  1  0  0  0  0  0  0
  189.6300  175.7300  144.9770 C   0  0  0  0  0  0  0  0  0  0  0  0
  188.2090  175.6660  146.9430 C   0  0  0  0  0  3  0  0  0  0  0  0
  187.6850  177.1960  145.1350 C   0  0  0  0  0  0  0  0  0  0  0  0
  189.3190  175.1970  146.2340 C   0  0  0  0  0  3  0  0  0  0  0  0
  187.3970  176.6640  146.3990 C   0  0  0  0  0  0  0  0  0  0  0  0
  185.2160  179.0470  143.1390 O   0  0  0  0  0  1  0  0  0  0  0  0
  185.5660  176.7910  143.0350 O   0  0  0  0  0  0  0  0  0  0  0  0
  185.8490  178.0460  143.5620 C   0  0  0  0  0  0  0  0  0  0  0  0
  186.8360  178.2160  144.5910 N   0  0  0  0  0  2  0  0  0  0  0  0
  193.4810  170.7340  144.4400 N   0  0  0  0  0  2  0  0  0  0  0  0
  193.2580  168.4950  145.0080 O   0  0  0  0  0  0  0  0  0  0  0  0
  193.8150  169.5970  145.2440 C   0  0  0  0  0  0  0  0  0  0  0  0
  193.8990  172.0830  144.6730 C   0  0  0  0  0  0  0  0  0  0  0  0
  194.4410  172.4020  145.7630 O   0  0  0  0  0  0  0  0  0  0  0  0
  194.5690  168.6390  147.3830 C   0  0  0  0  0  1  0  0  0  0  0  0
  194.8670  169.6580  146.3010 C   0  0  0  0  0  2  0  0  0  0  0  0
  195.3950  174.8970  139.4030 C   0  0  0  0  0  2  0  0  0  0  0  0
  195.5990  174.0640  138.2280 N   0  0  0  0  0  2  0  0  0  0  0  0
  194.3380  173.6050  137.8200 N   0  0  0  0  0  2  0  0  0  0  0  0
  193.6110  174.7510  137.2890 C   0  0  0  0  0  2  0  0  0  0  0  0
  192.1180  174.4770  137.3030 C   0  0  0  0  0  2  0  0  0  0  0  0
  191.7690  173.7910  138.5420 N   0  0  0  0  0  2  0  0  0  0  0  0
  188.6470  173.1880  141.8920 C   0  0  0  0  0  3  0  0  0  0  0  0
  190.8900  172.6450  138.2670 C   0  0  2  0  0  0  0  0  0  0  0  0
  189.4160  173.0680  138.1840 C   0  0  0  0  0  2  0  0  0  0  0  0
  188.9890  172.4930  143.0550 C   0  0  0  0  0  3  0  0  0  0  0  0
  190.6910  171.2870  141.8290 C   0  0  0  0  0  3  0  0  0  0  0  0
  190.3650  171.9890  140.6650 C   0  0  0  0  0  0  0  0  0  0  0  0
  189.3140  172.9310  140.6920 C   0  0  0  0  0  0  0  0  0  0  0  0
  190.0080  171.5410  143.0240 C   0  0  0  0  0  3  0  0  0  0  0  0
  191.0540  171.6120  139.3830 C   0  0  0  0  0  2  0  0  0  0  0  0
  188.9550  173.7390  139.4780 C   0  0  0  0  0  2  0  0  0  0  0  0
  191.2600  172.0400  137.0620 O   0  0  0  0  0  1  0  0  0  0  0  0
  1  8  2  0  0  0  0
  1  6  1  0  0  0  0
  2 11  1  0  0  0  0
  3  7  2  0  0  0  0
  3 27  1  0  0  0  0
  4  5  1  0  0  0  0
  5 12  2  0  0  0  0
  5 15  1  0  0  0  0
  6  3  1  0  0  0  0
  7 12  1  0  0  0  0
  8  9  1  0  0  0  0
  9  4  2  0  0  0  0
  9  7  1  0  0  0  0
 10  2  2  0  0  0  0
 10  1  1  0  0  0  0
 11  6  2  0  0  0  0
 13 15  2  0  0  0  0
 13 17  1  0  0  0  0
 15 18  1  0  0  0  0
 17 19  2  0  0  0  0
 18 16  2  0  0  0  0
 19 16  1  0  0  0  0
 19 14  1  0  0  0  0
 20 22  1  0  0  0  0
 21 22  2  0  0  0  0
 22 23  1  0  0  0  0
 23 17  1  0  0  0  0
 24 27  1  0  0  0  0
 24 26  1  0  0  0  0
 25 26  2  0  0  0  0
 26 30  1  0  0  0  0
 27 28  2  0  0  0  0
 30 29  1  0  0  0  0
 31 10  1  0  0  0  0
 32 31  1  0  0  0  0
 33 32  1  0  0  0  0
 34 35  1  0  0  0  0
 34 33  1  0  0  0  0
 35 36  1  0  0  0  0
 37 40  1  0  0  0  0
 38 47  1  6  0  0  0
 38 36  1  0  0  0  0
 38 45  1  0  0  0  0
 39 38  1  0  0  0  0
 39 46  1  0  0  0  0
 41 44  1  0  0  0  0
 42 43  1  0  0  0  0
 42 41  2  0  0  0  0
 43 37  2  0  0  0  0
 44 40  2  0  0  0  0
 45 42  1  0  0  0  0
 46 43  1  0  0  0  0
M  END
>  <MODEL>
5

>  <REMARK>
 VINA RESULT:      -7.2      2.546      6.426
  Name = 
  11 active torsions:
  status: ('A' for Active; 'I' for Inactive)
    1  A    between atoms: N_2  and  N_17
    2  A    between atoms: N_2  and  C_18
    3  A    between atoms: C_8  and  N_12
    4  A    between atoms: C_8  and  C_18
    5  A    between atoms: C_11  and  C_29
    6  A    between atoms: N_12  and  C_13
    7  A    between atoms: C_16  and  N_17
    8  A    between atoms: C_16  and  C_43
    9  A    between atoms: C_22  and  C_25
   10  A    between atoms: C_23  and  N_47
   11  A    between atoms: C_27  and  C_40
                            x       y       z     vdW  Elec       q    Type
                         _______ _______ _______ _____ _____    ______ ____

>  <TORSDO>
F 11

$$$$
=
 OpenBabel11042415343D

 47 52  0  0  1  0  0  0  0  0999 V2000
  191.2240  176.2400  145.9310 C   0  0  0  0  0  0  0  0  0  0  0  0
  191.5660  176.4530  148.1550 N   0  0  0  0  0  0  0  0  0  0  0  0
  188.8290  176.6980  145.7980 C   0  0  0  0  0  0  0  0  0  0  0  0
  189.9620  176.0380  142.3820 C   0  0  0  0  0  3  0  0  0  0  0  0
  188.6610  176.2800  142.2000 C   0  0  0  0  0  0  0  0  0  0  0  0
  190.0170  176.5270  146.5360 C   0  0  0  0  0  0  0  0  0  0  0  0
  188.9510  176.5230  144.4020 C   0  0  0  0  0  0  0  0  0  0  0  0
  191.3450  176.0570  144.5470 C   0  0  0  0  0  3  0  0  0  0  0  0
  190.1630  176.2010  143.8090 C   0  0  0  0  0  0  0  0  0  0  0  0
  192.1500  176.2020  146.8730 C   0  0  0  0  0  0  0  0  0  0  0  0
  190.2960  176.6520  147.9630 C   0  0  0  0  0  3  0  0  0  0  0  0
  188.0030  176.5890  143.4810 C   0  0  0  0  0  3  0  0  0  0  0  0
  188.2090  175.1380  140.0390 C   0  0  0  0  0  3  0  0  0  0  0  0
  186.0770  176.0400  137.1620 O   0  0  0  0  0  1  0  0  0  0  0  0
  187.9650  176.2110  140.9060 C   0  0  0  0  0  0  0  0  0  0  0  0
  186.4520  177.1560  139.2620 C   0  0  0  0  0  3  0  0  0  0  0  0
  187.5760  175.0590  138.7900 C   0  0  0  0  0  0  0  0  0  0  0  0
  187.0770  177.2180  140.5100 C   0  0  0  0  0  3  0  0  0  0  0  0
  186.7020  176.0830  138.4020 C   0  0  0  0  0  0  0  0  0  0  0  0
  189.1380  172.6020  136.5460 O   0  0  0  0  0  0  0  0  0  0  0  0
  190.2660  174.1650  137.7740 O   0  0  0  0  0  1  0  0  0  0  0  0
  189.0870  173.5490  137.3720 C   0  0  0  0  0  0  0  0  0  0  0  0
  187.8160  173.9620  137.8960 N   0  0  0  0  0  2  0  0  0  0  0  0
  187.3230  178.3370  146.9730 N   0  0  0  0  0  2  0  0  0  0  0  0
  186.0580  179.9810  148.0130 O   0  0  0  0  0  0  0  0  0  0  0  0
  186.0760  178.8590  147.4450 C   0  0  0  0  0  0  0  0  0  0  0  0
  187.5440  177.0220  146.4540 C   0  0  0  0  0  0  0  0  0  0  0  0
  186.6610  176.1330  146.5760 O   0  0  0  0  0  0  0  0  0  0  0  0
  184.1390  178.6640  145.9390 C   0  0  0  0  0  1  0  0  0  0  0  0
  184.7830  178.1510  147.2110 C   0  0  0  0  0  2  0  0  0  0  0  0
  193.6050  175.9480  146.6620 C   0  0  0  0  0  2  0  0  0  0  0  0
  194.2720  177.1740  146.2530 N   0  0  0  0  0  2  0  0  0  0  0  0
  194.8260  176.9420  144.9850 N   0  0  0  0  0  2  0  0  0  0  0  0
  195.4690  175.6360  145.0250 C   0  0  0  0  0  2  0  0  0  0  0  0
  195.4970  175.0220  143.6370 C   0  0  0  0  0  2  0  0  0  0  0  0
  194.1830  174.4650  143.3330 N   0  0  0  0  0  2  0  0  0  0  0  0
  190.2270  172.5810  141.8740 C   0  0  0  0  0  3  0  0  0  0  0  0
  194.2050  173.0000  143.4430 C   0  0  2  0  0  0  0  0  0  0  0  0
  194.0010  172.3260  142.0780 C   0  0  0  0  0  2  0  0  0  0  0  0
  189.1240  172.5080  142.7300 C   0  0  0  0  0  3  0  0  0  0  0  0
  190.6110  172.5220  144.6390 C   0  0  0  0  0  3  0  0  0  0  0  0
  191.7190  172.6100  143.7900 C   0  0  0  0  0  0  0  0  0  0  0  0
  191.5240  172.6140  142.3910 C   0  0  0  0  0  0  0  0  0  0  0  0
  189.3160  172.4760  144.1110 C   0  0  0  0  0  3  0  0  0  0  0  0
  193.0930  172.5540  144.3950 C   0  0  0  0  0  2  0  0  0  0  0  0
  192.6780  172.7490  141.4400 C   0  0  0  0  0  2  0  0  0  0  0  0
  195.4260  172.5820  143.9810 O   0  0  0  0  0  1  0  0  0  0  0  0
  1  6  1  0  0  0  0
  1 10  1  0  0  0  0
  3 27  1  0  0  0  0
  3  6  1  0  0  0  0
  4  9  2  0  0  0  0
  5  4  1  0  0  0  0
  5 12  2  0  0  0  0
  6 11  2  0  0  0  0
  7  3  2  0  0  0  0
  8  1  2  0  0  0  0
  9  7  1  0  0  0  0
  9  8  1  0  0  0  0
 10  2  2  0  0  0  0
 11  2  1  0  0  0  0
 12  7  1  0  0  0  0
 13 15  1  0  0  0  0
 14 19  1  0  0  0  0
 15  5  1  0  0  0  0
 16 18  1  0  0  0  0
 17 13  2  0  0  0  0
 18 15  2  0  0  0  0
 19 17  1  0  0  0  0
 19 16  2  0  0  0  0
 20 22  2  0  0  0  0
 22 21  1  0  0  0  0
 22 23  1  0  0  0  0
 23 17  1  0  0  0  0
 24 26  1  0  0  0  0
 26 25  2  0  0  0  0
 27 28  2  0  0  0  0
 27 24  1  0  0  0  0
 29 30  1  0  0  0  0
 30 26  1  0  0  0  0
 31 10  1  0  0  0  0
 32 31  1  0  0  0  0
 33 34  1  0  0  0  0
 33 32  1  0  0  0  0
 35 34  1  0  0  0  0
 36 38  1  0  0  0  0
 36 35  1  0  0  0  0
 37 43  2  0  0  0  0
 37 40  1  0  0  0  0
 38 47  1  1  0  0  0
 38 45  1  0  0  0  0
 39 38  1  0  0  0  0
 40 44  2  0  0  0  0
 42 45  1  0  0  0  0
 42 41  2  0  0  0  0
 43 42  1  0  0  0  0
 44 41  1  0  0  0  0
 46 39  1  0  0  0  0
 46 43  1  0  0  0  0
M  END
>  <MODEL>
6

>  <REMARK>
 VINA RESULT:      -7.1      2.143      7.210
  Name = 
  11 active torsions:
  status: ('A' for Active; 'I' for Inactive)
    1  A    between atoms: N_2  and  N_17
    2  A    between atoms: N_2  and  C_18
    3  A    between atoms: C_8  and  N_12
    4  A    between atoms: C_8  and  C_18
    5  A    between atoms: C_11  and  C_29
    6  A    between atoms: N_12  and  C_13
    7  A    between atoms: C_16  and  N_17
    8  A    between atoms: C_16  and  C_43
    9  A    between atoms: C_22  and  C_25
   10  A    between atoms: C_23  and  N_47
   11  A    between atoms: C_27  and  C_40
                            x       y       z     vdW  Elec       q    Type
                         _______ _______ _______ _____ _____    ______ ____

>  <TORSDO>
F 11

$$$$
=
 OpenBabel11042415343D

 47 52  0  0  1  0  0  0  0  0999 V2000
  190.3780  174.5680  145.9980 C   0  0  0  0  0  0  0  0  0  0  0  0
  191.1760  175.8800  147.6560 N   0  0  0  0  0  0  0  0  0  0  0  0
  192.4580  173.6350  145.1230 C   0  0  0  0  0  0  0  0  0  0  0  0
  189.7460  172.2190  143.1150 C   0  0  0  0  0  3  0  0  0  0  0  0
  190.8220  171.6480  142.5680 C   0  0  0  0  0  0  0  0  0  0  0  0
  191.7550  174.4780  146.0050 C   0  0  0  0  0  0  0  0  0  0  0  0
  191.6590  172.9130  144.2080 C   0  0  0  0  0  0  0  0  0  0  0  0
  189.5850  173.8590  145.0860 C   0  0  0  0  0  3  0  0  0  0  0  0
  190.2780  173.0380  144.1880 C   0  0  0  0  0  0  0  0  0  0  0  0
  190.0200  175.3850  146.9730 C   0  0  0  0  0  0  0  0  0  0  0  0
  192.2130  175.3420  147.0890 C   0  0  0  0  0  3  0  0  0  0  0  0
  192.0510  172.0830  143.2540 C   0  0  0  0  0  3  0  0  0  0  0  0
  190.7250  171.2590  140.1150 C   0  0  0  0  0  3  0  0  0  0  0  0
  190.6140  168.1660  138.1010 O   0  0  0  0  0  1  0  0  0  0  0  0
  190.7960  170.7380  141.4130 C   0  0  0  0  0  0  0  0  0  0  0  0
  190.7550  168.4980  140.4820 C   0  0  0  0  0  3  0  0  0  0  0  0
  190.6770  170.4140  138.9970 C   0  0  0  0  0  0  0  0  0  0  0  0
  190.8160  169.3490  141.5890 C   0  0  0  0  0  3  0  0  0  0  0  0
  190.6810  169.0260  139.1900 C   0  0  0  0  0  0  0  0  0  0  0  0
  191.4940  171.8790  135.7260 O   0  0  0  0  0  0  0  0  0  0  0  0
  193.0220  171.2660  137.3120 O   0  0  0  0  0  1  0  0  0  0  0  0
  191.7130  171.3850  136.8630 C   0  0  0  0  0  0  0  0  0  0  0  0
  190.6080  170.9380  137.6630 N   0  0  0  0  0  2  0  0  0  0  0  0
  194.5540  172.3640  145.6920 N   0  0  0  0  0  2  0  0  0  0  0  0
  196.3790  171.0450  146.2540 O   0  0  0  0  0  0  0  0  0  0  0  0
  195.9440  172.0300  145.6040 C   0  0  0  0  0  0  0  0  0  0  0  0
  193.9330  173.5340  145.1500 C   0  0  0  0  0  0  0  0  0  0  0  0
  194.6340  174.4860  144.7200 O   0  0  0  0  0  0  0  0  0  0  0  0
  196.9170  172.0880  143.3430 C   0  0  0  0  0  1  0  0  0  0  0  0
  196.8780  172.7630  144.6990 C   0  0  0  0  0  2  0  0  0  0  0  0
  188.6210  175.7510  147.3410 C   0  0  0  0  0  2  0  0  0  0  0  0
  188.3210  177.0990  146.8850 N   0  0  0  0  0  2  0  0  0  0  0  0
  186.9940  177.3750  147.2480 N   0  0  0  0  0  2  0  0  0  0  0  0
  186.1460  176.4240  146.5430 C   0  0  0  0  0  2  0  0  0  0  0  0
  185.6200  177.0400  145.2600 C   0  0  0  0  0  2  0  0  0  0  0  0
  186.3060  176.4340  144.1230 N   0  0  0  0  0  2  0  0  0  0  0  0
  190.4930  175.8400  142.2660 C   0  0  0  0  0  3  0  0  0  0  0  0
  186.5940  177.4450  143.0950 C   0  0  2  0  0  0  0  0  0  0  0  0
  186.8690  176.8010  141.7280 C   0  0  0  0  0  2  0  0  0  0  0  0
  191.6260  176.3460  142.9100 C   0  0  0  0  0  3  0  0  0  0  0  0
  190.2620  178.0370  143.9740 C   0  0  0  0  0  3  0  0  0  0  0  0
  189.1210  177.5280  143.3460 C   0  0  0  0  0  0  0  0  0  0  0  0
  189.2440  176.4330  142.4630 C   0  0  0  0  0  0  0  0  0  0  0  0
  191.5110  177.4450  143.7610 C   0  0  0  0  0  3  0  0  0  0  0  0
  187.8180  178.2560  143.5240 C   0  0  0  0  0  2  0  0  0  0  0  0
  188.0430  175.8250  141.7970 C   0  0  0  0  0  2  0  0  0  0  0  0
  185.5140  178.3240  142.9770 O   0  0  0  0  0  1  0  0  0  0  0  0
  1  6  1  0  0  0  0
  1 10  1  0  0  0  0
  3 27  1  0  0  0  0
  3  6  1  0  0  0  0
  4  9  2  0  0  0  0
  5  4  1  0  0  0  0
  5 12  2  0  0  0  0
  6 11  2  0  0  0  0
  7  3  2  0  0  0  0
  8  1  2  0  0  0  0
  9  7  1  0  0  0  0
  9  8  1  0  0  0  0
 10 31  1  0  0  0  0
 10  2  2  0  0  0  0
 11  2  1  0  0  0  0
 12  7  1  0  0  0  0
 13 15  1  0  0  0  0
 14 19  1  0  0  0  0
 15 18  2  0  0  0  0
 15  5  1  0  0  0  0
 16 18  1  0  0  0  0
 17 19  1  0  0  0  0
 17 13  2  0  0  0  0
 19 16  2  0  0  0  0
 20 22  2  0  0  0  0
 22 21  1  0  0  0  0
 22 23  1  0  0  0  0
 23 17  1  0  0  0  0
 26 24  1  0  0  0  0
 26 25  2  0  0  0  0
 27 24  1  0  0  0  0
 28 27  2  0  0  0  0
 29 30  1  0  0  0  0
 30 26  1  0  0  0  0
 32 33  1  0  0  0  0
 32 31  1  0  0  0  0
 34 33  1  0  0  0  0
 35 34  1  0  0  0  0
 36 35  1  0  0  0  0
 37 43  2  0  0  0  0
 37 40  1  0  0  0  0
 38 47  1  6  0  0  0
 38 45  1  0  0  0  0
 38 36  1  0  0  0  0
 39 46  1  0  0  0  0
 39 38  1  0  0  0  0
 40 44  2  0  0  0  0
 42 45  1  0  0  0  0
 42 41  2  0  0  0  0
 43 42  1  0  0  0  0
 44 41  1  0  0  0  0
 46 43  1  0  0  0  0
M  END
>  <MODEL>
7

>  <REMARK>
 VINA RESULT:      -7.1      2.207      8.547
  Name = 
  11 active torsions:
  status: ('A' for Active; 'I' for Inactive)
    1  A    between atoms: N_2  and  N_17
    2  A    between atoms: N_2  and  C_18
    3  A    between atoms: C_8  and  N_12
    4  A    between atoms: C_8  and  C_18
    5  A    between atoms: C_11  and  C_29
    6  A    between atoms: N_12  and  C_13
    7  A    between atoms: C_16  and  N_17
    8  A    between atoms: C_16  and  C_43
    9  A    between atoms: C_22  and  C_25
   10  A    between atoms: C_23  and  N_47
   11  A    between atoms: C_27  and  C_40
                            x       y       z     vdW  Elec       q    Type
                         _______ _______ _______ _____ _____    ______ ____

>  <TORSDO>
F 11

$$$$
=
 OpenBabel11042415343D

 47 52  0  0  1  0  0  0  0  0999 V2000
  190.1190  174.9440  146.0260 C   0  0  0  0  0  0  0  0  0  0  0  0
  190.7410  176.4020  147.6360 N   0  0  0  0  0  0  0  0  0  0  0  0
  192.2480  174.6100  144.8760 C   0  0  0  0  0  0  0  0  0  0  0  0
  189.7790  172.5440  143.1350 C   0  0  0  0  0  3  0  0  0  0  0  0
  190.8920  172.2880  142.4430 C   0  0  0  0  0  0  0  0  0  0  0  0
  191.4620  175.2250  145.8700 C   0  0  0  0  0  0  0  0  0  0  0  0
  191.5610  173.7110  144.0290 C   0  0  0  0  0  0  0  0  0  0  0  0
  189.4350  174.0590  145.1810 C   0  0  0  0  0  3  0  0  0  0  0  0
  190.2040  173.4630  144.1740 C   0  0  0  0  0  0  0  0  0  0  0  0
  189.6820  175.6240  147.0700 C   0  0  0  0  0  0  0  0  0  0  0  0
  191.8060  176.1670  146.9300 C   0  0  0  0  0  3  0  0  0  0  0  0
  192.0370  173.0280  143.0010 C   0  0  0  0  0  3  0  0  0  0  0  0
  191.1650  171.9780  139.9910 C   0  0  0  0  0  3  0  0  0  0  0  0
  191.0720  168.9700  137.8510 O   0  0  0  0  0  1  0  0  0  0  0  0
  190.9650  171.4170  141.2590 C   0  0  0  0  0  0  0  0  0  0  0  0
  190.8480  169.2210  140.2350 C   0  0  0  0  0  3  0  0  0  0  0  0
  191.2160  171.1740  138.8440 C   0  0  0  0  0  0  0  0  0  0  0  0
  190.8120  170.0300  141.3740 C   0  0  0  0  0  3  0  0  0  0  0  0
  191.0450  169.7890  138.9730 C   0  0  0  0  0  0  0  0  0  0  0  0
  190.7470  172.7510  135.5570 O   0  0  0  0  0  0  0  0  0  0  0  0
  189.1260  172.5310  137.1540 O   0  0  0  0  0  1  0  0  0  0  0  0
  190.4300  172.3520  136.7080 C   0  0  0  0  0  0  0  0  0  0  0  0
  191.4250  171.7380  137.5410 N   0  0  0  0  0  2  0  0  0  0  0  0
  194.6430  174.2110  145.5350 N   0  0  0  0  0  2  0  0  0  0  0  0
  196.7930  173.6960  146.2430 O   0  0  0  0  0  0  0  0  0  0  0  0
  196.0650  174.2350  145.3700 C   0  0  0  0  0  0  0  0  0  0  0  0
  193.6890  174.9060  144.7270 C   0  0  0  0  0  0  0  0  0  0  0  0
  194.0670  175.7850  143.9110 O   0  0  0  0  0  0  0  0  0  0  0  0
  196.8890  173.7210  143.1070 C   0  0  0  0  0  1  0  0  0  0  0  0
  196.7100  174.8060  144.1510 C   0  0  0  0  0  2  0  0  0  0  0  0
  188.2920  175.5990  147.6130 C   0  0  0  0  0  2  0  0  0  0  0  0
  187.4560  176.5450  146.8910 N   0  0  0  0  0  2  0  0  0  0  0  0
  186.3170  176.7770  147.6760 N   0  0  0  0  0  2  0  0  0  0  0  0
  185.8390  178.1160  147.3610 C   0  0  0  0  0  2  0  0  0  0  0  0
  184.5900  178.0390  146.5020 C   0  0  0  0  0  2  0  0  0  0  0  0
  184.9360  177.4730  145.2030 N   0  0  0  0  0  2  0  0  0  0  0  0
  187.9020  176.1080  141.9360 C   0  0  0  0  0  3  0  0  0  0  0  0
  185.2020  178.5410  144.2280 C   0  0  2  0  0  0  0  0  0  0  0  0
  184.8110  178.1190  142.8040 C   0  0  0  0  0  2  0  0  0  0  0  0
  189.2790  176.1490  142.1750 C   0  0  0  0  0  3  0  0  0  0  0  0
  188.9420  177.9160  143.7920 C   0  0  0  0  0  3  0  0  0  0  0  0
  187.5620  177.8720  143.5710 C   0  0  0  0  0  0  0  0  0  0  0  0
  187.0410  176.9750  142.6130 C   0  0  0  0  0  0  0  0  0  0  0  0
  189.7990  177.0540  143.1000 C   0  0  0  0  0  3  0  0  0  0  0  0
  186.6920  178.8850  144.2600 C   0  0  0  0  0  2  0  0  0  0  0  0
  185.5640  176.8610  142.3690 C   0  0  0  0  0  2  0  0  0  0  0  0
  184.4870  179.6910  144.5770 O   0  0  0  0  0  1  0  0  0  0  0  0
  1 10  2  0  0  0  0
  3  6  2  0  0  0  0
  4  9  1  0  0  0  0
  5 12  1  0  0  0  0
  5  4  2  0  0  0  0
  6  1  1  0  0  0  0
  6 11  1  0  0  0  0
  7  9  1  0  0  0  0
  7  3  1  0  0  0  0
  8  1  1  0  0  0  0
  9  8  2  0  0  0  0
 10 31  1  0  0  0  0
 10  2  1  0  0  0  0
 11  2  2  0  0  0  0
 12  7  2  0  0  0  0
 13 15  1  0  0  0  0
 14 19  1  0  0  0  0
 15 18  2  0  0  0  0
 15  5  1  0  0  0  0
 16 18  1  0  0  0  0
 17 19  1  0  0  0  0
 17 13  2  0  0  0  0
 19 16  2  0  0  0  0
 20 22  2  0  0  0  0
 22 21  1  0  0  0  0
 22 23  1  0  0  0  0
 23 17  1  0  0  0  0
 26 24  1  0  0  0  0
 26 25  2  0  0  0  0
 27  3  1  0  0  0  0
 27 24  1  0  0  0  0
 28 27  2  0  0  0  0
 29 30  1  0  0  0  0
 30 26  1  0  0  0  0
 32 31  1  0  0  0  0
 32 33  1  0  0  0  0
 34 33  1  0  0  0  0
 35 34  1  0  0  0  0
 36 35  1  0  0  0  0
 37 40  2  0  0  0  0
 37 43  1  0  0  0  0
 38 45  1  0  0  0  0
 38 47  1  1  0  0  0
 38 36  1  0  0  0  0
 39 38  1  0  0  0  0
 40 44  1  0  0  0  0
 42 41  1  0  0  0  0
 42 45  1  0  0  0  0
 43 42  2  0  0  0  0
 44 41  2  0  0  0  0
 46 43  1  0  0  0  0
 46 39  1  0  0  0  0
M  END
>  <MODEL>
8

>  <REMARK>
 VINA RESULT:      -6.8      1.936      8.700
  Name = 
  11 active torsions:
  status: ('A' for Active; 'I' for Inactive)
    1  A    between atoms: N_2  and  N_17
    2  A    between atoms: N_2  and  C_18
    3  A    between atoms: C_8  and  N_12
    4  A    between atoms: C_8  and  C_18
    5  A    between atoms: C_11  and  C_29
    6  A    between atoms: N_12  and  C_13
    7  A    between atoms: C_16  and  N_17
    8  A    between atoms: C_16  and  C_43
    9  A    between atoms: C_22  and  C_25
   10  A    between atoms: C_23  and  N_47
   11  A    between atoms: C_27  and  C_40
                            x       y       z     vdW  Elec       q    Type
                         _______ _______ _______ _____ _____    ______ ____

>  <TORSDO>
F 11

$$$$
=
 OpenBabel11042415343D

 47 52  0  0  1  0  0  0  0  0999 V2000
  193.6670  175.4650  141.8920 C   0  0  0  0  0  0  0  0  0  0  0  0
  195.1610  173.9980  141.0410 N   0  0  0  0  0  0  0  0  0  0  0  0
  191.5690  174.3630  141.3050 C   0  0  0  0  0  0  0  0  0  0  0  0
  190.6780  177.4500  143.0560 C   0  0  0  0  0  3  0  0  0  0  0  0
  189.4780  176.9270  142.7880 C   0  0  0  0  0  0  0  0  0  0  0  0
  192.9760  174.4330  141.2900 C   0  0  0  0  0  0  0  0  0  0  0  0
  190.9140  175.4360  141.9490 C   0  0  0  0  0  0  0  0  0  0  0  0
  193.0190  176.5340  142.5240 C   0  0  0  0  0  3  0  0  0  0  0  0
  191.6190  176.4840  142.5210 C   0  0  0  0  0  0  0  0  0  0  0  0
  194.9590  175.2180  141.7620 C   0  0  0  0  0  0  0  0  0  0  0  0
  193.9850  173.5220  140.7600 C   0  0  0  0  0  3  0  0  0  0  0  0
  189.6130  175.6420  142.0800 C   0  0  0  0  0  3  0  0  0  0  0  0
  187.8140  177.7170  144.4570 C   0  0  0  0  0  3  0  0  0  0  0  0
  184.4820  179.2670  144.0880 O   0  0  0  0  0  1  0  0  0  0  0  0
  188.1920  177.5610  143.1170 C   0  0  0  0  0  0  0  0  0  0  0  0
  186.0860  178.5570  142.4390 C   0  0  0  0  0  3  0  0  0  0  0  0
  186.5840  178.2970  144.7990 C   0  0  0  0  0  0  0  0  0  0  0  0
  187.3200  177.9900  142.1090 C   0  0  0  0  0  3  0  0  0  0  0  0
  185.7150  178.7070  143.7780 C   0  0  0  0  0  0  0  0  0  0  0  0
  185.9240  177.7810  148.3780 O   0  0  0  0  0  1  0  0  0  0  0  0
  187.0700  176.3340  147.0300 O   0  0  0  0  0  0  0  0  0  0  0  0
  186.3780  177.5220  147.2340 C   0  0  0  0  0  0  0  0  0  0  0  0
  186.1890  178.4650  146.1680 N   0  0  0  0  0  2  0  0  0  0  0  0
  190.3630  173.3790  139.3270 N   0  0  0  0  0  2  0  0  0  0  0  0
  189.3100  172.6180  137.4040 O   0  0  0  0  0  0  0  0  0  0  0  0
  189.8270  172.3290  138.5140 C   0  0  0  0  0  0  0  0  0  0  0  0
  190.8380  173.2450  140.6700 C   0  0  0  0  0  0  0  0  0  0  0  0
  190.6150  172.1920  141.3220 O   0  0  0  0  0  0  0  0  0  0  0  0
  189.6800  170.0110  137.6970 C   0  0  0  0  0  1  0  0  0  0  0  0
  189.9370  170.8930  138.9020 C   0  0  0  0  0  2  0  0  0  0  0  0
  196.0700  176.0620  142.2880 C   0  0  0  0  0  2  0  0  0  0  0  0
  197.3200  175.3170  142.2610 N   0  0  0  0  0  2  0  0  0  0  0  0
  197.4200  174.6300  143.4800 N   0  0  0  0  0  2  0  0  0  0  0  0
  197.9410  173.3020  143.1860 C   0  0  0  0  0  2  0  0  0  0  0  0
  196.9260  172.2420  143.5740 C   0  0  0  0  0  2  0  0  0  0  0  0
  195.7040  172.8950  144.0330 N   0  0  0  0  0  2  0  0  0  0  0  0
  191.1340  172.9270  144.7030 C   0  0  0  0  0  3  0  0  0  0  0  0
  195.3490  172.4360  145.3830 C   0  0  2  0  0  0  0  0  0  0  0  0
  194.4430  171.1960  145.3400 C   0  0  0  0  0  2  0  0  0  0  0  0
  190.4850  174.1110  145.0660 C   0  0  0  0  0  3  0  0  0  0  0  0
  192.5380  174.9310  146.0490 C   0  0  0  0  0  3  0  0  0  0  0  0
  193.1990  173.7570  145.6770 C   0  0  0  0  0  0  0  0  0  0  0  0
  192.4810  172.7340  145.0190 C   0  0  0  0  0  0  0  0  0  0  0  0
  191.1850  175.1110  145.7410 C   0  0  0  0  0  3  0  0  0  0  0  0
  194.6220  173.5640  146.1180 C   0  0  0  0  0  2  0  0  0  0  0  0
  193.1560  171.4720  144.5630 C   0  0  0  0  0  2  0  0  0  0  0  0
  196.5090  172.1300  146.1010 O   0  0  0  0  0  1  0  0  0  0  0  0
  1  8  1  0  0  0  0
  2 10  1  0  0  0  0
  3  7  1  0  0  0  0
  5  4  2  0  0  0  0
  5 15  1  0  0  0  0
  6  3  2  0  0  0  0
  6  1  1  0  0  0  0
  7 12  2  0  0  0  0
  7  9  1  0  0  0  0
  9  8  2  0  0  0  0
  9  4  1  0  0  0  0
 10  1  2  0  0  0  0
 10 31  1  0  0  0  0
 11  2  2  0  0  0  0
 11  6  1  0  0  0  0
 12  5  1  0  0  0  0
 13 17  1  0  0  0  0
 15 13  2  0  0  0  0
 16 19  1  0  0  0  0
 17 23  1  0  0  0  0
 18 16  2  0  0  0  0
 18 15  1  0  0  0  0
 19 14  1  0  0  0  0
 19 17  2  0  0  0  0
 21 22  2  0  0  0  0
 22 20  1  0  0  0  0
 23 22  1  0  0  0  0
 24 27  1  0  0  0  0
 25 26  2  0  0  0  0
 26 30  1  0  0  0  0
 26 24  1  0  0  0  0
 27  3  1  0  0  0  0
 27 28  2  0  0  0  0
 29 30  1  0  0  0  0
 32 31  1  0  0  0  0
 32 33  1  0  0  0  0
 34 33  1  0  0  0  0
 34 35  1  0  0  0  0
 35 36  1  0  0  0  0
 36 38  1  0  0  0  0
 37 43  2  0  0  0  0
 37 40  1  0  0  0  0
 38 47  1  1  0  0  0
 38 45  1  0  0  0  0
 39 38  1  0  0  0  0
 40 44  2  0  0  0  0
 42 41  2  0  0  0  0
 42 45  1  0  0  0  0
 43 42  1  0  0  0  0
 44 41  1  0  0  0  0
 46 43  1  0  0  0  0
 46 39  1  0  0  0  0
M  END
>  <MODEL>
9

>  <REMARK>
 VINA RESULT:      -6.8      2.107      3.292
  Name = 
  11 active torsions:
  status: ('A' for Active; 'I' for Inactive)
    1  A    between atoms: N_2  and  N_17
    2  A    between atoms: N_2  and  C_18
    3  A    between atoms: C_8  and  N_12
    4  A    between atoms: C_8  and  C_18
    5  A    between atoms: C_11  and  C_29
    6  A    between atoms: N_12  and  C_13
    7  A    between atoms: C_16  and  N_17
    8  A    between atoms: C_16  and  C_43
    9  A    between atoms: C_22  and  C_25
   10  A    between atoms: C_23  and  N_47
   11  A    between atoms: C_27  and  C_40
                            x       y       z     vdW  Elec       q    Type
                         _______ _______ _______ _____ _____    ______ ____

>  <TORSDO>
F 11

$$$$
