=
 OpenBabel11042416403D

 65 69  0  0  1  0  0  0  0  0999 V2000
  190.5960  176.0730  145.4230 C   0  0  0  0  0  0  0  0  0  0  0  0
  190.5110  178.3200  144.2360 C   0  0  0  0  0  1  0  0  0  0  0  0
  189.6790  176.1830  146.3790 C   0  0  0  0  0  0  0  0  0  0  0  0
  191.0890  176.9640  144.4420 C   0  0  0  0  0  0  0  0  0  0  0  0
  191.1340  174.8220  145.5730 C   0  0  0  0  0  0  0  0  0  0  0  0
  192.1930  174.4230  144.7740 C   0  0  0  0  0  0  0  0  0  0  0  0
  189.6680  174.9680  147.1480 N   0  0  0  0  0  0  0  0  0  0  0  0
  192.1430  176.5540  143.6640 N   0  0  0  0  0  0  0  0  0  0  0  0
  193.9140  173.4420  143.8090 C   0  0  0  0  0  0  0  0  0  0  0  0
  193.7180  174.7810  143.2260 C   0  0  0  0  0  0  0  0  0  0  0  0
  190.5280  174.1590  146.6700 N   0  0  0  0  0  0  0  0  0  0  0  0
  193.0020  173.2100  144.7600 C   0  0  0  0  0  3  0  0  0  0  0  0
  192.6780  175.3070  143.8400 C   0  0  0  0  0  0  0  0  0  0  0  0
  195.0080  172.4950  143.4560 C   0  0  0  0  0  2  0  0  0  0  0  0
  194.9650  171.3340  144.3330 N   0  0  0  0  0  2  0  0  0  0  0  0
  195.6000  170.2450  143.6150 C   0  0  0  0  0  2  0  0  0  0  0  0
  194.9760  170.0860  142.3130 N   0  0  0  0  0  2  0  0  0  0  0  0
  193.8820  169.1460  142.4790 C   0  0  0  0  0  2  0  0  0  0  0  0
  194.1060  169.1140  140.0770 O   0  0  0  0  0  1  0  0  0  0  0  0
  193.2260  168.8490  141.1320 C   0  0  2  0  0  3  0  0  0  0  0  0
  191.9810  169.6000  140.9630 N   0  0  0  0  0  2  0  0  0  0  0  0
  191.4310  169.3810  139.6240 C   0  0  0  0  0  2  0  0  0  0  0  0
  191.0350  170.7030  138.9610 C   0  0  1  0  0  3  0  0  0  0  0  0
  191.1290  171.1920  136.4710 N   0  0  0  0  0  0  0  0  0  0  0  0
  190.6810  170.9700  135.1070 C   0  0  0  0  0  1  0  0  0  0  0  0
  192.1390  172.0680  136.6960 O   0  0  0  0  0  1  0  0  0  0  0  0
  189.5190  169.7550  137.3660 O   0  0  0  0  0  0  0  0  0  0  0  0
  190.5130  170.5050  137.5690 C   0  0  0  0  0  0  0  0  0  0  0  0
  190.0580  171.5120  139.8040 C   0  0  0  0  0  2  0  0  0  0  0  0
  189.8800  173.6920  138.8730 O   0  0  0  0  0  1  0  0  0  0  0  0
  190.5040  172.9580  139.8820 C   0  0  0  0  0  2  0  0  0  0  0  0
  188.9230  177.4200  146.7480 C   0  0  2  0  0  3  0  0  0  0  0  0
  189.3030  177.8300  148.0310 O   0  0  0  0  0  0  0  0  0  0  0  0
  190.6850  178.0260  147.9600 C   0  0  0  0  0  1  0  0  0  0  0  0
  187.4250  177.1430  146.7190 C   0  0  0  0  0  2  0  0  0  0  0  0
  185.2380  178.3300  147.0830 C   0  0  0  0  0  2  0  0  0  0  0  0
  184.9080  178.5560  144.7230 C   0  0  1  0  0  3  0  0  0  0  0  0
  184.2980  177.9490  145.9640 C   0  0  0  0  0  2  0  0  0  0  0  0
  186.6230  178.4130  146.4560 C   0  0  2  0  0  3  0  0  0  0  0  0
  186.4080  178.5600  144.9560 C   0  0  0  0  0  2  0  0  0  0  0  0
  184.5950  177.7670  143.5990 O   0  0  0  0  0  0  0  0  0  0  0  0
  185.7770  179.5410  142.6830 O   0  0  0  0  0  1  0  0  0  0  0  0
  185.3050  178.2370  142.4620 C   0  0  2  0  0  0  0  0  0  0  0  0
  184.8270  178.3720  140.1490 O   0  0  0  0  0  0  0  0  0  0  0  0
  184.3720  178.2720  141.2770 C   0  0  0  0  0  0  0  0  0  0  0  0
  182.5930  178.1550  141.4830 S   0  0  0  0  0  1  0  0  0  0  0  0
  187.6120  177.8250  141.5630 O   0  0  0  0  0  0  0  0  0  0  0  0
  186.4510  177.3120  142.1300 C   0  0  0  0  0  0  0  0  0  0  0  0
  186.3900  176.0870  142.4120 O   0  0  0  0  0  1  0  0  0  0  0  0
  194.5590  175.4370  142.1840 C   0  0  0  0  0  2  0  0  0  0  0  0
  195.9040  176.3760  142.9600 S   0  0  0  0  0  0  0  0  0  0  0  0
  197.0360  175.9460  141.6100 C   0  0  0  0  0  2  0  0  0  0  0  0
  197.7800  173.7850  139.9360 O   0  0  0  0  0  0  0  0  0  0  0  0
  196.6900  174.3720  139.6820 C   0  0  0  0  0  0  0  0  0  0  0  0
  196.2740  175.4950  140.4600 N   0  0  0  0  0  2  0  0  0  0  0  0
  195.8180  173.8890  138.5570 C   0  0  2  0  0  3  0  0  0  0  0  0
  197.2190  175.1420  137.0870 C   0  0  0  0  0  2  0  0  0  0  0  0
  195.8250  174.8270  137.4200 N   0  0  0  0  0  0  0  0  0  0  0  0
  195.2660  175.1300  135.0510 C   0  0  0  0  0  2  0  0  0  0  0  0
  197.2640  176.1020  135.9020 C   0  0  0  0  0  2  0  0  0  0  0  0
  196.6520  175.4690  134.7340 N   0  0  0  0  0  2  0  0  0  0  0  0
  195.2320  174.1750  136.2440 C   0  0  0  0  0  2  0  0  0  0  0  0
  194.1970  172.6540  139.8090 O   0  0  0  0  0  0  0  0  0  0  0  0
  193.3800  174.5770  138.8010 N   0  0  0  0  0  1  0  0  0  0  0  0
  194.4300  173.6610  139.0920 C   0  0  0  0  0  0  0  0  0  0  0  0
  1  5  1  0  0  0  0
  1  3  2  0  0  0  0
  2  4  1  0  0  0  0
  3 32  1  0  0  0  0
  3  7  1  0  0  0  0
  4  1  1  0  0  0  0
  5 11  1  0  0  0  0
  6  5  2  0  0  0  0
  8 13  1  0  0  0  0
  8  4  2  0  0  0  0
  9 12  2  0  0  0  0
 10  9  1  0  0  0  0
 10 13  2  0  0  0  0
 11  7  2  0  0  0  0
 12  6  1  0  0  0  0
 13  6  1  0  0  0  0
 14  9  1  0  0  0  0
 14 15  1  0  0  0  0
 16 15  1  0  0  0  0
 17 18  1  0  0  0  0
 17 16  1  0  0  0  0
 20 19  1  6  0  0  0
 20 18  1  0  0  0  0
 21 20  1  0  0  0  0
 22 21  1  0  0  0  0
 23 22  1  1  0  0  0
 23 29  1  0  0  0  0
 24 26  1  0  0  0  0
 24 28  1  0  0  0  0
 25 24  1  0  0  0  0
 27 28  2  0  0  0  0
 28 23  1  0  0  0  0
 29 31  1  0  0  0  0
 30 31  1  0  0  0  0
 32 35  1  1  0  0  0
 32 33  1  0  0  0  0
 34 33  1  0  0  0  0
 37 41  1  6  0  0  0
 37 40  1  0  0  0  0
 37 38  1  0  0  0  0
 38 36  1  0  0  0  0
 39 35  1  6  0  0  0
 39 36  1  0  0  0  0
 40 39  1  0  0  0  0
 43 42  1  1  0  0  0
 43 41  1  0  0  0  0
 44 45  2  0  0  0  0
 45 46  1  0  0  0  0
 45 43  1  0  0  0  0
 47 48  2  0  0  0  0
 48 49  1  0  0  0  0
 48 43  1  0  0  0  0
 50 51  1  0  0  0  0
 50 10  1  0  0  0  0
 52 51  1  0  0  0  0
 54 53  2  0  0  0  0
 54 55  1  0  0  0  0
 55 52  1  0  0  0  0
 56 65  1  1  0  0  0
 56 54  1  0  0  0  0
 57 58  1  0  0  0  0
 58 56  1  0  0  0  0
 59 62  1  0  0  0  0
 60 57  1  0  0  0  0
 61 59  1  0  0  0  0
 61 60  1  0  0  0  0
 62 58  1  0  0  0  0
 64 65  1  0  0  0  0
 65 63  2  0  0  0  0
M  END
>  <MODEL>
1

>  <REMARK>
 VINA RESULT:      -5.3      0.000      0.000
  Name = 
  27 active torsions:
  status: ('A' for Active; 'I' for Inactive)
    1  A    between atoms: C_4  and  C_12
    2  A    between atoms: N_9  and  C_25
    3  A    between atoms: N_9  and  C_52
    4  A    between atoms: C_11  and  C_36
    5  A    between atoms: C_11  and  S_62
    6  A    between atoms: C_12  and  C_23
    7  A    between atoms: C_12  and  O_42
    8  A    between atoms: C_14  and  N_21
    9  A    between atoms: C_14  and  C_33
   10  A    between atoms: C_14  and  C_40
   11  A    between atoms: C_15  and  C_54
   12  A    between atoms: C_15  and  C_65
   13  A    between atoms: C_19  and  C_27
   14  A    between atoms: C_19  and  C_31
   15  A    between atoms: C_19  and  O_43
   16  A    between atoms: C_23  and  C_55
   17  A    between atoms: C_25  and  C_29
   18  A    between atoms: C_34  and  O_43
   19  A    between atoms: C_48  and  N_49
   20  A    between atoms: C_48  and  C_53
   21  A    between atoms: N_49  and  C_59
   22  A    between atoms: C_52  and  N_61
   23  A    between atoms: C_53  and  N_61
   24  A    between atoms: C_54  and  C_57
   25  A    between atoms: C_54  and  C_59
   26  A    between atoms: C_60  and  S_62
   27  A    between atoms: C_60  and  N_63
                            x       y       z     vdW  Elec       q    Type
                         _______ _______ _______ _____ _____    ______ ____

>  <TORSDO>
F 27

$$$$
=
 OpenBabel11042416403D

 65 69  0  0  1  0  0  0  0  0999 V2000
  188.3450  175.0430  142.3460 C   0  0  0  0  0  0  0  0  0  0  0  0
  188.0010  175.0900  139.8270 C   0  0  0  0  0  1  0  0  0  0  0  0
  187.6020  176.0530  142.7880 C   0  0  0  0  0  0  0  0  0  0  0  0
  188.6410  174.5460  141.0550 C   0  0  0  0  0  0  0  0  0  0  0  0
  188.9340  174.5060  143.4600 C   0  0  0  0  0  0  0  0  0  0  0  0
  189.8500  173.4760  143.3310 C   0  0  0  0  0  0  0  0  0  0  0  0
  187.7540  176.1480  144.2140 N   0  0  0  0  0  0  0  0  0  0  0  0
  189.5570  173.5290  140.9470 N   0  0  0  0  0  0  0  0  0  0  0  0
  191.4070  171.9340  143.5690 C   0  0  0  0  0  0  0  0  0  0  0  0
  191.0790  172.0890  142.1410 C   0  0  0  0  0  0  0  0  0  0  0  0
  188.5410  175.2280  144.6160 N   0  0  0  0  0  0  0  0  0  0  0  0
  190.6770  172.7760  144.3080 C   0  0  0  0  0  3  0  0  0  0  0  0
  190.1450  173.0170  142.0700 C   0  0  0  0  0  0  0  0  0  0  0  0
  192.4490  171.0260  144.1260 C   0  0  0  0  0  2  0  0  0  0  0  0
  193.3550  171.7750  144.9820 N   0  0  0  0  0  2  0  0  0  0  0  0
  194.3860  170.8470  145.4110 C   0  0  0  0  0  2  0  0  0  0  0  0
  195.4870  170.8670  144.4650 N   0  0  0  0  0  2  0  0  0  0  0  0
  195.7670  172.2620  144.1710 C   0  0  0  0  0  2  0  0  0  0  0  0
  197.5330  171.7710  145.7390 O   0  0  0  0  0  1  0  0  0  0  0  0
  197.1240  172.6650  144.7430 C   0  0  2  0  0  3  0  0  0  0  0  0
  197.1050  174.0340  145.2590 N   0  0  0  0  0  2  0  0  0  0  0  0
  195.7490  174.4120  145.6570 C   0  0  0  0  0  2  0  0  0  0  0  0
  195.4160  175.8400  145.2170 C   0  0  1  0  0  3  0  0  0  0  0  0
  196.1110  176.5870  142.8920 N   0  0  0  0  0  0  0  0  0  0  0  0
  195.9140  176.6380  141.4530 C   0  0  0  0  0  1  0  0  0  0  0  0
  197.2090  177.1760  143.4250 O   0  0  0  0  0  1  0  0  0  0  0  0
  194.0970  175.4600  143.2530 O   0  0  0  0  0  0  0  0  0  0  0  0
  195.1590  175.9340  143.7420 C   0  0  0  0  0  0  0  0  0  0  0  0
  194.2680  176.4460  146.0140 C   0  0  0  0  0  2  0  0  0  0  0  0
  191.9310  176.0540  146.2010 O   0  0  0  0  0  1  0  0  0  0  0  0
  193.1720  175.4180  146.2180 C   0  0  0  0  0  2  0  0  0  0  0  0
  186.8890  177.0660  141.9490 C   0  0  2  0  0  3  0  0  0  0  0  0
  187.4130  178.3370  142.2100 O   0  0  0  0  0  0  0  0  0  0  0  0
  188.7020  178.3210  141.6680 C   0  0  0  0  0  1  0  0  0  0  0  0
  185.3990  177.0490  142.2660 C   0  0  0  0  0  2  0  0  0  0  0  0
  184.0260  178.9210  143.2340 C   0  0  0  0  0  2  0  0  0  0  0  0
  182.3680  178.6560  141.5280 C   0  0  1  0  0  3  0  0  0  0  0  0
  182.5660  178.5970  143.0240 C   0  0  0  0  0  2  0  0  0  0  0  0
  184.7500  178.4030  141.9990 C   0  0  2  0  0  3  0  0  0  0  0  0
  183.6930  178.2400  140.9170 C   0  0  0  0  0  2  0  0  0  0  0  0
  181.3530  177.7590  141.1440 O   0  0  0  0  0  0  0  0  0  0  0  0
  180.3850  179.8530  140.9030 O   0  0  0  0  0  1  0  0  0  0  0  0
  180.1510  178.4680  140.8810 C   0  0  2  0  0  0  0  0  0  0  0  0
  179.1000  177.0260  142.4350 O   0  0  0  0  0  0  0  0  0  0  0  0
  179.1430  178.1480  141.9560 C   0  0  0  0  0  0  0  0  0  0  0  0
  178.0020  179.3920  142.5690 S   0  0  0  0  0  1  0  0  0  0  0  0
  180.1720  177.0450  138.8130 O   0  0  0  0  0  0  0  0  0  0  0  0
  179.5670  178.0550  139.5520 C   0  0  0  0  0  0  0  0  0  0  0  0
  178.5010  178.5750  139.1290 O   0  0  0  0  0  1  0  0  0  0  0  0
  191.7120  171.3780  140.9930 C   0  0  0  0  0  2  0  0  0  0  0  0
  190.4420  170.8120  139.8270 S   0  0  0  0  0  0  0  0  0  0  0  0
  191.7070  170.3650  138.6050 C   0  0  0  0  0  2  0  0  0  0  0  0
  192.5680  173.0390  138.2520 O   0  0  0  0  0  0  0  0  0  0  0  0
  192.0060  172.4740  137.2720 C   0  0  0  0  0  0  0  0  0  0  0  0
  191.5100  171.1400  137.3940 N   0  0  0  0  0  2  0  0  0  0  0  0
  191.8580  173.2000  135.9650 C   0  0  2  0  0  3  0  0  0  0  0  0
  193.9100  174.3090  136.4680 C   0  0  0  0  0  2  0  0  0  0  0  0
  193.1640  173.6090  135.4170 N   0  0  0  0  0  0  0  0  0  0  0  0
  195.3060  172.8280  134.5150 C   0  0  0  0  0  2  0  0  0  0  0  0
  195.2760  174.7350  135.9380 C   0  0  0  0  0  2  0  0  0  0  0  0
  196.0420  173.5520  135.5500 N   0  0  0  0  0  2  0  0  0  0  0  0
  193.9380  172.4140  135.0540 C   0  0  0  0  0  2  0  0  0  0  0  0
  191.1880  175.4660  135.5980 O   0  0  0  0  0  0  0  0  0  0  0  0
  189.7890  174.2600  137.0020 N   0  0  0  0  0  1  0  0  0  0  0  0
  190.9400  174.3750  136.1720 C   0  0  0  0  0  0  0  0  0  0  0  0
  1  3  2  0  0  0  0
  1  5  1  0  0  0  0
  2  4  1  0  0  0  0
  3  7  1  0  0  0  0
  4  1  1  0  0  0  0
  5 11  1  0  0  0  0
  6  5  2  0  0  0  0
  6 12  1  0  0  0  0
  7 11  2  0  0  0  0
  8  4  2  0  0  0  0
  8 13  1  0  0  0  0
  9 14  1  0  0  0  0
  9 12  2  0  0  0  0
 10  9  1  0  0  0  0
 13 10  2  0  0  0  0
 13  6  1  0  0  0  0
 14 15  1  0  0  0  0
 15 16  1  0  0  0  0
 17 16  1  0  0  0  0
 18 17  1  0  0  0  0
 18 20  1  0  0  0  0
 20 21  1  0  0  0  0
 20 19  1  1  0  0  0
 21 22  1  0  0  0  0
 23 22  1  1  0  0  0
 23 29  1  0  0  0  0
 24 26  1  0  0  0  0
 24 28  1  0  0  0  0
 25 24  1  0  0  0  0
 27 28  2  0  0  0  0
 28 23  1  0  0  0  0
 29 31  1  0  0  0  0
 30 31  1  0  0  0  0
 32 33  1  0  0  0  0
 32 35  1  1  0  0  0
 32  3  1  0  0  0  0
 34 33  1  0  0  0  0
 37 41  1  1  0  0  0
 37 38  1  0  0  0  0
 38 36  1  0  0  0  0
 39 35  1  1  0  0  0
 39 36  1  0  0  0  0
 40 37  1  0  0  0  0
 40 39  1  0  0  0  0
 43 42  1  6  0  0  0
 43 41  1  0  0  0  0
 43 45  1  0  0  0  0
 45 44  2  0  0  0  0
 45 46  1  0  0  0  0
 47 48  2  0  0  0  0
 48 43  1  0  0  0  0
 49 48  1  0  0  0  0
 50 10  1  0  0  0  0
 51 50  1  0  0  0  0
 52 51  1  0  0  0  0
 54 55  1  0  0  0  0
 54 53  2  0  0  0  0
 55 52  1  0  0  0  0
 56 65  1  1  0  0  0
 56 54  1  0  0  0  0
 58 56  1  0  0  0  0
 58 57  1  0  0  0  0
 59 62  1  0  0  0  0
 59 61  1  0  0  0  0
 60 57  1  0  0  0  0
 61 60  1  0  0  0  0
 62 58  1  0  0  0  0
 63 65  2  0  0  0  0
 65 64  1  0  0  0  0
M  END
>  <MODEL>
2

>  <REMARK>
 VINA RESULT:      -4.9      3.268      5.873
  Name = 
  27 active torsions:
  status: ('A' for Active; 'I' for Inactive)
    1  A    between atoms: C_4  and  C_12
    2  A    between atoms: N_9  and  C_25
    3  A    between atoms: N_9  and  C_52
    4  A    between atoms: C_11  and  C_36
    5  A    between atoms: C_11  and  S_62
    6  A    between atoms: C_12  and  C_23
    7  A    between atoms: C_12  and  O_42
    8  A    between atoms: C_14  and  N_21
    9  A    between atoms: C_14  and  C_33
   10  A    between atoms: C_14  and  C_40
   11  A    between atoms: C_15  and  C_54
   12  A    between atoms: C_15  and  C_65
   13  A    between atoms: C_19  and  C_27
   14  A    between atoms: C_19  and  C_31
   15  A    between atoms: C_19  and  O_43
   16  A    between atoms: C_23  and  C_55
   17  A    between atoms: C_25  and  C_29
   18  A    between atoms: C_34  and  O_43
   19  A    between atoms: C_48  and  N_49
   20  A    between atoms: C_48  and  C_53
   21  A    between atoms: N_49  and  C_59
   22  A    between atoms: C_52  and  N_61
   23  A    between atoms: C_53  and  N_61
   24  A    between atoms: C_54  and  C_57
   25  A    between atoms: C_54  and  C_59
   26  A    between atoms: C_60  and  S_62
   27  A    between atoms: C_60  and  N_63
                            x       y       z     vdW  Elec       q    Type
                         _______ _______ _______ _____ _____    ______ ____

>  <TORSDO>
F 27

$$$$
=
 OpenBabel11042416403D

 65 69  0  0  1  0  0  0  0  0999 V2000
  187.7780  175.2340  140.7390 C   0  0  0  0  0  0  0  0  0  0  0  0
  186.7870  176.4330  138.7280 C   0  0  0  0  0  1  0  0  0  0  0  0
  187.4540  176.0130  141.7660 C   0  0  0  0  0  0  0  0  0  0  0  0
  187.5820  175.3350  139.3420 C   0  0  0  0  0  0  0  0  0  0  0  0
  188.4960  174.1990  141.2760 C   0  0  0  0  0  0  0  0  0  0  0  0
  189.0620  173.2440  140.4470 C   0  0  0  0  0  0  0  0  0  0  0  0
  188.0050  175.4460  142.9670 N   0  0  0  0  0  0  0  0  0  0  0  0
  188.1550  174.3840  138.5350 N   0  0  0  0  0  0  0  0  0  0  0  0
  190.1960  171.6040  139.5090 C   0  0  0  0  0  0  0  0  0  0  0  0
  189.5430  172.4130  138.4650 C   0  0  0  0  0  0  0  0  0  0  0  0
  188.6210  174.3680  142.6780 N   0  0  0  0  0  0  0  0  0  0  0  0
  189.9240  172.1000  140.7210 C   0  0  0  0  0  3  0  0  0  0  0  0
  188.8820  173.3670  139.0900 C   0  0  0  0  0  0  0  0  0  0  0  0
  191.0950  170.4400  139.2690 C   0  0  0  0  0  2  0  0  0  0  0  0
  192.2330  170.4940  140.1730 N   0  0  0  0  0  2  0  0  0  0  0  0
  192.1030  169.3660  141.0760 C   0  0  0  0  0  2  0  0  0  0  0  0
  192.5080  169.7600  142.4140 N   0  0  0  0  0  2  0  0  0  0  0  0
  193.8200  170.3710  142.2970 C   0  0  0  0  0  2  0  0  0  0  0  0
  194.3350  170.6810  144.6330 O   0  0  0  0  0  1  0  0  0  0  0  0
  194.0530  171.3560  143.4400 C   0  0  2  0  0  3  0  0  0  0  0  0
  192.9120  172.2550  143.6160 N   0  0  0  0  0  2  0  0  0  0  0  0
  192.8130  172.6870  145.0110 C   0  0  0  0  0  2  0  0  0  0  0  0
  193.3380  174.1150  145.1910 C   0  0  1  0  0  3  0  0  0  0  0  0
  193.9390  175.5490  143.1840 N   0  0  0  0  0  0  0  0  0  0  0  0
  193.5700  176.3720  142.0440 C   0  0  0  0  0  1  0  0  0  0  0  0
  195.2500  175.2980  143.4140 O   0  0  0  0  0  1  0  0  0  0  0  0
  191.7240  175.3170  143.8910 O   0  0  0  0  0  0  0  0  0  0  0  0
  192.9370  175.0140  144.0590 C   0  0  0  0  0  0  0  0  0  0  0  0
  192.9490  174.7170  146.5340 C   0  0  0  0  0  2  0  0  0  0  0  0
  192.1870  176.7660  147.4670 O   0  0  0  0  0  1  0  0  0  0  0  0
  192.9940  176.2310  146.4630 C   0  0  0  0  0  2  0  0  0  0  0  0
  186.8110  177.3620  141.6910 C   0  0  2  0  0  3  0  0  0  0  0  0
  187.4980  178.2510  142.5270 O   0  0  0  0  0  0  0  0  0  0  0  0
  188.7800  178.3530  141.9790 C   0  0  0  0  0  1  0  0  0  0  0  0
  185.3540  177.2690  142.1260 C   0  0  0  0  0  2  0  0  0  0  0  0
  183.9310  179.0910  143.1170 C   0  0  0  0  0  2  0  0  0  0  0  0
  182.1800  178.6510  141.5460 C   0  0  1  0  0  3  0  0  0  0  0  0
  182.4850  178.6680  143.0250 C   0  0  0  0  0  2  0  0  0  0  0  0
  184.6010  178.5670  141.8540 C   0  0  2  0  0  3  0  0  0  0  0  0
  183.4850  178.2920  140.8580 C   0  0  0  0  0  2  0  0  0  0  0  0
  181.2020  177.6760  141.2700 O   0  0  0  0  0  0  0  0  0  0  0  0
  180.2050  179.6670  140.6180 O   0  0  0  0  0  1  0  0  0  0  0  0
  179.9910  178.3020  140.8720 C   0  0  2  0  0  0  0  0  0  0  0  0
  178.9960  177.2100  142.7210 O   0  0  0  0  0  0  0  0  0  0  0  0
  178.9850  178.1880  141.9890 C   0  0  0  0  0  0  0  0  0  0  0  0
  177.7680  179.4740  142.2870 S   0  0  0  0  0  1  0  0  0  0  0  0
  180.2650  177.1420  138.6620 O   0  0  0  0  0  0  0  0  0  0  0  0
  179.4160  177.6240  139.6510 C   0  0  0  0  0  0  0  0  0  0  0  0
  178.1750  177.4390  139.5450 O   0  0  0  0  0  1  0  0  0  0  0  0
  189.6460  172.2260  136.9890 C   0  0  0  0  0  2  0  0  0  0  0  0
  190.7780  173.4530  136.2780 S   0  0  0  0  0  0  0  0  0  0  0  0
  192.1610  172.2820  136.3580 C   0  0  0  0  0  2  0  0  0  0  0  0
  192.9840  174.6210  137.7260 O   0  0  0  0  0  0  0  0  0  0  0  0
  193.7760  174.1380  136.8700 C   0  0  0  0  0  0  0  0  0  0  0  0
  193.4080  172.9840  136.1140 N   0  0  0  0  0  2  0  0  0  0  0  0
  195.1190  174.7730  136.6410 C   0  0  2  0  0  3  0  0  0  0  0  0
  195.5840  173.9940  138.8490 C   0  0  0  0  0  2  0  0  0  0  0  0
  195.7890  175.1050  137.9120 N   0  0  0  0  0  0  0  0  0  0  0  0
  197.9410  175.5360  139.0060 C   0  0  0  0  0  2  0  0  0  0  0  0
  196.2770  174.2990  140.1730 C   0  0  0  0  0  2  0  0  0  0  0  0
  197.7150  174.4450  139.9520 N   0  0  0  0  0  2  0  0  0  0  0  0
  197.2360  175.2240  137.6860 C   0  0  0  0  0  2  0  0  0  0  0  0
  195.9120  176.7410  135.5390 O   0  0  0  0  0  0  0  0  0  0  0  0
  193.6660  176.2750  135.1900 N   0  0  0  0  0  1  0  0  0  0  0  0
  194.9340  175.9840  135.7670 C   0  0  0  0  0  0  0  0  0  0  0  0
  1  5  1  0  0  0  0
  1  3  2  0  0  0  0
  2  4  1  0  0  0  0
  3  7  1  0  0  0  0
  4  1  1  0  0  0  0
  5 11  1  0  0  0  0
  6 12  1  0  0  0  0
  6  5  2  0  0  0  0
  8 13  1  0  0  0  0
  8  4  2  0  0  0  0
  9 12  2  0  0  0  0
 10 13  2  0  0  0  0
 10  9  1  0  0  0  0
 11  7  2  0  0  0  0
 13  6  1  0  0  0  0
 14  9  1  0  0  0  0
 14 15  1  0  0  0  0
 15 16  1  0  0  0  0
 16 17  1  0  0  0  0
 18 17  1  0  0  0  0
 18 20  1  0  0  0  0
 20 21  1  0  0  0  0
 20 19  1  1  0  0  0
 21 22  1  0  0  0  0
 23 22  1  6  0  0  0
 23 29  1  0  0  0  0
 24 26  1  0  0  0  0
 24 28  1  0  0  0  0
 25 24  1  0  0  0  0
 27 28  2  0  0  0  0
 28 23  1  0  0  0  0
 31 29  1  0  0  0  0
 31 30  1  0  0  0  0
 32  3  1  0  0  0  0
 32 35  1  1  0  0  0
 32 33  1  0  0  0  0
 34 33  1  0  0  0  0
 37 41  1  1  0  0  0
 37 38  1  0  0  0  0
 38 36  1  0  0  0  0
 39 35  1  1  0  0  0
 39 36  1  0  0  0  0
 40 37  1  0  0  0  0
 40 39  1  0  0  0  0
 43 42  1  6  0  0  0
 43 41  1  0  0  0  0
 43 45  1  0  0  0  0
 45 46  1  0  0  0  0
 45 44  2  0  0  0  0
 47 48  2  0  0  0  0
 48 43  1  0  0  0  0
 49 48  1  0  0  0  0
 50 10  1  0  0  0  0
 51 52  1  0  0  0  0
 51 50  1  0  0  0  0
 54 53  2  0  0  0  0
 55 52  1  0  0  0  0
 55 54  1  0  0  0  0
 56 65  1  6  0  0  0
 56 54  1  0  0  0  0
 56 58  1  0  0  0  0
 57 60  1  0  0  0  0
 58 57  1  0  0  0  0
 59 61  1  0  0  0  0
 61 60  1  0  0  0  0
 62 58  1  0  0  0  0
 62 59  1  0  0  0  0
 63 65  2  0  0  0  0
 64 65  1  0  0  0  0
M  END
>  <MODEL>
3

>  <REMARK>
 VINA RESULT:      -4.5      3.180      5.962
  Name = 
  27 active torsions:
  status: ('A' for Active; 'I' for Inactive)
    1  A    between atoms: C_4  and  C_12
    2  A    between atoms: N_9  and  C_25
    3  A    between atoms: N_9  and  C_52
    4  A    between atoms: C_11  and  C_36
    5  A    between atoms: C_11  and  S_62
    6  A    between atoms: C_12  and  C_23
    7  A    between atoms: C_12  and  O_42
    8  A    between atoms: C_14  and  N_21
    9  A    between atoms: C_14  and  C_33
   10  A    between atoms: C_14  and  C_40
   11  A    between atoms: C_15  and  C_54
   12  A    between atoms: C_15  and  C_65
   13  A    between atoms: C_19  and  C_27
   14  A    between atoms: C_19  and  C_31
   15  A    between atoms: C_19  and  O_43
   16  A    between atoms: C_23  and  C_55
   17  A    between atoms: C_25  and  C_29
   18  A    between atoms: C_34  and  O_43
   19  A    between atoms: C_48  and  N_49
   20  A    between atoms: C_48  and  C_53
   21  A    between atoms: N_49  and  C_59
   22  A    between atoms: C_52  and  N_61
   23  A    between atoms: C_53  and  N_61
   24  A    between atoms: C_54  and  C_57
   25  A    between atoms: C_54  and  C_59
   26  A    between atoms: C_60  and  S_62
   27  A    between atoms: C_60  and  N_63
                            x       y       z     vdW  Elec       q    Type
                         _______ _______ _______ _____ _____    ______ ____

>  <TORSDO>
F 27

$$$$
=
 OpenBabel11042416403D

 65 69  0  0  1  0  0  0  0  0999 V2000
  186.6490  176.5450  141.9680 C   0  0  0  0  0  0  0  0  0  0  0  0
  186.4400  177.7230  139.7250 C   0  0  0  0  0  1  0  0  0  0  0  0
  185.9410  177.3070  142.7960 C   0  0  0  0  0  0  0  0  0  0  0  0
  186.9830  176.6480  140.5980 C   0  0  0  0  0  0  0  0  0  0  0  0
  187.1480  175.5300  142.7400 C   0  0  0  0  0  0  0  0  0  0  0  0
  188.0120  174.5990  142.1880 C   0  0  0  0  0  0  0  0  0  0  0  0
  186.0230  176.7510  144.1190 N   0  0  0  0  0  0  0  0  0  0  0  0
  187.8460  175.7200  140.0690 N   0  0  0  0  0  0  0  0  0  0  0  0
  189.4660  173.0020  141.7510 C   0  0  0  0  0  0  0  0  0  0  0  0
  189.2220  173.7950  140.5340 C   0  0  0  0  0  0  0  0  0  0  0  0
  186.7360  175.6940  144.0880 N   0  0  0  0  0  0  0  0  0  0  0  0
  188.7460  173.4820  142.7710 C   0  0  0  0  0  3  0  0  0  0  0  0
  188.3460  174.7240  140.8610 C   0  0  0  0  0  0  0  0  0  0  0  0
  190.4260  171.8690  141.8700 C   0  0  0  0  0  2  0  0  0  0  0  0
  191.7900  172.3560  141.7440 N   0  0  0  0  0  2  0  0  0  0  0  0
  192.2100  172.7720  143.0690 C   0  0  0  0  0  2  0  0  0  0  0  0
  193.6210  172.4820  143.2500 N   0  0  0  0  0  2  0  0  0  0  0  0
  194.2110  173.6390  143.9010 C   0  0  0  0  0  2  0  0  0  0  0  0
  195.0790  175.0530  142.1510 O   0  0  0  0  0  1  0  0  0  0  0  0
  194.0170  174.8880  143.0460 C   0  0  2  0  0  3  0  0  0  0  0  0
  193.8510  176.0850  143.8720 N   0  0  0  0  0  2  0  0  0  0  0  0
  193.5740  175.7140  145.2600 C   0  0  0  0  0  2  0  0  0  0  0  0
  192.2690  176.3430  145.7560 C   0  0  1  0  0  3  0  0  0  0  0  0
  190.9930  177.5700  143.9350 N   0  0  0  0  0  0  0  0  0  0  0  0
  190.0180  177.6040  142.8580 C   0  0  0  0  0  1  0  0  0  0  0  0
  191.6920  178.6950  144.2230 O   0  0  0  0  0  1  0  0  0  0  0  0
  190.5020  175.3510  144.4770 O   0  0  0  0  0  0  0  0  0  0  0  0
  191.2120  176.3710  144.6910 C   0  0  0  0  0  0  0  0  0  0  0  0
  191.7480  175.6870  147.0280 C   0  0  0  0  0  2  0  0  0  0  0  0
  190.3290  177.5220  147.5420 O   0  0  0  0  0  1  0  0  0  0  0  0
  191.3700  176.7440  148.0460 C   0  0  0  0  0  2  0  0  0  0  0  0
  185.3290  178.6350  142.4780 C   0  0  2  0  0  3  0  0  0  0  0  0
  186.0460  179.6450  143.1300 O   0  0  0  0  0  0  0  0  0  0  0  0
  185.2900  179.9590  144.2630 C   0  0  0  0  0  1  0  0  0  0  0  0
  183.8750  178.6610  142.9330 C   0  0  0  0  0  2  0  0  0  0  0  0
  183.0520  178.4320  140.5680 C   0  0  0  0  0  2  0  0  0  0  0  0
  180.7810  178.6880  141.2780 C   0  0  1  0  0  3  0  0  0  0  0  0
  181.8380  179.3140  140.3990 C   0  0  0  0  0  2  0  0  0  0  0  0
  182.9740  177.8790  141.9840 C   0  0  2  0  0  3  0  0  0  0  0  0
  181.5280  178.0410  142.4290 C   0  0  0  0  0  2  0  0  0  0  0  0
  179.9100  179.6840  141.7630 O   0  0  0  0  0  0  0  0  0  0  0  0
  177.6910  180.3440  141.6080 O   0  0  0  0  0  1  0  0  0  0  0  0
  178.5640  179.2440  141.6590 C   0  0  2  0  0  0  0  0  0  0  0  0
  177.7580  177.3030  142.7480 O   0  0  0  0  0  0  0  0  0  0  0  0
  178.2150  178.4280  142.8790 C   0  0  0  0  0  0  0  0  0  0  0  0
  178.4730  179.0660  144.5370 S   0  0  0  0  0  1  0  0  0  0  0  0
  178.1600  178.9520  139.1990 O   0  0  0  0  0  0  0  0  0  0  0  0
  178.3800  178.3700  140.4410 C   0  0  0  0  0  0  0  0  0  0  0  0
  178.4820  177.1180  140.5280 O   0  0  0  0  0  1  0  0  0  0  0  0
  189.8740  173.6200  139.2030 C   0  0  0  0  0  2  0  0  0  0  0  0
  189.2990  172.0890  138.4180 S   0  0  0  0  0  0  0  0  0  0  0  0
  189.3640  172.8590  136.7770 C   0  0  0  0  0  2  0  0  0  0  0  0
  190.8760  175.0710  135.8580 O   0  0  0  0  0  0  0  0  0  0  0  0
  191.4330  173.9360  135.8410 C   0  0  0  0  0  0  0  0  0  0  0  0
  190.7150  172.7720  136.2510 N   0  0  0  0  0  2  0  0  0  0  0  0
  192.8600  173.8030  135.3900 C   0  0  2  0  0  3  0  0  0  0  0  0
  194.3600  172.1170  134.6120 C   0  0  0  0  0  2  0  0  0  0  0  0
  193.3950  172.4560  135.6640 N   0  0  0  0  0  0  0  0  0  0  0  0
  194.7110  171.0850  137.2130 C   0  0  0  0  0  2  0  0  0  0  0  0
  194.9440  170.7320  134.8720 C   0  0  0  0  0  2  0  0  0  0  0  0
  195.6510  170.7310  136.1520 N   0  0  0  0  0  2  0  0  0  0  0  0
  194.1260  172.4700  136.9380 C   0  0  0  0  0  2  0  0  0  0  0  0
  194.5660  175.4780  135.4000 O   0  0  0  0  0  0  0  0  0  0  0  0
  193.4410  175.2320  137.4140 N   0  0  0  0  0  1  0  0  0  0  0  0
  193.6750  174.8790  136.0550 C   0  0  0  0  0  0  0  0  0  0  0  0
  1  5  1  0  0  0  0
  1  3  2  0  0  0  0
  2  4  1  0  0  0  0
  3  7  1  0  0  0  0
  4  1  1  0  0  0  0
  5 11  1  0  0  0  0
  6  5  2  0  0  0  0
  6 12  1  0  0  0  0
  8  4  2  0  0  0  0
  8 13  1  0  0  0  0
  9 14  1  0  0  0  0
  9 12  2  0  0  0  0
 10 13  2  0  0  0  0
 10  9  1  0  0  0  0
 11  7  2  0  0  0  0
 13  6  1  0  0  0  0
 15 14  1  0  0  0  0
 15 16  1  0  0  0  0
 16 17  1  0  0  0  0
 17 18  1  0  0  0  0
 20 19  1  6  0  0  0
 20 21  1  0  0  0  0
 20 18  1  0  0  0  0
 21 22  1  0  0  0  0
 23 22  1  6  0  0  0
 23 29  1  0  0  0  0
 24 26  1  0  0  0  0
 24 28  1  0  0  0  0
 25 24  1  0  0  0  0
 27 28  2  0  0  0  0
 28 23  1  0  0  0  0
 29 31  1  0  0  0  0
 30 31  1  0  0  0  0
 32  3  1  0  0  0  0
 32 35  1  1  0  0  0
 32 33  1  0  0  0  0
 33 34  1  0  0  0  0
 36 39  1  0  0  0  0
 37 41  1  1  0  0  0
 37 40  1  0  0  0  0
 38 36  1  0  0  0  0
 38 37  1  0  0  0  0
 39 40  1  0  0  0  0
 39 35  1  1  0  0  0
 43 42  1  6  0  0  0
 43 41  1  0  0  0  0
 43 45  1  0  0  0  0
 44 45  2  0  0  0  0
 45 46  1  0  0  0  0
 47 48  2  0  0  0  0
 48 49  1  0  0  0  0
 48 43  1  0  0  0  0
 50 10  1  0  0  0  0
 51 50  1  0  0  0  0
 52 51  1  0  0  0  0
 54 53  2  0  0  0  0
 54 55  1  0  0  0  0
 55 52  1  0  0  0  0
 56 58  1  0  0  0  0
 56 54  1  1  0  0  0
 56 65  1  0  0  0  0
 57 60  1  0  0  0  0
 57 58  1  0  0  0  0
 58 62  1  0  0  0  0
 60 61  1  0  0  0  0
 61 59  1  0  0  0  0
 62 59  1  0  0  0  0
 63 65  2  0  0  0  0
 65 64  1  0  0  0  0
M  END
>  <MODEL>
4

>  <REMARK>
 VINA RESULT:      -4.5      3.580      6.608
  Name = 
  27 active torsions:
  status: ('A' for Active; 'I' for Inactive)
    1  A    between atoms: C_4  and  C_12
    2  A    between atoms: N_9  and  C_25
    3  A    between atoms: N_9  and  C_52
    4  A    between atoms: C_11  and  C_36
    5  A    between atoms: C_11  and  S_62
    6  A    between atoms: C_12  and  C_23
    7  A    between atoms: C_12  and  O_42
    8  A    between atoms: C_14  and  N_21
    9  A    between atoms: C_14  and  C_33
   10  A    between atoms: C_14  and  C_40
   11  A    between atoms: C_15  and  C_54
   12  A    between atoms: C_15  and  C_65
   13  A    between atoms: C_19  and  C_27
   14  A    between atoms: C_19  and  C_31
   15  A    between atoms: C_19  and  O_43
   16  A    between atoms: C_23  and  C_55
   17  A    between atoms: C_25  and  C_29
   18  A    between atoms: C_34  and  O_43
   19  A    between atoms: C_48  and  N_49
   20  A    between atoms: C_48  and  C_53
   21  A    between atoms: N_49  and  C_59
   22  A    between atoms: C_52  and  N_61
   23  A    between atoms: C_53  and  N_61
   24  A    between atoms: C_54  and  C_57
   25  A    between atoms: C_54  and  C_59
   26  A    between atoms: C_60  and  S_62
   27  A    between atoms: C_60  and  N_63
                            x       y       z     vdW  Elec       q    Type
                         _______ _______ _______ _____ _____    ______ ____

>  <TORSDO>
F 27

$$$$
=
 OpenBabel11042416403D

 65 69  0  0  1  0  0  0  0  0999 V2000
  188.2160  175.6830  142.8550 C   0  0  0  0  0  0  0  0  0  0  0  0
  187.2980  177.0110  140.8910 C   0  0  0  0  0  1  0  0  0  0  0  0
  187.7450  176.3230  143.9210 C   0  0  0  0  0  0  0  0  0  0  0  0
  188.1270  175.9160  141.4630 C   0  0  0  0  0  0  0  0  0  0  0  0
  188.9700  174.6520  143.3500 C   0  0  0  0  0  0  0  0  0  0  0  0
  189.6780  173.8340  142.4860 C   0  0  0  0  0  0  0  0  0  0  0  0
  188.2400  175.6740  145.1040 N   0  0  0  0  0  0  0  0  0  0  0  0
  188.8420  175.0990  140.6220 N   0  0  0  0  0  0  0  0  0  0  0  0
  191.0180  172.3900  141.4970 C   0  0  0  0  0  0  0  0  0  0  0  0
  190.3880  173.2540  140.4830 C   0  0  0  0  0  0  0  0  0  0  0  0
  188.9640  174.6800  144.7680 N   0  0  0  0  0  0  0  0  0  0  0  0
  190.6070  172.7340  142.7220 C   0  0  0  0  0  3  0  0  0  0  0  0
  189.6020  174.0850  141.1360 C   0  0  0  0  0  0  0  0  0  0  0  0
  192.0250  171.3270  141.2250 C   0  0  0  0  0  2  0  0  0  0  0  0
  193.0030  171.2800  142.3010 N   0  0  0  0  0  2  0  0  0  0  0  0
  194.2440  170.8040  141.7170 C   0  0  0  0  0  2  0  0  0  0  0  0
  195.0020  171.9270  141.1940 N   0  0  0  0  0  2  0  0  0  0  0  0
  195.7480  172.4890  142.3060 C   0  0  0  0  0  2  0  0  0  0  0  0
  197.7140  173.8640  142.5600 O   0  0  0  0  0  1  0  0  0  0  0  0
  196.5090  173.7360  141.8610 C   0  0  2  0  0  3  0  0  0  0  0  0
  195.6970  174.9440  142.0130 N   0  0  0  0  0  2  0  0  0  0  0  0
  195.3550  175.1570  143.4190 C   0  0  0  0  0  2  0  0  0  0  0  0
  193.8380  175.1990  143.6250 C   0  0  1  0  0  3  0  0  0  0  0  0
  192.6450  174.8670  145.8420 N   0  0  0  0  0  0  0  0  0  0  0  0
  192.3200  175.2880  147.1940 C   0  0  0  0  0  1  0  0  0  0  0  0
  192.1540  173.6890  145.3860 O   0  0  0  0  0  1  0  0  0  0  0  0
  193.8500  176.8170  145.3910 O   0  0  0  0  0  0  0  0  0  0  0  0
  193.4640  175.6840  144.9950 C   0  0  0  0  0  0  0  0  0  0  0  0
  193.1220  175.9990  142.5450 C   0  0  0  0  0  2  0  0  0  0  0  0
  191.6810  177.8840  142.6820 O   0  0  0  0  0  1  0  0  0  0  0  0
  191.8180  176.5560  143.0820 C   0  0  0  0  0  2  0  0  0  0  0  0
  187.0010  177.6210  143.9220 C   0  0  2  0  0  3  0  0  0  0  0  0
  186.9850  178.1460  145.2190 O   0  0  0  0  0  0  0  0  0  0  0  0
  185.9890  177.4310  145.8920 C   0  0  0  0  0  1  0  0  0  0  0  0
  185.5740  177.4040  143.4360 C   0  0  0  0  0  2  0  0  0  0  0  0
  184.2130  179.4780  143.8510 C   0  0  0  0  0  2  0  0  0  0  0  0
  182.6490  178.8560  142.1500 C   0  0  1  0  0  3  0  0  0  0  0  0
  182.7570  179.1440  143.6290 C   0  0  0  0  0  2  0  0  0  0  0  0
  184.9900  178.6710  142.8200 C   0  0  2  0  0  3  0  0  0  0  0  0
  183.9920  178.2800  141.7400 C   0  0  0  0  0  2  0  0  0  0  0  0
  181.6270  177.9140  141.9200 O   0  0  0  0  0  0  0  0  0  0  0  0
  180.9100  179.8320  140.8290 O   0  0  0  0  0  1  0  0  0  0  0  0
  180.6030  178.4930  141.1250 C   0  0  2  0  0  0  0  0  0  0  0  0
  178.6600  179.4980  142.0280 O   0  0  0  0  0  0  0  0  0  0  0  0
  179.3060  178.4710  141.8950 C   0  0  0  0  0  0  0  0  0  0  0  0
  178.6730  176.9530  142.6170 S   0  0  0  0  0  1  0  0  0  0  0  0
  181.4760  177.0200  139.2890 O   0  0  0  0  0  0  0  0  0  0  0  0
  180.4060  177.7050  139.8520 C   0  0  0  0  0  0  0  0  0  0  0  0
  179.2670  177.6140  139.3230 O   0  0  0  0  0  1  0  0  0  0  0  0
  190.6280  173.2320  139.0110 C   0  0  0  0  0  2  0  0  0  0  0  0
  189.2480  172.4150  138.1620 S   0  0  0  0  0  0  0  0  0  0  0  0
  189.5340  173.4020  136.6660 C   0  0  0  0  0  2  0  0  0  0  0  0
  191.3390  173.0230  134.5180 O   0  0  0  0  0  0  0  0  0  0  0  0
  191.7490  173.6830  135.5140 C   0  0  0  0  0  0  0  0  0  0  0  0
  190.9050  173.8770  136.6500 N   0  0  0  0  0  2  0  0  0  0  0  0
  193.1310  174.2730  135.5120 C   0  0  2  0  0  3  0  0  0  0  0  0
  193.4050  172.2500  136.7490 C   0  0  0  0  0  2  0  0  0  0  0  0
  194.1230  173.3440  136.0830 N   0  0  0  0  0  0  0  0  0  0  0  0
  195.9250  171.7590  135.5810 C   0  0  0  0  0  2  0  0  0  0  0  0
  194.4030  171.2600  137.3410 C   0  0  0  0  0  2  0  0  0  0  0  0
  195.2150  170.6830  136.2700 N   0  0  0  0  0  2  0  0  0  0  0  0
  194.9170  172.7490  135.0000 C   0  0  0  0  0  2  0  0  0  0  0  0
  193.6630  175.6830  137.3690 O   0  0  0  0  0  0  0  0  0  0  0  0
  192.4280  176.7120  135.6960 N   0  0  0  0  0  1  0  0  0  0  0  0
  193.0930  175.5830  136.2520 C   0  0  0  0  0  0  0  0  0  0  0  0
  1  5  1  0  0  0  0
  1  3  2  0  0  0  0
  2  4  1  0  0  0  0
  3 32  1  0  0  0  0
  3  7  1  0  0  0  0
  4  1  1  0  0  0  0
  5 11  1  0  0  0  0
  6 12  1  0  0  0  0
  6  5  2  0  0  0  0
  8 13  1  0  0  0  0
  8  4  2  0  0  0  0
  9 12  2  0  0  0  0
 10 13  2  0  0  0  0
 10  9  1  0  0  0  0
 11  7  2  0  0  0  0
 13  6  1  0  0  0  0
 14  9  1  0  0  0  0
 14 15  1  0  0  0  0
 16 15  1  0  0  0  0
 17 16  1  0  0  0  0
 17 18  1  0  0  0  0
 20 21  1  0  0  0  0
 20 18  1  0  0  0  0
 20 19  1  1  0  0  0
 21 22  1  0  0  0  0
 22 23  1  0  0  0  0
 23 29  1  6  0  0  0
 23 28  1  0  0  0  0
 24 25  1  0  0  0  0
 26 24  1  0  0  0  0
 28 27  2  0  0  0  0
 28 24  1  0  0  0  0
 29 31  1  0  0  0  0
 30 31  1  0  0  0  0
 32 35  1  1  0  0  0
 32 33  1  0  0  0  0
 33 34  1  0  0  0  0
 37 41  1  1  0  0  0
 37 38  1  0  0  0  0
 38 36  1  0  0  0  0
 39 35  1  1  0  0  0
 39 36  1  0  0  0  0
 40 37  1  0  0  0  0
 40 39  1  0  0  0  0
 43 42  1  6  0  0  0
 43 45  1  0  0  0  0
 43 41  1  0  0  0  0
 45 44  2  0  0  0  0
 45 46  1  0  0  0  0
 47 48  2  0  0  0  0
 48 43  1  0  0  0  0
 49 48  1  0  0  0  0
 50 10  1  0  0  0  0
 51 50  1  0  0  0  0
 52 51  1  0  0  0  0
 53 54  2  0  0  0  0
 54 55  1  0  0  0  0
 55 52  1  0  0  0  0
 56 54  1  1  0  0  0
 56 58  1  0  0  0  0
 56 65  1  0  0  0  0
 57 60  1  0  0  0  0
 58 57  1  0  0  0  0
 59 61  1  0  0  0  0
 61 60  1  0  0  0  0
 62 59  1  0  0  0  0
 62 58  1  0  0  0  0
 64 65  1  0  0  0  0
 65 63  2  0  0  0  0
M  END
>  <MODEL>
5

>  <REMARK>
 VINA RESULT:      -4.4      3.163      5.677
  Name = 
  27 active torsions:
  status: ('A' for Active; 'I' for Inactive)
    1  A    between atoms: C_4  and  C_12
    2  A    between atoms: N_9  and  C_25
    3  A    between atoms: N_9  and  C_52
    4  A    between atoms: C_11  and  C_36
    5  A    between atoms: C_11  and  S_62
    6  A    between atoms: C_12  and  C_23
    7  A    between atoms: C_12  and  O_42
    8  A    between atoms: C_14  and  N_21
    9  A    between atoms: C_14  and  C_33
   10  A    between atoms: C_14  and  C_40
   11  A    between atoms: C_15  and  C_54
   12  A    between atoms: C_15  and  C_65
   13  A    between atoms: C_19  and  C_27
   14  A    between atoms: C_19  and  C_31
   15  A    between atoms: C_19  and  O_43
   16  A    between atoms: C_23  and  C_55
   17  A    between atoms: C_25  and  C_29
   18  A    between atoms: C_34  and  O_43
   19  A    between atoms: C_48  and  N_49
   20  A    between atoms: C_48  and  C_53
   21  A    between atoms: N_49  and  C_59
   22  A    between atoms: C_52  and  N_61
   23  A    between atoms: C_53  and  N_61
   24  A    between atoms: C_54  and  C_57
   25  A    between atoms: C_54  and  C_59
   26  A    between atoms: C_60  and  S_62
   27  A    between atoms: C_60  and  N_63
                            x       y       z     vdW  Elec       q    Type
                         _______ _______ _______ _____ _____    ______ ____

>  <TORSDO>
F 27

$$$$
=
 OpenBabel11042416403D

 65 69  0  0  1  0  0  0  0  0999 V2000
  188.1550  175.6730  142.8250 C   0  0  0  0  0  0  0  0  0  0  0  0
  187.3340  176.7220  140.6600 C   0  0  0  0  0  1  0  0  0  0  0  0
  187.6340  176.4480  143.7720 C   0  0  0  0  0  0  0  0  0  0  0  0
  188.1340  175.7180  141.4120 C   0  0  0  0  0  0  0  0  0  0  0  0
  188.8840  174.7220  143.4900 C   0  0  0  0  0  0  0  0  0  0  0  0
  189.6330  173.8000  142.7770 C   0  0  0  0  0  0  0  0  0  0  0  0
  188.0720  175.9660  145.0540 N   0  0  0  0  0  0  0  0  0  0  0  0
  188.8880  174.8000  140.7230 N   0  0  0  0  0  0  0  0  0  0  0  0
  191.0170  172.2450  142.0560 C   0  0  0  0  0  0  0  0  0  0  0  0
  190.4380  172.9610  140.9070 C   0  0  0  0  0  0  0  0  0  0  0  0
  188.8110  174.9400  144.8890 N   0  0  0  0  0  0  0  0  0  0  0  0
  190.5480  172.7470  143.2040 C   0  0  0  0  0  3  0  0  0  0  0  0
  189.6210  173.8690  141.4050 C   0  0  0  0  0  0  0  0  0  0  0  0
  192.0360  171.1610  141.9780 C   0  0  0  0  0  2  0  0  0  0  0  0
  192.8640  171.1670  143.1740 N   0  0  0  0  0  2  0  0  0  0  0  0
  193.9980  170.3030  142.9020 C   0  0  0  0  0  2  0  0  0  0  0  0
  195.2310  170.9910  143.2420 N   0  0  0  0  0  2  0  0  0  0  0  0
  194.8600  172.3080  143.7280 C   0  0  0  0  0  2  0  0  0  0  0  0
  195.6070  171.5890  145.9060 O   0  0  0  0  0  1  0  0  0  0  0  0
  195.6430  172.6490  144.9940 C   0  0  2  0  0  3  0  0  0  0  0  0
  195.1520  173.8780  145.6170 N   0  0  0  0  0  2  0  0  0  0  0  0
  193.7010  173.8170  145.7930 C   0  0  0  0  0  2  0  0  0  0  0  0
  193.0320  175.1300  145.3760 C   0  0  1  0  0  3  0  0  0  0  0  0
  191.7850  175.9920  147.4130 N   0  0  0  0  0  0  0  0  0  0  0  0
  191.6700  176.8710  148.5650 C   0  0  0  0  0  1  0  0  0  0  0  0
  190.8100  175.0780  147.1860 O   0  0  0  0  0  1  0  0  0  0  0  0
  193.7650  176.9960  146.6880 O   0  0  0  0  0  0  0  0  0  0  0  0
  192.9030  176.0900  146.5220 C   0  0  0  0  0  0  0  0  0  0  0  0
  193.7180  175.7850  144.1860 C   0  0  0  0  0  2  0  0  0  0  0  0
  193.4500  176.3600  141.8950 O   0  0  0  0  0  1  0  0  0  0  0  0
  192.7830  175.8170  142.9930 C   0  0  0  0  0  2  0  0  0  0  0  0
  186.8920  177.7300  143.5640 C   0  0  2  0  0  3  0  0  0  0  0  0
  186.8930  178.4660  144.7550 O   0  0  0  0  0  0  0  0  0  0  0  0
  186.0510  177.7630  145.6210 C   0  0  0  0  0  1  0  0  0  0  0  0
  185.4580  177.4390  143.1390 C   0  0  0  0  0  2  0  0  0  0  0  0
  184.0270  179.4670  143.5440 C   0  0  0  0  0  2  0  0  0  0  0  0
  182.4300  178.7270  141.9210 C   0  0  1  0  0  3  0  0  0  0  0  0
  182.5790  179.0660  143.3860 C   0  0  0  0  0  2  0  0  0  0  0  0
  184.7990  178.6610  142.5090 C   0  0  2  0  0  3  0  0  0  0  0  0
  183.7810  178.1960  141.4780 C   0  0  0  0  0  2  0  0  0  0  0  0
  181.4420  177.7370  141.7570 O   0  0  0  0  0  0  0  0  0  0  0  0
  180.2970  179.7340  141.4640 O   0  0  0  0  0  1  0  0  0  0  0  0
  180.2160  178.3350  141.3610 C   0  0  2  0  0  0  0  0  0  0  0  0
  178.6040  176.7690  142.1000 O   0  0  0  0  0  0  0  0  0  0  0  0
  179.1160  177.8630  142.2780 C   0  0  0  0  0  0  0  0  0  0  0  0
  178.5450  178.8700  143.6500 S   0  0  0  0  0  1  0  0  0  0  0  0
  180.7130  177.1110  139.2260 O   0  0  0  0  0  0  0  0  0  0  0  0
  179.8570  177.9320  139.9510 C   0  0  0  0  0  0  0  0  0  0  0  0
  178.7610  178.2850  139.4410 O   0  0  0  0  0  1  0  0  0  0  0  0
  190.7480  172.7440  139.4640 C   0  0  0  0  0  2  0  0  0  0  0  0
  189.3740  171.8850  138.6480 S   0  0  0  0  0  0  0  0  0  0  0  0
  190.0890  172.2120  137.0130 C   0  0  0  0  0  2  0  0  0  0  0  0
  192.1960  172.1290  135.1230 O   0  0  0  0  0  0  0  0  0  0  0  0
  192.3630  172.8440  136.1520 C   0  0  0  0  0  0  0  0  0  0  0  0
  191.3580  172.8990  137.1650 N   0  0  0  0  0  2  0  0  0  0  0  0
  193.6230  173.6470  136.3160 C   0  0  2  0  0  3  0  0  0  0  0  0
  195.7290  174.1350  135.3060 C   0  0  0  0  0  2  0  0  0  0  0  0
  194.7380  173.0780  135.5380 N   0  0  0  0  0  0  0  0  0  0  0  0
  196.5770  171.4550  135.5400 C   0  0  0  0  0  2  0  0  0  0  0  0
  196.9070  173.5760  134.5130 C   0  0  0  0  0  2  0  0  0  0  0  0
  197.5530  172.5120  135.2800 N   0  0  0  0  0  2  0  0  0  0  0  0
  195.3980  172.0280  136.3260 C   0  0  0  0  0  2  0  0  0  0  0  0
  194.1010  172.6830  138.4510 O   0  0  0  0  0  0  0  0  0  0  0  0
  194.0850  175.0020  138.4200 N   0  0  0  0  0  1  0  0  0  0  0  0
  193.9450  173.7370  137.7830 C   0  0  0  0  0  0  0  0  0  0  0  0
  1  5  1  0  0  0  0
  1  3  2  0  0  0  0
  2  4  1  0  0  0  0
  3  7  1  0  0  0  0
  4  1  1  0  0  0  0
  5 11  1  0  0  0  0
  6 12  1  0  0  0  0
  6  5  2  0  0  0  0
  8 13  1  0  0  0  0
  8  4  2  0  0  0  0
  9 12  2  0  0  0  0
 10 13  2  0  0  0  0
 10  9  1  0  0  0  0
 11  7  2  0  0  0  0
 13  6  1  0  0  0  0
 14  9  1  0  0  0  0
 14 15  1  0  0  0  0
 16 15  1  0  0  0  0
 16 17  1  0  0  0  0
 17 18  1  0  0  0  0
 18 20  1  0  0  0  0
 20 21  1  0  0  0  0
 20 19  1  1  0  0  0
 21 22  1  0  0  0  0
 23 29  1  6  0  0  0
 23 22  1  0  0  0  0
 23 28  1  0  0  0  0
 24 25  1  0  0  0  0
 26 24  1  0  0  0  0
 28 27  2  0  0  0  0
 28 24  1  0  0  0  0
 30 31  1  0  0  0  0
 31 29  1  0  0  0  0
 32 35  1  1  0  0  0
 32  3  1  0  0  0  0
 32 33  1  0  0  0  0
 33 34  1  0  0  0  0
 37 41  1  1  0  0  0
 37 38  1  0  0  0  0
 38 36  1  0  0  0  0
 39 35  1  1  0  0  0
 39 36  1  0  0  0  0
 40 37  1  0  0  0  0
 40 39  1  0  0  0  0
 43 42  1  1  0  0  0
 43 41  1  0  0  0  0
 43 45  1  0  0  0  0
 44 45  2  0  0  0  0
 45 46  1  0  0  0  0
 47 48  2  0  0  0  0
 48 43  1  0  0  0  0
 49 48  1  0  0  0  0
 50 10  1  0  0  0  0
 51 50  1  0  0  0  0
 52 55  1  0  0  0  0
 52 51  1  0  0  0  0
 53 54  2  0  0  0  0
 54 55  1  0  0  0  0
 56 54  1  1  0  0  0
 56 65  1  0  0  0  0
 57 58  1  0  0  0  0
 58 56  1  0  0  0  0
 58 62  1  0  0  0  0
 59 62  1  0  0  0  0
 60 61  1  0  0  0  0
 60 57  1  0  0  0  0
 61 59  1  0  0  0  0
 65 64  1  0  0  0  0
 65 63  2  0  0  0  0
M  END
>  <MODEL>
6

>  <REMARK>
 VINA RESULT:      -4.3      3.105      5.847
  Name = 
  27 active torsions:
  status: ('A' for Active; 'I' for Inactive)
    1  A    between atoms: C_4  and  C_12
    2  A    between atoms: N_9  and  C_25
    3  A    between atoms: N_9  and  C_52
    4  A    between atoms: C_11  and  C_36
    5  A    between atoms: C_11  and  S_62
    6  A    between atoms: C_12  and  C_23
    7  A    between atoms: C_12  and  O_42
    8  A    between atoms: C_14  and  N_21
    9  A    between atoms: C_14  and  C_33
   10  A    between atoms: C_14  and  C_40
   11  A    between atoms: C_15  and  C_54
   12  A    between atoms: C_15  and  C_65
   13  A    between atoms: C_19  and  C_27
   14  A    between atoms: C_19  and  C_31
   15  A    between atoms: C_19  and  O_43
   16  A    between atoms: C_23  and  C_55
   17  A    between atoms: C_25  and  C_29
   18  A    between atoms: C_34  and  O_43
   19  A    between atoms: C_48  and  N_49
   20  A    between atoms: C_48  and  C_53
   21  A    between atoms: N_49  and  C_59
   22  A    between atoms: C_52  and  N_61
   23  A    between atoms: C_53  and  N_61
   24  A    between atoms: C_54  and  C_57
   25  A    between atoms: C_54  and  C_59
   26  A    between atoms: C_60  and  S_62
   27  A    between atoms: C_60  and  N_63
                            x       y       z     vdW  Elec       q    Type
                         _______ _______ _______ _____ _____    ______ ____

>  <TORSDO>
F 27

$$$$
=
 OpenBabel11042416403D

 65 69  0  0  1  0  0  0  0  0999 V2000
  188.1020  175.7890  143.2950 C   0  0  0  0  0  0  0  0  0  0  0  0
  187.4300  176.8020  141.0630 C   0  0  0  0  0  1  0  0  0  0  0  0
  187.4970  176.5620  144.1920 C   0  0  0  0  0  0  0  0  0  0  0  0
  188.1880  175.8200  141.8840 C   0  0  0  0  0  0  0  0  0  0  0  0
  188.7940  174.8570  144.0230 C   0  0  0  0  0  0  0  0  0  0  0  0
  189.6110  173.9420  143.3790 C   0  0  0  0  0  0  0  0  0  0  0  0
  187.8440  176.1000  145.5080 N   0  0  0  0  0  0  0  0  0  0  0  0
  189.0080  174.9100  141.2640 N   0  0  0  0  0  0  0  0  0  0  0  0
  191.0730  172.4050  142.7820 C   0  0  0  0  0  0  0  0  0  0  0  0
  190.5710  173.1010  141.5840 C   0  0  0  0  0  0  0  0  0  0  0  0
  188.6110  175.0860  145.4100 N   0  0  0  0  0  0  0  0  0  0  0  0
  190.5090  172.9100  143.8850 C   0  0  0  0  0  3  0  0  0  0  0  0
  189.7030  173.9980  142.0090 C   0  0  0  0  0  0  0  0  0  0  0  0
  192.1140  171.3400  142.7920 C   0  0  0  0  0  2  0  0  0  0  0  0
  192.9290  171.4500  143.9920 N   0  0  0  0  0  2  0  0  0  0  0  0
  194.3110  171.3160  143.5710 C   0  0  0  0  0  2  0  0  0  0  0  0
  194.8500  172.6230  143.2340 N   0  0  0  0  0  2  0  0  0  0  0  0
  195.2350  173.2570  144.4830 C   0  0  0  0  0  2  0  0  0  0  0  0
  197.1930  174.5540  145.0320 O   0  0  0  0  0  1  0  0  0  0  0  0
  196.0620  174.5110  144.2100 C   0  0  2  0  0  3  0  0  0  0  0  0
  195.2640  175.7270  144.3710 N   0  0  0  0  0  2  0  0  0  0  0  0
  194.8400  175.8800  145.7630 C   0  0  0  0  0  2  0  0  0  0  0  0
  193.3470  176.2060  145.8590 C   0  0  1  0  0  3  0  0  0  0  0  0
  191.9300  177.3560  144.0930 N   0  0  0  0  0  0  0  0  0  0  0  0
  191.3250  177.4060  142.7720 C   0  0  0  0  0  1  0  0  0  0  0  0
  191.7690  178.4100  144.9290 O   0  0  0  0  0  1  0  0  0  0  0  0
  192.7570  175.1950  143.7680 O   0  0  0  0  0  0  0  0  0  0  0  0
  192.6790  176.2080  144.5150 C   0  0  0  0  0  0  0  0  0  0  0  0
  192.6100  175.2990  146.8350 C   0  0  0  0  0  2  0  0  0  0  0  0
  190.5410  175.2410  148.0040 O   0  0  0  0  0  1  0  0  0  0  0  0
  191.5740  176.0910  147.6080 C   0  0  0  0  0  2  0  0  0  0  0  0
  186.7510  177.8290  143.9140 C   0  0  2  0  0  3  0  0  0  0  0  0
  186.6680  178.5860  145.0890 O   0  0  0  0  0  0  0  0  0  0  0  0
  185.5540  178.0870  145.7690 C   0  0  0  0  0  1  0  0  0  0  0  0
  185.3500  177.5090  143.4080 C   0  0  0  0  0  2  0  0  0  0  0  0
  184.0140  179.6340  143.5580 C   0  0  0  0  0  2  0  0  0  0  0  0
  182.3890  178.7820  142.0200 C   0  0  1  0  0  3  0  0  0  0  0  0
  182.5500  179.2840  143.4350 C   0  0  0  0  0  2  0  0  0  0  0  0
  184.7510  178.6760  142.6320 C   0  0  2  0  0  3  0  0  0  0  0  0
  183.7150  178.1400  141.6540 C   0  0  0  0  0  2  0  0  0  0  0  0
  181.3570  177.8260  141.9650 O   0  0  0  0  0  0  0  0  0  0  0  0
  180.1880  179.8280  141.8680 O   0  0  0  0  0  1  0  0  0  0  0  0
  180.1360  178.4500  141.5960 C   0  0  2  0  0  0  0  0  0  0  0  0
  178.5420  176.7740  142.0950 O   0  0  0  0  0  0  0  0  0  0  0  0
  179.0110  177.8570  142.4070 C   0  0  0  0  0  0  0  0  0  0  0  0
  178.3500  178.7010  143.8470 S   0  0  0  0  0  1  0  0  0  0  0  0
  180.5980  177.3070  139.4100 O   0  0  0  0  0  0  0  0  0  0  0  0
  179.8360  178.2140  140.1350 C   0  0  0  0  0  0  0  0  0  0  0  0
  178.8630  178.7890  139.5790 O   0  0  0  0  0  1  0  0  0  0  0  0
  190.9940  172.8760  140.1720 C   0  0  0  0  0  2  0  0  0  0  0  0
  190.0950  171.4680  139.4630 S   0  0  0  0  0  0  0  0  0  0  0  0
  190.1850  172.1960  137.8030 C   0  0  0  0  0  2  0  0  0  0  0  0
  192.3640  172.0500  136.0000 O   0  0  0  0  0  0  0  0  0  0  0  0
  192.3230  173.0380  136.7860 C   0  0  0  0  0  0  0  0  0  0  0  0
  191.2750  173.1530  137.7500 N   0  0  0  0  0  2  0  0  0  0  0  0
  193.3780  174.1050  136.7120 C   0  0  2  0  0  3  0  0  0  0  0  0
  191.6290  175.2850  135.5960 C   0  0  0  0  0  2  0  0  0  0  0  0
  193.0820  175.0920  135.6570 N   0  0  0  0  0  0  0  0  0  0  0  0
  193.3490  177.4230  134.9440 C   0  0  0  0  0  2  0  0  0  0  0  0
  191.2870  176.3120  134.5210 C   0  0  0  0  0  2  0  0  0  0  0  0
  191.9000  177.5970  134.8590 N   0  0  0  0  0  2  0  0  0  0  0  0
  193.6790  176.3860  136.0170 C   0  0  0  0  0  2  0  0  0  0  0  0
  195.0580  172.4920  137.2550 O   0  0  0  0  0  0  0  0  0  0  0  0
  195.5900  173.8800  135.4730 N   0  0  0  0  0  1  0  0  0  0  0  0
  194.7150  173.4440  136.5080 C   0  0  0  0  0  0  0  0  0  0  0  0
  1  5  1  0  0  0  0
  1  3  2  0  0  0  0
  2  4  1  0  0  0  0
  3  7  1  0  0  0  0
  4  1  1  0  0  0  0
  5 11  1  0  0  0  0
  6 12  1  0  0  0  0
  6  5  2  0  0  0  0
  8  4  2  0  0  0  0
  8 13  1  0  0  0  0
  9 14  1  0  0  0  0
  9 12  2  0  0  0  0
 10 13  2  0  0  0  0
 10  9  1  0  0  0  0
 11  7  2  0  0  0  0
 13  6  1  0  0  0  0
 14 15  1  0  0  0  0
 16 15  1  0  0  0  0
 17 16  1  0  0  0  0
 17 18  1  0  0  0  0
 20 21  1  0  0  0  0
 20 18  1  0  0  0  0
 20 19  1  1  0  0  0
 21 22  1  0  0  0  0
 23 22  1  6  0  0  0
 23 29  1  0  0  0  0
 24 28  1  0  0  0  0
 24 26  1  0  0  0  0
 25 24  1  0  0  0  0
 27 28  2  0  0  0  0
 28 23  1  0  0  0  0
 29 31  1  0  0  0  0
 31 30  1  0  0  0  0
 32 35  1  1  0  0  0
 32  3  1  0  0  0  0
 32 33  1  0  0  0  0
 33 34  1  0  0  0  0
 37 41  1  1  0  0  0
 37 38  1  0  0  0  0
 38 36  1  0  0  0  0
 39 35  1  1  0  0  0
 39 36  1  0  0  0  0
 40 37  1  0  0  0  0
 40 39  1  0  0  0  0
 43 42  1  1  0  0  0
 43 41  1  0  0  0  0
 43 45  1  0  0  0  0
 44 45  2  0  0  0  0
 45 46  1  0  0  0  0
 47 48  2  0  0  0  0
 48 43  1  0  0  0  0
 49 48  1  0  0  0  0
 50 10  1  0  0  0  0
 51 50  1  0  0  0  0
 52 51  1  0  0  0  0
 53 54  2  0  0  0  0
 54 55  1  0  0  0  0
 55 52  1  0  0  0  0
 56 65  1  6  0  0  0
 56 54  1  0  0  0  0
 57 58  1  0  0  0  0
 58 62  1  0  0  0  0
 58 56  1  0  0  0  0
 59 62  1  0  0  0  0
 60 61  1  0  0  0  0
 60 57  1  0  0  0  0
 61 59  1  0  0  0  0
 64 65  1  0  0  0  0
 65 63  2  0  0  0  0
M  END
>  <MODEL>
7

>  <REMARK>
 VINA RESULT:      -4.2      3.215      5.814
  Name = 
  27 active torsions:
  status: ('A' for Active; 'I' for Inactive)
    1  A    between atoms: C_4  and  C_12
    2  A    between atoms: N_9  and  C_25
    3  A    between atoms: N_9  and  C_52
    4  A    between atoms: C_11  and  C_36
    5  A    between atoms: C_11  and  S_62
    6  A    between atoms: C_12  and  C_23
    7  A    between atoms: C_12  and  O_42
    8  A    between atoms: C_14  and  N_21
    9  A    between atoms: C_14  and  C_33
   10  A    between atoms: C_14  and  C_40
   11  A    between atoms: C_15  and  C_54
   12  A    between atoms: C_15  and  C_65
   13  A    between atoms: C_19  and  C_27
   14  A    between atoms: C_19  and  C_31
   15  A    between atoms: C_19  and  O_43
   16  A    between atoms: C_23  and  C_55
   17  A    between atoms: C_25  and  C_29
   18  A    between atoms: C_34  and  O_43
   19  A    between atoms: C_48  and  N_49
   20  A    between atoms: C_48  and  C_53
   21  A    between atoms: N_49  and  C_59
   22  A    between atoms: C_52  and  N_61
   23  A    between atoms: C_53  and  N_61
   24  A    between atoms: C_54  and  C_57
   25  A    between atoms: C_54  and  C_59
   26  A    between atoms: C_60  and  S_62
   27  A    between atoms: C_60  and  N_63
                            x       y       z     vdW  Elec       q    Type
                         _______ _______ _______ _____ _____    ______ ____

>  <TORSDO>
F 27

$$$$
=
 OpenBabel11042416403D

 65 69  0  0  1  0  0  0  0  0999 V2000
  189.1970  173.9910  140.0460 C   0  0  0  0  0  0  0  0  0  0  0  0
  187.8180  174.1210  137.9140 C   0  0  0  0  0  1  0  0  0  0  0  0
  189.9600  172.9170  139.8680 C   0  0  0  0  0  0  0  0  0  0  0  0
  188.1780  174.5990  139.2760 C   0  0  0  0  0  0  0  0  0  0  0  0
  189.5210  174.4690  141.2890 C   0  0  0  0  0  0  0  0  0  0  0  0
  188.8320  175.5470  141.8180 C   0  0  0  0  0  0  0  0  0  0  0  0
  190.7630  172.7210  141.0440 N   0  0  0  0  0  0  0  0  0  0  0  0
  187.5010  175.6620  139.8200 N   0  0  0  0  0  0  0  0  0  0  0  0
  187.9400  177.1370  143.0570 C   0  0  0  0  0  0  0  0  0  0  0  0
  187.2480  177.0760  141.7580 C   0  0  0  0  0  0  0  0  0  0  0  0
  190.5060  173.6430  141.8870 N   0  0  0  0  0  0  0  0  0  0  0  0
  188.9010  176.2070  143.1170 C   0  0  0  0  0  3  0  0  0  0  0  0
  187.8290  176.1140  141.0690 C   0  0  0  0  0  0  0  0  0  0  0  0
  187.5910  178.0460  144.1840 C   0  0  0  0  0  2  0  0  0  0  0  0
  186.7560  177.3470  145.1480 N   0  0  0  0  0  2  0  0  0  0  0  0
  187.3700  177.5400  146.4490 C   0  0  0  0  0  2  0  0  0  0  0  0
  188.7990  177.2980  146.3570 N   0  0  0  0  0  2  0  0  0  0  0  0
  189.0910  176.1570  147.2070 C   0  0  0  0  0  2  0  0  0  0  0  0
  191.2840  175.7860  148.1400 O   0  0  0  0  0  1  0  0  0  0  0  0
  190.5190  175.6710  146.9740 C   0  0  2  0  0  3  0  0  0  0  0  0
  191.1580  176.3860  145.8690 N   0  0  0  0  0  2  0  0  0  0  0  0
  192.1540  175.5350  145.2170 C   0  0  0  0  0  2  0  0  0  0  0  0
  193.1060  176.3580  144.3450 C   0  0  1  0  0  3  0  0  0  0  0  0
  194.9320  174.6770  144.8810 N   0  0  0  0  0  0  0  0  0  0  0  0
  196.3280  174.3260  145.0830 C   0  0  0  0  0  1  0  0  0  0  0  0
  193.9930  173.7030  144.9590 O   0  0  0  0  0  1  0  0  0  0  0  0
  195.4110  176.9490  144.6230 O   0  0  0  0  0  0  0  0  0  0  0  0
  194.5460  176.0310  144.6120 C   0  0  0  0  0  0  0  0  0  0  0  0
  192.7850  176.2480  142.8600 C   0  0  0  0  0  2  0  0  0  0  0  0
  194.0770  174.8010  141.4870 O   0  0  0  0  0  1  0  0  0  0  0  0
  194.0600  176.0730  142.0590 C   0  0  0  0  0  2  0  0  0  0  0  0
  189.8690  171.9390  138.7390 C   0  0  2  0  0  3  0  0  0  0  0  0
  189.6940  170.6500  139.2550 O   0  0  0  0  0  0  0  0  0  0  0  0
  190.8590  170.3840  139.9810 C   0  0  0  0  0  1  0  0  0  0  0  0
  191.1410  171.9910  137.9010 C   0  0  0  0  0  2  0  0  0  0  0  0
  191.7790  174.0670  136.6340 C   0  0  0  0  0  2  0  0  0  0  0  0
  194.0870  173.7580  137.1870 C   0  0  1  0  0  3  0  0  0  0  0  0
  193.1390  173.8470  136.0150 C   0  0  0  0  0  2  0  0  0  0  0  0
  191.8130  173.3570  137.9800 C   0  0  2  0  0  3  0  0  0  0  0  0
  193.2820  173.1650  138.3290 C   0  0  0  0  0  2  0  0  0  0  0  0
  195.1670  172.9120  136.8670 O   0  0  0  0  0  0  0  0  0  0  0  0
  197.2780  173.4900  136.0940 O   0  0  0  0  0  1  0  0  0  0  0  0
  196.3950  173.5510  137.1860 C   0  0  2  0  0  0  0  0  0  0  0  0
  197.9330  173.3760  138.9760 O   0  0  0  0  0  0  0  0  0  0  0  0
  197.0380  172.8330  138.3460 C   0  0  0  0  0  0  0  0  0  0  0  0
  196.5060  171.1920  138.8430 S   0  0  0  0  0  1  0  0  0  0  0  0
  195.8460  175.2890  138.9120 O   0  0  0  0  0  1  0  0  0  0  0  0
  196.1610  174.9860  137.5920 C   0  0  0  0  0  0  0  0  0  0  0  0
  196.3030  175.9200  136.7610 O   0  0  0  0  0  0  0  0  0  0  0  0
  186.0840  177.9000  141.3220 C   0  0  0  0  0  2  0  0  0  0  0  0
  184.5520  177.2630  142.0560 S   0  0  0  0  0  0  0  0  0  0  0  0
  183.6210  178.7020  141.4600 C   0  0  0  0  0  2  0  0  0  0  0  0
  181.1450  179.0900  142.7790 O   0  0  0  0  0  0  0  0  0  0  0  0
  181.1210  178.5350  141.6450 C   0  0  0  0  0  0  0  0  0  0  0  0
  182.3360  178.2710  140.9420 N   0  0  0  0  0  2  0  0  0  0  0  0
  179.8090  178.1490  141.0210 C   0  0  2  0  0  3  0  0  0  0  0  0
  178.0840  178.7410  139.4810 C   0  0  0  0  0  2  0  0  0  0  0  0
  179.4660  179.0250  139.8860 N   0  0  0  0  0  0  0  0  0  0  0  0
  179.1290  181.3410  139.1540 C   0  0  0  0  0  2  0  0  0  0  0  0
  177.6920  179.6410  138.3140 C   0  0  0  0  0  2  0  0  0  0  0  0
  177.7630  181.0420  138.7290 N   0  0  0  0  0  2  0  0  0  0  0  0
  179.5150  180.4280  140.3180 C   0  0  0  0  0  2  0  0  0  0  0  0
  178.1460  179.2420  142.3480 O   0  0  0  0  0  0  0  0  0  0  0  0
  178.4130  176.9820  142.8000 N   0  0  0  0  0  1  0  0  0  0  0  0
  178.7480  178.1680  142.0880 C   0  0  0  0  0  0  0  0  0  0  0  0
  1  5  1  0  0  0  0
  2  4  1  0  0  0  0
  3  1  2  0  0  0  0
  3  7  1  0  0  0  0
  4  8  2  0  0  0  0
  4  1  1  0  0  0  0
  5  6  2  0  0  0  0
  5 11  1  0  0  0  0
  6 12  1  0  0  0  0
  7 11  2  0  0  0  0
  8 13  1  0  0  0  0
  9 12  2  0  0  0  0
  9 14  1  0  0  0  0
 10  9  1  0  0  0  0
 13 10  2  0  0  0  0
 13  6  1  0  0  0  0
 14 15  1  0  0  0  0
 15 16  1  0  0  0  0
 17 16  1  0  0  0  0
 17 18  1  0  0  0  0
 20 18  1  0  0  0  0
 20 19  1  1  0  0  0
 21 20  1  0  0  0  0
 22 21  1  0  0  0  0
 23 29  1  6  0  0  0
 23 28  1  0  0  0  0
 23 22  1  0  0  0  0
 24 26  1  0  0  0  0
 24 25  1  0  0  0  0
 28 27  2  0  0  0  0
 28 24  1  0  0  0  0
 30 31  1  0  0  0  0
 31 29  1  0  0  0  0
 32 35  1  1  0  0  0
 32 33  1  0  0  0  0
 32  3  1  0  0  0  0
 33 34  1  0  0  0  0
 36 39  1  0  0  0  0
 37 41  1  6  0  0  0
 37 40  1  0  0  0  0
 38 36  1  0  0  0  0
 38 37  1  0  0  0  0
 39 35  1  6  0  0  0
 39 40  1  0  0  0  0
 41 43  1  0  0  0  0
 43 42  1  6  0  0  0
 43 48  1  0  0  0  0
 43 45  1  0  0  0  0
 45 46  1  0  0  0  0
 45 44  2  0  0  0  0
 48 47  1  0  0  0  0
 49 48  2  0  0  0  0
 50 10  1  0  0  0  0
 50 51  1  0  0  0  0
 52 51  1  0  0  0  0
 54 53  2  0  0  0  0
 55 52  1  0  0  0  0
 55 54  1  0  0  0  0
 56 54  1  1  0  0  0
 56 65  1  0  0  0  0
 57 58  1  0  0  0  0
 58 62  1  0  0  0  0
 58 56  1  0  0  0  0
 59 62  1  0  0  0  0
 60 61  1  0  0  0  0
 60 57  1  0  0  0  0
 61 59  1  0  0  0  0
 65 63  2  0  0  0  0
 65 64  1  0  0  0  0
M  END
>  <MODEL>
8

>  <REMARK>
 VINA RESULT:      -4.1      4.596     11.921
  Name = 
  27 active torsions:
  status: ('A' for Active; 'I' for Inactive)
    1  A    between atoms: C_4  and  C_12
    2  A    between atoms: N_9  and  C_25
    3  A    between atoms: N_9  and  C_52
    4  A    between atoms: C_11  and  C_36
    5  A    between atoms: C_11  and  S_62
    6  A    between atoms: C_12  and  C_23
    7  A    between atoms: C_12  and  O_42
    8  A    between atoms: C_14  and  N_21
    9  A    between atoms: C_14  and  C_33
   10  A    between atoms: C_14  and  C_40
   11  A    between atoms: C_15  and  C_54
   12  A    between atoms: C_15  and  C_65
   13  A    between atoms: C_19  and  C_27
   14  A    between atoms: C_19  and  C_31
   15  A    between atoms: C_19  and  O_43
   16  A    between atoms: C_23  and  C_55
   17  A    between atoms: C_25  and  C_29
   18  A    between atoms: C_34  and  O_43
   19  A    between atoms: C_48  and  N_49
   20  A    between atoms: C_48  and  C_53
   21  A    between atoms: N_49  and  C_59
   22  A    between atoms: C_52  and  N_61
   23  A    between atoms: C_53  and  N_61
   24  A    between atoms: C_54  and  C_57
   25  A    between atoms: C_54  and  C_59
   26  A    between atoms: C_60  and  S_62
   27  A    between atoms: C_60  and  N_63
                            x       y       z     vdW  Elec       q    Type
                         _______ _______ _______ _____ _____    ______ ____

>  <TORSDO>
F 27

$$$$
=
 OpenBabel11042416403D

 65 69  0  0  1  0  0  0  0  0999 V2000
  194.5330  174.3330  141.8740 C   0  0  0  0  0  0  0  0  0  0  0  0
  196.5670  172.8240  141.6580 C   0  0  0  0  0  1  0  0  0  0  0  0
  194.9420  175.3070  142.6810 C   0  0  0  0  0  0  0  0  0  0  0  0
  195.1420  173.1550  141.3850 C   0  0  0  0  0  0  0  0  0  0  0  0
  193.2250  174.6210  141.5850 C   0  0  0  0  0  0  0  0  0  0  0  0
  192.4730  173.7420  140.8250 C   0  0  0  0  0  0  0  0  0  0  0  0
  193.8460  176.2090  142.9080 N   0  0  0  0  0  0  0  0  0  0  0  0
  194.3790  172.2910  140.6380 N   0  0  0  0  0  0  0  0  0  0  0  0
  190.9180  172.5960  139.7640 C   0  0  0  0  0  0  0  0  0  0  0  0
  192.1880  171.8520  139.7310 C   0  0  0  0  0  0  0  0  0  0  0  0
  192.8270  175.8060  142.2570 N   0  0  0  0  0  0  0  0  0  0  0  0
  191.0670  173.7440  140.4340 C   0  0  0  0  0  3  0  0  0  0  0  0
  193.0710  172.5890  140.3750 C   0  0  0  0  0  0  0  0  0  0  0  0
  189.6220  172.1240  139.2000 C   0  0  0  0  0  2  0  0  0  0  0  0
  188.5240  172.5410  140.0590 N   0  0  0  0  0  2  0  0  0  0  0  0
  188.3150  173.9560  139.8130 C   0  0  0  0  0  2  0  0  0  0  0  0
  187.7220  174.5750  140.9860 N   0  0  0  0  0  2  0  0  0  0  0  0
  187.9240  176.0070  140.8570 C   0  0  0  0  0  2  0  0  0  0  0  0
  188.4330  175.6330  143.1850 O   0  0  0  0  0  1  0  0  0  0  0  0
  188.4560  176.5900  142.1640 C   0  0  2  0  0  3  0  0  0  0  0  0
  187.7100  177.7840  142.5630 N   0  0  0  0  0  2  0  0  0  0  0  0
  186.4510  177.4090  143.2070 C   0  0  0  0  0  2  0  0  0  0  0  0
  185.6630  178.6440  143.6540 C   0  0  1  0  0  3  0  0  0  0  0  0
  184.0710  178.3090  141.7050 N   0  0  0  0  0  0  0  0  0  0  0  0
  182.7330  178.2730  141.1390 C   0  0  0  0  0  1  0  0  0  0  0  0
  185.1260  177.9980  140.9140 O   0  0  0  0  0  1  0  0  0  0  0  0
  183.3050  179.0450  143.7860 O   0  0  0  0  0  0  0  0  0  0  0  0
  184.2800  178.6750  143.0760 C   0  0  0  0  0  0  0  0  0  0  0  0
  185.6280  178.7990  145.1690 C   0  0  0  0  0  2  0  0  0  0  0  0
  185.5730  177.1160  146.8470 O   0  0  0  0  0  1  0  0  0  0  0  0
  184.8400  177.6650  145.7950 C   0  0  0  0  0  2  0  0  0  0  0  0
  196.2450  175.3660  143.4130 C   0  0  2  0  0  3  0  0  0  0  0  0
  197.2640  175.7190  142.5190 O   0  0  0  0  0  0  0  0  0  0  0  0
  197.9280  176.7900  143.1250 C   0  0  0  0  0  1  0  0  0  0  0  0
  196.5550  174.0110  144.0360 C   0  0  0  0  0  2  0  0  0  0  0  0
  195.4740  172.5010  145.7310 C   0  0  0  0  0  2  0  0  0  0  0  0
  193.6100  173.9870  145.9430 C   0  0  1  0  0  3  0  0  0  0  0  0
  193.9760  172.5760  145.5490 C   0  0  0  0  0  2  0  0  0  0  0  0
  196.0000  173.9020  145.4520 C   0  0  2  0  0  3  0  0  0  0  0  0
  194.8130  174.8430  145.5910 C   0  0  0  0  0  2  0  0  0  0  0  0
  192.4830  174.4120  145.2130 O   0  0  0  0  0  0  0  0  0  0  0  0
  191.9900  174.9730  147.4090 O   0  0  0  0  0  1  0  0  0  0  0  0
  191.5680  175.0750  146.0730 C   0  0  2  0  0  0  0  0  0  0  0  0
  189.9620  173.7110  144.9960 O   0  0  0  0  0  0  0  0  0  0  0  0
  190.2160  174.4160  145.9600 C   0  0  0  0  0  0  0  0  0  0  0  0
  188.9620  174.6300  147.2270 S   0  0  0  0  0  1  0  0  0  0  0  0
  190.1500  177.0740  145.5290 O   0  0  0  0  0  0  0  0  0  0  0  0
  191.4180  176.5240  145.6780 C   0  0  0  0  0  0  0  0  0  0  0  0
  192.4310  177.2590  145.5360 O   0  0  0  0  0  1  0  0  0  0  0  0
  192.4250  170.5050  139.1350 C   0  0  0  0  0  2  0  0  0  0  0  0
  193.2020  169.4060  140.3520 S   0  0  0  0  0  0  0  0  0  0  0  0
  193.9110  168.3820  139.0330 C   0  0  0  0  0  2  0  0  0  0  0  0
  196.6590  169.0660  138.9910 O   0  0  0  0  0  0  0  0  0  0  0  0
  195.9340  169.5060  138.0540 C   0  0  0  0  0  0  0  0  0  0  0  0
  194.5330  169.2340  138.0360 N   0  0  0  0  0  2  0  0  0  0  0  0
  196.5440  170.3180  136.9470 C   0  0  2  0  0  3  0  0  0  0  0  0
  196.6000  172.5000  137.9130 C   0  0  0  0  0  2  0  0  0  0  0  0
  195.9640  171.6730  136.8810 N   0  0  0  0  0  0  0  0  0  0  0  0
  195.7120  173.6950  135.5170 C   0  0  0  0  0  2  0  0  0  0  0  0
  196.0330  173.9150  137.8650 C   0  0  0  0  0  2  0  0  0  0  0  0
  196.3210  174.5150  136.5620 N   0  0  0  0  0  2  0  0  0  0  0  0
  196.2810  172.2780  135.5810 C   0  0  0  0  0  2  0  0  0  0  0  0
  197.3310  168.8920  135.1960 O   0  0  0  0  0  0  0  0  0  0  0  0
  195.1380  169.6100  134.9470 N   0  0  0  0  0  1  0  0  0  0  0  0
  196.3740  169.5680  135.6530 C   0  0  0  0  0  0  0  0  0  0  0  0
  1  3  2  0  0  0  0
  3  7  1  0  0  0  0
  3 32  1  0  0  0  0
  4  2  1  0  0  0  0
  4  1  1  0  0  0  0
  5  1  1  0  0  0  0
  5 11  1  0  0  0  0
  6  5  2  0  0  0  0
  8  4  2  0  0  0  0
  9 12  2  0  0  0  0
 10  9  1  0  0  0  0
 10 13  2  0  0  0  0
 11  7  2  0  0  0  0
 12  6  1  0  0  0  0
 13  8  1  0  0  0  0
 13  6  1  0  0  0  0
 14  9  1  0  0  0  0
 14 15  1  0  0  0  0
 16 15  1  0  0  0  0
 16 17  1  0  0  0  0
 18 17  1  0  0  0  0
 18 20  1  0  0  0  0
 20 21  1  0  0  0  0
 20 19  1  1  0  0  0
 21 22  1  0  0  0  0
 23 22  1  1  0  0  0
 23 29  1  0  0  0  0
 24 28  1  0  0  0  0
 25 24  1  0  0  0  0
 26 24  1  0  0  0  0
 28 23  1  0  0  0  0
 28 27  2  0  0  0  0
 29 31  1  0  0  0  0
 31 30  1  0  0  0  0
 32 35  1  6  0  0  0
 33 34  1  0  0  0  0
 33 32  1  0  0  0  0
 37 41  1  6  0  0  0
 38 36  1  0  0  0  0
 38 37  1  0  0  0  0
 39 35  1  6  0  0  0
 39 40  1  0  0  0  0
 39 36  1  0  0  0  0
 40 37  1  0  0  0  0
 41 43  1  0  0  0  0
 43 42  1  1  0  0  0
 44 45  2  0  0  0  0
 45 43  1  0  0  0  0
 45 46  1  0  0  0  0
 47 48  2  0  0  0  0
 48 43  1  0  0  0  0
 49 48  1  0  0  0  0
 50 10  1  0  0  0  0
 50 51  1  0  0  0  0
 52 51  1  0  0  0  0
 54 53  2  0  0  0  0
 55 54  1  0  0  0  0
 55 52  1  0  0  0  0
 56 65  1  6  0  0  0
 56 54  1  0  0  0  0
 58 56  1  0  0  0  0
 58 57  1  0  0  0  0
 59 62  1  0  0  0  0
 59 61  1  0  0  0  0
 60 57  1  0  0  0  0
 61 60  1  0  0  0  0
 62 58  1  0  0  0  0
 63 65  2  0  0  0  0
 64 65  1  0  0  0  0
M  END
>  <MODEL>
9

>  <REMARK>
 VINA RESULT:      -4.0      3.222      7.952
  Name = 
  27 active torsions:
  status: ('A' for Active; 'I' for Inactive)
    1  A    between atoms: C_4  and  C_12
    2  A    between atoms: N_9  and  C_25
    3  A    between atoms: N_9  and  C_52
    4  A    between atoms: C_11  and  C_36
    5  A    between atoms: C_11  and  S_62
    6  A    between atoms: C_12  and  C_23
    7  A    between atoms: C_12  and  O_42
    8  A    between atoms: C_14  and  N_21
    9  A    between atoms: C_14  and  C_33
   10  A    between atoms: C_14  and  C_40
   11  A    between atoms: C_15  and  C_54
   12  A    between atoms: C_15  and  C_65
   13  A    between atoms: C_19  and  C_27
   14  A    between atoms: C_19  and  C_31
   15  A    between atoms: C_19  and  O_43
   16  A    between atoms: C_23  and  C_55
   17  A    between atoms: C_25  and  C_29
   18  A    between atoms: C_34  and  O_43
   19  A    between atoms: C_48  and  N_49
   20  A    between atoms: C_48  and  C_53
   21  A    between atoms: N_49  and  C_59
   22  A    between atoms: C_52  and  N_61
   23  A    between atoms: C_53  and  N_61
   24  A    between atoms: C_54  and  C_57
   25  A    between atoms: C_54  and  C_59
   26  A    between atoms: C_60  and  S_62
   27  A    between atoms: C_60  and  N_63
                            x       y       z     vdW  Elec       q    Type
                         _______ _______ _______ _____ _____    ______ ____

>  <TORSDO>
F 27

$$$$
