=
 OpenBabel11042414043D

 31 33  0  0  1  0  0  0  0  0999 V2000
  190.7260  173.4770  141.8940 N   0  0  0  0  0  2  0  0  0  0  0  0
  190.1410  176.1740  143.1650 N   0  0  0  0  0  0  0  0  0  0  0  0
  191.3310  175.7660  142.8130 C   0  0  0  0  0  0  0  0  0  0  0  0
  189.0730  171.9120  142.7120 C   0  0  0  0  0  1  0  0  0  0  0  0
  192.5580  174.6580  141.1190 O   0  0  0  0  0  0  0  0  0  0  0  0
  191.5660  174.6300  141.8950 C   0  0  0  0  0  0  0  0  0  0  0  0
  188.8480  175.6330  142.8240 C   0  0  0  0  0  0  0  0  0  0  0  0
  188.6300  174.3180  142.7000 C   0  0  0  0  0  3  0  0  0  0  0  0
  189.6850  173.2860  142.8830 C   0  0  2  0  0  3  0  0  0  0  0  0
  187.6980  176.5640  142.7210 C   0  0  0  0  0  0  0  0  0  0  0  0
  185.4430  177.8280  141.0460 C   0  0  0  0  0  0  0  0  0  0  0  0
  183.5720  178.5310  142.6290 C   0  0  0  0  0  1  0  0  0  0  0  0
  185.3720  177.1500  143.4510 C   0  0  0  0  0  3  0  0  0  0  0  0
  184.8720  177.8380  142.4150 C   0  0  0  0  0  0  0  0  0  0  0  0
  186.6110  176.3450  143.4700 C   0  0  0  0  0  3  0  0  0  0  0  0
  186.7530  177.7850  140.7940 C   0  0  0  0  0  3  0  0  0  0  0  0
  187.7930  177.7910  141.8630 C   0  0  0  0  0  2  0  0  0  0  0  0
  184.5760  177.8930  139.9620 O   0  0  0  0  0  1  0  0  0  0  0  0
  192.1300  177.7770  143.8110 O   0  0  0  0  0  1  0  0  0  0  0  0
  192.5230  176.5440  143.2860 C   0  0  1  0  0  3  0  0  0  0  0  0
  194.5190  175.9780  144.3930 O   0  0  0  0  0  0  0  0  0  0  0  0
  193.3180  175.7740  144.2950 C   0  0  0  0  0  0  0  0  0  0  0  0
  192.6570  174.7430  145.1610 C   0  0  1  0  0  3  0  0  0  0  0  0
  193.5120  173.6550  145.3460 O   0  0  0  0  0  1  0  0  0  0  0  0
  192.2730  175.3420  146.5040 C   0  0  0  0  0  2  0  0  0  0  0  0
  189.7670  174.6560  146.4910 S   0  0  0  0  0  0  0  0  0  0  0  0
  188.5450  177.1770  146.5130 C   0  0  0  0  0  2  0  0  0  0  0  0
  189.6320  177.7590  147.4180 C   0  0  0  0  0  2  0  0  0  0  0  0
  190.8120  176.8020  147.5940 C   0  0  0  0  0  2  0  0  0  0  0  0
  188.2970  175.7080  146.8310 C   0  0  0  0  0  2  0  0  0  0  0  0
  190.9660  175.9670  146.4110 N   0  0  0  0  0  0  0  0  0  0  0  0
  1  6  1  0  0  0  0
  1  9  1  0  0  0  0
  3  2  2  0  0  0  0
  3 20  1  0  0  0  0
  5  6  2  0  0  0  0
  6  3  1  0  0  0  0
  7  2  1  0  0  0  0
  8  7  2  0  0  0  0
  8  9  1  0  0  0  0
  9  4  1  6  0  0  0
 10  7  1  0  0  0  0
 10 15  2  0  0  0  0
 11 14  1  0  0  0  0
 13 15  1  0  0  0  0
 14 12  1  0  0  0  0
 14 13  2  0  0  0  0
 16 11  2  0  0  0  0
 16 17  1  0  0  0  0
 17 10  1  0  0  0  0
 18 11  1  0  0  0  0
 20 19  1  1  0  0  0
 20 22  1  0  0  0  0
 22 21  2  0  0  0  0
 22 23  1  0  0  0  0
 23 24  1  1  0  0  0
 23 25  1  0  0  0  0
 26 30  1  0  0  0  0
 27 30  1  0  0  0  0
 27 28  1  0  0  0  0
 28 29  1  0  0  0  0
 31 26  1  0  0  0  0
 31 25  1  0  0  0  0
 31 29  1  0  0  0  0
M  END
>  <MODEL>
1

>  <REMARK>
 VINA RESULT:      -6.9      0.000      0.000
  Name = 
  6 active torsions:
  status: ('A' for Active; 'I' for Inactive)
    1  A    between atoms: C_3  and  C_14
    2  A    between atoms: C_8  and  C_18
    3  A    between atoms: C_18  and  C_26
    4  A    between atoms: C_19  and  C_26
    5  A    between atoms: C_19  and  C_31
    6  A    between atoms: N_29  and  C_31
                            x       y       z     vdW  Elec       q    Type
                         _______ _______ _______ _____ _____    ______ ____

>  <TORSDO>
F 6

$$$$
=
 OpenBabel11042414043D

 31 33  0  0  1  0  0  0  0  0999 V2000
  185.8950  178.7720  145.8760 N   0  0  0  0  0  2  0  0  0  0  0  0
  187.8110  176.8610  144.4970 N   0  0  0  0  0  0  0  0  0  0  0  0
  186.7230  177.3360  143.9520 C   0  0  0  0  0  0  0  0  0  0  0  0
  185.9930  178.3150  148.2500 C   0  0  0  0  0  1  0  0  0  0  0  0
  185.4100  179.2860  143.6740 O   0  0  0  0  0  0  0  0  0  0  0  0
  185.9950  178.5130  144.4780 C   0  0  0  0  0  0  0  0  0  0  0  0
  188.5020  177.2850  145.6900 C   0  0  0  0  0  0  0  0  0  0  0  0
  187.8550  177.7220  146.7760 C   0  0  0  0  0  3  0  0  0  0  0  0
  186.3740  177.8300  146.8680 C   0  0  2  0  0  3  0  0  0  0  0  0
  189.9750  177.1230  145.7490 C   0  0  0  0  0  0  0  0  0  0  0  0
  192.4380  175.3080  146.1090 C   0  0  0  0  0  0  0  0  0  0  0  0
  194.3980  176.3680  144.8690 C   0  0  0  0  0  1  0  0  0  0  0  0
  192.1700  177.2390  144.5430 C   0  0  0  0  0  3  0  0  0  0  0  0
  192.9460  176.3650  145.2000 C   0  0  0  0  0  0  0  0  0  0  0  0
  190.7050  177.3910  144.6610 C   0  0  0  0  0  3  0  0  0  0  0  0
  191.3920  175.4750  146.9200 C   0  0  0  0  0  3  0  0  0  0  0  0
  190.6450  176.7610  147.0410 C   0  0  0  0  0  2  0  0  0  0  0  0
  193.0960  174.0840  146.1410 O   0  0  0  0  0  1  0  0  0  0  0  0
  185.0920  177.3790  142.2160 O   0  0  0  0  0  1  0  0  0  0  0  0
  186.2350  176.7220  142.6740 C   0  0  1  0  0  3  0  0  0  0  0  0
  187.7220  177.7920  141.1990 O   0  0  0  0  0  0  0  0  0  0  0  0
  187.3000  176.7260  141.6200 C   0  0  0  0  0  0  0  0  0  0  0  0
  187.8280  175.4360  141.0650 C   0  0  1  0  0  3  0  0  0  0  0  0
  187.8550  175.4920  139.6700 O   0  0  0  0  0  1  0  0  0  0  0  0
  189.2200  175.1540  141.6050 C   0  0  0  0  0  2  0  0  0  0  0  0
  189.7620  172.6250  141.3440 S   0  0  0  0  0  0  0  0  0  0  0  0
  189.4260  171.7540  143.9860 C   0  0  0  0  0  2  0  0  0  0  0  0
  189.9940  173.0580  144.5480 C   0  0  0  0  0  2  0  0  0  0  0  0
  190.1840  174.1210  143.4650 C   0  0  0  0  0  2  0  0  0  0  0  0
  190.0940  171.3900  142.6660 C   0  0  0  0  0  2  0  0  0  0  0  0
  189.2040  173.9410  142.4040 N   0  0  0  0  0  0  0  0  0  0  0  0
  1  9  1  0  0  0  0
  2  7  1  0  0  0  0
  3  6  1  0  0  0  0
  3  2  2  0  0  0  0
  5  6  2  0  0  0  0
  6  1  1  0  0  0  0
  7 10  1  0  0  0  0
  7  8  2  0  0  0  0
  8  9  1  0  0  0  0
  9  4  1  1  0  0  0
 10 17  1  0  0  0  0
 11 18  1  0  0  0  0
 11 16  2  0  0  0  0
 12 14  1  0  0  0  0
 13 15  1  0  0  0  0
 13 14  2  0  0  0  0
 14 11  1  0  0  0  0
 15 10  2  0  0  0  0
 16 17  1  0  0  0  0
 20 19  1  6  0  0  0
 20  3  1  0  0  0  0
 21 22  2  0  0  0  0
 22 20  1  0  0  0  0
 23 24  1  6  0  0  0
 23 25  1  0  0  0  0
 23 22  1  0  0  0  0
 25 31  1  0  0  0  0
 26 31  1  0  0  0  0
 26 30  1  0  0  0  0
 27 28  1  0  0  0  0
 29 28  1  0  0  0  0
 30 27  1  0  0  0  0
 31 29  1  0  0  0  0
M  END
>  <MODEL>
2

>  <REMARK>
 VINA RESULT:      -6.7      2.391      6.985
  Name = 
  6 active torsions:
  status: ('A' for Active; 'I' for Inactive)
    1  A    between atoms: C_3  and  C_14
    2  A    between atoms: C_8  and  C_18
    3  A    between atoms: C_18  and  C_26
    4  A    between atoms: C_19  and  C_26
    5  A    between atoms: C_19  and  C_31
    6  A    between atoms: N_29  and  C_31
                            x       y       z     vdW  Elec       q    Type
                         _______ _______ _______ _____ _____    ______ ____

>  <TORSDO>
F 6

$$$$
=
 OpenBabel11042414043D

 31 33  0  0  1  0  0  0  0  0999 V2000
  185.8180  179.2110  145.8340 N   0  0  0  0  0  2  0  0  0  0  0  0
  187.1450  176.8000  144.5480 N   0  0  0  0  0  0  0  0  0  0  0  0
  186.2520  177.5520  143.9610 C   0  0  0  0  0  0  0  0  0  0  0  0
  185.7210  178.8040  148.2170 C   0  0  0  0  0  1  0  0  0  0  0  0
  185.5560  179.7870  143.6090 O   0  0  0  0  0  0  0  0  0  0  0  0
  185.8750  178.8990  144.4440 C   0  0  0  0  0  0  0  0  0  0  0  0
  187.8970  177.0410  145.7550 C   0  0  0  0  0  0  0  0  0  0  0  0
  187.3740  177.6700  146.8130 C   0  0  0  0  0  3  0  0  0  0  0  0
  185.9830  178.1970  146.8560 C   0  0  2  0  0  3  0  0  0  0  0  0
  189.2610  176.4680  145.8630 C   0  0  0  0  0  0  0  0  0  0  0  0
  192.0510  175.9970  144.6450 C   0  0  0  0  0  0  0  0  0  0  0  0
  193.7160  175.7090  146.5540 C   0  0  0  0  0  1  0  0  0  0  0  0
  191.4800  176.4810  147.0300 C   0  0  0  0  0  3  0  0  0  0  0  0
  192.3370  176.0370  146.1000 C   0  0  0  0  0  0  0  0  0  0  0  0
  190.0830  176.9150  146.8180 C   0  0  0  0  0  3  0  0  0  0  0  0
  190.8530  175.7030  144.1370 C   0  0  0  0  0  3  0  0  0  0  0  0
  189.6760  175.3310  144.9760 C   0  0  0  0  0  2  0  0  0  0  0  0
  193.0880  176.2550  143.7560 O   0  0  0  0  0  1  0  0  0  0  0  0
  184.3430  177.5620  142.5350 O   0  0  0  0  0  1  0  0  0  0  0  0
  185.6420  177.0700  142.6780 C   0  0  1  0  0  3  0  0  0  0  0  0
  186.1170  178.3620  140.7720 O   0  0  0  0  0  0  0  0  0  0  0  0
  186.4800  177.4470  141.4950 C   0  0  0  0  0  0  0  0  0  0  0  0
  187.7400  176.6950  141.1830 C   0  0  1  0  0  3  0  0  0  0  0  0
  188.8290  177.3110  141.8020 O   0  0  0  0  0  1  0  0  0  0  0  0
  187.6250  175.2500  141.6400 C   0  0  0  0  0  2  0  0  0  0  0  0
  188.7900  172.9680  142.0790 S   0  0  0  0  0  0  0  0  0  0  0  0
  190.7050  172.9690  140.0340 C   0  0  0  0  0  2  0  0  0  0  0  0
  189.7530  173.6710  139.0650 C   0  0  0  0  0  2  0  0  0  0  0  0
  188.4820  174.1650  139.7580 C   0  0  0  0  0  2  0  0  0  0  0  0
  189.9440  172.0490  140.9790 C   0  0  0  0  0  2  0  0  0  0  0  0
  188.7590  174.4860  141.1510 N   0  0  0  0  0  0  0  0  0  0  0  0
  1  9  1  0  0  0  0
  2  7  1  0  0  0  0
  3  6  1  0  0  0  0
  3  2  2  0  0  0  0
  5  6  2  0  0  0  0
  6  1  1  0  0  0  0
  7 10  1  0  0  0  0
  7  8  2  0  0  0  0
  8  9  1  0  0  0  0
  9  4  1  1  0  0  0
 10 15  2  0  0  0  0
 11 14  1  0  0  0  0
 14 12  1  0  0  0  0
 14 13  2  0  0  0  0
 15 13  1  0  0  0  0
 16 11  2  0  0  0  0
 16 17  1  0  0  0  0
 17 10  1  0  0  0  0
 18 11  1  0  0  0  0
 20 19  1  6  0  0  0
 20  3  1  0  0  0  0
 21 22  2  0  0  0  0
 22 20  1  0  0  0  0
 23 22  1  0  0  0  0
 23 25  1  0  0  0  0
 23 24  1  1  0  0  0
 27 30  1  0  0  0  0
 28 29  1  0  0  0  0
 28 27  1  0  0  0  0
 29 31  1  0  0  0  0
 30 26  1  0  0  0  0
 31 25  1  0  0  0  0
 31 26  1  0  0  0  0
M  END
>  <MODEL>
3

>  <REMARK>
 VINA RESULT:      -6.6      2.560      7.296
  Name = 
  6 active torsions:
  status: ('A' for Active; 'I' for Inactive)
    1  A    between atoms: C_3  and  C_14
    2  A    between atoms: C_8  and  C_18
    3  A    between atoms: C_18  and  C_26
    4  A    between atoms: C_19  and  C_26
    5  A    between atoms: C_19  and  C_31
    6  A    between atoms: N_29  and  C_31
                            x       y       z     vdW  Elec       q    Type
                         _______ _______ _______ _____ _____    ______ ____

>  <TORSDO>
F 6

$$$$
=
 OpenBabel11042414043D

 31 33  0  0  1  0  0  0  0  0999 V2000
  192.8550  176.9050  144.5820 N   0  0  0  0  0  2  0  0  0  0  0  0
  192.1370  174.0650  145.3880 N   0  0  0  0  0  0  0  0  0  0  0  0
  191.2670  174.9770  145.0430 C   0  0  0  0  0  0  0  0  0  0  0  0
  194.8790  177.5070  145.7630 C   0  0  0  0  0  1  0  0  0  0  0  0
  190.8180  176.7170  143.5020 O   0  0  0  0  0  0  0  0  0  0  0  0
  191.6300  176.2210  144.3290 C   0  0  0  0  0  0  0  0  0  0  0  0
  193.5700  174.0560  145.2270 C   0  0  0  0  0  0  0  0  0  0  0  0
  194.3130  175.1620  145.3510 C   0  0  0  0  0  3  0  0  0  0  0  0
  193.7500  176.5050  145.6500 C   0  0  2  0  0  3  0  0  0  0  0  0
  194.2500  172.7530  145.0290 C   0  0  0  0  0  0  0  0  0  0  0  0
  196.1240  170.5450  146.0800 C   0  0  0  0  0  0  0  0  0  0  0  0
  195.4750  168.3480  144.9590 C   0  0  0  0  0  1  0  0  0  0  0  0
  194.0350  170.2730  144.7320 C   0  0  0  0  0  3  0  0  0  0  0  0
  195.1920  169.7890  145.2060 C   0  0  0  0  0  0  0  0  0  0  0  0
  193.5130  171.6450  144.8910 C   0  0  0  0  0  3  0  0  0  0  0  0
  196.3560  171.8520  145.9520 C   0  0  0  0  0  3  0  0  0  0  0  0
  195.7420  172.6930  144.8830 C   0  0  0  0  0  2  0  0  0  0  0  0
  196.8140  169.8570  147.0700 O   0  0  0  0  0  1  0  0  0  0  0  0
  189.5650  173.3390  145.3540 O   0  0  0  0  0  1  0  0  0  0  0  0
  189.8130  174.7120  145.2980 C   0  0  1  0  0  3  0  0  0  0  0  0
  189.6120  174.8810  147.6350 O   0  0  0  0  0  0  0  0  0  0  0  0
  189.3440  175.3820  146.5540 C   0  0  0  0  0  0  0  0  0  0  0  0
  188.5310  176.6410  146.4880 C   0  0  1  0  0  3  0  0  0  0  0  0
  189.3660  177.7540  146.5980 O   0  0  0  0  0  1  0  0  0  0  0  0
  187.7460  176.7010  145.1880 C   0  0  0  0  0  2  0  0  0  0  0  0
  186.1850  177.2440  147.1940 S   0  0  0  0  0  0  0  0  0  0  0  0
  184.0960  178.5650  145.8750 C   0  0  0  0  0  2  0  0  0  0  0  0
  185.0600  179.2200  144.8840 C   0  0  0  0  0  2  0  0  0  0  0  0
  186.4760  178.6510  144.9920 C   0  0  0  0  0  2  0  0  0  0  0  0
  184.7490  178.3930  147.2400 C   0  0  0  0  0  2  0  0  0  0  0  0
  186.4290  177.2640  145.4320 N   0  0  0  0  0  0  0  0  0  0  0  0
  1  9  1  0  0  0  0
  3 20  1  0  0  0  0
  3  2  2  0  0  0  0
  5  6  2  0  0  0  0
  6  1  1  0  0  0  0
  6  3  1  0  0  0  0
  7  8  2  0  0  0  0
  7  2  1  0  0  0  0
  8  9  1  0  0  0  0
  9  4  1  6  0  0  0
 10  7  1  0  0  0  0
 11 18  1  0  0  0  0
 12 14  1  0  0  0  0
 13 15  1  0  0  0  0
 13 14  2  0  0  0  0
 14 11  1  0  0  0  0
 15 10  2  0  0  0  0
 16 11  2  0  0  0  0
 17 10  1  0  0  0  0
 17 16  1  0  0  0  0
 20 19  1  1  0  0  0
 20 22  1  0  0  0  0
 22 21  2  0  0  0  0
 23 22  1  0  0  0  0
 23 24  1  6  0  0  0
 25 31  1  0  0  0  0
 25 23  1  0  0  0  0
 26 30  1  0  0  0  0
 27 30  1  0  0  0  0
 28 29  1  0  0  0  0
 28 27  1  0  0  0  0
 29 31  1  0  0  0  0
 31 26  1  0  0  0  0
M  END
>  <MODEL>
4

>  <REMARK>
 VINA RESULT:      -6.6      3.546      7.967
  Name = 
  6 active torsions:
  status: ('A' for Active; 'I' for Inactive)
    1  A    between atoms: C_3  and  C_14
    2  A    between atoms: C_8  and  C_18
    3  A    between atoms: C_18  and  C_26
    4  A    between atoms: C_19  and  C_26
    5  A    between atoms: C_19  and  C_31
    6  A    between atoms: N_29  and  C_31
                            x       y       z     vdW  Elec       q    Type
                         _______ _______ _______ _____ _____    ______ ____

>  <TORSDO>
F 6

$$$$
=
 OpenBabel11042414043D

 31 33  0  0  1  0  0  0  0  0999 V2000
  192.1040  175.7740  147.6030 N   0  0  0  0  0  2  0  0  0  0  0  0
  190.8720  176.5790  144.9450 N   0  0  0  0  0  0  0  0  0  0  0  0
  191.9680  175.8800  145.0690 C   0  0  0  0  0  0  0  0  0  0  0  0
  191.5390  177.4860  149.2170 C   0  0  0  0  0  1  0  0  0  0  0  0
  192.9930  174.1110  146.2640 O   0  0  0  0  0  0  0  0  0  0  0  0
  192.3670  175.2030  146.3240 C   0  0  0  0  0  0  0  0  0  0  0  0
  189.8700  176.8980  145.9330 C   0  0  0  0  0  0  0  0  0  0  0  0
  190.1770  177.1480  147.2110 C   0  0  0  0  0  3  0  0  0  0  0  0
  191.5630  177.1100  147.7500 C   0  0  2  0  0  3  0  0  0  0  0  0
  188.4670  177.0650  145.4860 C   0  0  0  0  0  0  0  0  0  0  0  0
  185.6240  178.1410  145.9930 C   0  0  0  0  0  0  0  0  0  0  0  0
  184.5090  178.5430  143.7350 C   0  0  0  0  0  1  0  0  0  0  0  0
  186.8740  178.0670  143.8280 C   0  0  0  0  0  3  0  0  0  0  0  0
  185.7280  178.1880  144.5130 C   0  0  0  0  0  0  0  0  0  0  0  0
  188.2130  177.7730  144.3790 C   0  0  0  0  0  3  0  0  0  0  0  0
  186.3680  177.3400  146.7580 C   0  0  0  0  0  3  0  0  0  0  0  0
  187.3540  176.3640  146.2080 C   0  0  0  0  0  2  0  0  0  0  0  0
  184.6880  178.9530  146.6210 O   0  0  0  0  0  1  0  0  0  0  0  0
  192.2310  176.2410  142.7290 O   0  0  0  0  0  1  0  0  0  0  0  0
  192.8240  175.6690  143.8560 C   0  0  1  0  0  3  0  0  0  0  0  0
  194.3810  177.1240  144.8520 O   0  0  0  0  0  0  0  0  0  0  0  0
  194.2060  176.2140  144.0550 C   0  0  0  0  0  0  0  0  0  0  0  0
  195.3610  175.6700  143.2690 C   0  0  1  0  0  3  0  0  0  0  0  0
  195.9160  176.6770  142.4770 O   0  0  0  0  0  1  0  0  0  0  0  0
  196.4150  175.0940  144.2000 C   0  0  0  0  0  2  0  0  0  0  0  0
  195.6620  172.8320  143.1660 S   0  0  0  0  0  0  0  0  0  0  0  0
  195.5480  171.2320  145.4630 C   0  0  0  0  0  2  0  0  0  0  0  0
  196.7590  171.9320  146.0800 C   0  0  0  0  0  2  0  0  0  0  0  0
  197.1750  173.1730  145.2890 C   0  0  0  0  0  2  0  0  0  0  0  0
  195.6690  171.1660  143.9460 C   0  0  0  0  0  2  0  0  0  0  0  0
  196.0170  173.7680  144.6370 N   0  0  0  0  0  0  0  0  0  0  0  0
  1  9  1  0  0  0  0
  2  3  2  0  0  0  0
  2  7  1  0  0  0  0
  3  6  1  0  0  0  0
  5  6  2  0  0  0  0
  6  1  1  0  0  0  0
  7  8  2  0  0  0  0
  8  9  1  0  0  0  0
  9  4  1  1  0  0  0
 10  7  1  0  0  0  0
 10 17  1  0  0  0  0
 11 18  1  0  0  0  0
 11 16  2  0  0  0  0
 12 14  1  0  0  0  0
 13 15  1  0  0  0  0
 13 14  2  0  0  0  0
 14 11  1  0  0  0  0
 15 10  2  0  0  0  0
 17 16  1  0  0  0  0
 20 19  1  6  0  0  0
 20 22  1  0  0  0  0
 20  3  1  0  0  0  0
 22 21  2  0  0  0  0
 23 24  1  1  0  0  0
 23 22  1  0  0  0  0
 23 25  1  0  0  0  0
 25 31  1  0  0  0  0
 26 30  1  0  0  0  0
 26 31  1  0  0  0  0
 27 28  1  0  0  0  0
 29 28  1  0  0  0  0
 30 27  1  0  0  0  0
 31 29  1  0  0  0  0
M  END
>  <MODEL>
5

>  <REMARK>
 VINA RESULT:      -6.5      3.065      5.311
  Name = 
  6 active torsions:
  status: ('A' for Active; 'I' for Inactive)
    1  A    between atoms: C_3  and  C_14
    2  A    between atoms: C_8  and  C_18
    3  A    between atoms: C_18  and  C_26
    4  A    between atoms: C_19  and  C_26
    5  A    between atoms: C_19  and  C_31
    6  A    between atoms: N_29  and  C_31
                            x       y       z     vdW  Elec       q    Type
                         _______ _______ _______ _____ _____    ______ ____

>  <TORSDO>
F 6

$$$$
=
 OpenBabel11042414043D

 31 33  0  0  1  0  0  0  0  0999 V2000
  193.5260  174.7790  146.1130 N   0  0  0  0  0  2  0  0  0  0  0  0
  191.1750  175.1420  144.2230 N   0  0  0  0  0  0  0  0  0  0  0  0
  192.0480  174.1740  144.1380 C   0  0  0  0  0  0  0  0  0  0  0  0
  194.1830  176.9740  146.8880 C   0  0  0  0  0  1  0  0  0  0  0  0
  193.2910  172.5940  145.3880 O   0  0  0  0  0  0  0  0  0  0  0  0
  192.9630  173.8020  145.2390 C   0  0  0  0  0  0  0  0  0  0  0  0
  190.9310  176.0660  145.3030 C   0  0  0  0  0  0  0  0  0  0  0  0
  191.9170  176.5580  146.0630 C   0  0  0  0  0  3  0  0  0  0  0  0
  193.3500  176.2000  145.8890 C   0  0  2  0  0  3  0  0  0  0  0  0
  189.5520  176.5730  145.5020 C   0  0  0  0  0  0  0  0  0  0  0  0
  186.6820  176.9550  144.4480 C   0  0  0  0  0  0  0  0  0  0  0  0
  185.1110  177.1070  146.4510 C   0  0  0  0  0  1  0  0  0  0  0  0
  187.4020  176.4220  146.7820 C   0  0  0  0  0  3  0  0  0  0  0  0
  186.4770  176.8560  145.9140 C   0  0  0  0  0  0  0  0  0  0  0  0
  188.8020  176.0590  146.4830 C   0  0  0  0  0  3  0  0  0  0  0  0
  187.8380  177.3200  143.8890 C   0  0  0  0  0  3  0  0  0  0  0  0
  189.0400  177.7170  144.6770 C   0  0  0  0  0  2  0  0  0  0  0  0
  185.6120  176.6790  143.6060 O   0  0  0  0  0  1  0  0  0  0  0  0
  190.7810  173.2320  142.3520 O   0  0  0  0  0  1  0  0  0  0  0  0
  192.0630  173.3310  142.8970 C   0  0  1  0  0  3  0  0  0  0  0  0
  192.6940  174.8110  141.1810 O   0  0  0  0  0  0  0  0  0  0  0  0
  193.0260  173.8660  141.8810 C   0  0  0  0  0  0  0  0  0  0  0  0
  194.3750  173.2340  141.7020 C   0  0  1  0  0  3  0  0  0  0  0  0
  194.6780  173.1340  140.3430 O   0  0  0  0  0  1  0  0  0  0  0  0
  195.4420  174.0450  142.4190 C   0  0  0  0  0  2  0  0  0  0  0  0
  196.8230  171.9610  143.1310 S   0  0  0  0  0  0  0  0  0  0  0  0
  196.8170  172.2690  145.9160 C   0  0  0  0  0  2  0  0  0  0  0  0
  196.9010  173.7920  145.8040 C   0  0  0  0  0  2  0  0  0  0  0  0
  196.7080  174.2790  144.3670 C   0  0  0  0  0  2  0  0  0  0  0  0
  197.5660  171.5950  144.7740 C   0  0  0  0  0  2  0  0  0  0  0  0
  195.8480  173.3610  143.6350 N   0  0  0  0  0  0  0  0  0  0  0  0
  2  7  1  0  0  0  0
  3  2  2  0  0  0  0
  3  6  1  0  0  0  0
  6  5  2  0  0  0  0
  6  1  1  0  0  0  0
  7 10  1  0  0  0  0
  7  8  2  0  0  0  0
  9  8  1  0  0  0  0
  9  1  1  0  0  0  0
  9  4  1  1  0  0  0
 10 15  2  0  0  0  0
 11 14  1  0  0  0  0
 14 12  1  0  0  0  0
 14 13  2  0  0  0  0
 15 13  1  0  0  0  0
 16 11  2  0  0  0  0
 16 17  1  0  0  0  0
 17 10  1  0  0  0  0
 18 11  1  0  0  0  0
 20 19  1  6  0  0  0
 20  3  1  0  0  0  0
 21 22  2  0  0  0  0
 22 20  1  0  0  0  0
 23 24  1  6  0  0  0
 23 22  1  0  0  0  0
 23 25  1  0  0  0  0
 25 31  1  0  0  0  0
 26 31  1  0  0  0  0
 26 30  1  0  0  0  0
 28 27  1  0  0  0  0
 29 28  1  0  0  0  0
 30 27  1  0  0  0  0
 31 29  1  0  0  0  0
M  END
>  <MODEL>
6

>  <REMARK>
 VINA RESULT:      -6.5      3.110      5.381
  Name = 
  6 active torsions:
  status: ('A' for Active; 'I' for Inactive)
    1  A    between atoms: C_3  and  C_14
    2  A    between atoms: C_8  and  C_18
    3  A    between atoms: C_18  and  C_26
    4  A    between atoms: C_19  and  C_26
    5  A    between atoms: C_19  and  C_31
    6  A    between atoms: N_29  and  C_31
                            x       y       z     vdW  Elec       q    Type
                         _______ _______ _______ _____ _____    ______ ____

>  <TORSDO>
F 6

$$$$
=
 OpenBabel11042414043D

 31 33  0  0  1  0  0  0  0  0999 V2000
  190.4410  177.5220  145.2480 N   0  0  0  0  0  2  0  0  0  0  0  0
  191.1490  174.9890  143.7280 N   0  0  0  0  0  0  0  0  0  0  0  0
  190.3970  175.9470  143.2570 C   0  0  0  0  0  0  0  0  0  0  0  0
  190.4170  176.9760  147.6050 C   0  0  0  0  0  1  0  0  0  0  0  0
  190.1620  178.2960  143.0860 O   0  0  0  0  0  0  0  0  0  0  0  0
  190.3420  177.3050  143.8420 C   0  0  0  0  0  0  0  0  0  0  0  0
  192.0120  174.9840  144.8840 C   0  0  0  0  0  0  0  0  0  0  0  0
  191.7020  175.6310  146.0140 C   0  0  0  0  0  3  0  0  0  0  0  0
  190.4580  176.4260  146.1950 C   0  0  2  0  0  3  0  0  0  0  0  0
  193.2300  174.1390  144.8530 C   0  0  0  0  0  0  0  0  0  0  0  0
  196.1270  173.6140  145.7610 C   0  0  0  0  0  0  0  0  0  0  0  0
  196.5500  171.1010  145.6660 C   0  0  0  0  0  1  0  0  0  0  0  0
  194.3010  171.9420  145.4120 C   0  0  0  0  0  3  0  0  0  0  0  0
  195.6000  172.2420  145.5560 C   0  0  0  0  0  0  0  0  0  0  0  0
  193.1720  172.8910  145.3310 C   0  0  0  0  0  3  0  0  0  0  0  0
  195.6150  174.6960  145.1720 C   0  0  0  0  0  3  0  0  0  0  0  0
  194.4840  174.6420  144.2000 C   0  0  0  0  0  2  0  0  0  0  0  0
  197.2280  173.7870  146.5910 O   0  0  0  0  0  1  0  0  0  0  0  0
  190.0570  174.5220  141.3770 O   0  0  0  0  0  1  0  0  0  0  0  0
  189.6180  175.6920  142.0010 C   0  0  1  0  0  3  0  0  0  0  0  0
  187.6580  174.5720  142.6610 O   0  0  0  0  0  0  0  0  0  0  0  0
  188.1460  175.6220  142.2710 C   0  0  0  0  0  0  0  0  0  0  0  0
  187.2710  176.8190  142.0430 C   0  0  1  0  0  3  0  0  0  0  0  0
  187.0240  176.9760  140.6780 O   0  0  0  0  0  1  0  0  0  0  0  0
  185.9620  176.6740  142.8000 C   0  0  0  0  0  2  0  0  0  0  0  0
  184.4400  178.4440  143.9440 S   0  0  0  0  0  0  0  0  0  0  0  0
  185.8870  178.9200  146.2950 C   0  0  0  0  0  2  0  0  0  0  0  0
  186.3190  177.4560  146.3930 C   0  0  0  0  0  2  0  0  0  0  0  0
  185.9640  176.6630  145.1350 C   0  0  0  0  0  2  0  0  0  0  0  0
  184.4980  179.0410  145.6830 C   0  0  0  0  0  2  0  0  0  0  0  0
  185.9690  177.5350  143.9700 N   0  0  0  0  0  0  0  0  0  0  0  0
  1  9  1  0  0  0  0
  2  7  1  0  0  0  0
  3  2  2  0  0  0  0
  3  6  1  0  0  0  0
  5  6  2  0  0  0  0
  6  1  1  0  0  0  0
  7  8  2  0  0  0  0
  8  9  1  0  0  0  0
  9  4  1  1  0  0  0
 10  7  1  0  0  0  0
 10 15  2  0  0  0  0
 11 18  1  0  0  0  0
 13 14  2  0  0  0  0
 14 12  1  0  0  0  0
 14 11  1  0  0  0  0
 15 13  1  0  0  0  0
 16 11  2  0  0  0  0
 17 10  1  0  0  0  0
 17 16  1  0  0  0  0
 20 19  1  1  0  0  0
 20 22  1  0  0  0  0
 20  3  1  0  0  0  0
 22 21  2  0  0  0  0
 23 24  1  6  0  0  0
 23 22  1  0  0  0  0
 23 25  1  0  0  0  0
 25 31  1  0  0  0  0
 26 31  1  0  0  0  0
 26 30  1  0  0  0  0
 27 28  1  0  0  0  0
 29 28  1  0  0  0  0
 30 27  1  0  0  0  0
 31 29  1  0  0  0  0
M  END
>  <MODEL>
7

>  <REMARK>
 VINA RESULT:      -6.5      2.891      7.550
  Name = 
  6 active torsions:
  status: ('A' for Active; 'I' for Inactive)
    1  A    between atoms: C_3  and  C_14
    2  A    between atoms: C_8  and  C_18
    3  A    between atoms: C_18  and  C_26
    4  A    between atoms: C_19  and  C_26
    5  A    between atoms: C_19  and  C_31
    6  A    between atoms: N_29  and  C_31
                            x       y       z     vdW  Elec       q    Type
                         _______ _______ _______ _____ _____    ______ ____

>  <TORSDO>
F 6

$$$$
=
 OpenBabel11042414043D

 31 33  0  0  1  0  0  0  0  0999 V2000
  191.2280  173.9500  145.2490 N   0  0  0  0  0  2  0  0  0  0  0  0
  188.9500  174.9770  143.5210 N   0  0  0  0  0  0  0  0  0  0  0  0
  189.4880  173.7920  143.4050 C   0  0  0  0  0  0  0  0  0  0  0  0
  192.5640  175.8590  145.9020 C   0  0  0  0  0  1  0  0  0  0  0  0
  190.3020  171.9270  144.6150 O   0  0  0  0  0  0  0  0  0  0  0  0
  190.3360  173.1760  144.4500 C   0  0  0  0  0  0  0  0  0  0  0  0
  189.0760  175.9430  144.5850 C   0  0  0  0  0  0  0  0  0  0  0  0
  190.2190  176.1270  145.2550 C   0  0  0  0  0  3  0  0  0  0  0  0
  191.4640  175.3570  144.9910 C   0  0  2  0  0  3  0  0  0  0  0  0
  187.9280  176.8390  144.8650 C   0  0  0  0  0  0  0  0  0  0  0  0
  185.2350  178.0590  143.9990 C   0  0  0  0  0  0  0  0  0  0  0  0
  183.9280  178.6770  146.1000 C   0  0  0  0  0  1  0  0  0  0  0  0
  185.9280  177.3390  146.2910 C   0  0  0  0  0  3  0  0  0  0  0  0
  185.1150  178.0280  145.4780 C   0  0  0  0  0  0  0  0  0  0  0  0
  187.1320  176.5740  145.9060 C   0  0  0  0  0  3  0  0  0  0  0  0
  186.4030  178.0610  143.3550 C   0  0  0  0  0  3  0  0  0  0  0  0
  187.7230  178.0820  144.0510 C   0  0  0  0  0  2  0  0  0  0  0  0
  184.0740  178.1150  143.2380 O   0  0  0  0  0  1  0  0  0  0  0  0
  187.8200  173.1460  141.8310 O   0  0  0  0  0  1  0  0  0  0  0  0
  189.1570  172.9700  142.1950 C   0  0  1  0  0  3  0  0  0  0  0  0
  189.6630  174.0360  140.1610 O   0  0  0  0  0  0  0  0  0  0  0  0
  190.0610  173.2940  141.0460 C   0  0  0  0  0  0  0  0  0  0  0  0
  191.4340  172.6950  140.9640 C   0  0  1  0  0  3  0  0  0  0  0  0
  191.3780  171.4610  140.3150 O   0  0  0  0  0  1  0  0  0  0  0  0
  192.3810  173.6310  140.2310 C   0  0  0  0  0  2  0  0  0  0  0  0
  193.6850  173.4260  142.4700 S   0  0  0  0  0  0  0  0  0  0  0  0
  194.5650  176.0660  142.7930 C   0  0  0  0  0  2  0  0  0  0  0  0
  194.7720  176.2410  141.2880 C   0  0  0  0  0  2  0  0  0  0  0  0
  194.2010  175.0720  140.4850 C   0  0  0  0  0  2  0  0  0  0  0  0
  194.8520  174.6330  143.2210 C   0  0  0  0  0  2  0  0  0  0  0  0
  193.0650  174.4870  141.1830 N   0  0  0  0  0  0  0  0  0  0  0  0
  2  7  1  0  0  0  0
  3  2  2  0  0  0  0
  3  6  1  0  0  0  0
  6  5  2  0  0  0  0
  6  1  1  0  0  0  0
  7 10  1  0  0  0  0
  7  8  2  0  0  0  0
  9  1  1  0  0  0  0
  9  8  1  0  0  0  0
  9  4  1  1  0  0  0
 10 15  2  0  0  0  0
 11 14  1  0  0  0  0
 14 12  1  0  0  0  0
 14 13  2  0  0  0  0
 15 13  1  0  0  0  0
 16 11  2  0  0  0  0
 16 17  1  0  0  0  0
 17 10  1  0  0  0  0
 18 11  1  0  0  0  0
 20 19  1  6  0  0  0
 20  3  1  0  0  0  0
 21 22  2  0  0  0  0
 22 20  1  0  0  0  0
 23 24  1  6  0  0  0
 23 22  1  0  0  0  0
 25 23  1  0  0  0  0
 25 31  1  0  0  0  0
 26 30  1  0  0  0  0
 27 30  1  0  0  0  0
 28 27  1  0  0  0  0
 29 31  1  0  0  0  0
 29 28  1  0  0  0  0
 31 26  1  0  0  0  0
M  END
>  <MODEL>
8

>  <REMARK>
 VINA RESULT:      -6.5      2.723      4.899
  Name = 
  6 active torsions:
  status: ('A' for Active; 'I' for Inactive)
    1  A    between atoms: C_3  and  C_14
    2  A    between atoms: C_8  and  C_18
    3  A    between atoms: C_18  and  C_26
    4  A    between atoms: C_19  and  C_26
    5  A    between atoms: C_19  and  C_31
    6  A    between atoms: N_29  and  C_31
                            x       y       z     vdW  Elec       q    Type
                         _______ _______ _______ _____ _____    ______ ____

>  <TORSDO>
F 6

$$$$
=
 OpenBabel11042414043D

 31 33  0  0  1  0  0  0  0  0999 V2000
  191.1030  173.5370  143.5230 N   0  0  0  0  0  2  0  0  0  0  0  0
  191.0050  176.1300  145.1020 N   0  0  0  0  0  0  0  0  0  0  0  0
  192.0210  175.7450  144.3780 C   0  0  0  0  0  0  0  0  0  0  0  0
  189.7300  171.9210  144.6890 C   0  0  0  0  0  1  0  0  0  0  0  0
  192.6480  174.7650  142.3160 O   0  0  0  0  0  0  0  0  0  0  0  0
  191.9360  174.6820  143.3520 C   0  0  0  0  0  0  0  0  0  0  0  0
  189.6540  175.6240  145.1320 C   0  0  0  0  0  0  0  0  0  0  0  0
  189.3720  174.3240  144.9850 C   0  0  0  0  0  3  0  0  0  0  0  0
  190.4030  173.2750  144.7650 C   0  0  2  0  0  3  0  0  0  0  0  0
  188.5540  176.5660  145.4490 C   0  0  0  0  0  0  0  0  0  0  0  0
  185.9010  177.9190  144.6590 C   0  0  0  0  0  0  0  0  0  0  0  0
  184.6670  178.5610  146.7950 C   0  0  0  0  0  1  0  0  0  0  0  0
  186.6080  177.1330  146.9250 C   0  0  0  0  0  3  0  0  0  0  0  0
  185.8100  177.8700  146.1390 C   0  0  0  0  0  0  0  0  0  0  0  0
  187.7680  176.3210  146.5030 C   0  0  0  0  0  3  0  0  0  0  0  0
  187.0550  177.8780  143.9900 C   0  0  0  0  0  3  0  0  0  0  0  0
  188.3890  177.8300  144.6580 C   0  0  0  0  0  2  0  0  0  0  0  0
  184.7290  178.0380  143.9230 O   0  0  0  0  0  1  0  0  0  0  0  0
  193.1080  177.7680  145.0120 O   0  0  0  0  0  1  0  0  0  0  0  0
  193.3220  176.4780  144.5220 C   0  0  1  0  0  3  0  0  0  0  0  0
  194.0310  175.6210  146.5940 O   0  0  0  0  0  0  0  0  0  0  0  0
  194.2780  175.7340  145.4030 C   0  0  0  0  0  0  0  0  0  0  0  0
  195.5410  175.1530  144.8370 C   0  0  1  0  0  3  0  0  0  0  0  0
  195.2820  173.8980  144.2840 O   0  0  0  0  0  1  0  0  0  0  0  0
  196.1280  176.0790  143.7850 C   0  0  0  0  0  2  0  0  0  0  0  0
  195.6070  176.4300  141.2630 S   0  0  0  0  0  0  0  0  0  0  0  0
  196.7960  174.1400  140.1700 C   0  0  0  0  0  2  0  0  0  0  0  0
  197.9410  174.1830  141.1830 C   0  0  0  0  0  2  0  0  0  0  0  0
  197.6980  175.2100  142.2890 C   0  0  0  0  0  2  0  0  0  0  0  0
  196.3250  175.5450  139.8180 C   0  0  0  0  0  2  0  0  0  0  0  0
  196.2700  175.3670  142.5260 N   0  0  0  0  0  0  0  0  0  0  0  0
  1  9  1  0  0  0  0
  2  7  1  0  0  0  0
  3 20  1  0  0  0  0
  3  2  2  0  0  0  0
  5  6  2  0  0  0  0
  6  1  1  0  0  0  0
  6  3  1  0  0  0  0
  7 10  1  0  0  0  0
  8  7  2  0  0  0  0
  9  4  1  6  0  0  0
  9  8  1  0  0  0  0
 10 15  2  0  0  0  0
 11 14  1  0  0  0  0
 14 12  1  0  0  0  0
 14 13  2  0  0  0  0
 15 13  1  0  0  0  0
 16 17  1  0  0  0  0
 16 11  2  0  0  0  0
 17 10  1  0  0  0  0
 18 11  1  0  0  0  0
 20 19  1  1  0  0  0
 20 22  1  0  0  0  0
 22 21  2  0  0  0  0
 23 24  1  6  0  0  0
 23 22  1  0  0  0  0
 25 23  1  0  0  0  0
 26 31  1  0  0  0  0
 27 28  1  0  0  0  0
 28 29  1  0  0  0  0
 29 31  1  0  0  0  0
 30 27  1  0  0  0  0
 30 26  1  0  0  0  0
 31 25  1  0  0  0  0
M  END
>  <MODEL>
9

>  <REMARK>
 VINA RESULT:      -6.4      3.232      4.863
  Name = 
  6 active torsions:
  status: ('A' for Active; 'I' for Inactive)
    1  A    between atoms: C_3  and  C_14
    2  A    between atoms: C_8  and  C_18
    3  A    between atoms: C_18  and  C_26
    4  A    between atoms: C_19  and  C_26
    5  A    between atoms: C_19  and  C_31
    6  A    between atoms: N_29  and  C_31
                            x       y       z     vdW  Elec       q    Type
                         _______ _______ _______ _____ _____    ______ ____

>  <TORSDO>
F 6

$$$$
