=
 OpenBabel11042418233D

 37 40  0  0  1  0  0  0  0  0999 V2000
  189.7950  172.3160  142.5280 C   0  0  0  0  0  0  0  0  0  0  0  0
  190.5490  171.2320  142.0660 C   0  0  0  0  0  3  0  0  0  0  0  0
  189.0380  173.0770  141.6070 C   0  0  0  0  0  0  0  0  0  0  0  0
  188.3100  173.4100  139.2570 N   0  0  0  0  0  1  0  0  0  0  0  0
  189.8050  171.6360  139.8410 N   0  0  0  0  0  0  0  0  0  0  0  0
  190.5410  170.9030  140.7140 C   0  0  0  0  0  3  0  0  0  0  0  0
  189.0610  172.7020  140.2400 C   0  0  0  0  0  0  0  0  0  0  0  0
  189.8500  172.6700  143.9680 C   0  0  0  0  0  0  0  0  0  0  0  0
  189.2360  171.9520  144.8030 O   0  0  0  0  0  0  0  0  0  0  0  0
  190.8460  176.4340  147.0310 C   0  0  0  0  0  1  0  0  0  0  0  0
  190.5910  173.8470  144.4650 C   0  0  0  0  0  0  0  0  0  0  0  0
  191.9410  174.5510  143.7340 S   0  0  0  0  0  0  0  0  0  0  0  0
  190.2630  174.4870  145.6110 N   0  0  0  0  0  0  0  0  0  0  0  0
  192.1180  175.7000  144.9450 C   0  0  0  0  0  0  0  0  0  0  0  0
  191.0990  175.5240  145.8800 C   0  0  0  0  0  0  0  0  0  0  0  0
  193.0920  176.7490  144.9080 N   0  0  0  0  0  2  0  0  0  0  0  0
  194.9320  177.8690  145.7790 O   0  0  0  0  0  0  0  0  0  0  0  0
  194.2960  176.7880  145.6830 C   0  0  0  0  0  0  0  0  0  0  0  0
  194.8730  175.5470  146.2970 C   0  0  0  0  0  2  0  0  0  0  0  0
  196.7680  173.9790  146.0400 C   0  0  0  0  0  1  0  0  0  0  0  0
  196.2870  175.5790  144.3570 O   0  0  0  0  0  1  0  0  0  0  0  0
  194.8740  173.8240  144.6400 F   0  0  0  0  0  0  0  0  0  0  0  0
  195.6870  174.7340  145.2940 C   0  0  2  0  0  0  0  0  0  0  0  0
  188.2500  174.1770  142.0970 N   0  0  0  0  0  2  0  0  0  0  0  0
  188.5990  175.5890  142.0350 C   0  0  0  0  0  2  0  0  0  0  0  0
  185.4280  178.0470  147.2970 C   0  0  0  0  0  3  0  0  0  0  0  0
  186.1750  178.9710  143.8070 O   0  0  0  0  0  0  0  0  0  0  0  0
  185.3800  178.6710  146.0480 C   0  0  0  0  0  3  0  0  0  0  0  0
  187.9510  176.5970  144.2330 O   0  0  0  0  0  0  0  0  0  0  0  0
  186.3180  176.9980  147.5180 C   0  0  0  0  0  3  0  0  0  0  0  0
  185.5390  177.5480  141.9730 C   0  0  0  0  0  3  0  0  0  0  0  0
  187.0980  177.1490  145.2140 C   0  0  0  0  0  0  0  0  0  0  0  0
  186.5880  176.8750  142.3370 C   0  0  0  0  0  0  0  0  0  0  0  0
  186.2140  178.2490  145.0050 C   0  0  0  0  0  0  0  0  0  0  0  0
  185.1620  178.7210  142.8250 C   0  0  0  0  0  2  0  0  0  0  0  0
  187.1460  176.5580  146.4830 C   0  0  0  0  0  3  0  0  0  0  0  0
  187.6550  176.3710  142.8770 C   0  0  0  0  0  0  0  0  0  0  0  0
  1  8  1  0  0  0  0
  2  1  1  0  0  0  0
  3 24  1  0  0  0  0
  3  1  2  0  0  0  0
  4  7  1  0  0  0  0
  5  7  2  0  0  0  0
  5  6  1  0  0  0  0
  6  2  2  0  0  0  0
  7  3  1  0  0  0  0
  8 11  1  0  0  0  0
  8  9  2  0  0  0  0
 11 13  2  0  0  0  0
 12 11  1  0  0  0  0
 12 14  1  0  0  0  0
 13 15  1  0  0  0  0
 14 15  2  0  0  0  0
 15 10  1  0  0  0  0
 16 14  1  0  0  0  0
 16 18  1  0  0  0  0
 18 17  2  0  0  0  0
 18 19  1  0  0  0  0
 21 23  1  0  0  0  0
 22 23  1  0  0  0  0
 23 20  1  1  0  0  0
 23 19  1  0  0  0  0
 25 24  1  0  0  0  0
 25 37  1  0  0  0  0
 26 30  1  0  0  0  0
 27 34  1  0  0  0  0
 28 26  2  0  0  0  0
 29 32  1  0  0  0  0
 31 33  2  0  0  0  0
 31 35  1  0  0  0  0
 32 36  1  0  0  0  0
 33 37  2  0  0  0  0
 34 32  2  0  0  0  0
 34 28  1  0  0  0  0
 35 27  1  0  0  0  0
 36 30  2  0  0  0  0
 37 29  1  0  0  0  0
M  END
>  <MODEL>
1

>  <REMARK>
 VINA RESULT:      -8.2      0.000      0.000
  Name = 
  8 active torsions:
  status: ('A' for Active; 'I' for Inactive)
    1  A    between atoms: C_1  and  C_3
    2  A    between atoms: C_3  and  C_8
    3  A    between atoms: C_7  and  N_23
    4  A    between atoms: N_11  and  C_25
    5  A    between atoms: C_18  and  C_30
    6  A    between atoms: N_23  and  C_27
    7  A    between atoms: C_27  and  C_37
    8  A    between atoms: C_28  and  C_30
                            x       y       z     vdW  Elec       q    Type
                         _______ _______ _______ _____ _____    ______ ____

>  <TORSDO>
F 8

$$$$
=
 OpenBabel11042418233D

 37 40  0  0  1  0  0  0  0  0999 V2000
  189.6570  172.9450  141.6610 C   0  0  0  0  0  0  0  0  0  0  0  0
  190.3140  171.9900  140.8790 C   0  0  0  0  0  3  0  0  0  0  0  0
  188.8120  173.8920  141.0360 C   0  0  0  0  0  0  0  0  0  0  0  0
  187.8010  174.7360  138.9330 N   0  0  0  0  0  1  0  0  0  0  0  0
  189.3050  172.8770  138.9130 N   0  0  0  0  0  0  0  0  0  0  0  0
  190.1240  171.9690  139.5000 C   0  0  0  0  0  3  0  0  0  0  0  0
  188.6490  173.8280  139.6300 C   0  0  0  0  0  0  0  0  0  0  0  0
  189.9070  172.9720  143.1240 C   0  0  0  0  0  0  0  0  0  0  0  0
  189.2550  172.1960  143.8740 O   0  0  0  0  0  0  0  0  0  0  0  0
  192.3230  175.1810  146.8420 C   0  0  0  0  0  1  0  0  0  0  0  0
  190.8850  173.8890  143.7420 C   0  0  0  0  0  0  0  0  0  0  0  0
  191.9220  174.9380  142.9190 S   0  0  0  0  0  0  0  0  0  0  0  0
  191.0710  173.9650  145.0800 N   0  0  0  0  0  0  0  0  0  0  0  0
  192.6460  175.4870  144.3300 C   0  0  0  0  0  0  0  0  0  0  0  0
  192.0400  174.8580  145.4170 C   0  0  0  0  0  0  0  0  0  0  0  0
  193.6270  176.5290  144.3660 N   0  0  0  0  0  2  0  0  0  0  0  0
  195.7670  177.3140  144.8160 O   0  0  0  0  0  0  0  0  0  0  0  0
  195.0370  176.3320  144.5240 C   0  0  0  0  0  0  0  0  0  0  0  0
  195.6790  175.0050  144.2480 C   0  0  0  0  0  2  0  0  0  0  0  0
  197.3270  173.7510  145.6010 C   0  0  0  0  0  1  0  0  0  0  0  0
  195.0640  173.0520  145.5010 O   0  0  0  0  0  1  0  0  0  0  0  0
  195.5770  174.9500  146.6360 F   0  0  0  0  0  0  0  0  0  0  0  0
  195.8780  174.1860  145.5210 C   0  0  2  0  0  0  0  0  0  0  0  0
  188.1260  174.8560  141.8550 N   0  0  0  0  0  2  0  0  0  0  0  0
  188.4680  176.2630  142.0060 C   0  0  0  0  0  2  0  0  0  0  0  0
  184.8220  178.4830  147.0630 C   0  0  0  0  0  3  0  0  0  0  0  0
  187.9150  176.5620  146.4860 O   0  0  0  0  0  0  0  0  0  0  0  0
  186.0600  177.8680  147.2600 C   0  0  0  0  0  3  0  0  0  0  0  0
  186.7130  176.6760  143.7440 O   0  0  0  0  0  0  0  0  0  0  0  0
  184.2240  178.4590  145.8050 C   0  0  0  0  0  3  0  0  0  0  0  0
  189.7290  177.4730  145.1920 C   0  0  0  0  0  3  0  0  0  0  0  0
  186.1310  177.2380  144.9020 C   0  0  0  0  0  0  0  0  0  0  0  0
  188.9760  177.1370  144.1900 C   0  0  0  0  0  0  0  0  0  0  0  0
  186.7190  177.2300  146.2010 C   0  0  0  0  0  0  0  0  0  0  0  0
  189.1580  177.2700  146.5620 C   0  0  0  0  0  2  0  0  0  0  0  0
  184.8750  177.8380  144.7370 C   0  0  0  0  0  3  0  0  0  0  0  0
  188.0660  176.7290  143.3610 C   0  0  0  0  0  0  0  0  0  0  0  0
  1  8  1  0  0  0  0
  2  1  2  0  0  0  0
  3  1  1  0  0  0  0
  3 24  1  0  0  0  0
  4  7  1  0  0  0  0
  5  6  2  0  0  0  0
  5  7  1  0  0  0  0
  6  2  1  0  0  0  0
  7  3  2  0  0  0  0
  8 11  1  0  0  0  0
  8  9  2  0  0  0  0
 11 13  2  0  0  0  0
 12 11  1  0  0  0  0
 12 14  1  0  0  0  0
 13 15  1  0  0  0  0
 14 16  1  0  0  0  0
 14 15  2  0  0  0  0
 15 10  1  0  0  0  0
 16 18  1  0  0  0  0
 18 17  2  0  0  0  0
 19 18  1  0  0  0  0
 19 23  1  0  0  0  0
 21 23  1  0  0  0  0
 23 20  1  1  0  0  0
 23 22  1  0  0  0  0
 24 25  1  0  0  0  0
 25 37  1  0  0  0  0
 26 28  1  0  0  0  0
 27 35  1  0  0  0  0
 29 32  1  0  0  0  0
 30 26  2  0  0  0  0
 31 35  1  0  0  0  0
 32 34  1  0  0  0  0
 33 31  2  0  0  0  0
 34 27  1  0  0  0  0
 34 28  2  0  0  0  0
 36 32  2  0  0  0  0
 36 30  1  0  0  0  0
 37 29  1  0  0  0  0
 37 33  2  0  0  0  0
M  END
>  <MODEL>
2

>  <REMARK>
 VINA RESULT:      -8.2      1.369      2.108
  Name = 
  8 active torsions:
  status: ('A' for Active; 'I' for Inactive)
    1  A    between atoms: C_1  and  C_3
    2  A    between atoms: C_3  and  C_8
    3  A    between atoms: C_7  and  N_23
    4  A    between atoms: N_11  and  C_25
    5  A    between atoms: C_18  and  C_30
    6  A    between atoms: N_23  and  C_27
    7  A    between atoms: C_27  and  C_37
    8  A    between atoms: C_28  and  C_30
                            x       y       z     vdW  Elec       q    Type
                         _______ _______ _______ _____ _____    ______ ____

>  <TORSDO>
F 8

$$$$
=
 OpenBabel11042418233D

 37 40  0  0  1  0  0  0  0  0999 V2000
  189.5070  174.6820  143.5090 C   0  0  0  0  0  0  0  0  0  0  0  0
  189.3870  173.2890  143.5620 C   0  0  0  0  0  3  0  0  0  0  0  0
  189.0760  175.3710  142.3510 C   0  0  0  0  0  0  0  0  0  0  0  0
  188.0490  175.2470  140.0950 N   0  0  0  0  0  1  0  0  0  0  0  0
  188.4210  173.2680  141.3870 N   0  0  0  0  0  0  0  0  0  0  0  0
  188.8370  172.5950  142.4880 C   0  0  0  0  0  3  0  0  0  0  0  0
  188.5210  174.6210  141.2850 C   0  0  0  0  0  0  0  0  0  0  0  0
  190.1310  175.3950  144.6500 C   0  0  0  0  0  0  0  0  0  0  0  0
  189.4090  175.7630  145.6160 O   0  0  0  0  0  0  0  0  0  0  0  0
  194.3480  177.0640  146.6460 C   0  0  0  0  0  1  0  0  0  0  0  0
  191.5740  175.7070  144.6930 C   0  0  0  0  0  0  0  0  0  0  0  0
  192.6820  175.4580  143.4430 S   0  0  0  0  0  0  0  0  0  0  0  0
  192.1780  176.2200  145.7900 N   0  0  0  0  0  0  0  0  0  0  0  0
  193.9810  176.0080  144.3530 C   0  0  0  0  0  0  0  0  0  0  0  0
  193.5130  176.4010  145.6070 C   0  0  0  0  0  0  0  0  0  0  0  0
  195.3080  176.1540  143.8350 N   0  0  0  0  0  2  0  0  0  0  0  0
  197.5140  175.4580  143.6260 O   0  0  0  0  0  0  0  0  0  0  0  0
  196.3180  175.1390  143.8500 C   0  0  0  0  0  0  0  0  0  0  0  0
  195.9710  173.6900  144.0240 C   0  0  0  0  0  2  0  0  0  0  0  0
  196.9160  172.1780  145.7390 C   0  0  0  0  0  1  0  0  0  0  0  0
  194.6350  172.8200  145.8180 O   0  0  0  0  0  1  0  0  0  0  0  0
  196.2270  174.3640  146.3040 F   0  0  0  0  0  0  0  0  0  0  0  0
  195.9110  173.2860  145.4950 C   0  0  2  0  0  0  0  0  0  0  0  0
  189.1850  176.8060  142.3160 N   0  0  0  0  0  2  0  0  0  0  0  0
  188.2200  177.7340  141.7440 C   0  0  0  0  0  2  0  0  0  0  0  0
  184.6860  178.2030  147.3180 C   0  0  0  0  0  3  0  0  0  0  0  0
  184.5300  179.3340  143.8130 O   0  0  0  0  0  0  0  0  0  0  0  0
  184.2080  178.6880  146.0980 C   0  0  0  0  0  3  0  0  0  0  0  0
  187.3240  178.2740  144.0190 O   0  0  0  0  0  0  0  0  0  0  0  0
  186.0110  177.7910  147.4330 C   0  0  0  0  0  3  0  0  0  0  0  0
  184.5950  177.7650  141.9890 C   0  0  0  0  0  3  0  0  0  0  0  0
  186.3940  178.3010  145.0810 C   0  0  0  0  0  0  0  0  0  0  0  0
  185.8670  177.7580  142.2460 C   0  0  0  0  0  0  0  0  0  0  0  0
  185.0480  178.7600  144.9790 C   0  0  0  0  0  0  0  0  0  0  0  0
  183.7260  178.5710  142.9060 C   0  0  0  0  0  2  0  0  0  0  0  0
  186.8560  177.8440  146.3230 C   0  0  0  0  0  3  0  0  0  0  0  0
  187.0790  177.9060  142.6830 C   0  0  0  0  0  0  0  0  0  0  0  0
  1  2  1  0  0  0  0
  1  8  1  0  0  0  0
  3  1  2  0  0  0  0
  4  7  1  0  0  0  0
  5  6  1  0  0  0  0
  6  2  2  0  0  0  0
  7  5  2  0  0  0  0
  7  3  1  0  0  0  0
  8 11  1  0  0  0  0
  8  9  2  0  0  0  0
 11 13  2  0  0  0  0
 12 14  1  0  0  0  0
 12 11  1  0  0  0  0
 14 15  2  0  0  0  0
 15 13  1  0  0  0  0
 15 10  1  0  0  0  0
 16 18  1  0  0  0  0
 16 14  1  0  0  0  0
 17 18  2  0  0  0  0
 18 19  1  0  0  0  0
 19 23  1  0  0  0  0
 23 20  1  1  0  0  0
 23 21  1  0  0  0  0
 23 22  1  0  0  0  0
 24  3  1  0  0  0  0
 25 24  1  0  0  0  0
 25 37  1  0  0  0  0
 26 30  1  0  0  0  0
 27 34  1  0  0  0  0
 28 26  2  0  0  0  0
 29 32  1  0  0  0  0
 31 33  2  0  0  0  0
 31 35  1  0  0  0  0
 32 36  1  0  0  0  0
 33 37  2  0  0  0  0
 34 32  2  0  0  0  0
 34 28  1  0  0  0  0
 35 27  1  0  0  0  0
 36 30  2  0  0  0  0
 37 29  1  0  0  0  0
M  END
>  <MODEL>
3

>  <REMARK>
 VINA RESULT:      -8.2      1.796      2.352
  Name = 
  8 active torsions:
  status: ('A' for Active; 'I' for Inactive)
    1  A    between atoms: C_1  and  C_3
    2  A    between atoms: C_3  and  C_8
    3  A    between atoms: C_7  and  N_23
    4  A    between atoms: N_11  and  C_25
    5  A    between atoms: C_18  and  C_30
    6  A    between atoms: N_23  and  C_27
    7  A    between atoms: C_27  and  C_37
    8  A    between atoms: C_28  and  C_30
                            x       y       z     vdW  Elec       q    Type
                         _______ _______ _______ _____ _____    ______ ____

>  <TORSDO>
F 8

$$$$
=
 OpenBabel11042418233D

 37 40  0  0  1  0  0  0  0  0999 V2000
  189.9320  174.0310  144.4370 C   0  0  0  0  0  0  0  0  0  0  0  0
  189.7260  172.6530  144.5620 C   0  0  0  0  0  3  0  0  0  0  0  0
  189.6330  174.6680  143.2090 C   0  0  0  0  0  0  0  0  0  0  0  0
  188.7750  174.4570  140.8900 N   0  0  0  0  0  1  0  0  0  0  0  0
  188.9280  172.5470  142.3220 N   0  0  0  0  0  0  0  0  0  0  0  0
  189.2200  171.9230  143.4910 C   0  0  0  0  0  3  0  0  0  0  0  0
  189.1170  173.8820  142.1490 C   0  0  0  0  0  0  0  0  0  0  0  0
  190.5100  174.7800  145.5800 C   0  0  0  0  0  0  0  0  0  0  0  0
  189.7410  175.2320  146.4710 O   0  0  0  0  0  0  0  0  0  0  0  0
  194.5890  177.4890  146.3330 C   0  0  0  0  0  1  0  0  0  0  0  0
  191.9590  175.0310  145.7090 C   0  0  0  0  0  0  0  0  0  0  0  0
  193.1860  173.8850  145.5240 S   0  0  0  0  0  0  0  0  0  0  0  0
  192.4650  176.2460  146.0240 N   0  0  0  0  0  0  0  0  0  0  0  0
  194.4020  174.9840  145.8840 C   0  0  0  0  0  0  0  0  0  0  0  0
  193.8220  176.2320  146.1120 C   0  0  0  0  0  0  0  0  0  0  0  0
  195.7980  174.6740  145.8210 N   0  0  0  0  0  2  0  0  0  0  0  0
  197.6690  173.8640  144.7080 O   0  0  0  0  0  0  0  0  0  0  0  0
  196.5290  174.3870  144.6230 C   0  0  0  0  0  0  0  0  0  0  0  0
  196.0120  174.7910  143.2740 C   0  0  0  0  0  2  0  0  0  0  0  0
  195.8100  176.6260  141.6280 C   0  0  0  0  0  1  0  0  0  0  0  0
  197.9410  175.8950  142.3680 O   0  0  0  0  0  1  0  0  0  0  0  0
  196.6130  177.0430  143.8080 F   0  0  0  0  0  0  0  0  0  0  0  0
  196.6270  176.1020  142.7920 C   0  0  2  0  0  0  0  0  0  0  0  0
  189.8290  176.0890  143.0990 N   0  0  0  0  0  2  0  0  0  0  0  0
  189.0350  177.0130  142.3020 C   0  0  0  0  0  2  0  0  0  0  0  0
  184.8870  178.3380  147.2840 C   0  0  0  0  0  3  0  0  0  0  0  0
  185.3590  179.2240  143.7380 O   0  0  0  0  0  0  0  0  0  0  0  0
  184.6490  178.7920  145.9850 C   0  0  0  0  0  3  0  0  0  0  0  0
  187.9270  177.8280  144.3940 O   0  0  0  0  0  0  0  0  0  0  0  0
  186.1150  177.7670  147.6080 C   0  0  0  0  0  3  0  0  0  0  0  0
  185.4490  177.5330  142.0270 C   0  0  0  0  0  3  0  0  0  0  0  0
  186.8760  178.0520  145.3110 C   0  0  0  0  0  0  0  0  0  0  0  0
  186.6630  177.3800  142.4630 C   0  0  0  0  0  0  0  0  0  0  0  0
  185.6320  178.6730  144.9940 C   0  0  0  0  0  0  0  0  0  0  0  0
  184.5860  178.5080  142.7670 C   0  0  0  0  0  2  0  0  0  0  0  0
  187.1000  177.6290  146.6280 C   0  0  0  0  0  3  0  0  0  0  0  0
  187.8140  177.4000  143.0590 C   0  0  0  0  0  0  0  0  0  0  0  0
  1  2  1  0  0  0  0
  1  8  1  0  0  0  0
  3  1  2  0  0  0  0
  4  7  1  0  0  0  0
  5  6  1  0  0  0  0
  6  2  2  0  0  0  0
  7  5  2  0  0  0  0
  7  3  1  0  0  0  0
  8 11  1  0  0  0  0
  8  9  2  0  0  0  0
 11 13  2  0  0  0  0
 12 11  1  0  0  0  0
 12 14  1  0  0  0  0
 13 15  1  0  0  0  0
 14 15  2  0  0  0  0
 15 10  1  0  0  0  0
 16 14  1  0  0  0  0
 18 17  2  0  0  0  0
 18 16  1  0  0  0  0
 19 18  1  0  0  0  0
 21 23  1  0  0  0  0
 23 20  1  6  0  0  0
 23 19  1  0  0  0  0
 23 22  1  0  0  0  0
 24  3  1  0  0  0  0
 25 37  1  0  0  0  0
 25 24  1  0  0  0  0
 26 30  1  0  0  0  0
 27 34  1  0  0  0  0
 28 26  2  0  0  0  0
 29 32  1  0  0  0  0
 31 33  2  0  0  0  0
 31 35  1  0  0  0  0
 32 36  1  0  0  0  0
 33 37  2  0  0  0  0
 34 32  2  0  0  0  0
 34 28  1  0  0  0  0
 35 27  1  0  0  0  0
 36 30  2  0  0  0  0
 37 29  1  0  0  0  0
M  END
>  <MODEL>
4

>  <REMARK>
 VINA RESULT:      -8.0      1.886      2.614
  Name = 
  8 active torsions:
  status: ('A' for Active; 'I' for Inactive)
    1  A    between atoms: C_1  and  C_3
    2  A    between atoms: C_3  and  C_8
    3  A    between atoms: C_7  and  N_23
    4  A    between atoms: N_11  and  C_25
    5  A    between atoms: C_18  and  C_30
    6  A    between atoms: N_23  and  C_27
    7  A    between atoms: C_27  and  C_37
    8  A    between atoms: C_28  and  C_30
                            x       y       z     vdW  Elec       q    Type
                         _______ _______ _______ _____ _____    ______ ____

>  <TORSDO>
F 8

$$$$
=
 OpenBabel11042418233D

 37 40  0  0  1  0  0  0  0  0999 V2000
  186.2560  177.8110  142.2700 C   0  0  0  0  0  0  0  0  0  0  0  0
  185.2750  177.8460  141.2740 C   0  0  0  0  0  3  0  0  0  0  0  0
  185.9260  178.2180  143.5840 C   0  0  0  0  0  0  0  0  0  0  0  0
  184.1870  179.0420  145.1510 N   0  0  0  0  0  1  0  0  0  0  0  0
  183.6780  178.6470  142.8470 N   0  0  0  0  0  0  0  0  0  0  0  0
  183.9840  178.2670  141.5820 C   0  0  0  0  0  3  0  0  0  0  0  0
  184.5980  178.6350  143.8490 C   0  0  0  0  0  0  0  0  0  0  0  0
  187.6340  177.3960  141.9080 C   0  0  0  0  0  0  0  0  0  0  0  0
  188.5350  178.2730  141.8080 O   0  0  0  0  0  0  0  0  0  0  0  0
  188.5550  173.3980  139.1310 C   0  0  0  0  0  1  0  0  0  0  0  0
  187.9930  175.9880  141.6460 C   0  0  0  0  0  0  0  0  0  0  0  0
  188.3280  174.8140  142.8130 S   0  0  0  0  0  0  0  0  0  0  0  0
  188.1160  175.4860  140.3950 N   0  0  0  0  0  0  0  0  0  0  0  0
  188.6630  173.6320  141.6690 C   0  0  0  0  0  0  0  0  0  0  0  0
  188.4780  174.1750  140.3980 C   0  0  0  0  0  0  0  0  0  0  0  0
  188.9570  172.2700  141.9970 N   0  0  0  0  0  2  0  0  0  0  0  0
  190.4220  170.4760  142.1770 O   0  0  0  0  0  0  0  0  0  0  0  0
  190.2710  171.7240  142.1640 C   0  0  0  0  0  0  0  0  0  0  0  0
  191.4570  172.6030  142.4270 C   0  0  0  0  0  2  0  0  0  0  0  0
  193.6350  172.6950  141.2590 C   0  0  0  0  0  1  0  0  0  0  0  0
  192.0150  174.3950  140.9310 O   0  0  0  0  0  1  0  0  0  0  0  0
  191.6350  172.3330  140.0590 F   0  0  0  0  0  0  0  0  0  0  0  0
  192.1600  173.0220  141.1390 C   0  0  2  0  0  0  0  0  0  0  0  0
  186.9390  178.1560  144.6040 N   0  0  0  0  0  2  0  0  0  0  0  0
  187.0810  177.1250  145.6220 C   0  0  0  0  0  2  0  0  0  0  0  0
  193.5000  176.3100  144.2400 C   0  0  0  0  0  3  0  0  0  0  0  0
  191.2830  176.5020  147.1770 O   0  0  0  0  0  0  0  0  0  0  0  0
  193.0050  176.1940  145.5400 C   0  0  0  0  0  3  0  0  0  0  0  0
  189.4800  177.3940  144.9570 O   0  0  0  0  0  0  0  0  0  0  0  0
  192.6850  176.8070  143.2250 C   0  0  0  0  0  3  0  0  0  0  0  0
  189.4130  175.0080  147.4340 C   0  0  0  0  0  3  0  0  0  0  0  0
  190.8370  177.0350  144.7980 C   0  0  0  0  0  0  0  0  0  0  0  0
  188.8550  175.8120  146.5820 C   0  0  0  0  0  0  0  0  0  0  0  0
  191.6880  176.5650  145.8400 C   0  0  0  0  0  0  0  0  0  0  0  0
  190.8510  175.2680  147.7640 C   0  0  0  0  0  2  0  0  0  0  0  0
  191.3660  177.1680  143.5070 C   0  0  0  0  0  3  0  0  0  0  0  0
  188.5120  176.7320  145.7340 C   0  0  0  0  0  0  0  0  0  0  0  0
  1  3  1  0  0  0  0
  2  6  1  0  0  0  0
  2  1  2  0  0  0  0
  3  7  2  0  0  0  0
  3 24  1  0  0  0  0
  5  7  1  0  0  0  0
  6  5  2  0  0  0  0
  7  4  1  0  0  0  0
  8  1  1  0  0  0  0
  9  8  2  0  0  0  0
 10 15  1  0  0  0  0
 11  8  1  0  0  0  0
 11 12  1  0  0  0  0
 13 15  1  0  0  0  0
 13 11  2  0  0  0  0
 14 16  1  0  0  0  0
 14 12  1  0  0  0  0
 15 14  2  0  0  0  0
 16 18  1  0  0  0  0
 18 17  2  0  0  0  0
 18 19  1  0  0  0  0
 21 23  1  0  0  0  0
 22 23  1  0  0  0  0
 23 20  1  1  0  0  0
 23 19  1  0  0  0  0
 24 25  1  0  0  0  0
 25 37  1  0  0  0  0
 26 28  1  0  0  0  0
 27 35  1  0  0  0  0
 28 34  2  0  0  0  0
 29 37  1  0  0  0  0
 30 36  1  0  0  0  0
 30 26  2  0  0  0  0
 31 35  1  0  0  0  0
 32 29  1  0  0  0  0
 32 34  1  0  0  0  0
 33 31  2  0  0  0  0
 34 27  1  0  0  0  0
 36 32  2  0  0  0  0
 37 33  2  0  0  0  0
M  END
>  <MODEL>
5

>  <REMARK>
 VINA RESULT:      -8.0      2.881      6.703
  Name = 
  8 active torsions:
  status: ('A' for Active; 'I' for Inactive)
    1  A    between atoms: C_1  and  C_3
    2  A    between atoms: C_3  and  C_8
    3  A    between atoms: C_7  and  N_23
    4  A    between atoms: N_11  and  C_25
    5  A    between atoms: C_18  and  C_30
    6  A    between atoms: N_23  and  C_27
    7  A    between atoms: C_27  and  C_37
    8  A    between atoms: C_28  and  C_30
                            x       y       z     vdW  Elec       q    Type
                         _______ _______ _______ _____ _____    ______ ____

>  <TORSDO>
F 8

$$$$
=
 OpenBabel11042418233D

 37 40  0  0  1  0  0  0  0  0999 V2000
  188.9150  173.8900  140.0300 C   0  0  0  0  0  0  0  0  0  0  0  0
  188.2520  174.1870  138.8340 C   0  0  0  0  0  3  0  0  0  0  0  0
  190.2370  173.3880  139.9830 C   0  0  0  0  0  0  0  0  0  0  0  0
  192.1860  172.7330  138.5920 N   0  0  0  0  0  1  0  0  0  0  0  0
  190.1670  173.5260  137.5840 N   0  0  0  0  0  0  0  0  0  0  0  0
  188.8960  174.0000  137.6150 C   0  0  0  0  0  3  0  0  0  0  0  0
  190.8510  173.2170  138.7180 C   0  0  0  0  0  0  0  0  0  0  0  0
  188.1940  174.0610  141.3150 C   0  0  0  0  0  0  0  0  0  0  0  0
  187.6330  173.0630  141.8430 O   0  0  0  0  0  0  0  0  0  0  0  0
  189.5040  177.6150  144.5080 C   0  0  0  0  0  1  0  0  0  0  0  0
  188.0930  175.3660  141.9980 C   0  0  0  0  0  0  0  0  0  0  0  0
  186.9070  176.5380  141.7310 S   0  0  0  0  0  0  0  0  0  0  0  0
  188.9900  175.7770  142.9240 N   0  0  0  0  0  0  0  0  0  0  0  0
  187.5860  177.6150  142.8250 C   0  0  0  0  0  0  0  0  0  0  0  0
  188.7110  177.0210  143.3980 C   0  0  0  0  0  0  0  0  0  0  0  0
  186.9930  178.8700  143.1770 N   0  0  0  0  0  2  0  0  0  0  0  0
  185.1960  180.1610  143.8840 O   0  0  0  0  0  0  0  0  0  0  0  0
  185.7510  179.0330  143.8720 C   0  0  0  0  0  0  0  0  0  0  0  0
  185.1500  177.9170  144.6730 C   0  0  0  0  0  2  0  0  0  0  0  0
  186.3860  176.8030  146.5030 C   0  0  0  0  0  1  0  0  0  0  0  0
  184.3800  177.9880  146.9460 O   0  0  0  0  0  1  0  0  0  0  0  0
  186.2480  179.1570  146.3970 F   0  0  0  0  0  0  0  0  0  0  0  0
  185.5280  178.0010  146.1500 C   0  0  2  0  0  0  0  0  0  0  0  0
  190.9160  173.1060  141.2200 N   0  0  0  0  0  2  0  0  0  0  0  0
  192.2370  173.5770  141.6100 C   0  0  0  0  0  2  0  0  0  0  0  0
  190.1760  175.3750  147.6350 C   0  0  0  0  0  3  0  0  0  0  0  0
  193.2820  175.3200  145.6510 O   0  0  0  0  0  0  0  0  0  0  0  0
  191.4720  175.6420  147.1890 C   0  0  0  0  0  3  0  0  0  0  0  0
  191.4260  173.6700  143.9770 O   0  0  0  0  0  0  0  0  0  0  0  0
  189.3440  174.5370  146.8970 C   0  0  0  0  0  3  0  0  0  0  0  0
  193.4250  176.4310  143.5200 C   0  0  0  0  0  3  0  0  0  0  0  0
  191.0860  174.2540  145.2170 C   0  0  0  0  0  0  0  0  0  0  0  0
  192.7850  175.3800  143.1060 C   0  0  0  0  0  0  0  0  0  0  0  0
  191.9480  175.0800  145.9960 C   0  0  0  0  0  0  0  0  0  0  0  0
  193.6710  176.5330  144.9950 C   0  0  0  0  0  2  0  0  0  0  0  0
  189.7990  173.9810  145.7000 C   0  0  0  0  0  3  0  0  0  0  0  0
  192.1510  174.2630  142.9280 C   0  0  0  0  0  0  0  0  0  0  0  0
  1  8  1  0  0  0  0
  2  1  2  0  0  0  0
  3  1  1  0  0  0  0
  3 24  1  0  0  0  0
  4  7  1  0  0  0  0
  5  6  2  0  0  0  0
  5  7  1  0  0  0  0
  6  2  1  0  0  0  0
  7  3  2  0  0  0  0
  8  9  2  0  0  0  0
  8 11  1  0  0  0  0
 11 13  2  0  0  0  0
 12 11  1  0  0  0  0
 12 14  1  0  0  0  0
 13 15  1  0  0  0  0
 14 16  1  0  0  0  0
 14 15  2  0  0  0  0
 15 10  1  0  0  0  0
 16 18  1  0  0  0  0
 18 17  2  0  0  0  0
 18 19  1  0  0  0  0
 19 23  1  0  0  0  0
 23 22  1  0  0  0  0
 23 20  1  1  0  0  0
 23 21  1  0  0  0  0
 24 25  1  0  0  0  0
 25 37  1  0  0  0  0
 27 34  1  0  0  0  0
 28 26  1  0  0  0  0
 29 32  1  0  0  0  0
 30 26  2  0  0  0  0
 31 35  1  0  0  0  0
 32 36  2  0  0  0  0
 32 34  1  0  0  0  0
 33 31  2  0  0  0  0
 34 28  2  0  0  0  0
 35 27  1  0  0  0  0
 36 30  1  0  0  0  0
 37 33  2  0  0  0  0
 37 29  1  0  0  0  0
M  END
>  <MODEL>
6

>  <REMARK>
 VINA RESULT:      -8.0      2.930      6.477
  Name = 
  8 active torsions:
  status: ('A' for Active; 'I' for Inactive)
    1  A    between atoms: C_1  and  C_3
    2  A    between atoms: C_3  and  C_8
    3  A    between atoms: C_7  and  N_23
    4  A    between atoms: N_11  and  C_25
    5  A    between atoms: C_18  and  C_30
    6  A    between atoms: N_23  and  C_27
    7  A    between atoms: C_27  and  C_37
    8  A    between atoms: C_28  and  C_30
                            x       y       z     vdW  Elec       q    Type
                         _______ _______ _______ _____ _____    ______ ____

>  <TORSDO>
F 8

$$$$
=
 OpenBabel11042418233D

 37 40  0  0  1  0  0  0  0  0999 V2000
  189.6680  172.7410  141.1480 C   0  0  0  0  0  0  0  0  0  0  0  0
  190.1960  171.8120  140.2450 C   0  0  0  0  0  3  0  0  0  0  0  0
  188.8450  173.7860  140.6660 C   0  0  0  0  0  0  0  0  0  0  0  0
  187.7350  174.8560  138.7220 N   0  0  0  0  0  1  0  0  0  0  0  0
  189.1020  172.9140  138.4410 N   0  0  0  0  0  0  0  0  0  0  0  0
  189.8990  171.9120  138.8890 C   0  0  0  0  0  3  0  0  0  0  0  0
  188.5700  173.8440  139.2770 C   0  0  0  0  0  0  0  0  0  0  0  0
  190.0300  172.6360  142.5830 C   0  0  0  0  0  0  0  0  0  0  0  0
  189.1650  172.2340  143.4080 O   0  0  0  0  0  0  0  0  0  0  0  0
  193.9700  172.3610  145.5740 C   0  0  0  0  0  1  0  0  0  0  0  0
  191.3680  172.9990  143.0900 C   0  0  0  0  0  0  0  0  0  0  0  0
  192.3690  174.2100  142.4700 S   0  0  0  0  0  0  0  0  0  0  0  0
  191.9570  172.3570  144.1250 N   0  0  0  0  0  0  0  0  0  0  0  0
  193.6060  173.8800  143.5560 C   0  0  0  0  0  0  0  0  0  0  0  0
  193.1960  172.8460  144.3990 C   0  0  0  0  0  0  0  0  0  0  0  0
  194.8100  174.6490  143.6470 N   0  0  0  0  0  2  0  0  0  0  0  0
  195.9410  176.6650  143.8800 O   0  0  0  0  0  0  0  0  0  0  0  0
  194.8920  176.0060  144.0990 C   0  0  0  0  0  0  0  0  0  0  0  0
  193.8000  176.6270  144.9180 C   0  0  0  0  0  2  0  0  0  0  0  0
  192.6380  175.6810  146.8860 C   0  0  0  0  0  1  0  0  0  0  0  0
  194.1880  177.4580  147.1360 O   0  0  0  0  0  1  0  0  0  0  0  0
  194.9640  175.3920  146.6020 F   0  0  0  0  0  0  0  0  0  0  0  0
  193.9350  176.2970  146.4020 C   0  0  2  0  0  0  0  0  0  0  0  0
  188.2910  174.7220  141.6080 N   0  0  0  0  0  2  0  0  0  0  0  0
  188.7810  176.0650  141.8830 C   0  0  0  0  0  2  0  0  0  0  0  0
  184.3820  178.6730  146.0830 C   0  0  0  0  0  3  0  0  0  0  0  0
  187.3230  176.4520  146.1480 O   0  0  0  0  0  0  0  0  0  0  0  0
  185.4840  177.9400  146.5290 C   0  0  0  0  0  3  0  0  0  0  0  0
  186.7470  176.6620  143.2160 O   0  0  0  0  0  0  0  0  0  0  0  0
  184.0650  178.6980  144.7270 C   0  0  0  0  0  3  0  0  0  0  0  0
  189.4510  177.1690  145.2800 C   0  0  0  0  0  3  0  0  0  0  0  0
  185.9910  177.2880  144.2320 C   0  0  0  0  0  0  0  0  0  0  0  0
  188.8980  176.9010  144.1370 C   0  0  0  0  0  0  0  0  0  0  0  0
  186.2860  177.2320  145.6250 C   0  0  0  0  0  0  0  0  0  0  0  0
  188.5850  177.0340  146.4960 C   0  0  0  0  0  2  0  0  0  0  0  0
  184.8640  178.0080  143.8120 C   0  0  0  0  0  3  0  0  0  0  0  0
  188.1480  176.5790  143.1290 C   0  0  0  0  0  0  0  0  0  0  0  0
  1  8  1  0  0  0  0
  2  1  2  0  0  0  0
  3  1  1  0  0  0  0
  3 24  1  0  0  0  0
  4  7  1  0  0  0  0
  5  6  2  0  0  0  0
  5  7  1  0  0  0  0
  6  2  1  0  0  0  0
  7  3  2  0  0  0  0
  8 11  1  0  0  0  0
  8  9  2  0  0  0  0
 11 13  2  0  0  0  0
 12 11  1  0  0  0  0
 12 14  1  0  0  0  0
 13 15  1  0  0  0  0
 14 16  1  0  0  0  0
 14 15  2  0  0  0  0
 15 10  1  0  0  0  0
 16 18  1  0  0  0  0
 17 18  2  0  0  0  0
 18 19  1  0  0  0  0
 19 23  1  0  0  0  0
 23 22  1  0  0  0  0
 23 20  1  1  0  0  0
 23 21  1  0  0  0  0
 24 25  1  0  0  0  0
 25 37  1  0  0  0  0
 26 28  1  0  0  0  0
 27 35  1  0  0  0  0
 29 32  1  0  0  0  0
 30 26  2  0  0  0  0
 31 35  1  0  0  0  0
 32 34  1  0  0  0  0
 33 31  2  0  0  0  0
 34 27  1  0  0  0  0
 34 28  2  0  0  0  0
 36 32  2  0  0  0  0
 36 30  1  0  0  0  0
 37 29  1  0  0  0  0
 37 33  2  0  0  0  0
M  END
>  <MODEL>
7

>  <REMARK>
 VINA RESULT:      -7.9      1.724      2.747
  Name = 
  8 active torsions:
  status: ('A' for Active; 'I' for Inactive)
    1  A    between atoms: C_1  and  C_3
    2  A    between atoms: C_3  and  C_8
    3  A    between atoms: C_7  and  N_23
    4  A    between atoms: N_11  and  C_25
    5  A    between atoms: C_18  and  C_30
    6  A    between atoms: N_23  and  C_27
    7  A    between atoms: C_27  and  C_37
    8  A    between atoms: C_28  and  C_30
                            x       y       z     vdW  Elec       q    Type
                         _______ _______ _______ _____ _____    ______ ____

>  <TORSDO>
F 8

$$$$
=
 OpenBabel11042418233D

 37 40  0  0  1  0  0  0  0  0999 V2000
  189.5250  172.5880  141.1920 C   0  0  0  0  0  0  0  0  0  0  0  0
  190.1110  171.6370  140.3510 C   0  0  0  0  0  3  0  0  0  0  0  0
  188.7570  173.6340  140.6280 C   0  0  0  0  0  0  0  0  0  0  0  0
  187.8210  174.6830  138.5830 N   0  0  0  0  0  1  0  0  0  0  0  0
  189.1800  172.7190  138.4460 N   0  0  0  0  0  0  0  0  0  0  0  0
  189.9260  171.7160  138.9730 C   0  0  0  0  0  3  0  0  0  0  0  0
  188.5960  173.6710  139.2210 C   0  0  0  0  0  0  0  0  0  0  0  0
  189.7690  172.5040  142.6530 C   0  0  0  0  0  0  0  0  0  0  0  0
  188.9080  171.9510  143.3900 O   0  0  0  0  0  0  0  0  0  0  0  0
  193.9130  172.4060  145.3660 C   0  0  0  0  0  1  0  0  0  0  0  0
  190.9820  173.0590  143.2860 C   0  0  0  0  0  0  0  0  0  0  0  0
  191.4950  174.6670  143.2080 S   0  0  0  0  0  0  0  0  0  0  0  0
  191.8480  172.3010  143.9970 N   0  0  0  0  0  0  0  0  0  0  0  0
  192.8860  174.3680  144.0990 C   0  0  0  0  0  0  0  0  0  0  0  0
  192.9030  173.0210  144.4620 C   0  0  0  0  0  0  0  0  0  0  0  0
  193.8040  175.3890  144.5060 N   0  0  0  0  0  2  0  0  0  0  0  0
  194.4030  177.1900  145.8450 O   0  0  0  0  0  0  0  0  0  0  0  0
  193.7150  176.1450  145.7190 C   0  0  0  0  0  0  0  0  0  0  0  0
  192.9010  175.6650  146.8840 C   0  0  0  0  0  2  0  0  0  0  0  0
  191.1660  176.9460  148.0940 C   0  0  0  0  0  1  0  0  0  0  0  0
  190.5740  175.0950  146.7360 O   0  0  0  0  0  1  0  0  0  0  0  0
  191.2880  177.0050  145.7370 F   0  0  0  0  0  0  0  0  0  0  0  0
  191.4620  176.1690  146.8270 C   0  0  2  0  0  0  0  0  0  0  0  0
  188.1420  174.5940  141.5060 N   0  0  0  0  0  2  0  0  0  0  0  0
  188.5460  175.9800  141.6930 C   0  0  0  0  0  2  0  0  0  0  0  0
  185.6740  178.0890  147.2690 C   0  0  0  0  0  3  0  0  0  0  0  0
  185.9170  179.0530  143.7200 O   0  0  0  0  0  0  0  0  0  0  0  0
  185.4130  178.6850  146.0330 C   0  0  0  0  0  3  0  0  0  0  0  0
  188.0160  176.9280  143.9490 O   0  0  0  0  0  0  0  0  0  0  0  0
  186.7080  177.1640  147.3920 C   0  0  0  0  0  3  0  0  0  0  0  0
  185.2730  177.5370  141.9640 C   0  0  0  0  0  3  0  0  0  0  0  0
  187.2100  177.3810  145.0160 C   0  0  0  0  0  0  0  0  0  0  0  0
  186.4320  177.0070  142.2120 C   0  0  0  0  0  0  0  0  0  0  0  0
  186.1770  178.3580  144.9050 C   0  0  0  0  0  0  0  0  0  0  0  0
  184.8450  178.6650  142.8530 C   0  0  0  0  0  2  0  0  0  0  0  0
  187.4690  176.8170  146.2730 C   0  0  0  0  0  3  0  0  0  0  0  0
  187.6060  176.6490  142.6330 C   0  0  0  0  0  0  0  0  0  0  0  0
  1  8  1  0  0  0  0
  2  1  2  0  0  0  0
  3  1  1  0  0  0  0
  3 24  1  0  0  0  0
  4  7  1  0  0  0  0
  5  6  2  0  0  0  0
  5  7  1  0  0  0  0
  6  2  1  0  0  0  0
  7  3  2  0  0  0  0
  8 11  1  0  0  0  0
  8  9  2  0  0  0  0
 11 13  2  0  0  0  0
 12 11  1  0  0  0  0
 12 14  1  0  0  0  0
 13 15  1  0  0  0  0
 14 15  2  0  0  0  0
 14 16  1  0  0  0  0
 15 10  1  0  0  0  0
 16 18  1  0  0  0  0
 18 17  2  0  0  0  0
 18 19  1  0  0  0  0
 21 23  1  0  0  0  0
 22 23  1  0  0  0  0
 23 19  1  0  0  0  0
 23 20  1  1  0  0  0
 24 25  1  0  0  0  0
 25 37  1  0  0  0  0
 26 30  1  0  0  0  0
 27 34  1  0  0  0  0
 28 26  2  0  0  0  0
 29 32  1  0  0  0  0
 31 33  2  0  0  0  0
 31 35  1  0  0  0  0
 32 36  1  0  0  0  0
 33 37  2  0  0  0  0
 34 32  2  0  0  0  0
 34 28  1  0  0  0  0
 35 27  1  0  0  0  0
 36 30  2  0  0  0  0
 37 29  1  0  0  0  0
M  END
>  <MODEL>
8

>  <REMARK>
 VINA RESULT:      -7.9      1.614      2.426
  Name = 
  8 active torsions:
  status: ('A' for Active; 'I' for Inactive)
    1  A    between atoms: C_1  and  C_3
    2  A    between atoms: C_3  and  C_8
    3  A    between atoms: C_7  and  N_23
    4  A    between atoms: N_11  and  C_25
    5  A    between atoms: C_18  and  C_30
    6  A    between atoms: N_23  and  C_27
    7  A    between atoms: C_27  and  C_37
    8  A    between atoms: C_28  and  C_30
                            x       y       z     vdW  Elec       q    Type
                         _______ _______ _______ _____ _____    ______ ____

>  <TORSDO>
F 8

$$$$
=
 OpenBabel11042418233D

 37 40  0  0  1  0  0  0  0  0999 V2000
  190.3600  172.9030  143.1530 C   0  0  0  0  0  0  0  0  0  0  0  0
  190.6670  171.5750  142.8430 C   0  0  0  0  0  3  0  0  0  0  0  0
  189.8680  173.7570  142.1370 C   0  0  0  0  0  0  0  0  0  0  0  0
  189.1790  174.0190  139.7680 N   0  0  0  0  0  1  0  0  0  0  0  0
  189.9950  171.9250  140.5860 N   0  0  0  0  0  0  0  0  0  0  0  0
  190.4760  171.0990  141.5490 C   0  0  0  0  0  3  0  0  0  0  0  0
  189.6880  173.2250  140.8370 C   0  0  0  0  0  0  0  0  0  0  0  0
  190.6100  173.3970  144.5300 C   0  0  0  0  0  0  0  0  0  0  0  0
  189.6650  173.3950  145.3650 O   0  0  0  0  0  0  0  0  0  0  0  0
  193.8010  176.7130  146.3640 C   0  0  0  0  0  1  0  0  0  0  0  0
  191.9260  173.9100  144.9600 C   0  0  0  0  0  0  0  0  0  0  0  0
  193.3930  173.0770  144.8710 S   0  0  0  0  0  0  0  0  0  0  0  0
  192.0890  175.1350  145.5100 N   0  0  0  0  0  0  0  0  0  0  0  0
  194.2570  174.3260  145.5850 C   0  0  0  0  0  0  0  0  0  0  0  0
  193.3820  175.3800  145.8510 C   0  0  0  0  0  0  0  0  0  0  0  0
  195.6800  174.3160  145.7490 N   0  0  0  0  0  2  0  0  0  0  0  0
  197.8360  174.0690  144.9210 O   0  0  0  0  0  0  0  0  0  0  0  0
  196.6350  174.3590  144.6830 C   0  0  0  0  0  0  0  0  0  0  0  0
  196.2610  174.8410  143.3130 C   0  0  0  0  0  2  0  0  0  0  0  0
  195.9160  176.7950  141.8360 C   0  0  0  0  0  1  0  0  0  0  0  0
  197.9390  176.5360  143.0450 O   0  0  0  0  0  1  0  0  0  0  0  0
  196.0430  177.0590  144.1780 F   0  0  0  0  0  0  0  0  0  0  0  0
  196.5610  176.3260  143.1240 C   0  0  2  0  0  0  0  0  0  0  0  0
  189.5350  175.1160  142.4740 N   0  0  0  0  0  2  0  0  0  0  0  0
  188.2070  175.7120  142.4590 C   0  0  0  0  0  2  0  0  0  0  0  0
  185.1050  178.7310  147.4630 C   0  0  0  0  0  3  0  0  0  0  0  0
  188.0980  176.6600  146.8800 O   0  0  0  0  0  0  0  0  0  0  0  0
  186.3470  178.1150  147.6290 C   0  0  0  0  0  3  0  0  0  0  0  0
  186.6370  176.4180  144.2770 O   0  0  0  0  0  0  0  0  0  0  0  0
  184.3870  178.5460  146.2830 C   0  0  0  0  0  3  0  0  0  0  0  0
  189.7910  177.3250  145.3040 C   0  0  0  0  0  3  0  0  0  0  0  0
  186.1790  177.1550  145.3910 C   0  0  0  0  0  0  0  0  0  0  0  0
  188.9390  176.8720  144.4360 C   0  0  0  0  0  0  0  0  0  0  0  0
  186.8900  177.3150  146.6160 C   0  0  0  0  0  0  0  0  0  0  0  0
  189.3530  177.3360  146.7370 C   0  0  0  0  0  2  0  0  0  0  0  0
  184.9220  177.7620  145.2590 C   0  0  0  0  0  3  0  0  0  0  0  0
  187.9460  176.3770  143.7640 C   0  0  0  0  0  0  0  0  0  0  0  0
  1  8  1  0  0  0  0
  2  1  1  0  0  0  0
  3 24  1  0  0  0  0
  3  1  2  0  0  0  0
  4  7  1  0  0  0  0
  5  7  2  0  0  0  0
  5  6  1  0  0  0  0
  6  2  2  0  0  0  0
  7  3  1  0  0  0  0
  8 11  1  0  0  0  0
  8  9  2  0  0  0  0
 11 13  2  0  0  0  0
 12 11  1  0  0  0  0
 12 14  1  0  0  0  0
 13 15  1  0  0  0  0
 14 16  1  0  0  0  0
 14 15  2  0  0  0  0
 15 10  1  0  0  0  0
 18 17  2  0  0  0  0
 18 16  1  0  0  0  0
 19 18  1  0  0  0  0
 21 23  1  0  0  0  0
 23 20  1  6  0  0  0
 23 19  1  0  0  0  0
 23 22  1  0  0  0  0
 25 24  1  0  0  0  0
 25 37  1  0  0  0  0
 26 28  1  0  0  0  0
 29 32  1  0  0  0  0
 30 26  2  0  0  0  0
 31 35  1  0  0  0  0
 32 34  1  0  0  0  0
 33 31  2  0  0  0  0
 34 27  1  0  0  0  0
 34 28  2  0  0  0  0
 35 27  1  0  0  0  0
 36 32  2  0  0  0  0
 36 30  1  0  0  0  0
 37 29  1  0  0  0  0
 37 33  2  0  0  0  0
M  END
>  <MODEL>
9

>  <REMARK>
 VINA RESULT:      -7.8      1.819      2.746
  Name = 
  8 active torsions:
  status: ('A' for Active; 'I' for Inactive)
    1  A    between atoms: C_1  and  C_3
    2  A    between atoms: C_3  and  C_8
    3  A    between atoms: C_7  and  N_23
    4  A    between atoms: N_11  and  C_25
    5  A    between atoms: C_18  and  C_30
    6  A    between atoms: N_23  and  C_27
    7  A    between atoms: C_27  and  C_37
    8  A    between atoms: C_28  and  C_30
                            x       y       z     vdW  Elec       q    Type
                         _______ _______ _______ _____ _____    ______ ____

>  <TORSDO>
F 8

$$$$
