=
 OpenBabel11042419483D

 50 53  0  0  1  0  0  0  0  0999 V2000
  190.0950  173.1660  142.1640 C   0  0  1  0  0  3  0  0  0  0  0  0
  189.9380  171.9960  143.1370 C   0  0  0  0  0  2  0  0  0  0  0  0
  189.8000  172.4900  144.5710 C   0  0  0  0  0  2  0  0  0  0  0  0
  190.3310  173.8410  144.6940 N   0  0  0  0  0  2  0  0  0  0  0  0
  189.2290  174.3150  146.6990 O   0  0  0  0  0  0  0  0  0  0  0  0
  190.0500  174.6820  145.8160 C   0  0  0  0  0  0  0  0  0  0  0  0
  190.7650  175.9900  145.9740 C   0  0  2  0  0  3  0  0  0  0  0  0
  189.7490  177.5250  144.2360 C   0  0  0  0  0  0  0  0  0  0  0  0
  189.8440  178.1760  142.9030 C   0  0  0  0  0  1  0  0  0  0  0  0
  188.7180  177.7010  144.9420 O   0  0  0  0  0  0  0  0  0  0  0  0
  190.8230  176.7070  144.7040 N   0  0  0  0  0  2  0  0  0  0  0  0
  193.2060  176.5480  146.0540 O   0  0  0  0  0  0  0  0  0  0  0  0
  192.1440  175.7760  146.5060 C   0  0  0  0  0  0  0  0  0  0  0  0
  192.3450  174.8940  147.3780 O   0  0  0  0  0  1  0  0  0  0  0  0
  191.2270  173.0270  141.3000 O   0  0  0  0  0  0  0  0  0  0  0  0
  192.8210  174.5030  140.3460 N   0  0  0  0  0  0  0  0  0  0  0  0
  195.3820  174.8230  139.5370 S   0  0  0  0  0  0  0  0  0  0  0  0
  193.2400  173.8710  142.5680 C   0  0  0  0  0  2  0  0  0  0  0  0
  192.3890  173.8070  141.3490 C   0  0  0  0  0  0  0  0  0  0  0  0
  195.5670  174.8300  142.6250 C   0  0  0  0  0  0  0  0  0  0  0  0
  194.0340  175.2190  140.6940 C   0  0  2  0  0  3  0  0  0  0  0  0
  196.6430  175.5260  141.8850 C   0  0  0  0  0  3  0  0  0  0  0  0
  196.6230  175.6510  140.5520 C   0  0  0  0  0  3  0  0  0  0  0  0
  194.3680  174.6840  142.0450 C   0  0  0  0  0  0  0  0  0  0  0  0
  197.2140  172.5350  143.4580 O   0  0  0  0  0  0  0  0  0  0  0  0
  195.7710  174.3220  143.9530 N   0  0  0  0  0  2  0  0  0  0  0  0
  196.5860  173.2010  144.3270 C   0  0  0  0  0  0  0  0  0  0  0  0
  197.2820  173.5810  146.5520 O   0  0  0  0  0  0  0  0  0  0  0  0
  196.6870  172.8220  145.7390 C   0  0  0  0  0  0  0  0  0  0  0  0
  196.1160  171.6240  146.1780 O   0  0  0  0  0  0  0  0  0  0  0  0
  196.7830  170.3740  146.0290 C   0  0  1  0  0  3  0  0  0  0  0  0
  196.1620  169.3520  146.9570 C   0  0  1  0  0  3  0  0  0  0  0  0
  195.8530  169.2980  145.4740 C   0  0  1  0  0  3  0  0  0  0  0  0
  197.1820  168.2870  147.2930 C   0  0  0  0  0  2  0  0  0  0  0  0
  197.2950  168.1660  148.6840 O   0  0  0  0  0  1  0  0  0  0  0  0
  194.5690  169.7990  145.2410 O   0  0  0  0  0  0  0  0  0  0  0  0
  194.1610  169.1930  144.0510 C   0  0  0  0  0  2  0  0  0  0  0  0
  192.9850  168.4810  144.2730 O   0  0  0  0  0  1  0  0  0  0  0  0
  188.8190  173.5540  141.4120 C   0  0  0  0  0  2  0  0  0  0  0  0
  188.8580  174.9670  140.8520 C   0  0  0  0  0  2  0  0  0  0  0  0
  187.1730  176.7170  140.6140 C   0  0  0  0  0  3  0  0  0  0  0  0
  187.7070  175.7560  141.3750 C   0  0  0  0  0  0  0  0  0  0  0  0
  185.5260  177.3020  142.4580 C   0  0  0  0  0  0  0  0  0  0  0  0
  187.1390  175.3950  142.7290 C   0  0  0  0  0  2  0  0  0  0  0  0
  186.0410  177.5170  141.0970 C   0  0  0  0  0  0  0  0  0  0  0  0
  186.0540  176.3290  143.2150 C   0  0  0  0  0  3  0  0  0  0  0  0
  185.5340  178.3970  140.3540 O   0  0  0  0  0  0  0  0  0  0  0  0
  184.4940  178.1240  142.9330 O   0  0  0  0  0  0  0  0  0  0  0  0
  185.4330  179.9300  144.2270 C   0  0  0  0  0  1  0  0  0  0  0  0
  184.5070  178.7260  144.2230 C   0  0  0  0  0  2  0  0  0  0  0  0
  1 39  1  6  0  0  0
  1  2  1  0  0  0  0
  2  3  1  0  0  0  0
  3  4  1  0  0  0  0
  4  6  1  0  0  0  0
  6  7  1  0  0  0  0
  6  5  2  0  0  0  0
  7 11  1  6  0  0  0
  7 13  1  0  0  0  0
  8 11  1  0  0  0  0
  8 10  2  0  0  0  0
  9  8  1  0  0  0  0
 12 13  2  0  0  0  0
 13 14  1  0  0  0  0
 15 19  1  0  0  0  0
 15  1  1  0  0  0  0
 16 21  1  0  0  0  0
 16 19  2  0  0  0  0
 17 23  1  0  0  0  0
 19 18  1  0  0  0  0
 20 26  1  0  0  0  0
 21 17  1  6  0  0  0
 21 24  1  0  0  0  0
 22 20  1  0  0  0  0
 23 22  2  0  0  0  0
 24 18  1  0  0  0  0
 24 20  2  0  0  0  0
 25 27  2  0  0  0  0
 26 27  1  0  0  0  0
 27 29  1  0  0  0  0
 29 30  1  0  0  0  0
 29 28  2  0  0  0  0
 31 30  1  1  0  0  0
 31 32  1  0  0  0  0
 32 34  1  6  0  0  0
 33 36  1  1  0  0  0
 33 31  1  0  0  0  0
 33 32  1  0  0  0  0
 34 35  1  0  0  0  0
 37 38  1  0  0  0  0
 37 36  1  0  0  0  0
 40 42  1  0  0  0  0
 40 39  1  0  0  0  0
 41 45  1  0  0  0  0
 41 42  2  0  0  0  0
 42 44  1  0  0  0  0
 43 48  1  0  0  0  0
 43 46  2  0  0  0  0
 44 46  1  0  0  0  0
 45 43  1  0  0  0  0
 47 45  2  0  0  0  0
 48 50  1  0  0  0  0
 50 49  1  0  0  0  0
M  END
>  <MODEL>
1

>  <REMARK>
 VINA RESULT:      -6.3      0.000      0.000
  Name = 
  20 active torsions:
  status: ('A' for Active; 'I' for Inactive)
    1  A    between atoms: C_2  and  C_7
    2  A    between atoms: C_2  and  O_8
    3  A    between atoms: C_2  and  C_35
    4  A    between atoms: N_3  and  C_18
    5  A    between atoms: O_4  and  C_9
    6  A    between atoms: O_4  and  C_40
    7  A    between atoms: C_6  and  C_7
    8  A    between atoms: C_6  and  C_15
    9  A    between atoms: O_8  and  C_23
   10  A    between atoms: C_11  and  C_36
   11  A    between atoms: C_18  and  C_35
   12  A    between atoms: C_22  and  CA_50
   13  A    between atoms: C_25  and  CA_50
   14  A    between atoms: N_26  and  C_28
   15  A    between atoms: C_30  and  C_37
   16  A    between atoms: C_30  and  O_48
   17  A    between atoms: C_33  and  O_48
   18  A    between atoms: O_38  and  C_39
   19  A    between atoms: O_38  and  C_42
   20  A    between atoms: N_47  and  CA_50
                            x       y       z     vdW  Elec       q    Type
                         _______ _______ _______ _____ _____    ______ ____

>  <TORSDO>
F 20

$$$$
=
 OpenBabel11042419483D

 50 53  0  0  1  0  0  0  0  0999 V2000
  189.5020  172.7320  142.2470 C   0  0  1  0  0  3  0  0  0  0  0  0
  189.8170  171.9100  143.5000 C   0  0  0  0  0  2  0  0  0  0  0  0
  189.6520  172.7480  144.7610 C   0  0  0  0  0  2  0  0  0  0  0  0
  190.5900  173.8620  144.7550 N   0  0  0  0  0  2  0  0  0  0  0  0
  190.0910  174.5660  146.9250 O   0  0  0  0  0  0  0  0  0  0  0  0
  190.8020  174.6990  145.8950 C   0  0  0  0  0  0  0  0  0  0  0  0
  191.9050  175.7140  145.8880 C   0  0  2  0  0  3  0  0  0  0  0  0
  191.0990  177.5360  144.3240 C   0  0  0  0  0  0  0  0  0  0  0  0
  191.1480  178.1740  142.9830 C   0  0  0  0  0  1  0  0  0  0  0  0
  190.3040  177.9820  145.1960 O   0  0  0  0  0  0  0  0  0  0  0  0
  191.9500  176.4250  144.6130 N   0  0  0  0  0  2  0  0  0  0  0  0
  194.2910  175.8050  146.6470 O   0  0  0  0  0  1  0  0  0  0  0  0
  193.2220  175.0650  146.1600 C   0  0  0  0  0  0  0  0  0  0  0  0
  193.3630  173.8330  145.9530 O   0  0  0  0  0  0  0  0  0  0  0  0
  189.6580  171.9880  141.0360 O   0  0  0  0  0  0  0  0  0  0  0  0
  189.0150  172.2670  138.7690 N   0  0  0  0  0  0  0  0  0  0  0  0
  189.6820  171.8560  136.1800 S   0  0  0  0  0  0  0  0  0  0  0  0
  190.9210  173.4680  139.4280 C   0  0  0  0  0  2  0  0  0  0  0  0
  189.8080  172.5380  139.7570 C   0  0  0  0  0  0  0  0  0  0  0  0
  191.5720  174.1310  137.0880 C   0  0  0  0  0  0  0  0  0  0  0  0
  189.4050  172.9930  137.5740 C   0  0  2  0  0  3  0  0  0  0  0  0
  191.2690  174.0450  135.6420 C   0  0  0  0  0  3  0  0  0  0  0  0
  190.4050  173.1490  135.1490 C   0  0  0  0  0  3  0  0  0  0  0  0
  190.6990  173.6200  137.9660 C   0  0  0  0  0  0  0  0  0  0  0  0
  194.1750  172.8830  137.6690 O   0  0  0  0  0  0  0  0  0  0  0  0
  192.7680  174.7620  137.5720 N   0  0  0  0  0  2  0  0  0  0  0  0
  194.0260  174.1240  137.8410 C   0  0  0  0  0  0  0  0  0  0  0  0
  196.2160  174.9890  137.6540 O   0  0  0  0  0  0  0  0  0  0  0  0
  195.1510  174.9260  138.3290 C   0  0  0  0  0  0  0  0  0  0  0  0
  195.0360  175.6230  139.5350 O   0  0  0  0  0  0  0  0  0  0  0  0
  194.5050  175.0140  140.7070 C   0  0  1  0  0  3  0  0  0  0  0  0
  195.6160  174.3300  141.4730 C   0  0  1  0  0  3  0  0  0  0  0  0
  195.0650  175.6470  141.9790 C   0  0  1  0  0  3  0  0  0  0  0  0
  195.0430  173.1990  142.2990 C   0  0  0  0  0  2  0  0  0  0  0  0
  195.6100  173.2160  143.5790 O   0  0  0  0  0  1  0  0  0  0  0  0
  195.9620  176.6780  141.6870 O   0  0  0  0  0  0  0  0  0  0  0  0
  196.8120  176.7350  142.7940 C   0  0  0  0  0  2  0  0  0  0  0  0
  196.0520  176.7960  143.9590 O   0  0  0  0  0  1  0  0  0  0  0  0
  188.1830  173.5080  142.3020 C   0  0  0  0  0  2  0  0  0  0  0  0
  188.3150  174.9510  141.8400 C   0  0  0  0  0  2  0  0  0  0  0  0
  186.4170  176.4590  142.1230 C   0  0  0  0  0  3  0  0  0  0  0  0
  187.4620  175.8360  142.6800 C   0  0  0  0  0  0  0  0  0  0  0  0
  185.8790  177.5940  144.3320 C   0  0  0  0  0  0  0  0  0  0  0  0
  187.7700  175.9480  144.1570 C   0  0  0  0  0  2  0  0  0  0  0  0
  185.5560  177.3420  142.9190 C   0  0  0  0  0  0  0  0  0  0  0  0
  186.9190  176.9590  144.8930 C   0  0  0  0  0  3  0  0  0  0  0  0
  184.5610  177.8950  142.3840 O   0  0  0  0  0  0  0  0  0  0  0  0
  185.0920  178.4980  145.0600 O   0  0  0  0  0  0  0  0  0  0  0  0
  185.0310  178.5750  147.4700 C   0  0  0  0  0  1  0  0  0  0  0  0
  184.3280  178.1250  146.2020 C   0  0  0  0  0  2  0  0  0  0  0  0
  1 39  1  1  0  0  0
  1  2  1  0  0  0  0
  2  3  1  0  0  0  0
  4  3  1  0  0  0  0
  4  6  1  0  0  0  0
  6  5  2  0  0  0  0
  7 11  1  6  0  0  0
  7  6  1  0  0  0  0
  7 13  1  0  0  0  0
  8 11  1  0  0  0  0
  8 10  2  0  0  0  0
  9  8  1  0  0  0  0
 13 12  1  0  0  0  0
 14 13  2  0  0  0  0
 15  1  1  0  0  0  0
 16 19  2  0  0  0  0
 18 19  1  0  0  0  0
 19 15  1  0  0  0  0
 20 26  1  0  0  0  0
 20 24  2  0  0  0  0
 21 17  1  6  0  0  0
 21 24  1  0  0  0  0
 21 16  1  0  0  0  0
 22 20  1  0  0  0  0
 23 22  2  0  0  0  0
 23 17  1  0  0  0  0
 24 18  1  0  0  0  0
 25 27  2  0  0  0  0
 26 27  1  0  0  0  0
 27 29  1  0  0  0  0
 28 29  2  0  0  0  0
 29 30  1  0  0  0  0
 31 30  1  6  0  0  0
 31 32  1  0  0  0  0
 31 33  1  0  0  0  0
 32 33  1  0  0  0  0
 32 34  1  1  0  0  0
 33 36  1  6  0  0  0
 34 35  1  0  0  0  0
 36 37  1  0  0  0  0
 37 38  1  0  0  0  0
 40 39  1  0  0  0  0
 40 42  1  0  0  0  0
 41 42  2  0  0  0  0
 41 45  1  0  0  0  0
 42 44  1  0  0  0  0
 43 46  2  0  0  0  0
 43 48  1  0  0  0  0
 44 46  1  0  0  0  0
 45 43  1  0  0  0  0
 47 45  2  0  0  0  0
 48 50  1  0  0  0  0
 50 49  1  0  0  0  0
M  END
>  <MODEL>
2

>  <REMARK>
 VINA RESULT:      -5.8      3.009      5.011
  Name = 
  20 active torsions:
  status: ('A' for Active; 'I' for Inactive)
    1  A    between atoms: C_2  and  C_7
    2  A    between atoms: C_2  and  O_8
    3  A    between atoms: C_2  and  C_35
    4  A    between atoms: N_3  and  C_18
    5  A    between atoms: O_4  and  C_9
    6  A    between atoms: O_4  and  C_40
    7  A    between atoms: C_6  and  C_7
    8  A    between atoms: C_6  and  C_15
    9  A    between atoms: O_8  and  C_23
   10  A    between atoms: C_11  and  C_36
   11  A    between atoms: C_18  and  C_35
   12  A    between atoms: C_22  and  CA_50
   13  A    between atoms: C_25  and  CA_50
   14  A    between atoms: N_26  and  C_28
   15  A    between atoms: C_30  and  C_37
   16  A    between atoms: C_30  and  O_48
   17  A    between atoms: C_33  and  O_48
   18  A    between atoms: O_38  and  C_39
   19  A    between atoms: O_38  and  C_42
   20  A    between atoms: N_47  and  CA_50
                            x       y       z     vdW  Elec       q    Type
                         _______ _______ _______ _____ _____    ______ ____

>  <TORSDO>
F 20

$$$$
=
 OpenBabel11042419483D

 50 53  0  0  1  0  0  0  0  0999 V2000
  189.6020  173.2110  141.5470 C   0  0  1  0  0  3  0  0  0  0  0  0
  188.2390  173.8860  141.3770 C   0  0  0  0  0  2  0  0  0  0  0  0
  188.3970  175.3420  140.9570 C   0  0  0  0  0  2  0  0  0  0  0  0
  187.4130  176.1740  141.6350 N   0  0  0  0  0  2  0  0  0  0  0  0
  188.7300  178.1030  141.6240 O   0  0  0  0  0  0  0  0  0  0  0  0
  187.6220  177.5660  141.8880 C   0  0  0  0  0  0  0  0  0  0  0  0
  186.5050  178.4080  142.4270 C   0  0  2  0  0  3  0  0  0  0  0  0
  185.8620  179.2220  144.7370 C   0  0  0  0  0  0  0  0  0  0  0  0
  185.7820  178.9660  146.1980 C   0  0  0  0  0  1  0  0  0  0  0  0
  185.5070  180.3440  144.2820 O   0  0  0  0  0  0  0  0  0  0  0  0
  186.3410  178.1980  143.8620 N   0  0  0  0  0  2  0  0  0  0  0  0
  185.1050  178.3310  140.3500 O   0  0  0  0  0  0  0  0  0  0  0  0
  185.2260  178.1080  141.7160 C   0  0  0  0  0  0  0  0  0  0  0  0
  184.2510  177.6430  142.3570 O   0  0  0  0  0  1  0  0  0  0  0  0
  190.5710  173.6590  140.5940 O   0  0  0  0  0  0  0  0  0  0  0  0
  191.8340  172.2670  139.1470 N   0  0  0  0  0  0  0  0  0  0  0  0
  193.0530  169.8720  138.8340 S   0  0  0  0  0  0  0  0  0  0  0  0
  192.9470  172.9670  141.0910 C   0  0  0  0  0  2  0  0  0  0  0  0
  191.7330  172.9680  140.2310 C   0  0  0  0  0  0  0  0  0  0  0  0
  194.8950  171.3990  140.7960 C   0  0  0  0  0  0  0  0  0  0  0  0
  193.1560  171.6790  139.0280 C   0  0  2  0  0  3  0  0  0  0  0  0
  195.5150  170.3270  139.9870 C   0  0  0  0  0  3  0  0  0  0  0  0
  194.8310  169.6550  139.0520 C   0  0  0  0  0  3  0  0  0  0  0  0
  193.7890  172.0020  140.3380 C   0  0  0  0  0  0  0  0  0  0  0  0
  194.4950  170.2040  143.4570 O   0  0  0  0  0  0  0  0  0  0  0  0
  195.4570  171.8200  142.0490 N   0  0  0  0  0  2  0  0  0  0  0  0
  195.2450  171.2110  143.3320 C   0  0  0  0  0  0  0  0  0  0  0  0
  196.8710  171.1540  145.0440 O   0  0  0  0  0  0  0  0  0  0  0  0
  195.9060  171.7710  144.5130 C   0  0  0  0  0  0  0  0  0  0  0  0
  195.4670  172.9880  145.0430 O   0  0  0  0  0  0  0  0  0  0  0  0
  196.2800  174.1560  145.0160 C   0  0  1  0  0  3  0  0  0  0  0  0
  196.0400  174.9140  143.7290 C   0  0  1  0  0  3  0  0  0  0  0  0
  195.4410  175.4310  145.0210 C   0  0  1  0  0  3  0  0  0  0  0  0
  197.2650  175.7320  143.3840 C   0  0  0  0  0  2  0  0  0  0  0  0
  196.8780  177.0190  142.9930 O   0  0  0  0  0  1  0  0  0  0  0  0
  194.0740  175.1460  145.0550 O   0  0  0  0  0  0  0  0  0  0  0  0
  193.4550  176.3090  144.5910 C   0  0  0  0  0  2  0  0  0  0  0  0
  192.6960  176.0110  143.4620 O   0  0  0  0  0  1  0  0  0  0  0  0
  190.1400  173.2010  142.9810 C   0  0  0  0  0  2  0  0  0  0  0  0
  189.0510  173.3490  144.0310 C   0  0  0  0  0  2  0  0  0  0  0  0
  189.4230  175.6970  144.5870 C   0  0  0  0  0  3  0  0  0  0  0  0
  189.4160  174.4240  144.9960 C   0  0  0  0  0  0  0  0  0  0  0  0
  190.1960  176.4620  146.8830 C   0  0  0  0  0  0  0  0  0  0  0  0
  189.7040  174.0400  146.4310 C   0  0  0  0  0  2  0  0  0  0  0  0
  189.7810  176.7820  145.5080 C   0  0  0  0  0  0  0  0  0  0  0  0
  190.1760  175.1860  147.2960 C   0  0  0  0  0  3  0  0  0  0  0  0
  189.7530  177.9750  145.1120 O   0  0  0  0  0  0  0  0  0  0  0  0
  190.6080  177.5020  147.7300 O   0  0  0  0  0  0  0  0  0  0  0  0
  191.3600  178.2710  149.8890 C   0  0  0  0  0  1  0  0  0  0  0  0
  191.6290  177.3520  148.7100 C   0  0  0  0  0  2  0  0  0  0  0  0
  1  2  1  1  0  0  0
  1 39  1  0  0  0  0
  3  2  1  0  0  0  0
  3  4  1  0  0  0  0
  4  6  1  0  0  0  0
  5  6  2  0  0  0  0
  6  7  1  0  0  0  0
  7 13  1  6  0  0  0
  7 11  1  0  0  0  0
  8  9  1  0  0  0  0
 10  8  2  0  0  0  0
 11  8  1  0  0  0  0
 12 13  2  0  0  0  0
 13 14  1  0  0  0  0
 15  1  1  0  0  0  0
 16 19  2  0  0  0  0
 17 23  1  0  0  0  0
 19 15  1  0  0  0  0
 19 18  1  0  0  0  0
 20 26  1  0  0  0  0
 21 17  1  1  0  0  0
 21 16  1  0  0  0  0
 21 24  1  0  0  0  0
 22 20  1  0  0  0  0
 23 22  2  0  0  0  0
 24 20  2  0  0  0  0
 24 18  1  0  0  0  0
 26 27  1  0  0  0  0
 27 25  2  0  0  0  0
 27 29  1  0  0  0  0
 29 30  1  0  0  0  0
 29 28  2  0  0  0  0
 31 33  1  0  0  0  0
 31 30  1  6  0  0  0
 32 34  1  1  0  0  0
 32 31  1  0  0  0  0
 32 33  1  0  0  0  0
 33 36  1  6  0  0  0
 35 34  1  0  0  0  0
 37 36  1  0  0  0  0
 38 37  1  0  0  0  0
 39 40  1  0  0  0  0
 40 42  1  0  0  0  0
 41 42  2  0  0  0  0
 41 45  1  0  0  0  0
 42 44  1  0  0  0  0
 43 46  2  0  0  0  0
 43 48  1  0  0  0  0
 44 46  1  0  0  0  0
 45 43  1  0  0  0  0
 47 45  2  0  0  0  0
 48 50  1  0  0  0  0
 50 49  1  0  0  0  0
M  END
>  <MODEL>
3

>  <REMARK>
 VINA RESULT:      -5.7      2.530      5.620
  Name = 
  20 active torsions:
  status: ('A' for Active; 'I' for Inactive)
    1  A    between atoms: C_2  and  C_7
    2  A    between atoms: C_2  and  O_8
    3  A    between atoms: C_2  and  C_35
    4  A    between atoms: N_3  and  C_18
    5  A    between atoms: O_4  and  C_9
    6  A    between atoms: O_4  and  C_40
    7  A    between atoms: C_6  and  C_7
    8  A    between atoms: C_6  and  C_15
    9  A    between atoms: O_8  and  C_23
   10  A    between atoms: C_11  and  C_36
   11  A    between atoms: C_18  and  C_35
   12  A    between atoms: C_22  and  CA_50
   13  A    between atoms: C_25  and  CA_50
   14  A    between atoms: N_26  and  C_28
   15  A    between atoms: C_30  and  C_37
   16  A    between atoms: C_30  and  O_48
   17  A    between atoms: C_33  and  O_48
   18  A    between atoms: O_38  and  C_39
   19  A    between atoms: O_38  and  C_42
   20  A    between atoms: N_47  and  CA_50
                            x       y       z     vdW  Elec       q    Type
                         _______ _______ _______ _____ _____    ______ ____

>  <TORSDO>
F 20

$$$$
=
 OpenBabel11042419483D

 50 53  0  0  1  0  0  0  0  0999 V2000
  188.9200  174.0620  141.2460 C   0  0  1  0  0  3  0  0  0  0  0  0
  189.5190  173.9180  139.8440 C   0  0  0  0  0  2  0  0  0  0  0  0
  189.1830  172.5600  139.2410 C   0  0  0  0  0  2  0  0  0  0  0  0
  190.3520  171.9970  138.5800 N   0  0  0  0  0  2  0  0  0  0  0  0
  189.4300  169.8690  138.3060 O   0  0  0  0  0  0  0  0  0  0  0  0
  190.3880  170.6560  138.0850 C   0  0  0  0  0  0  0  0  0  0  0  0
  191.5480  170.1910  137.2580 C   0  0  2  0  0  3  0  0  0  0  0  0
  193.8900  170.6910  138.0790 C   0  0  0  0  0  0  0  0  0  0  0  0
  194.9910  171.6720  138.2610 C   0  0  0  0  0  1  0  0  0  0  0  0
  194.0270  169.5150  138.5170 O   0  0  0  0  0  0  0  0  0  0  0  0
  192.6900  171.0870  137.4120 N   0  0  0  0  0  2  0  0  0  0  0  0
  191.5500  168.9990  135.0540 O   0  0  0  0  0  0  0  0  0  0  0  0
  191.1640  170.0920  135.8180 C   0  0  0  0  0  0  0  0  0  0  0  0
  190.4790  171.0050  135.2920 O   0  0  0  0  0  1  0  0  0  0  0  0
  188.0420  175.1850  141.3670 O   0  0  0  0  0  0  0  0  0  0  0  0
  186.3020  176.0390  142.7350 N   0  0  0  0  0  0  0  0  0  0  0  0
  185.3420  178.1910  144.0630 S   0  0  0  0  0  0  0  0  0  0  0  0
  188.4140  175.9210  143.7530 C   0  0  0  0  0  2  0  0  0  0  0  0
  187.5410  175.6990  142.5690 C   0  0  0  0  0  0  0  0  0  0  0  0
  187.7500  177.2680  145.7730 C   0  0  0  0  0  0  0  0  0  0  0  0
  186.0720  176.5230  144.0830 C   0  0  2  0  0  3  0  0  0  0  0  0
  186.6860  178.0290  146.4650 C   0  0  0  0  0  3  0  0  0  0  0  0
  185.5640  178.4100  145.8400 C   0  0  0  0  0  3  0  0  0  0  0  0
  187.4450  176.5900  144.6590 C   0  0  0  0  0  0  0  0  0  0  0  0
  189.0400  175.1310  147.3350 O   0  0  0  0  0  0  0  0  0  0  0  0
  189.0960  177.2270  146.2750 N   0  0  0  0  0  2  0  0  0  0  0  0
  189.6960  176.1650  147.0320 C   0  0  0  0  0  0  0  0  0  0  0  0
  191.3740  176.9480  148.4990 O   0  0  0  0  0  0  0  0  0  0  0  0
  191.0920  176.2860  147.4620 C   0  0  0  0  0  0  0  0  0  0  0  0
  192.1020  175.6630  146.7230 O   0  0  0  0  0  0  0  0  0  0  0  0
  192.0560  175.5860  145.3020 C   0  0  1  0  0  3  0  0  0  0  0  0
  192.5210  176.8960  144.7060 C   0  0  1  0  0  3  0  0  0  0  0  0
  193.4470  175.6970  144.6830 C   0  0  1  0  0  3  0  0  0  0  0  0
  191.9060  177.0780  143.3360 C   0  0  0  0  0  2  0  0  0  0  0  0
  191.1350  178.2470  143.3170 O   0  0  0  0  0  1  0  0  0  0  0  0
  194.4350  175.8450  145.6610 O   0  0  0  0  0  0  0  0  0  0  0  0
  195.6150  175.4290  145.0410 C   0  0  0  0  0  2  0  0  0  0  0  0
  195.9330  176.3110  144.0120 O   0  0  0  0  0  1  0  0  0  0  0  0
  188.3230  172.7760  141.8250 C   0  0  0  0  0  2  0  0  0  0  0  0
  189.0230  172.3050  143.0900 C   0  0  0  0  0  2  0  0  0  0  0  0
  191.4520  172.4100  143.3120 C   0  0  0  0  0  3  0  0  0  0  0  0
  190.3890  171.8110  142.7630 C   0  0  0  0  0  0  0  0  0  0  0  0
  193.0180  170.8620  142.0450 C   0  0  0  0  0  0  0  0  0  0  0  0
  190.5250  170.6010  141.8660 C   0  0  0  0  0  2  0  0  0  0  0  0
  192.8130  171.9530  143.0100 C   0  0  0  0  0  0  0  0  0  0  0  0
  191.9520  170.2540  141.5040 C   0  0  0  0  0  3  0  0  0  0  0  0
  193.7970  172.5110  143.5600 O   0  0  0  0  0  0  0  0  0  0  0  0
  194.3270  170.4860  141.7090 O   0  0  0  0  0  0  0  0  0  0  0  0
  194.7610  168.9180  143.4890 C   0  0  0  0  0  1  0  0  0  0  0  0
  194.8700  169.2030  142.0020 C   0  0  0  0  0  2  0  0  0  0  0  0
  1  2  1  6  0  0  0
  1 15  1  0  0  0  0
  1 39  1  0  0  0  0
  3  2  1  0  0  0  0
  4  3  1  0  0  0  0
  6  5  2  0  0  0  0
  6  4  1  0  0  0  0
  7 13  1  6  0  0  0
  7 11  1  0  0  0  0
  7  6  1  0  0  0  0
  8  9  1  0  0  0  0
  8 10  2  0  0  0  0
 11  8  1  0  0  0  0
 12 13  2  0  0  0  0
 14 13  1  0  0  0  0
 15 19  1  0  0  0  0
 17 21  1  0  0  0  0
 17 23  1  0  0  0  0
 18 24  1  0  0  0  0
 19 16  2  0  0  0  0
 19 18  1  0  0  0  0
 20 26  1  0  0  0  0
 20 22  1  0  0  0  0
 21 16  1  6  0  0  0
 21 24  1  0  0  0  0
 23 22  2  0  0  0  0
 24 20  2  0  0  0  0
 26 27  1  0  0  0  0
 27 25  2  0  0  0  0
 27 29  1  0  0  0  0
 29 28  2  0  0  0  0
 30 29  1  0  0  0  0
 31 30  1  1  0  0  0
 32 34  1  6  0  0  0
 32 31  1  0  0  0  0
 33 32  1  0  0  0  0
 33 31  1  0  0  0  0
 33 36  1  1  0  0  0
 35 34  1  0  0  0  0
 37 36  1  0  0  0  0
 38 37  1  0  0  0  0
 39 40  1  0  0  0  0
 42 40  1  0  0  0  0
 42 41  2  0  0  0  0
 43 45  1  0  0  0  0
 44 42  1  0  0  0  0
 45 41  1  0  0  0  0
 45 47  2  0  0  0  0
 46 44  1  0  0  0  0
 46 43  2  0  0  0  0
 48 50  1  0  0  0  0
 48 43  1  0  0  0  0
 50 49  1  0  0  0  0
M  END
>  <MODEL>
4

>  <REMARK>
 VINA RESULT:      -5.6      3.621      8.974
  Name = 
  20 active torsions:
  status: ('A' for Active; 'I' for Inactive)
    1  A    between atoms: C_2  and  C_7
    2  A    between atoms: C_2  and  O_8
    3  A    between atoms: C_2  and  C_35
    4  A    between atoms: N_3  and  C_18
    5  A    between atoms: O_4  and  C_9
    6  A    between atoms: O_4  and  C_40
    7  A    between atoms: C_6  and  C_7
    8  A    between atoms: C_6  and  C_15
    9  A    between atoms: O_8  and  C_23
   10  A    between atoms: C_11  and  C_36
   11  A    between atoms: C_18  and  C_35
   12  A    between atoms: C_22  and  CA_50
   13  A    between atoms: C_25  and  CA_50
   14  A    between atoms: N_26  and  C_28
   15  A    between atoms: C_30  and  C_37
   16  A    between atoms: C_30  and  O_48
   17  A    between atoms: C_33  and  O_48
   18  A    between atoms: O_38  and  C_39
   19  A    between atoms: O_38  and  C_42
   20  A    between atoms: N_47  and  CA_50
                            x       y       z     vdW  Elec       q    Type
                         _______ _______ _______ _____ _____    ______ ____

>  <TORSDO>
F 20

$$$$
=
 OpenBabel11042419483D

 50 53  0  0  1  0  0  0  0  0999 V2000
  190.5110  173.0230  140.9810 C   0  0  1  0  0  3  0  0  0  0  0  0
  190.1440  171.5420  141.1090 C   0  0  0  0  0  2  0  0  0  0  0  0
  190.5030  171.0070  142.4890 C   0  0  0  0  0  2  0  0  0  0  0  0
  191.6890  170.1660  142.4130 N   0  0  0  0  0  2  0  0  0  0  0  0
  193.1970  171.8920  142.8620 O   0  0  0  0  0  0  0  0  0  0  0  0
  193.0060  170.6630  142.6670 C   0  0  0  0  0  0  0  0  0  0  0  0
  194.1640  169.7150  142.7480 C   0  0  2  0  0  3  0  0  0  0  0  0
  195.0770  169.8360  145.1070 C   0  0  0  0  0  0  0  0  0  0  0  0
  196.0730  170.3960  146.0580 C   0  0  0  0  0  1  0  0  0  0  0  0
  194.1770  169.0630  145.5340 O   0  0  0  0  0  0  0  0  0  0  0  0
  195.1480  170.1800  143.7210 N   0  0  0  0  0  2  0  0  0  0  0  0
  194.1810  170.0160  140.2610 O   0  0  0  0  0  0  0  0  0  0  0  0
  194.8050  169.5480  141.4100 C   0  0  0  0  0  0  0  0  0  0  0  0
  195.9250  168.9840  141.3220 O   0  0  0  0  0  1  0  0  0  0  0  0
  191.4630  173.2750  139.9440 O   0  0  0  0  0  0  0  0  0  0  0  0
  193.7740  173.4420  139.4360 N   0  0  0  0  0  0  0  0  0  0  0  0
  196.3010  173.0450  140.3170 S   0  0  0  0  0  0  0  0  0  0  0  0
  193.0230  174.8370  141.1680 C   0  0  0  0  0  2  0  0  0  0  0  0
  192.7430  173.8100  140.1280 C   0  0  0  0  0  0  0  0  0  0  0  0
  195.3310  175.5110  141.9130 C   0  0  0  0  0  0  0  0  0  0  0  0
  194.9600  174.1770  139.8370 C   0  0  2  0  0  3  0  0  0  0  0  0
  196.7910  175.3650  141.7220 C   0  0  0  0  0  3  0  0  0  0  0  0
  197.3160  174.3790  140.9830 C   0  0  0  0  0  3  0  0  0  0  0  0
  194.5000  174.9360  141.0340 C   0  0  0  0  0  0  0  0  0  0  0  0
  194.8380  174.6090  144.6730 O   0  0  0  0  0  0  0  0  0  0  0  0
  194.7860  176.2650  143.0080 N   0  0  0  0  0  2  0  0  0  0  0  0
  194.5620  175.7960  144.3460 C   0  0  0  0  0  0  0  0  0  0  0  0
  194.7460  177.2080  146.2300 O   0  0  0  0  0  0  0  0  0  0  0  0
  193.9990  176.7080  145.3450 C   0  0  0  0  0  0  0  0  0  0  0  0
  192.6380  177.0250  145.3070 O   0  0  0  0  0  0  0  0  0  0  0  0
  191.6790  176.1520  144.7190 C   0  0  1  0  0  3  0  0  0  0  0  0
  191.3920  175.0030  145.6620 C   0  0  1  0  0  3  0  0  0  0  0  0
  190.3780  176.1190  145.5170 C   0  0  1  0  0  3  0  0  0  0  0  0
  190.9270  173.8000  144.8710 C   0  0  0  0  0  2  0  0  0  0  0  0
  189.6860  173.3690  145.3550 O   0  0  0  0  0  1  0  0  0  0  0  0
  190.4380  176.9590  146.6320 O   0  0  0  0  0  0  0  0  0  0  0  0
  189.1100  177.3110  146.8850 C   0  0  0  0  0  2  0  0  0  0  0  0
  188.2940  176.1970  146.7060 O   0  0  0  0  0  1  0  0  0  0  0  0
  189.3160  173.9800  140.9360 C   0  0  0  0  0  2  0  0  0  0  0  0
  189.5190  175.2330  141.7740 C   0  0  0  0  0  2  0  0  0  0  0  0
  187.6820  176.6840  141.0830 C   0  0  0  0  0  3  0  0  0  0  0  0
  188.2090  175.8950  142.0260 C   0  0  0  0  0  0  0  0  0  0  0  0
  185.7050  177.2130  142.5890 C   0  0  0  0  0  0  0  0  0  0  0  0
  187.4870  175.6000  143.3220 C   0  0  0  0  0  2  0  0  0  0  0  0
  186.3950  177.3560  141.2980 C   0  0  0  0  0  0  0  0  0  0  0  0
  186.2280  176.4110  143.5290 C   0  0  0  0  0  3  0  0  0  0  0  0
  185.9020  178.0700  140.3870 O   0  0  0  0  0  0  0  0  0  0  0  0
  184.5140  177.9210  142.8070 O   0  0  0  0  0  0  0  0  0  0  0  0
  185.2260  179.8250  144.1040 C   0  0  0  0  0  1  0  0  0  0  0  0
  184.2550  178.6640  143.9940 C   0  0  0  0  0  2  0  0  0  0  0  0
  1 39  1  6  0  0  0
  1  2  1  0  0  0  0
  2  3  1  0  0  0  0
  4  3  1  0  0  0  0
  4  6  1  0  0  0  0
  6  7  1  0  0  0  0
  6  5  2  0  0  0  0
  7 13  1  6  0  0  0
  7 11  1  0  0  0  0
  8 10  2  0  0  0  0
  8  9  1  0  0  0  0
 11  8  1  0  0  0  0
 12 13  2  0  0  0  0
 14 13  1  0  0  0  0
 15 19  1  0  0  0  0
 15  1  1  0  0  0  0
 16 19  2  0  0  0  0
 17 23  1  0  0  0  0
 19 18  1  0  0  0  0
 20 26  1  0  0  0  0
 21 16  1  1  0  0  0
 21 17  1  0  0  0  0
 21 24  1  0  0  0  0
 22 20  1  0  0  0  0
 23 22  2  0  0  0  0
 24 18  1  0  0  0  0
 24 20  2  0  0  0  0
 26 27  1  0  0  0  0
 27 25  2  0  0  0  0
 27 29  1  0  0  0  0
 29 28  2  0  0  0  0
 30 29  1  0  0  0  0
 31 30  1  1  0  0  0
 31 33  1  0  0  0  0
 31 32  1  0  0  0  0
 32 34  1  6  0  0  0
 33 32  1  0  0  0  0
 33 36  1  1  0  0  0
 34 35  1  0  0  0  0
 36 37  1  0  0  0  0
 38 37  1  0  0  0  0
 39 40  1  0  0  0  0
 40 42  1  0  0  0  0
 41 45  1  0  0  0  0
 41 42  2  0  0  0  0
 42 44  1  0  0  0  0
 43 48  1  0  0  0  0
 43 46  2  0  0  0  0
 44 46  1  0  0  0  0
 45 43  1  0  0  0  0
 47 45  2  0  0  0  0
 48 50  1  0  0  0  0
 50 49  1  0  0  0  0
M  END
>  <MODEL>
5

>  <REMARK>
 VINA RESULT:      -5.6      1.978      5.522
  Name = 
  20 active torsions:
  status: ('A' for Active; 'I' for Inactive)
    1  A    between atoms: C_2  and  C_7
    2  A    between atoms: C_2  and  O_8
    3  A    between atoms: C_2  and  C_35
    4  A    between atoms: N_3  and  C_18
    5  A    between atoms: O_4  and  C_9
    6  A    between atoms: O_4  and  C_40
    7  A    between atoms: C_6  and  C_7
    8  A    between atoms: C_6  and  C_15
    9  A    between atoms: O_8  and  C_23
   10  A    between atoms: C_11  and  C_36
   11  A    between atoms: C_18  and  C_35
   12  A    between atoms: C_22  and  CA_50
   13  A    between atoms: C_25  and  CA_50
   14  A    between atoms: N_26  and  C_28
   15  A    between atoms: C_30  and  C_37
   16  A    between atoms: C_30  and  O_48
   17  A    between atoms: C_33  and  O_48
   18  A    between atoms: O_38  and  C_39
   19  A    between atoms: O_38  and  C_42
   20  A    between atoms: N_47  and  CA_50
                            x       y       z     vdW  Elec       q    Type
                         _______ _______ _______ _____ _____    ______ ____

>  <TORSDO>
F 20

$$$$
=
 OpenBabel11042419483D

 50 53  0  0  1  0  0  0  0  0999 V2000
  189.9060  176.3170  142.6650 C   0  0  1  0  0  3  0  0  0  0  0  0
  188.7620  175.3180  142.4740 C   0  0  0  0  0  2  0  0  0  0  0  0
  188.3050  175.2800  141.0210 C   0  0  0  0  0  2  0  0  0  0  0  0
  188.9650  174.1920  140.3120 N   0  0  0  0  0  2  0  0  0  0  0  0
  187.8100  174.5210  138.3080 O   0  0  0  0  0  0  0  0  0  0  0  0
  188.7110  173.9020  138.9350 C   0  0  0  0  0  0  0  0  0  0  0  0
  189.5470  172.8890  138.2130 C   0  0  2  0  0  3  0  0  0  0  0  0
  191.0620  171.3910  139.5800 C   0  0  0  0  0  0  0  0  0  0  0  0
  192.3210  171.2200  140.3510 C   0  0  0  0  0  1  0  0  0  0  0  0
  190.2430  170.4350  139.5070 O   0  0  0  0  0  0  0  0  0  0  0  0
  190.7920  172.6350  138.9310 N   0  0  0  0  0  2  0  0  0  0  0  0
  190.4880  174.5500  136.5900 O   0  0  0  0  0  1  0  0  0  0  0  0
  189.8410  173.3430  136.8210 C   0  0  0  0  0  0  0  0  0  0  0  0
  189.5070  172.6220  135.8470 O   0  0  0  0  0  0  0  0  0  0  0  0
  189.4510  177.6270  143.0180 O   0  0  0  0  0  0  0  0  0  0  0  0
  188.5080  177.7590  145.1910 N   0  0  0  0  0  0  0  0  0  0  0  0
  186.6370  176.7910  146.8890 S   0  0  0  0  0  0  0  0  0  0  0  0
  187.0830  178.3950  143.4380 C   0  0  0  0  0  2  0  0  0  0  0  0
  188.4090  177.9130  143.9090 C   0  0  0  0  0  0  0  0  0  0  0  0
  185.0120  178.4770  144.8670 C   0  0  0  0  0  0  0  0  0  0  0  0
  187.2790  178.1470  145.8590 C   0  0  2  0  0  3  0  0  0  0  0  0
  184.4190  178.2800  146.2080 C   0  0  0  0  0  3  0  0  0  0  0  0
  185.0690  177.6330  147.1850 C   0  0  0  0  0  3  0  0  0  0  0  0
  186.3420  178.3940  144.7260 C   0  0  0  0  0  0  0  0  0  0  0  0
  184.8440  176.9870  142.3330 O   0  0  0  0  0  0  0  0  0  0  0  0
  184.2000  178.7710  143.7190 N   0  0  0  0  0  2  0  0  0  0  0  0
  184.1380  178.0200  142.4970 C   0  0  0  0  0  0  0  0  0  0  0  0
  183.6580  178.4850  140.2320 O   0  0  0  0  0  0  0  0  0  0  0  0
  183.2440  178.4630  141.4240 C   0  0  0  0  0  0  0  0  0  0  0  0
  181.9360  178.8510  141.7270 O   0  0  0  0  0  0  0  0  0  0  0  0
  180.8070  178.2170  141.1340 C   0  0  1  0  0  3  0  0  0  0  0  0
  179.5490  178.6240  141.8710 C   0  0  1  0  0  3  0  0  0  0  0  0
  179.8480  179.2300  140.5140 C   0  0  1  0  0  3  0  0  0  0  0  0
  178.4990  177.5470  141.7160 C   0  0  0  0  0  2  0  0  0  0  0  0
  178.4210  176.7920  142.8930 O   0  0  0  0  0  1  0  0  0  0  0  0
  180.3100  180.5390  140.6740 O   0  0  0  0  0  0  0  0  0  0  0  0
  179.5650  181.2930  139.7640 C   0  0  0  0  0  2  0  0  0  0  0  0
  178.2080  181.1400  140.0370 O   0  0  0  0  0  1  0  0  0  0  0  0
  191.0480  175.8240  143.5580 C   0  0  0  0  0  2  0  0  0  0  0  0
  192.1850  176.8260  143.6860 C   0  0  0  0  0  2  0  0  0  0  0  0
  194.5490  176.2210  143.6340 C   0  0  0  0  0  3  0  0  0  0  0  0
  193.3800  176.1680  144.2830 C   0  0  0  0  0  0  0  0  0  0  0  0
  195.6510  174.8190  145.4450 C   0  0  0  0  0  0  0  0  0  0  0  0
  193.2440  175.5150  145.6400 C   0  0  0  0  0  2  0  0  0  0  0  0
  195.7470  175.5810  144.1900 C   0  0  0  0  0  0  0  0  0  0  0  0
  194.4810  174.7780  146.1000 C   0  0  0  0  0  3  0  0  0  0  0  0
  196.8440  175.6680  143.5800 O   0  0  0  0  0  0  0  0  0  0  0  0
  196.7860  174.1500  145.9250 O   0  0  0  0  0  0  0  0  0  0  0  0
  196.7170  172.0120  144.8120 C   0  0  0  0  0  1  0  0  0  0  0  0
  196.8310  172.7430  146.1380 C   0  0  0  0  0  2  0  0  0  0  0  0
  1  2  1  1  0  0  0
  1 15  1  0  0  0  0
  1 39  1  0  0  0  0
  3  2  1  0  0  0  0
  4  3  1  0  0  0  0
  5  6  2  0  0  0  0
  6  4  1  0  0  0  0
  7 13  1  6  0  0  0
  7 11  1  0  0  0  0
  7  6  1  0  0  0  0
  8  9  1  0  0  0  0
 10  8  2  0  0  0  0
 11  8  1  0  0  0  0
 12 13  1  0  0  0  0
 14 13  2  0  0  0  0
 15 19  1  0  0  0  0
 16 21  1  0  0  0  0
 17 23  1  0  0  0  0
 18 19  1  0  0  0  0
 18 24  1  0  0  0  0
 19 16  2  0  0  0  0
 20 22  1  0  0  0  0
 21 24  1  6  0  0  0
 21 17  1  0  0  0  0
 22 23  2  0  0  0  0
 24 20  2  0  0  0  0
 25 27  2  0  0  0  0
 26 20  1  0  0  0  0
 27 26  1  0  0  0  0
 28 29  2  0  0  0  0
 29 30  1  0  0  0  0
 29 27  1  0  0  0  0
 31 30  1  1  0  0  0
 31 32  1  0  0  0  0
 32 34  1  6  0  0  0
 33 36  1  1  0  0  0
 33 31  1  0  0  0  0
 33 32  1  0  0  0  0
 34 35  1  0  0  0  0
 37 38  1  0  0  0  0
 37 36  1  0  0  0  0
 39 40  1  0  0  0  0
 40 42  1  0  0  0  0
 41 45  1  0  0  0  0
 41 42  2  0  0  0  0
 42 44  1  0  0  0  0
 43 48  1  0  0  0  0
 43 46  2  0  0  0  0
 44 46  1  0  0  0  0
 45 43  1  0  0  0  0
 47 45  2  0  0  0  0
 48 50  1  0  0  0  0
 49 50  1  0  0  0  0
M  END
>  <MODEL>
6

>  <REMARK>
 VINA RESULT:      -5.6      3.973     12.205
  Name = 
  20 active torsions:
  status: ('A' for Active; 'I' for Inactive)
    1  A    between atoms: C_2  and  C_7
    2  A    between atoms: C_2  and  O_8
    3  A    between atoms: C_2  and  C_35
    4  A    between atoms: N_3  and  C_18
    5  A    between atoms: O_4  and  C_9
    6  A    between atoms: O_4  and  C_40
    7  A    between atoms: C_6  and  C_7
    8  A    between atoms: C_6  and  C_15
    9  A    between atoms: O_8  and  C_23
   10  A    between atoms: C_11  and  C_36
   11  A    between atoms: C_18  and  C_35
   12  A    between atoms: C_22  and  CA_50
   13  A    between atoms: C_25  and  CA_50
   14  A    between atoms: N_26  and  C_28
   15  A    between atoms: C_30  and  C_37
   16  A    between atoms: C_30  and  O_48
   17  A    between atoms: C_33  and  O_48
   18  A    between atoms: O_38  and  C_39
   19  A    between atoms: O_38  and  C_42
   20  A    between atoms: N_47  and  CA_50
                            x       y       z     vdW  Elec       q    Type
                         _______ _______ _______ _____ _____    ______ ____

>  <TORSDO>
F 20

$$$$
=
 OpenBabel11042419483D

 50 53  0  0  1  0  0  0  0  0999 V2000
  189.0510  176.2700  144.3970 C   0  0  1  0  0  3  0  0  0  0  0  0
  189.1860  177.6240  143.6950 C   0  0  0  0  0  2  0  0  0  0  0  0
  188.5330  177.5960  142.3190 C   0  0  0  0  0  2  0  0  0  0  0  0
  187.2790  178.3350  142.3390 N   0  0  0  0  0  2  0  0  0  0  0  0
  185.9370  176.4580  142.7030 O   0  0  0  0  0  0  0  0  0  0  0  0
  186.0180  177.7100  142.5930 C   0  0  0  0  0  0  0  0  0  0  0  0
  184.7880  178.5470  142.7770 C   0  0  2  0  0  3  0  0  0  0  0  0
  184.7470  178.7290  145.3020 C   0  0  0  0  0  0  0  0  0  0  0  0
  184.1010  178.3710  146.5920 C   0  0  0  0  0  1  0  0  0  0  0  0
  185.8010  179.4220  145.3050 O   0  0  0  0  0  0  0  0  0  0  0  0
  184.1690  178.2840  144.0730 N   0  0  0  0  0  2  0  0  0  0  0  0
  184.2410  178.0600  140.3810 O   0  0  0  0  0  0  0  0  0  0  0  0
  183.8070  178.2930  141.6790 C   0  0  0  0  0  0  0  0  0  0  0  0
  182.5770  178.2830  141.9340 O   0  0  0  0  0  1  0  0  0  0  0  0
  188.5100  175.2530  143.5490 O   0  0  0  0  0  0  0  0  0  0  0  0
  188.5080  174.6600  141.2520 N   0  0  0  0  0  0  0  0  0  0  0  0
  188.6600  172.6440  139.4540 S   0  0  0  0  0  0  0  0  0  0  0  0
  190.5190  174.2540  142.3930 C   0  0  0  0  0  2  0  0  0  0  0  0
  189.1170  174.7510  142.3920 C   0  0  0  0  0  0  0  0  0  0  0  0
  191.5480  172.9030  140.5330 C   0  0  0  0  0  0  0  0  0  0  0  0
  189.3890  174.1190  140.2330 C   0  0  2  0  0  3  0  0  0  0  0  0
  191.3840  172.3200  139.1830 C   0  0  0  0  0  3  0  0  0  0  0  0
  190.1880  172.2320  138.5870 C   0  0  0  0  0  3  0  0  0  0  0  0
  190.5990  173.7230  141.0070 C   0  0  0  0  0  0  0  0  0  0  0  0
  192.1570  170.4530  142.0490 O   0  0  0  0  0  0  0  0  0  0  0  0
  192.7030  172.6250  141.3400 N   0  0  0  0  0  2  0  0  0  0  0  0
  192.9730  171.4150  142.0640 C   0  0  0  0  0  0  0  0  0  0  0  0
  194.4240  170.2680  143.5340 O   0  0  0  0  0  0  0  0  0  0  0  0
  194.2130  171.2980  142.8370 C   0  0  0  0  0  0  0  0  0  0  0  0
  195.1570  172.3280  142.7920 O   0  0  0  0  0  0  0  0  0  0  0  0
  196.4050  172.1740  142.1230 C   0  0  1  0  0  3  0  0  0  0  0  0
  196.2250  172.4380  140.6440 C   0  0  1  0  0  3  0  0  0  0  0  0
  196.8870  173.4880  141.5130 C   0  0  1  0  0  3  0  0  0  0  0  0
  197.2870  171.6950  139.8620 C   0  0  0  0  0  2  0  0  0  0  0  0
  196.6850  170.9520  138.8390 O   0  0  0  0  0  1  0  0  0  0  0  0
  195.9890  174.5300  141.7610 O   0  0  0  0  0  0  0  0  0  0  0  0
  196.1610  175.4120  140.6920 C   0  0  0  0  0  2  0  0  0  0  0  0
  195.4090  176.5620  140.9150 O   0  0  0  0  0  1  0  0  0  0  0  0
  190.3010  175.8110  145.1530 C   0  0  0  0  0  2  0  0  0  0  0  0
  191.3990  176.8620  145.1930 C   0  0  0  0  0  2  0  0  0  0  0  0
  193.7800  176.8240  144.6540 C   0  0  0  0  0  3  0  0  0  0  0  0
  192.7350  176.2040  145.2140 C   0  0  0  0  0  0  0  0  0  0  0  0
  195.2880  174.8590  145.2180 C   0  0  0  0  0  0  0  0  0  0  0  0
  192.8770  174.8790  145.9290 C   0  0  0  0  0  2  0  0  0  0  0  0
  195.1100  176.2050  144.6520 C   0  0  0  0  0  0  0  0  0  0  0  0
  194.2420  174.2430  145.7910 C   0  0  0  0  0  3  0  0  0  0  0  0
  196.0850  176.8180  144.1470 O   0  0  0  0  0  0  0  0  0  0  0  0
  196.5480  174.2480  145.1430 O   0  0  0  0  0  0  0  0  0  0  0  0
  196.9280  171.9560  145.7890 C   0  0  0  0  0  1  0  0  0  0  0  0
  197.0760  173.4170  146.1710 C   0  0  0  0  0  2  0  0  0  0  0  0
  1  2  1  6  0  0  0
  1 39  1  0  0  0  0
  3  4  1  0  0  0  0
  3  2  1  0  0  0  0
  4  6  1  0  0  0  0
  6  5  2  0  0  0  0
  6  7  1  0  0  0  0
  7 13  1  6  0  0  0
  7 11  1  0  0  0  0
  8 10  2  0  0  0  0
  8  9  1  0  0  0  0
 11  8  1  0  0  0  0
 12 13  2  0  0  0  0
 13 14  1  0  0  0  0
 15  1  1  0  0  0  0
 16 19  2  0  0  0  0
 19 18  1  0  0  0  0
 19 15  1  0  0  0  0
 20 24  2  0  0  0  0
 20 26  1  0  0  0  0
 21 17  1  1  0  0  0
 21 24  1  0  0  0  0
 21 16  1  0  0  0  0
 22 20  1  0  0  0  0
 23 22  2  0  0  0  0
 23 17  1  0  0  0  0
 24 18  1  0  0  0  0
 25 27  2  0  0  0  0
 26 27  1  0  0  0  0
 27 29  1  0  0  0  0
 29 28  2  0  0  0  0
 30 29  1  0  0  0  0
 31 30  1  1  0  0  0
 32 34  1  6  0  0  0
 32 33  1  0  0  0  0
 32 31  1  0  0  0  0
 33 36  1  1  0  0  0
 33 31  1  0  0  0  0
 35 34  1  0  0  0  0
 37 38  1  0  0  0  0
 37 36  1  0  0  0  0
 39 40  1  0  0  0  0
 40 42  1  0  0  0  0
 41 42  2  0  0  0  0
 42 44  1  0  0  0  0
 43 46  2  0  0  0  0
 45 41  1  0  0  0  0
 45 43  1  0  0  0  0
 46 44  1  0  0  0  0
 47 45  2  0  0  0  0
 48 43  1  0  0  0  0
 48 50  1  0  0  0  0
 49 50  1  0  0  0  0
M  END
>  <MODEL>
7

>  <REMARK>
 VINA RESULT:      -5.6      2.785      7.387
  Name = 
  20 active torsions:
  status: ('A' for Active; 'I' for Inactive)
    1  A    between atoms: C_2  and  C_7
    2  A    between atoms: C_2  and  O_8
    3  A    between atoms: C_2  and  C_35
    4  A    between atoms: N_3  and  C_18
    5  A    between atoms: O_4  and  C_9
    6  A    between atoms: O_4  and  C_40
    7  A    between atoms: C_6  and  C_7
    8  A    between atoms: C_6  and  C_15
    9  A    between atoms: O_8  and  C_23
   10  A    between atoms: C_11  and  C_36
   11  A    between atoms: C_18  and  C_35
   12  A    between atoms: C_22  and  CA_50
   13  A    between atoms: C_25  and  CA_50
   14  A    between atoms: N_26  and  C_28
   15  A    between atoms: C_30  and  C_37
   16  A    between atoms: C_30  and  O_48
   17  A    between atoms: C_33  and  O_48
   18  A    between atoms: O_38  and  C_39
   19  A    between atoms: O_38  and  C_42
   20  A    between atoms: N_47  and  CA_50
                            x       y       z     vdW  Elec       q    Type
                         _______ _______ _______ _____ _____    ______ ____

>  <TORSDO>
F 20

$$$$
=
 OpenBabel11042419483D

 50 53  0  0  1  0  0  0  0  0999 V2000
  189.9350  173.1150  141.6260 C   0  0  1  0  0  3  0  0  0  0  0  0
  190.3220  172.3480  142.8930 C   0  0  0  0  0  2  0  0  0  0  0  0
  189.4800  172.7940  144.0820 C   0  0  0  0  0  2  0  0  0  0  0  0
  189.8510  174.1430  144.4870 N   0  0  0  0  0  2  0  0  0  0  0  0
  189.3090  173.8380  146.7390 O   0  0  0  0  0  0  0  0  0  0  0  0
  189.7940  174.5830  145.8470 C   0  0  0  0  0  0  0  0  0  0  0  0
  190.3560  175.9200  146.2280 C   0  0  2  0  0  3  0  0  0  0  0  0
  189.8160  177.6580  144.4680 C   0  0  0  0  0  0  0  0  0  0  0  0
  190.2050  178.3670  143.2210 C   0  0  0  0  0  1  0  0  0  0  0  0
  188.7060  177.9130  145.0080 O   0  0  0  0  0  0  0  0  0  0  0  0
  190.7040  176.6950  145.0420 N   0  0  0  0  0  2  0  0  0  0  0  0
  192.7230  175.1940  146.6130 O   0  0  0  0  0  0  0  0  0  0  0  0
  191.5530  175.7580  147.1060 C   0  0  0  0  0  0  0  0  0  0  0  0
  191.5060  176.1430  148.3010 O   0  0  0  0  0  1  0  0  0  0  0  0
  190.2790  172.4180  140.4240 O   0  0  0  0  0  0  0  0  0  0  0  0
  190.7830  172.7070  138.1240 N   0  0  0  0  0  0  0  0  0  0  0  0
  192.5510  172.2180  136.1350 S   0  0  0  0  0  0  0  0  0  0  0  0
  192.2370  173.7910  139.6150 C   0  0  0  0  0  2  0  0  0  0  0  0
  191.0410  172.9400  139.3720 C   0  0  0  0  0  0  0  0  0  0  0  0
  193.9430  174.3770  137.8590 C   0  0  0  0  0  0  0  0  0  0  0  0
  191.7300  173.3890  137.2610 C   0  0  2  0  0  3  0  0  0  0  0  0
  194.3420  174.2910  136.4370 C   0  0  0  0  0  3  0  0  0  0  0  0
  193.7510  173.4460  135.5830 C   0  0  0  0  0  3  0  0  0  0  0  0
  192.7300  173.9370  138.2210 C   0  0  0  0  0  0  0  0  0  0  0  0
  196.2910  173.1280  139.1230 O   0  0  0  0  0  0  0  0  0  0  0  0
  194.8140  174.9360  138.8550 N   0  0  0  0  0  2  0  0  0  0  0  0
  195.9560  174.3000  139.4490 C   0  0  0  0  0  0  0  0  0  0  0  0
  197.6400  175.8300  140.0860 O   0  0  0  0  0  0  0  0  0  0  0  0
  196.7420  175.0230  140.4530 C   0  0  0  0  0  0  0  0  0  0  0  0
  196.4880  174.8180  141.8120 O   0  0  0  0  0  0  0  0  0  0  0  0
  195.4150  175.4710  142.4830 C   0  0  1  0  0  3  0  0  0  0  0  0
  194.3350  174.4640  142.8150 C   0  0  1  0  0  3  0  0  0  0  0  0
  195.2490  174.9650  143.9140 C   0  0  1  0  0  3  0  0  0  0  0  0
  192.9990  175.1680  142.9170 C   0  0  0  0  0  2  0  0  0  0  0  0
  193.1860  176.4620  143.4180 O   0  0  0  0  0  1  0  0  0  0  0  0
  196.1950  173.9850  144.2250 O   0  0  0  0  0  0  0  0  0  0  0  0
  196.2110  173.9350  145.6210 C   0  0  0  0  0  2  0  0  0  0  0  0
  197.2200  173.0730  146.0420 O   0  0  0  0  0  1  0  0  0  0  0  0
  188.5010  173.6520  141.6110 C   0  0  0  0  0  2  0  0  0  0  0  0
  188.3420  174.9150  140.7800 C   0  0  0  0  0  2  0  0  0  0  0  0
  187.0350  175.6000  142.7250 C   0  0  0  0  0  3  0  0  0  0  0  0
  187.4680  175.8880  141.4920 C   0  0  0  0  0  0  0  0  0  0  0  0
  185.7230  177.7740  142.8050 C   0  0  0  0  0  0  0  0  0  0  0  0
  187.1530  177.2050  140.8190 C   0  0  0  0  0  2  0  0  0  0  0  0
  186.1700  176.5330  143.4560 C   0  0  0  0  0  0  0  0  0  0  0  0
  186.1680  178.0680  141.5740 C   0  0  0  0  0  3  0  0  0  0  0  0
  185.7980  176.2570  144.6250 O   0  0  0  0  0  0  0  0  0  0  0  0
  184.8360  178.6200  143.4860 O   0  0  0  0  0  0  0  0  0  0  0  0
  185.5590  179.4350  145.6380 C   0  0  0  0  0  1  0  0  0  0  0  0
  185.2550  179.7840  144.1930 C   0  0  0  0  0  2  0  0  0  0  0  0
  1 39  1  1  0  0  0
  1  2  1  0  0  0  0
  2  3  1  0  0  0  0
  3  4  1  0  0  0  0
  4  6  1  0  0  0  0
  6  7  1  0  0  0  0
  6  5  2  0  0  0  0
  7 11  1  6  0  0  0
  7 13  1  0  0  0  0
  8 10  2  0  0  0  0
  8 11  1  0  0  0  0
  9  8  1  0  0  0  0
 12 13  2  0  0  0  0
 13 14  1  0  0  0  0
 15  1  1  0  0  0  0
 16 19  2  0  0  0  0
 19 18  1  0  0  0  0
 19 15  1  0  0  0  0
 20 24  2  0  0  0  0
 20 26  1  0  0  0  0
 21 17  1  6  0  0  0
 21 16  1  0  0  0  0
 21 24  1  0  0  0  0
 22 20  1  0  0  0  0
 23 17  1  0  0  0  0
 23 22  2  0  0  0  0
 24 18  1  0  0  0  0
 25 27  2  0  0  0  0
 26 27  1  0  0  0  0
 27 29  1  0  0  0  0
 28 29  2  0  0  0  0
 29 30  1  0  0  0  0
 31 30  1  6  0  0  0
 31 32  1  0  0  0  0
 31 33  1  0  0  0  0
 32 34  1  1  0  0  0
 32 33  1  0  0  0  0
 33 36  1  6  0  0  0
 34 35  1  0  0  0  0
 36 37  1  0  0  0  0
 37 38  1  0  0  0  0
 40 42  1  0  0  0  0
 40 39  1  0  0  0  0
 41 45  1  0  0  0  0
 42 41  2  0  0  0  0
 43 45  1  0  0  0  0
 43 48  1  0  0  0  0
 44 42  1  0  0  0  0
 44 46  1  0  0  0  0
 45 47  2  0  0  0  0
 46 43  2  0  0  0  0
 48 50  1  0  0  0  0
 50 49  1  0  0  0  0
M  END
>  <MODEL>
8

>  <REMARK>
 VINA RESULT:      -5.5      2.506      4.125
  Name = 
  20 active torsions:
  status: ('A' for Active; 'I' for Inactive)
    1  A    between atoms: C_2  and  C_7
    2  A    between atoms: C_2  and  O_8
    3  A    between atoms: C_2  and  C_35
    4  A    between atoms: N_3  and  C_18
    5  A    between atoms: O_4  and  C_9
    6  A    between atoms: O_4  and  C_40
    7  A    between atoms: C_6  and  C_7
    8  A    between atoms: C_6  and  C_15
    9  A    between atoms: O_8  and  C_23
   10  A    between atoms: C_11  and  C_36
   11  A    between atoms: C_18  and  C_35
   12  A    between atoms: C_22  and  CA_50
   13  A    between atoms: C_25  and  CA_50
   14  A    between atoms: N_26  and  C_28
   15  A    between atoms: C_30  and  C_37
   16  A    between atoms: C_30  and  O_48
   17  A    between atoms: C_33  and  O_48
   18  A    between atoms: O_38  and  C_39
   19  A    between atoms: O_38  and  C_42
   20  A    between atoms: N_47  and  CA_50
                            x       y       z     vdW  Elec       q    Type
                         _______ _______ _______ _____ _____    ______ ____

>  <TORSDO>
F 20

$$$$
=
 OpenBabel11042419483D

 50 53  0  0  1  0  0  0  0  0999 V2000
  189.0660  172.4970  142.4500 C   0  0  1  0  0  3  0  0  0  0  0  0
  189.0720  174.0260  142.3850 C   0  0  0  0  0  2  0  0  0  0  0  0
  187.8770  174.5460  141.5960 C   0  0  0  0  0  2  0  0  0  0  0  0
  187.1670  175.5600  142.3630 N   0  0  0  0  0  2  0  0  0  0  0  0
  188.1060  177.3730  141.2270 O   0  0  0  0  0  0  0  0  0  0  0  0
  187.2850  176.9590  142.0880 C   0  0  0  0  0  0  0  0  0  0  0  0
  186.3960  177.9410  142.7900 C   0  0  2  0  0  3  0  0  0  0  0  0
  185.9370  178.4440  145.2290 C   0  0  0  0  0  0  0  0  0  0  0  0
  185.7360  177.9440  146.6140 C   0  0  0  0  0  1  0  0  0  0  0  0
  185.9350  179.6860  145.0100 O   0  0  0  0  0  0  0  0  0  0  0  0
  186.1310  177.5140  144.1600 N   0  0  0  0  0  2  0  0  0  0  0  0
  185.1090  178.4970  140.7140 O   0  0  0  0  0  0  0  0  0  0  0  0
  185.1120  178.1150  142.0490 C   0  0  0  0  0  0  0  0  0  0  0  0
  184.0210  177.9070  142.6370 O   0  0  0  0  0  1  0  0  0  0  0  0
  189.8030  171.8890  141.3850 O   0  0  0  0  0  0  0  0  0  0  0  0
  189.1150  172.1280  139.1270 N   0  0  0  0  0  0  0  0  0  0  0  0
  189.7140  171.6400  136.5350 S   0  0  0  0  0  0  0  0  0  0  0  0
  191.0630  173.3000  139.7140 C   0  0  0  0  0  2  0  0  0  0  0  0
  189.9360  172.4050  140.0910 C   0  0  0  0  0  0  0  0  0  0  0  0
  191.6750  173.8910  137.3450 C   0  0  0  0  0  0  0  0  0  0  0  0
  189.4950  172.8160  137.9070 C   0  0  2  0  0  3  0  0  0  0  0  0
  191.3380  173.7770  135.9090 C   0  0  0  0  0  3  0  0  0  0  0  0
  190.4420  172.8900  135.4570 C   0  0  0  0  0  3  0  0  0  0  0  0
  190.8110  173.4220  138.2540 C   0  0  0  0  0  0  0  0  0  0  0  0
  194.3440  172.6670  137.5730 O   0  0  0  0  0  0  0  0  0  0  0  0
  192.8970  174.5050  137.7860 N   0  0  0  0  0  2  0  0  0  0  0  0
  194.1860  173.8790  137.8820 C   0  0  0  0  0  0  0  0  0  0  0  0
  196.1040  175.2080  137.5130 O   0  0  0  0  0  0  0  0  0  0  0  0
  195.3330  174.6620  138.3500 C   0  0  0  0  0  0  0  0  0  0  0  0
  195.5630  174.8030  139.7220 O   0  0  0  0  0  0  0  0  0  0  0  0
  194.7380  175.6230  140.5420 C   0  0  1  0  0  3  0  0  0  0  0  0
  194.0850  174.7770  141.6140 C   0  0  1  0  0  3  0  0  0  0  0  0
  195.2460  175.6790  141.9810 C   0  0  1  0  0  3  0  0  0  0  0  0
  192.7910  175.4250  142.0540 C   0  0  0  0  0  2  0  0  0  0  0  0
  193.0500  176.7130  142.5370 O   0  0  0  0  0  1  0  0  0  0  0  0
  196.4040  174.9140  142.1470 O   0  0  0  0  0  0  0  0  0  0  0  0
  197.0870  175.5270  143.2000 C   0  0  0  0  0  2  0  0  0  0  0  0
  196.5370  176.7840  143.4400 O   0  0  0  0  0  1  0  0  0  0  0  0
  189.4100  171.9100  143.8220 C   0  0  0  0  0  2  0  0  0  0  0  0
  190.1230  172.8950  144.7340 C   0  0  0  0  0  2  0  0  0  0  0  0
  192.4090  173.6580  145.1280 C   0  0  0  0  0  3  0  0  0  0  0  0
  191.5980  172.7230  144.6180 C   0  0  0  0  0  0  0  0  0  0  0  0
  194.4460  172.3810  144.3060 C   0  0  0  0  0  0  0  0  0  0  0  0
  192.1310  171.4600  143.9800 C   0  0  0  0  0  2  0  0  0  0  0  0
  193.8670  173.5240  145.0280 C   0  0  0  0  0  0  0  0  0  0  0  0
  193.6320  171.4380  143.8060 C   0  0  0  0  0  3  0  0  0  0  0  0
  194.6120  174.3980  145.5410 O   0  0  0  0  0  0  0  0  0  0  0  0
  195.8380  172.3050  144.1540 O   0  0  0  0  0  0  0  0  0  0  0  0
  196.8200  171.3130  146.1210 C   0  0  0  0  0  1  0  0  0  0  0  0
  196.6160  171.2070  144.6200 C   0  0  0  0  0  2  0  0  0  0  0  0
  1  2  1  1  0  0  0
  1 39  1  0  0  0  0
  3  4  1  0  0  0  0
  3  2  1  0  0  0  0
  5  6  2  0  0  0  0
  6  4  1  0  0  0  0
  6  7  1  0  0  0  0
  7 13  1  6  0  0  0
  7 11  1  0  0  0  0
  8  9  1  0  0  0  0
 10  8  2  0  0  0  0
 11  8  1  0  0  0  0
 12 13  2  0  0  0  0
 13 14  1  0  0  0  0
 15  1  1  0  0  0  0
 16 19  2  0  0  0  0
 18 19  1  0  0  0  0
 19 15  1  0  0  0  0
 20 26  1  0  0  0  0
 20 24  2  0  0  0  0
 21 17  1  6  0  0  0
 21 24  1  0  0  0  0
 21 16  1  0  0  0  0
 22 20  1  0  0  0  0
 23 22  2  0  0  0  0
 23 17  1  0  0  0  0
 24 18  1  0  0  0  0
 25 27  2  0  0  0  0
 26 27  1  0  0  0  0
 27 29  1  0  0  0  0
 28 29  2  0  0  0  0
 29 30  1  0  0  0  0
 31 30  1  6  0  0  0
 31 32  1  0  0  0  0
 31 33  1  0  0  0  0
 32 33  1  0  0  0  0
 32 34  1  1  0  0  0
 33 36  1  6  0  0  0
 34 35  1  0  0  0  0
 36 37  1  0  0  0  0
 37 38  1  0  0  0  0
 39 40  1  0  0  0  0
 42 40  1  0  0  0  0
 42 41  2  0  0  0  0
 43 45  1  0  0  0  0
 44 42  1  0  0  0  0
 45 41  1  0  0  0  0
 45 47  2  0  0  0  0
 46 44  1  0  0  0  0
 46 43  2  0  0  0  0
 48 43  1  0  0  0  0
 48 50  1  0  0  0  0
 50 49  1  0  0  0  0
M  END
>  <MODEL>
9

>  <REMARK>
 VINA RESULT:      -5.5      3.087      7.611
  Name = 
  20 active torsions:
  status: ('A' for Active; 'I' for Inactive)
    1  A    between atoms: C_2  and  C_7
    2  A    between atoms: C_2  and  O_8
    3  A    between atoms: C_2  and  C_35
    4  A    between atoms: N_3  and  C_18
    5  A    between atoms: O_4  and  C_9
    6  A    between atoms: O_4  and  C_40
    7  A    between atoms: C_6  and  C_7
    8  A    between atoms: C_6  and  C_15
    9  A    between atoms: O_8  and  C_23
   10  A    between atoms: C_11  and  C_36
   11  A    between atoms: C_18  and  C_35
   12  A    between atoms: C_22  and  CA_50
   13  A    between atoms: C_25  and  CA_50
   14  A    between atoms: N_26  and  C_28
   15  A    between atoms: C_30  and  C_37
   16  A    between atoms: C_30  and  O_48
   17  A    between atoms: C_33  and  O_48
   18  A    between atoms: O_38  and  C_39
   19  A    between atoms: O_38  and  C_42
   20  A    between atoms: N_47  and  CA_50
                            x       y       z     vdW  Elec       q    Type
                         _______ _______ _______ _____ _____    ______ ____

>  <TORSDO>
F 20

$$$$
