=
 OpenBabel11042415223D

 47 51  0  0  1  0  0  0  0  0999 V2000
  190.2420  173.7190  142.6960 C   0  0  1  0  0  3  0  0  0  0  0  0
  191.6780  173.1610  139.2060 C   0  0  0  0  0  0  0  0  0  0  0  0
  191.8670  172.4710  144.2190 C   0  0  0  0  0  0  0  0  0  0  0  0
  190.8550  173.0830  140.3340 C   0  0  0  0  0  3  0  0  0  0  0  0
  192.7500  173.6430  144.5580 C   0  0  0  0  0  2  0  0  0  0  0  0
  192.8860  176.1070  145.0210 C   0  0  2  0  0  3  0  0  0  0  0  0
  194.7970  175.9760  143.3830 C   0  0  0  0  0  2  0  0  0  0  0  0
  192.2800  175.0300  144.0950 C   0  0  1  0  0  3  0  0  0  0  0  0
  192.3610  174.5520  141.5580 C   0  0  0  0  0  0  0  0  0  0  0  0
  192.8070  173.9730  139.2350 C   0  0  0  0  0  3  0  0  0  0  0  0
  190.6150  172.5870  143.5310 N   0  0  0  0  0  2  0  0  0  0  0  0
  191.1580  173.8060  141.5040 C   0  0  0  0  0  0  0  0  0  0  0  0
  194.4070  176.2500  144.8430 C   0  0  0  0  0  2  0  0  0  0  0  0
  193.7080  176.2920  142.5480 O   0  0  0  0  0  0  0  0  0  0  0  0
  192.7890  175.2860  142.7300 N   0  0  0  0  0  0  0  0  0  0  0  0
  193.1470  174.6530  140.4020 C   0  0  0  0  0  3  0  0  0  0  0  0
  192.2560  171.3230  144.5620 O   0  0  0  0  0  0  0  0  0  0  0  0
  190.1150  176.8420  146.0980 N   0  0  0  0  0  2  0  0  0  0  0  0
  191.2250  176.5390  146.9540 C   0  0  0  0  0  0  0  0  0  0  0  0
  191.1210  176.6900  148.2040 O   0  0  0  0  0  0  0  0  0  0  0  0
  192.4480  176.0220  146.4200 N   0  0  0  0  0  2  0  0  0  0  0  0
  188.8630  177.3660  146.6190 C   0  0  0  0  0  2  0  0  0  0  0  0
  187.8040  176.2740  146.6480 C   0  0  0  0  0  2  0  0  0  0  0  0
  185.5540  178.3680  144.3320 C   0  0  2  0  0  3  0  0  0  0  0  0
  186.5020  176.7850  146.0560 C   0  0  1  0  0  3  0  0  0  0  0  0
  184.7540  179.0820  145.4230 C   0  0  0  0  0  2  0  0  0  0  0  0
  185.7010  177.5150  147.1450 C   0  0  0  0  0  2  0  0  0  0  0  0
  186.8330  177.7510  144.9100 C   0  0  0  0  0  2  0  0  0  0  0  0
  184.4200  178.1150  146.5610 C   0  0  0  0  0  2  0  0  0  0  0  0
  185.9060  179.2860  143.3440 O   0  0  0  0  0  1  0  0  0  0  0  0
  188.1370  172.4210  142.3440 O   0  0  0  0  0  1  0  0  0  0  0  0
  188.1480  174.6890  142.0300 O   0  0  0  0  0  0  0  0  0  0  0  0
  188.7870  173.6460  142.3320 C   0  0  0  0  0  0  0  0  0  0  0  0
  191.3150  172.4430  137.9470 C   0  0  0  0  0  2  0  0  0  0  0  0
  189.3120  173.7140  137.3680 C   0  0  0  0  0  0  0  0  0  0  0  0
  188.1270  174.1350  137.7250 C   0  0  0  0  0  3  0  0  0  0  0  0
  190.4940  173.2820  137.0050 C   0  0  0  0  0  0  0  0  0  0  0  0
  191.1580  173.9290  135.8300 C   0  0  1  0  0  3  0  0  0  0  0  0
  191.1630  175.3250  135.9880 O   0  0  0  0  0  0  0  0  0  0  0  0
  192.3260  175.7370  135.3370 C   0  0  2  0  0  3  0  0  0  0  0  0
  192.4700  173.4400  135.6890 O   0  0  0  0  0  0  0  0  0  0  0  0
  193.1740  174.5100  135.1550 C   0  0  0  0  0  2  0  0  0  0  0  0
  193.1760  177.7920  135.3370 C   0  0  0  0  0  1  0  0  0  0  0  0
  193.0170  176.6580  136.1390 O   0  0  0  0  0  0  0  0  0  0  0  0
  186.7200  176.1690  137.9700 O   0  0  0  0  0  1  0  0  0  0  0  0
  187.7530  175.6880  135.9810 O   0  0  0  0  0  0  0  0  0  0  0  0
  187.5380  175.3650  137.1770 C   0  0  0  0  0  0  0  0  0  0  0  0
  1 33  1  6  0  0  0
  1 11  1  0  0  0  0
  2 10  2  0  0  0  0
  2  4  1  0  0  0  0
  3  5  1  0  0  0  0
  3 17  2  0  0  0  0
  4 12  2  0  0  0  0
  6 21  1  1  0  0  0
  7 13  1  0  0  0  0
  8  5  1  1  0  0  0
  8  6  1  0  0  0  0
  9 15  1  0  0  0  0
 10 16  1  0  0  0  0
 11  3  1  0  0  0  0
 12  9  1  0  0  0  0
 12  1  1  0  0  0  0
 13  6  1  0  0  0  0
 14 15  1  0  0  0  0
 14  7  1  0  0  0  0
 15  8  1  0  0  0  0
 16  9  2  0  0  0  0
 18 22  1  0  0  0  0
 18 19  1  0  0  0  0
 19 20  2  0  0  0  0
 21 19  1  0  0  0  0
 22 23  1  0  0  0  0
 24 30  1  6  0  0  0
 24 28  1  0  0  0  0
 24 26  1  0  0  0  0
 25 23  1  1  0  0  0
 25 27  1  0  0  0  0
 26 29  1  0  0  0  0
 28 25  1  0  0  0  0
 29 27  1  0  0  0  0
 32 33  2  0  0  0  0
 33 31  1  0  0  0  0
 34  2  1  0  0  0  0
 35 36  2  0  0  0  0
 37 35  2  0  0  0  0
 37 34  1  0  0  0  0
 38 39  1  0  0  0  0
 38 37  1  1  0  0  0
 40 39  1  0  0  0  0
 40 44  1  1  0  0  0
 41 38  1  0  0  0  0
 42 40  1  0  0  0  0
 42 41  1  0  0  0  0
 43 44  1  0  0  0  0
 46 47  2  0  0  0  0
 47 36  1  0  0  0  0
 47 45  1  0  0  0  0
M  END
>  <MODEL>
1

>  <REMARK>
 VINA RESULT:      -8.0      0.000      0.000
  Name = 
  10 active torsions:
  status: ('A' for Active; 'I' for Inactive)
    1  A    between atoms: C_2  and  C_46
    2  A    between atoms: CA_3  and  C_47
    3  A    between atoms: C_4  and  C_44
    4  A    between atoms: N_11  and  C_34
    5  A    between atoms: O_15  and  C_29
    6  A    between atoms: C_18  and  N_32
    7  A    between atoms: C_21  and  C_28
    8  A    between atoms: C_22  and  C_35
    9  A    between atoms: C_28  and  C_44
   10  A    between atoms: C_34  and  C_46
                            x       y       z     vdW  Elec       q    Type
                         _______ _______ _______ _____ _____    ______ ____

>  <TORSDO>
F 10

$$$$
=
 OpenBabel11042415223D

 47 51  0  0  1  0  0  0  0  0999 V2000
  192.6200  175.0030  145.0690 C   0  0  1  0  0  3  0  0  0  0  0  0
  193.8020  171.3760  145.0930 C   0  0  0  0  0  0  0  0  0  0  0  0
  193.1490  175.7890  142.6980 C   0  0  0  0  0  0  0  0  0  0  0  0
  193.7250  172.7520  145.3310 C   0  0  0  0  0  3  0  0  0  0  0  0
  191.7980  175.5020  142.0960 C   0  0  0  0  0  2  0  0  0  0  0  0
  189.3100  175.4650  142.4340 C   0  0  2  0  0  3  0  0  0  0  0  0
  189.5350  173.1780  141.4000 C   0  0  0  0  0  2  0  0  0  0  0  0
  190.6740  175.0970  143.0600 C   0  0  1  0  0  3  0  0  0  0  0  0
  191.7630  172.9100  143.9000 C   0  0  0  0  0  0  0  0  0  0  0  0
  192.8320  170.7600  144.3080 C   0  0  0  0  0  3  0  0  0  0  0  0
  193.4220  175.7400  144.1040 N   0  0  0  0  0  2  0  0  0  0  0  0
  192.6880  173.5270  144.7770 C   0  0  0  0  0  0  0  0  0  0  0  0
  188.9660  174.5930  141.2160 C   0  0  0  0  0  2  0  0  0  0  0  0
  189.6280  172.8940  142.7750 O   0  0  0  0  0  0  0  0  0  0  0  0
  190.6930  173.6280  143.2400 N   0  0  0  0  0  0  0  0  0  0  0  0
  191.8300  171.5230  143.7110 C   0  0  0  0  0  3  0  0  0  0  0  0
  194.0890  176.0910  141.9170 O   0  0  0  0  0  0  0  0  0  0  0  0
  186.6350  176.9520  142.5370 N   0  0  0  0  0  2  0  0  0  0  0  0
  187.8480  177.5680  142.0840 C   0  0  0  0  0  0  0  0  0  0  0  0
  187.8230  178.7300  141.5870 O   0  0  0  0  0  0  0  0  0  0  0  0
  189.1080  176.9040  142.2240 N   0  0  0  0  0  2  0  0  0  0  0  0
  185.3440  177.6100  142.4070 C   0  0  0  0  0  2  0  0  0  0  0  0
  184.6260  177.6350  143.7480 C   0  0  0  0  0  2  0  0  0  0  0  0
  187.0910  177.1730  146.6660 C   0  0  2  0  0  3  0  0  0  0  0  0
  185.5790  178.0630  144.8500 C   0  0  1  0  0  3  0  0  0  0  0  0
  186.3190  177.9830  147.7090 C   0  0  0  0  0  2  0  0  0  0  0  0
  184.8050  178.8640  145.9070 C   0  0  0  0  0  2  0  0  0  0  0  0
  186.1870  176.8040  145.4850 C   0  0  0  0  0  2  0  0  0  0  0  0
  185.7200  179.2400  147.0750 C   0  0  0  0  0  2  0  0  0  0  0  0
  187.5650  176.0000  147.2520 O   0  0  0  0  0  1  0  0  0  0  0  0
  194.2770  175.9060  146.7050 O   0  0  0  0  0  0  0  0  0  0  0  0
  192.2320  175.1790  147.4330 O   0  0  0  0  0  1  0  0  0  0  0  0
  193.0250  175.3580  146.4700 C   0  0  0  0  0  0  0  0  0  0  0  0
  194.8670  170.5490  145.7360 C   0  0  0  0  0  2  0  0  0  0  0  0
  196.3110  169.8690  143.8870 C   0  0  0  0  0  0  0  0  0  0  0  0
  196.4570  169.1540  142.8020 C   0  0  0  0  0  3  0  0  0  0  0  0
  196.1700  170.5760  144.9810 C   0  0  0  0  0  0  0  0  0  0  0  0
  197.1540  171.6680  145.2550 C   0  0  1  0  0  3  0  0  0  0  0  0
  197.1200  172.6190  144.2200 O   0  0  0  0  0  0  0  0  0  0  0  0
  197.4410  173.8200  144.8500 C   0  0  2  0  0  3  0  0  0  0  0  0
  196.8700  172.2730  146.4930 O   0  0  0  0  0  0  0  0  0  0  0  0
  197.2670  173.5920  146.3250 C   0  0  0  0  0  2  0  0  0  0  0  0
  197.2440  175.5330  143.4450 C   0  0  0  0  0  1  0  0  0  0  0  0
  196.5540  174.8260  144.4330 O   0  0  0  0  0  0  0  0  0  0  0  0
  197.7300  168.6310  140.7330 O   0  0  0  0  0  0  0  0  0  0  0  0
  197.9080  170.6870  141.7320 O   0  0  0  0  0  1  0  0  0  0  0  0
  197.3920  169.5400  141.7340 C   0  0  0  0  0  0  0  0  0  0  0  0
  1 33  1  1  0  0  0
  2  4  1  0  0  0  0
  2 34  1  0  0  0  0
  3 11  1  0  0  0  0
  5  3  1  0  0  0  0
  6 21  1  6  0  0  0
  6  8  1  0  0  0  0
  7 14  1  0  0  0  0
  8  5  1  6  0  0  0
  8 15  1  0  0  0  0
  9 12  1  0  0  0  0
 10  2  2  0  0  0  0
 11  1  1  0  0  0  0
 12  1  1  0  0  0  0
 12  4  2  0  0  0  0
 13  7  1  0  0  0  0
 13  6  1  0  0  0  0
 14 15  1  0  0  0  0
 15  9  1  0  0  0  0
 16  9  2  0  0  0  0
 16 10  1  0  0  0  0
 17  3  2  0  0  0  0
 19 21  1  0  0  0  0
 19 18  1  0  0  0  0
 20 19  2  0  0  0  0
 22 18  1  0  0  0  0
 22 23  1  0  0  0  0
 24 30  1  1  0  0  0
 24 26  1  0  0  0  0
 25 23  1  6  0  0  0
 25 28  1  0  0  0  0
 25 27  1  0  0  0  0
 27 29  1  0  0  0  0
 28 24  1  0  0  0  0
 29 26  1  0  0  0  0
 33 31  2  0  0  0  0
 33 32  1  0  0  0  0
 35 37  2  0  0  0  0
 36 35  2  0  0  0  0
 37 34  1  0  0  0  0
 38 37  1  6  0  0  0
 38 41  1  0  0  0  0
 39 40  1  0  0  0  0
 39 38  1  0  0  0  0
 40 44  1  6  0  0  0
 40 42  1  0  0  0  0
 42 41  1  0  0  0  0
 43 44  1  0  0  0  0
 45 47  2  0  0  0  0
 46 47  1  0  0  0  0
 47 36  1  0  0  0  0
M  END
>  <MODEL>
2

>  <REMARK>
 VINA RESULT:      -7.7      3.508      7.322
  Name = 
  10 active torsions:
  status: ('A' for Active; 'I' for Inactive)
    1  A    between atoms: C_2  and  C_46
    2  A    between atoms: CA_3  and  C_47
    3  A    between atoms: C_4  and  C_44
    4  A    between atoms: N_11  and  C_34
    5  A    between atoms: O_15  and  C_29
    6  A    between atoms: C_18  and  N_32
    7  A    between atoms: C_21  and  C_28
    8  A    between atoms: C_22  and  C_35
    9  A    between atoms: C_28  and  C_44
   10  A    between atoms: C_34  and  C_46
                            x       y       z     vdW  Elec       q    Type
                         _______ _______ _______ _____ _____    ______ ____

>  <TORSDO>
F 10

$$$$
=
 OpenBabel11042415223D

 47 51  0  0  1  0  0  0  0  0999 V2000
  189.7260  175.5860  145.7610 C   0  0  1  0  0  3  0  0  0  0  0  0
  191.8450  172.9340  144.0210 C   0  0  0  0  0  0  0  0  0  0  0  0
  190.2060  177.7080  144.4250 C   0  0  0  0  0  0  0  0  0  0  0  0
  191.3780  173.8570  144.9620 C   0  0  0  0  0  3  0  0  0  0  0  0
  189.0360  177.6070  143.4810 C   0  0  0  0  0  2  0  0  0  0  0  0
  186.6340  176.9440  143.1740 C   0  0  2  0  0  3  0  0  0  0  0  0
  187.5520  175.8080  141.1210 C   0  0  0  0  0  2  0  0  0  0  0  0
  187.9930  176.5190  143.7740 C   0  0  1  0  0  3  0  0  0  0  0  0
  189.5660  174.4940  143.4680 C   0  0  0  0  0  0  0  0  0  0  0  0
  191.1450  172.7510  142.8330 C   0  0  0  0  0  3  0  0  0  0  0  0
  190.3710  176.8780  145.5810 N   0  0  0  0  0  2  0  0  0  0  0  0
  190.2160  174.6150  144.7200 C   0  0  0  0  0  0  0  0  0  0  0  0
  186.6360  176.9280  141.6360 C   0  0  0  0  0  2  0  0  0  0  0  0
  187.6120  174.7810  142.0820 O   0  0  0  0  0  0  0  0  0  0  0  0
  188.3960  175.2650  143.1020 N   0  0  0  0  0  0  0  0  0  0  0  0
  190.0230  173.5310  142.5580 C   0  0  0  0  0  3  0  0  0  0  0  0
  191.0870  178.5740  144.1790 O   0  0  0  0  0  0  0  0  0  0  0  0
  183.8130  178.0390  142.7010 N   0  0  0  0  0  2  0  0  0  0  0  0
  184.8240  178.7770  143.4010 C   0  0  0  0  0  0  0  0  0  0  0  0
  184.6130  179.9740  143.7430 O   0  0  0  0  0  0  0  0  0  0  0  0
  186.0650  178.1620  143.7640 N   0  0  0  0  0  2  0  0  0  0  0  0
  182.5430  178.6420  142.3250 C   0  0  0  0  0  2  0  0  0  0  0  0
  182.2360  178.3580  140.8620 C   0  0  0  0  0  2  0  0  0  0  0  0
  178.9000  180.1950  140.3090 C   0  0  2  0  0  3  0  0  0  0  0  0
  180.7470  178.4970  140.5990 C   0  0  1  0  0  3  0  0  0  0  0  0
  178.1250  179.5520  141.4610 C   0  0  0  0  0  2  0  0  0  0  0  0
  179.9650  177.8650  141.7600 C   0  0  0  0  0  2  0  0  0  0  0  0
  180.4090  179.9900  140.4870 C   0  0  0  0  0  2  0  0  0  0  0  0
  178.4600  178.0620  141.5660 C   0  0  0  0  0  2  0  0  0  0  0  0
  178.6330  181.5620  140.2810 O   0  0  0  0  0  1  0  0  0  0  0  0
  188.9470  174.2810  147.7440 O   0  0  0  0  0  0  0  0  0  0  0  0
  190.9330  175.4160  147.8310 O   0  0  0  0  0  1  0  0  0  0  0  0
  189.9080  175.1000  147.1700 C   0  0  0  0  0  0  0  0  0  0  0  0
  193.0410  172.0880  144.3110 C   0  0  0  0  0  2  0  0  0  0  0  0
  194.3870  174.0050  143.6220 C   0  0  0  0  0  0  0  0  0  0  0  0
  194.4420  175.1500  142.9920 C   0  0  0  0  0  3  0  0  0  0  0  0
  194.3360  172.8530  144.2430 C   0  0  0  0  0  0  0  0  0  0  0  0
  195.4480  172.4990  145.1790 C   0  0  1  0  0  3  0  0  0  0  0  0
  195.1640  171.2850  145.8290 O   0  0  0  0  0  0  0  0  0  0  0  0
  196.4170  170.7150  146.0490 C   0  0  2  0  0  3  0  0  0  0  0  0
  196.6620  172.4100  144.4720 O   0  0  0  0  0  0  0  0  0  0  0  0
  197.3830  171.4430  145.1570 C   0  0  0  0  0  2  0  0  0  0  0  0
  197.5410  168.8080  146.2560 C   0  0  0  0  0  1  0  0  0  0  0  0
  196.3900  169.3590  145.6860 O   0  0  0  0  0  0  0  0  0  0  0  0
  196.3830  176.5980  142.4330 O   0  0  0  0  0  0  0  0  0  0  0  0
  195.3920  176.7070  144.4980 O   0  0  0  0  0  1  0  0  0  0  0  0
  195.4150  176.1920  143.3500 C   0  0  0  0  0  0  0  0  0  0  0  0
  1 33  1  1  0  0  0
  2 34  1  0  0  0  0
  2  4  1  0  0  0  0
  3 11  1  0  0  0  0
  5  3  1  0  0  0  0
  6 21  1  6  0  0  0
  6  8  1  0  0  0  0
  7 13  1  0  0  0  0
  7 14  1  0  0  0  0
  8  5  1  6  0  0  0
  9 12  1  0  0  0  0
 10  2  2  0  0  0  0
 11  1  1  0  0  0  0
 12  4  2  0  0  0  0
 12  1  1  0  0  0  0
 13  6  1  0  0  0  0
 14 15  1  0  0  0  0
 15  9  1  0  0  0  0
 15  8  1  0  0  0  0
 16 10  1  0  0  0  0
 16  9  2  0  0  0  0
 17  3  2  0  0  0  0
 18 19  1  0  0  0  0
 19 20  2  0  0  0  0
 19 21  1  0  0  0  0
 22 18  1  0  0  0  0
 23 22  1  0  0  0  0
 24 30  1  1  0  0  0
 24 28  1  0  0  0  0
 24 26  1  0  0  0  0
 25 23  1  1  0  0  0
 25 27  1  0  0  0  0
 26 29  1  0  0  0  0
 28 25  1  0  0  0  0
 29 27  1  0  0  0  0
 33 31  2  0  0  0  0
 33 32  1  0  0  0  0
 35 37  2  0  0  0  0
 36 47  1  0  0  0  0
 36 35  2  0  0  0  0
 37 34  1  0  0  0  0
 38 37  1  6  0  0  0
 38 39  1  0  0  0  0
 39 40  1  0  0  0  0
 40 44  1  6  0  0  0
 41 42  1  0  0  0  0
 41 38  1  0  0  0  0
 42 40  1  0  0  0  0
 44 43  1  0  0  0  0
 45 47  2  0  0  0  0
 47 46  1  0  0  0  0
M  END
>  <MODEL>
3

>  <REMARK>
 VINA RESULT:      -7.6      4.033      7.989
  Name = 
  10 active torsions:
  status: ('A' for Active; 'I' for Inactive)
    1  A    between atoms: C_2  and  C_46
    2  A    between atoms: CA_3  and  C_47
    3  A    between atoms: C_4  and  C_44
    4  A    between atoms: N_11  and  C_34
    5  A    between atoms: O_15  and  C_29
    6  A    between atoms: C_18  and  N_32
    7  A    between atoms: C_21  and  C_28
    8  A    between atoms: C_22  and  C_35
    9  A    between atoms: C_28  and  C_44
   10  A    between atoms: C_34  and  C_46
                            x       y       z     vdW  Elec       q    Type
                         _______ _______ _______ _____ _____    ______ ____

>  <TORSDO>
F 10

$$$$
=
 OpenBabel11042415223D

 47 51  0  0  1  0  0  0  0  0999 V2000
  191.6080  173.8300  141.7920 C   0  0  1  0  0  3  0  0  0  0  0  0
  193.4330  172.3530  144.7980 C   0  0  0  0  0  0  0  0  0  0  0  0
  189.1420  173.5900  142.4120 C   0  0  0  0  0  0  0  0  0  0  0  0
  192.9010  172.5210  143.5170 C   0  0  0  0  0  3  0  0  0  0  0  0
  188.9610  174.9630  143.0070 C   0  0  0  0  0  2  0  0  0  0  0  0
  189.5700  177.3960  142.9020 C   0  0  2  0  0  3  0  0  0  0  0  0
  189.9100  177.0800  145.3790 C   0  0  0  0  0  2  0  0  0  0  0  0
  190.1220  175.9540  142.8440 C   0  0  1  0  0  3  0  0  0  0  0  0
  191.8640  174.6140  144.2000 C   0  0  0  0  0  0  0  0  0  0  0  0
  193.2290  173.3370  145.7610 C   0  0  0  0  0  3  0  0  0  0  0  0
  190.3080  173.1850  141.6840 N   0  0  0  0  0  2  0  0  0  0  0  0
  192.1500  173.6660  143.1870 C   0  0  0  0  0  0  0  0  0  0  0  0
  189.0650  177.7790  144.3040 C   0  0  0  0  0  2  0  0  0  0  0  0
  191.1980  176.8350  144.8670 O   0  0  0  0  0  0  0  0  0  0  0  0
  191.0590  175.7970  143.9780 N   0  0  0  0  0  0  0  0  0  0  0  0
  192.4450  174.4500  145.4650 C   0  0  0  0  0  3  0  0  0  0  0  0
  188.2120  172.7550  142.5660 O   0  0  0  0  0  0  0  0  0  0  0  0
  186.8370  178.7450  143.2020 N   0  0  0  0  0  2  0  0  0  0  0  0
  187.2960  178.1900  141.9620 C   0  0  0  0  0  0  0  0  0  0  0  0
  186.5200  178.1290  140.9670 O   0  0  0  0  0  0  0  0  0  0  0  0
  188.6450  177.7360  141.8140 N   0  0  0  0  0  2  0  0  0  0  0  0
  185.4710  179.2150  143.3740 C   0  0  0  0  0  2  0  0  0  0  0  0
  184.5850  178.0890  143.8870 C   0  0  0  0  0  2  0  0  0  0  0  0
  185.6630  178.9940  147.4690 C   0  0  2  0  0  3  0  0  0  0  0  0
  184.8150  177.8700  145.3720 C   0  0  1  0  0  3  0  0  0  0  0  0
  186.6890  177.8750  147.6570 C   0  0  0  0  0  2  0  0  0  0  0  0
  185.8560  176.7560  145.5660 C   0  0  0  0  0  2  0  0  0  0  0  0
  185.3280  179.1810  145.9840 C   0  0  0  0  0  2  0  0  0  0  0  0
  186.1730  176.5680  147.0510 C   0  0  0  0  0  2  0  0  0  0  0  0
  186.1860  180.1870  147.9640 O   0  0  0  0  0  1  0  0  0  0  0  0
  192.1730  172.2250  139.9630 O   0  0  0  0  0  0  0  0  0  0  0  0
  193.6310  173.9060  140.5010 O   0  0  0  0  0  1  0  0  0  0  0  0
  192.5350  173.3270  140.7240 C   0  0  0  0  0  0  0  0  0  0  0  0
  194.2830  171.1670  145.1220 C   0  0  0  0  0  2  0  0  0  0  0  0
  195.6650  170.5020  143.2210 C   0  0  0  0  0  0  0  0  0  0  0  0
  195.7530  169.8490  142.0920 C   0  0  0  0  0  3  0  0  0  0  0  0
  195.5800  171.1460  144.3590 C   0  0  0  0  0  0  0  0  0  0  0  0
  196.6440  172.1440  144.6920 C   0  0  1  0  0  3  0  0  0  0  0  0
  196.4570  173.3170  143.9410 O   0  0  0  0  0  0  0  0  0  0  0  0
  196.9410  174.3310  144.7670 C   0  0  2  0  0  3  0  0  0  0  0  0
  196.6230  172.4280  146.0700 O   0  0  0  0  0  0  0  0  0  0  0  0
  197.0370  173.7510  146.1500 C   0  0  0  0  0  2  0  0  0  0  0  0
  195.4970  175.4430  143.4920 C   0  0  0  0  0  1  0  0  0  0  0  0
  196.0350  175.4030  144.7820 O   0  0  0  0  0  0  0  0  0  0  0  0
  197.2080  169.2740  140.1610 O   0  0  0  0  0  0  0  0  0  0  0  0
  197.0980  171.4240  140.9490 O   0  0  0  0  0  1  0  0  0  0  0  0
  196.7090  170.2310  141.0430 C   0  0  0  0  0  0  0  0  0  0  0  0
  1 33  1  6  0  0  0
  1 12  1  0  0  0  0
  2 34  1  0  0  0  0
  2 10  1  0  0  0  0
  3 17  2  0  0  0  0
  3  5  1  0  0  0  0
  4  2  2  0  0  0  0
  6 21  1  6  0  0  0
  6 13  1  0  0  0  0
  8  6  1  0  0  0  0
  8  5  1  1  0  0  0
  8 15  1  0  0  0  0
  9 16  1  0  0  0  0
 11  1  1  0  0  0  0
 11  3  1  0  0  0  0
 12  4  1  0  0  0  0
 12  9  2  0  0  0  0
 13  7  1  0  0  0  0
 14  7  1  0  0  0  0
 15  9  1  0  0  0  0
 15 14  1  0  0  0  0
 16 10  2  0  0  0  0
 18 22  1  0  0  0  0
 19 18  1  0  0  0  0
 20 19  2  0  0  0  0
 21 19  1  0  0  0  0
 22 23  1  0  0  0  0
 24 26  1  0  0  0  0
 24 30  1  6  0  0  0
 25 23  1  6  0  0  0
 25 27  1  0  0  0  0
 25 28  1  0  0  0  0
 27 29  1  0  0  0  0
 28 24  1  0  0  0  0
 29 26  1  0  0  0  0
 31 33  2  0  0  0  0
 32 33  1  0  0  0  0
 35 37  2  0  0  0  0
 36 35  2  0  0  0  0
 37 34  1  0  0  0  0
 38 37  1  1  0  0  0
 38 41  1  0  0  0  0
 39 38  1  0  0  0  0
 39 40  1  0  0  0  0
 40 44  1  1  0  0  0
 40 42  1  0  0  0  0
 41 42  1  0  0  0  0
 43 44  1  0  0  0  0
 45 47  2  0  0  0  0
 46 47  1  0  0  0  0
 47 36  1  0  0  0  0
M  END
>  <MODEL>
4

>  <REMARK>
 VINA RESULT:      -7.5      3.216      6.748
  Name = 
  10 active torsions:
  status: ('A' for Active; 'I' for Inactive)
    1  A    between atoms: C_2  and  C_46
    2  A    between atoms: CA_3  and  C_47
    3  A    between atoms: C_4  and  C_44
    4  A    between atoms: N_11  and  C_34
    5  A    between atoms: O_15  and  C_29
    6  A    between atoms: C_18  and  N_32
    7  A    between atoms: C_21  and  C_28
    8  A    between atoms: C_22  and  C_35
    9  A    between atoms: C_28  and  C_44
   10  A    between atoms: C_34  and  C_46
                            x       y       z     vdW  Elec       q    Type
                         _______ _______ _______ _____ _____    ______ ____

>  <TORSDO>
F 10

$$$$
=
 OpenBabel11042415223D

 47 51  0  0  1  0  0  0  0  0999 V2000
  190.8910  173.8570  141.1460 C   0  0  1  0  0  3  0  0  0  0  0  0
  192.6450  171.9660  143.9560 C   0  0  0  0  0  0  0  0  0  0  0  0
  188.4220  173.7170  141.7800 C   0  0  0  0  0  0  0  0  0  0  0  0
  192.1120  172.2980  142.7070 C   0  0  0  0  0  3  0  0  0  0  0  0
  188.3390  175.0310  142.5130 C   0  0  0  0  0  2  0  0  0  0  0  0
  189.1080  177.4180  142.6440 C   0  0  2  0  0  3  0  0  0  0  0  0
  189.4510  176.8300  145.0700 C   0  0  0  0  0  2  0  0  0  0  0  0
  189.5610  175.9560  142.4310 C   0  0  1  0  0  3  0  0  0  0  0  0
  191.2240  174.3740  143.6160 C   0  0  0  0  0  0  0  0  0  0  0  0
  192.5170  172.8580  145.0170 C   0  0  0  0  0  3  0  0  0  0  0  0
  189.5500  173.3130  140.9950 N   0  0  0  0  0  2  0  0  0  0  0  0
  191.4360  173.5170  142.5080 C   0  0  0  0  0  0  0  0  0  0  0  0
  188.6440  177.6880  144.0850 C   0  0  0  0  0  2  0  0  0  0  0  0
  190.7150  176.5550  144.5140 O   0  0  0  0  0  0  0  0  0  0  0  0
  190.4980  175.6230  143.5270 N   0  0  0  0  0  0  0  0  0  0  0  0
  191.8060  174.0440  144.8480 C   0  0  0  0  0  3  0  0  0  0  0  0
  187.4400  172.9330  141.8650 O   0  0  0  0  0  0  0  0  0  0  0  0
  186.1880  178.2470  143.0520 N   0  0  0  0  0  2  0  0  0  0  0  0
  186.7880  178.1330  141.7550 C   0  0  0  0  0  0  0  0  0  0  0  0
  186.0800  178.2550  140.7150 O   0  0  0  0  0  0  0  0  0  0  0  0
  188.1970  177.9260  141.6110 N   0  0  0  0  0  2  0  0  0  0  0  0
  184.7590  178.4600  143.2220 C   0  0  0  0  0  2  0  0  0  0  0  0
  184.5000  179.3920  144.3960 C   0  0  0  0  0  2  0  0  0  0  0  0
  186.0550  178.6340  147.8340 C   0  0  2  0  0  3  0  0  0  0  0  0
  184.6890  178.6530  145.7100 C   0  0  1  0  0  3  0  0  0  0  0  0
  186.4940  177.1980  147.5410 C   0  0  0  0  0  2  0  0  0  0  0  0
  185.1440  177.2140  145.4210 C   0  0  0  0  0  2  0  0  0  0  0  0
  185.7570  179.3870  146.5320 C   0  0  0  0  0  2  0  0  0  0  0  0
  185.4250  176.4670  146.7270 C   0  0  0  0  0  2  0  0  0  0  0  0
  187.0750  179.2980  148.5130 O   0  0  0  0  0  1  0  0  0  0  0  0
  191.5040  172.2060  139.3740 O   0  0  0  0  0  0  0  0  0  0  0  0
  192.7420  174.1140  139.6370 O   0  0  0  0  0  1  0  0  0  0  0  0
  191.7720  173.4060  140.0170 C   0  0  0  0  0  0  0  0  0  0  0  0
  193.4170  170.7010  144.1440 C   0  0  0  0  0  2  0  0  0  0  0  0
  195.0660  170.0870  145.8370 C   0  0  0  0  0  0  0  0  0  0  0  0
  195.4110  169.2780  146.8050 C   0  0  0  0  0  3  0  0  0  0  0  0
  194.7160  170.9060  144.8770 C   0  0  0  0  0  0  0  0  0  0  0  0
  195.7630  171.7920  144.2790 C   0  0  1  0  0  3  0  0  0  0  0  0
  195.4820  172.0230  142.9220 O   0  0  0  0  0  0  0  0  0  0  0  0
  195.9860  173.3010  142.6830 C   0  0  2  0  0  3  0  0  0  0  0  0
  195.8270  173.0060  144.9870 O   0  0  0  0  0  0  0  0  0  0  0  0
  196.1980  173.9380  144.0280 C   0  0  0  0  0  2  0  0  0  0  0  0
  194.8190  175.1940  142.7390 C   0  0  0  0  0  1  0  0  0  0  0  0
  195.0450  174.0540  141.9620 O   0  0  0  0  0  0  0  0  0  0  0  0
  197.1570  168.5300  148.4080 O   0  0  0  0  0  1  0  0  0  0  0  0
  197.7270  169.2950  146.3240 O   0  0  0  0  0  0  0  0  0  0  0  0
  196.8180  169.0320  147.1530 C   0  0  0  0  0  0  0  0  0  0  0  0
  1 33  1  6  0  0  0
  1 12  1  0  0  0  0
  2 34  1  0  0  0  0
  2 10  1  0  0  0  0
  3 17  2  0  0  0  0
  3  5  1  0  0  0  0
  4  2  2  0  0  0  0
  6 21  1  6  0  0  0
  6 13  1  0  0  0  0
  8  5  1  1  0  0  0
  8  6  1  0  0  0  0
  8 15  1  0  0  0  0
  9 16  1  0  0  0  0
 11  1  1  0  0  0  0
 11  3  1  0  0  0  0
 12  4  1  0  0  0  0
 12  9  2  0  0  0  0
 13  7  1  0  0  0  0
 14  7  1  0  0  0  0
 15  9  1  0  0  0  0
 15 14  1  0  0  0  0
 16 10  2  0  0  0  0
 18 22  1  0  0  0  0
 19 18  1  0  0  0  0
 20 19  2  0  0  0  0
 21 19  1  0  0  0  0
 22 23  1  0  0  0  0
 24 30  1  6  0  0  0
 25 23  1  6  0  0  0
 25 28  1  0  0  0  0
 26 24  1  0  0  0  0
 27 25  1  0  0  0  0
 27 29  1  0  0  0  0
 28 24  1  0  0  0  0
 29 26  1  0  0  0  0
 31 33  2  0  0  0  0
 32 33  1  0  0  0  0
 34 37  1  0  0  0  0
 35 36  2  0  0  0  0
 36 47  1  0  0  0  0
 37 35  2  0  0  0  0
 38 37  1  1  0  0  0
 38 41  1  0  0  0  0
 39 38  1  0  0  0  0
 40 44  1  6  0  0  0
 40 39  1  0  0  0  0
 40 42  1  0  0  0  0
 42 41  1  0  0  0  0
 44 43  1  0  0  0  0
 46 47  2  0  0  0  0
 47 45  1  0  0  0  0
M  END
>  <MODEL>
5

>  <REMARK>
 VINA RESULT:      -7.5      3.111      7.145
  Name = 
  10 active torsions:
  status: ('A' for Active; 'I' for Inactive)
    1  A    between atoms: C_2  and  C_46
    2  A    between atoms: CA_3  and  C_47
    3  A    between atoms: C_4  and  C_44
    4  A    between atoms: N_11  and  C_34
    5  A    between atoms: O_15  and  C_29
    6  A    between atoms: C_18  and  N_32
    7  A    between atoms: C_21  and  C_28
    8  A    between atoms: C_22  and  C_35
    9  A    between atoms: C_28  and  C_44
   10  A    between atoms: C_34  and  C_46
                            x       y       z     vdW  Elec       q    Type
                         _______ _______ _______ _____ _____    ______ ____

>  <TORSDO>
F 10

$$$$
=
 OpenBabel11042415223D

 47 51  0  0  1  0  0  0  0  0999 V2000
  189.5560  175.5310  145.6940 C   0  0  1  0  0  3  0  0  0  0  0  0
  191.7860  173.0790  143.8050 C   0  0  0  0  0  0  0  0  0  0  0  0
  189.9770  177.7550  144.5120 C   0  0  0  0  0  0  0  0  0  0  0  0
  191.2770  173.9190  144.8000 C   0  0  0  0  0  3  0  0  0  0  0  0
  188.8220  177.6800  143.5480 C   0  0  0  0  0  2  0  0  0  0  0  0
  186.4480  176.9590  143.1630 C   0  0  2  0  0  3  0  0  0  0  0  0
  187.4290  175.9990  141.0500 C   0  0  0  0  0  2  0  0  0  0  0  0
  187.8140  176.5400  143.7510 C   0  0  1  0  0  3  0  0  0  0  0  0
  189.4600  174.5950  143.3280 C   0  0  0  0  0  0  0  0  0  0  0  0
  191.1060  172.9550  142.5970 C   0  0  0  0  0  3  0  0  0  0  0  0
  190.1570  176.8540  145.6120 N   0  0  0  0  0  2  0  0  0  0  0  0
  190.0920  174.6510  144.5950 C   0  0  0  0  0  0  0  0  0  0  0  0
  186.4680  177.0490  141.6280 C   0  0  0  0  0  2  0  0  0  0  0  0
  187.5130  174.9110  141.9390 O   0  0  0  0  0  0  0  0  0  0  0  0
  188.2690  175.3490  143.0000 N   0  0  0  0  0  0  0  0  0  0  0  0
  189.9610  173.7130  142.3610 C   0  0  0  0  0  3  0  0  0  0  0  0
  190.8300  178.6650  144.3390 O   0  0  0  0  0  0  0  0  0  0  0  0
  183.6550  178.0860  142.6100 N   0  0  0  0  0  2  0  0  0  0  0  0
  184.6100  178.7560  143.4430 C   0  0  0  0  0  0  0  0  0  0  0  0
  184.3670  179.9150  143.8830 O   0  0  0  0  0  0  0  0  0  0  0  0
  185.8300  178.1130  143.8280 N   0  0  0  0  0  2  0  0  0  0  0  0
  182.4080  178.7190  142.2090 C   0  0  0  0  0  2  0  0  0  0  0  0
  182.0180  178.2780  140.8060 C   0  0  0  0  0  2  0  0  0  0  0  0
  178.8200  180.3710  140.3590 C   0  0  2  0  0  3  0  0  0  0  0  0
  180.5410  178.5350  140.5620 C   0  0  1  0  0  3  0  0  0  0  0  0
  178.0090  179.7390  141.4920 C   0  0  0  0  0  2  0  0  0  0  0  0
  179.7230  177.9140  141.7040 C   0  0  0  0  0  2  0  0  0  0  0  0
  180.3110  180.0510  140.5140 C   0  0  0  0  0  2  0  0  0  0  0  0
  178.2350  178.2260  141.5330 C   0  0  0  0  0  2  0  0  0  0  0  0
  178.6530  181.7540  140.3890 O   0  0  0  0  0  1  0  0  0  0  0  0
  190.8590  175.2950  147.8120 O   0  0  0  0  0  1  0  0  0  0  0  0
  188.8770  174.1780  147.5580 O   0  0  0  0  0  0  0  0  0  0  0  0
  189.7390  174.9550  147.0680 C   0  0  0  0  0  0  0  0  0  0  0  0
  193.0080  172.2560  144.0520 C   0  0  0  0  0  2  0  0  0  0  0  0
  194.4730  173.0940  142.2880 C   0  0  0  0  0  0  0  0  0  0  0  0
  194.6810  173.2590  141.0070 C   0  0  0  0  0  3  0  0  0  0  0  0
  194.2720  172.9160  143.5700 C   0  0  0  0  0  0  0  0  0  0  0  0
  195.1080  173.6940  144.5360 C   0  0  1  0  0  3  0  0  0  0  0  0
  195.5230  174.9030  143.9510 O   0  0  0  0  0  0  0  0  0  0  0  0
  195.6140  175.7870  145.0250 C   0  0  2  0  0  3  0  0  0  0  0  0
  194.3810  173.9370  145.7160 O   0  0  0  0  0  0  0  0  0  0  0  0
  194.8630  175.1590  146.1650 C   0  0  0  0  0  2  0  0  0  0  0  0
  194.5790  177.5480  145.9050 C   0  0  0  0  0  1  0  0  0  0  0  0
  195.0040  177.0060  144.6880 O   0  0  0  0  0  0  0  0  0  0  0  0
  196.8580  174.4530  140.8770 O   0  0  0  0  0  1  0  0  0  0  0  0
  195.0350  175.2020  139.7050 O   0  0  0  0  0  0  0  0  0  0  0  0
  195.5230  174.3470  140.4880 C   0  0  0  0  0  0  0  0  0  0  0  0
  1 33  1  1  0  0  0
  2 34  1  0  0  0  0
  2  4  1  0  0  0  0
  3 11  1  0  0  0  0
  5  3  1  0  0  0  0
  6  8  1  0  0  0  0
  6 21  1  1  0  0  0
  7 13  1  0  0  0  0
  7 14  1  0  0  0  0
  8  5  1  6  0  0  0
  9 12  1  0  0  0  0
 10  2  2  0  0  0  0
 11  1  1  0  0  0  0
 12  4  2  0  0  0  0
 12  1  1  0  0  0  0
 13  6  1  0  0  0  0
 14 15  1  0  0  0  0
 15  9  1  0  0  0  0
 15  8  1  0  0  0  0
 16 10  1  0  0  0  0
 16  9  2  0  0  0  0
 17  3  2  0  0  0  0
 18 19  1  0  0  0  0
 19 21  1  0  0  0  0
 19 20  2  0  0  0  0
 22 18  1  0  0  0  0
 23 22  1  0  0  0  0
 24 30  1  1  0  0  0
 24 28  1  0  0  0  0
 24 26  1  0  0  0  0
 25 23  1  1  0  0  0
 25 27  1  0  0  0  0
 26 29  1  0  0  0  0
 28 25  1  0  0  0  0
 29 27  1  0  0  0  0
 33 32  2  0  0  0  0
 33 31  1  0  0  0  0
 35 37  2  0  0  0  0
 36 35  2  0  0  0  0
 37 34  1  0  0  0  0
 38 37  1  6  0  0  0
 38 41  1  0  0  0  0
 39 38  1  0  0  0  0
 39 40  1  0  0  0  0
 40 44  1  6  0  0  0
 40 42  1  0  0  0  0
 41 42  1  0  0  0  0
 44 43  1  0  0  0  0
 46 47  2  0  0  0  0
 47 45  1  0  0  0  0
 47 36  1  0  0  0  0
M  END
>  <MODEL>
6

>  <REMARK>
 VINA RESULT:      -7.4      3.838      7.458
  Name = 
  10 active torsions:
  status: ('A' for Active; 'I' for Inactive)
    1  A    between atoms: C_2  and  C_46
    2  A    between atoms: CA_3  and  C_47
    3  A    between atoms: C_4  and  C_44
    4  A    between atoms: N_11  and  C_34
    5  A    between atoms: O_15  and  C_29
    6  A    between atoms: C_18  and  N_32
    7  A    between atoms: C_21  and  C_28
    8  A    between atoms: C_22  and  C_35
    9  A    between atoms: C_28  and  C_44
   10  A    between atoms: C_34  and  C_46
                            x       y       z     vdW  Elec       q    Type
                         _______ _______ _______ _____ _____    ______ ____

>  <TORSDO>
F 10

$$$$
=
 OpenBabel11042415223D

 47 51  0  0  1  0  0  0  0  0999 V2000
  189.8820  177.2330  143.4120 C   0  0  1  0  0  3  0  0  0  0  0  0
  190.7910  175.6650  146.7690 C   0  0  0  0  0  0  0  0  0  0  0  0
  188.2400  175.5620  142.3960 C   0  0  0  0  0  0  0  0  0  0  0  0
  190.8640  176.1120  145.4460 C   0  0  0  0  0  3  0  0  0  0  0  0
  186.9740  176.2220  142.8780 C   0  0  0  0  0  2  0  0  0  0  0  0
  185.7830  178.3760  143.3730 C   0  0  2  0  0  3  0  0  0  0  0  0
  185.2030  177.1810  145.5150 C   0  0  0  0  0  2  0  0  0  0  0  0
  187.1110  177.6030  143.5350 C   0  0  1  0  0  3  0  0  0  0  0  0
  188.5460  176.8460  145.5440 C   0  0  0  0  0  0  0  0  0  0  0  0
  189.6200  175.8570  147.4950 C   0  0  0  0  0  3  0  0  0  0  0  0
  189.5370  176.1650  142.4860 N   0  0  0  0  0  2  0  0  0  0  0  0
  189.7660  176.7430  144.8320 C   0  0  0  0  0  0  0  0  0  0  0  0
  184.6440  177.7750  144.2130 C   0  0  0  0  0  2  0  0  0  0  0  0
  186.3830  177.8650  145.8650 O   0  0  0  0  0  0  0  0  0  0  0  0
  187.3450  177.4310  144.9860 N   0  0  0  0  0  0  0  0  0  0  0  0
  188.5080  176.4340  146.8840 C   0  0  0  0  0  3  0  0  0  0  0  0
  188.1480  174.4150  141.8850 O   0  0  0  0  0  0  0  0  0  0  0  0
  182.9480  178.4250  142.2160 N   0  0  0  0  0  2  0  0  0  0  0  0
  184.1220  178.5090  141.3970 C   0  0  0  0  0  0  0  0  0  0  0  0
  184.0200  178.4800  140.1380 O   0  0  0  0  0  0  0  0  0  0  0  0
  185.4180  178.6700  141.9820 N   0  0  0  0  0  2  0  0  0  0  0  0
  181.6210  178.2630  141.6440 C   0  0  0  0  0  2  0  0  0  0  0  0
  180.7210  179.4170  142.0620 C   0  0  0  0  0  2  0  0  0  0  0  0
  177.8190  177.6630  140.2420 C   0  0  2  0  0  3  0  0  0  0  0  0
  179.3630  179.2970  141.3920 C   0  0  1  0  0  3  0  0  0  0  0  0
  177.7910  178.5590  139.0020 C   0  0  0  0  0  2  0  0  0  0  0  0
  179.3350  180.1840  140.1380 C   0  0  0  0  0  2  0  0  0  0  0  0
  179.1390  177.8290  141.0030 C   0  0  0  0  0  2  0  0  0  0  0  0
  178.0080  180.0220  139.3940 C   0  0  0  0  0  2  0  0  0  0  0  0
  177.6910  176.3310  139.8510 O   0  0  0  0  0  1  0  0  0  0  0  0
  191.5660  179.0750  143.5150 O   0  0  0  0  0  1  0  0  0  0  0  0
  192.0690  177.1260  142.4250 O   0  0  0  0  0  0  0  0  0  0  0  0
  191.2310  177.8010  143.0810 C   0  0  0  0  0  0  0  0  0  0  0  0
  191.9810  175.0540  147.4350 C   0  0  0  0  0  2  0  0  0  0  0  0
  192.7090  173.6760  145.5550 C   0  0  0  0  0  0  0  0  0  0  0  0
  192.4020  172.7730  144.6600 C   0  0  0  0  0  3  0  0  0  0  0  0
  193.0200  174.5720  146.4590 C   0  0  0  0  0  0  0  0  0  0  0  0
  194.2760  175.3630  146.2730 C   0  0  1  0  0  3  0  0  0  0  0  0
  195.0180  174.8450  145.1980 O   0  0  0  0  0  0  0  0  0  0  0  0
  195.6750  175.9560  144.6700 C   0  0  2  0  0  3  0  0  0  0  0  0
  193.9640  176.7180  146.0530 O   0  0  0  0  0  0  0  0  0  0  0  0
  194.9790  177.1690  145.2210 C   0  0  0  0  0  2  0  0  0  0  0  0
  196.5820  176.7910  142.8190 C   0  0  0  0  0  1  0  0  0  0  0  0
  195.5570  175.9550  143.2710 O   0  0  0  0  0  0  0  0  0  0  0  0
  193.2060  173.7960  142.5430 O   0  0  0  0  0  0  0  0  0  0  0  0
  193.6010  171.5850  143.0030 O   0  0  0  0  0  1  0  0  0  0  0  0
  193.1050  172.6810  143.3720 C   0  0  0  0  0  0  0  0  0  0  0  0
  1 33  1  6  0  0  0
  1 12  1  0  0  0  0
  2 34  1  0  0  0  0
  2 10  1  0  0  0  0
  3 11  1  0  0  0  0
  3  5  1  0  0  0  0
  4  2  2  0  0  0  0
  6 21  1  6  0  0  0
  6  8  1  0  0  0  0
  6 13  1  0  0  0  0
  7 14  1  0  0  0  0
  8  5  1  6  0  0  0
  8 15  1  0  0  0  0
  9 16  1  0  0  0  0
 11  1  1  0  0  0  0
 12  4  1  0  0  0  0
 12  9  2  0  0  0  0
 13  7  1  0  0  0  0
 15  9  1  0  0  0  0
 15 14  1  0  0  0  0
 16 10  2  0  0  0  0
 17  3  2  0  0  0  0
 19 21  1  0  0  0  0
 19 18  1  0  0  0  0
 20 19  2  0  0  0  0
 22 23  1  0  0  0  0
 22 18  1  0  0  0  0
 24 30  1  6  0  0  0
 24 28  1  0  0  0  0
 25 23  1  6  0  0  0
 26 29  1  0  0  0  0
 26 24  1  0  0  0  0
 27 25  1  0  0  0  0
 28 25  1  0  0  0  0
 29 27  1  0  0  0  0
 32 33  2  0  0  0  0
 33 31  1  0  0  0  0
 35 37  2  0  0  0  0
 36 35  2  0  0  0  0
 37 34  1  0  0  0  0
 38 37  1  6  0  0  0
 39 38  1  0  0  0  0
 40 44  1  6  0  0  0
 40 39  1  0  0  0  0
 40 42  1  0  0  0  0
 41 38  1  0  0  0  0
 42 41  1  0  0  0  0
 43 44  1  0  0  0  0
 45 47  2  0  0  0  0
 46 47  1  0  0  0  0
 47 36  1  0  0  0  0
M  END
>  <MODEL>
7

>  <REMARK>
 VINA RESULT:      -7.4      4.210      8.389
  Name = 
  10 active torsions:
  status: ('A' for Active; 'I' for Inactive)
    1  A    between atoms: C_2  and  C_46
    2  A    between atoms: CA_3  and  C_47
    3  A    between atoms: C_4  and  C_44
    4  A    between atoms: N_11  and  C_34
    5  A    between atoms: O_15  and  C_29
    6  A    between atoms: C_18  and  N_32
    7  A    between atoms: C_21  and  C_28
    8  A    between atoms: C_22  and  C_35
    9  A    between atoms: C_28  and  C_44
   10  A    between atoms: C_34  and  C_46
                            x       y       z     vdW  Elec       q    Type
                         _______ _______ _______ _____ _____    ______ ____

>  <TORSDO>
F 10

$$$$
=
 OpenBabel11042415223D

 47 51  0  0  1  0  0  0  0  0999 V2000
  189.6580  174.2060  142.9930 C   0  0  1  0  0  3  0  0  0  0  0  0
  189.3760  173.3980  139.2750 C   0  0  0  0  0  0  0  0  0  0  0  0
  190.7670  176.5060  143.0230 C   0  0  0  0  0  0  0  0  0  0  0  0
  189.7900  173.3890  140.6110 C   0  0  0  0  0  3  0  0  0  0  0  0
  189.5050  177.3250  143.0940 C   0  0  0  0  0  2  0  0  0  0  0  0
  187.1640  177.5070  143.9840 C   0  0  2  0  0  3  0  0  0  0  0  0
  186.6540  178.1210  141.5940 C   0  0  0  0  0  2  0  0  0  0  0  0
  188.1890  176.5650  143.3140 C   0  0  1  0  0  3  0  0  0  0  0  0
  188.2490  175.2020  141.1210 C   0  0  0  0  0  0  0  0  0  0  0  0
  188.3650  174.2660  138.8760 C   0  0  0  0  0  3  0  0  0  0  0  0
  190.8040  175.0820  143.1850 N   0  0  0  0  0  2  0  0  0  0  0  0
  189.2070  174.2540  141.5570 C   0  0  0  0  0  0  0  0  0  0  0  0
  186.6900  178.6280  143.0430 C   0  0  0  0  0  2  0  0  0  0  0  0
  186.4430  176.7290  141.5960 O   0  0  0  0  0  0  0  0  0  0  0  0
  187.6300  176.1690  142.0030 N   0  0  0  0  0  0  0  0  0  0  0  0
  187.8160  175.1640  139.7890 C   0  0  0  0  0  3  0  0  0  0  0  0
  191.8500  177.1120  142.8090 O   0  0  0  0  0  0  0  0  0  0  0  0
  188.7740  175.9200  146.0500 N   0  0  0  0  0  2  0  0  0  0  0  0
  188.1320  177.1650  146.3570 C   0  0  0  0  0  0  0  0  0  0  0  0
  188.1080  177.5910  147.5460 O   0  0  0  0  0  0  0  0  0  0  0  0
  187.5480  177.9670  145.3250 N   0  0  0  0  0  2  0  0  0  0  0  0
  189.3760  175.0910  147.0820 C   0  0  0  0  0  2  0  0  0  0  0  0
  190.6240  175.7600  147.6380 C   0  0  0  0  0  2  0  0  0  0  0  0
  193.4850  174.3870  145.4620 C   0  0  2  0  0  3  0  0  0  0  0  0
  191.7170  175.7980  146.5850 C   0  0  1  0  0  3  0  0  0  0  0  0
  194.5600  175.3870  145.8910 C   0  0  0  0  0  2  0  0  0  0  0  0
  192.8060  176.7910  147.0180 C   0  0  0  0  0  2  0  0  0  0  0  0
  192.3120  174.3900  146.4500 C   0  0  0  0  0  2  0  0  0  0  0  0
  193.9640  176.7910  146.0180 C   0  0  0  0  0  2  0  0  0  0  0  0
  194.0350  173.1070  145.4230 O   0  0  0  0  0  1  0  0  0  0  0  0
  188.9420  171.9010  143.6370 O   0  0  0  0  0  0  0  0  0  0  0  0
  191.1550  172.4790  143.7310 O   0  0  0  0  0  1  0  0  0  0  0  0
  189.9690  172.8200  143.4790 C   0  0  0  0  0  0  0  0  0  0  0  0
  189.9530  172.4320  138.2920 C   0  0  0  0  0  2  0  0  0  0  0  0
  191.5410  173.8680  137.1160 C   0  0  0  0  0  0  0  0  0  0  0  0
  191.7370  174.9250  136.3730 C   0  0  0  0  0  3  0  0  0  0  0  0
  191.3440  172.8010  137.8500 C   0  0  0  0  0  0  0  0  0  0  0  0
  192.5200  172.1850  138.5400 C   0  0  1  0  0  3  0  0  0  0  0  0
  193.1590  173.1410  139.3500 O   0  0  0  0  0  0  0  0  0  0  0  0
  193.6810  172.3970  140.4070 C   0  0  2  0  0  3  0  0  0  0  0  0
  192.1040  171.0820  139.3090 O   0  0  0  0  0  0  0  0  0  0  0  0
  192.9850  171.0650  140.3810 C   0  0  0  0  0  2  0  0  0  0  0  0
  193.9620  174.3120  141.5010 C   0  0  0  0  0  1  0  0  0  0  0  0
  193.3980  173.0390  141.6230 O   0  0  0  0  0  0  0  0  0  0  0  0
  194.1740  175.0530  136.8410 O   0  0  0  0  0  1  0  0  0  0  0  0
  193.0410  176.8660  136.0130 O   0  0  0  0  0  0  0  0  0  0  0  0
  193.0070  175.6660  136.3890 C   0  0  0  0  0  0  0  0  0  0  0  0
  1 11  1  0  0  0  0
  1 33  1  6  0  0  0
  2  4  1  0  0  0  0
  3  5  1  0  0  0  0
  3 11  1  0  0  0  0
  4 12  2  0  0  0  0
  6 21  1  1  0  0  0
  7 14  1  0  0  0  0
  7 13  1  0  0  0  0
  8  5  1  6  0  0  0
  8  6  1  0  0  0  0
  9 12  1  0  0  0  0
  9 15  1  0  0  0  0
 10  2  2  0  0  0  0
 10 16  1  0  0  0  0
 12  1  1  0  0  0  0
 13  6  1  0  0  0  0
 14 15  1  0  0  0  0
 15  8  1  0  0  0  0
 16  9  2  0  0  0  0
 17  3  2  0  0  0  0
 18 19  1  0  0  0  0
 18 22  1  0  0  0  0
 19 20  2  0  0  0  0
 21 19  1  0  0  0  0
 22 23  1  0  0  0  0
 24 30  1  1  0  0  0
 24 26  1  0  0  0  0
 24 28  1  0  0  0  0
 25 27  1  0  0  0  0
 25 23  1  1  0  0  0
 26 29  1  0  0  0  0
 28 25  1  0  0  0  0
 29 27  1  0  0  0  0
 33 31  2  0  0  0  0
 33 32  1  0  0  0  0
 34  2  1  0  0  0  0
 35 37  2  0  0  0  0
 36 47  1  0  0  0  0
 36 35  2  0  0  0  0
 37 34  1  0  0  0  0
 38 37  1  1  0  0  0
 38 41  1  0  0  0  0
 38 39  1  0  0  0  0
 39 40  1  0  0  0  0
 40 44  1  1  0  0  0
 41 42  1  0  0  0  0
 42 40  1  0  0  0  0
 43 44  1  0  0  0  0
 46 47  2  0  0  0  0
 47 45  1  0  0  0  0
M  END
>  <MODEL>
8

>  <REMARK>
 VINA RESULT:      -7.3      2.165      5.489
  Name = 
  10 active torsions:
  status: ('A' for Active; 'I' for Inactive)
    1  A    between atoms: C_2  and  C_46
    2  A    between atoms: CA_3  and  C_47
    3  A    between atoms: C_4  and  C_44
    4  A    between atoms: N_11  and  C_34
    5  A    between atoms: O_15  and  C_29
    6  A    between atoms: C_18  and  N_32
    7  A    between atoms: C_21  and  C_28
    8  A    between atoms: C_22  and  C_35
    9  A    between atoms: C_28  and  C_44
   10  A    between atoms: C_34  and  C_46
                            x       y       z     vdW  Elec       q    Type
                         _______ _______ _______ _____ _____    ______ ____

>  <TORSDO>
F 10

$$$$
=
 OpenBabel11042415223D

 47 51  0  0  1  0  0  0  0  0999 V2000
  191.3030  173.6880  142.5100 C   0  0  1  0  0  3  0  0  0  0  0  0
  193.4010  173.4040  139.3360 C   0  0  0  0  0  0  0  0  0  0  0  0
  192.6970  172.4580  144.2600 C   0  0  0  0  0  0  0  0  0  0  0  0
  192.3890  173.2180  140.2830 C   0  0  0  0  0  3  0  0  0  0  0  0
  193.4190  173.6600  144.8090 C   0  0  0  0  0  2  0  0  0  0  0  0
  193.2970  176.1000  145.3930 C   0  0  2  0  0  3  0  0  0  0  0  0
  195.4840  176.1700  144.1430 C   0  0  0  0  0  2  0  0  0  0  0  0
  192.9490  175.0390  144.3240 C   0  0  1  0  0  3  0  0  0  0  0  0
  193.5360  174.7050  141.8310 C   0  0  0  0  0  0  0  0  0  0  0  0
  194.4470  174.2800  139.6120 C   0  0  0  0  0  3  0  0  0  0  0  0
  191.5900  172.5370  143.3530 N   0  0  0  0  0  2  0  0  0  0  0  0
  192.4180  173.8930  141.5190 C   0  0  0  0  0  0  0  0  0  0  0  0
  194.8110  176.3420  145.5130 C   0  0  0  0  0  2  0  0  0  0  0  0
  194.5520  176.4660  143.1300 O   0  0  0  0  0  0  0  0  0  0  0  0
  193.6860  175.3990  143.0920 N   0  0  0  0  0  0  0  0  0  0  0  0
  194.5160  174.9140  140.8510 C   0  0  0  0  0  3  0  0  0  0  0  0
  193.0920  171.3180  144.6230 O   0  0  0  0  0  0  0  0  0  0  0  0
  190.3870  176.8240  146.0150 N   0  0  0  0  0  2  0  0  0  0  0  0
  191.3190  176.4200  147.0270 C   0  0  0  0  0  0  0  0  0  0  0  0
  190.9940  176.4720  148.2460 O   0  0  0  0  0  0  0  0  0  0  0  0
  192.6120  175.9130  146.6770 N   0  0  0  0  0  2  0  0  0  0  0  0
  189.0680  177.3400  146.3460 C   0  0  0  0  0  2  0  0  0  0  0  0
  188.0430  176.2150  146.3360 C   0  0  0  0  0  2  0  0  0  0  0  0
  185.6150  178.5450  144.4700 C   0  0  2  0  0  3  0  0  0  0  0  0
  186.7000  176.7300  145.8500 C   0  0  1  0  0  3  0  0  0  0  0  0
  184.7710  178.9610  145.6760 C   0  0  0  0  0  2  0  0  0  0  0  0
  185.8540  177.1620  147.0570 C   0  0  0  0  0  2  0  0  0  0  0  0
  186.9430  177.9270  144.9220 C   0  0  0  0  0  2  0  0  0  0  0  0
  184.5250  177.7630  146.5960 C   0  0  0  0  0  2  0  0  0  0  0  0
  185.8850  179.6660  143.6870 O   0  0  0  0  0  1  0  0  0  0  0  0
  189.3670  172.2950  141.7680 O   0  0  0  0  0  1  0  0  0  0  0  0
  189.3350  174.5620  141.4470 O   0  0  0  0  0  0  0  0  0  0  0  0
  189.9510  173.5490  141.8730 C   0  0  0  0  0  0  0  0  0  0  0  0
  193.3300  172.7350  138.0020 C   0  0  0  0  0  2  0  0  0  0  0  0
  191.2590  173.4780  136.9430 C   0  0  0  0  0  0  0  0  0  0  0  0
  190.5960  174.4470  136.3680 C   0  0  0  0  0  3  0  0  0  0  0  0
  191.9190  172.5100  137.5290 C   0  0  0  0  0  0  0  0  0  0  0  0
  191.4060  171.1120  137.3870 C   0  0  1  0  0  3  0  0  0  0  0  0
  191.9050  170.3080  138.4270 O   0  0  0  0  0  0  0  0  0  0  0  0
  190.8990  169.3660  138.6410 C   0  0  2  0  0  3  0  0  0  0  0  0
  189.9990  171.1120  137.3910 O   0  0  0  0  0  0  0  0  0  0  0  0
  189.6610  169.8990  137.9740 C   0  0  0  0  0  2  0  0  0  0  0  0
  191.8890  169.4920  140.6280 C   0  0  0  0  0  1  0  0  0  0  0  0
  190.6580  169.2350  140.0180 O   0  0  0  0  0  0  0  0  0  0  0  0
  188.5180  175.1350  135.1900 O   0  0  0  0  0  1  0  0  0  0  0  0
  189.4920  173.1030  134.7650 O   0  0  0  0  0  0  0  0  0  0  0  0
  189.5210  174.1900  135.3980 C   0  0  0  0  0  0  0  0  0  0  0  0
  1 33  1  6  0  0  0
  1 11  1  0  0  0  0
  2 10  2  0  0  0  0
  2  4  1  0  0  0  0
  3 17  2  0  0  0  0
  3  5  1  0  0  0  0
  4 12  2  0  0  0  0
  6 13  1  0  0  0  0
  6 21  1  1  0  0  0
  7 13  1  0  0  0  0
  8  5  1  1  0  0  0
  8  6  1  0  0  0  0
  9 15  1  0  0  0  0
 10 16  1  0  0  0  0
 11  3  1  0  0  0  0
 12  9  1  0  0  0  0
 12  1  1  0  0  0  0
 14  7  1  0  0  0  0
 15 14  1  0  0  0  0
 15  8  1  0  0  0  0
 16  9  2  0  0  0  0
 18 22  1  0  0  0  0
 18 19  1  0  0  0  0
 19 20  2  0  0  0  0
 21 19  1  0  0  0  0
 23 22  1  0  0  0  0
 24 30  1  6  0  0  0
 24 28  1  0  0  0  0
 24 26  1  0  0  0  0
 25 23  1  1  0  0  0
 25 27  1  0  0  0  0
 26 29  1  0  0  0  0
 28 25  1  0  0  0  0
 29 27  1  0  0  0  0
 31 33  1  0  0  0  0
 32 33  2  0  0  0  0
 34  2  1  0  0  0  0
 35 37  2  0  0  0  0
 36 35  2  0  0  0  0
 37 34  1  0  0  0  0
 38 41  1  0  0  0  0
 38 37  1  1  0  0  0
 38 39  1  0  0  0  0
 39 40  1  0  0  0  0
 40 44  1  1  0  0  0
 41 42  1  0  0  0  0
 42 40  1  0  0  0  0
 44 43  1  0  0  0  0
 45 47  1  0  0  0  0
 46 47  2  0  0  0  0
 47 36  1  0  0  0  0
M  END
>  <MODEL>
9

>  <REMARK>
 VINA RESULT:      -7.3      1.673      2.937
  Name = 
  10 active torsions:
  status: ('A' for Active; 'I' for Inactive)
    1  A    between atoms: C_2  and  C_46
    2  A    between atoms: CA_3  and  C_47
    3  A    between atoms: C_4  and  C_44
    4  A    between atoms: N_11  and  C_34
    5  A    between atoms: O_15  and  C_29
    6  A    between atoms: C_18  and  N_32
    7  A    between atoms: C_21  and  C_28
    8  A    between atoms: C_22  and  C_35
    9  A    between atoms: C_28  and  C_44
   10  A    between atoms: C_34  and  C_46
                            x       y       z     vdW  Elec       q    Type
                         _______ _______ _______ _____ _____    ______ ____

>  <TORSDO>
F 10

$$$$
