=
 OpenBabel11042418533D

 27 28  0  0  1  0  0  0  0  0999 V2000
  186.6730  177.4490  139.3680 O   0  0  0  0  0  0  0  0  0  0  0  0
  184.7950  178.4940  140.1460 O   0  0  0  0  0  1  0  0  0  0  0  0
  185.8670  177.8860  140.4120 C   0  0  0  0  0  0  0  0  0  0  0  0
  186.2540  177.6430  141.7780 N   0  0  0  0  0  0  0  0  0  0  0  0
  185.3750  179.4570  144.8390 C   0  0  0  0  0  2  0  0  0  0  0  0
  185.6930  179.4350  143.3860 C   0  0  0  0  0  2  0  0  0  0  0  0
  185.3290  178.2580  145.4050 C   0  0  2  0  0  3  0  0  0  0  0  0
  185.4140  178.0130  142.9160 C   0  0  2  0  0  3  0  0  0  0  0  0
  185.6580  176.8770  144.3240 S   0  0  0  0  0  0  0  0  0  0  0  0
  185.0050  178.0620  146.8520 C   0  0  0  0  0  2  0  0  0  0  0  0
  186.0500  177.1980  147.5470 C   0  0  0  0  0  2  0  0  0  0  0  0
  188.3730  175.8180  146.6020 O   0  0  0  0  0  0  0  0  0  0  0  0
  189.7310  177.6550  146.7810 O   0  0  0  0  0  1  0  0  0  0  0  0
  187.3790  177.7760  147.4040 N   0  0  0  0  0  2  0  0  0  0  0  0
  188.4970  177.0330  146.9130 C   0  0  0  0  0  0  0  0  0  0  0  0
  187.4950  176.9410  142.0680 C   0  0  0  0  0  2  0  0  0  0  0  0
  188.6510  177.9260  142.1390 C   0  0  0  0  0  2  0  0  0  0  0  0
  189.7520  176.0090  143.3150 C   0  0  0  0  0  3  0  0  0  0  0  0
  190.8010  175.4890  144.0730 C   0  0  0  0  0  3  0  0  0  0  0  0
  191.8490  176.3300  144.4750 C   0  0  0  0  0  0  0  0  0  0  0  0
  190.8160  178.1700  143.3740 C   0  0  0  0  0  3  0  0  0  0  0  0
  191.8280  177.6420  144.1130 N   0  0  0  0  0  0  0  0  0  0  0  0
  189.7540  177.3610  142.9650 C   0  0  0  0  0  0  0  0  0  0  0  0
  194.2880  175.6070  144.8010 C   0  0  0  0  0  0  0  0  0  0  0  0
  195.3030  175.0980  145.7590 C   0  0  0  0  0  1  0  0  0  0  0  0
  192.9500  175.8430  145.2560 N   0  0  0  0  0  2  0  0  0  0  0  0
  194.6200  175.8190  143.6050 O   0  0  0  0  0  0  0  0  0  0  0  0
  1  3  2  0  0  0  0
  2  3  1  0  0  0  0
  3  4  1  0  0  0  0
  4 16  1  0  0  0  0
  5  7  1  0  0  0  0
  6  5  1  0  0  0  0
  7 10  1  6  0  0  0
  8  4  1  6  0  0  0
  8  6  1  0  0  0  0
  8  9  1  0  0  0  0
  9  7  1  0  0  0  0
 10 11  1  0  0  0  0
 12 15  2  0  0  0  0
 13 15  1  0  0  0  0
 14 11  1  0  0  0  0
 15 14  1  0  0  0  0
 16 17  1  0  0  0  0
 17 23  1  0  0  0  0
 18 19  2  0  0  0  0
 19 20  1  0  0  0  0
 20 26  1  0  0  0  0
 21 22  1  0  0  0  0
 22 20  2  0  0  0  0
 23 18  1  0  0  0  0
 23 21  2  0  0  0  0
 24 26  1  0  0  0  0
 24 25  1  0  0  0  0
 27 24  2  0  0  0  0
M  END
>  <MODEL>
1

>  <REMARK>
 VINA RESULT:      -6.6      0.000      0.000
  Name = 
  8 active torsions:
  status: ('A' for Active; 'I' for Inactive)
    1  A    between atoms: C_6  and  N_18
    2  A    between atoms: C_7  and  N_14
    3  A    between atoms: C_7  and  C_27
    4  A    between atoms: C_8  and  C_12
    5  A    between atoms: C_8  and  C_26
    6  A    between atoms: C_12  and  N_24
    7  A    between atoms: C_16  and  C_27
    8  A    between atoms: C_21  and  N_24
                            x       y       z     vdW  Elec       q    Type
                         _______ _______ _______ _____ _____    ______ ____

>  <TORSDO>
F 8

$$$$
=
 OpenBabel11042418533D

 27 28  0  0  1  0  0  0  0  0999 V2000
  195.3730  174.7790  145.7000 O   0  0  0  0  0  1  0  0  0  0  0  0
  195.2390  176.0080  143.7780 O   0  0  0  0  0  0  0  0  0  0  0  0
  194.6360  175.3600  144.6750 C   0  0  0  0  0  0  0  0  0  0  0  0
  193.2030  175.2190  144.6420 N   0  0  0  0  0  0  0  0  0  0  0  0
  190.7000  177.4010  143.0900 C   0  0  0  0  0  2  0  0  0  0  0  0
  192.0010  177.2020  143.7840 C   0  0  0  0  0  2  0  0  0  0  0  0
  190.0490  176.2780  142.8200 C   0  0  2  0  0  3  0  0  0  0  0  0
  192.3810  175.7440  143.5530 C   0  0  2  0  0  3  0  0  0  0  0  0
  190.8520  174.7720  143.3400 S   0  0  0  0  0  0  0  0  0  0  0  0
  188.7320  176.2610  142.1090 C   0  0  0  0  0  2  0  0  0  0  0  0
  188.3390  177.6530  141.6280 C   0  0  0  0  0  2  0  0  0  0  0  0
  185.6570  178.3670  140.9280 O   0  0  0  0  0  0  0  0  0  0  0  0
  185.1430  179.1250  143.0280 O   0  0  0  0  0  1  0  0  0  0  0  0
  187.3610  178.2530  142.5250 N   0  0  0  0  0  2  0  0  0  0  0  0
  186.0310  178.5750  142.1130 C   0  0  0  0  0  0  0  0  0  0  0  0
  192.5210  174.4690  145.6870 C   0  0  0  0  0  2  0  0  0  0  0  0
  192.2910  175.3540  146.9020 C   0  0  0  0  0  2  0  0  0  0  0  0
  189.8460  174.8180  146.9820 C   0  0  0  0  0  3  0  0  0  0  0  0
  188.5140  175.2260  147.0590 C   0  0  0  0  0  3  0  0  0  0  0  0
  188.2110  176.5940  147.1200 C   0  0  0  0  0  0  0  0  0  0  0  0
  190.5290  177.1280  147.0330 C   0  0  0  0  0  3  0  0  0  0  0  0
  189.2240  177.5040  147.1070 N   0  0  0  0  0  0  0  0  0  0  0  0
  190.8640  175.7740  146.9640 C   0  0  0  0  0  0  0  0  0  0  0  0
  185.8760  177.0350  146.1560 C   0  0  0  0  0  0  0  0  0  0  0  0
  184.5160  177.5710  146.4210 C   0  0  0  0  0  1  0  0  0  0  0  0
  186.8580  177.0640  147.1990 N   0  0  0  0  0  2  0  0  0  0  0  0
  186.1430  176.5670  145.0170 O   0  0  0  0  0  0  0  0  0  0  0  0
  2  3  2  0  0  0  0
  3  1  1  0  0  0  0
  4  3  1  0  0  0  0
  4 16  1  0  0  0  0
  5  6  1  0  0  0  0
  7 10  1  6  0  0  0
  7  5  1  0  0  0  0
  7  9  1  0  0  0  0
  8  6  1  0  0  0  0
  8  4  1  1  0  0  0
  9  8  1  0  0  0  0
 11 10  1  0  0  0  0
 11 14  1  0  0  0  0
 12 15  2  0  0  0  0
 15 14  1  0  0  0  0
 15 13  1  0  0  0  0
 16 17  1  0  0  0  0
 17 23  1  0  0  0  0
 18 19  2  0  0  0  0
 19 20  1  0  0  0  0
 20 26  1  0  0  0  0
 21 22  1  0  0  0  0
 22 20  2  0  0  0  0
 23 18  1  0  0  0  0
 23 21  2  0  0  0  0
 24 25  1  0  0  0  0
 24 26  1  0  0  0  0
 27 24  2  0  0  0  0
M  END
>  <MODEL>
2

>  <REMARK>
 VINA RESULT:      -6.3      2.008      7.031
  Name = 
  8 active torsions:
  status: ('A' for Active; 'I' for Inactive)
    1  A    between atoms: C_6  and  N_18
    2  A    between atoms: C_7  and  N_14
    3  A    between atoms: C_7  and  C_27
    4  A    between atoms: C_8  and  C_12
    5  A    between atoms: C_8  and  C_26
    6  A    between atoms: C_12  and  N_24
    7  A    between atoms: C_16  and  C_27
    8  A    between atoms: C_21  and  N_24
                            x       y       z     vdW  Elec       q    Type
                         _______ _______ _______ _____ _____    ______ ____

>  <TORSDO>
F 8

$$$$
=
 OpenBabel11042418533D

 27 28  0  0  1  0  0  0  0  0999 V2000
  189.7880  174.0490  142.6500 O   0  0  0  0  0  1  0  0  0  0  0  0
  187.5770  174.0230  142.0730 O   0  0  0  0  0  0  0  0  0  0  0  0
  188.5700  174.6920  142.4650 C   0  0  0  0  0  0  0  0  0  0  0  0
  188.4490  176.1030  142.7220 N   0  0  0  0  0  0  0  0  0  0  0  0
  186.2160  179.0020  142.9340 C   0  0  0  0  0  2  0  0  0  0  0  0
  187.3910  178.3050  142.3450 C   0  0  0  0  0  2  0  0  0  0  0  0
  185.5460  178.2820  143.8250 C   0  0  2  0  0  3  0  0  0  0  0  0
  187.1790  176.8210  142.6170 C   0  0  2  0  0  3  0  0  0  0  0  0
  186.1840  176.6450  144.1360 S   0  0  0  0  0  0  0  0  0  0  0  0
  184.3230  178.7930  144.5180 C   0  0  0  0  0  2  0  0  0  0  0  0
  184.2630  178.3230  145.9670 C   0  0  0  0  0  2  0  0  0  0  0  0
  186.0830  177.1400  147.8330 O   0  0  0  0  0  0  0  0  0  0  0  0
  187.0250  179.1420  148.4260 O   0  0  0  0  0  1  0  0  0  0  0  0
  185.2260  179.0470  146.7860 N   0  0  0  0  0  2  0  0  0  0  0  0
  186.1160  178.3920  147.6920 C   0  0  0  0  0  0  0  0  0  0  0  0
  189.6060  176.8630  143.1730 C   0  0  0  0  0  2  0  0  0  0  0  0
  189.7570  176.7420  144.6810 C   0  0  0  0  0  2  0  0  0  0  0  0
  191.4760  175.9530  146.3210 C   0  0  0  0  0  3  0  0  0  0  0  0
  192.7860  175.5800  146.6250 C   0  0  0  0  0  3  0  0  0  0  0  0
  193.7670  175.6160  145.6230 C   0  0  0  0  0  0  0  0  0  0  0  0
  192.1530  176.3780  144.0480 C   0  0  0  0  0  3  0  0  0  0  0  0
  193.4230  176.0110  144.3660 N   0  0  0  0  0  0  0  0  0  0  0  0
  191.1540  176.3600  145.0250 C   0  0  0  0  0  0  0  0  0  0  0  0
  195.7240  173.9600  145.6620 C   0  0  0  0  0  0  0  0  0  0  0  0
  197.1580  173.7570  145.9950 C   0  0  0  0  0  1  0  0  0  0  0  0
  195.1270  175.2430  145.8850 N   0  0  0  0  0  2  0  0  0  0  0  0
  195.0590  173.0010  145.1900 O   0  0  0  0  0  0  0  0  0  0  0  0
  2  3  2  0  0  0  0
  3  1  1  0  0  0  0
  3  4  1  0  0  0  0
  4 16  1  0  0  0  0
  5  7  1  0  0  0  0
  6  8  1  0  0  0  0
  6  5  1  0  0  0  0
  7  9  1  0  0  0  0
  7 10  1  6  0  0  0
  8  4  1  1  0  0  0
  8  9  1  0  0  0  0
 10 11  1  0  0  0  0
 11 14  1  0  0  0  0
 14 15  1  0  0  0  0
 15 12  2  0  0  0  0
 15 13  1  0  0  0  0
 16 17  1  0  0  0  0
 17 23  1  0  0  0  0
 18 19  2  0  0  0  0
 20 26  1  0  0  0  0
 20 19  1  0  0  0  0
 21 22  1  0  0  0  0
 21 23  2  0  0  0  0
 22 20  2  0  0  0  0
 23 18  1  0  0  0  0
 24 26  1  0  0  0  0
 24 25  1  0  0  0  0
 27 24  2  0  0  0  0
M  END
>  <MODEL>
3

>  <REMARK>
 VINA RESULT:      -6.1      2.240      3.026
  Name = 
  8 active torsions:
  status: ('A' for Active; 'I' for Inactive)
    1  A    between atoms: C_6  and  N_18
    2  A    between atoms: C_7  and  N_14
    3  A    between atoms: C_7  and  C_27
    4  A    between atoms: C_8  and  C_12
    5  A    between atoms: C_8  and  C_26
    6  A    between atoms: C_12  and  N_24
    7  A    between atoms: C_16  and  C_27
    8  A    between atoms: C_21  and  N_24
                            x       y       z     vdW  Elec       q    Type
                         _______ _______ _______ _____ _____    ______ ____

>  <TORSDO>
F 8

$$$$
=
 OpenBabel11042418533D

 27 28  0  0  1  0  0  0  0  0999 V2000
  194.3370  176.7130  144.3910 O   0  0  0  0  0  0  0  0  0  0  0  0
  193.8920  175.8700  146.4680 O   0  0  0  0  0  1  0  0  0  0  0  0
  193.4450  176.3540  145.3940 C   0  0  0  0  0  0  0  0  0  0  0  0
  192.0290  176.5380  145.2040 N   0  0  0  0  0  0  0  0  0  0  0  0
  189.0920  174.9170  146.6800 C   0  0  0  0  0  2  0  0  0  0  0  0
  190.4610  174.8510  146.1010 C   0  0  0  0  0  2  0  0  0  0  0  0
  188.6070  176.1460  146.7940 C   0  0  2  0  0  3  0  0  0  0  0  0
  191.0470  176.2490  146.2490 C   0  0  2  0  0  3  0  0  0  0  0  0
  189.6790  177.4580  146.2330 S   0  0  0  0  0  0  0  0  0  0  0  0
  187.2560  176.4300  147.3700 C   0  0  0  0  0  2  0  0  0  0  0  0
  186.9130  177.9120  147.2890 C   0  0  0  0  0  2  0  0  0  0  0  0
  185.8970  179.3740  145.0470 O   0  0  0  0  0  0  0  0  0  0  0  0
  183.7050  178.9570  145.5670 O   0  0  0  0  0  1  0  0  0  0  0  0
  185.5050  178.1020  146.9690 N   0  0  0  0  0  2  0  0  0  0  0  0
  185.0650  178.8350  145.8240 C   0  0  0  0  0  0  0  0  0  0  0  0
  191.5280  177.0970  143.9580 C   0  0  0  0  0  2  0  0  0  0  0  0
  190.7990  176.0280  143.1590 C   0  0  0  0  0  2  0  0  0  0  0  0
  189.1880  177.8150  142.4680 C   0  0  0  0  0  3  0  0  0  0  0  0
  187.8950  178.2270  142.1440 C   0  0  0  0  0  3  0  0  0  0  0  0
  186.8430  177.3010  142.1820 C   0  0  0  0  0  0  0  0  0  0  0  0
  188.3540  175.5880  142.8510 C   0  0  0  0  0  3  0  0  0  0  0  0
  187.1010  176.0110  142.5320 N   0  0  0  0  0  0  0  0  0  0  0  0
  189.4220  176.4870  142.8290 C   0  0  0  0  0  0  0  0  0  0  0  0
  184.9340  177.8120  140.5470 C   0  0  0  0  0  0  0  0  0  0  0  0
  183.5100  178.2110  140.4040 C   0  0  0  0  0  1  0  0  0  0  0  0
  185.4960  177.6750  141.8580 N   0  0  0  0  0  2  0  0  0  0  0  0
  185.6230  177.6030  139.5140 O   0  0  0  0  0  0  0  0  0  0  0  0
  1  3  2  0  0  0  0
  3  2  1  0  0  0  0
  4  3  1  0  0  0  0
  5  7  1  0  0  0  0
  6  8  1  0  0  0  0
  6  5  1  0  0  0  0
  7 10  1  1  0  0  0
  8  4  1  6  0  0  0
  9  8  1  0  0  0  0
  9  7  1  0  0  0  0
 11 10  1  0  0  0  0
 12 15  2  0  0  0  0
 13 15  1  0  0  0  0
 14 11  1  0  0  0  0
 15 14  1  0  0  0  0
 16  4  1  0  0  0  0
 17 16  1  0  0  0  0
 18 23  1  0  0  0  0
 19 20  1  0  0  0  0
 19 18  2  0  0  0  0
 20 22  2  0  0  0  0
 22 21  1  0  0  0  0
 23 21  2  0  0  0  0
 23 17  1  0  0  0  0
 24 26  1  0  0  0  0
 25 24  1  0  0  0  0
 26 20  1  0  0  0  0
 27 24  2  0  0  0  0
M  END
>  <MODEL>
4

>  <REMARK>
 VINA RESULT:      -6.0      2.157      6.645
  Name = 
  8 active torsions:
  status: ('A' for Active; 'I' for Inactive)
    1  A    between atoms: C_6  and  N_18
    2  A    between atoms: C_7  and  N_14
    3  A    between atoms: C_7  and  C_27
    4  A    between atoms: C_8  and  C_12
    5  A    between atoms: C_8  and  C_26
    6  A    between atoms: C_12  and  N_24
    7  A    between atoms: C_16  and  C_27
    8  A    between atoms: C_21  and  N_24
                            x       y       z     vdW  Elec       q    Type
                         _______ _______ _______ _____ _____    ______ ____

>  <TORSDO>
F 8

$$$$
=
 OpenBabel11042418533D

 27 28  0  0  1  0  0  0  0  0999 V2000
  194.4460  175.2760  144.9000 O   0  0  0  0  0  0  0  0  0  0  0  0
  193.7230  176.0140  146.9390 O   0  0  0  0  0  1  0  0  0  0  0  0
  193.4320  175.5070  145.8220 C   0  0  0  0  0  0  0  0  0  0  0  0
  192.0690  175.1720  145.5010 N   0  0  0  0  0  0  0  0  0  0  0  0
  188.5560  175.2890  146.5390 C   0  0  0  0  0  2  0  0  0  0  0  0
  189.7720  174.5260  146.1470 C   0  0  0  0  0  2  0  0  0  0  0  0
  188.7350  176.6010  146.6120 C   0  0  2  0  0  3  0  0  0  0  0  0
  190.9510  175.4580  146.3990 C   0  0  2  0  0  3  0  0  0  0  0  0
  190.3780  177.1820  146.2250 S   0  0  0  0  0  0  0  0  0  0  0  0
  187.6430  177.5430  147.0090 C   0  0  0  0  0  2  0  0  0  0  0  0
  186.2800  176.8600  146.9860 C   0  0  0  0  0  2  0  0  0  0  0  0
  184.5920  179.0700  146.3090 O   0  0  0  0  0  1  0  0  0  0  0  0
  184.2200  178.3350  144.1710 O   0  0  0  0  0  0  0  0  0  0  0  0
  185.6220  177.0600  145.7030 N   0  0  0  0  0  2  0  0  0  0  0  0
  184.7990  178.1960  145.4260 C   0  0  0  0  0  0  0  0  0  0  0  0
  191.7490  174.5860  144.2080 C   0  0  0  0  0  2  0  0  0  0  0  0
  191.8420  175.6400  143.1170 C   0  0  0  0  0  2  0  0  0  0  0  0
  189.3840  175.3280  142.7610 C   0  0  0  0  0  3  0  0  0  0  0  0
  188.1190  175.8490  142.4900 C   0  0  0  0  0  3  0  0  0  0  0  0
  187.9690  177.2260  142.2730 C   0  0  0  0  0  0  0  0  0  0  0  0
  190.3050  177.5470  142.5960 C   0  0  0  0  0  3  0  0  0  0  0  0
  189.0630  178.0340  142.3330 N   0  0  0  0  0  0  0  0  0  0  0  0
  190.4890  176.1790  142.8100 C   0  0  0  0  0  0  0  0  0  0  0  0
  185.9820  177.7700  140.7460 C   0  0  0  0  0  0  0  0  0  0  0  0
  184.6590  178.4360  140.6380 C   0  0  0  0  0  1  0  0  0  0  0  0
  186.6900  177.8110  141.9910 N   0  0  0  0  0  2  0  0  0  0  0  0
  186.4610  177.1810  139.7400 O   0  0  0  0  0  0  0  0  0  0  0  0
  1  3  2  0  0  0  0
  3  2  1  0  0  0  0
  4  3  1  0  0  0  0
  5  7  1  0  0  0  0
  6  8  1  0  0  0  0
  6  5  1  0  0  0  0
  7 10  1  1  0  0  0
  8  4  1  6  0  0  0
  9  8  1  0  0  0  0
  9  7  1  0  0  0  0
 11 10  1  0  0  0  0
 13 15  2  0  0  0  0
 14 11  1  0  0  0  0
 15 14  1  0  0  0  0
 15 12  1  0  0  0  0
 16  4  1  0  0  0  0
 17 16  1  0  0  0  0
 18 23  1  0  0  0  0
 19 18  2  0  0  0  0
 20 22  2  0  0  0  0
 20 19  1  0  0  0  0
 21 23  2  0  0  0  0
 22 21  1  0  0  0  0
 23 17  1  0  0  0  0
 24 26  1  0  0  0  0
 25 24  1  0  0  0  0
 26 20  1  0  0  0  0
 27 24  2  0  0  0  0
M  END
>  <MODEL>
5

>  <REMARK>
 VINA RESULT:      -6.0      2.167      6.399
  Name = 
  8 active torsions:
  status: ('A' for Active; 'I' for Inactive)
    1  A    between atoms: C_6  and  N_18
    2  A    between atoms: C_7  and  N_14
    3  A    between atoms: C_7  and  C_27
    4  A    between atoms: C_8  and  C_12
    5  A    between atoms: C_8  and  C_26
    6  A    between atoms: C_12  and  N_24
    7  A    between atoms: C_16  and  C_27
    8  A    between atoms: C_21  and  N_24
                            x       y       z     vdW  Elec       q    Type
                         _______ _______ _______ _____ _____    ______ ____

>  <TORSDO>
F 8

$$$$
=
 OpenBabel11042418533D

 27 28  0  0  1  0  0  0  0  0999 V2000
  195.5540  174.8500  146.0830 O   0  0  0  0  0  1  0  0  0  0  0  0
  195.5230  174.5940  143.8120 O   0  0  0  0  0  0  0  0  0  0  0  0
  194.8710  174.6500  144.8890 C   0  0  0  0  0  0  0  0  0  0  0  0
  193.4390  174.5060  144.8880 N   0  0  0  0  0  0  0  0  0  0  0  0
  191.0540  175.2040  142.1950 C   0  0  0  0  0  2  0  0  0  0  0  0
  192.3210  175.4940  142.9170 C   0  0  0  0  0  2  0  0  0  0  0  0
  190.3850  174.1590  142.6650 C   0  0  2  0  0  3  0  0  0  0  0  0
  192.6720  174.2200  143.6760 C   0  0  2  0  0  3  0  0  0  0  0  0
  191.1280  173.3250  144.0550 S   0  0  0  0  0  0  0  0  0  0  0  0
  189.0960  173.6910  142.0650 C   0  0  0  0  0  2  0  0  0  0  0  0
  187.9690  174.6870  142.3130 C   0  0  0  0  0  2  0  0  0  0  0  0
  186.2880  177.0030  142.2840 O   0  0  0  0  0  1  0  0  0  0  0  0
  187.0470  177.7230  140.2460 O   0  0  0  0  0  0  0  0  0  0  0  0
  187.9000  175.6700  141.2410 N   0  0  0  0  0  2  0  0  0  0  0  0
  187.0450  176.8130  141.2950 C   0  0  0  0  0  0  0  0  0  0  0  0
  192.6990  174.5730  146.1400 C   0  0  0  0  0  2  0  0  0  0  0  0
  192.3620  176.0180  146.4730 C   0  0  0  0  0  2  0  0  0  0  0  0
  190.4090  177.1940  145.4370 C   0  0  0  0  0  3  0  0  0  0  0  0
  189.0330  177.3830  145.3080 C   0  0  0  0  0  3  0  0  0  0  0  0
  188.1520  176.6140  146.0830 C   0  0  0  0  0  0  0  0  0  0  0  0
  189.9930  175.4910  147.0900 C   0  0  0  0  0  3  0  0  0  0  0  0
  188.6560  175.6910  146.9480 N   0  0  0  0  0  0  0  0  0  0  0  0
  190.8970  176.2440  146.3370 C   0  0  0  0  0  0  0  0  0  0  0  0
  185.9070  177.6420  146.7730 C   0  0  0  0  0  0  0  0  0  0  0  0
  184.4410  177.6710  146.5320 C   0  0  0  0  0  1  0  0  0  0  0  0
  186.7290  176.7710  145.9870 N   0  0  0  0  0  2  0  0  0  0  0  0
  186.4000  178.3810  147.6650 O   0  0  0  0  0  0  0  0  0  0  0  0
  2  3  2  0  0  0  0
  3  1  1  0  0  0  0
  4  3  1  0  0  0  0
  4 16  1  0  0  0  0
  5  7  1  0  0  0  0
  5  6  1  0  0  0  0
  6  8  1  0  0  0  0
  7 10  1  6  0  0  0
  7  9  1  0  0  0  0
  8  9  1  0  0  0  0
  8  4  1  1  0  0  0
 10 11  1  0  0  0  0
 13 15  2  0  0  0  0
 14 15  1  0  0  0  0
 14 11  1  0  0  0  0
 15 12  1  0  0  0  0
 16 17  1  0  0  0  0
 18 23  1  0  0  0  0
 19 18  2  0  0  0  0
 19 20  1  0  0  0  0
 20 22  2  0  0  0  0
 22 21  1  0  0  0  0
 23 17  1  0  0  0  0
 23 21  2  0  0  0  0
 24 27  2  0  0  0  0
 25 24  1  0  0  0  0
 26 20  1  0  0  0  0
 26 24  1  0  0  0  0
M  END
>  <MODEL>
6

>  <REMARK>
 VINA RESULT:      -5.8      2.477      7.427
  Name = 
  8 active torsions:
  status: ('A' for Active; 'I' for Inactive)
    1  A    between atoms: C_6  and  N_18
    2  A    between atoms: C_7  and  N_14
    3  A    between atoms: C_7  and  C_27
    4  A    between atoms: C_8  and  C_12
    5  A    between atoms: C_8  and  C_26
    6  A    between atoms: C_12  and  N_24
    7  A    between atoms: C_16  and  C_27
    8  A    between atoms: C_21  and  N_24
                            x       y       z     vdW  Elec       q    Type
                         _______ _______ _______ _____ _____    ______ ____

>  <TORSDO>
F 8

$$$$
=
 OpenBabel11042418533D

 27 28  0  0  1  0  0  0  0  0999 V2000
  186.7690  178.7440  148.2070 O   0  0  0  0  0  1  0  0  0  0  0  0
  184.7080  178.6640  147.2230 O   0  0  0  0  0  0  0  0  0  0  0  0
  185.9440  178.4340  147.1330 C   0  0  0  0  0  0  0  0  0  0  0  0
  186.4980  177.8600  145.9350 N   0  0  0  0  0  0  0  0  0  0  0  0
  185.8890  176.7880  142.4840 C   0  0  0  0  0  2  0  0  0  0  0  0
  186.3300  176.5030  143.8760 C   0  0  0  0  0  2  0  0  0  0  0  0
  185.4370  178.0210  142.2960 C   0  0  2  0  0  3  0  0  0  0  0  0
  185.6940  177.5800  144.7460 C   0  0  2  0  0  3  0  0  0  0  0  0
  185.4540  179.0790  143.7330 S   0  0  0  0  0  0  0  0  0  0  0  0
  184.9280  178.5000  140.9740 C   0  0  0  0  0  2  0  0  0  0  0  0
  183.5480  177.9310  140.6660 C   0  0  0  0  0  2  0  0  0  0  0  0
  180.7410  178.1120  140.1400 O   0  0  0  0  0  0  0  0  0  0  0  0
  180.2570  179.0320  142.1810 O   0  0  0  0  0  1  0  0  0  0  0  0
  182.5490  178.4730  141.5770 N   0  0  0  0  0  2  0  0  0  0  0  0
  181.1580  178.5230  141.2550 C   0  0  0  0  0  0  0  0  0  0  0  0
  187.9270  177.5990  145.8470 C   0  0  0  0  0  2  0  0  0  0  0  0
  188.2590  176.2670  146.5010 C   0  0  0  0  0  2  0  0  0  0  0  0
  190.3530  175.5010  147.6390 C   0  0  0  0  0  3  0  0  0  0  0  0
  191.7330  175.2970  147.6360 C   0  0  0  0  0  3  0  0  0  0  0  0
  192.4850  175.6550  146.5080 C   0  0  0  0  0  0  0  0  0  0  0  0
  190.5090  176.4010  145.4100 C   0  0  0  0  0  3  0  0  0  0  0  0
  191.8530  176.1940  145.4290 N   0  0  0  0  0  0  0  0  0  0  0  0
  189.7330  176.0610  146.5200 C   0  0  0  0  0  0  0  0  0  0  0  0
  194.6260  174.6070  145.5640 C   0  0  0  0  0  0  0  0  0  0  0  0
  196.1080  174.5400  145.6570 C   0  0  0  0  0  1  0  0  0  0  0  0
  193.9060  175.4660  146.4560 N   0  0  0  0  0  2  0  0  0  0  0  0
  194.0290  173.9070  144.7050 O   0  0  0  0  0  0  0  0  0  0  0  0
  3  2  2  0  0  0  0
  3  1  1  0  0  0  0
  4  3  1  0  0  0  0
  5  6  1  0  0  0  0
  6  8  1  0  0  0  0
  7 10  1  1  0  0  0
  7  5  1  0  0  0  0
  7  9  1  0  0  0  0
  8  4  1  1  0  0  0
  9  8  1  0  0  0  0
 11 10  1  0  0  0  0
 11 14  1  0  0  0  0
 12 15  2  0  0  0  0
 15 14  1  0  0  0  0
 15 13  1  0  0  0  0
 16  4  1  0  0  0  0
 16 17  1  0  0  0  0
 17 23  1  0  0  0  0
 19 18  2  0  0  0  0
 20 19  1  0  0  0  0
 21 22  1  0  0  0  0
 21 23  2  0  0  0  0
 22 20  2  0  0  0  0
 23 18  1  0  0  0  0
 24 25  1  0  0  0  0
 24 26  1  0  0  0  0
 26 20  1  0  0  0  0
 27 24  2  0  0  0  0
M  END
>  <MODEL>
7

>  <REMARK>
 VINA RESULT:      -5.8      2.552      5.433
  Name = 
  8 active torsions:
  status: ('A' for Active; 'I' for Inactive)
    1  A    between atoms: C_6  and  N_18
    2  A    between atoms: C_7  and  N_14
    3  A    between atoms: C_7  and  C_27
    4  A    between atoms: C_8  and  C_12
    5  A    between atoms: C_8  and  C_26
    6  A    between atoms: C_12  and  N_24
    7  A    between atoms: C_16  and  C_27
    8  A    between atoms: C_21  and  N_24
                            x       y       z     vdW  Elec       q    Type
                         _______ _______ _______ _____ _____    ______ ____

>  <TORSDO>
F 8

$$$$
=
 OpenBabel11042418533D

 27 28  0  0  1  0  0  0  0  0999 V2000
  188.9170  172.3210  139.0540 O   0  0  0  0  0  0  0  0  0  0  0  0
  190.8740  171.5100  139.9110 O   0  0  0  0  0  1  0  0  0  0  0  0
  189.8090  172.1550  140.1060 C   0  0  0  0  0  0  0  0  0  0  0  0
  189.5170  172.7170  141.3990 N   0  0  0  0  0  0  0  0  0  0  0  0
  190.6960  173.3260  144.8160 C   0  0  0  0  0  2  0  0  0  0  0  0
  189.7250  172.7240  143.8630 C   0  0  0  0  0  2  0  0  0  0  0  0
  191.7060  173.9610  144.2370 C   0  0  2  0  0  3  0  0  0  0  0  0
  190.4490  172.6400  142.5250 C   0  0  2  0  0  3  0  0  0  0  0  0
  191.6960  173.9700  142.4530 S   0  0  0  0  0  0  0  0  0  0  0  0
  192.8000  174.6170  145.0200 C   0  0  0  0  0  2  0  0  0  0  0  0
  192.3720  174.8900  146.4570 C   0  0  0  0  0  2  0  0  0  0  0  0
  189.7940  175.3060  147.6290 O   0  0  0  0  0  1  0  0  0  0  0  0
  189.8120  177.5660  147.2520 O   0  0  0  0  0  0  0  0  0  0  0  0
  191.6850  176.1700  146.5590 N   0  0  0  0  0  2  0  0  0  0  0  0
  190.4000  176.3100  147.1690 C   0  0  0  0  0  0  0  0  0  0  0  0
  188.2830  173.4590  141.6090 C   0  0  0  0  0  2  0  0  0  0  0  0
  188.4700  174.9130  141.2040 C   0  0  0  0  0  2  0  0  0  0  0  0
  188.9420  176.6520  142.9410 C   0  0  0  0  0  3  0  0  0  0  0  0
  188.5100  177.5020  143.9600 C   0  0  0  0  0  3  0  0  0  0  0  0
  187.1590  177.5040  144.3330 C   0  0  0  0  0  0  0  0  0  0  0  0
  186.6870  175.8420  142.6970 C   0  0  0  0  0  3  0  0  0  0  0  0
  186.2870  176.6780  143.6920 N   0  0  0  0  0  0  0  0  0  0  0  0
  188.0270  175.8110  142.3050 C   0  0  0  0  0  0  0  0  0  0  0  0
  186.3680  177.9830  146.7250 C   0  0  0  0  0  0  0  0  0  0  0  0
  185.8610  179.0100  147.6720 C   0  0  0  0  0  1  0  0  0  0  0  0
  186.6650  178.3590  145.3750 N   0  0  0  0  0  2  0  0  0  0  0  0
  186.5250  176.7990  147.1260 O   0  0  0  0  0  0  0  0  0  0  0  0
  1  3  2  0  0  0  0
  2  3  1  0  0  0  0
  3  4  1  0  0  0  0
  4 16  1  0  0  0  0
  6  5  1  0  0  0  0
  7  5  1  0  0  0  0
  7 10  1  6  0  0  0
  8  4  1  6  0  0  0
  8  6  1  0  0  0  0
  9  8  1  0  0  0  0
  9  7  1  0  0  0  0
 10 11  1  0  0  0  0
 11 14  1  0  0  0  0
 14 15  1  0  0  0  0
 15 13  2  0  0  0  0
 15 12  1  0  0  0  0
 17 16  1  0  0  0  0
 17 23  1  0  0  0  0
 18 19  2  0  0  0  0
 19 20  1  0  0  0  0
 20 26  1  0  0  0  0
 21 22  1  0  0  0  0
 22 20  2  0  0  0  0
 23 21  2  0  0  0  0
 23 18  1  0  0  0  0
 24 27  2  0  0  0  0
 24 25  1  0  0  0  0
 26 24  1  0  0  0  0
M  END
>  <MODEL>
8

>  <REMARK>
 VINA RESULT:      -5.7      3.237      6.283
  Name = 
  8 active torsions:
  status: ('A' for Active; 'I' for Inactive)
    1  A    between atoms: C_6  and  N_18
    2  A    between atoms: C_7  and  N_14
    3  A    between atoms: C_7  and  C_27
    4  A    between atoms: C_8  and  C_12
    5  A    between atoms: C_8  and  C_26
    6  A    between atoms: C_12  and  N_24
    7  A    between atoms: C_16  and  C_27
    8  A    between atoms: C_21  and  N_24
                            x       y       z     vdW  Elec       q    Type
                         _______ _______ _______ _____ _____    ______ ____

>  <TORSDO>
F 8

$$$$
=
 OpenBabel11042418533D

 27 28  0  0  1  0  0  0  0  0999 V2000
  187.5750  176.0750  146.6290 O   0  0  0  0  0  0  0  0  0  0  0  0
  188.8590  174.4900  147.6590 O   0  0  0  0  0  1  0  0  0  0  0  0
  188.8110  175.5130  146.9240 C   0  0  0  0  0  0  0  0  0  0  0  0
  190.0170  176.0930  146.3920 N   0  0  0  0  0  0  0  0  0  0  0  0
  193.6640  175.8680  146.1120 C   0  0  0  0  0  2  0  0  0  0  0  0
  192.4360  176.5610  146.5860 C   0  0  0  0  0  2  0  0  0  0  0  0
  193.4360  174.7190  145.4900 C   0  0  2  0  0  3  0  0  0  0  0  0
  191.3390  175.5050  146.6060 C   0  0  2  0  0  3  0  0  0  0  0  0
  191.7220  174.2440  145.3430 S   0  0  0  0  0  0  0  0  0  0  0  0
  194.5380  173.8590  144.9560 C   0  0  0  0  0  2  0  0  0  0  0  0
  194.4000  173.6430  143.4530 C   0  0  0  0  0  2  0  0  0  0  0  0
  192.8940  175.5320  141.9180 O   0  0  0  0  0  1  0  0  0  0  0  0
  194.7380  176.7490  141.3130 O   0  0  0  0  0  0  0  0  0  0  0  0
  194.9550  174.7680  142.7140 N   0  0  0  0  0  2  0  0  0  0  0  0
  194.1430  175.6840  141.9760 C   0  0  0  0  0  0  0  0  0  0  0  0
  189.9440  177.2740  145.5460 C   0  0  0  0  0  2  0  0  0  0  0  0
  189.7620  176.8670  144.0920 C   0  0  0  0  0  2  0  0  0  0  0  0
  187.6950  178.2790  144.0480 C   0  0  0  0  0  3  0  0  0  0  0  0
  186.3830  178.5020  143.6270 C   0  0  0  0  0  3  0  0  0  0  0  0
  185.7430  177.5490  142.8210 C   0  0  0  0  0  0  0  0  0  0  0  0
  187.6930  176.1850  142.8580 C   0  0  0  0  0  3  0  0  0  0  0  0
  186.4150  176.4210  142.4590 N   0  0  0  0  0  0  0  0  0  0  0  0
  188.3560  177.1100  143.6660 C   0  0  0  0  0  0  0  0  0  0  0  0
  183.9840  178.2210  141.0810 C   0  0  0  0  0  0  0  0  0  0  0  0
  182.5340  178.3430  140.7810 C   0  0  0  0  0  1  0  0  0  0  0  0
  184.3960  177.7310  142.3630 N   0  0  0  0  0  2  0  0  0  0  0  0
  184.8250  178.5510  140.2040 O   0  0  0  0  0  0  0  0  0  0  0  0
  1  3  2  0  0  0  0
  3  2  1  0  0  0  0
  4  3  1  0  0  0  0
  5  6  1  0  0  0  0
  6  8  1  0  0  0  0
  7 10  1  1  0  0  0
  7  5  1  0  0  0  0
  8  4  1  6  0  0  0
  9  7  1  0  0  0  0
  9  8  1  0  0  0  0
 11 10  1  0  0  0  0
 12 15  1  0  0  0  0
 13 15  2  0  0  0  0
 14 11  1  0  0  0  0
 15 14  1  0  0  0  0
 16  4  1  0  0  0  0
 17 16  1  0  0  0  0
 19 18  2  0  0  0  0
 20 19  1  0  0  0  0
 21 23  2  0  0  0  0
 22 20  2  0  0  0  0
 22 21  1  0  0  0  0
 23 18  1  0  0  0  0
 23 17  1  0  0  0  0
 24 26  1  0  0  0  0
 25 24  1  0  0  0  0
 26 20  1  0  0  0  0
 27 24  2  0  0  0  0
M  END
>  <MODEL>
9

>  <REMARK>
 VINA RESULT:      -5.6      2.433      7.935
  Name = 
  8 active torsions:
  status: ('A' for Active; 'I' for Inactive)
    1  A    between atoms: C_6  and  N_18
    2  A    between atoms: C_7  and  N_14
    3  A    between atoms: C_7  and  C_27
    4  A    between atoms: C_8  and  C_12
    5  A    between atoms: C_8  and  C_26
    6  A    between atoms: C_12  and  N_24
    7  A    between atoms: C_16  and  C_27
    8  A    between atoms: C_21  and  N_24
                            x       y       z     vdW  Elec       q    Type
                         _______ _______ _______ _____ _____    ______ ____

>  <TORSDO>
F 8

$$$$
