=
 OpenBabel11042413443D

 30 35  0  0  1  0  0  0  0  0999 V2000
  185.7240  177.8590  142.3460 C   0  0  1  0  0  3  0  0  0  0  0  0
  187.9060  175.0620  142.1050 C   0  0  0  0  0  0  0  0  0  0  0  0
  188.1040  177.2440  141.8730 N   0  0  0  0  0  0  0  0  0  0  0  0
  186.8410  176.8810  142.1790 C   0  0  0  0  0  0  0  0  0  0  0  0
  186.6770  175.5540  142.3310 N   0  0  0  0  0  0  0  0  0  0  0  0
  188.7900  176.0860  141.8260 C   0  0  0  0  0  2  0  0  0  0  0  0
  191.4730  172.3020  142.1880 C   0  0  0  0  0  3  0  0  0  0  0  0
  189.4090  173.3410  143.0450 C   0  0  0  0  0  0  0  0  0  0  0  0
  191.9580  172.4020  143.5160 C   0  0  0  0  0  3  0  0  0  0  0  0
  188.9450  173.0250  140.7090 S   0  0  0  0  0  0  0  0  0  0  0  0
  191.1740  172.9690  144.5690 C   0  0  0  0  0  3  0  0  0  0  0  0
  190.1900  172.7840  141.9970 C   0  0  0  0  0  0  0  0  0  0  0  0
  188.2280  173.5970  142.1790 C   0  0  2  0  0  3  0  0  0  0  0  0
  189.8650  173.4540  144.3470 C   0  0  0  0  0  3  0  0  0  0  0  0
  185.9660  178.6970  143.5130 N   0  0  0  0  0  2  0  0  0  0  0  0
  184.8680  178.4970  144.4440 C   0  0  0  0  0  2  0  0  0  0  0  0
  185.4010  178.4460  145.8650 C   0  0  1  0  0  0  0  0  0  0  0  0
  184.3030  178.2540  146.8910 C   0  0  0  0  0  2  0  0  0  0  0  0
  185.0920  177.0570  146.4030 C   0  0  2  0  0  3  0  0  0  0  0  0
  186.5110  177.4310  146.0290 C   0  0  2  0  0  3  0  0  0  0  0  0
  187.2750  177.7430  147.2240 N   0  0  0  0  0  2  0  0  0  0  0  0
  188.7480  176.8050  145.6210 C   0  0  2  0  0  3  0  0  0  0  0  0
  188.6550  177.3810  146.9570 C   0  0  2  0  0  3  0  0  0  0  0  0
  190.0930  175.5520  147.2940 C   0  0  0  0  0  1  0  0  0  0  0  0
  188.7590  175.9170  146.8220 N   0  0  0  0  0  0  0  0  0  0  0  0
  191.1060  177.3360  144.5710 N   0  0  0  0  0  0  0  0  0  0  0  0
  190.0710  177.1030  145.0350 C   0  0  0  0  0  0  0  0  0  0  0  0
  185.6310  178.6590  141.2050 O   0  0  0  0  0  0  0  0  0  0  0  0
  183.3050  178.2190  140.9750 C   0  0  0  0  0  1  0  0  0  0  0  0
  184.6900  178.0200  140.3960 C   0  0  0  0  0  2  0  0  0  0  0  0
  1 28  1  6  0  0  0
  1 15  1  0  0  0  0
  2  5  2  0  0  0  0
  3  4  2  0  0  0  0
  4  5  1  0  0  0  0
  4  1  1  0  0  0  0
  6  3  1  0  0  0  0
  6  2  1  0  0  0  0
  7  9  1  0  0  0  0
  8 14  2  0  0  0  0
  9 11  2  0  0  0  0
 10 12  1  0  0  0  0
 10 13  1  0  0  0  0
 12  7  2  0  0  0  0
 12  8  1  0  0  0  0
 13  2  1  6  0  0  0
 13  8  1  0  0  0  0
 14 11  1  0  0  0  0
 15 16  1  0  0  0  0
 17 16  1  6  0  0  0
 17 20  1  0  0  0  0
 17 19  1  0  0  0  0
 17 18  1  0  0  0  0
 19 18  1  1  0  0  0
 20 19  1  0  0  0  0
 20 21  1  1  0  0  0
 22 27  1  1  0  0  0
 22 25  1  0  0  0  0
 22 23  1  0  0  0  0
 23 21  1  6  0  0  0
 25 23  1  0  0  0  0
 25 24  1  0  0  0  0
 26 27  3  0  0  0  0
 30 29  1  0  0  0  0
 30 28  1  0  0  0  0
M  END
>  <MODEL>
1

>  <REMARK>
 VINA RESULT:      -6.3      0.000      0.000
  Name = 
  10 active torsions:
  status: ('A' for Active; 'I' for Inactive)
    1  A    between atoms: C_1  and  C_18
    2  A    between atoms: C_3  and  N_21
    3  A    between atoms: C_7  and  C_24
    4  A    between atoms: C_8  and  C_28
    5  A    between atoms: N_11  and  C_28
    6  A    between atoms: N_11  and  C_29
    7  A    between atoms: C_14  and  C_29
    8  A    between atoms: N_21  and  C_27
    9  A    between atoms: O_23  and  C_29
   10  A    between atoms: O_23  and  C_30
                            x       y       z     vdW  Elec       q    Type
                         _______ _______ _______ _____ _____    ______ ____

>  <TORSDO>
F 10

$$$$
=
 OpenBabel11042413443D

 30 35  0  0  1  0  0  0  0  0999 V2000
  191.0370  175.8240  143.3860 C   0  0  1  0  0  3  0  0  0  0  0  0
  188.0690  177.1890  141.9800 C   0  0  0  0  0  0  0  0  0  0  0  0
  188.9810  175.1880  142.1060 N   0  0  0  0  0  0  0  0  0  0  0  0
  189.7390  176.1260  142.7100 C   0  0  0  0  0  0  0  0  0  0  0  0
  189.2160  177.3650  142.6580 N   0  0  0  0  0  0  0  0  0  0  0  0
  187.9120  175.8600  141.6400 C   0  0  0  0  0  2  0  0  0  0  0  0
  183.7910  178.3900  142.7580 C   0  0  0  0  0  3  0  0  0  0  0  0
  186.2440  178.6100  142.8490 C   0  0  0  0  0  0  0  0  0  0  0  0
  183.7980  178.8490  144.0990 C   0  0  0  0  0  3  0  0  0  0  0  0
  185.8410  177.7980  140.6240 S   0  0  0  0  0  0  0  0  0  0  0  0
  185.0110  179.1700  144.7840 C   0  0  0  0  0  3  0  0  0  0  0  0
  185.0400  178.2850  142.1700 C   0  0  0  0  0  0  0  0  0  0  0  0
  187.1140  178.3090  141.6820 C   0  0  2  0  0  3  0  0  0  0  0  0
  186.2750  179.0550  144.1600 C   0  0  0  0  0  3  0  0  0  0  0  0
  190.9330  174.5720  144.1250 N   0  0  0  0  0  2  0  0  0  0  0  0
  190.3800  174.8700  145.4360 C   0  0  0  0  0  2  0  0  0  0  0  0
  191.2090  175.9470  146.1130 C   0  0  1  0  0  0  0  0  0  0  0  0
  190.4670  176.6270  147.2440 C   0  0  0  0  0  2  0  0  0  0  0  0
  191.4280  175.4970  147.5490 C   0  0  2  0  0  3  0  0  0  0  0  0
  192.5660  175.4400  146.5510 C   0  0  2  0  0  3  0  0  0  0  0  0
  193.4590  176.5680  146.7490 N   0  0  0  0  0  2  0  0  0  0  0  0
  194.5510  176.0510  144.7090 C   0  0  2  0  0  3  0  0  0  0  0  0
  194.7320  176.2170  146.1470 C   0  0  2  0  0  3  0  0  0  0  0  0
  195.9950  174.2850  145.6980 C   0  0  0  0  0  1  0  0  0  0  0  0
  194.6520  174.8520  145.5950 N   0  0  0  0  0  0  0  0  0  0  0  0
  196.7660  176.7160  143.4450 N   0  0  0  0  0  0  0  0  0  0  0  0
  195.7910  176.4260  144.0000 C   0  0  0  0  0  0  0  0  0  0  0  0
  192.0480  175.7210  142.4290 O   0  0  0  0  0  0  0  0  0  0  0  0
  193.5850  174.1610  141.5020 C   0  0  0  0  0  1  0  0  0  0  0  0
  192.4120  174.3750  142.4360 C   0  0  0  0  0  2  0  0  0  0  0  0
  1 28  1  6  0  0  0
  1 15  1  0  0  0  0
  2  5  2  0  0  0  0
  3  4  2  0  0  0  0
  4  1  1  0  0  0  0
  5  4  1  0  0  0  0
  6  2  1  0  0  0  0
  6  3  1  0  0  0  0
  7  9  1  0  0  0  0
  8 14  2  0  0  0  0
  9 11  2  0  0  0  0
 10 13  1  0  0  0  0
 10 12  1  0  0  0  0
 12  7  2  0  0  0  0
 12  8  1  0  0  0  0
 13  2  1  1  0  0  0
 13  8  1  0  0  0  0
 14 11  1  0  0  0  0
 15 16  1  0  0  0  0
 17 16  1  6  0  0  0
 17 20  1  0  0  0  0
 17 18  1  0  0  0  0
 17 19  1  0  0  0  0
 19 18  1  1  0  0  0
 20 21  1  1  0  0  0
 20 19  1  0  0  0  0
 22 27  1  6  0  0  0
 22 25  1  0  0  0  0
 22 23  1  0  0  0  0
 23 21  1  1  0  0  0
 25 24  1  0  0  0  0
 25 23  1  0  0  0  0
 26 27  3  0  0  0  0
 28 30  1  0  0  0  0
 29 30  1  0  0  0  0
M  END
>  <MODEL>
2

>  <REMARK>
 VINA RESULT:      -6.0      3.235      6.584
  Name = 
  10 active torsions:
  status: ('A' for Active; 'I' for Inactive)
    1  A    between atoms: C_1  and  C_18
    2  A    between atoms: C_3  and  N_21
    3  A    between atoms: C_7  and  C_24
    4  A    between atoms: C_8  and  C_28
    5  A    between atoms: N_11  and  C_28
    6  A    between atoms: N_11  and  C_29
    7  A    between atoms: C_14  and  C_29
    8  A    between atoms: N_21  and  C_27
    9  A    between atoms: O_23  and  C_29
   10  A    between atoms: O_23  and  C_30
                            x       y       z     vdW  Elec       q    Type
                         _______ _______ _______ _____ _____    ______ ____

>  <TORSDO>
F 10

$$$$
=
 OpenBabel11042413443D

 30 35  0  0  1  0  0  0  0  0999 V2000
  189.0090  175.3850  141.9890 C   0  0  1  0  0  3  0  0  0  0  0  0
  186.5990  177.9420  142.5350 C   0  0  0  0  0  0  0  0  0  0  0  0
  187.1900  176.6660  140.8400 N   0  0  0  0  0  0  0  0  0  0  0  0
  187.9280  176.4150  141.9410 C   0  0  0  0  0  0  0  0  0  0  0  0
  187.5980  177.1750  143.0020 N   0  0  0  0  0  0  0  0  0  0  0  0
  186.3370  177.6380  141.2140 C   0  0  0  0  0  2  0  0  0  0  0  0
  184.0940  178.1850  146.2780 C   0  0  0  0  0  3  0  0  0  0  0  0
  186.0290  178.6620  144.8290 C   0  0  0  0  0  0  0  0  0  0  0  0
  185.0350  178.0770  147.3330 C   0  0  0  0  0  3  0  0  0  0  0  0
  184.1660  178.7470  143.3150 S   0  0  0  0  0  0  0  0  0  0  0  0
  186.4370  178.2540  147.1190 C   0  0  0  0  0  3  0  0  0  0  0  0
  184.6360  178.4800  145.0400 C   0  0  0  0  0  0  0  0  0  0  0  0
  185.8850  178.9580  143.3790 C   0  0  2  0  0  3  0  0  0  0  0  0
  186.9660  178.5550  145.8430 C   0  0  0  0  0  3  0  0  0  0  0  0
  190.2300  175.9690  142.5280 N   0  0  0  0  0  2  0  0  0  0  0  0
  190.5250  175.3080  143.7880 C   0  0  0  0  0  2  0  0  0  0  0  0
  191.2070  176.2800  144.7340 C   0  0  1  0  0  0  0  0  0  0  0  0
  190.2660  176.8250  145.7880 C   0  0  0  0  0  2  0  0  0  0  0  0
  191.1650  175.6520  146.1180 C   0  0  2  0  0  3  0  0  0  0  0  0
  192.4660  175.7030  145.3440 C   0  0  2  0  0  3  0  0  0  0  0  0
  193.2990  176.7840  145.8410 N   0  0  0  0  0  2  0  0  0  0  0  0
  194.7810  176.1290  144.1100 C   0  0  2  0  0  3  0  0  0  0  0  0
  194.6750  176.4420  145.5300 C   0  0  2  0  0  3  0  0  0  0  0  0
  196.0610  174.5430  145.5330 C   0  0  0  0  0  1  0  0  0  0  0  0
  194.7460  175.0280  145.1190 N   0  0  0  0  0  0  0  0  0  0  0  0
  197.1750  176.7810  143.2200 N   0  0  0  0  0  0  0  0  0  0  0  0
  196.1220  176.4970  143.6130 C   0  0  0  0  0  0  0  0  0  0  0  0
  188.6020  174.3200  142.7960 O   0  0  0  0  0  0  0  0  0  0  0  0
  189.2130  172.8770  141.0080 C   0  0  0  0  0  1  0  0  0  0  0  0
  188.0980  173.3700  141.9070 C   0  0  0  0  0  2  0  0  0  0  0  0
  1 15  1  1  0  0  0
  1 28  1  0  0  0  0
  2  5  2  0  0  0  0
  3  6  1  0  0  0  0
  3  4  2  0  0  0  0
  4  1  1  0  0  0  0
  4  5  1  0  0  0  0
  6  2  1  0  0  0  0
  7  9  1  0  0  0  0
  8 12  1  0  0  0  0
  8 14  2  0  0  0  0
 10 13  1  0  0  0  0
 10 12  1  0  0  0  0
 11  9  2  0  0  0  0
 12  7  2  0  0  0  0
 13  2  1  6  0  0  0
 13  8  1  0  0  0  0
 14 11  1  0  0  0  0
 15 16  1  0  0  0  0
 17 16  1  6  0  0  0
 17 20  1  0  0  0  0
 17 18  1  0  0  0  0
 17 19  1  0  0  0  0
 19 18  1  1  0  0  0
 20 21  1  1  0  0  0
 20 19  1  0  0  0  0
 22 27  1  1  0  0  0
 22 25  1  0  0  0  0
 22 23  1  0  0  0  0
 23 21  1  6  0  0  0
 25 23  1  0  0  0  0
 25 24  1  0  0  0  0
 26 27  3  0  0  0  0
 29 30  1  0  0  0  0
 30 28  1  0  0  0  0
M  END
>  <MODEL>
3

>  <REMARK>
 VINA RESULT:      -6.0      3.179      6.273
  Name = 
  10 active torsions:
  status: ('A' for Active; 'I' for Inactive)
    1  A    between atoms: C_1  and  C_18
    2  A    between atoms: C_3  and  N_21
    3  A    between atoms: C_7  and  C_24
    4  A    between atoms: C_8  and  C_28
    5  A    between atoms: N_11  and  C_28
    6  A    between atoms: N_11  and  C_29
    7  A    between atoms: C_14  and  C_29
    8  A    between atoms: N_21  and  C_27
    9  A    between atoms: O_23  and  C_29
   10  A    between atoms: O_23  and  C_30
                            x       y       z     vdW  Elec       q    Type
                         _______ _______ _______ _____ _____    ______ ____

>  <TORSDO>
F 10

$$$$
=
 OpenBabel11042413443D

 30 35  0  0  1  0  0  0  0  0999 V2000
  186.1130  177.7140  142.1110 C   0  0  1  0  0  3  0  0  0  0  0  0
  188.7340  175.3130  142.0030 C   0  0  0  0  0  0  0  0  0  0  0  0
  186.6640  175.3570  142.7550 N   0  0  0  0  0  0  0  0  0  0  0  0
  187.0250  176.5340  142.2020 C   0  0  0  0  0  0  0  0  0  0  0  0
  188.2840  176.5490  141.7280 N   0  0  0  0  0  0  0  0  0  0  0  0
  187.7500  174.5720  142.6290 C   0  0  0  0  0  2  0  0  0  0  0  0
  190.9480  171.5070  141.0240 C   0  0  0  0  0  3  0  0  0  0  0  0
  190.0710  173.7720  140.6090 C   0  0  0  0  0  0  0  0  0  0  0  0
  190.5760  171.2240  139.6850 C   0  0  0  0  0  3  0  0  0  0  0  0
  190.8090  173.8710  142.8930 S   0  0  0  0  0  0  0  0  0  0  0  0
  189.9610  172.2040  138.8460 C   0  0  0  0  0  3  0  0  0  0  0  0
  190.6760  172.7960  141.4450 C   0  0  0  0  0  0  0  0  0  0  0  0
  190.1130  174.8430  141.6390 C   0  0  2  0  0  3  0  0  0  0  0  0
  189.6950  173.5160  139.3010 C   0  0  0  0  0  3  0  0  0  0  0  0
  186.3850  178.6370  143.2050 N   0  0  0  0  0  2  0  0  0  0  0  0
  185.2660  178.5790  144.1300 C   0  0  0  0  0  2  0  0  0  0  0  0
  185.7790  178.5320  145.5580 C   0  0  1  0  0  0  0  0  0  0  0  0
  184.6660  178.6300  146.5810 C   0  0  0  0  0  2  0  0  0  0  0  0
  185.2090  177.2710  146.1910 C   0  0  2  0  0  3  0  0  0  0  0  0
  186.6740  177.3370  145.8100 C   0  0  2  0  0  3  0  0  0  0  0  0
  187.4840  177.5830  146.9900 N   0  0  0  0  0  2  0  0  0  0  0  0
  189.0350  176.8970  145.3330 C   0  0  2  0  0  3  0  0  0  0  0  0
  188.7700  176.9480  146.7660 C   0  0  2  0  0  3  0  0  0  0  0  0
  189.6390  174.7810  146.4900 C   0  0  0  0  0  1  0  0  0  0  0  0
  188.5680  175.6740  146.0530 N   0  0  0  0  0  0  0  0  0  0  0  0
  191.6310  177.0330  144.8950 N   0  0  0  0  0  0  0  0  0  0  0  0
  190.4890  176.9770  145.0880 C   0  0  0  0  0  0  0  0  0  0  0  0
  186.3090  178.3620  140.8900 O   0  0  0  0  0  0  0  0  0  0  0  0
  183.9600  178.3320  140.5210 C   0  0  0  0  0  1  0  0  0  0  0  0
  185.3170  177.8510  140.0520 C   0  0  0  0  0  2  0  0  0  0  0  0
  1 28  1  6  0  0  0
  1  4  1  0  0  0  0
  1 15  1  0  0  0  0
  2  6  1  0  0  0  0
  4  3  2  0  0  0  0
  5  2  2  0  0  0  0
  5  4  1  0  0  0  0
  6  3  1  0  0  0  0
  7 12  1  0  0  0  0
  8 12  2  0  0  0  0
  8 13  1  0  0  0  0
  9  7  2  0  0  0  0
 11 14  2  0  0  0  0
 11  9  1  0  0  0  0
 12 10  1  0  0  0  0
 13  2  1  1  0  0  0
 13 10  1  0  0  0  0
 14  8  1  0  0  0  0
 15 16  1  0  0  0  0
 17 16  1  6  0  0  0
 17 20  1  0  0  0  0
 17 19  1  0  0  0  0
 17 18  1  0  0  0  0
 19 18  1  1  0  0  0
 20 19  1  0  0  0  0
 20 21  1  1  0  0  0
 22 27  1  1  0  0  0
 22 25  1  0  0  0  0
 22 23  1  0  0  0  0
 23 21  1  6  0  0  0
 25 24  1  0  0  0  0
 25 23  1  0  0  0  0
 26 27  3  0  0  0  0
 30 29  1  0  0  0  0
 30 28  1  0  0  0  0
M  END
>  <MODEL>
4

>  <REMARK>
 VINA RESULT:      -5.9      1.331      2.033
  Name = 
  10 active torsions:
  status: ('A' for Active; 'I' for Inactive)
    1  A    between atoms: C_1  and  C_18
    2  A    between atoms: C_3  and  N_21
    3  A    between atoms: C_7  and  C_24
    4  A    between atoms: C_8  and  C_28
    5  A    between atoms: N_11  and  C_28
    6  A    between atoms: N_11  and  C_29
    7  A    between atoms: C_14  and  C_29
    8  A    between atoms: N_21  and  C_27
    9  A    between atoms: O_23  and  C_29
   10  A    between atoms: O_23  and  C_30
                            x       y       z     vdW  Elec       q    Type
                         _______ _______ _______ _____ _____    ______ ____

>  <TORSDO>
F 10

$$$$
=
 OpenBabel11042413443D

 30 35  0  0  1  0  0  0  0  0999 V2000
  191.1350  174.5640  146.3330 C   0  0  1  0  0  3  0  0  0  0  0  0
  188.2110  176.5740  146.5730 C   0  0  0  0  0  0  0  0  0  0  0  0
  190.3430  176.9330  146.1520 N   0  0  0  0  0  0  0  0  0  0  0  0
  190.0860  175.6280  146.3770 C   0  0  0  0  0  0  0  0  0  0  0  0
  188.7920  175.3640  146.6370 N   0  0  0  0  0  0  0  0  0  0  0  0
  189.1490  177.5420  146.2740 C   0  0  0  0  0  2  0  0  0  0  0  0
  184.9140  179.3990  145.3490 C   0  0  0  0  0  3  0  0  0  0  0  0
  186.0680  177.2290  145.5320 C   0  0  0  0  0  0  0  0  0  0  0  0
  184.5960  179.0070  144.0250 C   0  0  0  0  0  3  0  0  0  0  0  0
  186.4250  178.2320  147.6860 S   0  0  0  0  0  0  0  0  0  0  0  0
  185.0190  177.7540  143.4820 C   0  0  0  0  0  3  0  0  0  0  0  0
  185.6530  178.4770  146.0690 C   0  0  0  0  0  0  0  0  0  0  0  0
  186.7390  176.7870  146.7830 C   0  0  2  0  0  3  0  0  0  0  0  0
  185.7740  176.8280  144.2400 C   0  0  0  0  0  3  0  0  0  0  0  0
  191.4350  174.2190  144.9500 N   0  0  0  0  0  2  0  0  0  0  0  0
  190.8800  172.9010  144.6870 C   0  0  0  0  0  2  0  0  0  0  0  0
  190.5450  172.7680  143.2120 C   0  0  1  0  0  0  0  0  0  0  0  0
  190.6320  171.3380  142.7220 C   0  0  0  0  0  2  0  0  0  0  0  0
  189.2890  171.9140  143.1200 C   0  0  2  0  0  3  0  0  0  0  0  0
  189.2170  173.4050  142.8630 C   0  0  2  0  0  3  0  0  0  0  0  0
  189.1680  173.6610  141.4340 N   0  0  0  0  0  2  0  0  0  0  0  0
  188.7690  175.7100  142.5590 C   0  0  2  0  0  3  0  0  0  0  0  0
  189.0230  175.0960  141.2610 C   0  0  2  0  0  3  0  0  0  0  0  0
  187.3300  176.6480  140.7620 C   0  0  0  0  0  1  0  0  0  0  0  0
  187.6450  175.4920  141.6000 N   0  0  0  0  0  0  0  0  0  0  0  0
  189.7660  178.1490  142.6140 N   0  0  0  0  0  0  0  0  0  0  0  0
  189.3290  177.0770  142.5870 C   0  0  0  0  0  0  0  0  0  0  0  0
  192.2920  175.0260  146.9630 O   0  0  0  0  0  0  0  0  0  0  0  0
  194.0840  176.3720  146.1680 C   0  0  0  0  0  1  0  0  0  0  0  0
  193.2350  175.1380  145.9410 C   0  0  0  0  0  2  0  0  0  0  0  0
  1 15  1  6  0  0  0
  1  4  1  0  0  0  0
  1 28  1  0  0  0  0
  2  5  2  0  0  0  0
  3  6  1  0  0  0  0
  3  4  2  0  0  0  0
  4  5  1  0  0  0  0
  6  2  1  0  0  0  0
  7 12  1  0  0  0  0
  8 12  2  0  0  0  0
  8 13  1  0  0  0  0
  9  7  2  0  0  0  0
 11  9  1  0  0  0  0
 11 14  2  0  0  0  0
 12 10  1  0  0  0  0
 13  2  1  6  0  0  0
 13 10  1  0  0  0  0
 14  8  1  0  0  0  0
 16 15  1  0  0  0  0
 17 16  1  1  0  0  0
 18 17  1  0  0  0  0
 19 18  1  6  0  0  0
 19 17  1  0  0  0  0
 20 21  1  6  0  0  0
 20 19  1  0  0  0  0
 20 17  1  0  0  0  0
 22 27  1  6  0  0  0
 23 21  1  1  0  0  0
 23 25  1  0  0  0  0
 23 22  1  0  0  0  0
 24 25  1  0  0  0  0
 25 22  1  0  0  0  0
 27 26  3  0  0  0  0
 30 29  1  0  0  0  0
 30 28  1  0  0  0  0
M  END
>  <MODEL>
5

>  <REMARK>
 VINA RESULT:      -5.9      2.930      7.324
  Name = 
  10 active torsions:
  status: ('A' for Active; 'I' for Inactive)
    1  A    between atoms: C_1  and  C_18
    2  A    between atoms: C_3  and  N_21
    3  A    between atoms: C_7  and  C_24
    4  A    between atoms: C_8  and  C_28
    5  A    between atoms: N_11  and  C_28
    6  A    between atoms: N_11  and  C_29
    7  A    between atoms: C_14  and  C_29
    8  A    between atoms: N_21  and  C_27
    9  A    between atoms: O_23  and  C_29
   10  A    between atoms: O_23  and  C_30
                            x       y       z     vdW  Elec       q    Type
                         _______ _______ _______ _____ _____    ______ ____

>  <TORSDO>
F 10

$$$$
=
 OpenBabel11042413443D

 30 35  0  0  1  0  0  0  0  0999 V2000
  189.7160  174.1860  143.4120 C   0  0  1  0  0  3  0  0  0  0  0  0
  187.4400  176.9190  143.4530 C   0  0  0  0  0  0  0  0  0  0  0  0
  187.5760  174.9930  142.3920 N   0  0  0  0  0  0  0  0  0  0  0  0
  188.6160  175.1810  143.2310 C   0  0  0  0  0  0  0  0  0  0  0  0
  188.5710  176.3470  143.9010 N   0  0  0  0  0  0  0  0  0  0  0  0
  186.8200  176.0980  142.5310 C   0  0  0  0  0  2  0  0  0  0  0  0
  184.1050  178.6980  145.9140 C   0  0  0  0  0  3  0  0  0  0  0  0
  186.4420  178.1760  145.3300 C   0  0  0  0  0  0  0  0  0  0  0  0
  184.4830  178.4330  147.2540 C   0  0  0  0  0  3  0  0  0  0  0  0
  185.4380  178.6810  143.2070 S   0  0  0  0  0  0  0  0  0  0  0  0
  185.8130  178.0430  147.6030 C   0  0  0  0  0  3  0  0  0  0  0  0
  185.1190  178.5580  144.9820 C   0  0  0  0  0  0  0  0  0  0  0  0
  186.9510  178.2540  143.9360 C   0  0  2  0  0  3  0  0  0  0  0  0
  186.8320  177.9070  146.6310 C   0  0  0  0  0  3  0  0  0  0  0  0
  189.7930  173.7790  144.8080 N   0  0  0  0  0  2  0  0  0  0  0  0
  191.1970  173.7150  145.1800 C   0  0  0  0  0  2  0  0  0  0  0  0
  191.7280  175.1150  145.4300 C   0  0  1  0  0  0  0  0  0  0  0  0
  191.1000  175.7680  146.6430 C   0  0  0  0  0  2  0  0  0  0  0  0
  192.4450  175.0830  146.7710 C   0  0  2  0  0  3  0  0  0  0  0  0
  193.2400  175.1570  145.4840 C   0  0  2  0  0  3  0  0  0  0  0  0
  193.6920  176.5180  145.2570 N   0  0  0  0  0  2  0  0  0  0  0  0
  194.6430  175.8040  143.2060 C   0  0  2  0  0  3  0  0  0  0  0  0
  194.9210  176.4380  144.4890 C   0  0  2  0  0  3  0  0  0  0  0  0
  196.7500  174.9820  144.2380 C   0  0  0  0  0  1  0  0  0  0  0  0
  195.2900  175.0230  144.3030 N   0  0  0  0  0  0  0  0  0  0  0  0
  196.2710  176.7520  141.3610 N   0  0  0  0  0  0  0  0  0  0  0  0
  195.5580  176.3340  142.1740 C   0  0  0  0  0  0  0  0  0  0  0  0
  189.4700  173.0690  142.6100 O   0  0  0  0  0  0  0  0  0  0  0  0
  191.4430  171.9910  141.8370 C   0  0  0  0  0  1  0  0  0  0  0  0
  190.4520  173.1160  141.6210 C   0  0  0  0  0  2  0  0  0  0  0  0
  1 28  1  6  0  0  0
  1 15  1  0  0  0  0
  2  5  2  0  0  0  0
  3  6  1  0  0  0  0
  3  4  2  0  0  0  0
  4  1  1  0  0  0  0
  4  5  1  0  0  0  0
  6  2  1  0  0  0  0
  7  9  1  0  0  0  0
  8 14  2  0  0  0  0
  9 11  2  0  0  0  0
 10 13  1  0  0  0  0
 10 12  1  0  0  0  0
 12  8  1  0  0  0  0
 12  7  2  0  0  0  0
 13  2  1  6  0  0  0
 13  8  1  0  0  0  0
 14 11  1  0  0  0  0
 15 16  1  0  0  0  0
 17 16  1  6  0  0  0
 17 20  1  0  0  0  0
 17 18  1  0  0  0  0
 17 19  1  0  0  0  0
 19 18  1  1  0  0  0
 20 21  1  1  0  0  0
 20 19  1  0  0  0  0
 22 27  1  6  0  0  0
 22 25  1  0  0  0  0
 22 23  1  0  0  0  0
 23 21  1  1  0  0  0
 24 25  1  0  0  0  0
 25 23  1  0  0  0  0
 26 27  3  0  0  0  0
 30 29  1  0  0  0  0
 30 28  1  0  0  0  0
M  END
>  <MODEL>
6

>  <REMARK>
 VINA RESULT:      -5.9      3.299      6.828
  Name = 
  10 active torsions:
  status: ('A' for Active; 'I' for Inactive)
    1  A    between atoms: C_1  and  C_18
    2  A    between atoms: C_3  and  N_21
    3  A    between atoms: C_7  and  C_24
    4  A    between atoms: C_8  and  C_28
    5  A    between atoms: N_11  and  C_28
    6  A    between atoms: N_11  and  C_29
    7  A    between atoms: C_14  and  C_29
    8  A    between atoms: N_21  and  C_27
    9  A    between atoms: O_23  and  C_29
   10  A    between atoms: O_23  and  C_30
                            x       y       z     vdW  Elec       q    Type
                         _______ _______ _______ _____ _____    ______ ____

>  <TORSDO>
F 10

$$$$
=
 OpenBabel11042413443D

 30 35  0  0  1  0  0  0  0  0999 V2000
  189.0000  174.7870  141.4150 C   0  0  1  0  0  3  0  0  0  0  0  0
  186.8910  177.5160  142.2820 C   0  0  0  0  0  0  0  0  0  0  0  0
  187.4160  176.4540  140.4250 N   0  0  0  0  0  0  0  0  0  0  0  0
  188.0560  175.9430  141.4970 C   0  0  0  0  0  0  0  0  0  0  0  0
  187.7620  176.5630  142.6540 N   0  0  0  0  0  0  0  0  0  0  0  0
  186.6680  177.4580  140.9210 C   0  0  0  0  0  2  0  0  0  0  0  0
  184.6980  177.4960  146.2240 C   0  0  0  0  0  3  0  0  0  0  0  0
  186.5160  178.0680  144.6610 C   0  0  0  0  0  0  0  0  0  0  0  0
  185.7190  177.3050  147.1880 C   0  0  0  0  0  3  0  0  0  0  0  0
  184.5380  178.2750  143.3130 S   0  0  0  0  0  0  0  0  0  0  0  0
  187.1020  177.4890  146.8750 C   0  0  0  0  0  3  0  0  0  0  0  0
  185.1420  177.8780  144.9710 C   0  0  0  0  0  0  0  0  0  0  0  0
  186.2580  178.4710  143.2540 C   0  0  2  0  0  3  0  0  0  0  0  0
  187.5300  177.8810  145.5850 C   0  0  0  0  0  3  0  0  0  0  0  0
  189.9680  174.8590  142.5020 N   0  0  0  0  0  2  0  0  0  0  0  0
  191.2950  174.9450  141.9150 C   0  0  0  0  0  2  0  0  0  0  0  0
  192.3480  174.6900  142.9790 C   0  0  1  0  0  0  0  0  0  0  0  0
  193.7580  174.7700  142.4330 C   0  0  0  0  0  2  0  0  0  0  0  0
  193.1510  175.9740  143.1220 C   0  0  2  0  0  3  0  0  0  0  0  0
  192.1620  175.5700  144.1960 C   0  0  2  0  0  3  0  0  0  0  0  0
  192.8650  174.9840  145.3240 N   0  0  0  0  0  2  0  0  0  0  0  0
  190.6470  175.4340  146.0310 C   0  0  2  0  0  3  0  0  0  0  0  0
  191.9950  175.1060  146.4800 C   0  0  2  0  0  3  0  0  0  0  0  0
  191.3360  176.7530  148.0230 C   0  0  0  0  0  1  0  0  0  0  0  0
  191.5290  176.4990  146.5960 N   0  0  0  0  0  0  0  0  0  0  0  0
  188.8720  174.4260  147.7000 N   0  0  0  0  0  0  0  0  0  0  0  0
  189.6540  174.8660  146.9650 C   0  0  0  0  0  0  0  0  0  0  0  0
  188.2830  173.5920  141.5040 O   0  0  0  0  0  0  0  0  0  0  0  0
  189.6180  172.1730  140.1410 C   0  0  0  0  0  1  0  0  0  0  0  0
  188.3700  173.0280  140.2320 C   0  0  0  0  0  2  0  0  0  0  0  0
  1  4  1  0  0  0  0
  1 28  1  1  0  0  0
  1 15  1  0  0  0  0
  2  5  2  0  0  0  0
  3  6  1  0  0  0  0
  3  4  2  0  0  0  0
  4  5  1  0  0  0  0
  6  2  1  0  0  0  0
  7  9  1  0  0  0  0
  8 12  1  0  0  0  0
  8 14  2  0  0  0  0
 10 12  1  0  0  0  0
 11  9  2  0  0  0  0
 12  7  2  0  0  0  0
 13  2  1  6  0  0  0
 13 10  1  0  0  0  0
 13  8  1  0  0  0  0
 14 11  1  0  0  0  0
 16 15  1  0  0  0  0
 17 16  1  6  0  0  0
 17 19  1  0  0  0  0
 17 20  1  0  0  0  0
 18 17  1  0  0  0  0
 19 18  1  1  0  0  0
 19 20  1  0  0  0  0
 20 21  1  1  0  0  0
 22 23  1  0  0  0  0
 22 25  1  0  0  0  0
 22 27  1  1  0  0  0
 23 21  1  6  0  0  0
 23 25  1  0  0  0  0
 25 24  1  0  0  0  0
 27 26  3  0  0  0  0
 29 30  1  0  0  0  0
 30 28  1  0  0  0  0
M  END
>  <MODEL>
7

>  <REMARK>
 VINA RESULT:      -5.9      2.541      6.085
  Name = 
  10 active torsions:
  status: ('A' for Active; 'I' for Inactive)
    1  A    between atoms: C_1  and  C_18
    2  A    between atoms: C_3  and  N_21
    3  A    between atoms: C_7  and  C_24
    4  A    between atoms: C_8  and  C_28
    5  A    between atoms: N_11  and  C_28
    6  A    between atoms: N_11  and  C_29
    7  A    between atoms: C_14  and  C_29
    8  A    between atoms: N_21  and  C_27
    9  A    between atoms: O_23  and  C_29
   10  A    between atoms: O_23  and  C_30
                            x       y       z     vdW  Elec       q    Type
                         _______ _______ _______ _____ _____    ______ ____

>  <TORSDO>
F 10

$$$$
=
 OpenBabel11042413443D

 30 35  0  0  1  0  0  0  0  0999 V2000
  189.2010  174.7890  141.0560 C   0  0  1  0  0  3  0  0  0  0  0  0
  187.2910  176.9900  143.0950 C   0  0  0  0  0  0  0  0  0  0  0  0
  187.0670  174.9250  142.3590 N   0  0  0  0  0  0  0  0  0  0  0  0
  188.2110  175.4940  141.9250 C   0  0  0  0  0  0  0  0  0  0  0  0
  188.3880  176.7580  142.3540 N   0  0  0  0  0  0  0  0  0  0  0  0
  186.4760  175.8740  143.1090 C   0  0  0  0  0  2  0  0  0  0  0  0
  184.4160  178.8250  146.0460 C   0  0  0  0  0  3  0  0  0  0  0  0
  186.6060  178.0660  145.2110 C   0  0  0  0  0  0  0  0  0  0  0  0
  184.8190  178.2980  147.2980 C   0  0  0  0  0  3  0  0  0  0  0  0
  185.5800  179.0430  143.2710 S   0  0  0  0  0  0  0  0  0  0  0  0
  186.0890  177.6670  147.4810 C   0  0  0  0  0  3  0  0  0  0  0  0
  185.3420  178.6870  145.0280 C   0  0  0  0  0  0  0  0  0  0  0  0
  187.0440  178.2880  143.8080 C   0  0  2  0  0  3  0  0  0  0  0  0
  187.0190  177.5390  146.4230 C   0  0  0  0  0  3  0  0  0  0  0  0
  190.4220  174.5250  141.8050 N   0  0  0  0  0  2  0  0  0  0  0  0
  190.3130  173.1960  142.3840 C   0  0  0  0  0  2  0  0  0  0  0  0
  189.9440  173.3030  143.8530 C   0  0  1  0  0  0  0  0  0  0  0  0
  189.6950  171.9520  144.4900 C   0  0  0  0  0  2  0  0  0  0  0  0
  191.0500  172.6120  144.6370 C   0  0  2  0  0  3  0  0  0  0  0  0
  190.9430  174.1230  144.6400 C   0  0  2  0  0  3  0  0  0  0  0  0
  190.3260  174.5760  145.8750 N   0  0  0  0  0  2  0  0  0  0  0  0
  192.3380  175.2930  146.9040 C   0  0  2  0  0  3  0  0  0  0  0  0
  191.0740  175.7350  146.3270 C   0  0  2  0  0  3  0  0  0  0  0  0
  191.2490  177.0790  148.2480 C   0  0  0  0  0  1  0  0  0  0  0  0
  191.2060  175.6900  147.7950 N   0  0  0  0  0  0  0  0  0  0  0  0
  194.1910  177.1290  146.5230 N   0  0  0  0  0  0  0  0  0  0  0  0
  193.3750  176.3230  146.6930 C   0  0  0  0  0  0  0  0  0  0  0  0
  188.6540  173.5850  140.6090 O   0  0  0  0  0  0  0  0  0  0  0  0
  189.6020  172.8460  138.5570 C   0  0  0  0  0  1  0  0  0  0  0  0
  188.5630  173.7240  139.2240 C   0  0  0  0  0  2  0  0  0  0  0  0
  1 28  1  1  0  0  0
  1 15  1  0  0  0  0
  1  4  1  0  0  0  0
  2  6  1  0  0  0  0
  3  6  1  0  0  0  0
  4  5  1  0  0  0  0
  4  3  2  0  0  0  0
  5  2  2  0  0  0  0
  7  9  1  0  0  0  0
  8 14  2  0  0  0  0
  9 11  2  0  0  0  0
 10 13  1  0  0  0  0
 10 12  1  0  0  0  0
 12  8  1  0  0  0  0
 12  7  2  0  0  0  0
 13  2  1  6  0  0  0
 13  8  1  0  0  0  0
 14 11  1  0  0  0  0
 15 16  1  0  0  0  0
 17 16  1  6  0  0  0
 17 18  1  0  0  0  0
 17 19  1  0  0  0  0
 17 20  1  0  0  0  0
 19 18  1  1  0  0  0
 19 20  1  0  0  0  0
 20 21  1  1  0  0  0
 22 27  1  6  0  0  0
 22 25  1  0  0  0  0
 23 21  1  1  0  0  0
 23 22  1  0  0  0  0
 23 25  1  0  0  0  0
 25 24  1  0  0  0  0
 26 27  3  0  0  0  0
 29 30  1  0  0  0  0
 30 28  1  0  0  0  0
M  END
>  <MODEL>
8

>  <REMARK>
 VINA RESULT:      -5.8      2.617      5.986
  Name = 
  10 active torsions:
  status: ('A' for Active; 'I' for Inactive)
    1  A    between atoms: C_1  and  C_18
    2  A    between atoms: C_3  and  N_21
    3  A    between atoms: C_7  and  C_24
    4  A    between atoms: C_8  and  C_28
    5  A    between atoms: N_11  and  C_28
    6  A    between atoms: N_11  and  C_29
    7  A    between atoms: C_14  and  C_29
    8  A    between atoms: N_21  and  C_27
    9  A    between atoms: O_23  and  C_29
   10  A    between atoms: O_23  and  C_30
                            x       y       z     vdW  Elec       q    Type
                         _______ _______ _______ _____ _____    ______ ____

>  <TORSDO>
F 10

$$$$
=
 OpenBabel11042413443D

 30 35  0  0  1  0  0  0  0  0999 V2000
  189.3670  177.4490  146.5850 C   0  0  1  0  0  3  0  0  0  0  0  0
  191.5790  176.1490  144.1220 C   0  0  0  0  0  0  0  0  0  0  0  0
  190.5030  178.0460  144.4350 N   0  0  0  0  0  0  0  0  0  0  0  0
  190.2590  177.1590  145.4210 C   0  0  0  0  0  0  0  0  0  0  0  0
  190.8990  175.9850  145.2700 N   0  0  0  0  0  0  0  0  0  0  0  0
  191.3480  177.4080  143.6030 C   0  0  0  0  0  2  0  0  0  0  0  0
  195.9550  175.3100  143.4240 C   0  0  0  0  0  3  0  0  0  0  0  0
  193.7060  174.9130  144.3480 C   0  0  0  0  0  0  0  0  0  0  0  0
  196.4410  174.9180  144.6960 C   0  0  0  0  0  3  0  0  0  0  0  0
  193.2640  175.6410  142.1020 S   0  0  0  0  0  0  0  0  0  0  0  0
  195.5630  174.5420  145.7600 C   0  0  0  0  0  3  0  0  0  0  0  0
  194.5780  175.2930  143.2940 C   0  0  0  0  0  0  0  0  0  0  0  0
  192.4710  175.0900  143.5410 C   0  0  2  0  0  3  0  0  0  0  0  0
  194.1580  174.5320  145.6000 C   0  0  0  0  0  3  0  0  0  0  0  0
  188.0980  176.7510  146.4250 N   0  0  0  0  0  2  0  0  0  0  0  0
  187.0450  177.6140  146.9340 C   0  0  0  0  0  2  0  0  0  0  0  0
  185.8580  177.5930  145.9880 C   0  0  1  0  0  0  0  0  0  0  0  0
  184.6360  178.2710  146.5710 C   0  0  0  0  0  2  0  0  0  0  0  0
  185.5470  179.0410  145.6380 C   0  0  2  0  0  3  0  0  0  0  0  0
  186.2050  178.1350  144.6180 C   0  0  2  0  0  3  0  0  0  0  0  0
  185.2190  177.6730  143.6550 N   0  0  0  0  0  2  0  0  0  0  0  0
  187.3630  177.3740  142.6880 C   0  0  2  0  0  3  0  0  0  0  0  0
  185.9470  177.0510  142.5630 C   0  0  2  0  0  3  0  0  0  0  0  0
  186.5510  177.5410  140.3450 C   0  0  0  0  0  1  0  0  0  0  0  0
  186.5140  178.0990  141.6950 N   0  0  0  0  0  0  0  0  0  0  0  0
  188.8230  175.4020  141.7230 N   0  0  0  0  0  0  0  0  0  0  0  0
  188.1800  176.2700  142.1440 C   0  0  0  0  0  0  0  0  0  0  0  0
  189.9880  177.0300  147.7630 O   0  0  0  0  0  0  0  0  0  0  0  0
  191.5670  177.9140  149.3060 C   0  0  0  0  0  1  0  0  0  0  0  0
  190.3970  178.2070  148.3900 C   0  0  0  0  0  2  0  0  0  0  0  0
  1 15  1  6  0  0  0
  1 28  1  0  0  0  0
  2  5  2  0  0  0  0
  3  4  2  0  0  0  0
  4  1  1  0  0  0  0
  5  4  1  0  0  0  0
  6  2  1  0  0  0  0
  6  3  1  0  0  0  0
  7  9  1  0  0  0  0
  8 14  2  0  0  0  0
  9 11  2  0  0  0  0
 10 12  1  0  0  0  0
 10 13  1  0  0  0  0
 12  7  2  0  0  0  0
 12  8  1  0  0  0  0
 13  2  1  1  0  0  0
 13  8  1  0  0  0  0
 14 11  1  0  0  0  0
 15 16  1  0  0  0  0
 17 18  1  0  0  0  0
 17 16  1  1  0  0  0
 19 17  1  0  0  0  0
 19 18  1  6  0  0  0
 20 21  1  6  0  0  0
 20 19  1  0  0  0  0
 20 17  1  0  0  0  0
 22 27  1  6  0  0  0
 23 22  1  0  0  0  0
 23 21  1  1  0  0  0
 24 25  1  0  0  0  0
 25 23  1  0  0  0  0
 25 22  1  0  0  0  0
 26 27  3  0  0  0  0
 28 30  1  0  0  0  0
 30 29  1  0  0  0  0
M  END
>  <MODEL>
9

>  <REMARK>
 VINA RESULT:      -5.8      2.952      5.312
  Name = 
  10 active torsions:
  status: ('A' for Active; 'I' for Inactive)
    1  A    between atoms: C_1  and  C_18
    2  A    between atoms: C_3  and  N_21
    3  A    between atoms: C_7  and  C_24
    4  A    between atoms: C_8  and  C_28
    5  A    between atoms: N_11  and  C_28
    6  A    between atoms: N_11  and  C_29
    7  A    between atoms: C_14  and  C_29
    8  A    between atoms: N_21  and  C_27
    9  A    between atoms: O_23  and  C_29
   10  A    between atoms: O_23  and  C_30
                            x       y       z     vdW  Elec       q    Type
                         _______ _______ _______ _____ _____    ______ ____

>  <TORSDO>
F 10

$$$$
