=
 OpenBabel11042417463D

 25 28  0  0  1  0  0  0  0  0999 V2000
  188.5990  175.2910  142.6920 C   0  0  0  0  0  0  0  0  0  0  0  0
  189.3420  171.7110  142.5720 O   0  0  0  0  0  0  0  0  0  0  0  0
  189.2420  172.9170  142.7210 C   0  0  0  0  0  0  0  0  0  0  0  0
  188.4510  173.9540  141.5050 S   0  0  0  0  0  0  0  0  0  0  0  0
  189.7440  173.6010  143.9400 C   0  0  0  0  0  2  0  0  0  0  0  0
  189.2510  175.0000  143.8240 C   0  0  0  0  0  0  0  0  0  0  0  0
  189.4810  175.9610  144.9610 C   0  0  1  0  0  3  0  0  0  0  0  0
  192.4990  175.9770  147.0500 C   0  0  0  0  0  3  0  0  0  0  0  0
  191.9110  176.6660  144.3730 C   0  0  0  0  0  3  0  0  0  0  0  0
  191.2120  175.8570  146.5320 C   0  0  0  0  0  0  0  0  0  0  0  0
  188.9440  175.4110  146.3030 C   0  0  0  0  0  3  0  0  0  0  0  0
  190.9260  176.1850  145.2370 C   0  0  0  0  0  0  0  0  0  0  0  0
  193.5120  176.4530  146.2010 C   0  0  0  0  0  3  0  0  0  0  0  0
  190.0750  175.3960  147.2320 N   0  0  0  0  0  0  0  0  0  0  0  0
  193.2180  176.7970  144.8660 C   0  0  0  0  0  3  0  0  0  0  0  0
  188.0230  176.5810  142.4600 N   0  0  0  0  0  2  0  0  0  0  0  0
  184.6910  178.0930  145.4420 C   0  0  0  0  0  0  0  0  0  0  0  0
  184.6950  177.0800  146.4430 N   0  0  0  0  0  1  0  0  0  0  0  0
  185.4670  178.8980  143.1710 C   0  0  0  0  0  2  0  0  0  0  0  0
  185.3860  177.8910  144.2070 N   0  0  0  0  0  0  0  0  0  0  0  0
  185.6250  178.3300  140.8650 O   0  0  0  0  0  1  0  0  0  0  0  0
  186.5920  176.8390  142.4630 C   0  0  1  0  0  3  0  0  0  0  0  0
  186.0590  176.6540  143.8710 C   0  0  0  0  0  2  0  0  0  0  0  0
  186.3210  178.2910  142.0740 C   0  0  2  0  0  3  0  0  0  0  0  0
  184.0800  179.1720  145.6560 O   0  0  0  0  0  0  0  0  0  0  0  0
  1  6  2  0  0  0  0
  2  3  2  0  0  0  0
  3  5  1  0  0  0  0
  4  1  1  0  0  0  0
  4  3  1  0  0  0  0
  6  5  1  0  0  0  0
  7  6  1  6  0  0  0
  7 12  1  0  0  0  0
  7 11  1  0  0  0  0
  9 15  2  0  0  0  0
  9 12  1  0  0  0  0
 10  8  1  0  0  0  0
 10 14  1  0  0  0  0
 11 14  2  0  0  0  0
 12 10  2  0  0  0  0
 13  8  2  0  0  0  0
 15 13  1  0  0  0  0
 16  1  1  0  0  0  0
 17 25  2  0  0  0  0
 17 18  1  0  0  0  0
 19 20  1  0  0  0  0
 20 17  1  0  0  0  0
 22 16  1  1  0  0  0
 22 23  1  0  0  0  0
 23 20  1  0  0  0  0
 24 21  1  6  0  0  0
 24 22  1  0  0  0  0
 24 19  1  0  0  0  0
M  END
>  <MODEL>
1

>  <REMARK>
 VINA RESULT:      -7.3      0.000      0.000
  Name = 
  3 active torsions:
  status: ('A' for Active; 'I' for Inactive)
    1  A    between atoms: C_1  and  N_13
    2  A    between atoms: C_8  and  C_21
    3  A    between atoms: N_13  and  C_14
                            x       y       z     vdW  Elec       q    Type
                         _______ _______ _______ _____ _____    ______ ____

>  <TORSDO>
F 3

$$$$
=
 OpenBabel11042417463D

 25 28  0  0  1  0  0  0  0  0999 V2000
  189.2610  175.3940  144.0740 C   0  0  0  0  0  0  0  0  0  0  0  0
  188.0030  173.3440  141.3180 O   0  0  0  0  0  0  0  0  0  0  0  0
  188.2530  174.0970  142.2430 C   0  0  0  0  0  0  0  0  0  0  0  0
  189.5470  173.7490  143.4200 S   0  0  0  0  0  0  0  0  0  0  0  0
  187.5160  175.3730  142.4370 C   0  0  0  0  0  2  0  0  0  0  0  0
  188.2490  176.0750  143.5250 C   0  0  0  0  0  0  0  0  0  0  0  0
  187.8390  177.4740  143.9070 C   0  0  1  0  0  3  0  0  0  0  0  0
  184.4950  178.3670  145.1290 C   0  0  0  0  0  3  0  0  0  0  0  0
  186.6900  176.9250  146.1710 C   0  0  0  0  0  3  0  0  0  0  0  0
  185.6680  178.1940  144.3970 C   0  0  0  0  0  0  0  0  0  0  0  0
  187.2580  178.2570  142.7070 C   0  0  0  0  0  3  0  0  0  0  0  0
  186.7290  177.4940  144.8970 C   0  0  0  0  0  0  0  0  0  0  0  0
  184.4250  177.7980  146.4110 C   0  0  0  0  0  3  0  0  0  0  0  0
  185.9150  178.6880  143.0980 N   0  0  0  0  0  0  0  0  0  0  0  0
  185.5210  177.0800  146.9310 C   0  0  0  0  0  3  0  0  0  0  0  0
  190.0890  175.9600  145.0960 N   0  0  0  0  0  2  0  0  0  0  0  0
  194.7880  175.5860  144.8470 C   0  0  0  0  0  0  0  0  0  0  0  0
  195.1360  175.2230  146.1790 N   0  0  0  0  0  1  0  0  0  0  0  0
  193.0320  176.3800  143.2070 C   0  0  0  0  0  2  0  0  0  0  0  0
  193.4670  176.0480  144.5460 N   0  0  0  0  0  0  0  0  0  0  0  0
  191.3840  178.0470  142.7900 O   0  0  0  0  0  1  0  0  0  0  0  0
  191.2420  176.8030  144.8260 C   0  0  1  0  0  3  0  0  0  0  0  0
  192.4480  176.2430  145.5550 C   0  0  0  0  0  2  0  0  0  0  0  0
  191.5730  176.7770  143.3350 C   0  0  2  0  0  3  0  0  0  0  0  0
  195.6480  175.4850  143.9340 O   0  0  0  0  0  0  0  0  0  0  0  0
  1 16  1  0  0  0  0
  2  3  2  0  0  0  0
  3  5  1  0  0  0  0
  3  4  1  0  0  0  0
  4  1  1  0  0  0  0
  5  6  1  0  0  0  0
  6  1  2  0  0  0  0
  7  6  1  6  0  0  0
  7 12  1  0  0  0  0
  8 13  1  0  0  0  0
  9 15  1  0  0  0  0
 10 12  1  0  0  0  0
 10  8  2  0  0  0  0
 11 14  2  0  0  0  0
 11  7  1  0  0  0  0
 12  9  2  0  0  0  0
 13 15  2  0  0  0  0
 14 10  1  0  0  0  0
 17 18  1  0  0  0  0
 19 24  1  0  0  0  0
 19 20  1  0  0  0  0
 20 17  1  0  0  0  0
 20 23  1  0  0  0  0
 22 16  1  6  0  0  0
 22 23  1  0  0  0  0
 24 21  1  1  0  0  0
 24 22  1  0  0  0  0
 25 17  2  0  0  0  0
M  END
>  <MODEL>
2

>  <REMARK>
 VINA RESULT:      -7.2      2.768      6.545
  Name = 
  3 active torsions:
  status: ('A' for Active; 'I' for Inactive)
    1  A    between atoms: C_1  and  N_13
    2  A    between atoms: C_8  and  C_21
    3  A    between atoms: N_13  and  C_14
                            x       y       z     vdW  Elec       q    Type
                         _______ _______ _______ _____ _____    ______ ____

>  <TORSDO>
F 3

$$$$
=
 OpenBabel11042417463D

 25 28  0  0  1  0  0  0  0  0999 V2000
  189.1660  176.5400  142.4750 C   0  0  0  0  0  0  0  0  0  0  0  0
  187.3240  173.4510  141.8030 O   0  0  0  0  0  0  0  0  0  0  0  0
  187.8120  174.5110  142.1570 C   0  0  0  0  0  0  0  0  0  0  0  0
  189.5450  174.8690  141.9420 S   0  0  0  0  0  0  0  0  0  0  0  0
  186.9900  175.5890  142.7640 C   0  0  0  0  0  2  0  0  0  0  0  0
  187.9020  176.7610  142.8550 C   0  0  0  0  0  0  0  0  0  0  0  0
  187.3590  178.0850  143.3250 C   0  0  1  0  0  3  0  0  0  0  0  0
  184.5030  178.4360  145.6030 C   0  0  0  0  0  3  0  0  0  0  0  0
  187.1700  177.5380  145.8570 C   0  0  0  0  0  3  0  0  0  0  0  0
  185.3740  178.4230  144.5160 C   0  0  0  0  0  0  0  0  0  0  0  0
  186.2620  178.6310  142.3810 C   0  0  0  0  0  3  0  0  0  0  0  0
  186.6630  177.9850  144.6360 C   0  0  0  0  0  0  0  0  0  0  0  0
  184.9840  177.9860  146.8430 C   0  0  0  0  0  3  0  0  0  0  0  0
  185.0670  178.8330  143.2010 N   0  0  0  0  0  0  0  0  0  0  0  0
  186.3150  177.5390  146.9700 C   0  0  0  0  0  3  0  0  0  0  0  0
  190.1460  177.5830  142.4600 N   0  0  0  0  0  2  0  0  0  0  0  0
  191.3130  176.2470  146.8350 C   0  0  0  0  0  0  0  0  0  0  0  0
  190.4410  177.0370  147.6380 N   0  0  0  0  0  1  0  0  0  0  0  0
  192.2890  175.7330  144.5570 C   0  0  0  0  0  2  0  0  0  0  0  0
  191.4640  176.5290  145.4400 N   0  0  0  0  0  0  0  0  0  0  0  0
  193.3840  176.6720  142.6630 O   0  0  0  0  0  1  0  0  0  0  0  0
  191.2990  177.6200  143.3460 C   0  0  1  0  0  3  0  0  0  0  0  0
  190.8180  177.6460  144.7840 C   0  0  0  0  0  2  0  0  0  0  0  0
  192.1290  176.3480  143.1790 C   0  0  2  0  0  3  0  0  0  0  0  0
  191.9410  175.2910  147.3600 O   0  0  0  0  0  0  0  0  0  0  0  0
  1  6  2  0  0  0  0
  2  3  2  0  0  0  0
  3  5  1  0  0  0  0
  4  3  1  0  0  0  0
  4  1  1  0  0  0  0
  5  6  1  0  0  0  0
  7  6  1  6  0  0  0
  7 12  1  0  0  0  0
  8 13  1  0  0  0  0
  9 15  1  0  0  0  0
 10 12  1  0  0  0  0
 10  8  2  0  0  0  0
 11 14  2  0  0  0  0
 11  7  1  0  0  0  0
 12  9  2  0  0  0  0
 13 15  2  0  0  0  0
 14 10  1  0  0  0  0
 16  1  1  0  0  0  0
 17 25  2  0  0  0  0
 17 18  1  0  0  0  0
 19 20  1  0  0  0  0
 20 17  1  0  0  0  0
 22 16  1  6  0  0  0
 22 23  1  0  0  0  0
 23 20  1  0  0  0  0
 24 21  1  1  0  0  0
 24 22  1  0  0  0  0
 24 19  1  0  0  0  0
M  END
>  <MODEL>
3

>  <REMARK>
 VINA RESULT:      -7.2      2.590      5.817
  Name = 
  3 active torsions:
  status: ('A' for Active; 'I' for Inactive)
    1  A    between atoms: C_1  and  N_13
    2  A    between atoms: C_8  and  C_21
    3  A    between atoms: N_13  and  C_14
                            x       y       z     vdW  Elec       q    Type
                         _______ _______ _______ _____ _____    ______ ____

>  <TORSDO>
F 3

$$$$
=
 OpenBabel11042417463D

 25 28  0  0  1  0  0  0  0  0999 V2000
  189.2140  175.3840  143.9010 C   0  0  0  0  0  0  0  0  0  0  0  0
  187.7610  173.2910  141.2770 O   0  0  0  0  0  0  0  0  0  0  0  0
  188.0790  174.0660  142.1630 C   0  0  0  0  0  0  0  0  0  0  0  0
  189.4110  173.7080  143.2930 S   0  0  0  0  0  0  0  0  0  0  0  0
  187.3980  175.3730  142.3450 C   0  0  0  0  0  2  0  0  0  0  0  0
  188.2030  176.0840  143.3740 C   0  0  0  0  0  0  0  0  0  0  0  0
  187.8600  177.5080  143.7250 C   0  0  1  0  0  3  0  0  0  0  0  0
  184.5530  178.5930  144.8910 C   0  0  0  0  0  3  0  0  0  0  0  0
  186.6610  177.0620  145.9850 C   0  0  0  0  0  3  0  0  0  0  0  0
  185.7240  178.3470  144.1760 C   0  0  0  0  0  0  0  0  0  0  0  0
  187.3340  178.2970  142.5040 C   0  0  0  0  0  3  0  0  0  0  0  0
  186.7420  177.6040  144.7020 C   0  0  0  0  0  0  0  0  0  0  0  0
  184.4410  178.0540  146.1820 C   0  0  0  0  0  3  0  0  0  0  0  0
  186.0100  178.8030  142.8700 N   0  0  0  0  0  0  0  0  0  0  0  0
  185.4930  177.2920  146.7290 C   0  0  0  0  0  3  0  0  0  0  0  0
  190.1070  175.9520  144.8660 N   0  0  0  0  0  2  0  0  0  0  0  0
  194.7280  176.3100  143.9710 C   0  0  0  0  0  0  0  0  0  0  0  0
  194.7990  175.9640  142.5910 N   0  0  0  0  0  1  0  0  0  0  0  0
  193.3670  176.4590  146.1000 C   0  0  0  0  0  2  0  0  0  0  0  0
  193.5250  176.0810  144.7120 N   0  0  0  0  0  0  0  0  0  0  0  0
  191.9620  175.2440  147.5880 O   0  0  0  0  0  1  0  0  0  0  0  0
  191.3540  175.3280  145.2780 C   0  0  1  0  0  3  0  0  0  0  0  0
  192.3590  175.4350  144.1480 C   0  0  0  0  0  2  0  0  0  0  0  0
  191.9460  176.0780  146.4700 C   0  0  2  0  0  3  0  0  0  0  0  0
  195.7280  176.8300  144.5310 O   0  0  0  0  0  0  0  0  0  0  0  0
  1 16  1  0  0  0  0
  2  3  2  0  0  0  0
  3  5  1  0  0  0  0
  3  4  1  0  0  0  0
  4  1  1  0  0  0  0
  5  6  1  0  0  0  0
  6  1  2  0  0  0  0
  7  6  1  6  0  0  0
  7 12  1  0  0  0  0
  8 13  1  0  0  0  0
  9 15  1  0  0  0  0
 10 12  1  0  0  0  0
 10  8  2  0  0  0  0
 11 14  2  0  0  0  0
 11  7  1  0  0  0  0
 12  9  2  0  0  0  0
 13 15  2  0  0  0  0
 14 10  1  0  0  0  0
 17 25  2  0  0  0  0
 17 20  1  0  0  0  0
 18 17  1  0  0  0  0
 19 24  1  0  0  0  0
 20 19  1  0  0  0  0
 22 16  1  6  0  0  0
 22 24  1  0  0  0  0
 23 20  1  0  0  0  0
 23 22  1  0  0  0  0
 24 21  1  1  0  0  0
M  END
>  <MODEL>
4

>  <REMARK>
 VINA RESULT:      -7.1      3.014      6.847
  Name = 
  3 active torsions:
  status: ('A' for Active; 'I' for Inactive)
    1  A    between atoms: C_1  and  N_13
    2  A    between atoms: C_8  and  C_21
    3  A    between atoms: N_13  and  C_14
                            x       y       z     vdW  Elec       q    Type
                         _______ _______ _______ _____ _____    ______ ____

>  <TORSDO>
F 3

$$$$
=
 OpenBabel11042417463D

 25 28  0  0  1  0  0  0  0  0999 V2000
  189.4140  175.8790  145.0040 C   0  0  0  0  0  0  0  0  0  0  0  0
  191.5530  177.0970  147.7110 O   0  0  0  0  0  0  0  0  0  0  0  0
  190.7230  176.8230  146.8610 C   0  0  0  0  0  0  0  0  0  0  0  0
  191.1710  176.0400  145.3230 S   0  0  0  0  0  0  0  0  0  0  0  0
  189.2760  177.0940  147.0610 C   0  0  0  0  0  2  0  0  0  0  0  0
  188.6010  176.4360  145.9100 C   0  0  0  0  0  0  0  0  0  0  0  0
  187.0960  176.4110  145.8530 C   0  0  1  0  0  3  0  0  0  0  0  0
  185.0070  179.4160  145.5700 C   0  0  0  0  0  3  0  0  0  0  0  0
  186.7680  178.0300  143.8490 C   0  0  0  0  0  3  0  0  0  0  0  0
  185.6750  178.2660  145.9830 C   0  0  0  0  0  0  0  0  0  0  0  0
  186.4600  176.4930  147.2600 C   0  0  0  0  0  3  0  0  0  0  0  0
  186.5310  177.5960  145.1540 C   0  0  0  0  0  0  0  0  0  0  0  0
  185.2320  179.8790  144.2630 C   0  0  0  0  0  3  0  0  0  0  0  0
  185.5760  177.6590  147.2540 N   0  0  0  0  0  0  0  0  0  0  0  0
  186.1090  179.1870  143.4050 C   0  0  0  0  0  3  0  0  0  0  0  0
  188.9090  175.1680  143.8700 N   0  0  0  0  0  2  0  0  0  0  0  0
  190.6200  172.8180  140.1510 C   0  0  0  0  0  0  0  0  0  0  0  0
  191.8780  172.3580  140.6330 N   0  0  0  0  0  1  0  0  0  0  0  0
  188.5710  174.2660  140.4810 C   0  0  0  0  0  2  0  0  0  0  0  0
  189.8780  173.7960  140.8860 N   0  0  0  0  0  0  0  0  0  0  0  0
  187.8160  176.4720  140.9610 O   0  0  0  0  0  1  0  0  0  0  0  0
  189.3210  175.4340  142.5010 C   0  0  1  0  0  3  0  0  0  0  0  0
  190.3730  174.4210  142.0940 C   0  0  0  0  0  2  0  0  0  0  0  0
  188.1380  175.2500  141.5520 C   0  0  2  0  0  3  0  0  0  0  0  0
  190.1600  172.3470  139.0770 O   0  0  0  0  0  0  0  0  0  0  0  0
  1  4  1  0  0  0  0
  1  6  2  0  0  0  0
  3  5  1  0  0  0  0
  3  2  2  0  0  0  0
  4  3  1  0  0  0  0
  6  5  1  0  0  0  0
  7  6  1  1  0  0  0
  7 11  1  0  0  0  0
  8 10  1  0  0  0  0
  9 12  1  0  0  0  0
 10 14  1  0  0  0  0
 12  7  1  0  0  0  0
 12 10  2  0  0  0  0
 13  8  2  0  0  0  0
 14 11  2  0  0  0  0
 15  9  2  0  0  0  0
 15 13  1  0  0  0  0
 16  1  1  0  0  0  0
 17 18  1  0  0  0  0
 17 20  1  0  0  0  0
 19 20  1  0  0  0  0
 19 24  1  0  0  0  0
 20 23  1  0  0  0  0
 22 16  1  1  0  0  0
 23 22  1  0  0  0  0
 24 21  1  6  0  0  0
 24 22  1  0  0  0  0
 25 17  2  0  0  0  0
M  END
>  <MODEL>
5

>  <REMARK>
 VINA RESULT:      -6.9      2.932      6.229
  Name = 
  3 active torsions:
  status: ('A' for Active; 'I' for Inactive)
    1  A    between atoms: C_1  and  N_13
    2  A    between atoms: C_8  and  C_21
    3  A    between atoms: N_13  and  C_14
                            x       y       z     vdW  Elec       q    Type
                         _______ _______ _______ _____ _____    ______ ____

>  <TORSDO>
F 3

$$$$
=
 OpenBabel11042417463D

 25 28  0  0  1  0  0  0  0  0999 V2000
  186.7610  178.1980  142.0020 C   0  0  0  0  0  0  0  0  0  0  0  0
  183.6330  177.8640  140.1350 O   0  0  0  0  0  0  0  0  0  0  0  0
  184.5720  177.9520  140.9080 C   0  0  0  0  0  0  0  0  0  0  0  0
  186.2370  177.5410  140.4180 S   0  0  0  0  0  0  0  0  0  0  0  0
  184.4000  178.4360  142.3010 C   0  0  0  0  0  2  0  0  0  0  0  0
  185.7830  178.5890  142.8270 C   0  0  0  0  0  0  0  0  0  0  0  0
  185.9910  179.1820  144.1960 C   0  0  1  0  0  3  0  0  0  0  0  0
  185.5870  177.3040  147.3240 C   0  0  0  0  0  3  0  0  0  0  0  0
  187.4580  177.2920  145.2070 C   0  0  0  0  0  3  0  0  0  0  0  0
  185.4640  178.1680  146.2380 C   0  0  0  0  0  0  0  0  0  0  0  0
  184.6900  179.7910  144.7690 C   0  0  0  0  0  3  0  0  0  0  0  0
  186.3650  178.1600  145.2100 C   0  0  0  0  0  0  0  0  0  0  0  0
  186.6730  176.4140  147.3430 C   0  0  0  0  0  3  0  0  0  0  0  0
  184.4410  179.1220  146.0470 N   0  0  0  0  0  0  0  0  0  0  0  0
  187.6060  176.4090  146.2880 C   0  0  0  0  0  3  0  0  0  0  0  0
  188.1430  178.3310  142.3500 N   0  0  0  0  0  2  0  0  0  0  0  0
  191.7510  176.0940  144.4150 C   0  0  0  0  0  0  0  0  0  0  0  0
  192.6350  177.1660  144.7290 N   0  0  0  0  0  1  0  0  0  0  0  0
  189.6690  175.2800  143.2290 C   0  0  0  0  0  2  0  0  0  0  0  0
  190.6350  176.3090  143.5450 N   0  0  0  0  0  0  0  0  0  0  0  0
  188.5340  175.2110  141.1380 O   0  0  0  0  0  1  0  0  0  0  0  0
  189.1590  177.3460  142.0130 C   0  0  1  0  0  3  0  0  0  0  0  0
  190.3780  177.5720  142.8860 C   0  0  0  0  0  2  0  0  0  0  0  0
  188.6470  175.9400  142.3220 C   0  0  2  0  0  3  0  0  0  0  0  0
  191.9530  174.9590  144.9190 O   0  0  0  0  0  0  0  0  0  0  0  0
  1 16  1  0  0  0  0
  1  6  2  0  0  0  0
  2  3  2  0  0  0  0
  3  5  1  0  0  0  0
  4  3  1  0  0  0  0
  4  1  1  0  0  0  0
  5  6  1  0  0  0  0
  7  6  1  6  0  0  0
  7 11  1  0  0  0  0
  7 12  1  0  0  0  0
  8 13  1  0  0  0  0
  9 12  2  0  0  0  0
  9 15  1  0  0  0  0
 10  8  2  0  0  0  0
 11 14  2  0  0  0  0
 12 10  1  0  0  0  0
 14 10  1  0  0  0  0
 15 13  2  0  0  0  0
 17 18  1  0  0  0  0
 17 25  2  0  0  0  0
 19 20  1  0  0  0  0
 20 17  1  0  0  0  0
 22 24  1  0  0  0  0
 22 16  1  1  0  0  0
 22 23  1  0  0  0  0
 23 20  1  0  0  0  0
 24 21  1  6  0  0  0
 24 19  1  0  0  0  0
M  END
>  <MODEL>
6

>  <REMARK>
 VINA RESULT:      -6.9      2.426      5.954
  Name = 
  3 active torsions:
  status: ('A' for Active; 'I' for Inactive)
    1  A    between atoms: C_1  and  N_13
    2  A    between atoms: C_8  and  C_21
    3  A    between atoms: N_13  and  C_14
                            x       y       z     vdW  Elec       q    Type
                         _______ _______ _______ _____ _____    ______ ____

>  <TORSDO>
F 3

$$$$
=
 OpenBabel11042417463D

 25 28  0  0  1  0  0  0  0  0999 V2000
  189.8790  174.7500  142.5720 C   0  0  0  0  0  0  0  0  0  0  0  0
  187.1350  172.5860  141.4910 O   0  0  0  0  0  0  0  0  0  0  0  0
  187.9200  173.4050  141.9360 C   0  0  0  0  0  0  0  0  0  0  0  0
  189.6330  173.0060  142.2320 S   0  0  0  0  0  0  0  0  0  0  0  0
  187.5110  174.8010  142.2360 C   0  0  0  0  0  2  0  0  0  0  0  0
  188.7790  175.5110  142.5530 C   0  0  0  0  0  0  0  0  0  0  0  0
  188.7520  176.9980  142.7960 C   0  0  1  0  0  3  0  0  0  0  0  0
  186.0020  178.7490  144.4820 C   0  0  0  0  0  3  0  0  0  0  0  0
  188.0340  176.9600  145.2910 C   0  0  0  0  0  3  0  0  0  0  0  0
  186.9290  178.2400  143.5760 C   0  0  0  0  0  0  0  0  0  0  0  0
  188.0960  177.7660  141.6250 C   0  0  0  0  0  3  0  0  0  0  0  0
  187.9100  177.3710  143.9640 C   0  0  0  0  0  0  0  0  0  0  0  0
  186.0980  178.3460  145.8240 C   0  0  0  0  0  3  0  0  0  0  0  0
  186.9840  178.5290  142.1940 N   0  0  0  0  0  0  0  0  0  0  0  0
  187.1120  177.4550  146.2280 C   0  0  0  0  0  3  0  0  0  0  0  0
  191.1780  175.3010  142.8120 N   0  0  0  0  0  2  0  0  0  0  0  0
  194.8440  177.0910  145.1870 C   0  0  0  0  0  0  0  0  0  0  0  0
  195.8910  177.0310  144.2240 N   0  0  0  0  0  1  0  0  0  0  0  0
  192.4860  176.4710  145.8670 C   0  0  0  0  0  2  0  0  0  0  0  0
  193.6090  176.4070  144.9560 N   0  0  0  0  0  0  0  0  0  0  0  0
  190.9540  174.6670  146.1140 O   0  0  0  0  0  1  0  0  0  0  0  0
  191.9840  174.9880  143.9810 C   0  0  1  0  0  3  0  0  0  0  0  0
  193.3720  175.5720  143.7980 C   0  0  0  0  0  2  0  0  0  0  0  0
  191.3860  175.6480  145.2220 C   0  0  2  0  0  3  0  0  0  0  0  0
  195.0100  177.7620  146.2400 O   0  0  0  0  0  0  0  0  0  0  0  0
  1 16  1  0  0  0  0
  2  3  2  0  0  0  0
  3  4  1  0  0  0  0
  3  5  1  0  0  0  0
  4  1  1  0  0  0  0
  5  6  1  0  0  0  0
  6  1  2  0  0  0  0
  7  6  1  6  0  0  0
  7 12  1  0  0  0  0
  8 13  1  0  0  0  0
  9 15  1  0  0  0  0
 10 12  1  0  0  0  0
 10  8  2  0  0  0  0
 11 14  2  0  0  0  0
 11  7  1  0  0  0  0
 12  9  2  0  0  0  0
 13 15  2  0  0  0  0
 14 10  1  0  0  0  0
 17 25  2  0  0  0  0
 18 17  1  0  0  0  0
 20 17  1  0  0  0  0
 20 19  1  0  0  0  0
 22 16  1  6  0  0  0
 22 24  1  0  0  0  0
 23 22  1  0  0  0  0
 23 20  1  0  0  0  0
 24 19  1  0  0  0  0
 24 21  1  1  0  0  0
M  END
>  <MODEL>
7

>  <REMARK>
 VINA RESULT:      -6.8      3.101      6.395
  Name = 
  3 active torsions:
  status: ('A' for Active; 'I' for Inactive)
    1  A    between atoms: C_1  and  N_13
    2  A    between atoms: C_8  and  C_21
    3  A    between atoms: N_13  and  C_14
                            x       y       z     vdW  Elec       q    Type
                         _______ _______ _______ _____ _____    ______ ____

>  <TORSDO>
F 3

$$$$
=
 OpenBabel11042417463D

 25 28  0  0  1  0  0  0  0  0999 V2000
  188.8860  175.3950  143.4760 C   0  0  0  0  0  0  0  0  0  0  0  0
  187.6080  177.9690  141.2140 O   0  0  0  0  0  0  0  0  0  0  0  0
  187.8870  177.1500  142.0720 C   0  0  0  0  0  0  0  0  0  0  0  0
  188.8590  175.6990  141.7090 S   0  0  0  0  0  0  0  0  0  0  0  0
  187.4640  177.3180  143.4860 C   0  0  0  0  0  2  0  0  0  0  0  0
  188.1680  176.2380  144.2270 C   0  0  0  0  0  0  0  0  0  0  0  0
  188.0580  176.1790  145.7290 C   0  0  1  0  0  3  0  0  0  0  0  0
  186.3370  178.7090  147.7570 C   0  0  0  0  0  3  0  0  0  0  0  0
  185.5230  176.7030  145.9410 C   0  0  0  0  0  3  0  0  0  0  0  0
  187.2600  177.8780  147.1250 C   0  0  0  0  0  0  0  0  0  0  0  0
  189.2420  176.8890  146.4260 C   0  0  0  0  0  3  0  0  0  0  0  0
  186.8690  176.9110  146.2440 C   0  0  0  0  0  0  0  0  0  0  0  0
  184.9760  178.5260  147.4660 C   0  0  0  0  0  3  0  0  0  0  0  0
  188.6620  177.9180  147.2910 N   0  0  0  0  0  0  0  0  0  0  0  0
  184.5690  177.5250  146.5620 C   0  0  0  0  0  3  0  0  0  0  0  0
  189.6580  174.3360  144.0530 N   0  0  0  0  0  2  0  0  0  0  0  0
  193.9190  175.7520  145.5100 C   0  0  0  0  0  0  0  0  0  0  0  0
  193.9010  177.1420  145.2010 N   0  0  0  0  0  1  0  0  0  0  0  0
  192.8330  173.4750  145.3140 C   0  0  0  0  0  2  0  0  0  0  0  0
  192.9040  174.8840  144.9950 N   0  0  0  0  0  0  0  0  0  0  0  0
  191.9470  171.8770  143.7880 O   0  0  0  0  0  1  0  0  0  0  0  0
  191.0580  174.0960  143.7420 C   0  0  1  0  0  3  0  0  0  0  0  0
  191.8640  175.3310  144.0940 C   0  0  0  0  0  2  0  0  0  0  0  0
  191.5970  172.9550  144.6020 C   0  0  2  0  0  3  0  0  0  0  0  0
  194.8290  175.2950  146.2500 O   0  0  0  0  0  0  0  0  0  0  0  0
  1 16  1  0  0  0  0
  1  6  2  0  0  0  0
  2  3  2  0  0  0  0
  3  5  1  0  0  0  0
  4  3  1  0  0  0  0
  4  1  1  0  0  0  0
  5  6  1  0  0  0  0
  7  6  1  6  0  0  0
  7 12  1  0  0  0  0
  7 11  1  0  0  0  0
  9 12  2  0  0  0  0
  9 15  1  0  0  0  0
 10 14  1  0  0  0  0
 10  8  2  0  0  0  0
 11 14  2  0  0  0  0
 12 10  1  0  0  0  0
 13  8  1  0  0  0  0
 15 13  2  0  0  0  0
 17 25  2  0  0  0  0
 18 17  1  0  0  0  0
 20 19  1  0  0  0  0
 20 17  1  0  0  0  0
 22 16  1  1  0  0  0
 22 23  1  0  0  0  0
 22 24  1  0  0  0  0
 23 20  1  0  0  0  0
 24 21  1  6  0  0  0
 24 19  1  0  0  0  0
M  END
>  <MODEL>
8

>  <REMARK>
 VINA RESULT:      -6.8      2.745      6.566
  Name = 
  3 active torsions:
  status: ('A' for Active; 'I' for Inactive)
    1  A    between atoms: C_1  and  N_13
    2  A    between atoms: C_8  and  C_21
    3  A    between atoms: N_13  and  C_14
                            x       y       z     vdW  Elec       q    Type
                         _______ _______ _______ _____ _____    ______ ____

>  <TORSDO>
F 3

$$$$
=
 OpenBabel11042417463D

 25 28  0  0  1  0  0  0  0  0999 V2000
  189.6290  175.8470  143.2120 C   0  0  0  0  0  0  0  0  0  0  0  0
  192.5820  177.2880  144.8200 O   0  0  0  0  0  0  0  0  0  0  0  0
  191.5030  176.9360  144.3740 C   0  0  0  0  0  0  0  0  0  0  0  0
  191.3590  176.0950  142.8090 S   0  0  0  0  0  0  0  0  0  0  0  0
  190.2370  177.1580  145.1180 C   0  0  0  0  0  2  0  0  0  0  0  0
  189.2050  176.4150  144.3470 C   0  0  0  0  0  0  0  0  0  0  0  0
  187.8010  176.3260  144.8870 C   0  0  1  0  0  3  0  0  0  0  0  0
  185.6960  179.2450  145.6130 C   0  0  0  0  0  3  0  0  0  0  0  0
  186.6650  178.0070  143.2650 C   0  0  0  0  0  3  0  0  0  0  0  0
  186.5020  178.1090  145.6660 C   0  0  0  0  0  0  0  0  0  0  0  0
  187.7730  176.3230  146.4330 C   0  0  0  0  0  3  0  0  0  0  0  0
  186.9750  177.5120  144.5320 C   0  0  0  0  0  0  0  0  0  0  0  0
  185.3740  179.7690  144.3510 C   0  0  0  0  0  3  0  0  0  0  0  0
  186.9300  177.4490  146.8390 N   0  0  0  0  0  0  0  0  0  0  0  0
  185.8560  179.1510  143.1800 C   0  0  0  0  0  3  0  0  0  0  0  0
  188.7620  175.0580  142.3900 N   0  0  0  0  0  2  0  0  0  0  0  0
  190.1740  171.3290  139.8630 C   0  0  0  0  0  0  0  0  0  0  0  0
  189.4540  171.4950  138.6460 N   0  0  0  0  0  1  0  0  0  0  0  0
  190.5660  172.0350  142.2620 C   0  0  0  0  0  2  0  0  0  0  0  0
  189.8410  172.1140  141.0120 N   0  0  0  0  0  0  0  0  0  0  0  0
  189.5160  172.4300  144.3610 O   0  0  0  0  0  1  0  0  0  0  0  0
  188.6950  173.6060  142.4480 C   0  0  1  0  0  3  0  0  0  0  0  0
  188.7380  173.0510  141.0380 C   0  0  0  0  0  2  0  0  0  0  0  0
  189.9170  173.0540  143.1790 C   0  0  2  0  0  3  0  0  0  0  0  0
  191.1130  170.4920  139.9170 O   0  0  0  0  0  0  0  0  0  0  0  0
  1  6  2  0  0  0  0
  3  2  2  0  0  0  0
  3  5  1  0  0  0  0
  4  1  1  0  0  0  0
  4  3  1  0  0  0  0
  6  5  1  0  0  0  0
  7  6  1  1  0  0  0
  7 11  1  0  0  0  0
  8 10  1  0  0  0  0
  9 12  1  0  0  0  0
 10 14  1  0  0  0  0
 11 14  2  0  0  0  0
 12  7  1  0  0  0  0
 12 10  2  0  0  0  0
 13  8  2  0  0  0  0
 15  9  2  0  0  0  0
 15 13  1  0  0  0  0
 16  1  1  0  0  0  0
 17 25  2  0  0  0  0
 17 20  1  0  0  0  0
 18 17  1  0  0  0  0
 19 24  1  0  0  0  0
 20 23  1  0  0  0  0
 20 19  1  0  0  0  0
 22 16  1  6  0  0  0
 22 24  1  0  0  0  0
 23 22  1  0  0  0  0
 24 21  1  1  0  0  0
M  END
>  <MODEL>
9

>  <REMARK>
 VINA RESULT:      -6.7      3.039      6.536
  Name = 
  3 active torsions:
  status: ('A' for Active; 'I' for Inactive)
    1  A    between atoms: C_1  and  N_13
    2  A    between atoms: C_8  and  C_21
    3  A    between atoms: N_13  and  C_14
                            x       y       z     vdW  Elec       q    Type
                         _______ _______ _______ _____ _____    ______ ____

>  <TORSDO>
F 3

$$$$
