=
 OpenBabel11042413583D

 36 39  0  0  1  0  0  0  0  0999 V2000
  189.1940  175.7770  144.3870 N   0  0  2  0  0  0  0  0  0  0  0  0
  191.0660  176.5850  145.6080 N   0  0  0  0  0  0  0  0  0  0  0  0
  191.2670  176.0600  143.2480 C   0  0  0  0  0  2  0  0  0  0  0  0
  188.9960  175.2690  143.0340 C   0  0  0  0  0  2  0  0  0  0  0  0
  189.1280  177.0340  147.0060 N   0  0  0  0  0  0  0  0  0  0  0  0
  190.5390  176.8160  146.7770 C   0  0  0  0  0  0  0  0  0  0  0  0
  188.0550  176.6100  144.7730 C   0  0  1  0  0  3  0  0  0  0  0  0
  190.3780  176.6130  144.3330 C   0  0  1  0  0  3  0  0  0  0  0  0
  188.0810  176.9530  146.2320 C   0  0  0  0  0  3  0  0  0  0  0  0
  190.3160  175.3730  142.2930 C   0  0  2  0  0  3  0  0  0  0  0  0
  192.7530  176.8590  147.5640 F   0  0  0  0  0  0  0  0  0  0  0  0
  191.2630  175.5610  148.6460 F   0  0  0  0  0  0  0  0  0  0  0  0
  191.1500  177.7990  148.8390 F   0  0  0  0  0  0  0  0  0  0  0  0
  191.4370  176.7580  147.9750 C   0  0  0  0  0  0  0  0  0  0  0  0
  190.8030  174.0390  141.9810 N   0  0  0  0  0  2  0  0  0  0  0  0
  190.3860  173.3100  140.8210 C   0  0  0  0  0  0  0  0  0  0  0  0
  189.5480  173.8320  140.0340 O   0  0  0  0  0  0  0  0  0  0  0  0
  192.4180  172.7350  138.5970 C   0  0  0  0  0  1  0  0  0  0  0  0
  190.4660  170.8850  141.3140 C   0  0  0  0  0  3  0  0  0  0  0  0
  190.9210  171.9550  140.5240 C   0  0  0  0  0  0  0  0  0  0  0  0
  191.8600  171.6820  139.4940 C   0  0  0  0  0  0  0  0  0  0  0  0
  192.3090  170.3730  139.2910 C   0  0  0  0  0  3  0  0  0  0  0  0
  191.8420  169.3270  140.0870 C   0  0  0  0  0  3  0  0  0  0  0  0
  190.9200  169.5840  141.1000 C   0  0  0  0  0  0  0  0  0  0  0  0
  190.4650  168.5700  141.8750 F   0  0  0  0  0  0  0  0  0  0  0  0
  187.9520  177.8330  143.9720 N   0  0  0  0  0  2  0  0  0  0  0  0
  184.0330  178.6960  145.3580 N   0  0  0  0  0  1  0  0  0  0  0  0
  182.9930  178.3190  140.6890 C   0  0  0  0  0  1  0  0  0  0  0  0
  184.5380  178.7050  144.0280 C   0  0  0  0  0  0  0  0  0  0  0  0
  186.7850  178.1990  143.2270 C   0  0  0  0  0  0  0  0  0  0  0  0
  185.5150  177.7180  139.8600 F   0  0  0  0  0  0  0  0  0  0  0  0
  184.1180  178.2100  141.6600 C   0  0  0  0  0  0  0  0  0  0  0  0
  185.3480  177.9070  141.1950 C   0  0  0  0  0  0  0  0  0  0  0  0
  186.5310  177.6410  142.0390 C   0  0  0  0  0  3  0  0  0  0  0  0
  183.7800  178.2900  143.0580 N   0  0  0  0  0  0  0  0  0  0  0  0
  185.8980  179.2570  143.7790 C   0  0  0  0  0  2  0  0  0  0  0  0
  1  4  1  6  0  0  0
  1  7  1  0  0  0  0
  2  6  2  0  0  0  0
  6  5  1  0  0  0  0
  6 14  1  0  0  0  0
  7 26  1  6  0  0  0
  7  9  1  0  0  0  0
  8  3  1  6  0  0  0
  8  1  1  0  0  0  0
  8  2  1  0  0  0  0
  9  5  2  0  0  0  0
 10 15  1  1  0  0  0
 10  4  1  0  0  0  0
 10  3  1  0  0  0  0
 11 14  1  0  0  0  0
 14 12  1  0  0  0  0
 14 13  1  0  0  0  0
 16 15  1  0  0  0  0
 17 16  2  0  0  0  0
 18 21  1  0  0  0  0
 20 16  1  0  0  0  0
 20 19  2  0  0  0  0
 21 20  1  0  0  0  0
 22 21  2  0  0  0  0
 22 23  1  0  0  0  0
 23 24  2  0  0  0  0
 24 19  1  0  0  0  0
 24 25  1  0  0  0  0
 28 32  1  0  0  0  0
 29 27  1  0  0  0  0
 30 36  1  0  0  0  0
 30 26  1  0  0  0  0
 31 33  1  0  0  0  0
 32 35  1  0  0  0  0
 33 32  2  0  0  0  0
 33 34  1  0  0  0  0
 34 30  2  0  0  0  0
 35 29  2  0  0  0  0
 36 29  1  0  0  0  0
M  END
>  <MODEL>
1

>  <REMARK>
 VINA RESULT:      -8.4      0.000      0.000
  Name = 
  5 active torsions:
  status: ('A' for Active; 'I' for Inactive)
    1  A    between atoms: N_5  and  C_31
    2  A    between atoms: C_7  and  C_15
    3  A    between atoms: C_12  and  C_28
    4  A    between atoms: C_13  and  N_33
    5  A    between atoms: C_21  and  N_33
                            x       y       z     vdW  Elec       q    Type
                         _______ _______ _______ _____ _____    ______ ____

>  <TORSDO>
F 5

$$$$
=
 OpenBabel11042413583D

 36 39  0  0  1  0  0  0  0  0999 V2000
  191.4720  175.2900  143.0200 N   0  0  2  0  0  0  0  0  0  0  0  0
  192.7020  175.0810  145.0430 N   0  0  0  0  0  0  0  0  0  0  0  0
  190.3250  174.5960  144.9890 C   0  0  0  0  0  2  0  0  0  0  0  0
  190.0600  175.1950  142.6650 C   0  0  0  0  0  2  0  0  0  0  0  0
  194.3650  175.2160  143.2760 N   0  0  0  0  0  0  0  0  0  0  0  0
  193.9140  175.3420  144.6440 C   0  0  0  0  0  0  0  0  0  0  0  0
  192.2860  174.6710  141.9730 C   0  0  1  0  0  3  0  0  0  0  0  0
  191.6320  174.5230  144.2410 C   0  0  1  0  0  3  0  0  0  0  0  0
  193.7460  174.9570  142.1570 C   0  0  0  0  0  3  0  0  0  0  0  0
  189.2850  174.8160  143.9140 C   0  0  2  0  0  3  0  0  0  0  0  0
  195.3240  177.1350  145.2110 F   0  0  0  0  0  0  0  0  0  0  0  0
  195.9620  175.0530  145.7910 F   0  0  0  0  0  0  0  0  0  0  0  0
  194.2600  176.0470  146.8740 F   0  0  0  0  0  0  0  0  0  0  0  0
  194.8780  175.9000  145.6450 C   0  0  0  0  0  0  0  0  0  0  0  0
  188.4060  175.9120  144.2890 N   0  0  0  0  0  2  0  0  0  0  0  0
  187.1280  176.1280  143.6810 C   0  0  0  0  0  0  0  0  0  0  0  0
  186.7410  175.3480  142.7660 O   0  0  0  0  0  0  0  0  0  0  0  0
  186.8270  178.7430  142.1060 C   0  0  0  0  0  1  0  0  0  0  0  0
  185.5160  177.0910  145.2950 C   0  0  0  0  0  3  0  0  0  0  0  0
  186.2480  177.2490  144.1060 C   0  0  0  0  0  0  0  0  0  0  0  0
  186.1060  178.4630  143.3820 C   0  0  0  0  0  0  0  0  0  0  0  0
  185.2510  179.4630  143.8590 C   0  0  0  0  0  3  0  0  0  0  0  0
  184.5360  179.2820  145.0420 C   0  0  0  0  0  3  0  0  0  0  0  0
  184.6680  178.0960  145.7600 C   0  0  0  0  0  0  0  0  0  0  0  0
  183.9740  177.9190  146.9110 F   0  0  0  0  0  0  0  0  0  0  0  0
  192.0680  173.2250  141.8670 N   0  0  0  0  0  2  0  0  0  0  0  0
  188.6940  174.1170  139.4500 N   0  0  0  0  0  1  0  0  0  0  0  0
  189.7140  169.8220  137.5680 C   0  0  0  0  0  1  0  0  0  0  0  0
  189.6740  173.0990  139.2850 C   0  0  0  0  0  0  0  0  0  0  0  0
  191.6070  172.5770  140.6770 C   0  0  0  0  0  0  0  0  0  0  0  0
  191.8390  169.2780  139.1800 F   0  0  0  0  0  0  0  0  0  0  0  0
  190.1510  170.7850  138.6190 C   0  0  0  0  0  0  0  0  0  0  0  0
  191.2100  170.4630  139.3920 C   0  0  0  0  0  0  0  0  0  0  0  0
  191.6820  171.2480  140.5500 C   0  0  0  0  0  3  0  0  0  0  0  0
  189.3120  171.9350  138.8360 N   0  0  0  0  0  0  0  0  0  0  0  0
  191.1000  173.4230  139.5630 C   0  0  0  0  0  2  0  0  0  0  0  0
  1  4  1  6  0  0  0
  1  8  1  0  0  0  0
  4 10  1  0  0  0  0
  5  6  1  0  0  0  0
  6  2  2  0  0  0  0
  6 14  1  0  0  0  0
  7 26  1  1  0  0  0
  7  9  1  0  0  0  0
  7  1  1  0  0  0  0
  8  3  1  1  0  0  0
  8  2  1  0  0  0  0
  9  5  2  0  0  0  0
 10 15  1  1  0  0  0
 10  3  1  0  0  0  0
 11 14  1  0  0  0  0
 14 12  1  0  0  0  0
 14 13  1  0  0  0  0
 16 20  1  0  0  0  0
 16 15  1  0  0  0  0
 17 16  2  0  0  0  0
 18 21  1  0  0  0  0
 19 24  1  0  0  0  0
 20 19  2  0  0  0  0
 21 22  2  0  0  0  0
 21 20  1  0  0  0  0
 22 23  1  0  0  0  0
 23 24  2  0  0  0  0
 24 25  1  0  0  0  0
 28 32  1  0  0  0  0
 29 27  1  0  0  0  0
 29 36  1  0  0  0  0
 30 26  1  0  0  0  0
 31 33  1  0  0  0  0
 32 35  1  0  0  0  0
 32 33  2  0  0  0  0
 33 34  1  0  0  0  0
 34 30  2  0  0  0  0
 35 29  2  0  0  0  0
 36 30  1  0  0  0  0
M  END
>  <MODEL>
2

>  <REMARK>
 VINA RESULT:      -8.3      2.779      7.776
  Name = 
  5 active torsions:
  status: ('A' for Active; 'I' for Inactive)
    1  A    between atoms: N_5  and  C_31
    2  A    between atoms: C_7  and  C_15
    3  A    between atoms: C_12  and  C_28
    4  A    between atoms: C_13  and  N_33
    5  A    between atoms: C_21  and  N_33
                            x       y       z     vdW  Elec       q    Type
                         _______ _______ _______ _____ _____    ______ ____

>  <TORSDO>
F 5

$$$$
=
 OpenBabel11042413583D

 36 39  0  0  1  0  0  0  0  0999 V2000
  189.7620  173.2120  143.1370 N   0  0  2  0  0  0  0  0  0  0  0  0
  189.7000  173.5930  140.7920 N   0  0  0  0  0  0  0  0  0  0  0  0
  189.7510  175.4580  142.3430 C   0  0  0  0  0  2  0  0  0  0  0  0
  189.6850  174.0680  144.3160 C   0  0  0  0  0  2  0  0  0  0  0  0
  190.2900  171.2510  141.0600 N   0  0  0  0  0  0  0  0  0  0  0  0
  189.7630  172.3790  140.3250 C   0  0  0  0  0  0  0  0  0  0  0  0
  190.7480  172.1540  143.3600 C   0  0  1  0  0  3  0  0  0  0  0  0
  190.2330  174.0590  142.0560 C   0  0  1  0  0  3  0  0  0  0  0  0
  190.6920  171.1040  142.2920 C   0  0  0  0  0  3  0  0  0  0  0  0
  189.6100  175.5100  143.8480 C   0  0  2  0  0  3  0  0  0  0  0  0
  187.8130  172.4030  139.0130 F   0  0  0  0  0  0  0  0  0  0  0  0
  189.3340  170.7850  138.6310 F   0  0  0  0  0  0  0  0  0  0  0  0
  189.7730  172.9040  138.0200 F   0  0  0  0  0  0  0  0  0  0  0  0
  189.1640  172.1130  138.9780 C   0  0  0  0  0  0  0  0  0  0  0  0
  188.3170  176.0700  144.2080 N   0  0  0  0  0  2  0  0  0  0  0  0
  188.1470  177.4280  144.6280 C   0  0  0  0  0  0  0  0  0  0  0  0
  189.1580  178.1800  144.7070 O   0  0  0  0  0  0  0  0  0  0  0  0
  186.2400  178.6640  142.5680 C   0  0  0  0  0  1  0  0  0  0  0  0
  186.3960  177.9050  146.3120 C   0  0  0  0  0  3  0  0  0  0  0  0
  186.8050  177.9700  144.9690 C   0  0  0  0  0  0  0  0  0  0  0  0
  185.9180  178.5450  144.0200 C   0  0  0  0  0  0  0  0  0  0  0  0
  184.6720  179.0280  144.4350 C   0  0  0  0  0  3  0  0  0  0  0  0
  184.2890  178.9530  145.7740 C   0  0  0  0  0  3  0  0  0  0  0  0
  185.1510  178.3920  146.7120 C   0  0  0  0  0  0  0  0  0  0  0  0
  184.7820  178.3180  148.0140 F   0  0  0  0  0  0  0  0  0  0  0  0
  192.1140  172.6710  143.4850 N   0  0  0  0  0  2  0  0  0  0  0  0
  195.7300  174.4200  144.8590 N   0  0  0  0  0  1  0  0  0  0  0  0
  196.4820  169.9900  146.5410 C   0  0  0  0  0  1  0  0  0  0  0  0
  195.1440  173.1720  145.2110 C   0  0  0  0  0  0  0  0  0  0  0  0
  193.0740  172.1600  144.4160 C   0  0  0  0  0  0  0  0  0  0  0  0
  194.1720  168.9060  145.5930 F   0  0  0  0  0  0  0  0  0  0  0  0
  195.5070  170.8090  145.7650 C   0  0  0  0  0  0  0  0  0  0  0  0
  194.3790  170.2200  145.3170 C   0  0  0  0  0  0  0  0  0  0  0  0
  193.3840  170.8590  144.4320 C   0  0  0  0  0  3  0  0  0  0  0  0
  195.9130  172.1460  145.4180 N   0  0  0  0  0  0  0  0  0  0  0  0
  193.6700  173.0990  145.4030 C   0  0  0  0  0  2  0  0  0  0  0  0
  1  7  1  0  0  0  0
  1  4  1  1  0  0  0
  2  8  1  0  0  0  0
  3 10  1  0  0  0  0
  5  9  2  0  0  0  0
  6  2  2  0  0  0  0
  6  5  1  0  0  0  0
  7 26  1  6  0  0  0
  8  3  1  1  0  0  0
  8  1  1  0  0  0  0
  9  7  1  0  0  0  0
 10 15  1  6  0  0  0
 10  4  1  0  0  0  0
 12 14  1  0  0  0  0
 13 14  1  0  0  0  0
 14 11  1  0  0  0  0
 14  6  1  0  0  0  0
 15 16  1  0  0  0  0
 16 17  2  0  0  0  0
 16 20  1  0  0  0  0
 18 21  1  0  0  0  0
 19 24  1  0  0  0  0
 20 19  2  0  0  0  0
 21 22  2  0  0  0  0
 21 20  1  0  0  0  0
 22 23  1  0  0  0  0
 23 24  2  0  0  0  0
 24 25  1  0  0  0  0
 26 30  1  0  0  0  0
 27 29  1  0  0  0  0
 29 36  1  0  0  0  0
 29 35  2  0  0  0  0
 30 34  2  0  0  0  0
 30 36  1  0  0  0  0
 32 28  1  0  0  0  0
 33 31  1  0  0  0  0
 33 32  2  0  0  0  0
 34 33  1  0  0  0  0
 35 32  1  0  0  0  0
M  END
>  <MODEL>
3

>  <REMARK>
 VINA RESULT:      -8.2      3.872      9.883
  Name = 
  5 active torsions:
  status: ('A' for Active; 'I' for Inactive)
    1  A    between atoms: N_5  and  C_31
    2  A    between atoms: C_7  and  C_15
    3  A    between atoms: C_12  and  C_28
    4  A    between atoms: C_13  and  N_33
    5  A    between atoms: C_21  and  N_33
                            x       y       z     vdW  Elec       q    Type
                         _______ _______ _______ _____ _____    ______ ____

>  <TORSDO>
F 5

$$$$
=
 OpenBabel11042413583D

 36 39  0  0  1  0  0  0  0  0999 V2000
  191.2200  176.0440  143.2280 N   0  0  2  0  0  0  0  0  0  0  0  0
  192.3260  175.6500  145.2930 N   0  0  0  0  0  0  0  0  0  0  0  0
  190.0170  174.9710  144.9820 C   0  0  0  0  0  2  0  0  0  0  0  0
  189.8500  175.8790  142.7520 C   0  0  0  0  0  2  0  0  0  0  0  0
  194.0820  176.1870  143.7020 N   0  0  0  0  0  0  0  0  0  0  0  0
  193.5300  176.0710  145.0330 C   0  0  0  0  0  0  0  0  0  0  0  0
  192.1580  175.6600  142.1730 C   0  0  1  0  0  3  0  0  0  0  0  0
  191.3720  175.1230  144.3380 C   0  0  1  0  0  3  0  0  0  0  0  0
  193.5670  176.0430  142.5120 C   0  0  0  0  0  3  0  0  0  0  0  0
  189.0340  175.2550  143.8690 C   0  0  2  0  0  3  0  0  0  0  0  0
  193.5520  176.7910  147.2700 F   0  0  0  0  0  0  0  0  0  0  0  0
  195.0110  177.7330  145.8340 F   0  0  0  0  0  0  0  0  0  0  0  0
  195.3160  175.6110  146.5120 F   0  0  0  0  0  0  0  0  0  0  0  0
  194.3660  176.5580  146.1770 C   0  0  0  0  0  0  0  0  0  0  0  0
  188.0290  176.2030  144.3220 N   0  0  0  0  0  2  0  0  0  0  0  0
  186.7250  176.2930  143.7380 C   0  0  0  0  0  0  0  0  0  0  0  0
  186.4270  175.5320  142.7750 O   0  0  0  0  0  0  0  0  0  0  0  0
  185.1810  178.2330  141.9320 C   0  0  0  0  0  1  0  0  0  0  0  0
  185.4620  177.2810  145.6240 C   0  0  0  0  0  3  0  0  0  0  0  0
  185.7170  177.2630  144.2420 C   0  0  0  0  0  0  0  0  0  0  0  0
  185.0000  178.1650  143.4120 C   0  0  0  0  0  0  0  0  0  0  0  0
  184.0660  179.0410  143.9770 C   0  0  0  0  0  3  0  0  0  0  0  0
  183.8320  179.0410  145.3520 C   0  0  0  0  0  3  0  0  0  0  0  0
  184.5300  178.1610  146.1760 C   0  0  0  0  0  0  0  0  0  0  0  0
  184.3040  178.1590  147.5120 F   0  0  0  0  0  0  0  0  0  0  0  0
  192.0900  174.2320  141.8490 N   0  0  0  0  0  2  0  0  0  0  0  0
  194.1080  175.2570  138.2570 N   0  0  0  0  0  1  0  0  0  0  0  0
  190.4810  172.8140  136.2800 C   0  0  0  0  0  1  0  0  0  0  0  0
  193.0660  174.3100  138.4640 C   0  0  0  0  0  0  0  0  0  0  0  0
  191.8970  173.7270  140.5230 C   0  0  0  0  0  0  0  0  0  0  0  0
  189.2000  172.2290  138.6100 F   0  0  0  0  0  0  0  0  0  0  0  0
  191.0160  173.2780  137.5920 C   0  0  0  0  0  0  0  0  0  0  0  0
  190.3400  172.9610  138.7160 C   0  0  0  0  0  0  0  0  0  0  0  0
  190.6700  173.4500  140.0700 C   0  0  0  0  0  3  0  0  0  0  0  0
  192.1490  174.1660  137.5550 N   0  0  0  0  0  0  0  0  0  0  0  0
  193.0980  173.4620  139.6870 C   0  0  0  0  0  2  0  0  0  0  0  0
  1  4  1  6  0  0  0
  1  8  1  0  0  0  0
  4 10  1  0  0  0  0
  5  6  1  0  0  0  0
  6  2  2  0  0  0  0
  6 14  1  0  0  0  0
  7 26  1  1  0  0  0
  7  9  1  0  0  0  0
  7  1  1  0  0  0  0
  8  3  1  1  0  0  0
  8  2  1  0  0  0  0
  9  5  2  0  0  0  0
 10 15  1  1  0  0  0
 10  3  1  0  0  0  0
 12 14  1  0  0  0  0
 14 13  1  0  0  0  0
 14 11  1  0  0  0  0
 16 20  1  0  0  0  0
 16 15  1  0  0  0  0
 17 16  2  0  0  0  0
 18 21  1  0  0  0  0
 19 24  1  0  0  0  0
 20 19  2  0  0  0  0
 21 22  2  0  0  0  0
 21 20  1  0  0  0  0
 22 23  1  0  0  0  0
 23 24  2  0  0  0  0
 24 25  1  0  0  0  0
 27 29  1  0  0  0  0
 28 32  1  0  0  0  0
 29 36  1  0  0  0  0
 30 26  1  0  0  0  0
 31 33  1  0  0  0  0
 32 33  2  0  0  0  0
 33 34  1  0  0  0  0
 34 30  2  0  0  0  0
 35 32  1  0  0  0  0
 35 29  2  0  0  0  0
 36 30  1  0  0  0  0
M  END
>  <MODEL>
4

>  <REMARK>
 VINA RESULT:      -8.1      2.829      7.833
  Name = 
  5 active torsions:
  status: ('A' for Active; 'I' for Inactive)
    1  A    between atoms: N_5  and  C_31
    2  A    between atoms: C_7  and  C_15
    3  A    between atoms: C_12  and  C_28
    4  A    between atoms: C_13  and  N_33
    5  A    between atoms: C_21  and  N_33
                            x       y       z     vdW  Elec       q    Type
                         _______ _______ _______ _____ _____    ______ ____

>  <TORSDO>
F 5

$$$$
=
 OpenBabel11042413583D

 36 39  0  0  1  0  0  0  0  0999 V2000
  189.7670  173.1340  143.1080 N   0  0  2  0  0  0  0  0  0  0  0  0
  189.6780  173.6850  140.7990 N   0  0  0  0  0  0  0  0  0  0  0  0
  189.7030  175.4320  142.4830 C   0  0  0  0  0  2  0  0  0  0  0  0
  189.6810  173.8980  144.3480 C   0  0  0  0  0  2  0  0  0  0  0  0
  190.3190  171.3420  140.8890 N   0  0  0  0  0  0  0  0  0  0  0  0
  189.7630  172.5100  140.2430 C   0  0  0  0  0  0  0  0  0  0  0  0
  190.7770  172.0840  143.2470 C   0  0  1  0  0  3  0  0  0  0  0  0
  190.2110  174.0680  142.0910 C   0  0  1  0  0  3  0  0  0  0  0  0
  190.7340  171.1140  142.1040 C   0  0  0  0  0  3  0  0  0  0  0  0
  189.5730  175.3690  143.9890 C   0  0  2  0  0  3  0  0  0  0  0  0
  187.8170  172.6620  138.9330 F   0  0  0  0  0  0  0  0  0  0  0  0
  189.2880  171.0180  138.4700 F   0  0  0  0  0  0  0  0  0  0  0  0
  189.7940  173.1510  137.9670 F   0  0  0  0  0  0  0  0  0  0  0  0
  189.1590  172.3320  138.8830 C   0  0  0  0  0  0  0  0  0  0  0  0
  188.2710  175.8730  144.3970 N   0  0  0  0  0  2  0  0  0  0  0  0
  188.0850  177.1700  144.9740 C   0  0  0  0  0  0  0  0  0  0  0  0
  189.0890  177.9140  145.1540 O   0  0  0  0  0  0  0  0  0  0  0  0
  186.7100  176.4450  147.6180 C   0  0  0  0  0  1  0  0  0  0  0  0
  186.0600  178.5000  144.4600 C   0  0  0  0  0  3  0  0  0  0  0  0
  186.7350  177.6580  145.3610 C   0  0  0  0  0  0  0  0  0  0  0  0
  186.0920  177.3240  146.5830 C   0  0  0  0  0  0  0  0  0  0  0  0
  184.8190  177.8340  146.8630 C   0  0  0  0  0  3  0  0  0  0  0  0
  184.1700  178.6670  145.9520 C   0  0  0  0  0  3  0  0  0  0  0  0
  184.7910  179.0000  144.7500 C   0  0  0  0  0  0  0  0  0  0  0  0
  184.1620  179.8090  143.8630 F   0  0  0  0  0  0  0  0  0  0  0  0
  192.1330  172.6180  143.4010 N   0  0  0  0  0  2  0  0  0  0  0  0
  195.6030  174.4900  144.9740 N   0  0  0  0  0  1  0  0  0  0  0  0
  196.4990  170.0480  146.5530 C   0  0  0  0  0  1  0  0  0  0  0  0
  195.0640  173.2060  145.2650 C   0  0  0  0  0  0  0  0  0  0  0  0
  193.0780  172.1230  144.3550 C   0  0  0  0  0  0  0  0  0  0  0  0
  194.2830  168.8880  145.4780 F   0  0  0  0  0  0  0  0  0  0  0  0
  195.5170  170.8450  145.7620 C   0  0  0  0  0  0  0  0  0  0  0  0
  194.4380  170.2190  145.2500 C   0  0  0  0  0  0  0  0  0  0  0  0
  193.4490  170.8390  144.3450 C   0  0  0  0  0  3  0  0  0  0  0  0
  195.8720  172.2100  145.4730 N   0  0  0  0  0  0  0  0  0  0  0  0
  193.5880  173.0580  145.3930 C   0  0  0  0  0  2  0  0  0  0  0  0
  1  7  1  0  0  0  0
  1  4  1  1  0  0  0
  2  8  1  0  0  0  0
  3 10  1  0  0  0  0
  5  9  2  0  0  0  0
  6  2  2  0  0  0  0
  6  5  1  0  0  0  0
  7 26  1  6  0  0  0
  8  3  1  1  0  0  0
  8  1  1  0  0  0  0
  9  7  1  0  0  0  0
 10  4  1  0  0  0  0
 10 15  1  6  0  0  0
 12 14  1  0  0  0  0
 13 14  1  0  0  0  0
 14 11  1  0  0  0  0
 14  6  1  0  0  0  0
 15 16  1  0  0  0  0
 16 17  2  0  0  0  0
 16 20  1  0  0  0  0
 19 24  2  0  0  0  0
 19 20  1  0  0  0  0
 20 21  2  0  0  0  0
 21 22  1  0  0  0  0
 21 18  1  0  0  0  0
 23 22  2  0  0  0  0
 24 23  1  0  0  0  0
 25 24  1  0  0  0  0
 26 30  1  0  0  0  0
 27 29  1  0  0  0  0
 29 36  1  0  0  0  0
 29 35  2  0  0  0  0
 30 36  1  0  0  0  0
 32 28  1  0  0  0  0
 33 31  1  0  0  0  0
 33 32  2  0  0  0  0
 34 30  2  0  0  0  0
 34 33  1  0  0  0  0
 35 32  1  0  0  0  0
M  END
>  <MODEL>
5

>  <REMARK>
 VINA RESULT:      -8.0      3.845      9.966
  Name = 
  5 active torsions:
  status: ('A' for Active; 'I' for Inactive)
    1  A    between atoms: N_5  and  C_31
    2  A    between atoms: C_7  and  C_15
    3  A    between atoms: C_12  and  C_28
    4  A    between atoms: C_13  and  N_33
    5  A    between atoms: C_21  and  N_33
                            x       y       z     vdW  Elec       q    Type
                         _______ _______ _______ _____ _____    ______ ____

>  <TORSDO>
F 5

$$$$
=
 OpenBabel11042413583D

 36 39  0  0  1  0  0  0  0  0999 V2000
  189.6260  175.1650  142.5220 N   0  0  2  0  0  0  0  0  0  0  0  0
  189.1760  173.4100  140.9840 N   0  0  0  0  0  0  0  0  0  0  0  0
  190.1850  172.9320  143.1390 C   0  0  0  0  0  2  0  0  0  0  0  0
  190.3070  175.2480  143.8100 C   0  0  0  0  0  2  0  0  0  0  0  0
  187.9210  175.3280  140.1760 N   0  0  0  0  0  0  0  0  0  0  0  0
  188.5800  174.0500  140.0200 C   0  0  0  0  0  0  0  0  0  0  0  0
  188.4390  176.0200  142.5360 C   0  0  1  0  0  3  0  0  0  0  0  0
  189.1980  173.7850  142.3830 C   0  0  1  0  0  3  0  0  0  0  0  0
  187.8430  176.1700  141.1690 C   0  0  0  0  0  3  0  0  0  0  0  0
  190.7380  173.8480  144.2080 C   0  0  2  0  0  3  0  0  0  0  0  0
  189.9320  173.6870  138.1320 F   0  0  0  0  0  0  0  0  0  0  0  0
  187.7360  174.0820  137.8100 F   0  0  0  0  0  0  0  0  0  0  0  0
  188.4090  172.1160  138.6710 F   0  0  0  0  0  0  0  0  0  0  0  0
  188.6630  173.4750  138.6390 C   0  0  0  0  0  0  0  0  0  0  0  0
  192.1900  173.7750  144.2240 N   0  0  0  0  0  2  0  0  0  0  0  0
  192.9740  174.1260  145.3700 C   0  0  0  0  0  0  0  0  0  0  0  0
  192.3910  174.5340  146.4140 O   0  0  0  0  0  0  0  0  0  0  0  0
  194.8350  176.4180  144.5390 C   0  0  0  0  0  1  0  0  0  0  0  0
  195.0280  172.7960  145.7480 C   0  0  0  0  0  3  0  0  0  0  0  0
  194.4560  174.0190  145.3550 C   0  0  0  0  0  0  0  0  0  0  0  0
  195.3240  175.0760  144.9690 C   0  0  0  0  0  0  0  0  0  0  0  0
  196.7100  174.8820  144.9900 C   0  0  0  0  0  3  0  0  0  0  0  0
  197.2520  173.6590  145.3830 C   0  0  0  0  0  3  0  0  0  0  0  0
  196.4110  172.6160  145.7630 C   0  0  0  0  0  0  0  0  0  0  0  0
  196.9350  171.4260  146.1450 F   0  0  0  0  0  0  0  0  0  0  0  0
  187.4190  175.5570  143.4810 N   0  0  0  0  0  2  0  0  0  0  0  0
  185.7700  179.4170  142.8440 N   0  0  0  0  0  1  0  0  0  0  0  0
  185.5630  179.4140  147.6390 C   0  0  0  0  0  1  0  0  0  0  0  0
  185.7850  178.6300  144.0300 C   0  0  0  0  0  0  0  0  0  0  0  0
  186.7410  176.4180  144.4020 C   0  0  0  0  0  0  0  0  0  0  0  0
  186.6740  176.9540  147.9920 F   0  0  0  0  0  0  0  0  0  0  0  0
  186.0000  178.5910  146.4750 C   0  0  0  0  0  0  0  0  0  0  0  0
  186.5460  177.3790  146.7080 C   0  0  0  0  0  0  0  0  0  0  0  0
  187.1390  176.5050  145.6750 C   0  0  0  0  0  3  0  0  0  0  0  0
  185.9430  179.2160  145.1790 N   0  0  0  0  0  0  0  0  0  0  0  0
  185.5470  177.1650  143.9220 C   0  0  0  0  0  2  0  0  0  0  0  0
  1  7  1  0  0  0  0
  1  4  1  1  0  0  0
  2  8  1  0  0  0  0
  3 10  1  0  0  0  0
  4 10  1  0  0  0  0
  5  9  2  0  0  0  0
  6  5  1  0  0  0  0
  6  2  2  0  0  0  0
  7 26  1  1  0  0  0
  8  1  1  0  0  0  0
  8  3  1  1  0  0  0
  9  7  1  0  0  0  0
 10 15  1  6  0  0  0
 11 14  1  0  0  0  0
 12 14  1  0  0  0  0
 14 13  1  0  0  0  0
 14  6  1  0  0  0  0
 15 16  1  0  0  0  0
 16 17  2  0  0  0  0
 18 21  1  0  0  0  0
 19 24  1  0  0  0  0
 20 16  1  0  0  0  0
 20 19  2  0  0  0  0
 21 22  2  0  0  0  0
 21 20  1  0  0  0  0
 22 23  1  0  0  0  0
 23 24  2  0  0  0  0
 24 25  1  0  0  0  0
 26 30  1  0  0  0  0
 27 29  1  0  0  0  0
 29 35  2  0  0  0  0
 30 34  2  0  0  0  0
 32 33  2  0  0  0  0
 32 28  1  0  0  0  0
 33 31  1  0  0  0  0
 34 33  1  0  0  0  0
 35 32  1  0  0  0  0
 36 29  1  0  0  0  0
 36 30  1  0  0  0  0
M  END
>  <MODEL>
6

>  <REMARK>
 VINA RESULT:      -7.8      3.853      6.430
  Name = 
  5 active torsions:
  status: ('A' for Active; 'I' for Inactive)
    1  A    between atoms: N_5  and  C_31
    2  A    between atoms: C_7  and  C_15
    3  A    between atoms: C_12  and  C_28
    4  A    between atoms: C_13  and  N_33
    5  A    between atoms: C_21  and  N_33
                            x       y       z     vdW  Elec       q    Type
                         _______ _______ _______ _____ _____    ______ ____

>  <TORSDO>
F 5

$$$$
=
 OpenBabel11042413583D

 36 39  0  0  1  0  0  0  0  0999 V2000
  190.1450  175.6990  142.8580 N   0  0  2  0  0  0  0  0  0  0  0  0
  187.8840  176.0410  143.5040 N   0  0  0  0  0  0  0  0  0  0  0  0
  188.5650  173.9640  142.4490 C   0  0  0  0  0  2  0  0  0  0  0  0
  190.8540  174.6570  142.1210 C   0  0  0  0  0  2  0  0  0  0  0  0
  189.1580  177.7720  144.6380 N   0  0  0  0  0  0  0  0  0  0  0  0
  187.9480  177.2030  144.0870 C   0  0  0  0  0  0  0  0  0  0  0  0
  190.9710  176.1630  143.9730 C   0  0  1  0  0  3  0  0  0  0  0  0
  188.9540  175.0700  143.3970 C   0  0  1  0  0  3  0  0  0  0  0  0
  190.4070  177.3970  144.6100 C   0  0  0  0  0  3  0  0  0  0  0  0
  189.8610  173.5590  141.7850 C   0  0  2  0  0  3  0  0  0  0  0  0
  186.6850  178.7940  145.2680 F   0  0  0  0  0  0  0  0  0  0  0  0
  185.5840  177.2510  144.0510 F   0  0  0  0  0  0  0  0  0  0  0  0
  186.7030  178.9050  143.0170 F   0  0  0  0  0  0  0  0  0  0  0  0
  186.7120  178.0490  144.1040 C   0  0  0  0  0  0  0  0  0  0  0  0
  189.6830  173.4930  140.3440 N   0  0  0  0  0  2  0  0  0  0  0  0
  190.4600  172.6340  139.5020 C   0  0  0  0  0  0  0  0  0  0  0  0
  191.3530  171.9080  140.0200 O   0  0  0  0  0  0  0  0  0  0  0  0
  189.6910  170.0750  137.9950 C   0  0  0  0  0  1  0  0  0  0  0  0
  190.3810  173.7720  137.3040 C   0  0  0  0  0  3  0  0  0  0  0  0
  190.2340  172.5790  138.0330 C   0  0  0  0  0  0  0  0  0  0  0  0
  189.8800  171.3970  137.3290 C   0  0  0  0  0  0  0  0  0  0  0  0
  189.6850  171.4430  135.9450 C   0  0  0  0  0  3  0  0  0  0  0  0
  189.8380  172.6380  135.2430 C   0  0  0  0  0  3  0  0  0  0  0  0
  190.1850  173.8030  135.9230 C   0  0  0  0  0  0  0  0  0  0  0  0
  190.3340  174.9670  135.2440 F   0  0  0  0  0  0  0  0  0  0  0  0
  191.1850  175.1270  144.9880 N   0  0  0  0  0  2  0  0  0  0  0  0
  194.5660  177.5410  145.8590 N   0  0  0  0  0  1  0  0  0  0  0  0
  196.7720  173.2810  145.9780 C   0  0  0  0  0  1  0  0  0  0  0  0
  194.4130  176.1310  145.9780 C   0  0  0  0  0  0  0  0  0  0  0  0
  192.4770  174.7400  145.4680 C   0  0  0  0  0  0  0  0  0  0  0  0
  194.5820  171.7840  145.3650 F   0  0  0  0  0  0  0  0  0  0  0  0
  195.4470  173.9180  145.7320 C   0  0  0  0  0  0  0  0  0  0  0  0
  194.3950  173.1290  145.4300 C   0  0  0  0  0  0  0  0  0  0  0  0
  193.0560  173.6150  145.0380 C   0  0  0  0  0  3  0  0  0  0  0  0
  195.4160  175.3570  145.6880 N   0  0  0  0  0  0  0  0  0  0  0  0
  193.1290  175.5890  146.5000 C   0  0  0  0  0  2  0  0  0  0  0  0
  1  4  1  1  0  0  0
  1  8  1  0  0  0  0
  1  7  1  0  0  0  0
  2  6  2  0  0  0  0
  6 14  1  0  0  0  0
  6  5  1  0  0  0  0
  7  9  1  0  0  0  0
  7 26  1  1  0  0  0
  8  3  1  6  0  0  0
  8  2  1  0  0  0  0
  9  5  2  0  0  0  0
 10 15  1  6  0  0  0
 10  4  1  0  0  0  0
 10  3  1  0  0  0  0
 12 14  1  0  0  0  0
 13 14  1  0  0  0  0
 14 11  1  0  0  0  0
 16 17  2  0  0  0  0
 16 15  1  0  0  0  0
 19 20  1  0  0  0  0
 20 16  1  0  0  0  0
 21 18  1  0  0  0  0
 21 20  2  0  0  0  0
 22 21  1  0  0  0  0
 23 24  1  0  0  0  0
 23 22  2  0  0  0  0
 24 19  2  0  0  0  0
 25 24  1  0  0  0  0
 26 30  1  0  0  0  0
 27 29  1  0  0  0  0
 29 36  1  0  0  0  0
 30 36  1  0  0  0  0
 31 33  1  0  0  0  0
 32 28  1  0  0  0  0
 33 32  2  0  0  0  0
 34 33  1  0  0  0  0
 34 30  2  0  0  0  0
 35 32  1  0  0  0  0
 35 29  2  0  0  0  0
M  END
>  <MODEL>
7

>  <REMARK>
 VINA RESULT:      -7.7      3.438      7.054
  Name = 
  5 active torsions:
  status: ('A' for Active; 'I' for Inactive)
    1  A    between atoms: N_5  and  C_31
    2  A    between atoms: C_7  and  C_15
    3  A    between atoms: C_12  and  C_28
    4  A    between atoms: C_13  and  N_33
    5  A    between atoms: C_21  and  N_33
                            x       y       z     vdW  Elec       q    Type
                         _______ _______ _______ _____ _____    ______ ____

>  <TORSDO>
F 5

$$$$
=
 OpenBabel11042413583D

 36 39  0  0  1  0  0  0  0  0999 V2000
  189.9250  173.1160  142.9550 N   0  0  2  0  0  0  0  0  0  0  0  0
  189.7220  173.6720  140.6540 N   0  0  0  0  0  0  0  0  0  0  0  0
  189.8440  175.4150  142.3370 C   0  0  0  0  0  2  0  0  0  0  0  0
  189.9070  173.8790  144.1980 C   0  0  0  0  0  2  0  0  0  0  0  0
  190.3510  171.3250  140.7080 N   0  0  0  0  0  0  0  0  0  0  0  0
  189.7710  172.4970  140.0920 C   0  0  0  0  0  0  0  0  0  0  0  0
  190.9320  172.0590  143.0400 C   0  0  1  0  0  3  0  0  0  0  0  0
  190.3230  174.0480  141.9170 C   0  0  1  0  0  3  0  0  0  0  0  0
  190.8260  171.0910  141.9000 C   0  0  0  0  0  3  0  0  0  0  0  0
  189.7900  175.3510  143.8470 C   0  0  2  0  0  3  0  0  0  0  0  0
  187.8100  172.8230  138.8380 F   0  0  0  0  0  0  0  0  0  0  0  0
  189.0470  170.9860  138.4230 F   0  0  0  0  0  0  0  0  0  0  0  0
  189.7930  173.0080  137.7840 F   0  0  0  0  0  0  0  0  0  0  0  0
  189.0980  172.3250  138.7650 C   0  0  0  0  0  0  0  0  0  0  0  0
  188.5140  175.8630  144.3210 N   0  0  0  0  0  2  0  0  0  0  0  0
  188.3200  177.2260  144.7110 C   0  0  0  0  0  0  0  0  0  0  0  0
  189.2940  178.0270  144.6590 O   0  0  0  0  0  0  0  0  0  0  0  0
  186.9880  176.3240  147.3230 C   0  0  0  0  0  1  0  0  0  0  0  0
  186.3230  178.6490  144.3620 C   0  0  0  0  0  3  0  0  0  0  0  0
  186.9950  177.7180  145.1730 C   0  0  0  0  0  0  0  0  0  0  0  0
  186.3710  177.3020  146.3810 C   0  0  0  0  0  0  0  0  0  0  0  0
  185.1220  177.8210  146.7340 C   0  0  0  0  0  3  0  0  0  0  0  0
  184.4760  178.7440  145.9120 C   0  0  0  0  0  3  0  0  0  0  0  0
  185.0770  179.1580  144.7260 C   0  0  0  0  0  0  0  0  0  0  0  0
  184.4510  180.0550  143.9250 F   0  0  0  0  0  0  0  0  0  0  0  0
  192.2980  172.5840  143.1260 N   0  0  0  0  0  2  0  0  0  0  0  0
  192.7140  168.4390  143.9430 N   0  0  0  0  0  1  0  0  0  0  0  0
  196.3630  169.9940  146.6440 C   0  0  0  0  0  1  0  0  0  0  0  0
  193.6200  169.5040  144.2100 C   0  0  0  0  0  0  0  0  0  0  0  0
  193.3790  171.8860  143.7530 C   0  0  0  0  0  0  0  0  0  0  0  0
  196.0190  172.6450  146.1270 F   0  0  0  0  0  0  0  0  0  0  0  0
  195.2660  170.4700  145.7540 C   0  0  0  0  0  0  0  0  0  0  0  0
  195.1400  171.7960  145.5330 C   0  0  0  0  0  0  0  0  0  0  0  0
  194.0360  172.4280  144.7840 C   0  0  0  0  0  3  0  0  0  0  0  0
  194.3180  169.4830  145.3060 N   0  0  0  0  0  0  0  0  0  0  0  0
  193.7930  170.5730  143.1900 C   0  0  0  0  0  2  0  0  0  0  0  0
  1  7  1  0  0  0  0
  1  4  1  1  0  0  0
  2  8  1  0  0  0  0
  3 10  1  0  0  0  0
  5  9  2  0  0  0  0
  6  2  2  0  0  0  0
  6  5  1  0  0  0  0
  7 26  1  6  0  0  0
  8  3  1  1  0  0  0
  8  1  1  0  0  0  0
  9  7  1  0  0  0  0
 10  4  1  0  0  0  0
 10 15  1  6  0  0  0
 12 14  1  0  0  0  0
 13 14  1  0  0  0  0
 14 11  1  0  0  0  0
 14  6  1  0  0  0  0
 15 16  1  0  0  0  0
 16 20  1  0  0  0  0
 17 16  2  0  0  0  0
 19 24  2  0  0  0  0
 19 20  1  0  0  0  0
 20 21  2  0  0  0  0
 21 22  1  0  0  0  0
 21 18  1  0  0  0  0
 23 22  2  0  0  0  0
 24 23  1  0  0  0  0
 25 24  1  0  0  0  0
 26 30  1  0  0  0  0
 27 29  1  0  0  0  0
 29 35  2  0  0  0  0
 30 34  2  0  0  0  0
 32 28  1  0  0  0  0
 33 32  2  0  0  0  0
 33 31  1  0  0  0  0
 34 33  1  0  0  0  0
 35 32  1  0  0  0  0
 36 30  1  0  0  0  0
 36 29  1  0  0  0  0
M  END
>  <MODEL>
8

>  <REMARK>
 VINA RESULT:      -7.7      3.860     10.055
  Name = 
  5 active torsions:
  status: ('A' for Active; 'I' for Inactive)
    1  A    between atoms: N_5  and  C_31
    2  A    between atoms: C_7  and  C_15
    3  A    between atoms: C_12  and  C_28
    4  A    between atoms: C_13  and  N_33
    5  A    between atoms: C_21  and  N_33
                            x       y       z     vdW  Elec       q    Type
                         _______ _______ _______ _____ _____    ______ ____

>  <TORSDO>
F 5

$$$$
=
 OpenBabel11042413583D

 36 39  0  0  1  0  0  0  0  0999 V2000
  190.2460  175.7950  143.1060 N   0  0  2  0  0  0  0  0  0  0  0  0
  187.9070  175.7340  143.5180 N   0  0  0  0  0  0  0  0  0  0  0  0
  189.0100  173.8850  142.3980 C   0  0  0  0  0  2  0  0  0  0  0  0
  191.1810  174.9420  142.3790 C   0  0  0  0  0  2  0  0  0  0  0  0
  188.7710  177.5290  144.9100 N   0  0  0  0  0  0  0  0  0  0  0  0
  187.7270  176.8360  144.1880 C   0  0  0  0  0  0  0  0  0  0  0  0
  190.8730  176.2770  144.3370 C   0  0  1  0  0  3  0  0  0  0  0  0
  189.1230  174.9480  143.4610 C   0  0  1  0  0  3  0  0  0  0  0  0
  190.0600  177.3500  144.9950 C   0  0  0  0  0  3  0  0  0  0  0  0
  190.4140  173.7410  141.8560 C   0  0  2  0  0  3  0  0  0  0  0  0
  185.6080  176.8450  143.1710 F   0  0  0  0  0  0  0  0  0  0  0  0
  186.4980  178.8190  143.7950 F   0  0  0  0  0  0  0  0  0  0  0  0
  185.7450  177.3840  145.3550 F   0  0  0  0  0  0  0  0  0  0  0  0
  186.3760  177.4820  144.1280 C   0  0  0  0  0  0  0  0  0  0  0  0
  190.3920  173.7780  140.4020 N   0  0  0  0  0  2  0  0  0  0  0  0
  190.9490  172.7390  139.5890 C   0  0  0  0  0  0  0  0  0  0  0  0
  191.5000  171.7490  140.1460 O   0  0  0  0  0  0  0  0  0  0  0  0
  192.8510  174.4350  137.8820 C   0  0  0  0  0  1  0  0  0  0  0  0
  189.9050  172.0360  137.4570 C   0  0  0  0  0  3  0  0  0  0  0  0
  190.8890  172.8020  138.1050 C   0  0  0  0  0  0  0  0  0  0  0  0
  191.7660  173.5870  137.3090 C   0  0  0  0  0  0  0  0  0  0  0  0
  191.6350  173.5810  135.9160 C   0  0  0  0  0  3  0  0  0  0  0  0
  190.6490  172.8130  135.2960 C   0  0  0  0  0  3  0  0  0  0  0  0
  189.7840  172.0410  136.0670 C   0  0  0  0  0  0  0  0  0  0  0  0
  188.8250  171.2940  135.4670 F   0  0  0  0  0  0  0  0  0  0  0  0
  191.1470  175.1980  145.2910 N   0  0  0  0  0  2  0  0  0  0  0  0
  194.6540  177.5530  145.7140 N   0  0  0  0  0  1  0  0  0  0  0  0
  196.7490  173.2410  145.9190 C   0  0  0  0  0  1  0  0  0  0  0  0
  194.4750  176.1590  145.9360 C   0  0  0  0  0  0  0  0  0  0  0  0
  192.4660  174.8020  145.6830 C   0  0  0  0  0  0  0  0  0  0  0  0
  194.4750  171.7800  145.5930 F   0  0  0  0  0  0  0  0  0  0  0  0
  195.4250  173.9030  145.7460 C   0  0  0  0  0  0  0  0  0  0  0  0
  194.3300  173.1300  145.5860 C   0  0  0  0  0  0  0  0  0  0  0  0
  192.9760  173.6340  145.2790 C   0  0  0  0  0  3  0  0  0  0  0  0
  195.4280  175.3370  145.6130 N   0  0  0  0  0  0  0  0  0  0  0  0
  193.2280  175.6910  146.6000 C   0  0  0  0  0  2  0  0  0  0  0  0
  1  4  1  1  0  0  0
  1  8  1  0  0  0  0
  1  7  1  0  0  0  0
  2  6  2  0  0  0  0
  5  9  2  0  0  0  0
  6  5  1  0  0  0  0
  7  9  1  0  0  0  0
  7 26  1  1  0  0  0
  8  3  1  6  0  0  0
  8  2  1  0  0  0  0
 10 15  1  6  0  0  0
 10  4  1  0  0  0  0
 10  3  1  0  0  0  0
 11 14  1  0  0  0  0
 12 14  1  0  0  0  0
 14  6  1  0  0  0  0
 14 13  1  0  0  0  0
 16 17  2  0  0  0  0
 16 15  1  0  0  0  0
 19 20  1  0  0  0  0
 20 16  1  0  0  0  0
 21 18  1  0  0  0  0
 21 20  2  0  0  0  0
 22 21  1  0  0  0  0
 23 22  2  0  0  0  0
 23 24  1  0  0  0  0
 24 19  2  0  0  0  0
 25 24  1  0  0  0  0
 26 30  1  0  0  0  0
 27 29  1  0  0  0  0
 29 36  1  0  0  0  0
 30 36  1  0  0  0  0
 32 28  1  0  0  0  0
 33 31  1  0  0  0  0
 33 32  2  0  0  0  0
 34 33  1  0  0  0  0
 34 30  2  0  0  0  0
 35 32  1  0  0  0  0
 35 29  2  0  0  0  0
M  END
>  <MODEL>
9

>  <REMARK>
 VINA RESULT:      -7.5      3.330      6.946
  Name = 
  5 active torsions:
  status: ('A' for Active; 'I' for Inactive)
    1  A    between atoms: N_5  and  C_31
    2  A    between atoms: C_7  and  C_15
    3  A    between atoms: C_12  and  C_28
    4  A    between atoms: C_13  and  N_33
    5  A    between atoms: C_21  and  N_33
                            x       y       z     vdW  Elec       q    Type
                         _______ _______ _______ _____ _____    ______ ____

>  <TORSDO>
F 5

$$$$
