=
 OpenBabel11042416143D

 33 39  0  0  1  0  0  0  0  0999 V2000
  189.6590  173.7000  145.9800 O   0  0  0  0  0  0  0  0  0  0  0  0
  189.1440  174.8850  144.0540 N   0  0  0  0  0  2  0  0  0  0  0  0
  190.0710  174.2180  144.9100 C   0  0  0  0  0  0  0  0  0  0  0  0
  189.5740  175.5210  142.8760 N   0  0  0  0  0  0  0  0  0  0  0  0
  188.5250  176.4290  142.3390 C   0  0  1  0  0  3  0  0  0  0  0  0
  188.6680  175.0800  141.8020 C   0  0  0  0  0  2  0  0  0  0  0  0
  187.2610  176.5300  143.1950 C   0  0  2  0  0  3  0  0  0  0  0  0
  186.2240  177.3830  142.5030 C   0  0  1  0  0  3  0  0  0  0  0  0
  187.0380  177.9730  143.5870 C   0  0  2  0  0  0  0  0  0  0  0  0
  186.6330  178.7940  142.4380 N   0  0  0  0  0  2  0  0  0  0  0  0
  184.4070  178.4960  146.9920 C   0  0  0  0  0  3  0  0  0  0  0  0
  186.1970  178.1400  144.8440 C   0  0  0  0  0  0  0  0  0  0  0  0
  186.6100  177.8730  146.1810 C   0  0  0  0  0  0  0  0  0  0  0  0
  183.9880  178.7440  145.6870 C   0  0  0  0  0  3  0  0  0  0  0  0
  184.8760  178.5630  144.6240 C   0  0  0  0  0  3  0  0  0  0  0  0
  185.7100  178.0640  147.2360 C   0  0  0  0  0  3  0  0  0  0  0  0
  187.9330  177.4170  146.5340 C   0  0  0  0  0  0  0  0  0  0  0  0
  188.9950  177.0570  146.8220 N   0  0  0  0  0  0  0  0  0  0  0  0
  191.5270  174.1450  144.5460 C   0  0  2  0  0  3  0  0  0  0  0  0
  191.7590  171.7480  144.2770 N   0  0  0  0  0  2  0  0  0  0  0  0
  191.8330  172.9130  143.7430 C   0  0  0  0  0  0  0  0  0  0  0  0
  192.2120  173.0440  142.3060 C   0  0  0  0  0  1  0  0  0  0  0  0
  192.3590  174.2000  145.7390 N   0  0  0  0  0  2  0  0  0  0  0  0
  194.0150  175.6840  144.7520 C   0  0  2  0  0  0  0  0  0  0  0  0
  194.0280  176.7180  145.8570 C   0  0  0  0  0  2  0  0  0  0  0  0
  193.7430  174.2950  145.2980 C   0  0  1  0  0  3  0  0  0  0  0  0
  194.4790  175.3030  146.1540 C   0  0  1  0  0  3  0  0  0  0  0  0
  197.3490  175.7900  142.0950 C   0  0  0  0  0  3  0  0  0  0  0  0
  196.4350  174.7400  142.0730 C   0  0  0  0  0  3  0  0  0  0  0  0
  197.1560  176.8080  143.0250 C   0  0  0  0  0  3  0  0  0  0  0  0
  195.2140  175.7260  143.8460 C   0  0  0  0  0  0  0  0  0  0  0  0
  196.0990  176.7630  143.8770 N   0  0  0  0  0  0  0  0  0  0  0  0
  195.3910  174.7250  142.9430 N   0  0  0  0  0  0  0  0  0  0  0  0
  2  3  1  0  0  0  0
  3  1  2  0  0  0  0
  4  2  1  0  0  0  0
  5  6  1  6  0  0  0
  5  4  1  0  0  0  0
  6  4  1  0  0  0  0
  7  5  1  6  0  0  0
  7  9  1  0  0  0  0
  8 10  1  6  0  0  0
  8  7  1  0  0  0  0
  8  9  1  0  0  0  0
  9 12  1  1  0  0  0
 10  9  1  0  0  0  0
 11 16  1  0  0  0  0
 12 13  1  0  0  0  0
 13 17  1  0  0  0  0
 13 16  2  0  0  0  0
 14 11  2  0  0  0  0
 15 12  2  0  0  0  0
 15 14  1  0  0  0  0
 17 18  3  0  0  0  0
 19 21  1  1  0  0  0
 19  3  1  0  0  0  0
 19 23  1  0  0  0  0
 21 20  2  0  0  0  0
 22 21  1  0  0  0  0
 24 31  1  6  0  0  0
 24 26  1  0  0  0  0
 24 25  1  0  0  0  0
 24 27  1  0  0  0  0
 26 23  1  1  0  0  0
 26 27  1  0  0  0  0
 27 25  1  1  0  0  0
 28 30  2  0  0  0  0
 29 28  1  0  0  0  0
 29 33  2  0  0  0  0
 30 32  1  0  0  0  0
 31 32  2  0  0  0  0
 33 31  1  0  0  0  0
M  END
>  <MODEL>
1

>  <REMARK>
 VINA RESULT:      -7.1      0.000      0.000
  Name = 
  9 active torsions:
  status: ('A' for Active; 'I' for Inactive)
    1  A    between atoms: C_1  and  C_22
    2  A    between atoms: C_3  and  C_7
    3  A    between atoms: C_5  and  C_25
    4  A    between atoms: N_6  and  C_20
    5  A    between atoms: N_6  and  C_23
    6  A    between atoms: N_9  and  N_13
    7  A    between atoms: C_12  and  C_15
    8  A    between atoms: C_14  and  C_20
    9  A    between atoms: C_20  and  C_28
                            x       y       z     vdW  Elec       q    Type
                         _______ _______ _______ _____ _____    ______ ____

>  <TORSDO>
F 9

$$$$
=
 OpenBabel11042416143D

 33 39  0  0  1  0  0  0  0  0999 V2000
  192.0030  177.9030  143.6150 O   0  0  0  0  0  0  0  0  0  0  0  0
  190.5720  176.7900  145.0630 N   0  0  0  0  0  2  0  0  0  0  0  0
  191.8220  176.9260  144.3870 C   0  0  0  0  0  0  0  0  0  0  0  0
  190.3120  175.6850  145.8920 N   0  0  0  0  0  0  0  0  0  0  0  0
  188.9280  175.7300  146.4350 C   0  0  1  0  0  3  0  0  0  0  0  0
  190.0430  176.2200  147.2370 C   0  0  0  0  0  2  0  0  0  0  0  0
  188.0780  176.8990  145.9340 C   0  0  2  0  0  3  0  0  0  0  0  0
  187.3720  177.5690  147.0890 C   0  0  1  0  0  3  0  0  0  0  0  0
  186.6220  176.6230  146.2350 C   0  0  2  0  0  0  0  0  0  0  0  0
  186.3390  176.7010  147.6750 N   0  0  0  0  0  2  0  0  0  0  0  0
  183.7990  178.9410  143.9010 C   0  0  0  0  0  3  0  0  0  0  0  0
  185.6590  177.3790  145.3330 C   0  0  0  0  0  0  0  0  0  0  0  0
  185.5700  177.2780  143.9150 C   0  0  0  0  0  0  0  0  0  0  0  0
  183.8900  179.0600  145.2860 C   0  0  0  0  0  3  0  0  0  0  0  0
  184.8150  178.2880  145.9930 C   0  0  0  0  0  3  0  0  0  0  0  0
  184.6340  178.0540  143.2210 C   0  0  0  0  0  3  0  0  0  0  0  0
  186.3920  176.3960  143.1220 C   0  0  0  0  0  0  0  0  0  0  0  0
  187.0500  175.6830  142.4900 N   0  0  0  0  0  0  0  0  0  0  0  0
  192.9080  175.9070  144.5850 C   0  0  2  0  0  3  0  0  0  0  0  0
  195.1920  176.7130  144.6390 N   0  0  0  0  0  2  0  0  0  0  0  0
  194.1000  176.5010  145.2790 C   0  0  0  0  0  0  0  0  0  0  0  0
  194.0100  176.8610  146.7240 C   0  0  0  0  0  1  0  0  0  0  0  0
  193.2960  175.3160  143.3140 N   0  0  0  0  0  2  0  0  0  0  0  0
  191.7390  174.4920  141.6370 C   0  0  2  0  0  0  0  0  0  0  0  0
  192.7550  174.2280  140.5460 C   0  0  0  0  0  2  0  0  0  0  0  0
  192.3350  174.2650  143.0130 C   0  0  1  0  0  3  0  0  0  0  0  0
  192.8300  173.4460  141.8400 C   0  0  1  0  0  3  0  0  0  0  0  0
  187.9750  172.5390  141.1910 C   0  0  0  0  0  3  0  0  0  0  0  0
  188.6510  172.5450  142.4080 C   0  0  0  0  0  3  0  0  0  0  0  0
  188.5690  173.1790  140.1070 C   0  0  0  0  0  3  0  0  0  0  0  0
  190.4260  173.7830  141.4490 C   0  0  0  0  0  0  0  0  0  0  0  0
  189.7740  173.7890  140.2510 N   0  0  0  0  0  0  0  0  0  0  0  0
  189.8570  173.1620  142.5160 N   0  0  0  0  0  0  0  0  0  0  0  0
  1  3  2  0  0  0  0
  2  4  1  0  0  0  0
  3 19  1  0  0  0  0
  3  2  1  0  0  0  0
  4  5  1  0  0  0  0
  4  6  1  0  0  0  0
  5  6  1  1  0  0  0
  7  9  1  0  0  0  0
  7  5  1  1  0  0  0
  7  8  1  0  0  0  0
  8 10  1  1  0  0  0
  9 12  1  6  0  0  0
  9  8  1  0  0  0  0
  9 10  1  0  0  0  0
 11 14  1  0  0  0  0
 12 15  1  0  0  0  0
 13 12  2  0  0  0  0
 14 15  2  0  0  0  0
 16 11  2  0  0  0  0
 16 13  1  0  0  0  0
 17 13  1  0  0  0  0
 18 17  3  0  0  0  0
 19 23  1  6  0  0  0
 19 21  1  0  0  0  0
 20 21  2  0  0  0  0
 21 22  1  0  0  0  0
 24 31  1  6  0  0  0
 24 27  1  0  0  0  0
 24 26  1  0  0  0  0
 25 24  1  0  0  0  0
 26 23  1  6  0  0  0
 27 25  1  6  0  0  0
 27 26  1  0  0  0  0
 28 29  1  0  0  0  0
 29 33  2  0  0  0  0
 30 32  1  0  0  0  0
 30 28  2  0  0  0  0
 31 33  1  0  0  0  0
 32 31  2  0  0  0  0
M  END
>  <MODEL>
2

>  <REMARK>
 VINA RESULT:      -7.0      2.293      5.027
  Name = 
  9 active torsions:
  status: ('A' for Active; 'I' for Inactive)
    1  A    between atoms: C_1  and  C_22
    2  A    between atoms: C_3  and  C_7
    3  A    between atoms: C_5  and  C_25
    4  A    between atoms: N_6  and  C_20
    5  A    between atoms: N_6  and  C_23
    6  A    between atoms: N_9  and  N_13
    7  A    between atoms: C_12  and  C_15
    8  A    between atoms: C_14  and  C_20
    9  A    between atoms: C_20  and  C_28
                            x       y       z     vdW  Elec       q    Type
                         _______ _______ _______ _____ _____    ______ ____

>  <TORSDO>
F 9

$$$$
=
 OpenBabel11042416143D

 33 39  0  0  1  0  0  0  0  0999 V2000
  188.0780  172.3080  142.6770 O   0  0  0  0  0  0  0  0  0  0  0  0
  187.9180  174.4790  141.8760 N   0  0  0  0  0  2  0  0  0  0  0  0
  188.6260  173.2520  142.0500 C   0  0  0  0  0  0  0  0  0  0  0  0
  188.5150  175.5740  141.2270 N   0  0  0  0  0  0  0  0  0  0  0  0
  187.9800  176.8640  141.7390 C   0  0  1  0  0  3  0  0  0  0  0  0
  187.4380  176.2830  140.5160 C   0  0  0  0  0  2  0  0  0  0  0  0
  186.9720  176.7340  142.8820 C   0  0  2  0  0  3  0  0  0  0  0  0
  185.6370  177.3140  142.4750 C   0  0  1  0  0  3  0  0  0  0  0  0
  186.5420  178.1120  143.3290 C   0  0  2  0  0  0  0  0  0  0  0  0
  185.7020  178.7750  142.3230 N   0  0  0  0  0  2  0  0  0  0  0  0
  184.7770  178.2970  147.2840 C   0  0  0  0  0  3  0  0  0  0  0  0
  186.0180  178.1550  144.7560 C   0  0  0  0  0  0  0  0  0  0  0  0
  186.7220  177.7630  145.9300 C   0  0  0  0  0  0  0  0  0  0  0  0
  184.0740  178.6680  146.1400 C   0  0  0  0  0  3  0  0  0  0  0  0
  184.6890  178.5920  144.8880 C   0  0  0  0  0  3  0  0  0  0  0  0
  186.0940  177.8490  147.1780 C   0  0  0  0  0  3  0  0  0  0  0  0
  188.0820  177.2810  145.9240 C   0  0  0  0  0  0  0  0  0  0  0  0
  189.1720  176.8900  145.9220 N   0  0  0  0  0  0  0  0  0  0  0  0
  190.0140  173.0890  141.5000 C   0  0  2  0  0  3  0  0  0  0  0  0
  189.3010  172.1400  139.3890 N   0  0  0  0  0  2  0  0  0  0  0  0
  190.0610  172.0480  140.4190 C   0  0  0  0  0  0  0  0  0  0  0  0
  191.0120  170.9040  140.5350 C   0  0  0  0  0  1  0  0  0  0  0  0
  190.9540  172.7670  142.5640 N   0  0  0  0  0  2  0  0  0  0  0  0
  192.7700  174.1820  143.3480 C   0  0  2  0  0  0  0  0  0  0  0  0
  193.3720  174.4900  141.9940 C   0  0  0  0  0  2  0  0  0  0  0  0
  191.2660  174.0080  143.2570 C   0  0  1  0  0  3  0  0  0  0  0  0
  191.9660  174.9570  142.3090 C   0  0  1  0  0  3  0  0  0  0  0  0
  193.9230  176.7900  146.5200 C   0  0  0  0  0  3  0  0  0  0  0  0
  192.7670  176.0180  146.5970 C   0  0  0  0  0  3  0  0  0  0  0  0
  194.6940  176.7020  145.3640 C   0  0  0  0  0  3  0  0  0  0  0  0
  193.1790  175.1310  144.4410 C   0  0  0  0  0  0  0  0  0  0  0  0
  194.3150  175.8790  144.3510 N   0  0  0  0  0  0  0  0  0  0  0  0
  192.4160  175.2070  145.5640 N   0  0  0  0  0  0  0  0  0  0  0  0
  2  3  1  0  0  0  0
  3  1  2  0  0  0  0
  4  5  1  0  0  0  0
  4  2  1  0  0  0  0
  5  6  1  6  0  0  0
  6  4  1  0  0  0  0
  7  5  1  6  0  0  0
  7  9  1  0  0  0  0
  8 10  1  6  0  0  0
  8  7  1  0  0  0  0
  8  9  1  0  0  0  0
  9 12  1  1  0  0  0
 10  9  1  0  0  0  0
 12 15  2  0  0  0  0
 12 13  1  0  0  0  0
 13 16  2  0  0  0  0
 14 11  2  0  0  0  0
 15 14  1  0  0  0  0
 16 11  1  0  0  0  0
 17 13  1  0  0  0  0
 18 17  3  0  0  0  0
 19 21  1  6  0  0  0
 19  3  1  0  0  0  0
 19 23  1  0  0  0  0
 20 21  2  0  0  0  0
 21 22  1  0  0  0  0
 24 31  1  1  0  0  0
 25 24  1  0  0  0  0
 26 23  1  6  0  0  0
 26 24  1  0  0  0  0
 27 25  1  6  0  0  0
 27 26  1  0  0  0  0
 27 24  1  0  0  0  0
 28 29  1  0  0  0  0
 30 28  2  0  0  0  0
 31 33  1  0  0  0  0
 32 31  2  0  0  0  0
 32 30  1  0  0  0  0
 33 29  2  0  0  0  0
M  END
>  <MODEL>
3

>  <REMARK>
 VINA RESULT:      -7.0      1.831      2.961
  Name = 
  9 active torsions:
  status: ('A' for Active; 'I' for Inactive)
    1  A    between atoms: C_1  and  C_22
    2  A    between atoms: C_3  and  C_7
    3  A    between atoms: C_5  and  C_25
    4  A    between atoms: N_6  and  C_20
    5  A    between atoms: N_6  and  C_23
    6  A    between atoms: N_9  and  N_13
    7  A    between atoms: C_12  and  C_15
    8  A    between atoms: C_14  and  C_20
    9  A    between atoms: C_20  and  C_28
                            x       y       z     vdW  Elec       q    Type
                         _______ _______ _______ _____ _____    ______ ____

>  <TORSDO>
F 9

$$$$
=
 OpenBabel11042416143D

 33 39  0  0  1  0  0  0  0  0999 V2000
  187.9890  178.5330  141.9690 O   0  0  0  0  0  0  0  0  0  0  0  0
  188.3970  176.2540  141.8220 N   0  0  0  0  0  2  0  0  0  0  0  0
  187.5540  177.3630  142.1320 C   0  0  0  0  0  0  0  0  0  0  0  0
  187.9650  174.9340  142.0390 N   0  0  0  0  0  0  0  0  0  0  0  0
  189.0690  174.0830  142.5590 C   0  0  1  0  0  3  0  0  0  0  0  0
  188.7520  174.0770  141.1350 C   0  0  0  0  0  2  0  0  0  0  0  0
  190.3870  174.8190  142.8070 C   0  0  2  0  0  3  0  0  0  0  0  0
  191.5290  174.0960  142.1320 C   0  0  1  0  0  3  0  0  0  0  0  0
  191.3220  173.9220  143.5850 C   0  0  2  0  0  0  0  0  0  0  0  0
  191.8070  172.8010  142.7690 N   0  0  0  0  0  2  0  0  0  0  0  0
  194.2040  176.3310  145.7480 C   0  0  0  0  0  3  0  0  0  0  0  0
  192.3870  174.6790  144.3630 C   0  0  0  0  0  0  0  0  0  0  0  0
  193.4430  174.1080  145.1310 C   0  0  0  0  0  0  0  0  0  0  0  0
  193.1660  176.8990  145.0140 C   0  0  0  0  0  3  0  0  0  0  0  0
  192.2650  176.0780  144.3320 C   0  0  0  0  0  3  0  0  0  0  0  0
  194.3410  174.9430  145.8050 C   0  0  0  0  0  3  0  0  0  0  0  0
  193.6630  172.6870  145.2560 C   0  0  0  0  0  0  0  0  0  0  0  0
  193.8450  171.5480  145.3520 N   0  0  0  0  0  0  0  0  0  0  0  0
  186.1640  177.1410  142.6570 C   0  0  2  0  0  3  0  0  0  0  0  0
  185.3210  177.8710  140.5070 N   0  0  0  0  0  2  0  0  0  0  0  0
  185.1310  177.7770  141.7730 C   0  0  0  0  0  0  0  0  0  0  0  0
  183.8650  178.2930  142.3690 C   0  0  0  0  0  1  0  0  0  0  0  0
  186.0460  177.6320  144.0220 N   0  0  0  0  0  2  0  0  0  0  0  0
  187.5710  177.5230  145.9130 C   0  0  2  0  0  0  0  0  0  0  0  0
  186.6420  178.1300  146.9430 C   0  0  0  0  0  2  0  0  0  0  0  0
  186.8010  176.7280  144.8760 C   0  0  1  0  0  3  0  0  0  0  0  0
  186.2760  176.8120  146.2930 C   0  0  1  0  0  3  0  0  0  0  0  0
  190.8300  175.3950  147.6540 C   0  0  0  0  0  3  0  0  0  0  0  0
  190.7550  176.7840  147.7140 C   0  0  0  0  0  3  0  0  0  0  0  0
  189.8150  174.7100  146.9930 C   0  0  0  0  0  3  0  0  0  0  0  0
  188.7260  176.7550  146.4930 C   0  0  0  0  0  0  0  0  0  0  0  0
  188.7850  175.3940  146.4290 N   0  0  0  0  0  0  0  0  0  0  0  0
  189.7120  177.4360  147.1360 N   0  0  0  0  0  0  0  0  0  0  0  0
  1  3  2  0  0  0  0
  2  4  1  0  0  0  0
  2  3  1  0  0  0  0
  3 19  1  0  0  0  0
  4  5  1  0  0  0  0
  5  6  1  6  0  0  0
  6  4  1  0  0  0  0
  7  5  1  6  0  0  0
  7  9  1  0  0  0  0
  8 10  1  6  0  0  0
  8  7  1  0  0  0  0
  8  9  1  0  0  0  0
  9 12  1  1  0  0  0
 10  9  1  0  0  0  0
 11 16  1  0  0  0  0
 12 13  1  0  0  0  0
 13 17  1  0  0  0  0
 13 16  2  0  0  0  0
 14 11  2  0  0  0  0
 15 12  2  0  0  0  0
 15 14  1  0  0  0  0
 17 18  3  0  0  0  0
 19 21  1  6  0  0  0
 19 23  1  0  0  0  0
 20 21  2  0  0  0  0
 21 22  1  0  0  0  0
 24 27  1  0  0  0  0
 24 31  1  1  0  0  0
 24 25  1  0  0  0  0
 26 23  1  6  0  0  0
 26 24  1  0  0  0  0
 26 27  1  0  0  0  0
 27 25  1  6  0  0  0
 28 29  1  0  0  0  0
 30 28  2  0  0  0  0
 31 33  1  0  0  0  0
 32 31  2  0  0  0  0
 32 30  1  0  0  0  0
 33 29  2  0  0  0  0
M  END
>  <MODEL>
4

>  <REMARK>
 VINA RESULT:      -6.9      2.608      7.321
  Name = 
  9 active torsions:
  status: ('A' for Active; 'I' for Inactive)
    1  A    between atoms: C_1  and  C_22
    2  A    between atoms: C_3  and  C_7
    3  A    between atoms: C_5  and  C_25
    4  A    between atoms: N_6  and  C_20
    5  A    between atoms: N_6  and  C_23
    6  A    between atoms: N_9  and  N_13
    7  A    between atoms: C_12  and  C_15
    8  A    between atoms: C_14  and  C_20
    9  A    between atoms: C_20  and  C_28
                            x       y       z     vdW  Elec       q    Type
                         _______ _______ _______ _____ _____    ______ ____

>  <TORSDO>
F 9

$$$$
=
 OpenBabel11042416143D

 33 39  0  0  1  0  0  0  0  0999 V2000
  189.6720  173.2460  145.4000 O   0  0  0  0  0  0  0  0  0  0  0  0
  189.0720  174.7700  143.7580 N   0  0  0  0  0  2  0  0  0  0  0  0
  189.9430  173.7730  144.2900 C   0  0  0  0  0  0  0  0  0  0  0  0
  189.3680  175.4190  142.5460 N   0  0  0  0  0  0  0  0  0  0  0  0
  188.2590  176.3190  142.1310 C   0  0  1  0  0  3  0  0  0  0  0  0
  188.3570  174.9760  141.5720 C   0  0  0  0  0  2  0  0  0  0  0  0
  187.0920  176.4020  143.1170 C   0  0  2  0  0  3  0  0  0  0  0  0
  185.9540  177.1950  142.5200 C   0  0  1  0  0  3  0  0  0  0  0  0
  186.8560  177.8470  143.4920 C   0  0  2  0  0  0  0  0  0  0  0  0
  186.2980  178.6170  142.3730 N   0  0  0  0  0  2  0  0  0  0  0  0
  184.5970  178.4030  147.1490 C   0  0  0  0  0  3  0  0  0  0  0  0
  186.1520  178.0230  144.8280 C   0  0  0  0  0  0  0  0  0  0  0  0
  186.6900  177.7330  146.1150 C   0  0  0  0  0  0  0  0  0  0  0  0
  184.0550  178.6740  145.8950 C   0  0  0  0  0  3  0  0  0  0  0  0
  184.8260  178.4800  144.7460 C   0  0  0  0  0  3  0  0  0  0  0  0
  185.9070  177.9370  147.2570 C   0  0  0  0  0  3  0  0  0  0  0  0
  188.0300  177.2410  146.3300 C   0  0  0  0  0  0  0  0  0  0  0  0
  189.1050  176.8460  146.4960 N   0  0  0  0  0  0  0  0  0  0  0  0
  191.1780  173.3620  143.5400 C   0  0  2  0  0  3  0  0  0  0  0  0
  190.0320  171.4180  142.6590 N   0  0  0  0  0  2  0  0  0  0  0  0
  190.8610  172.3760  142.4530 C   0  0  0  0  0  0  0  0  0  0  0  0
  191.5030  172.5210  141.1140 C   0  0  0  0  0  1  0  0  0  0  0  0
  192.1760  172.8190  144.4500 N   0  0  0  0  0  2  0  0  0  0  0  0
  193.5390  174.8310  144.3530 C   0  0  2  0  0  0  0  0  0  0  0  0
  193.6220  175.0780  145.8440 C   0  0  0  0  0  2  0  0  0  0  0  0
  193.4690  173.3480  144.0420 C   0  0  1  0  0  3  0  0  0  0  0  0
  194.2310  173.8200  145.2610 C   0  0  1  0  0  3  0  0  0  0  0  0
  196.5910  176.7990  142.1170 C   0  0  0  0  0  3  0  0  0  0  0  0
  196.5900  176.8060  143.5090 C   0  0  0  0  0  3  0  0  0  0  0  0
  195.5520  176.1410  141.4640 C   0  0  0  0  0  3  0  0  0  0  0  0
  194.5870  175.5450  143.5450 C   0  0  0  0  0  0  0  0  0  0  0  0
  194.5760  175.5260  142.1810 N   0  0  0  0  0  0  0  0  0  0  0  0
  195.5960  176.1840  144.1950 N   0  0  0  0  0  0  0  0  0  0  0  0
  2  3  1  0  0  0  0
  3  1  2  0  0  0  0
  4  2  1  0  0  0  0
  5  6  1  6  0  0  0
  5  4  1  0  0  0  0
  6  4  1  0  0  0  0
  7  5  1  6  0  0  0
  7  9  1  0  0  0  0
  8 10  1  6  0  0  0
  8  7  1  0  0  0  0
  8  9  1  0  0  0  0
  9 12  1  1  0  0  0
 10  9  1  0  0  0  0
 11 16  1  0  0  0  0
 12 13  1  0  0  0  0
 13 17  1  0  0  0  0
 13 16  2  0  0  0  0
 14 11  2  0  0  0  0
 15 12  2  0  0  0  0
 15 14  1  0  0  0  0
 17 18  3  0  0  0  0
 19 21  1  6  0  0  0
 19  3  1  0  0  0  0
 19 23  1  0  0  0  0
 21 20  2  0  0  0  0
 22 21  1  0  0  0  0
 24 31  1  6  0  0  0
 24 27  1  0  0  0  0
 24 25  1  0  0  0  0
 26 24  1  0  0  0  0
 26 23  1  1  0  0  0
 26 27  1  0  0  0  0
 27 25  1  1  0  0  0
 28 29  1  0  0  0  0
 29 33  2  0  0  0  0
 30 28  2  0  0  0  0
 30 32  1  0  0  0  0
 31 33  1  0  0  0  0
 32 31  2  0  0  0  0
M  END
>  <MODEL>
5

>  <REMARK>
 VINA RESULT:      -6.9      0.916      1.263
  Name = 
  9 active torsions:
  status: ('A' for Active; 'I' for Inactive)
    1  A    between atoms: C_1  and  C_22
    2  A    between atoms: C_3  and  C_7
    3  A    between atoms: C_5  and  C_25
    4  A    between atoms: N_6  and  C_20
    5  A    between atoms: N_6  and  C_23
    6  A    between atoms: N_9  and  N_13
    7  A    between atoms: C_12  and  C_15
    8  A    between atoms: C_14  and  C_20
    9  A    between atoms: C_20  and  C_28
                            x       y       z     vdW  Elec       q    Type
                         _______ _______ _______ _____ _____    ______ ____

>  <TORSDO>
F 9

$$$$
=
 OpenBabel11042416143D

 33 39  0  0  1  0  0  0  0  0999 V2000
  191.9060  177.7530  143.2460 O   0  0  0  0  0  0  0  0  0  0  0  0
  190.6340  176.8720  144.9740 N   0  0  0  0  0  2  0  0  0  0  0  0
  191.7760  176.8550  144.1180 C   0  0  0  0  0  0  0  0  0  0  0  0
  190.4260  175.8580  145.9250 N   0  0  0  0  0  0  0  0  0  0  0  0
  189.0580  175.9310  146.5040 C   0  0  1  0  0  3  0  0  0  0  0  0
  190.1840  176.5280  147.2130 C   0  0  0  0  0  2  0  0  0  0  0  0
  188.1650  177.0220  145.9090 C   0  0  2  0  0  3  0  0  0  0  0  0
  187.3110  177.6490  146.9860 C   0  0  1  0  0  3  0  0  0  0  0  0
  186.7150  176.6350  146.0900 C   0  0  2  0  0  0  0  0  0  0  0  0
  186.3020  176.7090  147.4980 N   0  0  0  0  0  2  0  0  0  0  0  0
  183.9600  178.7150  143.4690 C   0  0  0  0  0  3  0  0  0  0  0  0
  185.7780  177.2990  145.0940 C   0  0  0  0  0  0  0  0  0  0  0  0
  185.7230  177.0590  143.6910 C   0  0  0  0  0  0  0  0  0  0  0  0
  184.0160  178.9690  144.8370 C   0  0  0  0  0  3  0  0  0  0  0  0
  184.9210  178.2690  145.6390 C   0  0  0  0  0  3  0  0  0  0  0  0
  184.8080  177.7650  142.9010 C   0  0  0  0  0  3  0  0  0  0  0  0
  186.5620  176.1030  143.0100 C   0  0  0  0  0  0  0  0  0  0  0  0
  187.2300  175.3340  142.4590 N   0  0  0  0  0  0  0  0  0  0  0  0
  192.8080  175.7710  144.2470 C   0  0  2  0  0  3  0  0  0  0  0  0
  194.9780  176.8110  144.5290 N   0  0  0  0  0  2  0  0  0  0  0  0
  193.9780  176.2200  145.0740 C   0  0  0  0  0  0  0  0  0  0  0  0
  193.9710  175.9890  146.5480 C   0  0  0  0  0  1  0  0  0  0  0  0
  193.2490  175.3230  142.9350 N   0  0  0  0  0  2  0  0  0  0  0  0
  192.7220  173.0080  143.4660 C   0  0  2  0  0  0  0  0  0  0  0  0
  191.7990  172.7480  142.2940 C   0  0  0  0  0  2  0  0  0  0  0  0
  193.8160  173.9920  143.0990 C   0  0  1  0  0  3  0  0  0  0  0  0
  193.2570  173.0680  142.0390 C   0  0  1  0  0  3  0  0  0  0  0  0
  194.2190  169.5340  145.4340 C   0  0  0  0  0  3  0  0  0  0  0  0
  194.7300  170.8000  145.7050 C   0  0  0  0  0  3  0  0  0  0  0  0
  193.2070  169.4240  144.4840 C   0  0  0  0  0  3  0  0  0  0  0  0
  193.2560  171.7660  144.1250 C   0  0  0  0  0  0  0  0  0  0  0  0
  192.7420  170.5330  143.8510 N   0  0  0  0  0  0  0  0  0  0  0  0
  194.2440  171.8870  145.0510 N   0  0  0  0  0  0  0  0  0  0  0  0
  1  3  2  0  0  0  0
  2  4  1  0  0  0  0
  3 19  1  0  0  0  0
  3  2  1  0  0  0  0
  4  5  1  0  0  0  0
  4  6  1  0  0  0  0
  5  6  1  1  0  0  0
  7  9  1  0  0  0  0
  7  5  1  1  0  0  0
  7  8  1  0  0  0  0
  8 10  1  1  0  0  0
  9 12  1  6  0  0  0
  9  8  1  0  0  0  0
  9 10  1  0  0  0  0
 11 14  1  0  0  0  0
 12 15  1  0  0  0  0
 13 12  2  0  0  0  0
 14 15  2  0  0  0  0
 16 11  2  0  0  0  0
 16 13  1  0  0  0  0
 17 13  1  0  0  0  0
 18 17  3  0  0  0  0
 19 23  1  6  0  0  0
 19 21  1  0  0  0  0
 20 21  2  0  0  0  0
 21 22  1  0  0  0  0
 24 31  1  1  0  0  0
 25 24  1  0  0  0  0
 26 23  1  6  0  0  0
 26 24  1  0  0  0  0
 27 25  1  6  0  0  0
 27 26  1  0  0  0  0
 27 24  1  0  0  0  0
 28 29  1  0  0  0  0
 30 28  2  0  0  0  0
 31 33  1  0  0  0  0
 32 31  2  0  0  0  0
 32 30  1  0  0  0  0
 33 29  2  0  0  0  0
M  END
>  <MODEL>
6

>  <REMARK>
 VINA RESULT:      -6.6      2.199      4.530
  Name = 
  9 active torsions:
  status: ('A' for Active; 'I' for Inactive)
    1  A    between atoms: C_1  and  C_22
    2  A    between atoms: C_3  and  C_7
    3  A    between atoms: C_5  and  C_25
    4  A    between atoms: N_6  and  C_20
    5  A    between atoms: N_6  and  C_23
    6  A    between atoms: N_9  and  N_13
    7  A    between atoms: C_12  and  C_15
    8  A    between atoms: C_14  and  C_20
    9  A    between atoms: C_20  and  C_28
                            x       y       z     vdW  Elec       q    Type
                         _______ _______ _______ _____ _____    ______ ____

>  <TORSDO>
F 9

$$$$
=
 OpenBabel11042416143D

 33 39  0  0  1  0  0  0  0  0999 V2000
  188.8980  178.2200  141.6510 O   0  0  0  0  0  0  0  0  0  0  0  0
  189.0450  176.0230  142.3800 N   0  0  0  0  0  2  0  0  0  0  0  0
  188.3280  177.1070  141.7880 C   0  0  0  0  0  0  0  0  0  0  0  0
  188.4270  174.7790  142.5970 N   0  0  0  0  0  0  0  0  0  0  0  0
  189.3870  173.7890  143.1540 C   0  0  1  0  0  3  0  0  0  0  0  0
  189.1080  173.8100  141.7230 C   0  0  0  0  0  2  0  0  0  0  0  0
  190.7890  174.3370  143.4320 C   0  0  2  0  0  3  0  0  0  0  0  0
  191.7960  173.2120  143.4650 C   0  0  1  0  0  3  0  0  0  0  0  0
  191.2960  173.7720  144.7380 C   0  0  2  0  0  0  0  0  0  0  0  0
  191.6010  172.3380  144.6310 N   0  0  0  0  0  2  0  0  0  0  0  0
  194.5600  176.0110  146.5050 C   0  0  0  0  0  3  0  0  0  0  0  0
  192.3700  174.6250  145.3950 C   0  0  0  0  0  0  0  0  0  0  0  0
  192.1870  175.9030  145.9980 C   0  0  0  0  0  0  0  0  0  0  0  0
  194.7530  174.7700  145.9040 C   0  0  0  0  0  3  0  0  0  0  0  0
  193.6670  174.0870  145.3510 C   0  0  0  0  0  3  0  0  0  0  0  0
  193.2840  176.5730  146.5520 C   0  0  0  0  0  3  0  0  0  0  0  0
  190.9100  176.5680  146.0900 C   0  0  0  0  0  0  0  0  0  0  0  0
  189.8840  177.0980  146.1690 N   0  0  0  0  0  0  0  0  0  0  0  0
  186.9050  176.9260  141.3420 C   0  0  2  0  0  3  0  0  0  0  0  0
  186.2040  177.6970  139.1560 N   0  0  0  0  0  2  0  0  0  0  0  0
  186.8060  176.8010  139.8490 C   0  0  0  0  0  0  0  0  0  0  0  0
  187.4290  175.6320  139.1630 C   0  0  0  0  0  1  0  0  0  0  0  0
  186.0730  178.0180  141.8230 N   0  0  0  0  0  2  0  0  0  0  0  0
  186.0200  178.7630  144.1380 C   0  0  2  0  0  0  0  0  0  0  0  0
  185.2000  180.0160  143.9170 C   0  0  0  0  0  2  0  0  0  0  0  0
  185.6290  177.6680  143.1640 C   0  0  1  0  0  3  0  0  0  0  0  0
  184.5860  178.6620  143.6280 C   0  0  1  0  0  3  0  0  0  0  0  0
  186.0190  177.4460  148.1940 C   0  0  0  0  0  3  0  0  0  0  0  0
  185.6890  178.7550  147.8550 C   0  0  0  0  0  3  0  0  0  0  0  0
  186.3690  176.5710  147.1690 C   0  0  0  0  0  3  0  0  0  0  0  0
  186.0560  178.2860  145.5630 C   0  0  0  0  0  0  0  0  0  0  0  0
  186.3790  176.9990  145.8800 N   0  0  0  0  0  0  0  0  0  0  0  0
  185.7130  179.1510  146.5550 N   0  0  0  0  0  0  0  0  0  0  0  0
  1  3  2  0  0  0  0
  2  4  1  0  0  0  0
  3  2  1  0  0  0  0
  4  5  1  0  0  0  0
  5  6  1  6  0  0  0
  6  4  1  0  0  0  0
  7  5  1  1  0  0  0
  7  8  1  0  0  0  0
  7  9  1  0  0  0  0
  8 10  1  1  0  0  0
  8  9  1  0  0  0  0
  9 12  1  1  0  0  0
 10  9  1  0  0  0  0
 11 16  1  0  0  0  0
 12 13  1  0  0  0  0
 13 17  1  0  0  0  0
 13 16  2  0  0  0  0
 14 11  2  0  0  0  0
 15 12  2  0  0  0  0
 15 14  1  0  0  0  0
 17 18  3  0  0  0  0
 19 21  1  6  0  0  0
 19  3  1  0  0  0  0
 19 23  1  0  0  0  0
 20 21  2  0  0  0  0
 22 21  1  0  0  0  0
 24 31  1  1  0  0  0
 25 24  1  0  0  0  0
 26 23  1  6  0  0  0
 26 27  1  0  0  0  0
 26 24  1  0  0  0  0
 27 25  1  6  0  0  0
 27 24  1  0  0  0  0
 29 28  1  0  0  0  0
 30 28  2  0  0  0  0
 31 32  2  0  0  0  0
 31 33  1  0  0  0  0
 32 30  1  0  0  0  0
 33 29  2  0  0  0  0
M  END
>  <MODEL>
7

>  <REMARK>
 VINA RESULT:      -6.6      2.516      8.152
  Name = 
  9 active torsions:
  status: ('A' for Active; 'I' for Inactive)
    1  A    between atoms: C_1  and  C_22
    2  A    between atoms: C_3  and  C_7
    3  A    between atoms: C_5  and  C_25
    4  A    between atoms: N_6  and  C_20
    5  A    between atoms: N_6  and  C_23
    6  A    between atoms: N_9  and  N_13
    7  A    between atoms: C_12  and  C_15
    8  A    between atoms: C_14  and  C_20
    9  A    between atoms: C_20  and  C_28
                            x       y       z     vdW  Elec       q    Type
                         _______ _______ _______ _____ _____    ______ ____

>  <TORSDO>
F 9

$$$$
=
 OpenBabel11042416143D

 33 39  0  0  1  0  0  0  0  0999 V2000
  191.9610  177.6450  143.3920 O   0  0  0  0  0  0  0  0  0  0  0  0
  190.6640  176.9970  145.2020 N   0  0  0  0  0  2  0  0  0  0  0  0
  191.8170  176.8680  144.3710 C   0  0  0  0  0  0  0  0  0  0  0  0
  190.4420  176.1160  146.2750 N   0  0  0  0  0  0  0  0  0  0  0  0
  189.0550  176.2410  146.7990 C   0  0  1  0  0  3  0  0  0  0  0  0
  190.1490  176.9490  147.4530 C   0  0  0  0  0  2  0  0  0  0  0  0
  188.1650  177.2260  146.0360 C   0  0  2  0  0  3  0  0  0  0  0  0
  187.1420  177.8370  146.9640 C   0  0  1  0  0  3  0  0  0  0  0  0
  186.7370  176.7340  146.0660 C   0  0  2  0  0  0  0  0  0  0  0  0
  186.1490  176.8470  147.4080 N   0  0  0  0  0  2  0  0  0  0  0  0
  184.1820  178.4510  143.0140 C   0  0  0  0  0  3  0  0  0  0  0  0
  185.8830  177.2700  144.9270 C   0  0  0  0  0  0  0  0  0  0  0  0
  186.0210  176.9550  143.5440 C   0  0  0  0  0  0  0  0  0  0  0  0
  184.0490  178.7780  144.3620 C   0  0  0  0  0  3  0  0  0  0  0  0
  184.8970  178.1950  145.3070 C   0  0  0  0  0  3  0  0  0  0  0  0
  185.1610  177.5440  142.6100 C   0  0  0  0  0  3  0  0  0  0  0  0
  187.0060  176.0360  143.0270 C   0  0  0  0  0  0  0  0  0  0  0  0
  187.7910  175.2940  142.6110 N   0  0  0  0  0  0  0  0  0  0  0  0
  192.8450  175.8090  144.6540 C   0  0  2  0  0  3  0  0  0  0  0  0
  194.0610  176.7550  146.5230 N   0  0  0  0  0  2  0  0  0  0  0  0
  194.0740  176.3890  145.2920 C   0  0  0  0  0  0  0  0  0  0  0  0
  195.3260  176.5270  144.4940 C   0  0  0  0  0  1  0  0  0  0  0  0
  193.1890  175.0890  143.4370 N   0  0  0  0  0  2  0  0  0  0  0  0
  193.0610  172.6630  143.3230 C   0  0  2  0  0  0  0  0  0  0  0  0
  193.6560  172.3760  144.6850 C   0  0  0  0  0  2  0  0  0  0  0  0
  192.2760  173.9610  143.3260 C   0  0  1  0  0  3  0  0  0  0  0  0
  192.3450  173.1280  144.5870 C   0  0  1  0  0  3  0  0  0  0  0  0
  190.8930  169.4550  141.5350 C   0  0  0  0  0  3  0  0  0  0  0  0
  190.6600  170.7790  141.1750 C   0  0  0  0  0  3  0  0  0  0  0  0
  191.8480  169.2000  142.5150 C   0  0  0  0  0  3  0  0  0  0  0  0
  192.2860  171.5190  142.7280 C   0  0  0  0  0  0  0  0  0  0  0  0
  192.5280  170.2270  143.0900 N   0  0  0  0  0  0  0  0  0  0  0  0
  191.3550  171.7820  141.7730 N   0  0  0  0  0  0  0  0  0  0  0  0
  1  3  2  0  0  0  0
  2  4  1  0  0  0  0
  3 19  1  0  0  0  0
  3  2  1  0  0  0  0
  4  5  1  0  0  0  0
  4  6  1  0  0  0  0
  5  6  1  1  0  0  0
  7  9  1  0  0  0  0
  7  5  1  1  0  0  0
  7  8  1  0  0  0  0
  8 10  1  1  0  0  0
  9 12  1  6  0  0  0
  9  8  1  0  0  0  0
  9 10  1  0  0  0  0
 11 14  1  0  0  0  0
 12 15  1  0  0  0  0
 13 12  2  0  0  0  0
 14 15  2  0  0  0  0
 16 11  2  0  0  0  0
 16 13  1  0  0  0  0
 17 13  1  0  0  0  0
 18 17  3  0  0  0  0
 19 23  1  6  0  0  0
 19 21  1  0  0  0  0
 21 20  2  0  0  0  0
 22 21  1  0  0  0  0
 24 31  1  6  0  0  0
 24 26  1  0  0  0  0
 24 27  1  0  0  0  0
 24 25  1  0  0  0  0
 26 23  1  1  0  0  0
 26 27  1  0  0  0  0
 27 25  1  1  0  0  0
 28 30  2  0  0  0  0
 29 28  1  0  0  0  0
 29 33  2  0  0  0  0
 30 32  1  0  0  0  0
 31 32  2  0  0  0  0
 33 31  1  0  0  0  0
M  END
>  <MODEL>
8

>  <REMARK>
 VINA RESULT:      -6.6      2.150      4.739
  Name = 
  9 active torsions:
  status: ('A' for Active; 'I' for Inactive)
    1  A    between atoms: C_1  and  C_22
    2  A    between atoms: C_3  and  C_7
    3  A    between atoms: C_5  and  C_25
    4  A    between atoms: N_6  and  C_20
    5  A    between atoms: N_6  and  C_23
    6  A    between atoms: N_9  and  N_13
    7  A    between atoms: C_12  and  C_15
    8  A    between atoms: C_14  and  C_20
    9  A    between atoms: C_20  and  C_28
                            x       y       z     vdW  Elec       q    Type
                         _______ _______ _______ _____ _____    ______ ____

>  <TORSDO>
F 9

$$$$
=
 OpenBabel11042416143D

 33 39  0  0  1  0  0  0  0  0999 V2000
  189.7260  173.9040  146.2600 O   0  0  0  0  0  0  0  0  0  0  0  0
  189.3150  174.8260  144.1720 N   0  0  0  0  0  2  0  0  0  0  0  0
  190.2010  174.4170  145.2140 C   0  0  0  0  0  0  0  0  0  0  0  0
  189.8020  175.4490  143.0100 N   0  0  0  0  0  0  0  0  0  0  0  0
  188.7840  176.3550  142.4150 C   0  0  1  0  0  3  0  0  0  0  0  0
  188.9470  175.0010  141.8980 C   0  0  0  0  0  2  0  0  0  0  0  0
  187.4810  176.4680  143.2090 C   0  0  2  0  0  3  0  0  0  0  0  0
  186.4520  177.2480  142.4230 C   0  0  1  0  0  3  0  0  0  0  0  0
  187.2000  177.9240  143.5040 C   0  0  2  0  0  0  0  0  0  0  0  0
  186.8250  178.6650  142.2920 N   0  0  0  0  0  2  0  0  0  0  0  0
  184.4090  178.5710  146.7560 C   0  0  0  0  0  3  0  0  0  0  0  0
  186.3010  178.1390  144.7120 C   0  0  0  0  0  0  0  0  0  0  0  0
  186.6560  177.9460  146.0780 C   0  0  0  0  0  0  0  0  0  0  0  0
  184.0470  178.7460  145.4230 C   0  0  0  0  0  3  0  0  0  0  0  0
  184.9850  178.5270  144.4120 C   0  0  0  0  0  3  0  0  0  0  0  0
  185.7060  178.1740  147.0810 C   0  0  0  0  0  3  0  0  0  0  0  0
  187.9680  177.5320  146.5130 C   0  0  0  0  0  0  0  0  0  0  0  0
  189.0230  177.1990  146.8560 N   0  0  0  0  0  0  0  0  0  0  0  0
  191.6840  174.6060  145.0700 C   0  0  2  0  0  3  0  0  0  0  0  0
  192.1860  176.9250  144.5830 N   0  0  0  0  0  2  0  0  0  0  0  0
  192.1040  175.9930  145.4620 C   0  0  0  0  0  0  0  0  0  0  0  0
  192.4140  176.2960  146.8890 C   0  0  0  0  0  1  0  0  0  0  0  0
  192.1120  174.3030  143.7130 N   0  0  0  0  0  2  0  0  0  0  0  0
  193.1640  172.3170  144.6430 C   0  0  2  0  0  0  0  0  0  0  0  0
  192.3210  171.2940  143.9130 C   0  0  0  0  0  2  0  0  0  0  0  0
  193.3640  173.5670  143.8060 C   0  0  1  0  0  3  0  0  0  0  0  0
  193.2150  172.2250  143.1220 C   0  0  1  0  0  3  0  0  0  0  0  0
  196.8170  170.7080  146.1440 C   0  0  0  0  0  3  0  0  0  0  0  0
  195.6650  169.9320  146.0500 C   0  0  0  0  0  3  0  0  0  0  0  0
  196.7450  172.0400  145.7470 C   0  0  0  0  0  3  0  0  0  0  0  0
  194.4540  171.7790  145.1980 C   0  0  0  0  0  0  0  0  0  0  0  0
  195.5750  172.5510  145.2810 N   0  0  0  0  0  0  0  0  0  0  0  0
  194.5110  170.4760  145.5830 N   0  0  0  0  0  0  0  0  0  0  0  0
  2  3  1  0  0  0  0
  3  1  2  0  0  0  0
  4  2  1  0  0  0  0
  5  6  1  6  0  0  0
  5  4  1  0  0  0  0
  6  4  1  0  0  0  0
  7  5  1  6  0  0  0
  7  9  1  0  0  0  0
  8 10  1  6  0  0  0
  8  7  1  0  0  0  0
  8  9  1  0  0  0  0
  9 12  1  1  0  0  0
 10  9  1  0  0  0  0
 11 16  1  0  0  0  0
 12 13  1  0  0  0  0
 13 17  1  0  0  0  0
 13 16  2  0  0  0  0
 14 11  2  0  0  0  0
 15 12  2  0  0  0  0
 15 14  1  0  0  0  0
 17 18  3  0  0  0  0
 19 23  1  6  0  0  0
 19  3  1  0  0  0  0
 19 21  1  0  0  0  0
 20 21  2  0  0  0  0
 21 22  1  0  0  0  0
 24 31  1  1  0  0  0
 25 24  1  0  0  0  0
 26 23  1  6  0  0  0
 26 24  1  0  0  0  0
 27 26  1  0  0  0  0
 27 25  1  6  0  0  0
 27 24  1  0  0  0  0
 29 28  1  0  0  0  0
 30 28  2  0  0  0  0
 31 32  2  0  0  0  0
 31 33  1  0  0  0  0
 32 30  1  0  0  0  0
 33 29  2  0  0  0  0
M  END
>  <MODEL>
9

>  <REMARK>
 VINA RESULT:      -6.3      1.999      3.136
  Name = 
  9 active torsions:
  status: ('A' for Active; 'I' for Inactive)
    1  A    between atoms: C_1  and  C_22
    2  A    between atoms: C_3  and  C_7
    3  A    between atoms: C_5  and  C_25
    4  A    between atoms: N_6  and  C_20
    5  A    between atoms: N_6  and  C_23
    6  A    between atoms: N_9  and  N_13
    7  A    between atoms: C_12  and  C_15
    8  A    between atoms: C_14  and  C_20
    9  A    between atoms: C_20  and  C_28
                            x       y       z     vdW  Elec       q    Type
                         _______ _______ _______ _____ _____    ______ ____

>  <TORSDO>
F 9

$$$$
