=
 OpenBabel11042414403D

 28 30  0  0  0  0  0  0  0  0999 V2000
  186.2330  178.4270  145.8330 C   0  0  0  0  0  2  0  0  0  0  0  0
  187.1370  177.2480  145.6410 C   0  0  0  0  0  0  0  0  0  0  0  0
  187.5010  177.8390  143.2450 C   0  0  0  0  0  0  0  0  0  0  0  0
  185.0500  178.3170  144.9910 N   0  0  0  0  0  0  0  0  0  0  0  0
  186.3160  178.3600  142.9010 C   0  0  0  0  0  3  0  0  0  0  0  0
  185.0640  178.3220  143.6870 C   0  0  0  0  0  0  0  0  0  0  0  0
  187.7260  177.0330  144.4660 C   0  0  0  0  0  3  0  0  0  0  0  0
  183.8320  178.3370  142.9580 N   0  0  0  0  0  0  0  0  0  0  0  0
  183.7710  178.1830  141.6750 C   0  0  0  0  0  3  0  0  0  0  0  0
  182.4980  178.2100  141.0110 C   0  0  0  0  0  0  0  0  0  0  0  0
  181.4720  178.2330  140.4770 N   0  0  0  0  0  0  0  0  0  0  0  0
  188.6050  177.9300  142.2430 C   0  0  0  0  0  2  0  0  0  0  0  0
  189.8470  177.2790  142.7530 C   0  0  0  0  0  0  0  0  0  0  0  0
  192.1910  176.2320  144.4010 C   0  0  0  0  0  0  0  0  0  0  0  0
  191.7740  174.0430  145.1500 C   0  0  0  0  0  3  0  0  0  0  0  0
  191.2910  175.0990  144.2660 C   0  0  0  0  0  0  0  0  0  0  0  0
  192.8730  174.4070  145.7390 N   0  0  0  0  0  0  0  0  0  0  0  0
  190.7030  178.0030  143.4820 C   0  0  0  0  0  3  0  0  0  0  0  0
  191.9390  177.5140  144.1240 C   0  0  0  0  0  3  0  0  0  0  0  0
  190.1510  175.8910  142.2770 C   0  0  0  0  0  2  0  0  0  0  0  0
  193.2160  175.7230  145.2990 C   0  0  0  0  0  0  0  0  0  0  0  0
  194.3840  176.6200  146.0130 S   0  0  0  0  0  0  0  0  0  0  0  0
  190.3730  174.9430  143.3650 N   0  0  0  0  0  0  0  0  0  0  0  0
  187.4180  176.3760  146.7010 O   0  0  0  0  0  0  0  0  0  0  0  0
  188.7200  175.8570  146.9520 C   0  0  0  0  0  2  0  0  0  0  0  0
  189.7100  176.9960  147.1500 C   0  0  0  0  0  2  0  0  0  0  0  0
  191.2720  177.4310  148.7270 O   0  0  0  0  0  1  0  0  0  0  0  0
  190.9140  176.5030  147.8030 N   0  0  0  0  0  2  0  0  0  0  0  0
  2  1  1  0  0  0  0
  2 24  1  0  0  0  0
  3  7  1  0  0  0  0
  4  1  1  0  0  0  0
  5  3  2  0  0  0  0
  5  6  1  0  0  0  0
  6  4  2  0  0  0  0
  7  2  2  0  0  0  0
  8  6  1  0  0  0  0
  9  8  2  0  0  0  0
 10  9  1  0  0  0  0
 11 10  3  0  0  0  0
 12 13  1  0  0  0  0
 12  3  1  0  0  0  0
 13 18  2  0  0  0  0
 14 21  1  0  0  0  0
 15 17  2  0  0  0  0
 16 14  1  0  0  0  0
 16 15  1  0  0  0  0
 18 19  1  0  0  0  0
 19 14  2  0  0  0  0
 20 13  1  0  0  0  0
 20 23  1  0  0  0  0
 21 17  1  0  0  0  0
 21 22  2  0  0  0  0
 23 16  2  0  0  0  0
 24 25  1  0  0  0  0
 25 26  1  0  0  0  0
 26 28  1  0  0  0  0
 28 27  1  0  0  0  0
M  END
>  <MODEL>
1

>  <REMARK>
 VINA RESULT:      -6.6      0.000      0.000
  Name = 
  8 active torsions:
  status: ('A' for Active; 'I' for Inactive)
    1  A    between atoms: C_1  and  C_3
    2  A    between atoms: C_3  and  C_11
    3  A    between atoms: C_7  and  O_9
    4  A    between atoms: C_8  and  O_9
    5  A    between atoms: C_8  and  C_22
    6  A    between atoms: N_15  and  C_19
    7  A    between atoms: C_16  and  C_20
    8  A    between atoms: C_22  and  N_25
                            x       y       z     vdW  Elec       q    Type
                         _______ _______ _______ _____ _____    ______ ____

>  <TORSDO>
F 8

$$$$
=
 OpenBabel11042414403D

 28 30  0  0  0  0  0  0  0  0999 V2000
  184.4350  178.7710  143.9980 C   0  0  0  0  0  2  0  0  0  0  0  0
  185.2640  177.5310  144.1350 C   0  0  0  0  0  0  0  0  0  0  0  0
  185.9160  177.6270  141.7290 C   0  0  0  0  0  0  0  0  0  0  0  0
  183.3390  178.5620  143.0610 N   0  0  0  0  0  0  0  0  0  0  0  0
  184.8140  178.1320  141.1590 C   0  0  0  0  0  3  0  0  0  0  0  0
  183.4880  178.3130  141.7900 C   0  0  0  0  0  0  0  0  0  0  0  0
  185.9540  177.0620  143.0970 C   0  0  0  0  0  3  0  0  0  0  0  0
  182.3420  178.2510  140.9340 N   0  0  0  0  0  0  0  0  0  0  0  0
  181.1280  178.2840  141.3800 C   0  0  0  0  0  3  0  0  0  0  0  0
  180.0260  178.2180  140.4610 C   0  0  0  0  0  0  0  0  0  0  0  0
  179.1380  178.1620  139.7220 N   0  0  0  0  0  0  0  0  0  0  0  0
  187.1210  177.4640  140.8620 C   0  0  0  0  0  2  0  0  0  0  0  0
  188.2520  176.8580  141.6230 C   0  0  0  0  0  0  0  0  0  0  0  0
  190.3280  176.0230  143.6960 C   0  0  0  0  0  0  0  0  0  0  0  0
  189.6770  174.0410  144.7800 C   0  0  0  0  0  3  0  0  0  0  0  0
  189.3670  174.9340  143.6670 C   0  0  0  0  0  0  0  0  0  0  0  0
  190.7320  174.4530  145.4160 N   0  0  0  0  0  0  0  0  0  0  0  0
  189.0770  177.6620  142.3020 C   0  0  0  0  0  3  0  0  0  0  0  0
  190.2000  177.2400  143.1620 C   0  0  0  0  0  3  0  0  0  0  0  0
  188.5020  175.3900  141.4480 C   0  0  0  0  0  2  0  0  0  0  0  0
  191.2140  175.6410  144.7850 C   0  0  0  0  0  0  0  0  0  0  0  0
  192.3630  176.5960  145.4540 S   0  0  0  0  0  0  0  0  0  0  0  0
  188.5390  174.6570  142.7100 N   0  0  0  0  0  0  0  0  0  0  0  0
  185.3700  176.8690  145.3650 O   0  0  0  0  0  0  0  0  0  0  0  0
  185.1550  177.5170  146.6140 C   0  0  0  0  0  2  0  0  0  0  0  0
  186.4480  177.5520  147.4170 C   0  0  0  0  0  2  0  0  0  0  0  0
  188.4660  177.2650  146.4370 O   0  0  0  0  0  1  0  0  0  0  0  0
  187.3900  176.5740  146.8900 N   0  0  0  0  0  2  0  0  0  0  0  0
  1  2  1  0  0  0  0
  2 24  1  0  0  0  0
  3  7  1  0  0  0  0
  4  1  1  0  0  0  0
  5  3  2  0  0  0  0
  5  6  1  0  0  0  0
  6  4  2  0  0  0  0
  7  2  2  0  0  0  0
  8  9  2  0  0  0  0
  8  6  1  0  0  0  0
 10  9  1  0  0  0  0
 11 10  3  0  0  0  0
 12 13  1  0  0  0  0
 12  3  1  0  0  0  0
 13 18  2  0  0  0  0
 14 21  1  0  0  0  0
 15 17  2  0  0  0  0
 16 14  1  0  0  0  0
 16 15  1  0  0  0  0
 18 19  1  0  0  0  0
 19 14  2  0  0  0  0
 20 13  1  0  0  0  0
 20 23  1  0  0  0  0
 21 17  1  0  0  0  0
 21 22  2  0  0  0  0
 23 16  2  0  0  0  0
 24 25  1  0  0  0  0
 25 26  1  0  0  0  0
 27 28  1  0  0  0  0
 28 26  1  0  0  0  0
M  END
>  <MODEL>
2

>  <REMARK>
 VINA RESULT:      -6.5      1.885      2.505
  Name = 
  8 active torsions:
  status: ('A' for Active; 'I' for Inactive)
    1  A    between atoms: C_1  and  C_3
    2  A    between atoms: C_3  and  C_11
    3  A    between atoms: C_7  and  O_9
    4  A    between atoms: C_8  and  O_9
    5  A    between atoms: C_8  and  C_22
    6  A    between atoms: N_15  and  C_19
    7  A    between atoms: C_16  and  C_20
    8  A    between atoms: C_22  and  N_25
                            x       y       z     vdW  Elec       q    Type
                         _______ _______ _______ _____ _____    ______ ____

>  <TORSDO>
F 8

$$$$
=
 OpenBabel11042414403D

 28 30  0  0  0  0  0  0  0  0999 V2000
  186.8680  178.8750  143.9550 C   0  0  0  0  0  2  0  0  0  0  0  0
  187.1120  177.6540  144.7890 C   0  0  0  0  0  0  0  0  0  0  0  0
  187.3600  176.2360  142.7520 C   0  0  0  0  0  0  0  0  0  0  0  0
  185.6540  178.7280  143.1630 N   0  0  0  0  0  0  0  0  0  0  0  0
  186.4980  176.8100  141.9030 C   0  0  0  0  0  3  0  0  0  0  0  0
  185.4860  177.8400  142.2230 C   0  0  0  0  0  0  0  0  0  0  0  0
  187.3700  176.4830  144.2120 C   0  0  0  0  0  3  0  0  0  0  0  0
  184.3010  177.8670  141.4190 N   0  0  0  0  0  0  0  0  0  0  0  0
  183.1470  178.2320  141.8760 C   0  0  0  0  0  3  0  0  0  0  0  0
  182.0020  178.2330  141.0100 C   0  0  0  0  0  0  0  0  0  0  0  0
  181.0800  178.2350  140.3110 N   0  0  0  0  0  0  0  0  0  0  0  0
  188.2350  175.1530  142.2110 C   0  0  0  0  0  2  0  0  0  0  0  0
  189.5100  175.0600  142.9780 C   0  0  0  0  0  0  0  0  0  0  0  0
  192.0240  175.5550  144.6340 C   0  0  0  0  0  0  0  0  0  0  0  0
  191.6350  175.0860  146.9050 C   0  0  0  0  0  3  0  0  0  0  0  0
  191.0710  174.9720  145.5630 C   0  0  0  0  0  0  0  0  0  0  0  0
  192.8210  175.6160  146.8590 N   0  0  0  0  0  0  0  0  0  0  0  0
  190.4890  175.9320  142.7110 C   0  0  0  0  0  3  0  0  0  0  0  0
  191.7850  176.0350  143.4110 C   0  0  0  0  0  3  0  0  0  0  0  0
  189.6890  173.8860  143.8920 C   0  0  0  0  0  2  0  0  0  0  0  0
  193.1480  175.8930  145.4950 C   0  0  0  0  0  0  0  0  0  0  0  0
  194.4400  176.7970  145.0590 S   0  0  0  0  0  0  0  0  0  0  0  0
  190.0280  174.2660  145.2600 N   0  0  0  0  0  0  0  0  0  0  0  0
  187.1200  177.7290  146.1880 O   0  0  0  0  0  0  0  0  0  0  0  0
  186.3040  176.9030  147.0120 C   0  0  0  0  0  2  0  0  0  0  0  0
  184.8400  177.0600  146.6270 C   0  0  0  0  0  2  0  0  0  0  0  0
  183.8260  178.9410  145.8900 O   0  0  0  0  0  1  0  0  0  0  0  0
  184.3640  178.3830  147.0040 N   0  0  0  0  0  2  0  0  0  0  0  0
  1  2  1  0  0  0  0
  2 24  1  0  0  0  0
  3  7  1  0  0  0  0
  4  1  1  0  0  0  0
  5  6  1  0  0  0  0
  5  3  2  0  0  0  0
  6  4  2  0  0  0  0
  7  2  2  0  0  0  0
  8  9  2  0  0  0  0
  8  6  1  0  0  0  0
 10  9  1  0  0  0  0
 11 10  3  0  0  0  0
 12  3  1  0  0  0  0
 12 13  1  0  0  0  0
 13 20  1  0  0  0  0
 14 21  1  0  0  0  0
 14 16  1  0  0  0  0
 16 15  1  0  0  0  0
 17 15  2  0  0  0  0
 18 13  2  0  0  0  0
 18 19  1  0  0  0  0
 19 14  2  0  0  0  0
 20 23  1  0  0  0  0
 21 17  1  0  0  0  0
 22 21  2  0  0  0  0
 23 16  2  0  0  0  0
 24 25  1  0  0  0  0
 26 28  1  0  0  0  0
 26 25  1  0  0  0  0
 27 28  1  0  0  0  0
M  END
>  <MODEL>
3

>  <REMARK>
 VINA RESULT:      -6.2      1.780      2.736
  Name = 
  8 active torsions:
  status: ('A' for Active; 'I' for Inactive)
    1  A    between atoms: C_1  and  C_3
    2  A    between atoms: C_3  and  C_11
    3  A    between atoms: C_7  and  O_9
    4  A    between atoms: C_8  and  O_9
    5  A    between atoms: C_8  and  C_22
    6  A    between atoms: N_15  and  C_19
    7  A    between atoms: C_16  and  C_20
    8  A    between atoms: C_22  and  N_25
                            x       y       z     vdW  Elec       q    Type
                         _______ _______ _______ _____ _____    ______ ____

>  <TORSDO>
F 8

$$$$
=
 OpenBabel11042414403D

 28 30  0  0  0  0  0  0  0  0999 V2000
  193.0650  173.7710  145.8270 C   0  0  0  0  0  2  0  0  0  0  0  0
  192.8280  175.1730  146.3010 C   0  0  0  0  0  0  0  0  0  0  0  0
  190.3570  174.8360  146.2540 C   0  0  0  0  0  0  0  0  0  0  0  0
  192.5020  173.5700  144.4990 N   0  0  0  0  0  0  0  0  0  0  0  0
  190.2060  174.0080  145.2130 C   0  0  0  0  0  3  0  0  0  0  0  0
  191.2310  173.6360  144.2150 C   0  0  0  0  0  0  0  0  0  0  0  0
  191.5900  175.6110  146.5220 C   0  0  0  0  0  3  0  0  0  0  0  0
  190.7740  173.2950  142.9020 N   0  0  0  0  0  0  0  0  0  0  0  0
  190.6160  174.1700  141.9610 C   0  0  0  0  0  3  0  0  0  0  0  0
  190.1520  173.7540  140.6680 C   0  0  0  0  0  0  0  0  0  0  0  0
  189.7800  173.4200  139.6240 N   0  0  0  0  0  0  0  0  0  0  0  0
  189.1460  175.1250  147.0800 C   0  0  0  0  0  2  0  0  0  0  0  0
  188.2840  176.1530  146.4280 C   0  0  0  0  0  0  0  0  0  0  0  0
  186.1150  177.7050  144.9470 C   0  0  0  0  0  0  0  0  0  0  0  0
  184.5540  178.6070  146.4550 C   0  0  0  0  0  3  0  0  0  0  0  0
  185.8470  177.9380  146.3550 C   0  0  0  0  0  0  0  0  0  0  0  0
  184.0650  178.8360  145.2740 N   0  0  0  0  0  0  0  0  0  0  0  0
  187.8470  175.9330  145.1830 C   0  0  0  0  0  3  0  0  0  0  0  0
  186.9340  176.7970  144.4090 C   0  0  0  0  0  3  0  0  0  0  0  0
  188.0900  177.4550  147.1430 C   0  0  0  0  0  2  0  0  0  0  0  0
  184.9850  178.3490  144.2940 C   0  0  0  0  0  0  0  0  0  0  0  0
  184.6040  178.2190  142.7080 S   0  0  0  0  0  0  0  0  0  0  0  0
  186.6860  177.8060  147.3350 N   0  0  0  0  0  0  0  0  0  0  0  0
  193.9010  176.0340  146.5660 O   0  0  0  0  0  0  0  0  0  0  0  0
  194.2900  177.0810  145.6830 C   0  0  0  0  0  2  0  0  0  0  0  0
  194.5870  176.5170  144.3000 C   0  0  0  0  0  2  0  0  0  0  0  0
  196.6050  176.9620  143.3830 O   0  0  0  0  0  1  0  0  0  0  0  0
  195.9780  176.0970  144.2200 N   0  0  0  0  0  2  0  0  0  0  0  0
  1  2  1  0  0  0  0
  2  7  2  0  0  0  0
  2 24  1  0  0  0  0
  3  7  1  0  0  0  0
  3 12  1  0  0  0  0
  4  1  1  0  0  0  0
  5  3  2  0  0  0  0
  6  4  2  0  0  0  0
  6  5  1  0  0  0  0
  8  6  1  0  0  0  0
  9  8  2  0  0  0  0
 10  9  1  0  0  0  0
 11 10  3  0  0  0  0
 13 12  1  0  0  0  0
 13 20  1  0  0  0  0
 14 16  1  0  0  0  0
 16 15  1  0  0  0  0
 16 23  2  0  0  0  0
 17 15  2  0  0  0  0
 18 13  2  0  0  0  0
 19 14  2  0  0  0  0
 19 18  1  0  0  0  0
 20 23  1  0  0  0  0
 21 14  1  0  0  0  0
 21 17  1  0  0  0  0
 22 21  2  0  0  0  0
 25 24  1  0  0  0  0
 26 25  1  0  0  0  0
 27 28  1  0  0  0  0
 28 26  1  0  0  0  0
M  END
>  <MODEL>
4

>  <REMARK>
 VINA RESULT:      -6.1      3.392      7.170
  Name = 
  8 active torsions:
  status: ('A' for Active; 'I' for Inactive)
    1  A    between atoms: C_1  and  C_3
    2  A    between atoms: C_3  and  C_11
    3  A    between atoms: C_7  and  O_9
    4  A    between atoms: C_8  and  O_9
    5  A    between atoms: C_8  and  C_22
    6  A    between atoms: N_15  and  C_19
    7  A    between atoms: C_16  and  C_20
    8  A    between atoms: C_22  and  N_25
                            x       y       z     vdW  Elec       q    Type
                         _______ _______ _______ _____ _____    ______ ____

>  <TORSDO>
F 8

$$$$
=
 OpenBabel11042414403D

 28 30  0  0  0  0  0  0  0  0999 V2000
  189.1490  177.6800  143.4330 C   0  0  0  0  0  2  0  0  0  0  0  0
  188.4300  177.2790  144.6840 C   0  0  0  0  0  0  0  0  0  0  0  0
  189.9400  175.3180  144.9970 C   0  0  0  0  0  0  0  0  0  0  0  0
  189.0290  176.6490  142.4110 N   0  0  0  0  0  0  0  0  0  0  0  0
  190.1950  174.9550  143.7330 C   0  0  0  0  0  3  0  0  0  0  0  0
  189.5190  175.4450  142.5120 C   0  0  0  0  0  0  0  0  0  0  0  0
  188.8390  176.2260  145.3900 C   0  0  0  0  0  3  0  0  0  0  0  0
  189.4540  174.5510  141.3960 N   0  0  0  0  0  0  0  0  0  0  0  0
  188.4720  174.5450  140.5530 C   0  0  0  0  0  3  0  0  0  0  0  0
  188.4750  173.6190  139.4570 C   0  0  0  0  0  0  0  0  0  0  0  0
  188.4750  172.8720  138.5730 N   0  0  0  0  0  0  0  0  0  0  0  0
  190.7010  174.6190  146.0760 C   0  0  0  0  0  2  0  0  0  0  0  0
  192.1680  174.8510  145.9340 C   0  0  0  0  0  0  0  0  0  0  0  0
  195.1080  174.8700  145.1210 C   0  0  0  0  0  0  0  0  0  0  0  0
  195.5640  176.6660  143.6730 C   0  0  0  0  0  3  0  0  0  0  0  0
  194.5550  176.0900  144.5570 C   0  0  0  0  0  0  0  0  0  0  0  0
  196.6520  175.9560  143.6980 N   0  0  0  0  0  0  0  0  0  0  0  0
  192.9830  173.7950  145.8440 C   0  0  0  0  0  3  0  0  0  0  0  0
  194.4440  173.8300  145.6310 C   0  0  0  0  0  3  0  0  0  0  0  0
  192.6670  176.2580  146.0700 C   0  0  0  0  0  2  0  0  0  0  0  0
  196.4650  174.8600  144.5960 C   0  0  0  0  0  0  0  0  0  0  0  0
  197.5120  173.6060  144.6920 S   0  0  0  0  0  0  0  0  0  0  0  0
  193.4740  176.6960  144.9360 N   0  0  0  0  0  0  0  0  0  0  0  0
  187.3460  178.0260  145.1630 O   0  0  0  0  0  0  0  0  0  0  0  0
  186.6620  177.7110  146.3710 C   0  0  0  0  0  2  0  0  0  0  0  0
  185.3040  177.0990  146.0610 C   0  0  0  0  0  2  0  0  0  0  0  0
  184.0840  178.9700  145.7110 O   0  0  0  0  0  1  0  0  0  0  0  0
  184.2420  177.9450  146.5860 N   0  0  0  0  0  2  0  0  0  0  0  0
  1  2  1  0  0  0  0
  2 24  1  0  0  0  0
  2  7  2  0  0  0  0
  3  7  1  0  0  0  0
  3 12  1  0  0  0  0
  4  6  2  0  0  0  0
  4  1  1  0  0  0  0
  5  3  2  0  0  0  0
  6  5  1  0  0  0  0
  8  6  1  0  0  0  0
  9  8  2  0  0  0  0
 10  9  1  0  0  0  0
 11 10  3  0  0  0  0
 13 20  1  0  0  0  0
 13 12  1  0  0  0  0
 14 19  2  0  0  0  0
 15 17  2  0  0  0  0
 15 16  1  0  0  0  0
 16 23  2  0  0  0  0
 16 14  1  0  0  0  0
 17 21  1  0  0  0  0
 18 13  2  0  0  0  0
 19 18  1  0  0  0  0
 21 22  2  0  0  0  0
 21 14  1  0  0  0  0
 23 20  1  0  0  0  0
 24 25  1  0  0  0  0
 26 25  1  0  0  0  0
 26 28  1  0  0  0  0
 27 28  1  0  0  0  0
M  END
>  <MODEL>
5

>  <REMARK>
 VINA RESULT:      -6.0      2.969      5.090
  Name = 
  8 active torsions:
  status: ('A' for Active; 'I' for Inactive)
    1  A    between atoms: C_1  and  C_3
    2  A    between atoms: C_3  and  C_11
    3  A    between atoms: C_7  and  O_9
    4  A    between atoms: C_8  and  O_9
    5  A    between atoms: C_8  and  C_22
    6  A    between atoms: N_15  and  C_19
    7  A    between atoms: C_16  and  C_20
    8  A    between atoms: C_22  and  N_25
                            x       y       z     vdW  Elec       q    Type
                         _______ _______ _______ _____ _____    ______ ____

>  <TORSDO>
F 8

$$$$
=
 OpenBabel11042414403D

 28 30  0  0  0  0  0  0  0  0999 V2000
  187.4840  178.3200  142.4120 C   0  0  0  0  0  2  0  0  0  0  0  0
  186.9590  177.3430  143.4200 C   0  0  0  0  0  0  0  0  0  0  0  0
  187.9320  175.4240  142.1570 C   0  0  0  0  0  0  0  0  0  0  0  0
  186.8890  178.0870  141.1030 N   0  0  0  0  0  0  0  0  0  0  0  0
  187.8160  175.8350  140.8880 C   0  0  0  0  0  3  0  0  0  0  0  0
  187.0550  177.0040  140.3960 C   0  0  0  0  0  0  0  0  0  0  0  0
  187.2140  176.0420  143.2950 C   0  0  0  0  0  3  0  0  0  0  0  0
  186.5290  176.9300  139.0670 N   0  0  0  0  0  0  0  0  0  0  0  0
  186.9340  176.0640  138.1950 C   0  0  0  0  0  3  0  0  0  0  0  0
  186.3600  176.0490  136.8790 C   0  0  0  0  0  0  0  0  0  0  0  0
  185.8980  176.0400  135.8190 N   0  0  0  0  0  0  0  0  0  0  0  0
  188.6890  174.1600  142.4010 C   0  0  0  0  0  2  0  0  0  0  0  0
  189.7830  174.3710  143.3930 C   0  0  0  0  0  0  0  0  0  0  0  0
  191.9560  175.4710  145.2290 C   0  0  0  0  0  0  0  0  0  0  0  0
  191.1040  175.8830  147.3810 C   0  0  0  0  0  3  0  0  0  0  0  0
  190.8040  175.2700  146.0900 C   0  0  0  0  0  0  0  0  0  0  0  0
  192.3090  176.3670  147.3880 N   0  0  0  0  0  0  0  0  0  0  0  0
  190.8530  175.0880  143.0310 C   0  0  0  0  0  3  0  0  0  0  0  0
  191.9920  175.4570  143.8940 C   0  0  0  0  0  3  0  0  0  0  0  0
  189.7000  173.6260  144.6910 C   0  0  0  0  0  2  0  0  0  0  0  0
  192.9120  176.1160  146.1170 C   0  0  0  0  0  0  0  0  0  0  0  0
  194.3230  176.8030  145.6540 S   0  0  0  0  0  0  0  0  0  0  0  0
  189.7920  174.4930  145.8610 N   0  0  0  0  0  0  0  0  0  0  0  0
  186.2330  177.7800  144.5350 O   0  0  0  0  0  0  0  0  0  0  0  0
  185.6710  179.0850  144.6300 C   0  0  0  0  0  2  0  0  0  0  0  0
  184.3680  179.0390  145.4150 C   0  0  0  0  0  2  0  0  0  0  0  0
  184.8170  178.6470  147.5960 O   0  0  0  0  0  1  0  0  0  0  0  0
  184.4450  178.0200  146.4520 N   0  0  0  0  0  2  0  0  0  0  0  0
  1  2  1  0  0  0  0
  2 24  1  0  0  0  0
  3 12  1  0  0  0  0
  3  7  1  0  0  0  0
  4  1  1  0  0  0  0
  5  3  2  0  0  0  0
  6  5  1  0  0  0  0
  6  4  2  0  0  0  0
  7  2  2  0  0  0  0
  8  6  1  0  0  0  0
  9  8  2  0  0  0  0
 10  9  1  0  0  0  0
 11 10  3  0  0  0  0
 12 13  1  0  0  0  0
 13 20  1  0  0  0  0
 14 16  1  0  0  0  0
 14 21  1  0  0  0  0
 15 17  2  0  0  0  0
 16 15  1  0  0  0  0
 18 13  2  0  0  0  0
 18 19  1  0  0  0  0
 19 14  2  0  0  0  0
 20 23  1  0  0  0  0
 21 17  1  0  0  0  0
 22 21  2  0  0  0  0
 23 16  2  0  0  0  0
 24 25  1  0  0  0  0
 25 26  1  0  0  0  0
 26 28  1  0  0  0  0
 28 27  1  0  0  0  0
M  END
>  <MODEL>
6

>  <REMARK>
 VINA RESULT:      -6.0      2.841      3.985
  Name = 
  8 active torsions:
  status: ('A' for Active; 'I' for Inactive)
    1  A    between atoms: C_1  and  C_3
    2  A    between atoms: C_3  and  C_11
    3  A    between atoms: C_7  and  O_9
    4  A    between atoms: C_8  and  O_9
    5  A    between atoms: C_8  and  C_22
    6  A    between atoms: N_15  and  C_19
    7  A    between atoms: C_16  and  C_20
    8  A    between atoms: C_22  and  N_25
                            x       y       z     vdW  Elec       q    Type
                         _______ _______ _______ _____ _____    ______ ____

>  <TORSDO>
F 8

$$$$
=
 OpenBabel11042414403D

 28 30  0  0  0  0  0  0  0  0999 V2000
  184.9260  178.6650  140.9330 C   0  0  0  0  0  2  0  0  0  0  0  0
  184.2130  178.2910  142.1960 C   0  0  0  0  0  0  0  0  0  0  0  0
  186.3780  177.9730  143.3950 C   0  0  0  0  0  0  0  0  0  0  0  0
  185.7350  177.5570  140.4450 N   0  0  0  0  0  0  0  0  0  0  0  0
  187.1710  177.5050  142.4230 C   0  0  0  0  0  3  0  0  0  0  0  0
  186.7590  177.0520  141.0770 C   0  0  0  0  0  0  0  0  0  0  0  0
  184.9010  178.0210  143.3050 C   0  0  0  0  0  3  0  0  0  0  0  0
  187.5630  176.0490  140.4480 N   0  0  0  0  0  0  0  0  0  0  0  0
  188.1910  175.1320  141.1120 C   0  0  0  0  0  3  0  0  0  0  0  0
  188.9810  174.1570  140.4130 C   0  0  0  0  0  0  0  0  0  0  0  0
  189.6180  173.3720  139.8510 N   0  0  0  0  0  0  0  0  0  0  0  0
  187.0170  178.2910  144.7070 C   0  0  0  0  0  2  0  0  0  0  0  0
  188.2540  177.4820  144.9120 C   0  0  0  0  0  0  0  0  0  0  0  0
  191.0560  176.4400  145.5200 C   0  0  0  0  0  0  0  0  0  0  0  0
  191.1710  175.5750  147.7030 C   0  0  0  0  0  3  0  0  0  0  0  0
  190.2580  176.0690  146.6760 C   0  0  0  0  0  0  0  0  0  0  0  0
  192.3930  175.5660  147.2630 N   0  0  0  0  0  0  0  0  0  0  0  0
  189.4040  177.9160  144.3850 C   0  0  0  0  0  3  0  0  0  0  0  0
  190.7310  177.2890  144.5410 C   0  0  0  0  0  3  0  0  0  0  0  0
  188.1070  176.1370  145.5580 C   0  0  0  0  0  2  0  0  0  0  0  0
  192.3990  176.0440  145.9160 C   0  0  0  0  0  0  0  0  0  0  0  0
  193.7750  176.4250  145.1170 S   0  0  0  0  0  0  0  0  0  0  0  0
  188.9680  175.9600  146.7240 N   0  0  0  0  0  0  0  0  0  0  0  0
  182.8140  178.2630  142.2520 O   0  0  0  0  0  0  0  0  0  0  0  0
  181.9910  178.3210  141.0910 C   0  0  0  0  0  2  0  0  0  0  0  0
  180.6890  179.0430  141.4070 C   0  0  0  0  0  2  0  0  0  0  0  0
  179.5960  180.4740  140.0390 O   0  0  0  0  0  1  0  0  0  0  0  0
  179.8770  179.1570  140.2040 N   0  0  0  0  0  2  0  0  0  0  0  0
  1  2  1  0  0  0  0
  2 24  1  0  0  0  0
  2  7  2  0  0  0  0
  3 12  1  0  0  0  0
  4  1  1  0  0  0  0
  4  6  2  0  0  0  0
  5  3  2  0  0  0  0
  6  5  1  0  0  0  0
  7  3  1  0  0  0  0
  8  6  1  0  0  0  0
  8  9  2  0  0  0  0
 10  9  1  0  0  0  0
 11 10  3  0  0  0  0
 12 13  1  0  0  0  0
 13 20  1  0  0  0  0
 14 21  1  0  0  0  0
 14 16  1  0  0  0  0
 16 23  2  0  0  0  0
 16 15  1  0  0  0  0
 17 15  2  0  0  0  0
 18 19  1  0  0  0  0
 18 13  2  0  0  0  0
 19 14  2  0  0  0  0
 20 23  1  0  0  0  0
 21 17  1  0  0  0  0
 22 21  2  0  0  0  0
 25 26  1  0  0  0  0
 25 24  1  0  0  0  0
 27 28  1  0  0  0  0
 28 26  1  0  0  0  0
M  END
>  <MODEL>
7

>  <REMARK>
 VINA RESULT:      -6.0      3.103      6.063
  Name = 
  8 active torsions:
  status: ('A' for Active; 'I' for Inactive)
    1  A    between atoms: C_1  and  C_3
    2  A    between atoms: C_3  and  C_11
    3  A    between atoms: C_7  and  O_9
    4  A    between atoms: C_8  and  O_9
    5  A    between atoms: C_8  and  C_22
    6  A    between atoms: N_15  and  C_19
    7  A    between atoms: C_16  and  C_20
    8  A    between atoms: C_22  and  N_25
                            x       y       z     vdW  Elec       q    Type
                         _______ _______ _______ _____ _____    ______ ____

>  <TORSDO>
F 8

$$$$
=
 OpenBabel11042414403D

 28 30  0  0  0  0  0  0  0  0999 V2000
  191.4510  174.9780  142.9550 C   0  0  0  0  0  2  0  0  0  0  0  0
  190.3570  173.9920  143.2330 C   0  0  0  0  0  0  0  0  0  0  0  0
  190.2250  174.7190  145.6160 C   0  0  0  0  0  0  0  0  0  0  0  0
  192.6340  174.6780  143.7500 N   0  0  0  0  0  0  0  0  0  0  0  0
  191.5010  175.0230  145.8880 C   0  0  0  0  0  3  0  0  0  0  0  0
  192.6850  174.7280  145.0520 C   0  0  0  0  0  0  0  0  0  0  0  0
  189.7970  173.9280  144.4400 C   0  0  0  0  0  3  0  0  0  0  0  0
  193.9330  174.5400  145.7270 N   0  0  0  0  0  0  0  0  0  0  0  0
  194.9910  174.0860  145.1370 C   0  0  0  0  0  3  0  0  0  0  0  0
  196.2100  173.9220  145.8780 C   0  0  0  0  0  0  0  0  0  0  0  0
  197.1910  173.7900  146.4770 N   0  0  0  0  0  0  0  0  0  0  0  0
  189.2070  175.0450  146.6590 C   0  0  0  0  0  2  0  0  0  0  0  0
  188.3050  176.1430  146.2040 C   0  0  0  0  0  0  0  0  0  0  0  0
  186.0260  177.8640  145.1320 C   0  0  0  0  0  0  0  0  0  0  0  0
  184.6850  178.6650  146.8890 C   0  0  0  0  0  3  0  0  0  0  0  0
  185.9360  177.9800  146.5770 C   0  0  0  0  0  0  0  0  0  0  0  0
  184.0670  179.0070  145.7990 N   0  0  0  0  0  0  0  0  0  0  0  0
  187.7170  176.0410  145.0080 C   0  0  0  0  0  3  0  0  0  0  0  0
  186.7460  176.9890  144.4250 C   0  0  0  0  0  3  0  0  0  0  0  0
  188.2400  177.3830  147.0440 C   0  0  0  0  0  2  0  0  0  0  0  0
  184.8480  178.5870  144.6780 C   0  0  0  0  0  0  0  0  0  0  0  0
  184.2760  178.6030  143.1440 S   0  0  0  0  0  0  0  0  0  0  0  0
  186.8810  177.7450  147.4330 N   0  0  0  0  0  0  0  0  0  0  0  0
  189.8690  173.1540  142.2230 O   0  0  0  0  0  0  0  0  0  0  0  0
  188.5720  173.3000  141.6550 C   0  0  0  0  0  2  0  0  0  0  0  0
  188.5170  174.5480  140.7860 C   0  0  0  0  0  2  0  0  0  0  0  0
  188.1950  176.7350  141.2620 O   0  0  0  0  0  1  0  0  0  0  0  0
  187.6000  175.5200  141.3650 N   0  0  0  0  0  2  0  0  0  0  0  0
  1  2  1  0  0  0  0
  1  4  1  0  0  0  0
  2  7  2  0  0  0  0
  3  5  2  0  0  0  0
  3 12  1  0  0  0  0
  4  6  2  0  0  0  0
  6  8  1  0  0  0  0
  6  5  1  0  0  0  0
  7  3  1  0  0  0  0
  9  8  2  0  0  0  0
  9 10  1  0  0  0  0
 10 11  3  0  0  0  0
 13 12  1  0  0  0  0
 13 20  1  0  0  0  0
 14 16  1  0  0  0  0
 16 15  1  0  0  0  0
 16 23  2  0  0  0  0
 17 15  2  0  0  0  0
 18 13  2  0  0  0  0
 19 18  1  0  0  0  0
 19 14  2  0  0  0  0
 20 23  1  0  0  0  0
 21 14  1  0  0  0  0
 21 17  1  0  0  0  0
 22 21  2  0  0  0  0
 24  2  1  0  0  0  0
 25 24  1  0  0  0  0
 26 28  1  0  0  0  0
 26 25  1  0  0  0  0
 27 28  1  0  0  0  0
M  END
>  <MODEL>
8

>  <REMARK>
 VINA RESULT:      -5.9      3.620      8.354
  Name = 
  8 active torsions:
  status: ('A' for Active; 'I' for Inactive)
    1  A    between atoms: C_1  and  C_3
    2  A    between atoms: C_3  and  C_11
    3  A    between atoms: C_7  and  O_9
    4  A    between atoms: C_8  and  O_9
    5  A    between atoms: C_8  and  C_22
    6  A    between atoms: N_15  and  C_19
    7  A    between atoms: C_16  and  C_20
    8  A    between atoms: C_22  and  N_25
                            x       y       z     vdW  Elec       q    Type
                         _______ _______ _______ _____ _____    ______ ____

>  <TORSDO>
F 8

$$$$
=
 OpenBabel11042414403D

 28 30  0  0  0  0  0  0  0  0999 V2000
  188.3070  177.7640  142.6810 C   0  0  0  0  0  2  0  0  0  0  0  0
  187.5160  177.6640  143.9490 C   0  0  0  0  0  0  0  0  0  0  0  0
  188.9790  175.8260  144.7890 C   0  0  0  0  0  0  0  0  0  0  0  0
  188.2260  176.5250  141.9200 N   0  0  0  0  0  0  0  0  0  0  0  0
  189.2950  175.1800  143.6600 C   0  0  0  0  0  3  0  0  0  0  0  0
  188.6920  175.3750  142.3230 C   0  0  0  0  0  0  0  0  0  0  0  0
  187.8710  176.8020  144.9010 C   0  0  0  0  0  3  0  0  0  0  0  0
  188.6740  174.2470  141.4420 N   0  0  0  0  0  0  0  0  0  0  0  0
  188.5660  174.3590  140.1570 C   0  0  0  0  0  3  0  0  0  0  0  0
  188.5550  173.1820  139.3350 C   0  0  0  0  0  0  0  0  0  0  0  0
  188.5450  172.2320  138.6730 N   0  0  0  0  0  0  0  0  0  0  0  0
  189.6710  175.3950  146.0410 C   0  0  0  0  0  2  0  0  0  0  0  0
  191.1510  175.5270  145.9080 C   0  0  0  0  0  0  0  0  0  0  0  0
  194.1320  175.1510  145.3810 C   0  0  0  0  0  0  0  0  0  0  0  0
  194.7360  176.0660  143.3020 C   0  0  0  0  0  3  0  0  0  0  0  0
  193.6570  175.9720  144.2810 C   0  0  0  0  0  0  0  0  0  0  0  0
  195.7940  175.4440  143.7260 N   0  0  0  0  0  0  0  0  0  0  0  0
  191.9310  174.5450  146.3730 C   0  0  0  0  0  3  0  0  0  0  0  0
  193.4020  174.4700  146.2680 C   0  0  0  0  0  3  0  0  0  0  0  0
  191.6920  176.8340  145.4110 C   0  0  0  0  0  2  0  0  0  0  0  0
  195.5160  174.8900  145.0140 C   0  0  0  0  0  0  0  0  0  0  0  0
  196.5090  173.8190  145.7510 S   0  0  0  0  0  0  0  0  0  0  0  0
  192.5790  176.6910  144.2610 N   0  0  0  0  0  0  0  0  0  0  0  0
  186.4190  178.5040  144.1820 O   0  0  0  0  0  0  0  0  0  0  0  0
  185.6260  179.0490  143.1330 C   0  0  0  0  0  2  0  0  0  0  0  0
  184.4750  178.1100  142.8020 C   0  0  0  0  0  2  0  0  0  0  0  0
  185.5110  178.2060  140.7950 O   0  0  0  0  0  1  0  0  0  0  0  0
  184.2900  178.0350  141.3600 N   0  0  0  0  0  2  0  0  0  0  0  0
  1  2  1  0  0  0  0
  2 24  1  0  0  0  0
  2  7  2  0  0  0  0
  3  7  1  0  0  0  0
  3 12  1  0  0  0  0
  4  6  2  0  0  0  0
  4  1  1  0  0  0  0
  5  3  2  0  0  0  0
  6  5  1  0  0  0  0
  8  6  1  0  0  0  0
  9  8  2  0  0  0  0
 10  9  1  0  0  0  0
 11 10  3  0  0  0  0
 13 12  1  0  0  0  0
 13 18  2  0  0  0  0
 14 19  2  0  0  0  0
 15 17  2  0  0  0  0
 15 16  1  0  0  0  0
 16 14  1  0  0  0  0
 17 21  1  0  0  0  0
 19 18  1  0  0  0  0
 20 13  1  0  0  0  0
 21 14  1  0  0  0  0
 21 22  2  0  0  0  0
 23 16  2  0  0  0  0
 23 20  1  0  0  0  0
 25 24  1  0  0  0  0
 26 25  1  0  0  0  0
 27 28  1  0  0  0  0
 28 26  1  0  0  0  0
M  END
>  <MODEL>
9

>  <REMARK>
 VINA RESULT:      -5.9      2.704      5.225
  Name = 
  8 active torsions:
  status: ('A' for Active; 'I' for Inactive)
    1  A    between atoms: C_1  and  C_3
    2  A    between atoms: C_3  and  C_11
    3  A    between atoms: C_7  and  O_9
    4  A    between atoms: C_8  and  O_9
    5  A    between atoms: C_8  and  C_22
    6  A    between atoms: N_15  and  C_19
    7  A    between atoms: C_16  and  C_20
    8  A    between atoms: C_22  and  N_25
                            x       y       z     vdW  Elec       q    Type
                         _______ _______ _______ _____ _____    ______ ____

>  <TORSDO>
F 8

$$$$
