=
 OpenBabel11042414223D

 27 28  0  0  1  0  0  0  0  0999 V2000
  185.7340  178.4690  143.2730 C   0  0  0  0  0  0  0  0  0  0  0  0
  185.9350  177.6820  147.9240 C   0  0  0  0  0  3  0  0  0  0  0  0
  185.6930  178.9610  146.0060 C   0  0  0  0  0  0  0  0  0  0  0  0
  185.9380  177.6970  145.5500 C   0  0  0  0  0  0  0  0  0  0  0  0
  186.1930  176.1180  143.7310 O   0  0  0  0  0  1  0  0  0  0  0  0
  185.9580  177.4130  144.1810 C   0  0  0  0  0  0  0  0  0  0  0  0
  185.4950  179.7710  143.7560 C   0  0  0  0  0  3  0  0  0  0  0  0
  185.4690  180.0260  145.1360 C   0  0  0  0  0  3  0  0  0  0  0  0
  186.1330  176.7670  146.6940 C   0  0  1  0  0  3  0  0  0  0  0  0
  185.6850  179.0310  147.4140 N   0  0  0  0  0  0  0  0  0  0  0  0
  187.5530  176.2150  146.6850 C   0  0  0  0  0  2  0  0  0  0  0  0
  188.5750  177.3410  146.7490 C   0  0  0  0  0  2  0  0  0  0  0  0
  189.9090  175.4450  147.3510 O   0  0  0  0  0  1  0  0  0  0  0  0
  189.9760  176.7910  146.9820 C   0  0  1  0  0  3  0  0  0  0  0  0
  191.9700  176.5630  145.7350 O   0  0  0  0  0  0  0  0  0  0  0  0
  190.8080  176.9390  145.7480 C   0  0  0  0  0  0  0  0  0  0  0  0
  190.1990  177.5370  144.5230 C   0  0  0  0  0  2  0  0  0  0  0  0
  189.3830  175.0230  143.8360 O   0  0  0  0  0  1  0  0  0  0  0  0
  188.9380  176.8730  142.0410 O   0  0  0  0  0  0  0  0  0  0  0  0
  189.9790  176.2750  143.2330 P   0  0  0  0  0  0  0  0  0  0  0  0
  191.4760  175.9090  142.5360 O   0  0  0  0  0  1  0  0  0  0  0  0
  185.7740  178.2330  141.7980 C   0  0  0  0  0  2  0  0  0  0  0  0
  184.2420  178.2560  139.9760 O   0  0  0  0  0  0  0  0  0  0  0  0
  183.2690  178.2650  142.1020 N   0  0  0  0  0  2  0  0  0  0  0  0
  184.3970  178.2630  141.2270 C   0  0  0  0  0  0  0  0  0  0  0  0
  181.9520  178.2660  141.6210 C   0  0  0  0  0  0  0  0  0  0  0  0
  180.8190  178.2680  141.2080 C   0  0  0  0  0  3  0  0  0  0  0  0
  1  7  2  0  0  0  0
  1  6  1  0  0  0  0
  3 10  1  0  0  0  0
  4  3  1  0  0  0  0
  4  9  1  0  0  0  0
  5  6  1  0  0  0  0
  6  4  2  0  0  0  0
  7  8  1  0  0  0  0
  8  3  2  0  0  0  0
  9 11  1  1  0  0  0
  9  2  1  0  0  0  0
 10  2  2  0  0  0  0
 11 12  1  0  0  0  0
 12 14  1  0  0  0  0
 14 13  1  6  0  0  0
 15 16  2  0  0  0  0
 16 14  1  0  0  0  0
 17 16  1  0  0  0  0
 19 20  2  0  0  0  0
 20 18  1  0  0  0  0
 20 17  1  0  0  0  0
 21 20  1  0  0  0  0
 22  1  1  0  0  0  0
 23 25  2  0  0  0  0
 25 22  1  0  0  0  0
 25 24  1  0  0  0  0
 26 24  1  0  0  0  0
 27 26  3  0  0  0  0
M  END
>  <MODEL>
1

>  <REMARK>
 VINA RESULT:      -6.6      0.000      0.000
  Name = 
  9 active torsions:
  status: ('A' for Active; 'I' for Inactive)
    1  A    between atoms: C_1  and  C_19
    2  A    between atoms: C_4  and  C_17
    3  A    between atoms: C_4  and  C_18
    4  A    between atoms: C_9  and  N_12
    5  A    between atoms: C_13  and  C_19
    6  A    between atoms: C_17  and  C_26
    7  A    between atoms: C_18  and  C_24
    8  A    between atoms: P_22  and  C_23
    9  A    between atoms: C_23  and  C_26
                            x       y       z     vdW  Elec       q    Type
                         _______ _______ _______ _____ _____    ______ ____

>  <TORSDO>
F 9

$$$$
=
 OpenBabel11042414223D

 27 28  0  0  1  0  0  0  0  0999 V2000
  185.7550  178.3870  143.1620 C   0  0  0  0  0  0  0  0  0  0  0  0
  186.0580  177.6480  147.8160 C   0  0  0  0  0  3  0  0  0  0  0  0
  185.7710  178.9070  145.8900 C   0  0  0  0  0  0  0  0  0  0  0  0
  186.0110  177.6390  145.4420 C   0  0  0  0  0  0  0  0  0  0  0  0
  186.2300  176.0420  143.6340 O   0  0  0  0  0  1  0  0  0  0  0  0
  186.0010  177.3410  144.0750 C   0  0  0  0  0  0  0  0  0  0  0  0
  185.5240  179.6930  143.6370 C   0  0  0  0  0  3  0  0  0  0  0  0
  185.5260  179.9620  145.0150 C   0  0  0  0  0  3  0  0  0  0  0  0
  186.2320  176.7210  146.5910 C   0  0  1  0  0  3  0  0  0  0  0  0
  185.7940  178.9910  147.2980 N   0  0  0  0  0  0  0  0  0  0  0  0
  187.6530  176.1730  146.5570 C   0  0  0  0  0  2  0  0  0  0  0  0
  188.6640  177.2920  146.3500 C   0  0  0  0  0  2  0  0  0  0  0  0
  190.2340  178.1360  144.7510 O   0  0  0  0  0  1  0  0  0  0  0  0
  189.5970  176.9740  145.1890 C   0  0  1  0  0  3  0  0  0  0  0  0
  190.6400  174.8560  145.0790 O   0  0  0  0  0  0  0  0  0  0  0  0
  190.6160  175.9600  145.6010 C   0  0  0  0  0  0  0  0  0  0  0  0
  191.6190  176.3150  146.6480 C   0  0  0  0  0  2  0  0  0  0  0  0
  193.2960  176.7850  144.5440 O   0  0  0  0  0  0  0  0  0  0  0  0
  194.3120  177.2490  146.9090 O   0  0  0  0  0  1  0  0  0  0  0  0
  193.3040  176.2710  145.9670 P   0  0  0  0  0  0  0  0  0  0  0  0
  193.8850  174.6830  145.9890 O   0  0  0  0  0  1  0  0  0  0  0  0
  185.7640  178.1360  141.6890 C   0  0  0  0  0  2  0  0  0  0  0  0
  184.1850  177.9640  139.9170 O   0  0  0  0  0  0  0  0  0  0  0  0
  183.2710  178.3020  142.0430 N   0  0  0  0  0  2  0  0  0  0  0  0
  184.3740  178.1380  141.1510 C   0  0  0  0  0  0  0  0  0  0  0  0
  181.9420  178.2850  141.5960 C   0  0  0  0  0  0  0  0  0  0  0  0
  180.8000  178.2710  141.2110 C   0  0  0  0  0  3  0  0  0  0  0  0
  1  7  2  0  0  0  0
  1  6  1  0  0  0  0
  3 10  1  0  0  0  0
  4  3  1  0  0  0  0
  4  9  1  0  0  0  0
  5  6  1  0  0  0  0
  6  4  2  0  0  0  0
  7  8  1  0  0  0  0
  8  3  2  0  0  0  0
  9 11  1  6  0  0  0
  9  2  1  0  0  0  0
 10  2  2  0  0  0  0
 12 11  1  0  0  0  0
 14 13  1  1  0  0  0
 14 16  1  0  0  0  0
 14 12  1  0  0  0  0
 15 16  2  0  0  0  0
 16 17  1  0  0  0  0
 18 20  2  0  0  0  0
 20 21  1  0  0  0  0
 20 17  1  0  0  0  0
 20 19  1  0  0  0  0
 22  1  1  0  0  0  0
 23 25  2  0  0  0  0
 25 22  1  0  0  0  0
 25 24  1  0  0  0  0
 26 24  1  0  0  0  0
 27 26  3  0  0  0  0
M  END
>  <MODEL>
2

>  <REMARK>
 VINA RESULT:      -6.4      1.423      2.290
  Name = 
  9 active torsions:
  status: ('A' for Active; 'I' for Inactive)
    1  A    between atoms: C_1  and  C_19
    2  A    between atoms: C_4  and  C_17
    3  A    between atoms: C_4  and  C_18
    4  A    between atoms: C_9  and  N_12
    5  A    between atoms: C_13  and  C_19
    6  A    between atoms: C_17  and  C_26
    7  A    between atoms: C_18  and  C_24
    8  A    between atoms: P_22  and  C_23
    9  A    between atoms: C_23  and  C_26
                            x       y       z     vdW  Elec       q    Type
                         _______ _______ _______ _____ _____    ______ ____

>  <TORSDO>
F 9

$$$$
=
 OpenBabel11042414223D

 27 28  0  0  1  0  0  0  0  0999 V2000
  186.4410  178.3420  145.3090 C   0  0  0  0  0  0  0  0  0  0  0  0
  189.4860  174.9240  146.4670 C   0  0  0  0  0  3  0  0  0  0  0  0
  187.6120  176.2630  146.7300 C   0  0  0  0  0  0  0  0  0  0  0  0
  188.2090  176.7240  145.5920 C   0  0  0  0  0  0  0  0  0  0  0  0
  188.2520  178.2120  143.6810 O   0  0  0  0  0  1  0  0  0  0  0  0
  187.6420  177.7640  144.8470 C   0  0  0  0  0  0  0  0  0  0  0  0
  185.8420  177.8660  146.4920 C   0  0  0  0  0  3  0  0  0  0  0  0
  186.4260  176.8130  147.2130 C   0  0  0  0  0  3  0  0  0  0  0  0
  189.4500  175.9530  145.3130 C   0  0  1  0  0  3  0  0  0  0  0  0
  188.3230  175.1940  147.3130 N   0  0  0  0  0  0  0  0  0  0  0  0
  190.6650  176.8670  145.3990 C   0  0  0  0  0  2  0  0  0  0  0  0
  191.7940  176.2020  146.1750 C   0  0  0  0  0  2  0  0  0  0  0  0
  192.8670  176.5970  144.0700 O   0  0  0  0  0  1  0  0  0  0  0  0
  192.9590  175.8630  145.2550 C   0  0  1  0  0  3  0  0  0  0  0  0
  194.4540  177.2340  146.4680 O   0  0  0  0  0  0  0  0  0  0  0  0
  194.2610  176.1530  145.9330 C   0  0  0  0  0  0  0  0  0  0  0  0
  195.3190  175.1010  145.9640 C   0  0  0  0  0  2  0  0  0  0  0  0
  195.4720  174.1250  143.4180 O   0  0  0  0  0  0  0  0  0  0  0  0
  196.2930  176.5900  143.7210 O   0  0  0  0  0  1  0  0  0  0  0  0
  196.2070  175.0340  144.3780 P   0  0  0  0  0  0  0  0  0  0  0  0
  197.7710  174.4440  144.6280 O   0  0  0  0  0  1  0  0  0  0  0  0
  185.8050  179.4770  144.5730 C   0  0  0  0  0  2  0  0  0  0  0  0
  183.6090  178.7710  143.9850 O   0  0  0  0  0  0  0  0  0  0  0  0
  185.1700  178.7410  142.2440 N   0  0  0  0  0  2  0  0  0  0  0  0
  184.7940  178.9680  143.6030 C   0  0  0  0  0  0  0  0  0  0  0  0
  184.2550  178.2890  141.2820 C   0  0  0  0  0  0  0  0  0  0  0  0
  183.4680  177.9000  140.4560 C   0  0  0  0  0  3  0  0  0  0  0  0
  1  7  1  0  0  0  0
  2 10  2  0  0  0  0
  3  8  1  0  0  0  0
  3 10  1  0  0  0  0
  4  3  2  0  0  0  0
  5  6  1  0  0  0  0
  6  1  2  0  0  0  0
  6  4  1  0  0  0  0
  7  8  2  0  0  0  0
  9 11  1  1  0  0  0
  9  4  1  0  0  0  0
  9  2  1  0  0  0  0
 11 12  1  0  0  0  0
 14 13  1  6  0  0  0
 14 16  1  0  0  0  0
 14 12  1  0  0  0  0
 16 17  1  0  0  0  0
 16 15  2  0  0  0  0
 18 20  2  0  0  0  0
 19 20  1  0  0  0  0
 20 21  1  0  0  0  0
 20 17  1  0  0  0  0
 22  1  1  0  0  0  0
 24 25  1  0  0  0  0
 25 23  2  0  0  0  0
 25 22  1  0  0  0  0
 26 24  1  0  0  0  0
 27 26  3  0  0  0  0
M  END
>  <MODEL>
3

>  <REMARK>
 VINA RESULT:      -6.4      2.986      4.137
  Name = 
  9 active torsions:
  status: ('A' for Active; 'I' for Inactive)
    1  A    between atoms: C_1  and  C_19
    2  A    between atoms: C_4  and  C_17
    3  A    between atoms: C_4  and  C_18
    4  A    between atoms: C_9  and  N_12
    5  A    between atoms: C_13  and  C_19
    6  A    between atoms: C_17  and  C_26
    7  A    between atoms: C_18  and  C_24
    8  A    between atoms: P_22  and  C_23
    9  A    between atoms: C_23  and  C_26
                            x       y       z     vdW  Elec       q    Type
                         _______ _______ _______ _____ _____    ______ ____

>  <TORSDO>
F 9

$$$$
=
 OpenBabel11042414223D

 27 28  0  0  1  0  0  0  0  0999 V2000
  186.5270  178.3680  145.1250 C   0  0  0  0  0  0  0  0  0  0  0  0
  189.4910  174.8300  146.1220 C   0  0  0  0  0  3  0  0  0  0  0  0
  187.7400  176.2970  146.5210 C   0  0  0  0  0  0  0  0  0  0  0  0
  188.2230  176.6590  145.2960 C   0  0  0  0  0  0  0  0  0  0  0  0
  188.1210  178.0400  143.3080 O   0  0  0  0  0  1  0  0  0  0  0  0
  187.6300  177.6920  144.5620 C   0  0  0  0  0  0  0  0  0  0  0  0
  186.0480  177.9930  146.3960 C   0  0  0  0  0  3  0  0  0  0  0  0
  186.6540  176.9450  147.1060 C   0  0  0  0  0  3  0  0  0  0  0  0
  189.3750  175.7980  144.9220 C   0  0  1  0  0  3  0  0  0  0  0  0
  188.4550  175.2170  147.0800 N   0  0  0  0  0  0  0  0  0  0  0  0
  190.6420  176.6370  144.8120 C   0  0  0  0  0  2  0  0  0  0  0  0
  191.4960  176.5030  146.0650 C   0  0  0  0  0  2  0  0  0  0  0  0
  193.7570  176.6960  146.8290 O   0  0  0  0  0  1  0  0  0  0  0  0
  192.9730  176.4130  145.7090 C   0  0  1  0  0  3  0  0  0  0  0  0
  192.9940  174.0530  145.8230 O   0  0  0  0  0  0  0  0  0  0  0  0
  193.3030  175.0500  145.1890 C   0  0  0  0  0  0  0  0  0  0  0  0
  194.0010  174.9170  143.8760 C   0  0  0  0  0  2  0  0  0  0  0  0
  196.0650  176.7030  143.9600 O   0  0  0  0  0  1  0  0  0  0  0  0
  196.2920  174.6560  145.5720 O   0  0  0  0  0  1  0  0  0  0  0  0
  195.7840  175.2210  144.0610 P   0  0  0  0  0  0  0  0  0  0  0  0
  196.6280  174.4030  142.8460 O   0  0  0  0  0  0  0  0  0  0  0  0
  185.8730  179.5010  144.4020 C   0  0  0  0  0  2  0  0  0  0  0  0
  183.6010  178.8780  144.0620 O   0  0  0  0  0  0  0  0  0  0  0  0
  184.9800  178.7020  142.1810 N   0  0  0  0  0  2  0  0  0  0  0  0
  184.7500  179.0020  143.5580 C   0  0  0  0  0  0  0  0  0  0  0  0
  183.9550  178.2550  141.3340 C   0  0  0  0  0  0  0  0  0  0  0  0
  183.0750  177.8700  140.6060 C   0  0  0  0  0  3  0  0  0  0  0  0
  1  7  1  0  0  0  0
  2 10  2  0  0  0  0
  3 10  1  0  0  0  0
  3  8  1  0  0  0  0
  4  3  2  0  0  0  0
  5  6  1  0  0  0  0
  6  1  2  0  0  0  0
  6  4  1  0  0  0  0
  7  8  2  0  0  0  0
  9 11  1  1  0  0  0
  9  4  1  0  0  0  0
  9  2  1  0  0  0  0
 11 12  1  0  0  0  0
 14 12  1  0  0  0  0
 14 13  1  1  0  0  0
 16 14  1  0  0  0  0
 16 15  2  0  0  0  0
 17 20  1  0  0  0  0
 17 16  1  0  0  0  0
 18 20  1  0  0  0  0
 20 19  1  0  0  0  0
 21 20  2  0  0  0  0
 22  1  1  0  0  0  0
 24 25  1  0  0  0  0
 25 23  2  0  0  0  0
 25 22  1  0  0  0  0
 26 24  1  0  0  0  0
 27 26  3  0  0  0  0
M  END
>  <MODEL>
4

>  <REMARK>
 VINA RESULT:      -6.4      2.838      4.021
  Name = 
  9 active torsions:
  status: ('A' for Active; 'I' for Inactive)
    1  A    between atoms: C_1  and  C_19
    2  A    between atoms: C_4  and  C_17
    3  A    between atoms: C_4  and  C_18
    4  A    between atoms: C_9  and  N_12
    5  A    between atoms: C_13  and  C_19
    6  A    between atoms: C_17  and  C_26
    7  A    between atoms: C_18  and  C_24
    8  A    between atoms: P_22  and  C_23
    9  A    between atoms: C_23  and  C_26
                            x       y       z     vdW  Elec       q    Type
                         _______ _______ _______ _____ _____    ______ ____

>  <TORSDO>
F 9

$$$$
=
 OpenBabel11042414223D

 27 28  0  0  1  0  0  0  0  0999 V2000
  192.5110  176.2980  146.2050 C   0  0  0  0  0  0  0  0  0  0  0  0
  187.8110  176.5690  145.8400 C   0  0  0  0  0  3  0  0  0  0  0  0
  189.8220  175.8840  146.7670 C   0  0  0  0  0  0  0  0  0  0  0  0
  190.1790  176.6340  145.6810 C   0  0  0  0  0  0  0  0  0  0  0  0
  191.8720  177.6470  144.2760 O   0  0  0  0  0  1  0  0  0  0  0  0
  191.5230  176.8680  145.3750 C   0  0  0  0  0  0  0  0  0  0  0  0
  192.1300  175.5160  147.3130 C   0  0  0  0  0  3  0  0  0  0  0  0
  190.7720  175.3060  147.6050 C   0  0  0  0  0  3  0  0  0  0  0  0
  188.9660  177.1270  144.9770 C   0  0  1  0  0  3  0  0  0  0  0  0
  188.4230  175.7940  146.9190 N   0  0  0  0  0  0  0  0  0  0  0  0
  188.8970  176.5320  143.5760 C   0  0  0  0  0  2  0  0  0  0  0  0
  188.7220  177.6230  142.5280 C   0  0  0  0  0  2  0  0  0  0  0  0
  187.5340  175.7870  141.5510 O   0  0  0  0  0  1  0  0  0  0  0  0
  187.8590  177.1340  141.3730 C   0  0  1  0  0  3  0  0  0  0  0  0
  185.8700  177.8370  140.3080 O   0  0  0  0  0  0  0  0  0  0  0  0
  186.6090  177.9490  141.2740 C   0  0  0  0  0  0  0  0  0  0  0  0
  186.2610  178.8930  142.3780 C   0  0  0  0  0  2  0  0  0  0  0  0
  185.2070  176.8100  143.7940 O   0  0  0  0  0  1  0  0  0  0  0  0
  184.7160  179.1860  144.7690 O   0  0  0  0  0  1  0  0  0  0  0  0
  184.8990  178.2320  143.3840 P   0  0  0  0  0  0  0  0  0  0  0  0
  183.4650  178.2630  142.4890 O   0  0  0  0  0  0  0  0  0  0  0  0
  193.9630  176.4880  145.9090 C   0  0  0  0  0  2  0  0  0  0  0  0
  194.0950  174.5420  144.5430 O   0  0  0  0  0  0  0  0  0  0  0  0
  195.7510  174.7280  146.1840 N   0  0  0  0  0  2  0  0  0  0  0  0
  194.5860  175.1950  145.5030 C   0  0  0  0  0  0  0  0  0  0  0  0
  196.3940  173.5340  145.8270 C   0  0  0  0  0  0  0  0  0  0  0  0
  196.9460  172.5060  145.5220 C   0  0  0  0  0  3  0  0  0  0  0  0
  1  7  1  0  0  0  0
  2 10  2  0  0  0  0
  3 10  1  0  0  0  0
  3  8  1  0  0  0  0
  4  3  2  0  0  0  0
  5  6  1  0  0  0  0
  6  4  1  0  0  0  0
  6  1  2  0  0  0  0
  7  8  2  0  0  0  0
  9 11  1  6  0  0  0
  9  4  1  0  0  0  0
  9  2  1  0  0  0  0
 12 11  1  0  0  0  0
 14 13  1  1  0  0  0
 14 12  1  0  0  0  0
 15 16  2  0  0  0  0
 16 14  1  0  0  0  0
 16 17  1  0  0  0  0
 17 20  1  0  0  0  0
 20 18  1  0  0  0  0
 20 19  1  0  0  0  0
 21 20  2  0  0  0  0
 22  1  1  0  0  0  0
 23 25  2  0  0  0  0
 25 22  1  0  0  0  0
 25 24  1  0  0  0  0
 26 24  1  0  0  0  0
 27 26  3  0  0  0  0
M  END
>  <MODEL>
5

>  <REMARK>
 VINA RESULT:      -6.3      3.717      8.217
  Name = 
  9 active torsions:
  status: ('A' for Active; 'I' for Inactive)
    1  A    between atoms: C_1  and  C_19
    2  A    between atoms: C_4  and  C_17
    3  A    between atoms: C_4  and  C_18
    4  A    between atoms: C_9  and  N_12
    5  A    between atoms: C_13  and  C_19
    6  A    between atoms: C_17  and  C_26
    7  A    between atoms: C_18  and  C_24
    8  A    between atoms: P_22  and  C_23
    9  A    between atoms: C_23  and  C_26
                            x       y       z     vdW  Elec       q    Type
                         _______ _______ _______ _____ _____    ______ ____

>  <TORSDO>
F 9

$$$$
=
 OpenBabel11042414223D

 27 28  0  0  1  0  0  0  0  0999 V2000
  187.9000  176.3480  146.0410 C   0  0  0  0  0  0  0  0  0  0  0  0
  185.1100  179.6910  144.2150 C   0  0  0  0  0  3  0  0  0  0  0  0
  185.9420  178.3120  145.8820 C   0  0  0  0  0  0  0  0  0  0  0  0
  186.6370  177.9570  144.7600 C   0  0  0  0  0  0  0  0  0  0  0  0
  188.3450  176.6380  143.6610 O   0  0  0  0  0  1  0  0  0  0  0  0
  187.6350  176.9780  144.8070 C   0  0  0  0  0  0  0  0  0  0  0  0
  187.1660  176.7140  147.1880 C   0  0  0  0  0  3  0  0  0  0  0  0
  186.1780  177.7080  147.1150 C   0  0  0  0  0  3  0  0  0  0  0  0
  186.1820  178.7650  143.5970 C   0  0  1  0  0  3  0  0  0  0  0  0
  185.0050  179.3360  145.6300 N   0  0  0  0  0  0  0  0  0  0  0  0
  185.5430  177.8610  142.5510 C   0  0  0  0  0  2  0  0  0  0  0  0
  184.0470  178.1240  142.4440 C   0  0  0  0  0  2  0  0  0  0  0  0
  184.6250  178.0800  140.1200 O   0  0  0  0  0  1  0  0  0  0  0  0
  183.6670  178.5370  141.0280 C   0  0  1  0  0  3  0  0  0  0  0  0
  182.1460  177.4370  139.5930 O   0  0  0  0  0  0  0  0  0  0  0  0
  182.3230  177.9890  140.6680 C   0  0  0  0  0  0  0  0  0  0  0  0
  181.1990  178.1090  141.6430 C   0  0  0  0  0  2  0  0  0  0  0  0
  178.8000  179.3630  141.9990 O   0  0  0  0  0  1  0  0  0  0  0  0
  180.4210  180.5140  140.3000 O   0  0  0  0  0  1  0  0  0  0  0  0
  179.8250  179.0610  140.9290 P   0  0  0  0  0  0  0  0  0  0  0  0
  179.1000  178.1700  139.6890 O   0  0  0  0  0  0  0  0  0  0  0  0
  188.9320  175.2730  146.1460 C   0  0  0  0  0  2  0  0  0  0  0  0
  190.5550  176.3620  147.5040 O   0  0  0  0  0  0  0  0  0  0  0  0
  191.2560  175.8320  145.3370 N   0  0  0  0  0  2  0  0  0  0  0  0
  190.2800  175.8650  146.3790 C   0  0  0  0  0  0  0  0  0  0  0  0
  192.5480  176.3490  145.5090 C   0  0  0  0  0  0  0  0  0  0  0  0
  193.6590  176.7930  145.6580 C   0  0  0  0  0  3  0  0  0  0  0  0
  1 22  1  0  0  0  0
  1  7  1  0  0  0  0
  2 10  2  0  0  0  0
  3  8  1  0  0  0  0
  4  6  1  0  0  0  0
  4  3  2  0  0  0  0
  5  6  1  0  0  0  0
  6  1  2  0  0  0  0
  8  7  2  0  0  0  0
  9 11  1  6  0  0  0
  9  2  1  0  0  0  0
  9  4  1  0  0  0  0
 10  3  1  0  0  0  0
 12 11  1  0  0  0  0
 14 13  1  6  0  0  0
 14 12  1  0  0  0  0
 15 16  2  0  0  0  0
 16 14  1  0  0  0  0
 16 17  1  0  0  0  0
 19 20  1  0  0  0  0
 20 17  1  0  0  0  0
 20 18  1  0  0  0  0
 21 20  2  0  0  0  0
 22 25  1  0  0  0  0
 24 26  1  0  0  0  0
 24 25  1  0  0  0  0
 25 23  2  0  0  0  0
 26 27  3  0  0  0  0
M  END
>  <MODEL>
6

>  <REMARK>
 VINA RESULT:      -6.3      3.247      8.067
  Name = 
  9 active torsions:
  status: ('A' for Active; 'I' for Inactive)
    1  A    between atoms: C_1  and  C_19
    2  A    between atoms: C_4  and  C_17
    3  A    between atoms: C_4  and  C_18
    4  A    between atoms: C_9  and  N_12
    5  A    between atoms: C_13  and  C_19
    6  A    between atoms: C_17  and  C_26
    7  A    between atoms: C_18  and  C_24
    8  A    between atoms: P_22  and  C_23
    9  A    between atoms: C_23  and  C_26
                            x       y       z     vdW  Elec       q    Type
                         _______ _______ _______ _____ _____    ______ ____

>  <TORSDO>
F 9

$$$$
=
 OpenBabel11042414223D

 27 28  0  0  1  0  0  0  0  0999 V2000
  192.9870  176.4030  145.4910 C   0  0  0  0  0  0  0  0  0  0  0  0
  188.4350  175.8410  146.6100 C   0  0  0  0  0  3  0  0  0  0  0  0
  190.7130  175.4420  146.7630 C   0  0  0  0  0  0  0  0  0  0  0  0
  190.5890  176.3580  145.7570 C   0  0  0  0  0  0  0  0  0  0  0  0
  191.5740  177.8140  144.0900 O   0  0  0  0  0  1  0  0  0  0  0  0
  191.7140  176.8690  145.1010 C   0  0  0  0  0  0  0  0  0  0  0  0
  193.1000  175.4470  146.5190 C   0  0  0  0  0  3  0  0  0  0  0  0
  191.9550  174.9600  147.1700 C   0  0  0  0  0  3  0  0  0  0  0  0
  189.1570  176.6930  145.5410 C   0  0  1  0  0  3  0  0  0  0  0  0
  189.4670  175.0780  147.3130 N   0  0  0  0  0  0  0  0  0  0  0  0
  188.7200  176.2530  144.1490 C   0  0  0  0  0  2  0  0  0  0  0  0
  188.1660  177.4270  143.3550 C   0  0  0  0  0  2  0  0  0  0  0  0
  186.6080  175.6840  142.8330 O   0  0  0  0  0  1  0  0  0  0  0  0
  186.8770  177.0410  142.6420 C   0  0  1  0  0  3  0  0  0  0  0  0
  184.6180  177.7340  142.6710 O   0  0  0  0  0  0  0  0  0  0  0  0
  185.7340  177.8620  143.1500 C   0  0  0  0  0  0  0  0  0  0  0  0
  185.9660  178.8300  144.2620 C   0  0  0  0  0  2  0  0  0  0  0  0
  185.2320  176.6910  145.7930 O   0  0  0  0  0  0  0  0  0  0  0  0
  186.2270  178.7190  147.1110 O   0  0  0  0  0  1  0  0  0  0  0  0
  185.2660  178.2030  145.8190 P   0  0  0  0  0  0  0  0  0  0  0  0
  183.6960  178.7990  146.0160 O   0  0  0  0  0  1  0  0  0  0  0  0
  194.2230  176.8880  144.8050 C   0  0  0  0  0  2  0  0  0  0  0  0
  194.0680  175.1760  143.1580 O   0  0  0  0  0  0  0  0  0  0  0  0
  196.2050  175.5280  144.0380 N   0  0  0  0  0  2  0  0  0  0  0  0
  194.8080  175.8090  143.9580 C   0  0  0  0  0  0  0  0  0  0  0  0
  196.8140  174.5430  143.2460 C   0  0  0  0  0  0  0  0  0  0  0  0
  197.3380  173.6980  142.5650 C   0  0  0  0  0  3  0  0  0  0  0  0
  1  7  1  0  0  0  0
  2 10  2  0  0  0  0
  3  8  1  0  0  0  0
  3 10  1  0  0  0  0
  4  3  2  0  0  0  0
  5  6  1  0  0  0  0
  6  1  2  0  0  0  0
  6  4  1  0  0  0  0
  7  8  2  0  0  0  0
  9 11  1  6  0  0  0
  9  4  1  0  0  0  0
  9  2  1  0  0  0  0
 12 11  1  0  0  0  0
 14 13  1  1  0  0  0
 14 16  1  0  0  0  0
 14 12  1  0  0  0  0
 15 16  2  0  0  0  0
 16 17  1  0  0  0  0
 17 20  1  0  0  0  0
 18 20  2  0  0  0  0
 20 21  1  0  0  0  0
 20 19  1  0  0  0  0
 22  1  1  0  0  0  0
 23 25  2  0  0  0  0
 25 24  1  0  0  0  0
 25 22  1  0  0  0  0
 26 24  1  0  0  0  0
 27 26  3  0  0  0  0
M  END
>  <MODEL>
7

>  <REMARK>
 VINA RESULT:      -6.1      4.060      8.166
  Name = 
  9 active torsions:
  status: ('A' for Active; 'I' for Inactive)
    1  A    between atoms: C_1  and  C_19
    2  A    between atoms: C_4  and  C_17
    3  A    between atoms: C_4  and  C_18
    4  A    between atoms: C_9  and  N_12
    5  A    between atoms: C_13  and  C_19
    6  A    between atoms: C_17  and  C_26
    7  A    between atoms: C_18  and  C_24
    8  A    between atoms: P_22  and  C_23
    9  A    between atoms: C_23  and  C_26
                            x       y       z     vdW  Elec       q    Type
                         _______ _______ _______ _____ _____    ______ ____

>  <TORSDO>
F 9

$$$$
=
 OpenBabel11042414223D

 27 28  0  0  1  0  0  0  0  0999 V2000
  192.5230  176.2500  145.8990 C   0  0  0  0  0  0  0  0  0  0  0  0
  187.8490  176.9230  145.8520 C   0  0  0  0  0  3  0  0  0  0  0  0
  189.8510  176.0540  146.6330 C   0  0  0  0  0  0  0  0  0  0  0  0
  190.1990  176.7910  145.5370 C   0  0  0  0  0  0  0  0  0  0  0  0
  191.8770  177.6850  144.0350 O   0  0  0  0  0  1  0  0  0  0  0  0
  191.5360  176.9180  145.1440 C   0  0  0  0  0  0  0  0  0  0  0  0
  192.1490  175.4820  147.0190 C   0  0  0  0  0  3  0  0  0  0  0  0
  190.8010  175.3820  147.3990 C   0  0  0  0  0  3  0  0  0  0  0  0
  188.9890  177.3980  144.9210 C   0  0  1  0  0  3  0  0  0  0  0  0
  188.4630  176.0780  146.8770 N   0  0  0  0  0  0  0  0  0  0  0  0
  188.7780  176.8380  143.5200 C   0  0  0  0  0  2  0  0  0  0  0  0
  188.2720  177.9160  142.5720 C   0  0  0  0  0  2  0  0  0  0  0  0
  187.4740  175.9330  141.4920 O   0  0  0  0  0  1  0  0  0  0  0  0
  187.3450  177.3230  141.5190 C   0  0  1  0  0  3  0  0  0  0  0  0
  185.2870  178.3640  141.0060 O   0  0  0  0  0  0  0  0  0  0  0  0
  185.9250  177.6960  141.8040 C   0  0  0  0  0  0  0  0  0  0  0  0
  185.2860  177.2280  143.0700 C   0  0  0  0  0  2  0  0  0  0  0  0
  183.2910  179.0370  143.5180 O   0  0  0  0  0  0  0  0  0  0  0  0
  184.5330  178.1910  145.6580 O   0  0  0  0  0  1  0  0  0  0  0  0
  184.6560  178.6370  144.0310 P   0  0  0  0  0  0  0  0  0  0  0  0
  185.7180  179.9430  143.8880 O   0  0  0  0  0  1  0  0  0  0  0  0
  193.9640  176.3230  145.5090 C   0  0  0  0  0  2  0  0  0  0  0  0
  195.5980  174.7800  146.2950 O   0  0  0  0  0  0  0  0  0  0  0  0
  194.0150  173.8960  144.8180 N   0  0  0  0  0  2  0  0  0  0  0  0
  194.5880  174.9700  145.5650 C   0  0  0  0  0  0  0  0  0  0  0  0
  194.5440  172.5980  144.8540 C   0  0  0  0  0  0  0  0  0  0  0  0
  194.9980  171.4810  144.8830 C   0  0  0  0  0  3  0  0  0  0  0  0
  1  7  1  0  0  0  0
  2 10  2  0  0  0  0
  3 10  1  0  0  0  0
  3  8  1  0  0  0  0
  4  3  2  0  0  0  0
  5  6  1  0  0  0  0
  6  4  1  0  0  0  0
  6  1  2  0  0  0  0
  7  8  2  0  0  0  0
  9 11  1  6  0  0  0
  9  4  1  0  0  0  0
  9  2  1  0  0  0  0
 12 11  1  0  0  0  0
 14 13  1  1  0  0  0
 14 16  1  0  0  0  0
 14 12  1  0  0  0  0
 15 16  2  0  0  0  0
 16 17  1  0  0  0  0
 17 20  1  0  0  0  0
 18 20  2  0  0  0  0
 20 19  1  0  0  0  0
 21 20  1  0  0  0  0
 22 25  1  0  0  0  0
 22  1  1  0  0  0  0
 24 26  1  0  0  0  0
 24 25  1  0  0  0  0
 25 23  2  0  0  0  0
 26 27  3  0  0  0  0
M  END
>  <MODEL>
8

>  <REMARK>
 VINA RESULT:      -6.0      3.665      8.063
  Name = 
  9 active torsions:
  status: ('A' for Active; 'I' for Inactive)
    1  A    between atoms: C_1  and  C_19
    2  A    between atoms: C_4  and  C_17
    3  A    between atoms: C_4  and  C_18
    4  A    between atoms: C_9  and  N_12
    5  A    between atoms: C_13  and  C_19
    6  A    between atoms: C_17  and  C_26
    7  A    between atoms: C_18  and  C_24
    8  A    between atoms: P_22  and  C_23
    9  A    between atoms: C_23  and  C_26
                            x       y       z     vdW  Elec       q    Type
                         _______ _______ _______ _____ _____    ______ ____

>  <TORSDO>
F 9

$$$$
=
 OpenBabel11042414223D

 27 28  0  0  1  0  0  0  0  0999 V2000
  186.5730  178.3100  145.1930 C   0  0  0  0  0  0  0  0  0  0  0  0
  189.7680  175.0270  146.3340 C   0  0  0  0  0  3  0  0  0  0  0  0
  187.8360  176.2790  146.6040 C   0  0  0  0  0  0  0  0  0  0  0  0
  188.4120  176.7720  145.4670 C   0  0  0  0  0  0  0  0  0  0  0  0
  188.3870  178.2700  143.5630 O   0  0  0  0  0  1  0  0  0  0  0  0
  187.7980  177.7890  144.7280 C   0  0  0  0  0  0  0  0  0  0  0  0
  185.9970  177.8030  146.3740 C   0  0  0  0  0  3  0  0  0  0  0  0
  186.6280  176.7730  147.0910 C   0  0  0  0  0  3  0  0  0  0  0  0
  189.6850  176.0580  145.1850 C   0  0  1  0  0  3  0  0  0  0  0  0
  188.5950  175.2410  147.1820 N   0  0  0  0  0  0  0  0  0  0  0  0
  190.8590  177.0250  145.2740 C   0  0  0  0  0  2  0  0  0  0  0  0
  192.0660  176.3600  145.9200 C   0  0  0  0  0  2  0  0  0  0  0  0
  194.3140  177.1830  145.9860 O   0  0  0  0  0  1  0  0  0  0  0  0
  193.3360  176.6620  145.1370 C   0  0  1  0  0  3  0  0  0  0  0  0
  194.9010  175.4390  143.8550 O   0  0  0  0  0  0  0  0  0  0  0  0
  193.8480  175.4230  144.4730 C   0  0  0  0  0  0  0  0  0  0  0  0
  193.0660  174.1560  144.5870 C   0  0  0  0  0  2  0  0  0  0  0  0
  190.8450  173.1290  143.3740 O   0  0  0  0  0  1  0  0  0  0  0  0
  191.8220  175.2900  142.2710 O   0  0  0  0  0  1  0  0  0  0  0  0
  192.1490  173.8260  143.0520 P   0  0  0  0  0  0  0  0  0  0  0  0
  193.0770  172.8450  142.0360 O   0  0  0  0  0  0  0  0  0  0  0  0
  185.8860  179.4190  144.4630 C   0  0  0  0  0  2  0  0  0  0  0  0
  183.8030  178.5180  143.7460 O   0  0  0  0  0  0  0  0  0  0  0  0
  185.4100  178.7810  142.0680 N   0  0  0  0  0  2  0  0  0  0  0  0
  184.9690  178.8700  143.4240 C   0  0  0  0  0  0  0  0  0  0  0  0
  184.5820  178.2980  141.0450 C   0  0  0  0  0  0  0  0  0  0  0  0
  183.8710  177.8830  140.1640 C   0  0  0  0  0  3  0  0  0  0  0  0
  1  7  1  0  0  0  0
  2 10  2  0  0  0  0
  3  8  1  0  0  0  0
  3 10  1  0  0  0  0
  4  3  2  0  0  0  0
  5  6  1  0  0  0  0
  6  1  2  0  0  0  0
  6  4  1  0  0  0  0
  7  8  2  0  0  0  0
  9 11  1  1  0  0  0
  9  4  1  0  0  0  0
  9  2  1  0  0  0  0
 11 12  1  0  0  0  0
 14 12  1  0  0  0  0
 14 13  1  1  0  0  0
 15 16  2  0  0  0  0
 16 17  1  0  0  0  0
 16 14  1  0  0  0  0
 19 20  1  0  0  0  0
 20 18  1  0  0  0  0
 20 17  1  0  0  0  0
 21 20  2  0  0  0  0
 22  1  1  0  0  0  0
 24 25  1  0  0  0  0
 25 23  2  0  0  0  0
 25 22  1  0  0  0  0
 26 24  1  0  0  0  0
 27 26  3  0  0  0  0
M  END
>  <MODEL>
9

>  <REMARK>
 VINA RESULT:      -6.0      2.325      3.494
  Name = 
  9 active torsions:
  status: ('A' for Active; 'I' for Inactive)
    1  A    between atoms: C_1  and  C_19
    2  A    between atoms: C_4  and  C_17
    3  A    between atoms: C_4  and  C_18
    4  A    between atoms: C_9  and  N_12
    5  A    between atoms: C_13  and  C_19
    6  A    between atoms: C_17  and  C_26
    7  A    between atoms: C_18  and  C_24
    8  A    between atoms: P_22  and  C_23
    9  A    between atoms: C_23  and  C_26
                            x       y       z     vdW  Elec       q    Type
                         _______ _______ _______ _____ _____    ______ ____

>  <TORSDO>
F 9

$$$$
