=
 OpenBabel11042418093D

 40 43  0  0  1  0  0  0  0  0999 V2000
  190.9910  173.0340  137.5850 N   0  0  0  0  0  2  0  0  0  0  0  0
  190.7430  174.0680  141.0410 C   0  0  0  0  0  0  0  0  0  0  0  0
  189.3270  173.7970  141.2030 C   0  0  0  0  0  0  0  0  0  0  0  0
  189.9820  175.0960  142.9090 C   0  0  0  0  0  0  0  0  0  0  0  0
  188.6030  173.0930  140.3410 C   0  0  0  0  0  2  0  0  0  0  0  0
  191.5290  173.5950  139.8670 C   0  0  0  0  0  2  0  0  0  0  0  0
  191.1480  174.8120  142.0580 C   0  0  2  0  0  3  0  0  0  0  0  0
  188.9090  174.4900  142.4000 C   0  0  0  0  0  0  0  0  0  0  0  0
  190.5800  173.1110  138.7940 C   0  0  0  0  0  0  0  0  0  0  0  0
  189.2860  172.4200  139.1720 C   0  0  0  0  0  2  0  0  0  0  0  0
  187.6490  174.5640  142.8940 F   0  0  0  0  0  0  0  0  0  0  0  0
  192.5290  175.3560  142.2600 C   0  0  0  0  0  2  0  0  0  0  0  0
  193.4500  174.3430  142.9500 C   0  0  2  0  0  3  0  0  0  0  0  0
  193.0690  172.9790  145.5200 O   0  0  0  0  0  0  0  0  0  0  0  0
  192.8680  175.0190  146.6680 C   0  0  0  0  0  3  0  0  0  0  0  0
  193.9460  174.8820  144.3080 C   0  0  1  0  0  3  0  0  0  0  0  0
  193.7680  176.4100  144.3690 C   0  0  0  0  0  2  0  0  0  0  0  0
  194.1020  176.9440  145.7580 C   0  0  0  0  0  2  0  0  0  0  0  0
  193.2550  174.2220  145.4910 C   0  0  0  0  0  0  0  0  0  0  0  0
  193.2290  176.2970  146.7830 C   0  0  0  0  0  3  0  0  0  0  0  0
  194.6160  174.0280  142.0230 C   0  0  0  0  0  2  0  0  0  0  0  0
  194.8480  175.1600  141.1320 N   0  0  0  0  0  2  0  0  0  0  0  0
  196.8450  175.1080  142.3900 O   0  0  0  0  0  1  0  0  0  0  0  0
  196.3130  177.0030  141.2120 O   0  0  0  0  0  1  0  0  0  0  0  0
  196.2400  175.6060  141.2330 C   0  0  0  0  0  3  0  0  0  0  0  0
  190.0030  175.9470  144.1350 C   0  0  0  0  0  2  0  0  0  0  0  0
  189.7430  175.1260  145.3560 C   0  0  0  0  0  3  0  0  0  0  0  0
  188.9340  175.5270  146.3350 C   0  0  0  0  0  0  0  0  0  0  0  0
  188.7240  174.6910  147.4270 O   0  0  0  0  0  1  0  0  0  0  0  0
  188.2380  176.8520  146.2880 C   0  0  0  0  0  2  0  0  0  0  0  0
  186.7330  176.6580  146.3210 C   0  0  0  0  0  2  0  0  0  0  0  0
  186.1420  177.5790  147.3590 C   0  0  0  0  0  2  0  0  0  0  0  0
  185.6180  178.8290  146.6780 C   0  0  0  0  0  2  0  0  0  0  0  0
  184.2580  178.5540  146.0700 C   0  0  0  0  0  2  0  0  0  0  0  0
  184.2080  179.0050  144.6110 C   0  0  0  0  0  2  0  0  0  0  0  0
  185.5780  179.4490  144.1110 C   0  0  0  0  0  2  0  0  0  0  0  0
  187.1250  178.0050  142.8700 C   0  0  2  0  0  3  0  0  0  0  0  0
  187.7230  177.8200  141.4930 C   0  0  0  0  0  1  0  0  0  0  0  0
  185.8470  177.4150  142.8950 O   0  0  0  0  0  0  0  0  0  0  0  0
  185.8900  178.8150  142.7700 C   0  0  1  0  0  3  0  0  0  0  0  0
  1  9  2  0  0  0  0
  2  3  2  0  0  0  0
  2  7  1  0  0  0  0
  3  8  1  0  0  0  0
  4 26  1  0  0  0  0
  5  3  1  0  0  0  0
  6  2  1  0  0  0  0
  7 12  1  6  0  0  0
  7  4  1  0  0  0  0
  8 11  1  0  0  0  0
  8  4  2  0  0  0  0
  9 10  1  0  0  0  0
  9  6  1  0  0  0  0
 10  5  1  0  0  0  0
 12 13  1  0  0  0  0
 13 21  1  6  0  0  0
 15 20  2  0  0  0  0
 16 13  1  6  0  0  0
 16 17  1  0  0  0  0
 16 19  1  0  0  0  0
 17 18  1  0  0  0  0
 18 20  1  0  0  0  0
 19 14  2  0  0  0  0
 19 15  1  0  0  0  0
 22 25  1  0  0  0  0
 22 21  1  0  0  0  0
 24 25  1  0  0  0  0
 25 23  1  0  0  0  0
 26 27  1  0  0  0  0
 27 28  2  0  0  0  0
 28 29  1  0  0  0  0
 30 31  1  0  0  0  0
 30 28  1  0  0  0  0
 31 32  1  0  0  0  0
 33 32  1  0  0  0  0
 34 33  1  0  0  0  0
 35 34  1  0  0  0  0
 36 35  1  0  0  0  0
 37 38  1  6  0  0  0
 37 39  1  0  0  0  0
 40 37  1  0  0  0  0
 40 39  1  0  0  0  0
 40 36  1  1  0  0  0
M  END
>  <MODEL>
1

>  <REMARK>
 VINA RESULT:      -6.7      0.000      0.000
  Name = 
  16 active torsions:
  status: ('A' for Active; 'I' for Inactive)
    1  A    between atoms: C_3  and  C_12
    2  A    between atoms: C_3  and  C_34
    3  A    between atoms: C_4  and  C_14
    4  A    between atoms: C_4  and  C_17
    5  A    between atoms: C_5  and  C_20
    6  A    between atoms: C_7  and  C_23
    7  A    between atoms: C_10  and  C_20
    8  A    between atoms: C_11  and  C_19
    9  A    between atoms: C_11  and  C_22
   10  A    between atoms: C_11  and  C_31
   11  A    between atoms: C_12  and  C_14
   12  A    between atoms: C_22  and  N_35
   13  A    between atoms: C_23  and  C_38
   14  A    between atoms: C_24  and  C_31
   15  A    between atoms: C_34  and  C_38
   16  A    between atoms: N_35  and  C_40
                            x       y       z     vdW  Elec       q    Type
                         _______ _______ _______ _____ _____    ______ ____

>  <TORSDO>
F 16

$$$$
=
 OpenBabel11042418093D

 40 43  0  0  1  0  0  0  0  0999 V2000
  186.2390  177.4050  140.1480 N   0  0  0  0  0  2  0  0  0  0  0  0
  189.0000  175.9020  141.9330 C   0  0  0  0  0  0  0  0  0  0  0  0
  189.0100  176.8260  143.0510 C   0  0  0  0  0  0  0  0  0  0  0  0
  190.9490  175.7020  143.0680 C   0  0  0  0  0  0  0  0  0  0  0  0
  188.0310  177.6830  143.3120 C   0  0  0  0  0  3  0  0  0  0  0  0
  187.8880  175.8380  140.9430 C   0  0  0  0  0  2  0  0  0  0  0  0
  190.1300  175.2120  141.9480 C   0  0  0  0  0  0  0  0  0  0  0  0
  190.2790  176.6530  143.7180 C   0  0  0  0  0  0  0  0  0  0  0  0
  187.0020  177.0510  141.1120 C   0  0  0  0  0  0  0  0  0  0  0  0
  186.7650  177.6410  142.4870 C   0  0  0  0  0  2  0  0  0  0  0  0
  190.7410  177.3630  144.7770 F   0  0  0  0  0  0  0  0  0  0  0  0
  190.5500  174.1810  140.9450 C   0  0  0  0  0  2  0  0  0  0  0  0
  189.8110  172.8530  141.1440 C   0  0  2  0  0  3  0  0  0  0  0  0
  189.2700  172.0330  143.9090 O   0  0  0  0  0  0  0  0  0  0  0  0
  191.5610  171.8330  144.3870 C   0  0  0  0  0  3  0  0  0  0  0  0
  190.6740  171.8560  141.9440 C   0  0  1  0  0  3  0  0  0  0  0  0
  192.1650  172.0700  141.6290 C   0  0  0  0  0  2  0  0  0  0  0  0
  193.0450  171.2050  142.5250 C   0  0  0  0  0  2  0  0  0  0  0  0
  190.4350  171.9420  143.4440 C   0  0  0  0  0  0  0  0  0  0  0  0
  192.7860  171.5250  143.9620 C   0  0  0  0  0  3  0  0  0  0  0  0
  189.4400  172.2880  139.7790 C   0  0  0  0  0  2  0  0  0  0  0  0
  188.2220  172.9340  139.3000 N   0  0  0  0  0  2  0  0  0  0  0  0
  189.7490  173.3990  137.5620 O   0  0  0  0  0  1  0  0  0  0  0  0
  187.8400  174.6580  137.7410 O   0  0  0  0  0  1  0  0  0  0  0  0
  188.3990  173.3870  137.9190 C   0  0  0  0  0  3  0  0  0  0  0  0
  192.3220  175.2180  143.4000 C   0  0  0  0  0  2  0  0  0  0  0  0
  193.1800  176.3460  143.8780 C   0  0  0  0  0  3  0  0  0  0  0  0
  193.7440  176.3600  145.0850 C   0  0  0  0  0  0  0  0  0  0  0  0
  194.5510  177.4340  145.4430 O   0  0  0  0  0  1  0  0  0  0  0  0
  193.5360  175.2450  146.0640 C   0  0  0  0  0  2  0  0  0  0  0  0
  192.4290  175.6020  147.0390 C   0  0  0  0  0  2  0  0  0  0  0  0
  191.2060  174.7810  146.7130 C   0  0  0  0  0  2  0  0  0  0  0  0
  190.0540  175.2290  147.5940 C   0  0  0  0  0  2  0  0  0  0  0  0
  188.8000  175.3910  146.7610 C   0  0  0  0  0  2  0  0  0  0  0  0
  188.2300  176.8030  146.8970 C   0  0  0  0  0  2  0  0  0  0  0  0
  186.7110  176.7880  147.0270 C   0  0  0  0  0  2  0  0  0  0  0  0
  184.6770  177.8410  146.1470 C   0  0  2  0  0  3  0  0  0  0  0  0
  184.2190  178.8520  145.1200 C   0  0  0  0  0  1  0  0  0  0  0  0
  185.1010  178.5250  147.3030 O   0  0  0  0  0  0  0  0  0  0  0  0
  186.1110  178.0530  146.4470 C   0  0  1  0  0  3  0  0  0  0  0  0
  1  9  2  0  0  0  0
  2  7  2  0  0  0  0
  2  3  1  0  0  0  0
  3  5  2  0  0  0  0
  3  8  1  0  0  0  0
  4 26  1  0  0  0  0
  4  8  2  0  0  0  0
  6  9  1  0  0  0  0
  6  2  1  0  0  0  0
  7  4  1  0  0  0  0
  8 11  1  0  0  0  0
  9 10  1  0  0  0  0
 10  5  1  0  0  0  0
 12 13  1  0  0  0  0
 12  7  1  0  0  0  0
 13 21  1  6  0  0  0
 16 13  1  6  0  0  0
 16 19  1  0  0  0  0
 17 16  1  0  0  0  0
 17 18  1  0  0  0  0
 18 20  1  0  0  0  0
 19 14  2  0  0  0  0
 19 15  1  0  0  0  0
 20 15  2  0  0  0  0
 22 21  1  0  0  0  0
 23 25  1  0  0  0  0
 24 25  1  0  0  0  0
 25 22  1  0  0  0  0
 26 27  1  0  0  0  0
 27 28  2  0  0  0  0
 28 29  1  0  0  0  0
 28 30  1  0  0  0  0
 30 31  1  0  0  0  0
 32 31  1  0  0  0  0
 32 33  1  0  0  0  0
 34 35  1  0  0  0  0
 34 33  1  0  0  0  0
 35 36  1  0  0  0  0
 37 38  1  6  0  0  0
 37 40  1  0  0  0  0
 37 39  1  0  0  0  0
 40 36  1  1  0  0  0
 40 39  1  0  0  0  0
M  END
>  <MODEL>
2

>  <REMARK>
 VINA RESULT:      -6.5      2.830      5.347
  Name = 
  16 active torsions:
  status: ('A' for Active; 'I' for Inactive)
    1  A    between atoms: C_3  and  C_12
    2  A    between atoms: C_3  and  C_34
    3  A    between atoms: C_4  and  C_14
    4  A    between atoms: C_4  and  C_17
    5  A    between atoms: C_5  and  C_20
    6  A    between atoms: C_7  and  C_23
    7  A    between atoms: C_10  and  C_20
    8  A    between atoms: C_11  and  C_19
    9  A    between atoms: C_11  and  C_22
   10  A    between atoms: C_11  and  C_31
   11  A    between atoms: C_12  and  C_14
   12  A    between atoms: C_22  and  N_35
   13  A    between atoms: C_23  and  C_38
   14  A    between atoms: C_24  and  C_31
   15  A    between atoms: C_34  and  C_38
   16  A    between atoms: N_35  and  C_40
                            x       y       z     vdW  Elec       q    Type
                         _______ _______ _______ _____ _____    ______ ____

>  <TORSDO>
F 16

$$$$
=
 OpenBabel11042418093D

 40 43  0  0  1  0  0  0  0  0999 V2000
  183.7080  178.2270  142.1540 N   0  0  0  0  0  2  0  0  0  0  0  0
  186.9040  176.7550  142.9840 C   0  0  0  0  0  0  0  0  0  0  0  0
  187.3270  176.4770  141.6250 C   0  0  0  0  0  0  0  0  0  0  0  0
  188.6390  175.3000  143.0100 C   0  0  0  0  0  0  0  0  0  0  0  0
  186.7330  176.9750  140.5470 C   0  0  0  0  0  2  0  0  0  0  0  0
  185.7350  177.6190  143.3090 C   0  0  0  0  0  2  0  0  0  0  0  0
  187.6900  176.0860  143.8140 C   0  0  2  0  0  3  0  0  0  0  0  0
  188.4210  175.5390  141.7170 C   0  0  0  0  0  0  0  0  0  0  0  0
  184.9290  177.8590  142.0520 C   0  0  0  0  0  0  0  0  0  0  0  0
  185.6220  177.9870  140.7110 C   0  0  0  0  0  2  0  0  0  0  0  0
  189.0780  174.9560  140.6830 F   0  0  0  0  0  0  0  0  0  0  0  0
  187.5750  176.0540  145.3070 C   0  0  0  0  0  2  0  0  0  0  0  0
  188.1190  177.3330  145.9530 C   0  0  2  0  0  3  0  0  0  0  0  0
  190.4960  178.2960  144.5270 O   0  0  0  0  0  0  0  0  0  0  0  0
  191.7690  176.4520  145.2330 C   0  0  0  0  0  3  0  0  0  0  0  0
  189.5700  177.1330  146.4380 C   0  0  1  0  0  3  0  0  0  0  0  0
  189.7310  175.7380  147.0680 C   0  0  0  0  0  2  0  0  0  0  0  0
  191.1910  175.4570  147.4100 C   0  0  0  0  0  2  0  0  0  0  0  0
  190.5930  177.3330  145.3310 C   0  0  0  0  0  0  0  0  0  0  0  0
  192.0350  175.5520  146.1800 C   0  0  0  0  0  3  0  0  0  0  0  0
  187.2030  177.7310  147.1030 C   0  0  0  0  0  2  0  0  0  0  0  0
  185.8360  177.3180  146.8010 N   0  0  0  0  0  2  0  0  0  0  0  0
  184.1470  178.7770  146.0340 O   0  0  0  0  0  1  0  0  0  0  0  0
  185.5790  179.4890  147.6780 O   0  0  0  0  0  1  0  0  0  0  0  0
  184.8970  178.3890  147.1450 C   0  0  0  0  0  3  0  0  0  0  0  0
  189.6650  174.3690  143.5650 C   0  0  0  0  0  2  0  0  0  0  0  0
  189.5230  173.0060  142.9670 C   0  0  0  0  0  3  0  0  0  0  0  0
  190.5220  172.1260  142.9350 C   0  0  0  0  0  0  0  0  0  0  0  0
  190.3000  170.8680  142.3840 O   0  0  0  0  0  1  0  0  0  0  0  0
  191.8770  172.4530  143.4820 C   0  0  0  0  0  2  0  0  0  0  0  0
  192.4750  171.2380  144.1670 C   0  0  0  0  0  2  0  0  0  0  0  0
  193.9440  171.4830  144.4080 C   0  0  0  0  0  2  0  0  0  0  0  0
  194.1040  172.5830  145.4410 C   0  0  0  0  0  2  0  0  0  0  0  0
  195.5730  172.8950  145.6390 C   0  0  0  0  0  2  0  0  0  0  0  0
  195.8090  174.4040  145.6990 C   0  0  0  0  0  2  0  0  0  0  0  0
  195.2200  175.1160  144.4870 C   0  0  0  0  0  2  0  0  0  0  0  0
  196.0180  176.3540  142.5240 C   0  0  2  0  0  3  0  0  0  0  0  0
  196.5960  176.1360  141.1440 C   0  0  0  0  0  1  0  0  0  0  0  0
  197.0540  176.2550  143.4730 O   0  0  0  0  0  0  0  0  0  0  0  0
  196.2130  175.1350  143.3420 C   0  0  1  0  0  3  0  0  0  0  0  0
  2  6  1  0  0  0  0
  2  7  1  0  0  0  0
  3  8  1  0  0  0  0
  3  2  2  0  0  0  0
  4 26  1  0  0  0  0
  4  7  1  0  0  0  0
  5 10  1  0  0  0  0
  5  3  1  0  0  0  0
  7 12  1  6  0  0  0
  8  4  2  0  0  0  0
  9  1  2  0  0  0  0
  9  6  1  0  0  0  0
 10  9  1  0  0  0  0
 11  8  1  0  0  0  0
 13 12  1  1  0  0  0
 13 21  1  0  0  0  0
 14 19  2  0  0  0  0
 15 19  1  0  0  0  0
 15 20  2  0  0  0  0
 16 13  1  6  0  0  0
 16 17  1  0  0  0  0
 17 18  1  0  0  0  0
 19 16  1  0  0  0  0
 20 18  1  0  0  0  0
 22 21  1  0  0  0  0
 22 25  1  0  0  0  0
 23 25  1  0  0  0  0
 25 24  1  0  0  0  0
 27 26  1  0  0  0  0
 28 27  2  0  0  0  0
 28 30  1  0  0  0  0
 29 28  1  0  0  0  0
 30 31  1  0  0  0  0
 31 32  1  0  0  0  0
 32 33  1  0  0  0  0
 33 34  1  0  0  0  0
 34 35  1  0  0  0  0
 36 35  1  0  0  0  0
 37 38  1  6  0  0  0
 37 40  1  0  0  0  0
 37 39  1  0  0  0  0
 40 39  1  0  0  0  0
 40 36  1  1  0  0  0
M  END
>  <MODEL>
3

>  <REMARK>
 VINA RESULT:      -6.4      3.300      7.982
  Name = 
  16 active torsions:
  status: ('A' for Active; 'I' for Inactive)
    1  A    between atoms: C_3  and  C_12
    2  A    between atoms: C_3  and  C_34
    3  A    between atoms: C_4  and  C_14
    4  A    between atoms: C_4  and  C_17
    5  A    between atoms: C_5  and  C_20
    6  A    between atoms: C_7  and  C_23
    7  A    between atoms: C_10  and  C_20
    8  A    between atoms: C_11  and  C_19
    9  A    between atoms: C_11  and  C_22
   10  A    between atoms: C_11  and  C_31
   11  A    between atoms: C_12  and  C_14
   12  A    between atoms: C_22  and  N_35
   13  A    between atoms: C_23  and  C_38
   14  A    between atoms: C_24  and  C_31
   15  A    between atoms: C_34  and  C_38
   16  A    between atoms: N_35  and  C_40
                            x       y       z     vdW  Elec       q    Type
                         _______ _______ _______ _____ _____    ______ ____

>  <TORSDO>
F 16

$$$$
=
 OpenBabel11042418093D

 40 43  0  0  1  0  0  0  0  0999 V2000
  184.9160  179.6180  145.1060 N   0  0  0  0  0  2  0  0  0  0  0  0
  187.2940  176.8950  145.0830 C   0  0  0  0  0  0  0  0  0  0  0  0
  187.0850  176.4690  146.4530 C   0  0  0  0  0  0  0  0  0  0  0  0
  188.9920  175.5420  145.7250 C   0  0  0  0  0  0  0  0  0  0  0  0
  186.0700  176.8700  147.2080 C   0  0  0  0  0  3  0  0  0  0  0  0
  186.3920  177.8540  144.3850 C   0  0  0  0  0  2  0  0  0  0  0  0
  188.4040  176.3320  144.6320 C   0  0  0  0  0  0  0  0  0  0  0  0
  188.2050  175.6240  146.7980 C   0  0  0  0  0  0  0  0  0  0  0  0
  185.4820  178.5090  145.4000 C   0  0  0  0  0  0  0  0  0  0  0  0
  184.9850  177.7290  146.5990 C   0  0  0  0  0  2  0  0  0  0  0  0
  188.4520  175.0590  148.0050 F   0  0  0  0  0  0  0  0  0  0  0  0
  189.0130  176.5380  143.2790 C   0  0  0  0  0  2  0  0  0  0  0  0
  188.3210  175.6930  142.2030 C   0  0  2  0  0  3  0  0  0  0  0  0
  187.6010  172.8490  142.1290 O   0  0  0  0  0  0  0  0  0  0  0  0
  189.8080  172.1920  142.5920 C   0  0  0  0  0  3  0  0  0  0  0  0
  189.2510  174.5690  141.7020 C   0  0  1  0  0  3  0  0  0  0  0  0
  190.7010  174.8430  142.1400 C   0  0  0  0  0  2  0  0  0  0  0  0
  191.6090  173.6680  141.7930 C   0  0  0  0  0  2  0  0  0  0  0  0
  188.8110  173.1890  142.1680 C   0  0  0  0  0  0  0  0  0  0  0  0
  191.1140  172.4220  142.4530 C   0  0  0  0  0  3  0  0  0  0  0  0
  187.8940  176.6060  141.0610 C   0  0  0  0  0  2  0  0  0  0  0  0
  186.4910  176.9720  141.2300 N   0  0  0  0  0  2  0  0  0  0  0  0
  184.6290  177.8860  140.1050 O   0  0  0  0  0  1  0  0  0  0  0  0
  186.3490  176.9910  138.8790 O   0  0  0  0  0  1  0  0  0  0  0  0
  186.0100  177.6870  140.0460 C   0  0  0  0  0  3  0  0  0  0  0  0
  190.2790  174.7900  145.6420 C   0  0  0  0  0  2  0  0  0  0  0  0
  191.3860  175.5590  146.2880 C   0  0  0  0  0  3  0  0  0  0  0  0
  192.6690  175.3620  145.9900 C   0  0  0  0  0  0  0  0  0  0  0  0
  193.6370  176.1390  146.6170 O   0  0  0  0  0  1  0  0  0  0  0  0
  193.0960  174.3290  144.9920 C   0  0  0  0  0  2  0  0  0  0  0  0
  193.8040  173.1840  145.6920 C   0  0  0  0  0  2  0  0  0  0  0  0
  194.6340  172.4310  144.6820 C   0  0  0  0  0  2  0  0  0  0  0  0
  195.9130  171.9520  145.3440 C   0  0  0  0  0  2  0  0  0  0  0  0
  196.8460  173.1240  145.5720 C   0  0  0  0  0  2  0  0  0  0  0  0
  197.6010  173.4800  144.2910 C   0  0  0  0  0  2  0  0  0  0  0  0
  197.5000  174.9670  143.9730 C   0  0  0  0  0  2  0  0  0  0  0  0
  195.5980  176.1260  142.9440 C   0  0  2  0  0  3  0  0  0  0  0  0
  194.5380  175.9450  141.8800 C   0  0  0  0  0  1  0  0  0  0  0  0
  196.7940  176.5450  142.3300 O   0  0  0  0  0  0  0  0  0  0  0  0
  196.7160  175.1900  142.6950 C   0  0  1  0  0  3  0  0  0  0  0  0
  1  9  2  0  0  0  0
  2  3  1  0  0  0  0
  3  8  1  0  0  0  0
  3  5  2  0  0  0  0
  4  8  2  0  0  0  0
  6  2  1  0  0  0  0
  6  9  1  0  0  0  0
  7  2  2  0  0  0  0
  7  4  1  0  0  0  0
  8 11  1  0  0  0  0
  9 10  1  0  0  0  0
 10  5  1  0  0  0  0
 12  7  1  0  0  0  0
 13 21  1  6  0  0  0
 13 12  1  0  0  0  0
 14 19  2  0  0  0  0
 16 17  1  0  0  0  0
 16 19  1  0  0  0  0
 16 13  1  1  0  0  0
 18 17  1  0  0  0  0
 18 20  1  0  0  0  0
 19 15  1  0  0  0  0
 20 15  2  0  0  0  0
 21 22  1  0  0  0  0
 24 25  1  0  0  0  0
 25 23  1  0  0  0  0
 25 22  1  0  0  0  0
 26  4  1  0  0  0  0
 26 27  1  0  0  0  0
 28 27  2  0  0  0  0
 28 29  1  0  0  0  0
 30 31  1  0  0  0  0
 30 28  1  0  0  0  0
 32 33  1  0  0  0  0
 32 31  1  0  0  0  0
 33 34  1  0  0  0  0
 35 34  1  0  0  0  0
 36 35  1  0  0  0  0
 37 38  1  6  0  0  0
 39 40  1  0  0  0  0
 39 37  1  0  0  0  0
 40 37  1  0  0  0  0
 40 36  1  1  0  0  0
M  END
>  <MODEL>
4

>  <REMARK>
 VINA RESULT:      -6.3      3.086      8.263
  Name = 
  16 active torsions:
  status: ('A' for Active; 'I' for Inactive)
    1  A    between atoms: C_3  and  C_12
    2  A    between atoms: C_3  and  C_34
    3  A    between atoms: C_4  and  C_14
    4  A    between atoms: C_4  and  C_17
    5  A    between atoms: C_5  and  C_20
    6  A    between atoms: C_7  and  C_23
    7  A    between atoms: C_10  and  C_20
    8  A    between atoms: C_11  and  C_19
    9  A    between atoms: C_11  and  C_22
   10  A    between atoms: C_11  and  C_31
   11  A    between atoms: C_12  and  C_14
   12  A    between atoms: C_22  and  N_35
   13  A    between atoms: C_23  and  C_38
   14  A    between atoms: C_24  and  C_31
   15  A    between atoms: C_34  and  C_38
   16  A    between atoms: N_35  and  C_40
                            x       y       z     vdW  Elec       q    Type
                         _______ _______ _______ _____ _____    ______ ____

>  <TORSDO>
F 16

$$$$
=
 OpenBabel11042418093D

 40 43  0  0  1  0  0  0  0  0999 V2000
  185.1900  179.0030  145.1650 N   0  0  0  0  0  2  0  0  0  0  0  0
  187.7190  176.4220  145.0260 C   0  0  0  0  0  0  0  0  0  0  0  0
  187.7230  176.1050  146.4410 C   0  0  0  0  0  0  0  0  0  0  0  0
  189.5730  175.2250  145.5310 C   0  0  0  0  0  0  0  0  0  0  0  0
  186.7920  176.5130  147.2950 C   0  0  0  0  0  3  0  0  0  0  0  0
  186.6700  177.2670  144.3870 C   0  0  0  0  0  2  0  0  0  0  0  0
  188.7940  175.8850  144.4710 C   0  0  0  0  0  0  0  0  0  0  0  0
  188.9320  175.3560  146.6920 C   0  0  0  0  0  0  0  0  0  0  0  0
  185.8630  177.9560  145.4630 C   0  0  0  0  0  0  0  0  0  0  0  0
  185.5820  177.2560  146.7770 C   0  0  0  0  0  2  0  0  0  0  0  0
  189.3740  174.9110  147.8940 F   0  0  0  0  0  0  0  0  0  0  0  0
  189.2030  176.0060  143.0350 C   0  0  0  0  0  2  0  0  0  0  0  0
  188.4670  175.0020  142.1410 C   0  0  2  0  0  3  0  0  0  0  0  0
  188.2350  172.1490  142.7870 O   0  0  0  0  0  0  0  0  0  0  0  0
  190.5670  171.8700  142.7680 C   0  0  0  0  0  3  0  0  0  0  0  0
  189.4290  173.9090  141.6300 C   0  0  1  0  0  3  0  0  0  0  0  0
  190.8730  174.4390  141.6140 C   0  0  0  0  0  2  0  0  0  0  0  0
  191.8590  173.3290  141.2650 C   0  0  0  0  0  2  0  0  0  0  0  0
  189.3460  172.6260  142.4430 C   0  0  0  0  0  0  0  0  0  0  0  0
  191.7470  172.2120  142.2500 C   0  0  0  0  0  3  0  0  0  0  0  0
  187.8220  175.7540  140.9840 C   0  0  0  0  0  2  0  0  0  0  0  0
  187.8170  177.1840  141.2760 N   0  0  0  0  0  2  0  0  0  0  0  0
  185.6860  178.1930  141.1600 O   0  0  0  0  0  1  0  0  0  0  0  0
  186.4990  177.0780  139.3280 O   0  0  0  0  0  1  0  0  0  0  0  0
  186.8340  177.8680  140.4330 C   0  0  0  0  0  3  0  0  0  0  0  0
  190.8840  174.5400  145.3300 C   0  0  0  0  0  2  0  0  0  0  0  0
  191.9250  175.1100  146.2390 C   0  0  0  0  0  3  0  0  0  0  0  0
  193.0020  175.7510  145.7880 C   0  0  0  0  0  0  0  0  0  0  0  0
  193.9110  176.2750  146.7020 O   0  0  0  0  0  1  0  0  0  0  0  0
  193.2580  175.9270  144.3230 C   0  0  0  0  0  2  0  0  0  0  0  0
  194.0130  174.7300  143.7740 C   0  0  0  0  0  2  0  0  0  0  0  0
  195.2660  175.2140  143.0870 C   0  0  0  0  0  2  0  0  0  0  0  0
  196.2770  175.6410  144.1350 C   0  0  0  0  0  2  0  0  0  0  0  0
  197.1290  174.4560  144.5420 C   0  0  0  0  0  2  0  0  0  0  0  0
  196.7810  173.9910  145.9560 C   0  0  0  0  0  2  0  0  0  0  0  0
  196.8180  172.4720  146.0750 C   0  0  0  0  0  2  0  0  0  0  0  0
  195.9690  170.7560  144.5410 C   0  0  2  0  0  3  0  0  0  0  0  0
  194.8560  170.5040  143.5500 C   0  0  0  0  0  1  0  0  0  0  0  0
  195.4870  170.5080  145.8410 O   0  0  0  0  0  0  0  0  0  0  0  0
  195.5810  171.8560  145.4530 C   0  0  1  0  0  3  0  0  0  0  0  0
  1  9  2  0  0  0  0
  2  3  1  0  0  0  0
  3  8  1  0  0  0  0
  3  5  2  0  0  0  0
  4  8  2  0  0  0  0
  6  2  1  0  0  0  0
  6  9  1  0  0  0  0
  7  2  2  0  0  0  0
  7  4  1  0  0  0  0
  8 11  1  0  0  0  0
  9 10  1  0  0  0  0
 10  5  1  0  0  0  0
 12  7  1  0  0  0  0
 13 21  1  6  0  0  0
 13 12  1  0  0  0  0
 16 13  1  1  0  0  0
 16 19  1  0  0  0  0
 17 16  1  0  0  0  0
 18 17  1  0  0  0  0
 18 20  1  0  0  0  0
 19 15  1  0  0  0  0
 19 14  2  0  0  0  0
 20 15  2  0  0  0  0
 21 22  1  0  0  0  0
 24 25  1  0  0  0  0
 25 23  1  0  0  0  0
 25 22  1  0  0  0  0
 26  4  1  0  0  0  0
 26 27  1  0  0  0  0
 28 27  2  0  0  0  0
 28 29  1  0  0  0  0
 30 28  1  0  0  0  0
 31 30  1  0  0  0  0
 32 31  1  0  0  0  0
 32 33  1  0  0  0  0
 33 34  1  0  0  0  0
 34 35  1  0  0  0  0
 35 36  1  0  0  0  0
 37 38  1  6  0  0  0
 37 40  1  0  0  0  0
 37 39  1  0  0  0  0
 40 39  1  0  0  0  0
 40 36  1  1  0  0  0
M  END
>  <MODEL>
5

>  <REMARK>
 VINA RESULT:      -6.2      3.160      8.260
  Name = 
  16 active torsions:
  status: ('A' for Active; 'I' for Inactive)
    1  A    between atoms: C_3  and  C_12
    2  A    between atoms: C_3  and  C_34
    3  A    between atoms: C_4  and  C_14
    4  A    between atoms: C_4  and  C_17
    5  A    between atoms: C_5  and  C_20
    6  A    between atoms: C_7  and  C_23
    7  A    between atoms: C_10  and  C_20
    8  A    between atoms: C_11  and  C_19
    9  A    between atoms: C_11  and  C_22
   10  A    between atoms: C_11  and  C_31
   11  A    between atoms: C_12  and  C_14
   12  A    between atoms: C_22  and  N_35
   13  A    between atoms: C_23  and  C_38
   14  A    between atoms: C_24  and  C_31
   15  A    between atoms: C_34  and  C_38
   16  A    between atoms: N_35  and  C_40
                            x       y       z     vdW  Elec       q    Type
                         _______ _______ _______ _____ _____    ______ ____

>  <TORSDO>
F 16

$$$$
=
 OpenBabel11042418093D

 40 43  0  0  1  0  0  0  0  0999 V2000
  185.8900  177.5920  140.1890 N   0  0  0  0  0  2  0  0  0  0  0  0
  188.7230  176.2790  142.0120 C   0  0  0  0  0  0  0  0  0  0  0  0
  188.7950  177.3330  143.0070 C   0  0  0  0  0  0  0  0  0  0  0  0
  190.7240  176.1930  143.0690 C   0  0  0  0  0  0  0  0  0  0  0  0
  187.8360  178.2290  143.2070 C   0  0  0  0  0  3  0  0  0  0  0  0
  187.5640  176.1110  141.0910 C   0  0  0  0  0  2  0  0  0  0  0  0
  189.8470  175.5810  142.0580 C   0  0  0  0  0  0  0  0  0  0  0  0
  190.0940  177.2250  143.6290 C   0  0  0  0  0  0  0  0  0  0  0  0
  186.6960  177.3470  141.1520 C   0  0  0  0  0  0  0  0  0  0  0  0
  186.5310  178.1040  142.4540 C   0  0  0  0  0  2  0  0  0  0  0  0
  190.6110  178.0520  144.5700 F   0  0  0  0  0  0  0  0  0  0  0  0
  190.2100  174.4310  141.1700 C   0  0  0  0  0  2  0  0  0  0  0  0
  189.5470  173.1240  141.6230 C   0  0  2  0  0  3  0  0  0  0  0  0
  189.4960  172.3130  144.4420 O   0  0  0  0  0  0  0  0  0  0  0  0
  191.8410  172.2360  144.5500 C   0  0  0  0  0  3  0  0  0  0  0  0
  190.5780  172.1830  142.2800 C   0  0  1  0  0  3  0  0  0  0  0  0
  191.9860  172.4690  141.7300 C   0  0  0  0  0  2  0  0  0  0  0  0
  193.0410  171.6610  142.4790 C   0  0  0  0  0  2  0  0  0  0  0  0
  190.5750  172.2760  143.7980 C   0  0  0  0  0  0  0  0  0  0  0  0
  192.9980  171.9850  143.9370 C   0  0  0  0  0  3  0  0  0  0  0  0
  188.8860  172.4650  140.4200 C   0  0  0  0  0  2  0  0  0  0  0  0
  189.3990  173.0660  139.1930 N   0  0  0  0  0  2  0  0  0  0  0  0
  190.1650  172.4380  137.0500 O   0  0  0  0  0  1  0  0  0  0  0  0
  189.4830  170.8120  138.5170 O   0  0  0  0  0  1  0  0  0  0  0  0
  190.1030  172.0600  138.3930 C   0  0  0  0  0  3  0  0  0  0  0  0
  192.1070  175.7340  143.3930 C   0  0  0  0  0  2  0  0  0  0  0  0
  193.1020  176.3560  142.4670 C   0  0  0  0  0  3  0  0  0  0  0  0
  194.3650  175.9410  142.3830 C   0  0  0  0  0  0  0  0  0  0  0  0
  195.2220  176.5560  141.4760 O   0  0  0  0  0  1  0  0  0  0  0  0
  194.8850  174.8260  143.2360 C   0  0  0  0  0  2  0  0  0  0  0  0
  195.8480  175.3660  144.2780 C   0  0  0  0  0  2  0  0  0  0  0  0
  195.6580  174.6020  145.5650 C   0  0  0  0  0  2  0  0  0  0  0  0
  194.2660  174.8720  146.1050 C   0  0  0  0  0  2  0  0  0  0  0  0
  194.1430  176.3270  146.5110 C   0  0  0  0  0  2  0  0  0  0  0  0
  192.7730  176.6110  147.1260 C   0  0  0  0  0  2  0  0  0  0  0  0
  191.7870  175.4810  146.8520 C   0  0  0  0  0  2  0  0  0  0  0  0
  189.3870  175.2150  146.4170 C   0  0  2  0  0  3  0  0  0  0  0  0
  188.0830  175.9780  146.4790 C   0  0  0  0  0  1  0  0  0  0  0  0
  189.6910  174.7260  147.7020 O   0  0  0  0  0  0  0  0  0  0  0  0
  190.3890  175.8730  147.2850 C   0  0  1  0  0  3  0  0  0  0  0  0
  1  9  2  0  0  0  0
  2  7  2  0  0  0  0
  2  3  1  0  0  0  0
  3  5  2  0  0  0  0
  3  8  1  0  0  0  0
  4 26  1  0  0  0  0
  4  8  2  0  0  0  0
  6  9  1  0  0  0  0
  6  2  1  0  0  0  0
  7  4  1  0  0  0  0
  8 11  1  0  0  0  0
  9 10  1  0  0  0  0
 10  5  1  0  0  0  0
 12 13  1  0  0  0  0
 12  7  1  0  0  0  0
 13 21  1  6  0  0  0
 16 13  1  6  0  0  0
 16 19  1  0  0  0  0
 17 16  1  0  0  0  0
 17 18  1  0  0  0  0
 18 20  1  0  0  0  0
 19 14  2  0  0  0  0
 19 15  1  0  0  0  0
 20 15  2  0  0  0  0
 22 21  1  0  0  0  0
 23 25  1  0  0  0  0
 25 24  1  0  0  0  0
 25 22  1  0  0  0  0
 27 26  1  0  0  0  0
 28 27  2  0  0  0  0
 28 30  1  0  0  0  0
 29 28  1  0  0  0  0
 30 31  1  0  0  0  0
 31 32  1  0  0  0  0
 32 33  1  0  0  0  0
 33 34  1  0  0  0  0
 34 35  1  0  0  0  0
 36 35  1  0  0  0  0
 37 38  1  1  0  0  0
 37 40  1  0  0  0  0
 37 39  1  0  0  0  0
 40 36  1  6  0  0  0
 40 39  1  0  0  0  0
M  END
>  <MODEL>
6

>  <REMARK>
 VINA RESULT:      -6.2      2.862      6.414
  Name = 
  16 active torsions:
  status: ('A' for Active; 'I' for Inactive)
    1  A    between atoms: C_3  and  C_12
    2  A    between atoms: C_3  and  C_34
    3  A    between atoms: C_4  and  C_14
    4  A    between atoms: C_4  and  C_17
    5  A    between atoms: C_5  and  C_20
    6  A    between atoms: C_7  and  C_23
    7  A    between atoms: C_10  and  C_20
    8  A    between atoms: C_11  and  C_19
    9  A    between atoms: C_11  and  C_22
   10  A    between atoms: C_11  and  C_31
   11  A    between atoms: C_12  and  C_14
   12  A    between atoms: C_22  and  N_35
   13  A    between atoms: C_23  and  C_38
   14  A    between atoms: C_24  and  C_31
   15  A    between atoms: C_34  and  C_38
   16  A    between atoms: N_35  and  C_40
                            x       y       z     vdW  Elec       q    Type
                         _______ _______ _______ _____ _____    ______ ____

>  <TORSDO>
F 16

$$$$
=
 OpenBabel11042418093D

 40 43  0  0  1  0  0  0  0  0999 V2000
  193.0120  177.1020  147.6210 N   0  0  0  0  0  2  0  0  0  0  0  0
  191.4110  175.2300  144.9740 C   0  0  0  0  0  0  0  0  0  0  0  0
  190.5690  174.4100  145.8240 C   0  0  0  0  0  0  0  0  0  0  0  0
  190.6100  173.4770  143.7860 C   0  0  0  0  0  0  0  0  0  0  0  0
  190.3610  174.6500  147.1130 C   0  0  0  0  0  3  0  0  0  0  0  0
  192.1520  176.4220  145.4740 C   0  0  0  0  0  2  0  0  0  0  0  0
  191.4220  174.7040  143.7590 C   0  0  0  0  0  0  0  0  0  0  0  0
  190.1060  173.3110  145.0090 C   0  0  0  0  0  0  0  0  0  0  0  0
  192.1340  176.4220  146.9860 C   0  0  0  0  0  0  0  0  0  0  0  0
  190.9240  175.9060  147.7370 C   0  0  0  0  0  2  0  0  0  0  0  0
  189.3440  172.2660  145.4160 F   0  0  0  0  0  0  0  0  0  0  0  0
  192.2010  175.2080  142.5840 C   0  0  0  0  0  2  0  0  0  0  0  0
  193.2470  174.1930  142.1090 C   0  0  2  0  0  3  0  0  0  0  0  0
  193.9670  172.2630  144.1990 O   0  0  0  0  0  0  0  0  0  0  0  0
  194.9850  173.9290  145.5040 C   0  0  0  0  0  3  0  0  0  0  0  0
  194.5240  174.2730  142.9710 C   0  0  1  0  0  3  0  0  0  0  0  0
  194.8330  175.7380  143.3290 C   0  0  0  0  0  2  0  0  0  0  0  0
  195.9970  175.8280  144.3090 C   0  0  0  0  0  2  0  0  0  0  0  0
  194.4380  173.4280  144.2320 C   0  0  0  0  0  0  0  0  0  0  0  0
  195.6830  175.0640  145.5540 C   0  0  0  0  0  3  0  0  0  0  0  0
  193.5550  174.4540  140.6410 C   0  0  0  0  0  2  0  0  0  0  0  0
  192.4760  173.9190  139.8150 N   0  0  0  0  0  2  0  0  0  0  0  0
  193.6960  175.0940  138.1730 O   0  0  0  0  0  1  0  0  0  0  0  0
  191.6720  174.1710  137.6170 O   0  0  0  0  0  1  0  0  0  0  0  0
  192.8240  174.0270  138.3970 C   0  0  0  0  0  3  0  0  0  0  0  0
  190.4080  172.5580  142.6280 C   0  0  0  0  0  2  0  0  0  0  0  0
  188.9710  172.1640  142.5070 C   0  0  0  0  0  3  0  0  0  0  0  0
  188.0680  172.9180  141.8820 C   0  0  0  0  0  0  0  0  0  0  0  0
  186.7560  172.4670  141.7900 O   0  0  0  0  0  1  0  0  0  0  0  0
  188.4310  174.2360  141.2710 C   0  0  0  0  0  2  0  0  0  0  0  0
  187.7080  175.3640  141.9850 C   0  0  0  0  0  2  0  0  0  0  0  0
  188.6470  176.5360  142.1270 C   0  0  0  0  0  2  0  0  0  0  0  0
  188.0970  177.4920  143.1700 C   0  0  0  0  0  2  0  0  0  0  0  0
  189.1410  177.7450  144.2390 C   0  0  0  0  0  2  0  0  0  0  0  0
  188.5400  177.6050  145.6370 C   0  0  0  0  0  2  0  0  0  0  0  0
  187.2920  176.7290  145.6280 C   0  0  0  0  0  2  0  0  0  0  0  0
  185.0110  177.6090  145.4190 C   0  0  2  0  0  3  0  0  0  0  0  0
  184.1210  178.7200  145.9300 C   0  0  0  0  0  1  0  0  0  0  0  0
  185.0310  176.5680  146.3670 O   0  0  0  0  0  0  0  0  0  0  0  0
  186.1490  177.4190  146.3460 C   0  0  1  0  0  3  0  0  0  0  0  0
  2  6  1  0  0  0  0
  2  3  1  0  0  0  0
  3  5  2  0  0  0  0
  4  8  2  0  0  0  0
  5 10  1  0  0  0  0
  6  9  1  0  0  0  0
  7  4  1  0  0  0  0
  7  2  2  0  0  0  0
  8 11  1  0  0  0  0
  8  3  1  0  0  0  0
  9  1  2  0  0  0  0
  9 10  1  0  0  0  0
 12  7  1  0  0  0  0
 13 21  1  6  0  0  0
 13 12  1  0  0  0  0
 14 19  2  0  0  0  0
 15 20  2  0  0  0  0
 16 13  1  1  0  0  0
 16 17  1  0  0  0  0
 16 19  1  0  0  0  0
 17 18  1  0  0  0  0
 18 20  1  0  0  0  0
 19 15  1  0  0  0  0
 22 21  1  0  0  0  0
 23 25  1  0  0  0  0
 24 25  1  0  0  0  0
 25 22  1  0  0  0  0
 26  4  1  0  0  0  0
 27 26  1  0  0  0  0
 28 27  2  0  0  0  0
 29 28  1  0  0  0  0
 30 28  1  0  0  0  0
 30 31  1  0  0  0  0
 31 32  1  0  0  0  0
 32 33  1  0  0  0  0
 33 34  1  0  0  0  0
 34 35  1  0  0  0  0
 36 35  1  0  0  0  0
 37 38  1  1  0  0  0
 37 40  1  0  0  0  0
 37 39  1  0  0  0  0
 40 36  1  6  0  0  0
 40 39  1  0  0  0  0
M  END
>  <MODEL>
7

>  <REMARK>
 VINA RESULT:      -6.1      2.549      4.837
  Name = 
  16 active torsions:
  status: ('A' for Active; 'I' for Inactive)
    1  A    between atoms: C_3  and  C_12
    2  A    between atoms: C_3  and  C_34
    3  A    between atoms: C_4  and  C_14
    4  A    between atoms: C_4  and  C_17
    5  A    between atoms: C_5  and  C_20
    6  A    between atoms: C_7  and  C_23
    7  A    between atoms: C_10  and  C_20
    8  A    between atoms: C_11  and  C_19
    9  A    between atoms: C_11  and  C_22
   10  A    between atoms: C_11  and  C_31
   11  A    between atoms: C_12  and  C_14
   12  A    between atoms: C_22  and  N_35
   13  A    between atoms: C_23  and  C_38
   14  A    between atoms: C_24  and  C_31
   15  A    between atoms: C_34  and  C_38
   16  A    between atoms: N_35  and  C_40
                            x       y       z     vdW  Elec       q    Type
                         _______ _______ _______ _____ _____    ______ ____

>  <TORSDO>
F 16

$$$$
=
 OpenBabel11042418093D

 40 43  0  0  1  0  0  0  0  0999 V2000
  184.3000  178.6480  140.1450 N   0  0  0  0  0  2  0  0  0  0  0  0
  186.4660  177.5980  142.8430 C   0  0  0  0  0  0  0  0  0  0  0  0
  185.6440  178.0930  143.9300 C   0  0  0  0  0  0  0  0  0  0  0  0
  187.6880  177.6710  144.7470 C   0  0  0  0  0  0  0  0  0  0  0  0
  184.3840  178.4850  143.7880 C   0  0  0  0  0  3  0  0  0  0  0  0
  185.9790  177.5000  141.4380 C   0  0  0  0  0  2  0  0  0  0  0  0
  187.6690  177.3190  143.3190 C   0  0  0  0  0  0  0  0  0  0  0  0
  186.4870  178.1250  145.1030 C   0  0  0  0  0  0  0  0  0  0  0  0
  184.6840  178.2690  141.3050 C   0  0  0  0  0  0  0  0  0  0  0  0
  183.6970  178.3090  142.4530 C   0  0  0  0  0  2  0  0  0  0  0  0
  186.1460  178.5830  146.3320 F   0  0  0  0  0  0  0  0  0  0  0  0
  188.8400  176.8240  142.5260 C   0  0  0  0  0  2  0  0  0  0  0  0
  188.8390  175.2970  142.3910 C   0  0  2  0  0  3  0  0  0  0  0  0
  191.7030  175.8190  142.7570 O   0  0  0  0  0  0  0  0  0  0  0  0
  192.0990  173.6160  143.4680 C   0  0  0  0  0  3  0  0  0  0  0  0
  189.7140  174.6450  143.4820 C   0  0  1  0  0  3  0  0  0  0  0  0
  189.3090  173.1740  143.6790 C   0  0  0  0  0  2  0  0  0  0  0  0
  190.2620  172.4670  144.6360 C   0  0  0  0  0  2  0  0  0  0  0  0
  191.2020  174.7480  143.1820 C   0  0  0  0  0  0  0  0  0  0  0  0
  191.6610  172.5360  144.1150 C   0  0  0  0  0  3  0  0  0  0  0  0
  189.3280  174.9270  140.9970 C   0  0  0  0  0  2  0  0  0  0  0  0
  188.1810  174.7020  140.1230 N   0  0  0  0  0  2  0  0  0  0  0  0
  189.9330  173.7650  138.8490 O   0  0  0  0  0  1  0  0  0  0  0  0
  187.9140  174.1790  137.8420 O   0  0  0  0  0  1  0  0  0  0  0  0
  188.5490  173.7980  139.0300 C   0  0  0  0  0  3  0  0  0  0  0  0
  188.8780  177.5560  145.6420 C   0  0  0  0  0  2  0  0  0  0  0  0
  188.7890  176.3260  146.4860 C   0  0  0  0  0  3  0  0  0  0  0  0
  189.8650  175.6660  146.9130 C   0  0  0  0  0  0  0  0  0  0  0  0
  189.6970  174.5450  147.7180 O   0  0  0  0  0  1  0  0  0  0  0  0
  191.2510  176.1050  146.5540 C   0  0  0  0  0  2  0  0  0  0  0  0
  192.2520  175.0170  146.8970 C   0  0  0  0  0  2  0  0  0  0  0  0
  193.5370  175.2810  146.1510 C   0  0  0  0  0  2  0  0  0  0  0  0
  193.5580  176.7260  145.6880 C   0  0  0  0  0  2  0  0  0  0  0  0
  194.9710  177.1250  145.3110 C   0  0  0  0  0  2  0  0  0  0  0  0
  195.7030  175.9700  144.6290 C   0  0  0  0  0  2  0  0  0  0  0  0
  196.2540  176.3780  143.2670 C   0  0  0  0  0  2  0  0  0  0  0  0
  195.8960  175.1930  141.1480 C   0  0  2  0  0  3  0  0  0  0  0  0
  195.1370  175.3040  139.8460 C   0  0  0  0  0  1  0  0  0  0  0  0
  195.0370  174.6690  142.1340 O   0  0  0  0  0  0  0  0  0  0  0  0
  195.2600  176.0560  142.1690 C   0  0  1  0  0  3  0  0  0  0  0  0
  1  9  2  0  0  0  0
  2  7  2  0  0  0  0
  2  3  1  0  0  0  0
  3  8  1  0  0  0  0
  4  8  2  0  0  0  0
  4 26  1  0  0  0  0
  5  3  2  0  0  0  0
  6  2  1  0  0  0  0
  7  4  1  0  0  0  0
  8 11  1  0  0  0  0
  9  6  1  0  0  0  0
  9 10  1  0  0  0  0
 10  5  1  0  0  0  0
 12  7  1  0  0  0  0
 13 21  1  6  0  0  0
 13 12  1  0  0  0  0
 14 19  2  0  0  0  0
 15 20  2  0  0  0  0
 16 13  1  6  0  0  0
 16 17  1  0  0  0  0
 17 18  1  0  0  0  0
 19 15  1  0  0  0  0
 19 16  1  0  0  0  0
 20 18  1  0  0  0  0
 22 21  1  0  0  0  0
 23 25  1  0  0  0  0
 24 25  1  0  0  0  0
 25 22  1  0  0  0  0
 26 27  1  0  0  0  0
 27 28  2  0  0  0  0
 28 29  1  0  0  0  0
 30 31  1  0  0  0  0
 30 28  1  0  0  0  0
 32 31  1  0  0  0  0
 33 32  1  0  0  0  0
 34 33  1  0  0  0  0
 35 34  1  0  0  0  0
 36 35  1  0  0  0  0
 37 38  1  6  0  0  0
 37 39  1  0  0  0  0
 37 40  1  0  0  0  0
 39 40  1  0  0  0  0
 40 36  1  1  0  0  0
M  END
>  <MODEL>
8

>  <REMARK>
 VINA RESULT:      -6.0      2.815      6.875
  Name = 
  16 active torsions:
  status: ('A' for Active; 'I' for Inactive)
    1  A    between atoms: C_3  and  C_12
    2  A    between atoms: C_3  and  C_34
    3  A    between atoms: C_4  and  C_14
    4  A    between atoms: C_4  and  C_17
    5  A    between atoms: C_5  and  C_20
    6  A    between atoms: C_7  and  C_23
    7  A    between atoms: C_10  and  C_20
    8  A    between atoms: C_11  and  C_19
    9  A    between atoms: C_11  and  C_22
   10  A    between atoms: C_11  and  C_31
   11  A    between atoms: C_12  and  C_14
   12  A    between atoms: C_22  and  N_35
   13  A    between atoms: C_23  and  C_38
   14  A    between atoms: C_24  and  C_31
   15  A    between atoms: C_34  and  C_38
   16  A    between atoms: N_35  and  C_40
                            x       y       z     vdW  Elec       q    Type
                         _______ _______ _______ _____ _____    ______ ____

>  <TORSDO>
F 16

$$$$
=
 OpenBabel11042418093D

 40 43  0  0  1  0  0  0  0  0999 V2000
  186.7040  176.8730  140.2220 N   0  0  0  0  0  2  0  0  0  0  0  0
  189.1480  175.8200  142.6700 C   0  0  0  0  0  0  0  0  0  0  0  0
  189.7680  177.1170  142.8680 C   0  0  0  0  0  0  0  0  0  0  0  0
  191.1360  175.5600  143.7220 C   0  0  0  0  0  0  0  0  0  0  0  0
  189.2470  178.2600  142.4380 C   0  0  0  0  0  2  0  0  0  0  0  0
  187.8630  175.6390  141.9380 C   0  0  0  0  0  2  0  0  0  0  0  0
  189.9350  174.8940  143.1950 C   0  0  2  0  0  3  0  0  0  0  0  0
  191.0290  176.8750  143.5290 C   0  0  0  0  0  0  0  0  0  0  0  0
  187.5240  176.9160  141.2040 C   0  0  0  0  0  0  0  0  0  0  0  0
  187.8740  178.2610  141.8060 C   0  0  0  0  0  2  0  0  0  0  0  0
  191.9670  177.8010  143.8480 F   0  0  0  0  0  0  0  0  0  0  0  0
  189.6970  173.4160  143.1720 C   0  0  0  0  0  2  0  0  0  0  0  0
  190.7510  172.6770  142.3400 C   0  0  2  0  0  3  0  0  0  0  0  0
  192.1350  173.4340  139.8660 O   0  0  0  0  0  0  0  0  0  0  0  0
  190.1040  173.7910  138.7410 C   0  0  0  0  0  3  0  0  0  0  0  0
  190.2260  172.3810  140.9200 C   0  0  1  0  0  3  0  0  0  0  0  0
  188.6980  172.5600  140.8700 C   0  0  0  0  0  2  0  0  0  0  0  0
  188.1780  172.4280  139.4430 C   0  0  0  0  0  2  0  0  0  0  0  0
  190.8920  173.2400  139.8560 C   0  0  0  0  0  0  0  0  0  0  0  0
  188.8290  173.4440  138.5620 C   0  0  0  0  0  3  0  0  0  0  0  0
  191.1370  171.3930  143.0640 C   0  0  0  0  0  2  0  0  0  0  0  0
  191.3050  170.3180  142.0910 N   0  0  0  0  0  2  0  0  0  0  0  0
  192.7020  169.2600  143.6700 O   0  0  0  0  0  1  0  0  0  0  0  0
  193.6520  170.4030  141.9230 O   0  0  0  0  0  1  0  0  0  0  0  0
  192.5680  169.6150  142.3270 C   0  0  0  0  0  3  0  0  0  0  0  0
  192.2960  174.8630  144.3520 C   0  0  0  0  0  2  0  0  0  0  0  0
  193.1900  175.8400  145.0450 C   0  0  0  0  0  3  0  0  0  0  0  0
  193.1650  176.0300  146.3630 C   0  0  0  0  0  0  0  0  0  0  0  0
  194.0490  176.9400  146.9340 O   0  0  0  0  0  1  0  0  0  0  0  0
  192.2130  175.2850  147.2480 C   0  0  0  0  0  2  0  0  0  0  0  0
  190.8870  176.0190  147.3300 C   0  0  0  0  0  2  0  0  0  0  0  0
  189.7650  175.0140  147.2630 C   0  0  0  0  0  2  0  0  0  0  0  0
  188.5800  175.6350  146.5460 C   0  0  0  0  0  2  0  0  0  0  0  0
  188.7340  177.1420  146.5050 C   0  0  0  0  0  2  0  0  0  0  0  0
  187.4210  177.8360  146.8650 C   0  0  0  0  0  2  0  0  0  0  0  0
  186.2560  177.3030  146.0390 C   0  0  0  0  0  2  0  0  0  0  0  0
  184.5670  178.2750  144.5490 C   0  0  2  0  0  3  0  0  0  0  0  0
  184.3500  178.6660  143.1040 C   0  0  0  0  0  1  0  0  0  0  0  0
  185.2730  179.3060  145.1990 O   0  0  0  0  0  0  0  0  0  0  0  0
  186.0180  178.1750  144.8230 C   0  0  1  0  0  3  0  0  0  0  0  0
  1  9  2  0  0  0  0
  2  3  2  0  0  0  0
  2  7  1  0  0  0  0
  3  8  1  0  0  0  0
  4 26  1  0  0  0  0
  5  3  1  0  0  0  0
  6  2  1  0  0  0  0
  7 12  1  6  0  0  0
  7  4  1  0  0  0  0
  8  4  2  0  0  0  0
  8 11  1  0  0  0  0
  9 10  1  0  0  0  0
  9  6  1  0  0  0  0
 10  5  1  0  0  0  0
 13 21  1  1  0  0  0
 13 12  1  0  0  0  0
 15 19  1  0  0  0  0
 16 13  1  1  0  0  0
 17 16  1  0  0  0  0
 18 17  1  0  0  0  0
 19 14  2  0  0  0  0
 19 16  1  0  0  0  0
 20 15  2  0  0  0  0
 20 18  1  0  0  0  0
 22 25  1  0  0  0  0
 22 21  1  0  0  0  0
 24 25  1  0  0  0  0
 25 23  1  0  0  0  0
 26 27  1  0  0  0  0
 27 28  2  0  0  0  0
 28 29  1  0  0  0  0
 28 30  1  0  0  0  0
 30 31  1  0  0  0  0
 32 31  1  0  0  0  0
 33 32  1  0  0  0  0
 34 33  1  0  0  0  0
 34 35  1  0  0  0  0
 36 35  1  0  0  0  0
 37 38  1  6  0  0  0
 37 40  1  0  0  0  0
 37 39  1  0  0  0  0
 40 39  1  0  0  0  0
 40 36  1  1  0  0  0
M  END
>  <MODEL>
9

>  <REMARK>
 VINA RESULT:      -6.0      2.754      5.294
  Name = 
  16 active torsions:
  status: ('A' for Active; 'I' for Inactive)
    1  A    between atoms: C_3  and  C_12
    2  A    between atoms: C_3  and  C_34
    3  A    between atoms: C_4  and  C_14
    4  A    between atoms: C_4  and  C_17
    5  A    between atoms: C_5  and  C_20
    6  A    between atoms: C_7  and  C_23
    7  A    between atoms: C_10  and  C_20
    8  A    between atoms: C_11  and  C_19
    9  A    between atoms: C_11  and  C_22
   10  A    between atoms: C_11  and  C_31
   11  A    between atoms: C_12  and  C_14
   12  A    between atoms: C_22  and  N_35
   13  A    between atoms: C_23  and  C_38
   14  A    between atoms: C_24  and  C_31
   15  A    between atoms: C_34  and  C_38
   16  A    between atoms: N_35  and  C_40
                            x       y       z     vdW  Elec       q    Type
                         _______ _______ _______ _____ _____    ______ ____

>  <TORSDO>
F 16

$$$$
