=
 OpenBabel11042419273D

 40 43  0  0  1  0  0  0  0  0999 V2000
  195.2330  173.0030  143.0370 N   0  0  0  0  0  2  0  0  0  0  0  0
  194.0580  172.1690  142.8520 C   0  0  0  0  0  2  0  0  0  0  0  0
  192.2470  173.1760  141.4460 C   0  0  0  0  0  2  0  0  0  0  0  0
  190.4700  173.1750  143.7060 C   0  0  0  0  0  2  0  0  0  0  0  0
  191.7610  172.3630  143.7580 C   0  0  0  0  0  2  0  0  0  0  0  0
  192.8020  173.0180  142.8620 C   0  0  1  0  0  3  0  0  0  0  0  0
  190.9210  173.9350  141.4980 C   0  0  0  0  0  2  0  0  0  0  0  0
  189.9560  173.2160  142.3340 N   0  0  0  0  0  0  0  0  0  0  0  0
  188.7490  174.0240  142.3690 C   0  0  0  0  0  2  0  0  0  0  0  0
  189.0580  175.3830  141.9520 N   0  0  0  0  0  2  0  0  0  0  0  0
  186.7800  176.1740  142.5160 N   0  0  0  0  0  2  0  0  0  0  0  0
  188.4860  177.6540  141.8060 N   0  0  0  0  0  2  0  0  0  0  0  0
  188.1280  176.4500  142.1140 C   0  0  0  0  0  0  0  0  0  0  0  0
  185.7390  177.1910  142.5910 C   0  0  0  0  0  2  0  0  0  0  0  0
  185.7750  176.6790  144.9750 N   0  0  0  0  0  2  0  0  0  0  0  0
  185.6410  177.7620  144.0000 C   0  0  2  0  0  3  0  0  0  0  0  0
  185.7020  177.2600  146.3170 C   0  0  0  0  0  2  0  0  0  0  0  0
  184.3020  178.4770  144.1900 C   0  0  0  0  0  2  0  0  0  0  0  0
  184.1850  178.9460  145.6400 C   0  0  0  0  0  2  0  0  0  0  0  0
  184.3670  177.8130  146.5460 N   0  0  0  0  0  2  0  0  0  0  0  0
  195.8760  172.5600  144.2650 C   0  0  2  0  0  3  0  0  0  0  0  0
  195.7580  171.0480  144.3970 C   0  0  0  0  0  2  0  0  0  0  0  0
  195.7960  170.6160  145.8560 C   0  0  2  0  0  3  0  0  0  0  0  0
  197.0090  169.7670  146.1340 C   0  0  0  0  0  2  0  0  0  0  0  0
  195.0450  168.8620  147.1260 N   0  0  0  0  0  2  0  0  0  0  0  0
  197.1820  168.4100  148.1900 C   0  0  0  0  0  1  0  0  0  0  0  0
  194.6370  169.7910  146.1530 N   0  0  0  0  0  2  0  0  0  0  0  0
  196.4500  168.5830  146.8750 C   0  0  2  0  0  3  0  0  0  0  0  0
  195.2240  173.1940  145.4030 N   0  0  0  0  0  2  0  0  0  0  0  0
  196.0180  174.3530  145.7940 C   0  0  0  0  0  2  0  0  0  0  0  0
  195.3870  175.5870  145.3340 N   0  0  0  0  0  2  0  0  0  0  0  0
  191.8550  175.7400  146.5170 C   0  0  0  0  0  3  0  0  0  0  0  0
  193.3200  176.3630  144.2200 C   0  0  0  0  0  3  0  0  0  0  0  0
  193.9740  175.8190  145.3380 C   0  0  0  0  0  0  0  0  0  0  0  0
  191.2010  176.2810  145.4000 C   0  0  0  0  0  0  0  0  0  0  0  0
  193.2340  175.5110  146.4840 C   0  0  0  0  0  3  0  0  0  0  0  0
  191.9440  176.5910  144.2530 C   0  0  0  0  0  3  0  0  0  0  0  0
  188.8780  175.5010  145.8230 O   0  0  0  0  0  1  0  0  0  0  0  0
  189.7460  176.5180  145.4360 C   0  0  0  0  0  0  0  0  0  0  0  0
  189.2760  177.6430  145.1180 O   0  0  0  0  0  0  0  0  0  0  0  0
  1 21  1  0  0  0  0
  2  1  1  0  0  0  0
  3  7  1  0  0  0  0
  3  6  1  0  0  0  0
  4  5  1  0  0  0  0
  6  2  1  6  0  0  0
  6  5  1  0  0  0  0
  7  8  1  0  0  0  0
  8  9  1  0  0  0  0
  8  4  1  0  0  0  0
 10 13  1  0  0  0  0
 10  9  1  0  0  0  0
 11 14  1  0  0  0  0
 12 13  2  0  0  0  0
 13 11  1  0  0  0  0
 15 17  1  0  0  0  0
 16 14  1  6  0  0  0
 16 18  1  0  0  0  0
 16 15  1  0  0  0  0
 17 20  1  0  0  0  0
 18 19  1  0  0  0  0
 19 20  1  0  0  0  0
 21 22  1  1  0  0  0
 21 29  1  0  0  0  0
 23 22  1  6  0  0  0
 23 24  1  0  0  0  0
 23 27  1  0  0  0  0
 24 28  1  0  0  0  0
 27 25  1  0  0  0  0
 28 25  1  0  0  0  0
 28 26  1  1  0  0  0
 29 30  1  0  0  0  0
 31 34  1  0  0  0  0
 31 30  1  0  0  0  0
 33 37  2  0  0  0  0
 33 34  1  0  0  0  0
 34 36  2  0  0  0  0
 35 39  1  0  0  0  0
 35 32  2  0  0  0  0
 36 32  1  0  0  0  0
 37 35  1  0  0  0  0
 39 38  1  0  0  0  0
 40 39  2  0  0  0  0
M  END
>  <MODEL>
1

>  <REMARK>
 VINA RESULT:      -6.4      0.000      0.000
  Name = 
  14 active torsions:
  status: ('A' for Active; 'I' for Inactive)
    1  A    between atoms: N_1  and  C_21
    2  A    between atoms: N_1  and  C_25
    3  A    between atoms: C_3  and  N_12
    4  A    between atoms: C_3  and  N_38
    5  A    between atoms: C_4  and  C_7
    6  A    between atoms: C_4  and  N_17
    7  A    between atoms: C_6  and  C_9
    8  A    between atoms: C_6  and  C_25
    9  A    between atoms: C_14  and  C_31
   10  A    between atoms: N_16  and  C_23
   11  A    between atoms: N_16  and  C_36
   12  A    between atoms: C_21  and  C_22
   13  A    between atoms: C_25  and  N_34
   14  A    between atoms: N_34  and  C_36
                            x       y       z     vdW  Elec       q    Type
                         _______ _______ _______ _____ _____    ______ ____

>  <TORSDO>
F 14

$$$$
=
 OpenBabel11042419273D

 40 43  0  0  1  0  0  0  0  0999 V2000
  190.0700  175.8320  146.3070 N   0  0  0  0  0  2  0  0  0  0  0  0
  190.8740  175.5260  147.4770 C   0  0  0  0  0  2  0  0  0  0  0  0
  192.3440  174.4120  145.7820 C   0  0  0  0  0  2  0  0  0  0  0  0
  194.4640  176.2580  146.3850 C   0  0  0  0  0  2  0  0  0  0  0  0
  193.0470  176.5490  146.8700 C   0  0  0  0  0  2  0  0  0  0  0  0
  192.3060  175.2340  147.0710 C   0  0  1  0  0  3  0  0  0  0  0  0
  193.7940  174.2330  145.3320 C   0  0  0  0  0  2  0  0  0  0  0  0
  194.4210  175.5390  145.1090 N   0  0  0  0  0  0  0  0  0  0  0  0
  195.8010  175.2810  144.7340 C   0  0  0  0  0  2  0  0  0  0  0  0
  196.1810  176.1540  143.6350 N   0  0  0  0  0  2  0  0  0  0  0  0
  195.4200  174.5140  141.9430 N   0  0  0  0  0  2  0  0  0  0  0  0
  196.1880  176.6720  141.3460 N   0  0  0  0  0  2  0  0  0  0  0  0
  195.9070  175.8190  142.2770 C   0  0  0  0  0  0  0  0  0  0  0  0
  195.2260  174.0540  140.5740 C   0  0  0  0  0  2  0  0  0  0  0  0
  192.9860  174.2460  139.6280 N   0  0  0  0  0  2  0  0  0  0  0  0
  193.8690  173.3820  140.4150 C   0  0  2  0  0  3  0  0  0  0  0  0
  191.7010  173.5640  139.4720 C   0  0  0  0  0  2  0  0  0  0  0  0
  193.2480  173.1080  141.7860 C   0  0  0  0  0  2  0  0  0  0  0  0
  191.8460  172.5330  141.5960 C   0  0  0  0  0  2  0  0  0  0  0  0
  191.0440  173.4370  140.7730 N   0  0  0  0  0  2  0  0  0  0  0  0
  189.8020  177.2620  146.3420 C   0  0  2  0  0  3  0  0  0  0  0  0
  188.5490  177.5350  147.1620 C   0  0  0  0  0  2  0  0  0  0  0  0
  187.3080  177.5630  146.2810 C   0  0  2  0  0  3  0  0  0  0  0  0
  186.3820  178.6780  146.6920 C   0  0  0  0  0  2  0  0  0  0  0  0
  185.2050  176.6500  146.2840 N   0  0  0  0  0  2  0  0  0  0  0  0
  184.0370  178.7490  145.9190 C   0  0  0  0  0  1  0  0  0  0  0  0
  186.5630  176.3250  146.4450 N   0  0  0  0  0  2  0  0  0  0  0  0
  185.0380  178.0080  146.7810 C   0  0  2  0  0  3  0  0  0  0  0  0
  189.6020  177.7450  144.9820 N   0  0  0  0  0  2  0  0  0  0  0  0
  190.4800  176.9890  144.0970 C   0  0  0  0  0  2  0  0  0  0  0  0
  189.7550  176.5400  142.9120 N   0  0  0  0  0  2  0  0  0  0  0  0
  186.0350  176.4800  142.6890 C   0  0  0  0  0  3  0  0  0  0  0  0
  188.1500  178.1310  141.9090 C   0  0  0  0  0  3  0  0  0  0  0  0
  188.4160  176.9330  142.5910 C   0  0  0  0  0  0  0  0  0  0  0  0
  185.7670  177.6750  142.0060 C   0  0  0  0  0  0  0  0  0  0  0  0
  187.3520  176.1120  142.9800 C   0  0  0  0  0  3  0  0  0  0  0  0
  186.8340  178.4980  141.6190 C   0  0  0  0  0  3  0  0  0  0  0  0
  183.9510  178.1520  140.3760 O   0  0  0  0  0  0  0  0  0  0  0  0
  184.3770  178.0580  141.6980 C   0  0  0  0  0  0  0  0  0  0  0  0
  183.5630  178.3030  142.6280 O   0  0  0  0  0  1  0  0  0  0  0  0
  1 21  1  0  0  0  0
  1  2  1  0  0  0  0
  3  6  1  0  0  0  0
  4  5  1  0  0  0  0
  5  6  1  0  0  0  0
  6  2  1  6  0  0  0
  7  3  1  0  0  0  0
  8  7  1  0  0  0  0
  8  4  1  0  0  0  0
  9  8  1  0  0  0  0
 10  9  1  0  0  0  0
 11 13  1  0  0  0  0
 12 13  2  0  0  0  0
 13 10  1  0  0  0  0
 14 11  1  0  0  0  0
 15 16  1  0  0  0  0
 16 14  1  1  0  0  0
 16 18  1  0  0  0  0
 17 15  1  0  0  0  0
 17 20  1  0  0  0  0
 19 18  1  0  0  0  0
 20 19  1  0  0  0  0
 21 22  1  1  0  0  0
 23 27  1  0  0  0  0
 23 24  1  0  0  0  0
 23 22  1  1  0  0  0
 24 28  1  0  0  0  0
 25 27  1  0  0  0  0
 25 28  1  0  0  0  0
 28 26  1  6  0  0  0
 29 21  1  0  0  0  0
 30 29  1  0  0  0  0
 31 30  1  0  0  0  0
 32 36  1  0  0  0  0
 33 34  1  0  0  0  0
 34 31  1  0  0  0  0
 34 36  2  0  0  0  0
 35 32  2  0  0  0  0
 37 33  2  0  0  0  0
 37 35  1  0  0  0  0
 38 39  2  0  0  0  0
 39 35  1  0  0  0  0
 39 40  1  0  0  0  0
M  END
>  <MODEL>
2

>  <REMARK>
 VINA RESULT:      -6.4      3.247      8.732
  Name = 
  14 active torsions:
  status: ('A' for Active; 'I' for Inactive)
    1  A    between atoms: N_1  and  C_21
    2  A    between atoms: N_1  and  C_25
    3  A    between atoms: C_3  and  N_12
    4  A    between atoms: C_3  and  N_38
    5  A    between atoms: C_4  and  C_7
    6  A    between atoms: C_4  and  N_17
    7  A    between atoms: C_6  and  C_9
    8  A    between atoms: C_6  and  C_25
    9  A    between atoms: C_14  and  C_31
   10  A    between atoms: N_16  and  C_23
   11  A    between atoms: N_16  and  C_36
   12  A    between atoms: C_21  and  C_22
   13  A    between atoms: C_25  and  N_34
   14  A    between atoms: N_34  and  C_36
                            x       y       z     vdW  Elec       q    Type
                         _______ _______ _______ _____ _____    ______ ____

>  <TORSDO>
F 14

$$$$
=
 OpenBabel11042419273D

 40 43  0  0  1  0  0  0  0  0999 V2000
  193.9310  172.8730  143.0040 N   0  0  0  0  0  2  0  0  0  0  0  0
  193.2720  172.3190  141.8340 C   0  0  0  0  0  2  0  0  0  0  0  0
  191.3470  172.9790  143.2950 C   0  0  0  0  0  2  0  0  0  0  0  0
  190.0040  174.1350  141.0330 C   0  0  0  0  0  2  0  0  0  0  0  0
  191.4840  173.7790  140.9320 C   0  0  0  0  0  2  0  0  0  0  0  0
  191.7860  172.6220  141.8750 C   0  0  1  0  0  3  0  0  0  0  0  0
  189.8760  173.3920  143.2880 C   0  0  0  0  0  2  0  0  0  0  0  0
  189.6760  174.5420  142.4010 N   0  0  0  0  0  0  0  0  0  0  0  0
  188.2530  174.8370  142.4150 C   0  0  0  0  0  2  0  0  0  0  0  0
  187.9010  175.6010  141.2290 N   0  0  0  0  0  2  0  0  0  0  0  0
  186.9520  177.4440  142.5830 N   0  0  0  0  0  2  0  0  0  0  0  0
  187.1390  177.5830  140.2270 N   0  0  0  0  0  2  0  0  0  0  0  0
  187.3530  176.9140  141.3140 C   0  0  0  0  0  0  0  0  0  0  0  0
  186.2790  178.7270  142.7420 C   0  0  0  0  0  2  0  0  0  0  0  0
  186.6230  178.0440  145.0580 N   0  0  0  0  0  2  0  0  0  0  0  0
  185.8600  178.9430  144.1900 C   0  0  2  0  0  3  0  0  0  0  0  0
  186.2170  178.2920  146.4430 C   0  0  0  0  0  2  0  0  0  0  0  0
  184.3610  178.6840  144.3540 C   0  0  0  0  0  2  0  0  0  0  0  0
  183.9890  178.8040  145.8310 C   0  0  0  0  0  2  0  0  0  0  0  0
  184.8200  177.9020  146.6280 N   0  0  0  0  0  2  0  0  0  0  0  0
  195.2980  173.1820  142.6110 C   0  0  2  0  0  3  0  0  0  0  0  0
  196.2470  172.8990  143.7670 C   0  0  0  0  0  2  0  0  0  0  0  0
  196.1300  171.4550  144.2350 C   0  0  2  0  0  3  0  0  0  0  0  0
  195.7940  171.3920  145.7030 C   0  0  0  0  0  2  0  0  0  0  0  0
  197.4990  169.8400  145.1140 N   0  0  0  0  0  2  0  0  0  0  0  0
  196.0520  169.2990  146.9890 C   0  0  0  0  0  1  0  0  0  0  0  0
  197.4090  170.7830  144.0750 N   0  0  0  0  0  2  0  0  0  0  0  0
  196.7840  170.4010  146.2500 C   0  0  2  0  0  3  0  0  0  0  0  0
  195.3860  174.5910  142.2510 N   0  0  0  0  0  2  0  0  0  0  0  0
  196.1290  175.2830  143.2990 C   0  0  0  0  0  2  0  0  0  0  0  0
  195.4010  176.4650  143.7500 N   0  0  0  0  0  2  0  0  0  0  0  0
  191.8330  176.3620  144.8250 C   0  0  0  0  0  3  0  0  0  0  0  0
  194.3700  176.3870  145.9960 C   0  0  0  0  0  3  0  0  0  0  0  0
  194.2480  176.4270  144.5980 C   0  0  0  0  0  0  0  0  0  0  0  0
  191.9540  176.3250  146.2210 C   0  0  0  0  0  0  0  0  0  0  0  0
  192.9750  176.4130  144.0190 C   0  0  0  0  0  3  0  0  0  0  0  0
  193.2310  176.3370  146.8010 C   0  0  0  0  0  3  0  0  0  0  0  0
  190.0590  175.0790  147.2420 O   0  0  0  0  0  0  0  0  0  0  0  0
  190.7490  176.2760  147.0690 C   0  0  0  0  0  0  0  0  0  0  0  0
  190.3320  177.3170  147.6450 O   0  0  0  0  0  1  0  0  0  0  0  0
  2  1  1  0  0  0  0
  4  8  1  0  0  0  0
  5  4  1  0  0  0  0
  5  6  1  0  0  0  0
  6  2  1  1  0  0  0
  6  3  1  0  0  0  0
  7  3  1  0  0  0  0
  8  9  1  0  0  0  0
  8  7  1  0  0  0  0
 10 13  1  0  0  0  0
 10  9  1  0  0  0  0
 11 14  1  0  0  0  0
 12 13  2  0  0  0  0
 13 11  1  0  0  0  0
 15 17  1  0  0  0  0
 16 14  1  6  0  0  0
 16 18  1  0  0  0  0
 16 15  1  0  0  0  0
 17 20  1  0  0  0  0
 18 19  1  0  0  0  0
 19 20  1  0  0  0  0
 21  1  1  0  0  0  0
 21 22  1  1  0  0  0
 23 22  1  1  0  0  0
 23 24  1  0  0  0  0
 24 28  1  0  0  0  0
 25 28  1  0  0  0  0
 27 23  1  0  0  0  0
 27 25  1  0  0  0  0
 28 26  1  6  0  0  0
 29 21  1  0  0  0  0
 29 30  1  0  0  0  0
 30 31  1  0  0  0  0
 31 34  1  0  0  0  0
 32 35  1  0  0  0  0
 33 37  1  0  0  0  0
 34 33  2  0  0  0  0
 35 37  2  0  0  0  0
 35 39  1  0  0  0  0
 36 34  1  0  0  0  0
 36 32  2  0  0  0  0
 39 38  2  0  0  0  0
 39 40  1  0  0  0  0
M  END
>  <MODEL>
3

>  <REMARK>
 VINA RESULT:      -6.0      1.486      2.013
  Name = 
  14 active torsions:
  status: ('A' for Active; 'I' for Inactive)
    1  A    between atoms: N_1  and  C_21
    2  A    between atoms: N_1  and  C_25
    3  A    between atoms: C_3  and  N_12
    4  A    between atoms: C_3  and  N_38
    5  A    between atoms: C_4  and  C_7
    6  A    between atoms: C_4  and  N_17
    7  A    between atoms: C_6  and  C_9
    8  A    between atoms: C_6  and  C_25
    9  A    between atoms: C_14  and  C_31
   10  A    between atoms: N_16  and  C_23
   11  A    between atoms: N_16  and  C_36
   12  A    between atoms: C_21  and  C_22
   13  A    between atoms: C_25  and  N_34
   14  A    between atoms: N_34  and  C_36
                            x       y       z     vdW  Elec       q    Type
                         _______ _______ _______ _____ _____    ______ ____

>  <TORSDO>
F 14

$$$$
=
 OpenBabel11042419273D

 40 43  0  0  1  0  0  0  0  0999 V2000
  188.2870  174.5530  142.1920 N   0  0  0  0  0  2  0  0  0  0  0  0
  188.7490  173.4080  141.4260 C   0  0  0  0  0  2  0  0  0  0  0  0
  189.9590  171.4730  142.4570 C   0  0  0  0  0  2  0  0  0  0  0  0
  192.4460  172.4370  141.3870 C   0  0  0  0  0  2  0  0  0  0  0  0
  191.1290  173.0060  140.8680 C   0  0  0  0  0  2  0  0  0  0  0  0
  190.0780  172.9160  141.9660 C   0  0  1  0  0  3  0  0  0  0  0  0
  191.3350  170.9630  142.8860 C   0  0  0  0  0  2  0  0  0  0  0  0
  192.2740  171.0310  141.7630 N   0  0  0  0  0  0  0  0  0  0  0  0
  193.5600  170.5780  142.2660 C   0  0  0  0  0  2  0  0  0  0  0  0
  193.5540  170.6070  143.7200 N   0  0  0  0  0  2  0  0  0  0  0  0
  195.3250  172.3370  143.7860 N   0  0  0  0  0  2  0  0  0  0  0  0
  194.2380  171.5750  145.7460 N   0  0  0  0  0  2  0  0  0  0  0  0
  194.3470  171.5330  144.4580 C   0  0  0  0  0  0  0  0  0  0  0  0
  196.2530  173.2210  144.4800 C   0  0  0  0  0  2  0  0  0  0  0  0
  195.1520  174.7050  142.8880 N   0  0  0  0  0  2  0  0  0  0  0  0
  196.0590  174.6650  144.0380 C   0  0  2  0  0  3  0  0  0  0  0  0
  194.9660  176.1050  142.5030 C   0  0  0  0  0  2  0  0  0  0  0  0
  197.4040  175.2930  143.6680 C   0  0  0  0  0  2  0  0  0  0  0  0
  197.1680  176.7030  143.1280 C   0  0  0  0  0  2  0  0  0  0  0  0
  196.2270  176.6570  142.0100 N   0  0  0  0  0  2  0  0  0  0  0  0
  188.5320  175.7330  141.3760 C   0  0  2  0  0  3  0  0  0  0  0  0
  189.0840  176.8560  142.2420 C   0  0  0  0  0  2  0  0  0  0  0  0
  189.3860  176.3690  143.6530 C   0  0  2  0  0  3  0  0  0  0  0  0
  188.9990  177.4070  144.6740 C   0  0  0  0  0  2  0  0  0  0  0  0
  191.1280  176.4530  145.1400 N   0  0  0  0  0  2  0  0  0  0  0  0
  189.8070  177.2780  147.0040 C   0  0  0  0  0  1  0  0  0  0  0  0
  190.8160  176.1560  143.8010 N   0  0  0  0  0  2  0  0  0  0  0  0
  190.2100  177.5000  145.5610 C   0  0  2  0  0  3  0  0  0  0  0  0
  187.2800  176.1640  140.7700 N   0  0  0  0  0  2  0  0  0  0  0  0
  187.2250  177.6210  140.8250 C   0  0  0  0  0  2  0  0  0  0  0  0
  185.9930  178.0650  141.4690 N   0  0  0  0  0  2  0  0  0  0  0  0
  185.6980  179.5560  144.8730 C   0  0  0  0  0  3  0  0  0  0  0  0
  185.5670  177.0340  143.6760 C   0  0  0  0  0  3  0  0  0  0  0  0
  185.8170  178.1680  142.8870 C   0  0  0  0  0  0  0  0  0  0  0  0
  185.4510  178.4240  145.6630 C   0  0  0  0  0  0  0  0  0  0  0  0
  185.8790  179.4280  143.4930 C   0  0  0  0  0  3  0  0  0  0  0  0
  185.3860  177.1630  145.0540 C   0  0  0  0  0  3  0  0  0  0  0  0
  186.3140  178.9940  147.9240 O   0  0  0  0  0  1  0  0  0  0  0  0
  185.2640  178.5630  147.1190 C   0  0  0  0  0  0  0  0  0  0  0  0
  184.1520  178.2920  147.6470 O   0  0  0  0  0  0  0  0  0  0  0  0
  2  1  1  0  0  0  0
  3  7  1  0  0  0  0
  4  8  1  0  0  0  0
  5  4  1  0  0  0  0
  5  6  1  0  0  0  0
  6  2  1  6  0  0  0
  6  3  1  0  0  0  0
  8  9  1  0  0  0  0
  8  7  1  0  0  0  0
  9 10  1  0  0  0  0
 10 13  1  0  0  0  0
 11 13  1  0  0  0  0
 11 14  1  0  0  0  0
 13 12  2  0  0  0  0
 15 16  1  0  0  0  0
 16 14  1  6  0  0  0
 17 15  1  0  0  0  0
 18 16  1  0  0  0  0
 19 18  1  0  0  0  0
 20 17  1  0  0  0  0
 20 19  1  0  0  0  0
 21  1  1  0  0  0  0
 21 22  1  1  0  0  0
 23 22  1  6  0  0  0
 23 27  1  0  0  0  0
 23 24  1  0  0  0  0
 24 28  1  0  0  0  0
 25 28  1  0  0  0  0
 27 25  1  0  0  0  0
 28 26  1  1  0  0  0
 29 30  1  0  0  0  0
 29 21  1  0  0  0  0
 30 31  1  0  0  0  0
 31 34  1  0  0  0  0
 32 35  1  0  0  0  0
 33 37  1  0  0  0  0
 34 36  1  0  0  0  0
 34 33  2  0  0  0  0
 35 39  1  0  0  0  0
 36 32  2  0  0  0  0
 37 35  2  0  0  0  0
 39 40  2  0  0  0  0
 39 38  1  0  0  0  0
M  END
>  <MODEL>
4

>  <REMARK>
 VINA RESULT:      -6.0      2.576      8.573
  Name = 
  14 active torsions:
  status: ('A' for Active; 'I' for Inactive)
    1  A    between atoms: N_1  and  C_21
    2  A    between atoms: N_1  and  C_25
    3  A    between atoms: C_3  and  N_12
    4  A    between atoms: C_3  and  N_38
    5  A    between atoms: C_4  and  C_7
    6  A    between atoms: C_4  and  N_17
    7  A    between atoms: C_6  and  C_9
    8  A    between atoms: C_6  and  C_25
    9  A    between atoms: C_14  and  C_31
   10  A    between atoms: N_16  and  C_23
   11  A    between atoms: N_16  and  C_36
   12  A    between atoms: C_21  and  C_22
   13  A    between atoms: C_25  and  N_34
   14  A    between atoms: N_34  and  C_36
                            x       y       z     vdW  Elec       q    Type
                         _______ _______ _______ _____ _____    ______ ____

>  <TORSDO>
F 14

$$$$
=
 OpenBabel11042419273D

 40 43  0  0  1  0  0  0  0  0999 V2000
  186.8440  175.7550  143.0630 N   0  0  0  0  0  2  0  0  0  0  0  0
  187.7200  176.3500  142.0690 C   0  0  0  0  0  2  0  0  0  0  0  0
  189.1910  174.5590  143.0170 C   0  0  0  0  0  2  0  0  0  0  0  0
  189.7690  173.6080  140.3660 C   0  0  0  0  0  2  0  0  0  0  0  0
  188.6100  174.5750  140.5860 C   0  0  0  0  0  2  0  0  0  0  0  0
  188.9060  175.4430  141.8030 C   0  0  1  0  0  3  0  0  0  0  0  0
  190.3130  173.5750  142.6810 C   0  0  0  0  0  2  0  0  0  0  0  0
  189.9320  172.7420  141.5370 N   0  0  0  0  0  0  0  0  0  0  0  0
  191.0640  171.8760  141.2560 C   0  0  0  0  0  2  0  0  0  0  0  0
  191.7960  172.3850  140.1070 N   0  0  0  0  0  2  0  0  0  0  0  0
  193.9180  172.4740  141.3810 N   0  0  0  0  0  2  0  0  0  0  0  0
  193.8200  172.9570  139.0650 N   0  0  0  0  0  2  0  0  0  0  0  0
  193.2070  172.5850  140.1420 C   0  0  0  0  0  0  0  0  0  0  0  0
  195.3370  172.7760  141.5230 C   0  0  0  0  0  2  0  0  0  0  0  0
  195.7240  175.1720  141.2730 N   0  0  0  0  0  2  0  0  0  0  0  0
  195.5390  174.0980  142.2520 C   0  0  2  0  0  3  0  0  0  0  0  0
  195.8900  176.4300  142.0020 C   0  0  0  0  0  2  0  0  0  0  0  0
  196.7560  174.0140  143.1760 C   0  0  0  0  0  2  0  0  0  0  0  0
  196.9980  175.3820  143.8110 C   0  0  0  0  0  2  0  0  0  0  0  0
  197.1350  176.3980  142.7690 N   0  0  0  0  0  2  0  0  0  0  0  0
  185.8570  176.7660  143.4150 C   0  0  2  0  0  3  0  0  0  0  0  0
  186.2540  178.1090  142.8190 C   0  0  0  0  0  2  0  0  0  0  0  0
  185.0910  178.7480  142.0730 C   0  0  2  0  0  3  0  0  0  0  0  0
  183.7730  178.3190  142.6630 C   0  0  0  0  0  2  0  0  0  0  0  0
  183.7460  178.2520  140.2850 N   0  0  0  0  0  2  0  0  0  0  0  0
  181.6510  178.6610  141.4470 C   0  0  0  0  0  1  0  0  0  0  0  0
  185.0910  178.2990  140.6910 N   0  0  0  0  0  2  0  0  0  0  0  0
  182.9650  177.9070  141.4640 C   0  0  2  0  0  3  0  0  0  0  0  0
  185.7890  176.8840  144.8650 N   0  0  0  0  0  2  0  0  0  0  0  0
  186.6400  177.9960  145.2710 C   0  0  0  0  0  2  0  0  0  0  0  0
  187.6410  177.5520  146.2370 N   0  0  0  0  0  2  0  0  0  0  0  0
  190.9280  177.4590  144.4810 C   0  0  0  0  0  3  0  0  0  0  0  0
  189.6580  176.1700  146.6100 C   0  0  0  0  0  3  0  0  0  0  0  0
  188.9770  177.1670  145.8920 C   0  0  0  0  0  0  0  0  0  0  0  0
  191.6090  176.4630  145.1950 C   0  0  0  0  0  0  0  0  0  0  0  0
  189.6200  177.8090  144.8280 C   0  0  0  0  0  3  0  0  0  0  0  0
  190.9640  175.8220  146.2630 C   0  0  0  0  0  3  0  0  0  0  0  0
  194.0360  176.9810  145.0450 O   0  0  0  0  0  1  0  0  0  0  0  0
  192.9870  176.0940  144.8240 C   0  0  0  0  0  0  0  0  0  0  0  0
  193.2280  174.9710  144.3030 O   0  0  0  0  0  0  0  0  0  0  0  0
  1 21  1  0  0  0  0
  2  1  1  0  0  0  0
  4  5  1  0  0  0  0
  4  8  1  0  0  0  0
  5  6  1  0  0  0  0
  6  2  1  1  0  0  0
  6  3  1  0  0  0  0
  7  3  1  0  0  0  0
  8  7  1  0  0  0  0
  9  8  1  0  0  0  0
 10 13  1  0  0  0  0
 10  9  1  0  0  0  0
 11 14  1  0  0  0  0
 12 13  2  0  0  0  0
 13 11  1  0  0  0  0
 15 17  1  0  0  0  0
 15 16  1  0  0  0  0
 16 14  1  6  0  0  0
 16 18  1  0  0  0  0
 17 20  1  0  0  0  0
 18 19  1  0  0  0  0
 20 19  1  0  0  0  0
 21 22  1  6  0  0  0
 21 29  1  0  0  0  0
 23 24  1  0  0  0  0
 23 22  1  1  0  0  0
 25 27  1  0  0  0  0
 25 28  1  0  0  0  0
 27 23  1  0  0  0  0
 28 26  1  6  0  0  0
 28 24  1  0  0  0  0
 29 30  1  0  0  0  0
 30 31  1  0  0  0  0
 32 36  2  0  0  0  0
 32 35  1  0  0  0  0
 34 31  1  0  0  0  0
 34 33  2  0  0  0  0
 35 37  2  0  0  0  0
 36 34  1  0  0  0  0
 37 33  1  0  0  0  0
 39 38  1  0  0  0  0
 39 35  1  0  0  0  0
 40 39  2  0  0  0  0
M  END
>  <MODEL>
5

>  <REMARK>
 VINA RESULT:      -6.0      3.123      9.603
  Name = 
  14 active torsions:
  status: ('A' for Active; 'I' for Inactive)
    1  A    between atoms: N_1  and  C_21
    2  A    between atoms: N_1  and  C_25
    3  A    between atoms: C_3  and  N_12
    4  A    between atoms: C_3  and  N_38
    5  A    between atoms: C_4  and  C_7
    6  A    between atoms: C_4  and  N_17
    7  A    between atoms: C_6  and  C_9
    8  A    between atoms: C_6  and  C_25
    9  A    between atoms: C_14  and  C_31
   10  A    between atoms: N_16  and  C_23
   11  A    between atoms: N_16  and  C_36
   12  A    between atoms: C_21  and  C_22
   13  A    between atoms: C_25  and  N_34
   14  A    between atoms: N_34  and  C_36
                            x       y       z     vdW  Elec       q    Type
                         _______ _______ _______ _____ _____    ______ ____

>  <TORSDO>
F 14

$$$$
=
 OpenBabel11042419273D

 40 43  0  0  1  0  0  0  0  0999 V2000
  189.4670  176.1280  145.0710 N   0  0  0  0  0  2  0  0  0  0  0  0
  188.8160  175.5450  143.9110 C   0  0  0  0  0  2  0  0  0  0  0  0
  189.7430  173.2260  143.7310 C   0  0  0  0  0  2  0  0  0  0  0  0
  190.3270  173.6570  140.9500 C   0  0  0  0  0  2  0  0  0  0  0  0
  189.4060  174.6250  141.6880 C   0  0  0  0  0  2  0  0  0  0  0  0
  189.7810  174.6450  143.1640 C   0  0  1  0  0  3  0  0  0  0  0  0
  190.6340  172.3130  142.8870 C   0  0  0  0  0  2  0  0  0  0  0  0
  190.1780  172.3060  141.4950 N   0  0  0  0  0  0  0  0  0  0  0  0
  191.1020  171.4590  140.7580 C   0  0  0  0  0  2  0  0  0  0  0  0
  192.2380  172.2490  140.3110 N   0  0  0  0  0  2  0  0  0  0  0  0
  193.8500  170.7170  141.4020 N   0  0  0  0  0  2  0  0  0  0  0  0
  194.5540  172.5290  140.0500 N   0  0  0  0  0  2  0  0  0  0  0  0
  193.5820  171.8340  140.5450 C   0  0  0  0  0  0  0  0  0  0  0  0
  195.1940  170.3010  141.7830 C   0  0  0  0  0  2  0  0  0  0  0  0
  194.1890  170.0110  143.9860 N   0  0  0  0  0  2  0  0  0  0  0  0
  195.3990  170.4440  143.2860 C   0  0  2  0  0  3  0  0  0  0  0  0
  194.4250  170.1350  145.4260 C   0  0  0  0  0  2  0  0  0  0  0  0
  195.7220  171.8960  143.6420 C   0  0  0  0  0  2  0  0  0  0  0  0
  195.8170  172.0300  145.1610 C   0  0  0  0  0  2  0  0  0  0  0  0
  194.5860  171.5450  145.7820 N   0  0  0  0  0  2  0  0  0  0  0  0
  188.6910  175.7270  146.2360 C   0  0  2  0  0  3  0  0  0  0  0  0
  188.1490  176.9590  146.9470 C   0  0  0  0  0  2  0  0  0  0  0  0
  186.6440  177.0890  146.7570 C   0  0  2  0  0  3  0  0  0  0  0  0
  186.3260  177.9980  145.5980 C   0  0  0  0  0  2  0  0  0  0  0  0
  184.9530  178.4520  147.4880 N   0  0  0  0  0  2  0  0  0  0  0  0
  184.0580  178.9230  145.2780 C   0  0  0  0  0  1  0  0  0  0  0  0
  186.0520  177.6980  147.9350 N   0  0  0  0  0  2  0  0  0  0  0  0
  185.2920  178.9360  146.1580 C   0  0  2  0  0  3  0  0  0  0  0  0
  189.5490  174.9830  147.1490 N   0  0  0  0  0  2  0  0  0  0  0  0
  190.6220  175.8680  147.5890 C   0  0  0  0  0  2  0  0  0  0  0  0
  191.9170  175.2070  147.4660 N   0  0  0  0  0  2  0  0  0  0  0  0
  194.7450  176.6990  145.5500 C   0  0  0  0  0  3  0  0  0  0  0  0
  192.8220  174.6980  145.2220 C   0  0  0  0  0  3  0  0  0  0  0  0
  192.8490  175.4510  146.4070 C   0  0  0  0  0  0  0  0  0  0  0  0
  194.7180  175.9490  144.3650 C   0  0  0  0  0  0  0  0  0  0  0  0
  193.8160  176.4500  146.5650 C   0  0  0  0  0  3  0  0  0  0  0  0
  193.7500  174.9470  144.2100 C   0  0  0  0  0  3  0  0  0  0  0  0
  195.5730  175.5930  142.0580 O   0  0  0  0  0  0  0  0  0  0  0  0
  195.6970  176.2170  143.2960 C   0  0  0  0  0  0  0  0  0  0  0  0
  196.6530  177.0130  143.4920 O   0  0  0  0  0  1  0  0  0  0  0  0
  1 21  1  0  0  0  0
  2  1  1  0  0  0  0
  4  8  1  0  0  0  0
  4  5  1  0  0  0  0
  5  6  1  0  0  0  0
  6  3  1  0  0  0  0
  6  2  1  1  0  0  0
  7  3  1  0  0  0  0
  8  7  1  0  0  0  0
  9  8  1  0  0  0  0
 10 13  1  0  0  0  0
 10  9  1  0  0  0  0
 11 14  1  0  0  0  0
 12 13  2  0  0  0  0
 13 11  1  0  0  0  0
 15 17  1  0  0  0  0
 16 14  1  6  0  0  0
 16 18  1  0  0  0  0
 16 15  1  0  0  0  0
 17 20  1  0  0  0  0
 18 19  1  0  0  0  0
 19 20  1  0  0  0  0
 21 22  1  1  0  0  0
 21 29  1  0  0  0  0
 23 22  1  1  0  0  0
 23 27  1  0  0  0  0
 24 28  1  0  0  0  0
 24 23  1  0  0  0  0
 25 27  1  0  0  0  0
 28 26  1  6  0  0  0
 28 25  1  0  0  0  0
 29 30  1  0  0  0  0
 31 30  1  0  0  0  0
 32 36  1  0  0  0  0
 33 34  1  0  0  0  0
 34 36  2  0  0  0  0
 34 31  1  0  0  0  0
 35 32  2  0  0  0  0
 37 35  1  0  0  0  0
 37 33  2  0  0  0  0
 38 39  2  0  0  0  0
 39 40  1  0  0  0  0
 39 35  1  0  0  0  0
M  END
>  <MODEL>
6

>  <REMARK>
 VINA RESULT:      -6.0      2.759      8.695
  Name = 
  14 active torsions:
  status: ('A' for Active; 'I' for Inactive)
    1  A    between atoms: N_1  and  C_21
    2  A    between atoms: N_1  and  C_25
    3  A    between atoms: C_3  and  N_12
    4  A    between atoms: C_3  and  N_38
    5  A    between atoms: C_4  and  C_7
    6  A    between atoms: C_4  and  N_17
    7  A    between atoms: C_6  and  C_9
    8  A    between atoms: C_6  and  C_25
    9  A    between atoms: C_14  and  C_31
   10  A    between atoms: N_16  and  C_23
   11  A    between atoms: N_16  and  C_36
   12  A    between atoms: C_21  and  C_22
   13  A    between atoms: C_25  and  N_34
   14  A    between atoms: N_34  and  C_36
                            x       y       z     vdW  Elec       q    Type
                         _______ _______ _______ _____ _____    ______ ____

>  <TORSDO>
F 14

$$$$
=
 OpenBabel11042419273D

 40 43  0  0  1  0  0  0  0  0999 V2000
  191.4660  174.1320  145.4140 N   0  0  0  0  0  2  0  0  0  0  0  0
  190.1450  173.8350  144.8890 C   0  0  0  0  0  2  0  0  0  0  0  0
  190.5690  172.5220  142.7990 C   0  0  0  0  0  2  0  0  0  0  0  0
  188.7670  174.2240  141.3440 C   0  0  0  0  0  2  0  0  0  0  0  0
  188.7730  174.2590  142.8700 C   0  0  0  0  0  2  0  0  0  0  0  0
  190.1590  173.8780  143.3730 C   0  0  1  0  0  3  0  0  0  0  0  0
  190.4620  172.5580  141.2740 C   0  0  0  0  0  2  0  0  0  0  0  0
  189.0900  172.8770  140.8690 N   0  0  0  0  0  0  0  0  0  0  0  0
  189.0870  172.9390  139.4170 C   0  0  0  0  0  2  0  0  0  0  0  0
  188.1920  173.9960  138.9750 N   0  0  0  0  0  2  0  0  0  0  0  0
  189.2570  174.0900  136.7400 N   0  0  0  0  0  2  0  0  0  0  0  0
  187.3370  175.3690  137.2740 N   0  0  0  0  0  2  0  0  0  0  0  0
  188.2130  174.4900  137.6380 C   0  0  0  0  0  0  0  0  0  0  0  0
  189.4160  174.6360  135.3990 C   0  0  0  0  0  2  0  0  0  0  0  0
  191.6260  174.9060  136.3950 N   0  0  0  0  0  2  0  0  0  0  0  0
  190.8320  175.1580  135.1900 C   0  0  2  0  0  3  0  0  0  0  0  0
  192.9850  175.3940  136.1560 C   0  0  0  0  0  2  0  0  0  0  0  0
  190.8060  176.6560  134.8830 C   0  0  0  0  0  2  0  0  0  0  0  0
  192.2400  177.1730  134.7850 C   0  0  0  0  0  2  0  0  0  0  0  0
  192.9710  176.8490  136.0090 N   0  0  0  0  0  2  0  0  0  0  0  0
  191.4970  175.5590  145.7000 C   0  0  2  0  0  3  0  0  0  0  0  0
  192.8310  175.9340  146.3280 C   0  0  0  0  0  2  0  0  0  0  0  0
  193.8830  176.2160  145.2630 C   0  0  2  0  0  3  0  0  0  0  0  0
  193.2420  176.4150  143.9140 C   0  0  0  0  0  2  0  0  0  0  0  0
  195.1670  175.0220  143.7870 N   0  0  0  0  0  2  0  0  0  0  0  0
  194.5770  176.3450  141.8370 C   0  0  0  0  0  1  0  0  0  0  0  0
  194.7700  175.0730  145.1350 N   0  0  0  0  0  2  0  0  0  0  0  0
  194.0520  175.5340  143.0040 C   0  0  2  0  0  3  0  0  0  0  0  0
  190.4210  175.8850  146.6260 N   0  0  0  0  0  2  0  0  0  0  0  0
  189.9960  177.2560  146.3650 C   0  0  0  0  0  2  0  0  0  0  0  0
  190.0510  177.5480  144.9360 N   0  0  0  0  0  2  0  0  0  0  0  0
  186.4850  177.7640  143.8720 C   0  0  0  0  0  3  0  0  0  0  0  0
  189.0230  177.8290  142.7050 C   0  0  0  0  0  3  0  0  0  0  0  0
  188.8990  177.6670  144.0940 C   0  0  0  0  0  0  0  0  0  0  0  0
  186.6070  177.9240  142.4840 C   0  0  0  0  0  0  0  0  0  0  0  0
  187.6250  177.6380  144.6710 C   0  0  0  0  0  3  0  0  0  0  0  0
  187.8850  177.9560  141.9070 C   0  0  0  0  0  3  0  0  0  0  0  0
  184.1370  177.9160  142.2030 O   0  0  0  0  0  1  0  0  0  0  0  0
  185.4030  178.0540  141.6430 C   0  0  0  0  0  0  0  0  0  0  0  0
  185.5100  178.2920  140.4100 O   0  0  0  0  0  0  0  0  0  0  0  0
  1 21  1  0  0  0  0
  2  1  1  0  0  0  0
  3  6  1  0  0  0  0
  4  5  1  0  0  0  0
  5  6  1  0  0  0  0
  6  2  1  1  0  0  0
  7  3  1  0  0  0  0
  8  7  1  0  0  0  0
  8  4  1  0  0  0  0
  9  8  1  0  0  0  0
 10  9  1  0  0  0  0
 11 13  1  0  0  0  0
 12 13  2  0  0  0  0
 13 10  1  0  0  0  0
 14 11  1  0  0  0  0
 16 14  1  1  0  0  0
 16 15  1  0  0  0  0
 17 15  1  0  0  0  0
 18 16  1  0  0  0  0
 19 18  1  0  0  0  0
 19 20  1  0  0  0  0
 20 17  1  0  0  0  0
 21 22  1  1  0  0  0
 21 29  1  0  0  0  0
 23 22  1  1  0  0  0
 24 23  1  0  0  0  0
 25 27  1  0  0  0  0
 27 23  1  0  0  0  0
 28 26  1  6  0  0  0
 28 25  1  0  0  0  0
 28 24  1  0  0  0  0
 30 29  1  0  0  0  0
 31 30  1  0  0  0  0
 32 36  1  0  0  0  0
 33 34  1  0  0  0  0
 34 36  2  0  0  0  0
 34 31  1  0  0  0  0
 35 32  2  0  0  0  0
 37 35  1  0  0  0  0
 37 33  2  0  0  0  0
 39 38  1  0  0  0  0
 39 35  1  0  0  0  0
 40 39  2  0  0  0  0
M  END
>  <MODEL>
7

>  <REMARK>
 VINA RESULT:      -5.9      3.839      7.059
  Name = 
  14 active torsions:
  status: ('A' for Active; 'I' for Inactive)
    1  A    between atoms: N_1  and  C_21
    2  A    between atoms: N_1  and  C_25
    3  A    between atoms: C_3  and  N_12
    4  A    between atoms: C_3  and  N_38
    5  A    between atoms: C_4  and  C_7
    6  A    between atoms: C_4  and  N_17
    7  A    between atoms: C_6  and  C_9
    8  A    between atoms: C_6  and  C_25
    9  A    between atoms: C_14  and  C_31
   10  A    between atoms: N_16  and  C_23
   11  A    between atoms: N_16  and  C_36
   12  A    between atoms: C_21  and  C_22
   13  A    between atoms: C_25  and  N_34
   14  A    between atoms: N_34  and  C_36
                            x       y       z     vdW  Elec       q    Type
                         _______ _______ _______ _____ _____    ______ ____

>  <TORSDO>
F 14

$$$$
=
 OpenBabel11042419273D

 40 43  0  0  1  0  0  0  0  0999 V2000
  188.7330  174.5150  143.1610 N   0  0  0  0  0  2  0  0  0  0  0  0
  189.7700  173.4990  143.2170 C   0  0  0  0  0  2  0  0  0  0  0  0
  190.9190  175.6050  143.9360 C   0  0  0  0  0  2  0  0  0  0  0  0
  192.9280  174.0630  145.2960 C   0  0  0  0  0  2  0  0  0  0  0  0
  191.6370  173.3890  144.8410 C   0  0  0  0  0  2  0  0  0  0  0  0
  191.0930  174.1190  143.6210 C   0  0  1  0  0  3  0  0  0  0  0  0
  192.2400  176.1770  144.4520 C   0  0  0  0  0  2  0  0  0  0  0  0
  192.6680  175.4590  145.6550 N   0  0  0  0  0  0  0  0  0  0  0  0
  193.9460  176.0300  146.0490 C   0  0  0  0  0  2  0  0  0  0  0  0
  194.5880  176.6340  144.8930 N   0  0  0  0  0  2  0  0  0  0  0  0
  196.3640  174.9090  144.8600 N   0  0  0  0  0  2  0  0  0  0  0  0
  196.1910  176.5680  143.1800 N   0  0  0  0  0  2  0  0  0  0  0  0
  195.7120  176.0330  144.2560 C   0  0  0  0  0  0  0  0  0  0  0  0
  197.5860  174.3110  144.3360 C   0  0  0  0  0  2  0  0  0  0  0  0
  197.0210  172.1080  143.4530 N   0  0  0  0  0  2  0  0  0  0  0  0
  197.6090  172.8100  144.5960 C   0  0  2  0  0  3  0  0  0  0  0  0
  197.0810  170.6700  143.7210 C   0  0  0  0  0  2  0  0  0  0  0  0
  196.8310  172.4800  145.8710 C   0  0  0  0  0  2  0  0  0  0  0  0
  196.7800  170.9640  146.0490 C   0  0  0  0  0  2  0  0  0  0  0  0
  196.2160  170.3400  144.8530 N   0  0  0  0  0  2  0  0  0  0  0  0
  188.1380  174.4390  141.8350 C   0  0  2  0  0  3  0  0  0  0  0  0
  188.7780  173.3080  141.0430 C   0  0  0  0  0  2  0  0  0  0  0  0
  189.3710  173.8160  139.7350 C   0  0  2  0  0  3  0  0  0  0  0  0
  188.6660  173.2030  138.5530 C   0  0  0  0  0  2  0  0  0  0  0  0
  191.0290  173.2070  138.2750 N   0  0  0  0  0  2  0  0  0  0  0  0
  189.6390  173.3070  136.2850 C   0  0  0  0  0  1  0  0  0  0  0  0
  190.7640  173.4140  139.6400 N   0  0  0  0  0  2  0  0  0  0  0  0
  189.7920  172.7280  137.6770 C   0  0  2  0  0  3  0  0  0  0  0  0
  188.3590  175.6990  141.1380 N   0  0  0  0  0  2  0  0  0  0  0  0
  187.1520  176.5080  141.2680 C   0  0  0  0  0  2  0  0  0  0  0  0
  187.4430  177.7570  141.9650 N   0  0  0  0  0  2  0  0  0  0  0  0
  187.0160  177.7460  145.6680 C   0  0  0  0  0  3  0  0  0  0  0  0
  185.9540  179.0640  143.4450 C   0  0  0  0  0  3  0  0  0  0  0  0
  186.9470  178.0870  143.2670 C   0  0  0  0  0  0  0  0  0  0  0  0
  186.0220  178.7200  145.8470 C   0  0  0  0  0  0  0  0  0  0  0  0
  187.4750  177.4330  144.3850 C   0  0  0  0  0  3  0  0  0  0  0  0
  185.4960  179.3770  144.7260 C   0  0  0  0  0  3  0  0  0  0  0  0
  186.2570  179.9150  148.0140 O   0  0  0  0  0  1  0  0  0  0  0  0
  185.5380  179.0450  147.2000 C   0  0  0  0  0  0  0  0  0  0  0  0
  184.4670  178.5390  147.6330 O   0  0  0  0  0  0  0  0  0  0  0  0
  1  2  1  0  0  0  0
  3  7  1  0  0  0  0
  4  8  1  0  0  0  0
  5  4  1  0  0  0  0
  6  2  1  1  0  0  0
  6  3  1  0  0  0  0
  6  5  1  0  0  0  0
  7  8  1  0  0  0  0
  8  9  1  0  0  0  0
 10  9  1  0  0  0  0
 12 13  2  0  0  0  0
 13 11  1  0  0  0  0
 13 10  1  0  0  0  0
 14 11  1  0  0  0  0
 15 17  1  0  0  0  0
 15 16  1  0  0  0  0
 16 14  1  6  0  0  0
 16 18  1  0  0  0  0
 17 20  1  0  0  0  0
 18 19  1  0  0  0  0
 20 19  1  0  0  0  0
 21 22  1  6  0  0  0
 21  1  1  0  0  0  0
 23 22  1  1  0  0  0
 24 23  1  0  0  0  0
 25 27  1  0  0  0  0
 27 23  1  0  0  0  0
 28 26  1  6  0  0  0
 28 25  1  0  0  0  0
 28 24  1  0  0  0  0
 29 30  1  0  0  0  0
 29 21  1  0  0  0  0
 30 31  1  0  0  0  0
 31 34  1  0  0  0  0
 32 35  1  0  0  0  0
 33 37  1  0  0  0  0
 34 33  2  0  0  0  0
 34 36  1  0  0  0  0
 35 39  1  0  0  0  0
 36 32  2  0  0  0  0
 37 35  2  0  0  0  0
 39 40  2  0  0  0  0
 39 38  1  0  0  0  0
M  END
>  <MODEL>
8

>  <REMARK>
 VINA RESULT:      -5.8      2.396      9.001
  Name = 
  14 active torsions:
  status: ('A' for Active; 'I' for Inactive)
    1  A    between atoms: N_1  and  C_21
    2  A    between atoms: N_1  and  C_25
    3  A    between atoms: C_3  and  N_12
    4  A    between atoms: C_3  and  N_38
    5  A    between atoms: C_4  and  C_7
    6  A    between atoms: C_4  and  N_17
    7  A    between atoms: C_6  and  C_9
    8  A    between atoms: C_6  and  C_25
    9  A    between atoms: C_14  and  C_31
   10  A    between atoms: N_16  and  C_23
   11  A    between atoms: N_16  and  C_36
   12  A    between atoms: C_21  and  C_22
   13  A    between atoms: C_25  and  N_34
   14  A    between atoms: N_34  and  C_36
                            x       y       z     vdW  Elec       q    Type
                         _______ _______ _______ _____ _____    ______ ____

>  <TORSDO>
F 14

$$$$
=
 OpenBabel11042419273D

 40 43  0  0  1  0  0  0  0  0999 V2000
  194.8960  172.6940  142.3620 N   0  0  0  0  0  2  0  0  0  0  0  0
  194.0050  172.5250  143.4970 C   0  0  0  0  0  2  0  0  0  0  0  0
  191.6570  173.0250  144.2110 C   0  0  0  0  0  2  0  0  0  0  0  0
  190.9790  173.7690  141.5190 C   0  0  0  0  0  2  0  0  0  0  0  0
  192.4450  173.6240  141.9170 C   0  0  0  0  0  2  0  0  0  0  0  0
  192.5590  172.6110  143.0480 C   0  0  1  0  0  3  0  0  0  0  0  0
  190.2270  173.2190  143.7070 C   0  0  0  0  0  2  0  0  0  0  0  0
  190.1920  174.2440  142.6600 N   0  0  0  0  0  0  0  0  0  0  0  0
  188.8150  174.3290  142.2050 C   0  0  0  0  0  2  0  0  0  0  0  0
  188.6510  175.5010  141.3600 N   0  0  0  0  0  2  0  0  0  0  0  0
  186.6840  176.2730  142.6520 N   0  0  0  0  0  2  0  0  0  0  0  0
  187.6250  177.5620  140.9040 N   0  0  0  0  0  2  0  0  0  0  0  0
  187.6700  176.4980  141.6370 C   0  0  0  0  0  0  0  0  0  0  0  0
  185.5810  177.1880  142.9180 C   0  0  0  0  0  2  0  0  0  0  0  0
  185.9150  176.6950  145.2830 N   0  0  0  0  0  2  0  0  0  0  0  0
  185.6880  177.7740  144.3190 C   0  0  2  0  0  3  0  0  0  0  0  0
  186.0380  177.2900  146.6140 C   0  0  0  0  0  2  0  0  0  0  0  0
  184.4100  178.5360  144.6750 C   0  0  0  0  0  2  0  0  0  0  0  0
  184.5010  179.0200  146.1210 C   0  0  0  0  0  2  0  0  0  0  0  0
  184.7640  177.8890  147.0100 N   0  0  0  0  0  2  0  0  0  0  0  0
  196.0890  173.3650  142.8570 C   0  0  2  0  0  3  0  0  0  0  0  0
  197.3290  172.5820  142.4540 C   0  0  0  0  0  2  0  0  0  0  0  0
  197.8510  173.0330  141.0970 C   0  0  2  0  0  3  0  0  0  0  0  0
  197.6180  174.5080  140.8960 C   0  0  0  0  0  2  0  0  0  0  0  0
  197.0540  173.2470  138.9580 N   0  0  0  0  0  2  0  0  0  0  0  0
  197.7940  175.5420  138.6590 C   0  0  0  0  0  1  0  0  0  0  0  0
  197.1230  172.3520  140.0400 N   0  0  0  0  0  2  0  0  0  0  0  0
  197.0010  174.5850  139.5260 C   0  0  2  0  0  3  0  0  0  0  0  0
  196.0230  173.4470  144.3100 N   0  0  0  0  0  2  0  0  0  0  0  0
  196.6760  174.6830  144.7260 C   0  0  0  0  0  2  0  0  0  0  0  0
  195.8580  175.8400  144.3740 N   0  0  0  0  0  2  0  0  0  0  0  0
  192.2190  176.6460  144.3160 C   0  0  0  0  0  3  0  0  0  0  0  0
  194.1500  175.8230  146.1610 C   0  0  0  0  0  3  0  0  0  0  0  0
  194.5140  176.0430  144.8230 C   0  0  0  0  0  0  0  0  0  0  0  0
  191.8550  176.4290  145.6530 C   0  0  0  0  0  0  0  0  0  0  0  0
  193.5420  176.4540  143.9050 C   0  0  0  0  0  3  0  0  0  0  0  0
  192.8290  176.0150  146.5710 C   0  0  0  0  0  3  0  0  0  0  0  0
  189.4120  176.4500  145.1880 O   0  0  0  0  0  0  0  0  0  0  0  0
  190.4600  176.6370  146.0840 C   0  0  0  0  0  0  0  0  0  0  0  0
  190.2050  176.9840  147.2680 O   0  0  0  0  0  1  0  0  0  0  0  0
  1 21  1  0  0  0  0
  1  2  1  0  0  0  0
  4  5  1  0  0  0  0
  4  8  1  0  0  0  0
  5  6  1  0  0  0  0
  6  2  1  1  0  0  0
  6  3  1  0  0  0  0
  7  3  1  0  0  0  0
  8  7  1  0  0  0  0
  9  8  1  0  0  0  0
 10 13  1  0  0  0  0
 10  9  1  0  0  0  0
 11 14  1  0  0  0  0
 12 13  2  0  0  0  0
 13 11  1  0  0  0  0
 15 17  1  0  0  0  0
 16 14  1  6  0  0  0
 16 18  1  0  0  0  0
 16 15  1  0  0  0  0
 17 20  1  0  0  0  0
 18 19  1  0  0  0  0
 19 20  1  0  0  0  0
 21 22  1  1  0  0  0
 21 29  1  0  0  0  0
 23 22  1  1  0  0  0
 24 23  1  0  0  0  0
 25 28  1  0  0  0  0
 25 27  1  0  0  0  0
 27 23  1  0  0  0  0
 28 26  1  6  0  0  0
 28 24  1  0  0  0  0
 29 30  1  0  0  0  0
 31 30  1  0  0  0  0
 31 34  1  0  0  0  0
 32 35  1  0  0  0  0
 33 37  1  0  0  0  0
 34 33  2  0  0  0  0
 35 39  1  0  0  0  0
 35 37  2  0  0  0  0
 36 32  2  0  0  0  0
 36 34  1  0  0  0  0
 38 39  2  0  0  0  0
 39 40  1  0  0  0  0
M  END
>  <MODEL>
9

>  <REMARK>
 VINA RESULT:      -5.8      2.196      3.666
  Name = 
  14 active torsions:
  status: ('A' for Active; 'I' for Inactive)
    1  A    between atoms: N_1  and  C_21
    2  A    between atoms: N_1  and  C_25
    3  A    between atoms: C_3  and  N_12
    4  A    between atoms: C_3  and  N_38
    5  A    between atoms: C_4  and  C_7
    6  A    between atoms: C_4  and  N_17
    7  A    between atoms: C_6  and  C_9
    8  A    between atoms: C_6  and  C_25
    9  A    between atoms: C_14  and  C_31
   10  A    between atoms: N_16  and  C_23
   11  A    between atoms: N_16  and  C_36
   12  A    between atoms: C_21  and  C_22
   13  A    between atoms: C_25  and  N_34
   14  A    between atoms: N_34  and  C_36
                            x       y       z     vdW  Elec       q    Type
                         _______ _______ _______ _____ _____    ______ ____

>  <TORSDO>
F 14

$$$$
