=
 OpenBabel11042413433D

 58 61  0  0  1  0  0  0  0  0999 V2000
  189.6760  175.9600  147.0440 C   0  0  0  0  0  3  0  0  0  0  0  0
  190.7570  176.7260  147.0050 C   0  0  0  0  0  2  0  0  0  0  0  0
  191.9620  176.5760  146.1590 C   0  0  0  0  0  3  0  0  0  0  0  0
  190.3690  173.9630  145.4200 C   0  0  0  0  0  0  0  0  0  0  0  0
  189.3310  174.7830  146.1300 C   0  0  0  0  0  3  0  0  0  0  0  0
  191.5730  174.3650  145.0250 C   0  0  0  0  0  3  0  0  0  0  0  0
  192.3820  175.5840  145.3470 C   0  0  0  0  0  0  0  0  0  0  0  0
  193.8090  175.5330  144.6930 C   0  0  0  0  0  2  0  0  0  0  0  0
  194.6680  174.2480  144.8210 C   0  0  2  0  0  3  0  0  0  0  0  0
  195.7600  174.4920  145.8780 C   0  0  0  0  0  1  0  0  0  0  0  0
  195.2460  173.8600  143.4350 C   0  0  0  0  0  2  0  0  0  0  0  0
  196.7140  173.9740  143.4030 N   0  0  0  0  0  0  0  0  0  0  0  0
  196.3190  175.6690  140.3300 C   0  0  1  0  0  3  0  0  0  0  0  0
  196.6640  177.0360  143.4730 O   0  0  0  0  0  0  0  0  0  0  0  0
  195.7800  176.4940  141.3940 N   0  0  0  0  0  2  0  0  0  0  0  0
  196.5520  176.1990  142.5450 C   0  0  0  0  0  0  0  0  0  0  0  0
  197.2920  174.9090  142.4520 C   0  0  2  0  0  3  0  0  0  0  0  0
  196.9920  174.4800  141.0030 C   0  0  0  0  0  2  0  0  0  0  0  0
  195.2250  175.2970  139.3520 C   0  0  0  0  0  2  0  0  0  0  0  0
  195.6300  175.0210  137.9140 N   0  0  0  0  0  2  0  0  0  0  0  0
  195.0660  175.3790  136.6270 C   0  0  0  0  0  0  0  0  0  0  0  0
  195.7880  175.1220  135.3450 N   0  0  0  0  0  1  0  0  0  0  0  0
  193.9540  175.8640  136.5100 O   0  0  0  0  0  0  0  0  0  0  0  0
  197.3240  172.6460  143.2530 C   0  0  0  0  0  2  0  0  0  0  0  0
  196.5580  171.4050  143.6770 C   0  0  0  0  0  2  0  0  0  0  0  0
  196.8610  170.3610  142.5750 C   0  0  0  0  0  2  0  0  0  0  0  0
  195.7620  169.4650  141.9450 C   0  0  2  0  0  0  0  0  0  0  0  0
  194.8010  168.9380  142.9890 C   0  0  0  0  0  1  0  0  0  0  0  0
  196.4090  168.2350  141.3240 C   0  0  0  0  0  2  0  0  0  0  0  0
  197.5970  168.6570  140.6170 N   0  0  0  0  0  1  0  0  0  0  0  0
  195.7620  171.3480  140.2170 O   0  0  0  0  0  1  0  0  0  0  0  0
  195.0050  170.4150  140.9660 C   0  0  0  0  0  2  0  0  0  0  0  0
  190.0890  172.5120  145.0640 C   0  0  0  0  0  2  0  0  0  0  0  0
  190.8050  171.4860  142.8870 C   0  0  0  0  0  0  0  0  0  0  0  0
  189.8480  172.1010  143.6070 C   0  0  0  0  0  3  0  0  0  0  0  0
  192.1630  171.3200  143.4370 C   0  0  0  0  0  1  0  0  0  0  0  0
  190.6790  171.0450  141.4720 C   0  0  0  0  0  3  0  0  0  0  0  0
  190.0290  171.6590  140.4770 C   0  0  0  0  0  0  0  0  0  0  0  0
  190.2830  170.9710  139.1230 C   0  0  0  0  0  1  0  0  0  0  0  0
  188.2120  173.7900  139.9170 C   0  0  1  0  0  3  0  0  0  0  0  0
  189.2240  173.1820  139.1090 O   0  0  0  0  0  0  0  0  0  0  0  0
  189.4260  173.0310  140.4370 C   0  0  2  0  0  3  0  0  0  0  0  0
  188.5810  175.1520  140.2460 N   0  0  0  0  0  2  0  0  0  0  0  0
  187.6680  174.4600  142.3940 C   0  0  0  0  0  1  0  0  0  0  0  0
  188.3400  175.5510  141.6070 C   0  0  2  0  0  3  0  0  0  0  0  0
  186.0600  176.5790  142.2480 N   0  0  0  0  0  2  0  0  0  0  0  0
  187.4250  176.6950  141.7140 C   0  0  0  0  0  0  0  0  0  0  0  0
  187.8420  177.8770  141.4210 O   0  0  0  0  0  0  0  0  0  0  0  0
  185.1680  177.7130  142.3790 C   0  0  1  0  0  3  0  0  0  0  0  0
  185.9190  179.8020  143.5580 O   0  0  0  0  0  1  0  0  0  0  0  0
  185.6140  179.1820  146.1750 N   0  0  0  0  0  1  0  0  0  0  0  0
  185.4380  177.0880  145.0360 S   0  0  0  0  0  0  0  0  0  0  0  0
  185.3000  178.5300  143.7730 C   0  0  2  0  0  0  0  0  0  0  0  0
  184.7190  178.6490  145.1530 C   0  0  2  0  0  3  0  0  0  0  0  0
  184.3540  178.0510  141.2990 O   0  0  0  0  0  0  0  0  0  0  0  0
  182.7600  178.5070  141.9030 S   0  0  0  0  0  0  0  0  0  0  0  0
  180.6670  177.8530  140.7840 N   0  0  0  0  0  1  0  0  0  0  0  0
  182.0500  178.1280  140.3740 C   0  0  0  0  0  2  0  0  0  0  0  0
  2  1  1  0  0  0  0
  3  2  1  0  0  0  0
  4  5  1  0  0  0  0
  5  1  2  0  0  0  0
  6  7  1  0  0  0  0
  6  4  2  0  0  0  0
  7  3  2  0  0  0  0
  8  9  1  0  0  0  0
  8  7  1  0  0  0  0
  9 10  1  1  0  0  0
 11  9  1  0  0  0  0
 12 11  1  0  0  0  0
 13 19  1  6  0  0  0
 13 18  1  0  0  0  0
 13 15  1  0  0  0  0
 15 16  1  0  0  0  0
 16 14  2  0  0  0  0
 17 16  1  0  0  0  0
 17 12  1  1  0  0  0
 18 17  1  0  0  0  0
 20 19  1  0  0  0  0
 21 20  1  0  0  0  0
 22 21  1  0  0  0  0
 23 21  2  0  0  0  0
 24 12  1  0  0  0  0
 24 25  1  0  0  0  0
 26 25  1  0  0  0  0
 27 26  1  0  0  0  0
 27 28  1  1  0  0  0
 29 27  1  0  0  0  0
 30 29  1  0  0  0  0
 31 32  1  0  0  0  0
 32 27  1  0  0  0  0
 33  4  1  0  0  0  0
 34 36  1  0  0  0  0
 34 35  2  0  0  0  0
 35 33  1  0  0  0  0
 37 34  1  0  0  0  0
 38 37  2  0  0  0  0
 39 38  1  0  0  0  0
 40 43  1  1  0  0  0
 40 42  1  0  0  0  0
 41 40  1  0  0  0  0
 41 42  1  0  0  0  0
 42 38  1  6  0  0  0
 43 45  1  0  0  0  0
 45 47  1  0  0  0  0
 45 44  1  1  0  0  0
 46 49  1  0  0  0  0
 47 46  1  0  0  0  0
 48 47  2  0  0  0  0
 49 55  1  6  0  0  0
 49 53  1  0  0  0  0
 52 54  1  0  0  0  0
 53 50  1  6  0  0  0
 53 52  1  0  0  0  0
 53 54  1  0  0  0  0
 54 51  1  1  0  0  0
 55 56  1  0  0  0  0
 58 57  1  0  0  0  0
 58 56  1  0  0  0  0
M  END
>  <MODEL>
1

>  <REMARK>
 VINA RESULT:      -5.5      0.000      0.000
  Name = 
  25 active torsions:
  status: ('A' for Active; 'I' for Inactive)
    1  A    between atoms: C_2  and  C_30
    2  A    between atoms: C_5  and  C_16
    3  A    between atoms: C_7  and  N_17
    4  A    between atoms: C_7  and  C_57
    5  A    between atoms: C_8  and  C_13
    6  A    between atoms: C_8  and  C_35
    7  A    between atoms: C_9  and  C_21
    8  A    between atoms: C_9  and  C_49
    9  A    between atoms: C_10  and  C_14
   10  A    between atoms: C_11  and  N_34
   11  A    between atoms: C_14  and  C_32
   12  A    between atoms: C_14  and  C_39
   13  A    between atoms: N_17  and  C_21
   14  A    between atoms: N_17  and  C_50
   15  A    between atoms: C_19  and  N_34
   16  A    between atoms: C_19  and  C_38
   17  A    between atoms: C_23  and  N_24
   18  A    between atoms: C_23  and  C_36
   19  A    between atoms: C_23  and  O_43
   20  A    between atoms: N_25  and  C_30
   21  A    between atoms: C_27  and  C_40
   22  A    between atoms: C_32  and  C_57
   23  A    between atoms: O_43  and  S_53
   24  A    between atoms: C_46  and  S_53
   25  A    between atoms: C_49  and  C_56
                            x       y       z     vdW  Elec       q    Type
                         _______ _______ _______ _____ _____    ______ ____

>  <TORSDO>
F 25

$$$$
=
 OpenBabel11042413433D

 58 61  0  0  1  0  0  0  0  0999 V2000
  191.9920  168.1660  140.7520 C   0  0  0  0  0  3  0  0  0  0  0  0
  192.9490  168.7970  141.4180 C   0  0  0  0  0  2  0  0  0  0  0  0
  193.5540  170.1170  141.1310 C   0  0  0  0  0  3  0  0  0  0  0  0
  191.6560  169.7620  138.6440 C   0  0  0  0  0  0  0  0  0  0  0  0
  191.1670  168.6940  139.5780 C   0  0  0  0  0  3  0  0  0  0  0  0
  192.5200  170.7350  138.9230 C   0  0  0  0  0  3  0  0  0  0  0  0
  193.4500  170.9520  140.0770 C   0  0  0  0  0  0  0  0  0  0  0  0
  194.3480  172.2250  139.8770 C   0  0  0  0  0  2  0  0  0  0  0  0
  195.8920  172.0810  139.8570 C   0  0  2  0  0  3  0  0  0  0  0  0
  196.2460  170.6700  139.3550 C   0  0  0  0  0  1  0  0  0  0  0  0
  196.4670  172.3830  141.2650 C   0  0  0  0  0  2  0  0  0  0  0  0
  196.9990  173.7530  141.3560 N   0  0  0  0  0  0  0  0  0  0  0  0
  195.3870  174.5960  144.3850 C   0  0  1  0  0  3  0  0  0  0  0  0
  197.9400  176.2840  142.8030 O   0  0  0  0  0  0  0  0  0  0  0  0
  196.7410  175.1140  144.4140 N   0  0  0  0  0  2  0  0  0  0  0  0
  197.0710  175.4200  143.0700 C   0  0  0  0  0  0  0  0  0  0  0  0
  196.1990  174.7350  142.0720 C   0  0  2  0  0  3  0  0  0  0  0  0
  195.1630  174.0480  142.9800 C   0  0  0  0  0  2  0  0  0  0  0  0
  195.1920  173.5810  145.4910 C   0  0  0  0  0  2  0  0  0  0  0  0
  194.3690  172.3450  145.1740 N   0  0  0  0  0  2  0  0  0  0  0  0
  192.9910  172.1330  144.7720 C   0  0  0  0  0  0  0  0  0  0  0  0
  192.4870  170.7950  144.3430 N   0  0  0  0  0  1  0  0  0  0  0  0
  192.1550  173.0190  144.8060 O   0  0  0  0  0  0  0  0  0  0  0  0
  197.3490  174.2530  140.0200 C   0  0  0  0  0  2  0  0  0  0  0  0
  196.4970  175.3230  139.3620 C   0  0  0  0  0  2  0  0  0  0  0  0
  196.8260  175.2140  137.8530 C   0  0  0  0  0  2  0  0  0  0  0  0
  195.7630  174.8270  136.7890 C   0  0  2  0  0  0  0  0  0  0  0  0
  195.8870  173.3760  136.3760 C   0  0  0  0  0  1  0  0  0  0  0  0
  196.0000  175.6370  135.5230 C   0  0  0  0  0  2  0  0  0  0  0  0
  197.3930  176.0240  135.4880 N   0  0  0  0  0  1  0  0  0  0  0  0
  193.4930  175.9890  136.9500 O   0  0  0  0  0  1  0  0  0  0  0  0
  194.3980  175.0530  137.5080 C   0  0  0  0  0  2  0  0  0  0  0  0
  191.1530  169.8190  137.2110 C   0  0  0  0  0  2  0  0  0  0  0  0
  190.7040  172.0030  136.0550 C   0  0  0  0  0  0  0  0  0  0  0  0
  190.2300  170.9560  136.7560 C   0  0  0  0  0  3  0  0  0  0  0  0
  192.1520  172.1560  135.8290 C   0  0  0  0  0  1  0  0  0  0  0  0
  189.9000  173.1550  135.5650 C   0  0  0  0  0  3  0  0  0  0  0  0
  189.1580  174.0020  136.2860 C   0  0  0  0  0  0  0  0  0  0  0  0
  188.6240  175.1630  135.4260 C   0  0  0  0  0  1  0  0  0  0  0  0
  188.9190  173.3690  139.0610 C   0  0  1  0  0  3  0  0  0  0  0  0
  187.9260  173.5120  138.0410 O   0  0  0  0  0  0  0  0  0  0  0  0
  189.0770  174.1690  137.7740 C   0  0  2  0  0  3  0  0  0  0  0  0
  188.8020  174.4360  140.0320 N   0  0  0  0  0  2  0  0  0  0  0  0
  190.5090  173.1290  141.1730 C   0  0  0  0  0  1  0  0  0  0  0  0
  189.8050  174.4530  141.0640 C   0  0  2  0  0  3  0  0  0  0  0  0
  189.2480  175.9960  143.0570 N   0  0  0  0  0  2  0  0  0  0  0  0
  189.2450  174.6800  142.4020 C   0  0  0  0  0  0  0  0  0  0  0  0
  188.6360  173.7230  143.0120 O   0  0  0  0  0  0  0  0  0  0  0  0
  188.6710  176.2250  144.3670 C   0  0  1  0  0  3  0  0  0  0  0  0
  190.8230  177.2370  145.1800 O   0  0  0  0  0  1  0  0  0  0  0  0
  191.2490  175.9810  147.5380 N   0  0  0  0  0  1  0  0  0  0  0  0
  189.5380  174.6960  146.4730 S   0  0  0  0  0  0  0  0  0  0  0  0
  189.7450  176.3800  145.5700 C   0  0  2  0  0  0  0  0  0  0  0  0
  189.9020  176.2740  147.0600 C   0  0  2  0  0  3  0  0  0  0  0  0
  187.2900  176.3720  144.4710 O   0  0  0  0  0  0  0  0  0  0  0  0
  186.9360  177.7740  145.4830 S   0  0  0  0  0  0  0  0  0  0  0  0
  184.8260  178.0350  146.7240 N   0  0  0  0  0  1  0  0  0  0  0  0
  185.2550  177.3740  145.4840 C   0  0  0  0  0  2  0  0  0  0  0  0
  1  2  1  0  0  0  0
  3  2  1  0  0  0  0
  4  6  2  0  0  0  0
  4  5  1  0  0  0  0
  5  1  2  0  0  0  0
  6  7  1  0  0  0  0
  7  3  2  0  0  0  0
  8  7  1  0  0  0  0
  9 10  1  1  0  0  0
  9  8  1  0  0  0  0
  9 11  1  0  0  0  0
 11 12  1  0  0  0  0
 13 15  1  0  0  0  0
 13 19  1  1  0  0  0
 14 16  2  0  0  0  0
 16 15  1  0  0  0  0
 17 12  1  1  0  0  0
 17 18  1  0  0  0  0
 17 16  1  0  0  0  0
 18 13  1  0  0  0  0
 20 19  1  0  0  0  0
 21 23  2  0  0  0  0
 21 20  1  0  0  0  0
 22 21  1  0  0  0  0
 24 12  1  0  0  0  0
 25 24  1  0  0  0  0
 26 25  1  0  0  0  0
 27 28  1  6  0  0  0
 27 32  1  0  0  0  0
 27 26  1  0  0  0  0
 29 27  1  0  0  0  0
 30 29  1  0  0  0  0
 31 32  1  0  0  0  0
 33  4  1  0  0  0  0
 34 35  2  0  0  0  0
 35 33  1  0  0  0  0
 36 34  1  0  0  0  0
 37 34  1  0  0  0  0
 37 38  2  0  0  0  0
 39 38  1  0  0  0  0
 40 43  1  1  0  0  0
 41 40  1  0  0  0  0
 42 38  1  6  0  0  0
 42 41  1  0  0  0  0
 42 40  1  0  0  0  0
 43 45  1  0  0  0  0
 45 44  1  1  0  0  0
 45 47  1  0  0  0  0
 47 48  2  0  0  0  0
 47 46  1  0  0  0  0
 49 46  1  6  0  0  0
 49 55  1  0  0  0  0
 49 53  1  0  0  0  0
 52 54  1  0  0  0  0
 53 50  1  6  0  0  0
 53 52  1  0  0  0  0
 53 54  1  0  0  0  0
 54 51  1  6  0  0  0
 55 56  1  0  0  0  0
 56 58  1  0  0  0  0
 58 57  1  0  0  0  0
M  END
>  <MODEL>
2

>  <REMARK>
 VINA RESULT:      -5.5      2.723      6.222
  Name = 
  25 active torsions:
  status: ('A' for Active; 'I' for Inactive)
    1  A    between atoms: C_2  and  C_30
    2  A    between atoms: C_5  and  C_16
    3  A    between atoms: C_7  and  N_17
    4  A    between atoms: C_7  and  C_57
    5  A    between atoms: C_8  and  C_13
    6  A    between atoms: C_8  and  C_35
    7  A    between atoms: C_9  and  C_21
    8  A    between atoms: C_9  and  C_49
    9  A    between atoms: C_10  and  C_14
   10  A    between atoms: C_11  and  N_34
   11  A    between atoms: C_14  and  C_32
   12  A    between atoms: C_14  and  C_39
   13  A    between atoms: N_17  and  C_21
   14  A    between atoms: N_17  and  C_50
   15  A    between atoms: C_19  and  N_34
   16  A    between atoms: C_19  and  C_38
   17  A    between atoms: C_23  and  N_24
   18  A    between atoms: C_23  and  C_36
   19  A    between atoms: C_23  and  O_43
   20  A    between atoms: N_25  and  C_30
   21  A    between atoms: C_27  and  C_40
   22  A    between atoms: C_32  and  C_57
   23  A    between atoms: O_43  and  S_53
   24  A    between atoms: C_46  and  S_53
   25  A    between atoms: C_49  and  C_56
                            x       y       z     vdW  Elec       q    Type
                         _______ _______ _______ _____ _____    ______ ____

>  <TORSDO>
F 25

$$$$
=
 OpenBabel11042413433D

 58 61  0  0  1  0  0  0  0  0999 V2000
  190.8390  176.2670  142.7810 C   0  0  0  0  0  3  0  0  0  0  0  0
  191.5880  175.3720  142.1530 C   0  0  0  0  0  3  0  0  0  0  0  0
  191.1940  174.4320  141.0790 C   0  0  0  0  0  3  0  0  0  0  0  0
  188.4190  175.7310  141.8020 C   0  0  0  0  0  0  0  0  0  0  0  0
  189.3920  176.6550  142.4750 C   0  0  0  0  0  2  0  0  0  0  0  0
  188.7040  174.7570  140.9410 C   0  0  0  0  0  3  0  0  0  0  0  0
  189.9940  174.0960  140.5650 C   0  0  0  0  0  0  0  0  0  0  0  0
  189.7740  172.9090  139.5590 C   0  0  0  0  0  2  0  0  0  0  0  0
  190.2860  173.0330  138.1000 C   0  0  2  0  0  3  0  0  0  0  0  0
  189.2060  172.4830  137.1530 C   0  0  0  0  0  1  0  0  0  0  0  0
  191.6460  172.3000  137.9560 C   0  0  0  0  0  2  0  0  0  0  0  0
  192.0780  172.2210  136.5500 N   0  0  0  0  0  0  0  0  0  0  0  0
  192.4530  168.7670  137.1920 C   0  0  1  0  0  3  0  0  0  0  0  0
  190.8870  170.2670  134.5140 O   0  0  0  0  0  0  0  0  0  0  0  0
  191.2490  168.9720  136.4090 N   0  0  0  0  0  2  0  0  0  0  0  0
  191.4990  170.1060  135.5970 C   0  0  0  0  0  0  0  0  0  0  0  0
  192.6230  170.9550  136.0890 C   0  0  2  0  0  3  0  0  0  0  0  0
  193.1540  170.1180  137.2670 C   0  0  0  0  0  2  0  0  0  0  0  0
  192.1060  168.1670  138.5370 C   0  0  0  0  0  2  0  0  0  0  0  0
  193.1840  168.1660  139.6070 N   0  0  0  0  0  2  0  0  0  0  0  0
  193.6000  169.1250  140.6120 C   0  0  0  0  0  0  0  0  0  0  0  0
  194.5930  168.7810  141.6730 N   0  0  0  0  0  1  0  0  0  0  0  0
  193.2030  170.2770  140.6230 O   0  0  0  0  0  0  0  0  0  0  0  0
  193.0020  173.3200  136.2390 C   0  0  0  0  0  2  0  0  0  0  0  0
  193.7100  174.0580  137.3600 C   0  0  0  0  0  2  0  0  0  0  0  0
  195.1620  173.5230  137.3270 C   0  0  0  0  0  2  0  0  0  0  0  0
  196.2880  174.0980  138.2280 C   0  0  2  0  0  0  0  0  0  0  0  0
  195.8110  175.2910  139.0280 C   0  0  0  0  0  1  0  0  0  0  0  0
  197.4190  174.6170  137.3520 C   0  0  0  0  0  2  0  0  0  0  0  0
  196.9370  175.7730  136.6280 N   0  0  0  0  0  1  0  0  0  0  0  0
  196.0000  172.8770  140.4540 O   0  0  0  0  0  1  0  0  0  0  0  0
  196.6450  172.9260  139.1940 C   0  0  0  0  0  2  0  0  0  0  0  0
  186.9270  175.8620  142.0650 C   0  0  0  0  0  2  0  0  0  0  0  0
  186.0340  177.5150  143.7310 C   0  0  0  0  0  0  0  0  0  0  0  0
  186.4150  176.2540  143.4560 C   0  0  0  0  0  3  0  0  0  0  0  0
  186.2360  178.5890  142.7410 C   0  0  0  0  0  1  0  0  0  0  0  0
  185.5230  178.0020  145.0400 C   0  0  0  0  0  3  0  0  0  0  0  0
  186.1600  178.0120  146.2160 C   0  0  0  0  0  0  0  0  0  0  0  0
  185.3520  178.7580  147.2940 C   0  0  0  0  0  1  0  0  0  0  0  0
  188.6790  176.6720  146.3490 C   0  0  1  0  0  3  0  0  0  0  0  0
  187.5040  176.5450  147.1560 O   0  0  0  0  0  0  0  0  0  0  0  0
  187.6020  177.7350  146.5210 C   0  0  2  0  0  3  0  0  0  0  0  0
  189.7600  177.2510  147.1190 N   0  0  0  0  0  2  0  0  0  0  0  0
  191.5920  176.9110  148.6850 C   0  0  0  0  0  1  0  0  0  0  0  0
  190.7690  176.3300  147.5690 C   0  0  2  0  0  3  0  0  0  0  0  0
  192.1910  174.6270  146.2490 N   0  0  0  0  0  2  0  0  0  0  0  0
  191.7490  176.0010  146.5260 C   0  0  0  0  0  0  0  0  0  0  0  0
  192.1860  176.9260  145.7440 O   0  0  0  0  0  0  0  0  0  0  0  0
  193.1370  174.3000  145.2010 C   0  0  1  0  0  3  0  0  0  0  0  0
  191.7110  172.5640  144.0760 O   0  0  0  0  0  1  0  0  0  0  0  0
  193.2210  170.3230  144.2320 N   0  0  0  0  0  1  0  0  0  0  0  0
  194.2640  171.8580  145.7390 S   0  0  0  0  0  0  0  0  0  0  0  0
  193.0160  172.7940  144.6160 C   0  0  2  0  0  0  0  0  0  0  0  0
  193.8250  171.6440  144.0870 C   0  0  2  0  0  3  0  0  0  0  0  0
  193.9910  175.2990  144.7380 O   0  0  0  0  0  0  0  0  0  0  0  0
  195.6390  174.9250  145.2450 S   0  0  0  0  0  0  0  0  0  0  0  0
  195.8400  176.5930  143.4460 N   0  0  0  0  0  1  0  0  0  0  0  0
  196.2150  175.1860  143.6370 C   0  0  0  0  0  2  0  0  0  0  0  0
  2  1  2  0  0  0  0
  3  2  1  0  0  0  0
  4 33  1  0  0  0  0
  4  5  1  0  0  0  0
  5  1  1  0  0  0  0
  6  4  2  0  0  0  0
  7  6  1  0  0  0  0
  7  3  2  0  0  0  0
  8  7  1  0  0  0  0
  9 10  1  6  0  0  0
  9  8  1  0  0  0  0
 11  9  1  0  0  0  0
 12 11  1  0  0  0  0
 13 18  1  0  0  0  0
 13 19  1  1  0  0  0
 14 16  2  0  0  0  0
 15 13  1  0  0  0  0
 16 17  1  0  0  0  0
 16 15  1  0  0  0  0
 17 12  1  1  0  0  0
 17 18  1  0  0  0  0
 19 20  1  0  0  0  0
 20 21  1  0  0  0  0
 21 23  2  0  0  0  0
 21 22  1  0  0  0  0
 24 12  1  0  0  0  0
 24 25  1  0  0  0  0
 26 25  1  0  0  0  0
 26 27  1  0  0  0  0
 27 28  1  1  0  0  0
 27 32  1  0  0  0  0
 29 27  1  0  0  0  0
 30 29  1  0  0  0  0
 32 31  1  0  0  0  0
 33 35  1  0  0  0  0
 34 37  1  0  0  0  0
 35 34  2  0  0  0  0
 36 34  1  0  0  0  0
 37 38  2  0  0  0  0
 38 39  1  0  0  0  0
 40 42  1  0  0  0  0
 40 43  1  1  0  0  0
 40 41  1  0  0  0  0
 42 38  1  6  0  0  0
 42 41  1  0  0  0  0
 43 45  1  0  0  0  0
 45 44  1  1  0  0  0
 46 47  1  0  0  0  0
 47 45  1  0  0  0  0
 48 47  2  0  0  0  0
 49 55  1  6  0  0  0
 49 46  1  0  0  0  0
 53 50  1  1  0  0  0
 53 49  1  0  0  0  0
 53 52  1  0  0  0  0
 54 51  1  1  0  0  0
 54 53  1  0  0  0  0
 54 52  1  0  0  0  0
 55 56  1  0  0  0  0
 57 58  1  0  0  0  0
 58 56  1  0  0  0  0
M  END
>  <MODEL>
3

>  <REMARK>
 VINA RESULT:      -5.4      3.952      8.529
  Name = 
  25 active torsions:
  status: ('A' for Active; 'I' for Inactive)
    1  A    between atoms: C_2  and  C_30
    2  A    between atoms: C_5  and  C_16
    3  A    between atoms: C_7  and  N_17
    4  A    between atoms: C_7  and  C_57
    5  A    between atoms: C_8  and  C_13
    6  A    between atoms: C_8  and  C_35
    7  A    between atoms: C_9  and  C_21
    8  A    between atoms: C_9  and  C_49
    9  A    between atoms: C_10  and  C_14
   10  A    between atoms: C_11  and  N_34
   11  A    between atoms: C_14  and  C_32
   12  A    between atoms: C_14  and  C_39
   13  A    between atoms: N_17  and  C_21
   14  A    between atoms: N_17  and  C_50
   15  A    between atoms: C_19  and  N_34
   16  A    between atoms: C_19  and  C_38
   17  A    between atoms: C_23  and  N_24
   18  A    between atoms: C_23  and  C_36
   19  A    between atoms: C_23  and  O_43
   20  A    between atoms: N_25  and  C_30
   21  A    between atoms: C_27  and  C_40
   22  A    between atoms: C_32  and  C_57
   23  A    between atoms: O_43  and  S_53
   24  A    between atoms: C_46  and  S_53
   25  A    between atoms: C_49  and  C_56
                            x       y       z     vdW  Elec       q    Type
                         _______ _______ _______ _____ _____    ______ ____

>  <TORSDO>
F 25

$$$$
=
 OpenBabel11042413433D

 58 61  0  0  1  0  0  0  0  0999 V2000
  190.6100  176.4390  142.6470 C   0  0  0  0  0  3  0  0  0  0  0  0
  191.3580  175.4460  142.1850 C   0  0  0  0  0  3  0  0  0  0  0  0
  190.9820  174.3750  141.2360 C   0  0  0  0  0  3  0  0  0  0  0  0
  188.2190  175.8300  141.6380 C   0  0  0  0  0  0  0  0  0  0  0  0
  189.1900  176.8150  142.2210 C   0  0  0  0  0  2  0  0  0  0  0  0
  188.5120  174.7390  140.9360 C   0  0  0  0  0  3  0  0  0  0  0  0
  189.7950  173.9990  140.7170 C   0  0  0  0  0  0  0  0  0  0  0  0
  189.5830  172.6880  139.8770 C   0  0  0  0  0  2  0  0  0  0  0  0
  190.4690  172.4200  138.6330 C   0  0  2  0  0  3  0  0  0  0  0  0
  189.6370  171.6470  137.5950 C   0  0  0  0  0  1  0  0  0  0  0  0
  191.7570  171.6660  139.0580 C   0  0  0  0  0  2  0  0  0  0  0  0
  192.2280  170.7520  138.0030 N   0  0  0  0  0  0  0  0  0  0  0  0
  193.7970  168.5880  140.3130 C   0  0  1  0  0  3  0  0  0  0  0  0
  190.4390  168.8290  139.5810 O   0  0  0  0  0  0  0  0  0  0  0  0
  192.4420  168.8480  140.7590 N   0  0  0  0  0  2  0  0  0  0  0  0
  191.6750  169.0450  139.5840 C   0  0  0  0  0  0  0  0  0  0  0  0
  192.4970  169.3750  138.3840 C   0  0  2  0  0  3  0  0  0  0  0  0
  193.9270  169.2220  138.9340 C   0  0  0  0  0  2  0  0  0  0  0  0
  194.7910  169.1000  141.3330 C   0  0  0  0  0  2  0  0  0  0  0  0
  194.2420  169.8510  142.5340 N   0  0  0  0  0  2  0  0  0  0  0  0
  194.3090  169.6360  143.9670 C   0  0  0  0  0  0  0  0  0  0  0  0
  193.8220  170.6540  144.9450 N   0  0  0  0  0  1  0  0  0  0  0  0
  194.7190  168.5980  144.4570 O   0  0  0  0  0  0  0  0  0  0  0  0
  193.3870  171.3280  137.3100 C   0  0  0  0  0  2  0  0  0  0  0  0
  193.7330  172.7950  137.4970 C   0  0  0  0  0  2  0  0  0  0  0  0
  195.0930  172.7880  138.2350 C   0  0  0  0  0  2  0  0  0  0  0  0
  196.2450  173.7660  137.8790 C   0  0  2  0  0  0  0  0  0  0  0  0
  197.5720  173.0490  137.7590 C   0  0  0  0  0  1  0  0  0  0  0  0
  196.4210  174.7690  139.0100 C   0  0  0  0  0  2  0  0  0  0  0  0
  195.4280  174.4870  140.0230 N   0  0  0  0  0  1  0  0  0  0  0  0
  195.5090  175.7290  136.4160 O   0  0  0  0  0  1  0  0  0  0  0  0
  195.8370  174.3530  136.4920 C   0  0  0  0  0  2  0  0  0  0  0  0
  186.7230  176.0340  141.8090 C   0  0  0  0  0  2  0  0  0  0  0  0
  185.6140  177.5340  143.4900 C   0  0  0  0  0  0  0  0  0  0  0  0
  186.1320  176.3280  143.1930 C   0  0  0  0  0  3  0  0  0  0  0  0
  185.7320  178.6530  142.5370 C   0  0  0  0  0  1  0  0  0  0  0  0
  185.0170  177.9250  144.7950 C   0  0  0  0  0  3  0  0  0  0  0  0
  185.5940  177.9000  146.0010 C   0  0  0  0  0  0  0  0  0  0  0  0
  184.7000  178.5490  147.0740 C   0  0  0  0  0  1  0  0  0  0  0  0
  187.9840  176.5950  146.8660 C   0  0  1  0  0  3  0  0  0  0  0  0
  186.9020  177.1630  147.6100 O   0  0  0  0  0  0  0  0  0  0  0  0
  187.0320  177.6740  146.3650 C   0  0  2  0  0  3  0  0  0  0  0  0
  189.1920  177.3690  147.0630 N   0  0  0  0  0  2  0  0  0  0  0  0
  190.9790  177.9350  148.6150 C   0  0  0  0  0  1  0  0  0  0  0  0
  190.1120  176.8500  148.0390 C   0  0  2  0  0  3  0  0  0  0  0  0
  191.3510  175.7970  146.0340 N   0  0  0  0  0  2  0  0  0  0  0  0
  191.0640  175.8850  147.4730 C   0  0  0  0  0  0  0  0  0  0  0  0
  191.7590  175.1360  148.2570 O   0  0  0  0  0  0  0  0  0  0  0  0
  192.3100  174.8630  145.4790 C   0  0  1  0  0  3  0  0  0  0  0  0
  193.7510  176.9160  145.3100 O   0  0  0  0  0  1  0  0  0  0  0  0
  196.0300  175.9850  144.1870 N   0  0  0  0  0  1  0  0  0  0  0  0
  194.4450  174.2230  143.8790 S   0  0  0  0  0  0  0  0  0  0  0  0
  193.7670  175.4940  145.1520 C   0  0  2  0  0  0  0  0  0  0  0  0
  195.2310  175.1630  145.0900 C   0  0  2  0  0  3  0  0  0  0  0  0
  191.9440  173.5250  145.3520 O   0  0  0  0  0  0  0  0  0  0  0  0
  190.2150  173.4340  145.0080 S   0  0  0  0  0  0  0  0  0  0  0  0
  189.1270  171.8790  143.4400 N   0  0  0  0  0  1  0  0  0  0  0  0
  190.4640  172.0340  144.0260 C   0  0  0  0  0  2  0  0  0  0  0  0
  2  1  2  0  0  0  0
  3  2  1  0  0  0  0
  4 33  1  0  0  0  0
  4  5  1  0  0  0  0
  5  1  1  0  0  0  0
  6  4  2  0  0  0  0
  7  6  1  0  0  0  0
  7  3  2  0  0  0  0
  8  7  1  0  0  0  0
  9 10  1  6  0  0  0
  9 11  1  0  0  0  0
  9  8  1  0  0  0  0
 12 11  1  0  0  0  0
 13 15  1  0  0  0  0
 13 19  1  1  0  0  0
 14 16  2  0  0  0  0
 16 15  1  0  0  0  0
 17 12  1  1  0  0  0
 17 18  1  0  0  0  0
 17 16  1  0  0  0  0
 18 13  1  0  0  0  0
 19 20  1  0  0  0  0
 20 21  1  0  0  0  0
 21 23  2  0  0  0  0
 21 22  1  0  0  0  0
 24 25  1  0  0  0  0
 24 12  1  0  0  0  0
 25 26  1  0  0  0  0
 27 28  1  6  0  0  0
 27 26  1  0  0  0  0
 27 29  1  0  0  0  0
 29 30  1  0  0  0  0
 31 32  1  0  0  0  0
 32 27  1  0  0  0  0
 33 35  1  0  0  0  0
 34 37  1  0  0  0  0
 35 34  2  0  0  0  0
 36 34  1  0  0  0  0
 37 38  2  0  0  0  0
 38 39  1  0  0  0  0
 40 43  1  1  0  0  0
 40 41  1  0  0  0  0
 42 38  1  6  0  0  0
 42 40  1  0  0  0  0
 42 41  1  0  0  0  0
 43 45  1  0  0  0  0
 45 44  1  6  0  0  0
 46 47  1  0  0  0  0
 47 45  1  0  0  0  0
 47 48  2  0  0  0  0
 49 55  1  1  0  0  0
 49 46  1  0  0  0  0
 52 54  1  0  0  0  0
 52 53  1  0  0  0  0
 53 50  1  6  0  0  0
 53 49  1  0  0  0  0
 54 51  1  6  0  0  0
 54 53  1  0  0  0  0
 56 55  1  0  0  0  0
 57 58  1  0  0  0  0
 58 56  1  0  0  0  0
M  END
>  <MODEL>
4

>  <REMARK>
 VINA RESULT:      -5.4      3.419      8.085
  Name = 
  25 active torsions:
  status: ('A' for Active; 'I' for Inactive)
    1  A    between atoms: C_2  and  C_30
    2  A    between atoms: C_5  and  C_16
    3  A    between atoms: C_7  and  N_17
    4  A    between atoms: C_7  and  C_57
    5  A    between atoms: C_8  and  C_13
    6  A    between atoms: C_8  and  C_35
    7  A    between atoms: C_9  and  C_21
    8  A    between atoms: C_9  and  C_49
    9  A    between atoms: C_10  and  C_14
   10  A    between atoms: C_11  and  N_34
   11  A    between atoms: C_14  and  C_32
   12  A    between atoms: C_14  and  C_39
   13  A    between atoms: N_17  and  C_21
   14  A    between atoms: N_17  and  C_50
   15  A    between atoms: C_19  and  N_34
   16  A    between atoms: C_19  and  C_38
   17  A    between atoms: C_23  and  N_24
   18  A    between atoms: C_23  and  C_36
   19  A    between atoms: C_23  and  O_43
   20  A    between atoms: N_25  and  C_30
   21  A    between atoms: C_27  and  C_40
   22  A    between atoms: C_32  and  C_57
   23  A    between atoms: O_43  and  S_53
   24  A    between atoms: C_46  and  S_53
   25  A    between atoms: C_49  and  C_56
                            x       y       z     vdW  Elec       q    Type
                         _______ _______ _______ _____ _____    ______ ____

>  <TORSDO>
F 25

$$$$
=
 OpenBabel11042413433D

 58 61  0  0  1  0  0  0  0  0999 V2000
  192.5900  174.6980  147.1640 C   0  0  0  0  0  3  0  0  0  0  0  0
  191.5160  175.4080  147.4810 C   0  0  0  0  0  2  0  0  0  0  0  0
  190.6980  176.2800  146.6080 C   0  0  0  0  0  3  0  0  0  0  0  0
  193.0280  175.4710  144.6510 C   0  0  0  0  0  0  0  0  0  0  0  0
  193.1970  174.4920  145.7770 C   0  0  0  0  0  3  0  0  0  0  0  0
  192.0060  176.3000  144.4600 C   0  0  0  0  0  3  0  0  0  0  0  0
  190.8800  176.7290  145.3490 C   0  0  0  0  0  0  0  0  0  0  0  0
  189.9820  177.8270  144.6720 C   0  0  0  0  0  2  0  0  0  0  0  0
  189.6050  177.6940  143.1740 C   0  0  2  0  0  3  0  0  0  0  0  0
  190.5110  178.6300  142.3550 C   0  0  0  0  0  1  0  0  0  0  0  0
  188.0950  177.9950  142.9820 C   0  0  0  0  0  2  0  0  0  0  0  0
  187.5210  177.2220  141.8680 N   0  0  0  0  0  0  0  0  0  0  0  0
  184.4200  177.9630  143.3920 C   0  0  1  0  0  3  0  0  0  0  0  0
  185.2980  178.3420  140.0820 O   0  0  0  0  0  0  0  0  0  0  0  0
  184.5990  178.8300  142.2430 N   0  0  0  0  0  2  0  0  0  0  0  0
  185.3630  178.0880  141.3090 C   0  0  0  0  0  0  0  0  0  0  0  0
  186.0950  176.9390  141.9160 C   0  0  2  0  0  3  0  0  0  0  0  0
  185.5730  176.9660  143.3640 C   0  0  0  0  0  2  0  0  0  0  0  0
  184.3340  178.7850  144.6600 C   0  0  0  0  0  2  0  0  0  0  0  0
  185.5200  178.7420  145.6080 N   0  0  0  0  0  2  0  0  0  0  0  0
  185.6550  178.5330  147.0370 C   0  0  0  0  0  0  0  0  0  0  0  0
  186.9860  178.3580  147.6910 N   0  0  0  0  0  1  0  0  0  0  0  0
  184.6990  178.5360  147.7930 O   0  0  0  0  0  0  0  0  0  0  0  0
  188.2820  175.9830  141.6630 C   0  0  0  0  0  2  0  0  0  0  0  0
  187.7960  174.6820  142.2760 C   0  0  0  0  0  2  0  0  0  0  0  0
  188.9330  174.2500  143.2340 C   0  0  0  0  0  2  0  0  0  0  0  0
  189.8500  173.0300  142.9520 C   0  0  2  0  0  0  0  0  0  0  0  0
  191.1080  173.4350  142.2130 C   0  0  0  0  0  1  0  0  0  0  0  0
  189.1270  172.0590  142.0290 C   0  0  0  0  0  2  0  0  0  0  0  0
  190.1180  171.2340  141.3750 N   0  0  0  0  0  1  0  0  0  0  0  0
  191.5030  171.9150  144.5500 O   0  0  0  0  0  1  0  0  0  0  0  0
  190.2220  172.4910  144.3670 C   0  0  0  0  0  2  0  0  0  0  0  0
  194.0840  175.5800  143.5640 C   0  0  0  0  0  2  0  0  0  0  0  0
  195.1890  173.5540  142.5740 C   0  0  0  0  0  0  0  0  0  0  0  0
  195.2190  174.5530  143.4750 C   0  0  0  0  0  3  0  0  0  0  0  0
  193.9920  173.3350  141.7420 C   0  0  0  0  0  1  0  0  0  0  0  0
  196.2320  172.5080  142.4020 C   0  0  0  0  0  3  0  0  0  0  0  0
  196.7620  172.0590  141.2600 C   0  0  0  0  0  0  0  0  0  0  0  0
  197.9380  171.0980  141.5180 C   0  0  0  0  0  1  0  0  0  0  0  0
  195.6460  172.6520  138.6980 C   0  0  1  0  0  3  0  0  0  0  0  0
  196.2920  171.4750  139.1910 O   0  0  0  0  0  0  0  0  0  0  0  0
  196.6210  172.5980  139.8670 C   0  0  2  0  0  3  0  0  0  0  0  0
  196.4650  173.2910  137.6900 N   0  0  0  0  0  2  0  0  0  0  0  0
  195.2450  175.3450  137.2260 C   0  0  0  0  0  1  0  0  0  0  0  0
  195.7510  174.0360  136.6870 C   0  0  2  0  0  3  0  0  0  0  0  0
  193.2840  173.3310  136.9660 N   0  0  0  0  0  2  0  0  0  0  0  0
  194.5450  173.3460  136.2120 C   0  0  0  0  0  0  0  0  0  0  0  0
  194.5370  172.8010  135.0460 O   0  0  0  0  0  0  0  0  0  0  0  0
  192.0860  172.6720  136.4840 C   0  0  1  0  0  3  0  0  0  0  0  0
  191.5220  174.5940  134.9660 O   0  0  0  0  0  1  0  0  0  0  0  0
  188.9510  175.1530  135.5980 N   0  0  0  0  0  1  0  0  0  0  0  0
  189.7050  173.7200  137.3560 S   0  0  0  0  0  0  0  0  0  0  0  0
  190.9500  173.6660  135.8930 C   0  0  2  0  0  0  0  0  0  0  0  0
  189.4730  173.7910  135.6510 C   0  0  2  0  0  3  0  0  0  0  0  0
  192.0410  171.2800  136.4890 O   0  0  0  0  0  0  0  0  0  0  0  0
  192.0160  170.7130  138.1600 S   0  0  0  0  0  0  0  0  0  0  0  0
  194.0390  169.7030  137.1870 N   0  0  0  0  0  1  0  0  0  0  0  0
  192.7450  169.2200  137.6860 C   0  0  0  0  0  2  0  0  0  0  0  0
  1  2  1  0  0  0  0
  3  2  1  0  0  0  0
  4  5  1  0  0  0  0
  5  1  2  0  0  0  0
  6  4  2  0  0  0  0
  6  7  1  0  0  0  0
  7  3  2  0  0  0  0
  8  7  1  0  0  0  0
  9 10  1  6  0  0  0
  9  8  1  0  0  0  0
 11  9  1  0  0  0  0
 12 11  1  0  0  0  0
 13 19  1  1  0  0  0
 14 16  2  0  0  0  0
 15 13  1  0  0  0  0
 16 17  1  0  0  0  0
 16 15  1  0  0  0  0
 17 12  1  1  0  0  0
 17 18  1  0  0  0  0
 18 13  1  0  0  0  0
 19 20  1  0  0  0  0
 20 21  1  0  0  0  0
 21 22  1  0  0  0  0
 21 23  2  0  0  0  0
 24 12  1  0  0  0  0
 24 25  1  0  0  0  0
 25 26  1  0  0  0  0
 27 28  1  6  0  0  0
 27 26  1  0  0  0  0
 27 32  1  0  0  0  0
 29 27  1  0  0  0  0
 30 29  1  0  0  0  0
 32 31  1  0  0  0  0
 33  4  1  0  0  0  0
 34 35  2  0  0  0  0
 35 33  1  0  0  0  0
 36 34  1  0  0  0  0
 37 34  1  0  0  0  0
 38 39  1  0  0  0  0
 38 37  2  0  0  0  0
 40 43  1  6  0  0  0
 40 41  1  0  0  0  0
 40 42  1  0  0  0  0
 41 42  1  0  0  0  0
 42 38  1  1  0  0  0
 45 44  1  1  0  0  0
 45 43  1  0  0  0  0
 47 45  1  0  0  0  0
 47 46  1  0  0  0  0
 48 47  2  0  0  0  0
 49 55  1  6  0  0  0
 49 46  1  0  0  0  0
 53 50  1  6  0  0  0
 53 49  1  0  0  0  0
 53 52  1  0  0  0  0
 54 51  1  1  0  0  0
 54 53  1  0  0  0  0
 54 52  1  0  0  0  0
 55 56  1  0  0  0  0
 57 58  1  0  0  0  0
 58 56  1  0  0  0  0
M  END
>  <MODEL>
5

>  <REMARK>
 VINA RESULT:      -5.4      3.169      9.399
  Name = 
  25 active torsions:
  status: ('A' for Active; 'I' for Inactive)
    1  A    between atoms: C_2  and  C_30
    2  A    between atoms: C_5  and  C_16
    3  A    between atoms: C_7  and  N_17
    4  A    between atoms: C_7  and  C_57
    5  A    between atoms: C_8  and  C_13
    6  A    between atoms: C_8  and  C_35
    7  A    between atoms: C_9  and  C_21
    8  A    between atoms: C_9  and  C_49
    9  A    between atoms: C_10  and  C_14
   10  A    between atoms: C_11  and  N_34
   11  A    between atoms: C_14  and  C_32
   12  A    between atoms: C_14  and  C_39
   13  A    between atoms: N_17  and  C_21
   14  A    between atoms: N_17  and  C_50
   15  A    between atoms: C_19  and  N_34
   16  A    between atoms: C_19  and  C_38
   17  A    between atoms: C_23  and  N_24
   18  A    between atoms: C_23  and  C_36
   19  A    between atoms: C_23  and  O_43
   20  A    between atoms: N_25  and  C_30
   21  A    between atoms: C_27  and  C_40
   22  A    between atoms: C_32  and  C_57
   23  A    between atoms: O_43  and  S_53
   24  A    between atoms: C_46  and  S_53
   25  A    between atoms: C_49  and  C_56
                            x       y       z     vdW  Elec       q    Type
                         _______ _______ _______ _____ _____    ______ ____

>  <TORSDO>
F 25

$$$$
=
 OpenBabel11042413433D

 58 61  0  0  1  0  0  0  0  0999 V2000
  190.6570  177.1470  142.7750 C   0  0  0  0  0  3  0  0  0  0  0  0
  191.4890  176.1390  142.5500 C   0  0  0  0  0  2  0  0  0  0  0  0
  191.2530  174.9080  141.7640 C   0  0  0  0  0  3  0  0  0  0  0  0
  188.4020  176.2410  141.6810 C   0  0  0  0  0  0  0  0  0  0  0  0
  189.2690  177.3630  142.1730 C   0  0  0  0  0  3  0  0  0  0  0  0
  188.8080  175.0700  141.1980 C   0  0  0  0  0  3  0  0  0  0  0  0
  190.1390  174.3830  141.2150 C   0  0  0  0  0  0  0  0  0  0  0  0
  190.0650  172.9430  140.5890 C   0  0  0  0  0  2  0  0  0  0  0  0
  190.0020  172.7770  139.0490 C   0  0  2  0  0  3  0  0  0  0  0  0
  188.6800  172.0790  138.6840 C   0  0  0  0  0  1  0  0  0  0  0  0
  191.2510  172.0020  138.5510 C   0  0  0  0  0  2  0  0  0  0  0  0
  191.6500  172.4210  137.1970 N   0  0  0  0  0  0  0  0  0  0  0  0
  193.1440  169.2250  136.9960 C   0  0  1  0  0  3  0  0  0  0  0  0
  191.1050  170.7600  134.6810 O   0  0  0  0  0  0  0  0  0  0  0  0
  191.9180  169.2210  136.2200 N   0  0  0  0  0  2  0  0  0  0  0  0
  191.7650  170.5400  135.7250 C   0  0  0  0  0  0  0  0  0  0  0  0
  192.5650  171.5530  136.4720 C   0  0  2  0  0  3  0  0  0  0  0  0
  193.3700  170.6660  137.4390 C   0  0  0  0  0  2  0  0  0  0  0  0
  193.0460  168.2300  138.1320 C   0  0  0  0  0  2  0  0  0  0  0  0
  191.9950  168.4800  139.1990 N   0  0  0  0  0  2  0  0  0  0  0  0
  192.0400  169.0120  140.5470 C   0  0  0  0  0  0  0  0  0  0  0  0
  190.8000  169.3220  141.3200 N   0  0  0  0  0  1  0  0  0  0  0  0
  193.0860  169.1930  141.1460 O   0  0  0  0  0  0  0  0  0  0  0  0
  192.1600  173.7980  137.2190 C   0  0  0  0  0  2  0  0  0  0  0  0
  193.0440  174.2640  138.3620 C   0  0  0  0  0  2  0  0  0  0  0  0
  194.2390  174.9660  137.6740 C   0  0  0  0  0  2  0  0  0  0  0  0
  195.7160  174.6540  138.0360 C   0  0  2  0  0  0  0  0  0  0  0  0
  196.6820  175.3610  137.1090 C   0  0  0  0  0  1  0  0  0  0  0  0
  195.9780  173.1670  137.8460 C   0  0  0  0  0  2  0  0  0  0  0  0
  196.2060  172.9240  136.4390 N   0  0  0  0  0  1  0  0  0  0  0  0
  197.1400  175.0550  140.1210 O   0  0  0  0  0  1  0  0  0  0  0  0
  195.8820  175.2050  139.4860 C   0  0  0  0  0  2  0  0  0  0  0  0
  186.8890  176.3790  141.6870 C   0  0  0  0  0  2  0  0  0  0  0  0
  185.6520  177.6740  143.4480 C   0  0  0  0  0  0  0  0  0  0  0  0
  186.1240  176.4920  143.0120 C   0  0  0  0  0  3  0  0  0  0  0  0
  185.9840  178.9210  142.7340 C   0  0  0  0  0  1  0  0  0  0  0  0
  184.9000  177.8960  144.7120 C   0  0  0  0  0  3  0  0  0  0  0  0
  185.3490  177.7720  145.9660 C   0  0  0  0  0  0  0  0  0  0  0  0
  184.3100  178.2600  146.9920 C   0  0  0  0  0  1  0  0  0  0  0  0
  187.5850  177.6070  147.7350 C   0  0  1  0  0  3  0  0  0  0  0  0
  186.9460  178.7360  147.1320 O   0  0  0  0  0  0  0  0  0  0  0  0
  186.7510  177.5780  146.4610 C   0  0  2  0  0  3  0  0  0  0  0  0
  188.9160  177.4320  147.1940 N   0  0  0  0  0  2  0  0  0  0  0  0
  190.8370  178.0680  148.5460 C   0  0  0  0  0  1  0  0  0  0  0  0
  189.9100  176.9620  148.1220 C   0  0  2  0  0  3  0  0  0  0  0  0
  191.1100  175.8770  146.1110 N   0  0  0  0  0  2  0  0  0  0  0  0
  190.7970  175.9440  147.5450 C   0  0  0  0  0  0  0  0  0  0  0  0
  191.4120  175.1190  148.3190 O   0  0  0  0  0  0  0  0  0  0  0  0
  192.0060  174.8880  145.5460 C   0  0  1  0  0  3  0  0  0  0  0  0
  193.6870  176.7490  145.7230 O   0  0  0  0  0  1  0  0  0  0  0  0
  195.9590  175.6270  144.7740 N   0  0  0  0  0  1  0  0  0  0  0  0
  194.2260  174.1090  144.1360 S   0  0  0  0  0  0  0  0  0  0  0  0
  193.5560  175.3530  145.4380 C   0  0  2  0  0  0  0  0  0  0  0  0
  194.9680  174.8450  145.5050 C   0  0  2  0  0  3  0  0  0  0  0  0
  191.4990  173.6300  145.2290 O   0  0  0  0  0  0  0  0  0  0  0  0
  189.7530  173.7550  145.0080 S   0  0  0  0  0  0  0  0  0  0  0  0
  191.0760  171.7460  144.4850 N   0  0  0  0  0  1  0  0  0  0  0  0
  189.7300  172.2430  144.1720 C   0  0  0  0  0  2  0  0  0  0  0  0
  2  1  1  0  0  0  0
  3  2  1  0  0  0  0
  4 33  1  0  0  0  0
  4  5  1  0  0  0  0
  5  1  2  0  0  0  0
  6  7  1  0  0  0  0
  6  4  2  0  0  0  0
  7  3  2  0  0  0  0
  8  7  1  0  0  0  0
  9 10  1  1  0  0  0
  9  8  1  0  0  0  0
 11  9  1  0  0  0  0
 12 24  1  0  0  0  0
 12 11  1  0  0  0  0
 13 18  1  0  0  0  0
 13 19  1  1  0  0  0
 14 16  2  0  0  0  0
 15 13  1  0  0  0  0
 16 15  1  0  0  0  0
 16 17  1  0  0  0  0
 17 12  1  1  0  0  0
 17 18  1  0  0  0  0
 19 20  1  0  0  0  0
 20 21  1  0  0  0  0
 21 23  2  0  0  0  0
 21 22  1  0  0  0  0
 24 25  1  0  0  0  0
 26 27  1  0  0  0  0
 26 25  1  0  0  0  0
 27 28  1  6  0  0  0
 27 32  1  0  0  0  0
 29 27  1  0  0  0  0
 30 29  1  0  0  0  0
 32 31  1  0  0  0  0
 33 35  1  0  0  0  0
 34 37  1  0  0  0  0
 35 34  2  0  0  0  0
 36 34  1  0  0  0  0
 37 38  2  0  0  0  0
 38 39  1  0  0  0  0
 40 43  1  6  0  0  0
 41 40  1  0  0  0  0
 42 38  1  1  0  0  0
 42 41  1  0  0  0  0
 42 40  1  0  0  0  0
 43 45  1  0  0  0  0
 45 44  1  6  0  0  0
 46 47  1  0  0  0  0
 47 45  1  0  0  0  0
 47 48  2  0  0  0  0
 49 55  1  1  0  0  0
 49 46  1  0  0  0  0
 52 53  1  0  0  0  0
 52 54  1  0  0  0  0
 53 54  1  0  0  0  0
 53 49  1  0  0  0  0
 53 50  1  6  0  0  0
 54 51  1  6  0  0  0
 56 55  1  0  0  0  0
 58 57  1  0  0  0  0
 58 56  1  0  0  0  0
M  END
>  <MODEL>
6

>  <REMARK>
 VINA RESULT:      -5.2      3.616      8.125
  Name = 
  25 active torsions:
  status: ('A' for Active; 'I' for Inactive)
    1  A    between atoms: C_2  and  C_30
    2  A    between atoms: C_5  and  C_16
    3  A    between atoms: C_7  and  N_17
    4  A    between atoms: C_7  and  C_57
    5  A    between atoms: C_8  and  C_13
    6  A    between atoms: C_8  and  C_35
    7  A    between atoms: C_9  and  C_21
    8  A    between atoms: C_9  and  C_49
    9  A    between atoms: C_10  and  C_14
   10  A    between atoms: C_11  and  N_34
   11  A    between atoms: C_14  and  C_32
   12  A    between atoms: C_14  and  C_39
   13  A    between atoms: N_17  and  C_21
   14  A    between atoms: N_17  and  C_50
   15  A    between atoms: C_19  and  N_34
   16  A    between atoms: C_19  and  C_38
   17  A    between atoms: C_23  and  N_24
   18  A    between atoms: C_23  and  C_36
   19  A    between atoms: C_23  and  O_43
   20  A    between atoms: N_25  and  C_30
   21  A    between atoms: C_27  and  C_40
   22  A    between atoms: C_32  and  C_57
   23  A    between atoms: O_43  and  S_53
   24  A    between atoms: C_46  and  S_53
   25  A    between atoms: C_49  and  C_56
                            x       y       z     vdW  Elec       q    Type
                         _______ _______ _______ _____ _____    ______ ____

>  <TORSDO>
F 25

$$$$
=
 OpenBabel11042413433D

 58 61  0  0  1  0  0  0  0  0999 V2000
  185.8760  178.2270  141.1680 C   0  0  0  0  0  3  0  0  0  0  0  0
  186.7200  177.6680  140.3110 C   0  0  0  0  0  3  0  0  0  0  0  0
  187.4280  176.3730  140.4270 C   0  0  0  0  0  3  0  0  0  0  0  0
  186.0140  176.5500  143.2350 C   0  0  0  0  0  0  0  0  0  0  0  0
  185.3100  177.6190  142.4520 C   0  0  0  0  0  2  0  0  0  0  0  0
  186.8540  175.6330  142.7610 C   0  0  0  0  0  3  0  0  0  0  0  0
  187.5610  175.5020  141.4480 C   0  0  0  0  0  0  0  0  0  0  0  0
  188.5380  174.2710  141.4270 C   0  0  0  0  0  2  0  0  0  0  0  0
  189.2600  173.8850  140.1090 C   0  0  2  0  0  3  0  0  0  0  0  0
  188.2070  173.3990  139.0980 C   0  0  0  0  0  1  0  0  0  0  0  0
  190.3530  172.8240  140.4000 C   0  0  0  0  0  2  0  0  0  0  0  0
  190.4200  171.8040  139.3400 N   0  0  0  0  0  0  0  0  0  0  0  0
  191.7790  168.5680  139.7450 C   0  0  1  0  0  3  0  0  0  0  0  0
  190.3710  170.5900  142.1530 O   0  0  0  0  0  0  0  0  0  0  0  0
  191.9110  169.2930  140.9940 N   0  0  0  0  0  2  0  0  0  0  0  0
  190.8070  170.1780  141.0500 C   0  0  0  0  0  0  0  0  0  0  0  0
  190.1700  170.4240  139.7240 C   0  0  2  0  0  3  0  0  0  0  0  0
  190.9470  169.4490  138.8200 C   0  0  0  0  0  2  0  0  0  0  0  0
  193.1450  168.2060  139.2020 C   0  0  0  0  0  2  0  0  0  0  0  0
  194.3470  168.4730  140.0900 N   0  0  0  0  0  2  0  0  0  0  0  0
  195.2740  169.5810  140.2190 C   0  0  0  0  0  0  0  0  0  0  0  0
  196.2750  169.6550  141.3240 N   0  0  0  0  0  1  0  0  0  0  0  0
  195.3230  170.4910  139.4100 O   0  0  0  0  0  0  0  0  0  0  0  0
  191.6890  171.9110  138.6090 C   0  0  0  0  0  2  0  0  0  0  0  0
  192.2450  173.2760  138.2470 C   0  0  0  0  0  2  0  0  0  0  0  0
  193.6560  172.9890  137.6810 C   0  0  0  0  0  2  0  0  0  0  0  0
  194.6210  174.1160  137.2230 C   0  0  2  0  0  0  0  0  0  0  0  0
  194.6950  175.2370  138.2380 C   0  0  0  0  0  1  0  0  0  0  0  0
  194.0840  174.7520  135.9490 C   0  0  0  0  0  2  0  0  0  0  0  0
  193.7040  176.1150  136.2490 N   0  0  0  0  0  1  0  0  0  0  0  0
  196.9970  173.7260  138.0780 O   0  0  0  0  0  1  0  0  0  0  0  0
  196.0090  173.4140  137.1130 C   0  0  0  0  0  2  0  0  0  0  0  0
  185.7900  176.4220  144.7330 C   0  0  0  0  0  2  0  0  0  0  0  0
  187.2390  177.7280  146.3140 C   0  0  0  0  0  0  0  0  0  0  0  0
  186.9640  176.5570  145.7090 C   0  0  0  0  0  3  0  0  0  0  0  0
  186.5050  178.9510  145.9420 C   0  0  0  0  0  1  0  0  0  0  0  0
  188.3490  177.9690  147.2750 C   0  0  0  0  0  3  0  0  0  0  0  0
  189.5800  177.4460  147.2540 C   0  0  0  0  0  0  0  0  0  0  0  0
  190.4860  178.0830  148.3240 C   0  0  0  0  0  1  0  0  0  0  0  0
  190.1410  175.3360  145.4120 C   0  0  1  0  0  3  0  0  0  0  0  0
  190.4160  175.4600  146.8100 O   0  0  0  0  0  0  0  0  0  0  0  0
  190.2570  176.6460  146.1820 C   0  0  2  0  0  3  0  0  0  0  0  0
  191.3740  175.3570  144.6520 N   0  0  0  0  0  2  0  0  0  0  0  0
  191.3280  172.9240  144.6070 C   0  0  0  0  0  1  0  0  0  0  0  0
  191.6340  174.1890  143.8540 C   0  0  2  0  0  3  0  0  0  0  0  0
  194.0730  173.5370  144.3940 N   0  0  0  0  0  2  0  0  0  0  0  0
  193.0470  174.0560  143.4780 C   0  0  0  0  0  0  0  0  0  0  0  0
  193.4150  174.3120  142.2700 O   0  0  0  0  0  0  0  0  0  0  0  0
  195.4630  173.3810  144.0120 C   0  0  1  0  0  3  0  0  0  0  0  0
  195.8960  175.6800  144.9330 O   0  0  0  0  0  1  0  0  0  0  0  0
  197.5580  176.7790  143.1020 N   0  0  0  0  0  1  0  0  0  0  0  0
  196.6890  174.8270  142.0300 S   0  0  0  0  0  0  0  0  0  0  0  0
  196.3030  174.7630  143.9120 C   0  0  2  0  0  0  0  0  0  0  0  0
  197.5880  175.3520  143.4030 C   0  0  2  0  0  3  0  0  0  0  0  0
  195.9700  172.0940  143.8500 O   0  0  0  0  0  0  0  0  0  0  0  0
  194.8070  170.9330  144.4940 S   0  0  0  0  0  0  0  0  0  0  0  0
  195.1430  169.4930  146.4620 N   0  0  0  0  0  1  0  0  0  0  0  0
  195.8160  170.6560  145.8700 C   0  0  0  0  0  2  0  0  0  0  0  0
  1  5  1  0  0  0  0
  2  3  1  0  0  0  0
  2  1  2  0  0  0  0
  3  7  2  0  0  0  0
  4 33  1  0  0  0  0
  5  4  1  0  0  0  0
  6  4  2  0  0  0  0
  7  6  1  0  0  0  0
  8  7  1  0  0  0  0
  9 10  1  6  0  0  0
  9 11  1  0  0  0  0
  9  8  1  0  0  0  0
 12 11  1  0  0  0  0
 13 19  1  6  0  0  0
 13 15  1  0  0  0  0
 15 16  1  0  0  0  0
 16 14  2  0  0  0  0
 17 12  1  6  0  0  0
 17 16  1  0  0  0  0
 18 17  1  0  0  0  0
 18 13  1  0  0  0  0
 19 20  1  0  0  0  0
 20 21  1  0  0  0  0
 21 22  1  0  0  0  0
 23 21  2  0  0  0  0
 24 12  1  0  0  0  0
 25 24  1  0  0  0  0
 26 25  1  0  0  0  0
 27 26  1  0  0  0  0
 27 28  1  1  0  0  0
 29 30  1  0  0  0  0
 29 27  1  0  0  0  0
 32 27  1  0  0  0  0
 32 31  1  0  0  0  0
 33 35  1  0  0  0  0
 34 37  1  0  0  0  0
 35 34  2  0  0  0  0
 36 34  1  0  0  0  0
 38 37  2  0  0  0  0
 38 39  1  0  0  0  0
 40 43  1  6  0  0  0
 40 42  1  0  0  0  0
 40 41  1  0  0  0  0
 42 41  1  0  0  0  0
 42 38  1  1  0  0  0
 45 44  1  1  0  0  0
 45 43  1  0  0  0  0
 47 45  1  0  0  0  0
 47 46  1  0  0  0  0
 48 47  2  0  0  0  0
 49 55  1  1  0  0  0
 49 46  1  0  0  0  0
 52 54  1  0  0  0  0
 52 53  1  0  0  0  0
 53 49  1  0  0  0  0
 53 50  1  1  0  0  0
 54 51  1  6  0  0  0
 54 53  1  0  0  0  0
 55 56  1  0  0  0  0
 56 58  1  0  0  0  0
 58 57  1  0  0  0  0
M  END
>  <MODEL>
7

>  <REMARK>
 VINA RESULT:      -5.0      4.011      8.795
  Name = 
  25 active torsions:
  status: ('A' for Active; 'I' for Inactive)
    1  A    between atoms: C_2  and  C_30
    2  A    between atoms: C_5  and  C_16
    3  A    between atoms: C_7  and  N_17
    4  A    between atoms: C_7  and  C_57
    5  A    between atoms: C_8  and  C_13
    6  A    between atoms: C_8  and  C_35
    7  A    between atoms: C_9  and  C_21
    8  A    between atoms: C_9  and  C_49
    9  A    between atoms: C_10  and  C_14
   10  A    between atoms: C_11  and  N_34
   11  A    between atoms: C_14  and  C_32
   12  A    between atoms: C_14  and  C_39
   13  A    between atoms: N_17  and  C_21
   14  A    between atoms: N_17  and  C_50
   15  A    between atoms: C_19  and  N_34
   16  A    between atoms: C_19  and  C_38
   17  A    between atoms: C_23  and  N_24
   18  A    between atoms: C_23  and  C_36
   19  A    between atoms: C_23  and  O_43
   20  A    between atoms: N_25  and  C_30
   21  A    between atoms: C_27  and  C_40
   22  A    between atoms: C_32  and  C_57
   23  A    between atoms: O_43  and  S_53
   24  A    between atoms: C_46  and  S_53
   25  A    between atoms: C_49  and  C_56
                            x       y       z     vdW  Elec       q    Type
                         _______ _______ _______ _____ _____    ______ ____

>  <TORSDO>
F 25

$$$$
=
 OpenBabel11042413433D

 58 61  0  0  1  0  0  0  0  0999 V2000
  186.7060  178.6540  142.0250 C   0  0  0  0  0  3  0  0  0  0  0  0
  187.4630  178.1090  141.0830 C   0  0  0  0  0  3  0  0  0  0  0  0
  187.8300  176.6860  140.9050 C   0  0  0  0  0  3  0  0  0  0  0  0
  186.2630  176.5760  143.6340 C   0  0  0  0  0  0  0  0  0  0  0  0
  185.9040  177.9360  143.1100 C   0  0  0  0  0  2  0  0  0  0  0  0
  186.8980  175.6090  142.9780 C   0  0  0  0  0  3  0  0  0  0  0  0
  187.6640  175.6030  141.6900 C   0  0  0  0  0  0  0  0  0  0  0  0
  188.3180  174.2030  141.4020 C   0  0  0  0  0  2  0  0  0  0  0  0
  189.0260  173.9510  140.0450 C   0  0  2  0  0  3  0  0  0  0  0  0
  188.2120  172.9120  139.2540 C   0  0  0  0  0  1  0  0  0  0  0  0
  190.4930  173.5100  140.2910 C   0  0  0  0  0  2  0  0  0  0  0  0
  191.1330  173.0300  139.0540 N   0  0  0  0  0  0  0  0  0  0  0  0
  191.8610  170.0990  140.8870 C   0  0  1  0  0  3  0  0  0  0  0  0
  190.7220  170.3420  137.6450 O   0  0  0  0  0  0  0  0  0  0  0  0
  190.8430  169.7950  139.9000 N   0  0  0  0  0  2  0  0  0  0  0  0
  191.0970  170.6530  138.8010 C   0  0  0  0  0  0  0  0  0  0  0  0
  191.9470  171.8290  139.1460 C   0  0  2  0  0  3  0  0  0  0  0  0
  192.3220  171.5250  140.6080 C   0  0  0  0  0  2  0  0  0  0  0  0
  191.3180  169.8790  142.2830 C   0  0  0  0  0  2  0  0  0  0  0  0
  190.4480  170.9710  142.8790 N   0  0  0  0  0  2  0  0  0  0  0  0
  190.6770  172.0110  143.8640 C   0  0  0  0  0  0  0  0  0  0  0  0
  189.6740  173.0840  144.1330 N   0  0  0  0  0  1  0  0  0  0  0  0
  191.6760  172.0450  144.5610 O   0  0  0  0  0  0  0  0  0  0  0  0
  191.8920  174.1160  138.4200 C   0  0  0  0  0  2  0  0  0  0  0  0
  193.3350  174.3680  138.8180 C   0  0  0  0  0  2  0  0  0  0  0  0
  193.9640  175.0730  137.5920 C   0  0  0  0  0  2  0  0  0  0  0  0
  195.4780  174.9880  137.2610 C   0  0  2  0  0  0  0  0  0  0  0  0
  195.8930  176.0420  136.2570 C   0  0  0  0  0  1  0  0  0  0  0  0
  195.7740  173.6500  136.5980 C   0  0  0  0  0  2  0  0  0  0  0  0
  196.5220  173.9020  135.3860 N   0  0  0  0  0  1  0  0  0  0  0  0
  197.5960  175.3930  138.6330 O   0  0  0  0  0  1  0  0  0  0  0  0
  196.1870  175.2540  138.6250 C   0  0  0  0  0  2  0  0  0  0  0  0
  185.8870  176.1740  145.0510 C   0  0  0  0  0  2  0  0  0  0  0  0
  187.8290  177.3580  146.1160 C   0  0  0  0  0  0  0  0  0  0  0  0
  186.6190  176.7850  146.2520 C   0  0  0  0  0  3  0  0  0  0  0  0
  188.5500  177.2860  144.8330 C   0  0  0  0  0  1  0  0  0  0  0  0
  188.6230  177.9790  147.2100 C   0  0  0  0  0  3  0  0  0  0  0  0
  189.8110  177.5880  147.6840 C   0  0  0  0  0  0  0  0  0  0  0  0
  190.3790  178.5990  148.6980 C   0  0  0  0  0  1  0  0  0  0  0  0
  190.8110  175.3150  146.2730 C   0  0  1  0  0  3  0  0  0  0  0  0
  190.1700  175.4220  147.5470 O   0  0  0  0  0  0  0  0  0  0  0  0
  190.7640  176.5660  147.1400 C   0  0  2  0  0  3  0  0  0  0  0  0
  192.1950  174.9220  146.4350 N   0  0  0  0  0  2  0  0  0  0  0  0
  192.6120  175.7160  144.1730 C   0  0  0  0  0  1  0  0  0  0  0  0
  193.1370  175.5880  145.5760 C   0  0  2  0  0  3  0  0  0  0  0  0
  194.6120  173.8360  144.3840 N   0  0  0  0  0  2  0  0  0  0  0  0
  194.3970  174.8490  145.4270 C   0  0  0  0  0  0  0  0  0  0  0  0
  195.4050  175.1480  146.1710 O   0  0  0  0  0  0  0  0  0  0  0  0
  195.8660  173.1280  144.2220 C   0  0  1  0  0  3  0  0  0  0  0  0
  197.0770  172.1710  146.2060 O   0  0  0  0  0  1  0  0  0  0  0  0
  196.2930  169.5810  146.2220 N   0  0  0  0  0  1  0  0  0  0  0  0
  195.6190  170.3990  144.0800 S   0  0  0  0  0  0  0  0  0  0  0  0
  196.0770  171.8730  145.2260 C   0  0  2  0  0  0  0  0  0  0  0  0
  195.4040  170.6460  145.7710 C   0  0  2  0  0  3  0  0  0  0  0  0
  196.7240  173.5160  143.1950 O   0  0  0  0  0  0  0  0  0  0  0  0
  197.7330  174.8470  143.7630 S   0  0  0  0  0  0  0  0  0  0  0  0
  196.3410  176.6420  142.8130 N   0  0  0  0  0  1  0  0  0  0  0  0
  197.3950  175.7440  142.3250 C   0  0  0  0  0  2  0  0  0  0  0  0
  1  5  1  0  0  0  0
  2  1  2  0  0  0  0
  3  2  1  0  0  0  0
  3  7  2  0  0  0  0
  4 33  1  0  0  0  0
  5  4  1  0  0  0  0
  6  4  2  0  0  0  0
  7  6  1  0  0  0  0
  8  7  1  0  0  0  0
  9 10  1  1  0  0  0
  9 11  1  0  0  0  0
  9  8  1  0  0  0  0
 12 11  1  0  0  0  0
 13 19  1  1  0  0  0
 14 16  2  0  0  0  0
 15 13  1  0  0  0  0
 16 17  1  0  0  0  0
 16 15  1  0  0  0  0
 17 12  1  1  0  0  0
 17 18  1  0  0  0  0
 18 13  1  0  0  0  0
 19 20  1  0  0  0  0
 20 21  1  0  0  0  0
 21 22  1  0  0  0  0
 21 23  2  0  0  0  0
 24 25  1  0  0  0  0
 24 12  1  0  0  0  0
 26 25  1  0  0  0  0
 27 28  1  6  0  0  0
 27 26  1  0  0  0  0
 27 32  1  0  0  0  0
 29 27  1  0  0  0  0
 30 29  1  0  0  0  0
 32 31  1  0  0  0  0
 33 35  1  0  0  0  0
 34 35  2  0  0  0  0
 34 37  1  0  0  0  0
 36 34  1  0  0  0  0
 37 38  2  0  0  0  0
 38 39  1  0  0  0  0
 40 43  1  1  0  0  0
 40 42  1  0  0  0  0
 40 41  1  0  0  0  0
 42 41  1  0  0  0  0
 42 38  1  6  0  0  0
 45 44  1  6  0  0  0
 45 43  1  0  0  0  0
 46 47  1  0  0  0  0
 47 45  1  0  0  0  0
 47 48  2  0  0  0  0
 49 55  1  6  0  0  0
 49 46  1  0  0  0  0
 49 53  1  0  0  0  0
 52 53  1  0  0  0  0
 52 54  1  0  0  0  0
 53 54  1  0  0  0  0
 53 50  1  1  0  0  0
 54 51  1  1  0  0  0
 55 56  1  0  0  0  0
 58 57  1  0  0  0  0
 58 56  1  0  0  0  0
M  END
>  <MODEL>
8

>  <REMARK>
 VINA RESULT:      -4.9      4.245      9.079
  Name = 
  25 active torsions:
  status: ('A' for Active; 'I' for Inactive)
    1  A    between atoms: C_2  and  C_30
    2  A    between atoms: C_5  and  C_16
    3  A    between atoms: C_7  and  N_17
    4  A    between atoms: C_7  and  C_57
    5  A    between atoms: C_8  and  C_13
    6  A    between atoms: C_8  and  C_35
    7  A    between atoms: C_9  and  C_21
    8  A    between atoms: C_9  and  C_49
    9  A    between atoms: C_10  and  C_14
   10  A    between atoms: C_11  and  N_34
   11  A    between atoms: C_14  and  C_32
   12  A    between atoms: C_14  and  C_39
   13  A    between atoms: N_17  and  C_21
   14  A    between atoms: N_17  and  C_50
   15  A    between atoms: C_19  and  N_34
   16  A    between atoms: C_19  and  C_38
   17  A    between atoms: C_23  and  N_24
   18  A    between atoms: C_23  and  C_36
   19  A    between atoms: C_23  and  O_43
   20  A    between atoms: N_25  and  C_30
   21  A    between atoms: C_27  and  C_40
   22  A    between atoms: C_32  and  C_57
   23  A    between atoms: O_43  and  S_53
   24  A    between atoms: C_46  and  S_53
   25  A    between atoms: C_49  and  C_56
                            x       y       z     vdW  Elec       q    Type
                         _______ _______ _______ _____ _____    ______ ____

>  <TORSDO>
F 25

$$$$
=
 OpenBabel11042413433D

 58 61  0  0  1  0  0  0  0  0999 V2000
  185.8150  178.4670  141.6450 C   0  0  0  0  0  3  0  0  0  0  0  0
  186.6440  177.9170  140.7680 C   0  0  0  0  0  3  0  0  0  0  0  0
  187.3060  176.5950  140.8300 C   0  0  0  0  0  3  0  0  0  0  0  0
  185.8850  176.6970  143.6370 C   0  0  0  0  0  0  0  0  0  0  0  0
  185.2220  177.8240  142.8990 C   0  0  0  0  0  2  0  0  0  0  0  0
  186.6950  175.7740  143.1270 C   0  0  0  0  0  3  0  0  0  0  0  0
  187.4040  175.6750  141.8110 C   0  0  0  0  0  0  0  0  0  0  0  0
  188.3390  174.4140  141.7400 C   0  0  0  0  0  2  0  0  0  0  0  0
  189.2770  174.2210  140.5200 C   0  0  2  0  0  3  0  0  0  0  0  0
  188.5210  173.4250  139.4420 C   0  0  0  0  0  1  0  0  0  0  0  0
  190.5910  173.5310  140.9710 C   0  0  0  0  0  2  0  0  0  0  0  0
  191.1430  172.6650  139.9150 N   0  0  0  0  0  0  0  0  0  0  0  0
  192.6980  169.5780  139.1850 C   0  0  1  0  0  3  0  0  0  0  0  0
  192.5050  171.1850  142.2260 O   0  0  0  0  0  0  0  0  0  0  0  0
  193.3720  170.1880  140.3150 N   0  0  0  0  0  2  0  0  0  0  0  0
  192.3830  170.9340  141.0030 C   0  0  0  0  0  0  0  0  0  0  0  0
  191.1800  171.2350  140.1750 C   0  0  2  0  0  3  0  0  0  0  0  0
  191.4810  170.4460  138.8880 C   0  0  0  0  0  2  0  0  0  0  0  0
  193.6570  169.4270  138.0240 C   0  0  0  0  0  2  0  0  0  0  0  0
  193.2690  170.0680  136.7030 N   0  0  0  0  0  2  0  0  0  0  0  0
  192.3420  169.7090  135.6470 C   0  0  0  0  0  0  0  0  0  0  0  0
  192.0230  170.6370  134.5220 N   0  0  0  0  0  1  0  0  0  0  0  0
  191.8070  168.6150  135.5880 O   0  0  0  0  0  0  0  0  0  0  0  0
  192.4690  173.1460  139.5050 C   0  0  0  0  0  2  0  0  0  0  0  0
  192.6660  173.7440  138.1230 C   0  0  0  0  0  2  0  0  0  0  0  0
  194.1020  173.3340  137.7190 C   0  0  0  0  0  2  0  0  0  0  0  0
  194.7400  173.7410  136.3630 C   0  0  2  0  0  0  0  0  0  0  0  0
  193.7330  173.6880  135.2320 C   0  0  0  0  0  1  0  0  0  0  0  0
  195.8240  172.7380  135.9940 C   0  0  0  0  0  2  0  0  0  0  0  0
  196.6620  173.3310  134.9760 N   0  0  0  0  0  1  0  0  0  0  0  0
  195.9760  175.5080  137.7340 O   0  0  0  0  0  1  0  0  0  0  0  0
  195.2060  175.2130  136.5820 C   0  0  0  0  0  2  0  0  0  0  0  0
  185.6490  176.5110  145.1270 C   0  0  0  0  0  2  0  0  0  0  0  0
  187.1670  177.7830  146.6710 C   0  0  0  0  0  0  0  0  0  0  0  0
  186.8160  176.6080  146.1180 C   0  0  0  0  0  3  0  0  0  0  0  0
  186.5310  179.0370  146.2280 C   0  0  0  0  0  1  0  0  0  0  0  0
  188.2770  177.9900  147.6390 C   0  0  0  0  0  3  0  0  0  0  0  0
  189.5630  177.6490  147.4970 C   0  0  0  0  0  0  0  0  0  0  0  0
  190.4260  178.1920  148.6510 C   0  0  0  0  0  1  0  0  0  0  0  0
  190.2100  176.1060  145.1820 C   0  0  1  0  0  3  0  0  0  0  0  0
  190.4170  175.8440  146.5730 O   0  0  0  0  0  0  0  0  0  0  0  0
  190.2900  177.1580  146.2810 C   0  0  2  0  0  3  0  0  0  0  0  0
  191.4780  176.3150  144.5130 N   0  0  0  0  0  2  0  0  0  0  0  0
  191.4570  173.8820  144.4250 C   0  0  0  0  0  1  0  0  0  0  0  0
  192.0470  175.1540  143.8810 C   0  0  2  0  0  3  0  0  0  0  0  0
  194.3380  174.0710  143.3900 N   0  0  0  0  0  2  0  0  0  0  0  0
  193.4890  175.0210  144.1230 C   0  0  0  0  0  0  0  0  0  0  0  0
  194.0770  175.8220  144.9420 O   0  0  0  0  0  0  0  0  0  0  0  0
  195.7660  173.9590  143.6100 C   0  0  1  0  0  3  0  0  0  0  0  0
  197.1410  176.0130  143.1510 O   0  0  0  0  0  1  0  0  0  0  0  0
  197.6770  175.8230  140.5050 N   0  0  0  0  0  1  0  0  0  0  0  0
  195.9470  174.2170  140.8850 S   0  0  0  0  0  0  0  0  0  0  0  0
  196.6860  174.7890  142.5650 C   0  0  2  0  0  0  0  0  0  0  0  0
  197.5530  174.6370  141.3470 C   0  0  2  0  0  3  0  0  0  0  0  0
  196.2170  173.2410  144.7150 O   0  0  0  0  0  0  0  0  0  0  0  0
  197.5890  172.2430  144.2300 S   0  0  0  0  0  0  0  0  0  0  0  0
  196.3930  171.3210  146.1740 N   0  0  0  0  0  1  0  0  0  0  0  0
  196.8100  170.8320  144.8540 C   0  0  0  0  0  2  0  0  0  0  0  0
  1  5  1  0  0  0  0
  2  3  1  0  0  0  0
  2  1  2  0  0  0  0
  3  7  2  0  0  0  0
  4 33  1  0  0  0  0
  5  4  1  0  0  0  0
  6  4  2  0  0  0  0
  7  6  1  0  0  0  0
  8  7  1  0  0  0  0
  9 10  1  6  0  0  0
  9 11  1  0  0  0  0
  9  8  1  0  0  0  0
 12 11  1  0  0  0  0
 13 19  1  6  0  0  0
 13 15  1  0  0  0  0
 15 16  1  0  0  0  0
 16 14  2  0  0  0  0
 17 12  1  6  0  0  0
 17 16  1  0  0  0  0
 18 13  1  0  0  0  0
 18 17  1  0  0  0  0
 20 19  1  0  0  0  0
 21 20  1  0  0  0  0
 22 21  1  0  0  0  0
 23 21  2  0  0  0  0
 24 12  1  0  0  0  0
 25 24  1  0  0  0  0
 26 25  1  0  0  0  0
 27 28  1  6  0  0  0
 27 32  1  0  0  0  0
 27 26  1  0  0  0  0
 29 27  1  0  0  0  0
 30 29  1  0  0  0  0
 32 31  1  0  0  0  0
 33 35  1  0  0  0  0
 34 37  1  0  0  0  0
 35 34  2  0  0  0  0
 36 34  1  0  0  0  0
 38 37  2  0  0  0  0
 38 39  1  0  0  0  0
 40 43  1  6  0  0  0
 40 42  1  0  0  0  0
 40 41  1  0  0  0  0
 42 41  1  0  0  0  0
 42 38  1  1  0  0  0
 45 47  1  0  0  0  0
 45 44  1  1  0  0  0
 45 43  1  0  0  0  0
 46 47  1  0  0  0  0
 47 48  2  0  0  0  0
 49 46  1  1  0  0  0
 49 55  1  0  0  0  0
 52 54  1  0  0  0  0
 52 53  1  0  0  0  0
 53 50  1  1  0  0  0
 53 49  1  0  0  0  0
 54 51  1  6  0  0  0
 54 53  1  0  0  0  0
 56 55  1  0  0  0  0
 56 58  1  0  0  0  0
 58 57  1  0  0  0  0
M  END
>  <MODEL>
9

>  <REMARK>
 VINA RESULT:      -4.8      4.054      8.737
  Name = 
  25 active torsions:
  status: ('A' for Active; 'I' for Inactive)
    1  A    between atoms: C_2  and  C_30
    2  A    between atoms: C_5  and  C_16
    3  A    between atoms: C_7  and  N_17
    4  A    between atoms: C_7  and  C_57
    5  A    between atoms: C_8  and  C_13
    6  A    between atoms: C_8  and  C_35
    7  A    between atoms: C_9  and  C_21
    8  A    between atoms: C_9  and  C_49
    9  A    between atoms: C_10  and  C_14
   10  A    between atoms: C_11  and  N_34
   11  A    between atoms: C_14  and  C_32
   12  A    between atoms: C_14  and  C_39
   13  A    between atoms: N_17  and  C_21
   14  A    between atoms: N_17  and  C_50
   15  A    between atoms: C_19  and  N_34
   16  A    between atoms: C_19  and  C_38
   17  A    between atoms: C_23  and  N_24
   18  A    between atoms: C_23  and  C_36
   19  A    between atoms: C_23  and  O_43
   20  A    between atoms: N_25  and  C_30
   21  A    between atoms: C_27  and  C_40
   22  A    between atoms: C_32  and  C_57
   23  A    between atoms: O_43  and  S_53
   24  A    between atoms: C_46  and  S_53
   25  A    between atoms: C_49  and  C_56
                            x       y       z     vdW  Elec       q    Type
                         _______ _______ _______ _____ _____    ______ ____

>  <TORSDO>
F 25

$$$$
