=
 OpenBabel11042419053D

 43 46  0  0  1  0  0  0  0  0999 V2000
  190.4490  174.3660  141.4860 C   0  0  2  0  0  3  0  0  0  0  0  0
  191.6980  172.9050  142.0730 C   0  0  1  0  0  3  0  0  0  0  0  0
  190.1930  172.9460  141.9470 C   0  0  2  0  0  3  0  0  0  0  0  0
  191.8380  174.2440  141.6570 O   0  0  0  0  0  0  0  0  0  0  0  0
  190.6840  176.4170  142.9680 C   0  0  0  0  0  3  0  0  0  0  0  0
  188.7550  177.3230  144.1150 C   0  0  0  0  0  3  0  0  0  0  0  0
  190.1210  177.3760  143.8120 C   0  0  0  0  0  0  0  0  0  0  0  0
  187.9520  176.3150  143.5750 C   0  0  0  0  0  0  0  0  0  0  0  0
  190.9690  178.4620  144.3730 C   0  0  0  0  0  1  0  0  0  0  0  0
  188.5240  175.3570  142.7270 C   0  0  0  0  0  3  0  0  0  0  0  0
  189.8880  175.3950  142.4270 C   0  0  0  0  0  0  0  0  0  0  0  0
  186.5540  176.2920  143.8870 N   0  0  0  0  0  2  0  0  0  0  0  0
  186.0000  177.7270  141.9980 C   0  0  0  0  0  1  0  0  0  0  0  0
  185.5980  177.2780  143.3920 C   0  0  2  0  0  3  0  0  0  0  0  0
  185.4930  178.4520  144.3250 C   0  0  0  0  0  0  0  0  0  0  0  0
  185.5400  179.6960  143.8500 C   0  0  0  0  0  2  0  0  0  0  0  0
  185.3770  178.2120  145.7740 C   0  0  0  0  0  0  0  0  0  0  0  0
  186.3760  178.3450  146.5300 O   0  0  0  0  0  1  0  0  0  0  0  0
  184.1580  177.8240  146.3190 O   0  0  0  0  0  0  0  0  0  0  0  0
  189.7320  172.0920  140.8040 C   0  0  0  0  0  0  0  0  0  0  0  0
  190.1340  170.8980  140.7110 O   0  0  0  0  0  0  0  0  0  0  0  0
  188.9010  172.6600  139.7850 N   0  0  0  0  0  0  0  0  0  0  0  0
  189.3080  172.8120  138.5670 C   0  0  0  0  0  3  0  0  0  0  0  0
  188.4030  173.4090  137.5490 C   0  0  0  0  0  1  0  0  0  0  0  0
  192.0860  172.7520  143.5420 C   0  0  0  0  0  2  0  0  0  0  0  0
  193.5580  172.3980  143.6730 C   0  0  2  0  0  3  0  0  0  0  0  0
  193.8420  171.5910  144.9290 C   0  0  0  0  0  1  0  0  0  0  0  0
  196.3210  174.8350  142.6540 N   0  0  0  0  0  0  0  0  0  0  0  0
  193.4480  176.0420  145.8500 C   0  0  0  0  0  0  0  0  0  0  0  0
  193.2330  174.8240  145.3000 N   0  0  0  0  0  0  0  0  0  0  0  0
  196.8960  177.0580  143.4180 N   0  0  0  0  0  1  0  0  0  0  0  0
  194.1880  174.7160  144.3620 C   0  0  0  0  0  0  0  0  0  0  0  0
  196.0610  175.9050  143.4590 C   0  0  2  0  0  3  0  0  0  0  0  0
  194.4250  173.6180  143.5300 C   0  0  0  0  0  0  0  0  0  0  0  0
  194.5320  176.7140  145.2860 C   0  0  0  0  0  3  0  0  0  0  0  0
  195.5520  173.7000  142.6700 C   0  0  0  0  0  0  0  0  0  0  0  0
  194.9800  175.8270  144.3310 C   0  0  0  0  0  0  0  0  0  0  0  0
  195.9500  172.5640  141.7890 C   0  0  0  0  0  1  0  0  0  0  0  0
  192.6530  176.5500  147.0010 C   0  0  0  0  0  2  0  0  0  0  0  0
  191.6580  175.4890  147.4380 C   0  0  0  0  0  2  0  0  0  0  0  0
  190.2370  176.0220  147.3400 C   0  0  0  0  0  2  0  0  0  0  0  0
  189.2960  174.9500  146.8920 C   0  0  0  0  0  3  0  0  0  0  0  0
  189.6640  174.0360  145.9950 C   0  0  0  0  0  2  0  0  0  0  0  0
  1  4  1  0  0  0  0
  1  3  1  0  0  0  0
  1 11  1  1  0  0  0
  2 25  1  1  0  0  0
  3 20  1  6  0  0  0
  3  2  1  0  0  0  0
  4  2  1  0  0  0  0
  5  7  1  0  0  0  0
  7  6  2  0  0  0  0
  7  9  1  0  0  0  0
  8 12  1  0  0  0  0
  8  6  1  0  0  0  0
 10  8  2  0  0  0  0
 11 10  1  0  0  0  0
 11  5  2  0  0  0  0
 14 13  1  6  0  0  0
 14 12  1  0  0  0  0
 14 15  1  0  0  0  0
 15 17  1  0  0  0  0
 16 15  2  0  0  0  0
 17 19  2  0  0  0  0
 17 18  1  0  0  0  0
 21 20  2  0  0  0  0
 22 20  1  0  0  0  0
 23 22  2  0  0  0  0
 24 23  1  0  0  0  0
 25 26  1  0  0  0  0
 26 27  1  1  0  0  0
 28 36  2  0  0  0  0
 28 33  1  0  0  0  0
 29 39  1  0  0  0  0
 30 29  2  0  0  0  0
 32 30  1  0  0  0  0
 33 31  1  1  0  0  0
 33 37  1  0  0  0  0
 34 26  1  0  0  0  0
 34 32  2  0  0  0  0
 35 29  1  0  0  0  0
 36 34  1  0  0  0  0
 37 32  1  0  0  0  0
 37 35  2  0  0  0  0
 38 36  1  0  0  0  0
 39 40  1  0  0  0  0
 41 40  1  0  0  0  0
 42 41  1  0  0  0  0
 43 42  2  0  0  0  0
M  END
>  <MODEL>
1

>  <REMARK>
 VINA RESULT:      -6.9      0.000      0.000
  Name = 
  14 active torsions:
  status: ('A' for Active; 'I' for Inactive)
    1  A    between atoms: N_2  and  C_3
    2  A    between atoms: C_3  and  C_24
    3  A    between atoms: C_4  and  C_16
    4  A    between atoms: C_4  and  C_34
    5  A    between atoms: C_5  and  C_10
    6  A    between atoms: C_5  and  C_18
    7  A    between atoms: C_7  and  C_41
    8  A    between atoms: C_8  and  C_13
    9  A    between atoms: C_8  and  C_39
   10  A    between atoms: C_9  and  C_11
   11  A    between atoms: C_9  and  C_39
   12  A    between atoms: C_18  and  N_43
   13  A    between atoms: C_26  and  C_34
   14  A    between atoms: C_33  and  N_43
                            x       y       z     vdW  Elec       q    Type
                         _______ _______ _______ _____ _____    ______ ____

>  <TORSDO>
F 14

$$$$
=
 OpenBabel11042419053D

 43 46  0  0  1  0  0  0  0  0999 V2000
  189.0950  173.0930  141.7190 C   0  0  2  0  0  3  0  0  0  0  0  0
  188.0140  174.7590  141.4090 C   0  0  1  0  0  3  0  0  0  0  0  0
  189.3130  174.2810  140.8050 C   0  0  2  0  0  3  0  0  0  0  0  0
  187.9060  173.6280  142.2430 O   0  0  0  0  0  0  0  0  0  0  0  0
  191.2820  172.1760  142.6330 C   0  0  0  0  0  3  0  0  0  0  0  0
  192.0910  172.8820  144.8020 C   0  0  0  0  0  3  0  0  0  0  0  0
  192.2510  172.1230  143.6360 C   0  0  0  0  0  0  0  0  0  0  0  0
  190.9660  173.6940  144.9650 C   0  0  0  0  0  0  0  0  0  0  0  0
  193.4600  171.2750  143.4560 C   0  0  0  0  0  1  0  0  0  0  0  0
  189.9970  173.7430  143.9530 C   0  0  0  0  0  3  0  0  0  0  0  0
  190.1420  172.9810  142.7910 C   0  0  0  0  0  0  0  0  0  0  0  0
  190.8330  174.4730  146.1600 N   0  0  0  0  0  2  0  0  0  0  0  0
  191.2520  176.2290  147.7960 C   0  0  0  0  0  1  0  0  0  0  0  0
  191.7320  175.5650  146.5170 C   0  0  2  0  0  3  0  0  0  0  0  0
  191.8440  176.5660  145.4020 C   0  0  0  0  0  0  0  0  0  0  0  0
  190.7780  177.2690  145.0170 C   0  0  0  0  0  2  0  0  0  0  0  0
  193.1350  176.7350  144.7120 C   0  0  0  0  0  0  0  0  0  0  0  0
  194.0850  177.3510  145.2660 O   0  0  0  0  0  1  0  0  0  0  0  0
  193.3120  176.2220  143.4320 O   0  0  0  0  0  0  0  0  0  0  0  0
  189.1200  173.8880  139.3700 C   0  0  0  0  0  0  0  0  0  0  0  0
  188.1160  174.3150  138.7330 O   0  0  0  0  0  0  0  0  0  0  0  0
  190.0340  172.9720  138.7570 N   0  0  0  0  0  0  0  0  0  0  0  0
  191.3040  173.2050  138.6860 C   0  0  0  0  0  3  0  0  0  0  0  0
  192.2070  172.2190  138.0370 C   0  0  0  0  0  1  0  0  0  0  0  0
  188.2640  176.0180  142.2350 C   0  0  0  0  0  2  0  0  0  0  0  0
  188.0090  177.2640  141.4050 C   0  0  2  0  0  3  0  0  0  0  0  0
  188.8050  178.4580  141.9040 C   0  0  0  0  0  1  0  0  0  0  0  0
  184.4850  177.7740  140.0120 N   0  0  0  0  0  0  0  0  0  0  0  0
  185.2680  178.7160  144.3050 C   0  0  0  0  0  0  0  0  0  0  0  0
  186.3260  178.2370  143.6090 N   0  0  0  0  0  0  0  0  0  0  0  0
  182.4310  178.5520  141.0250 N   0  0  0  0  0  1  0  0  0  0  0  0
  185.8310  178.0030  142.3820 C   0  0  0  0  0  0  0  0  0  0  0  0
  183.8100  178.2100  141.1140 C   0  0  2  0  0  3  0  0  0  0  0  0
  186.5360  177.5340  141.2700 C   0  0  0  0  0  0  0  0  0  0  0  0
  184.1040  178.8020  143.5420 C   0  0  0  0  0  3  0  0  0  0  0  0
  185.8160  177.4470  140.0490 C   0  0  0  0  0  0  0  0  0  0  0  0
  184.5090  178.3330  142.3100 C   0  0  0  0  0  0  0  0  0  0  0  0
  186.4780  177.0300  138.7780 C   0  0  0  0  0  1  0  0  0  0  0  0
  185.3840  179.1830  145.7130 C   0  0  0  0  0  2  0  0  0  0  0  0
  184.5670  178.2760  146.6170 C   0  0  0  0  0  2  0  0  0  0  0  0
  185.0810  176.8470  146.5390 C   0  0  0  0  0  2  0  0  0  0  0  0
  186.3240  176.6830  147.3540 C   0  0  0  0  0  3  0  0  0  0  0  0
  187.5080  176.4840  146.7770 C   0  0  0  0  0  2  0  0  0  0  0  0
  1  4  1  0  0  0  0
  1 11  1  1  0  0  0
  2 25  1  1  0  0  0
  2  4  1  0  0  0  0
  3 20  1  6  0  0  0
  3  2  1  0  0  0  0
  3  1  1  0  0  0  0
  5 11  2  0  0  0  0
  5  7  1  0  0  0  0
  6  8  1  0  0  0  0
  7  6  2  0  0  0  0
  8 12  1  0  0  0  0
  9  7  1  0  0  0  0
 10  8  2  0  0  0  0
 11 10  1  0  0  0  0
 12 14  1  0  0  0  0
 14 13  1  1  0  0  0
 15 14  1  0  0  0  0
 16 15  2  0  0  0  0
 17 18  1  0  0  0  0
 17 15  1  0  0  0  0
 19 17  2  0  0  0  0
 21 20  2  0  0  0  0
 22 20  1  0  0  0  0
 23 22  2  0  0  0  0
 24 23  1  0  0  0  0
 26 27  1  1  0  0  0
 26 25  1  0  0  0  0
 28 36  2  0  0  0  0
 28 33  1  0  0  0  0
 29 39  1  0  0  0  0
 30 29  2  0  0  0  0
 32 30  1  0  0  0  0
 33 31  1  6  0  0  0
 33 37  1  0  0  0  0
 34 26  1  0  0  0  0
 34 32  2  0  0  0  0
 35 29  1  0  0  0  0
 36 34  1  0  0  0  0
 37 32  1  0  0  0  0
 37 35  2  0  0  0  0
 38 36  1  0  0  0  0
 39 40  1  0  0  0  0
 41 40  1  0  0  0  0
 41 42  1  0  0  0  0
 43 42  2  0  0  0  0
M  END
>  <MODEL>
2

>  <REMARK>
 VINA RESULT:      -6.7      2.755      7.393
  Name = 
  14 active torsions:
  status: ('A' for Active; 'I' for Inactive)
    1  A    between atoms: N_2  and  C_3
    2  A    between atoms: C_3  and  C_24
    3  A    between atoms: C_4  and  C_16
    4  A    between atoms: C_4  and  C_34
    5  A    between atoms: C_5  and  C_10
    6  A    between atoms: C_5  and  C_18
    7  A    between atoms: C_7  and  C_41
    8  A    between atoms: C_8  and  C_13
    9  A    between atoms: C_8  and  C_39
   10  A    between atoms: C_9  and  C_11
   11  A    between atoms: C_9  and  C_39
   12  A    between atoms: C_18  and  N_43
   13  A    between atoms: C_26  and  C_34
   14  A    between atoms: C_33  and  N_43
                            x       y       z     vdW  Elec       q    Type
                         _______ _______ _______ _____ _____    ______ ____

>  <TORSDO>
F 14

$$$$
=
 OpenBabel11042419053D

 43 46  0  0  1  0  0  0  0  0999 V2000
  191.1580  173.9130  141.3820 C   0  0  2  0  0  3  0  0  0  0  0  0
  192.0940  172.4250  142.3550 C   0  0  1  0  0  3  0  0  0  0  0  0
  190.6660  172.5720  141.8850 C   0  0  2  0  0  3  0  0  0  0  0  0
  192.4560  173.7000  141.8750 O   0  0  0  0  0  0  0  0  0  0  0  0
  191.2640  176.0750  142.7130 C   0  0  0  0  0  3  0  0  0  0  0  0
  189.2310  177.2460  143.3050 C   0  0  0  0  0  3  0  0  0  0  0  0
  190.6280  177.1560  143.3250 C   0  0  0  0  0  0  0  0  0  0  0  0
  188.4700  176.2600  142.6730 C   0  0  0  0  0  0  0  0  0  0  0  0
  191.4360  178.2180  143.9830 C   0  0  0  0  0  1  0  0  0  0  0  0
  189.1160  175.1780  142.0590 C   0  0  0  0  0  3  0  0  0  0  0  0
  190.5090  175.0730  142.0830 C   0  0  0  0  0  0  0  0  0  0  0  0
  187.0430  176.3830  142.6510 N   0  0  0  0  0  2  0  0  0  0  0  0
  187.2740  177.5650  140.5340 C   0  0  0  0  0  1  0  0  0  0  0  0
  186.3040  177.0460  141.5810 C   0  0  2  0  0  3  0  0  0  0  0  0
  185.4480  178.1580  142.1180 C   0  0  0  0  0  0  0  0  0  0  0  0
  185.9280  178.9950  143.0380 C   0  0  0  0  0  2  0  0  0  0  0  0
  184.0580  178.2900  141.6450 C   0  0  0  0  0  0  0  0  0  0  0  0
  183.0990  178.3090  142.4630 O   0  0  0  0  0  1  0  0  0  0  0  0
  183.7930  178.3820  140.2840 O   0  0  0  0  0  0  0  0  0  0  0  0
  190.3850  171.6460  140.7390 C   0  0  0  0  0  0  0  0  0  0  0  0
  190.5150  170.3990  140.8950 O   0  0  0  0  0  0  0  0  0  0  0  0
  190.0460  172.1860  139.4570 N   0  0  0  0  0  0  0  0  0  0  0  0
  188.8260  172.4450  139.1170 C   0  0  0  0  0  3  0  0  0  0  0  0
  188.5310  173.0040  137.7720 C   0  0  0  0  0  1  0  0  0  0  0  0
  192.1320  172.3910  143.8810 C   0  0  0  0  0  2  0  0  0  0  0  0
  193.5620  172.4860  144.3840 C   0  0  2  0  0  3  0  0  0  0  0  0
  193.9120  171.3520  145.3320 C   0  0  0  0  0  1  0  0  0  0  0  0
  195.3050  175.7060  145.4860 N   0  0  0  0  0  0  0  0  0  0  0  0
  191.0460  175.0500  146.6480 C   0  0  0  0  0  0  0  0  0  0  0  0
  191.6030  174.0730  145.8940 N   0  0  0  0  0  0  0  0  0  0  0  0
  194.5470  177.6100  146.7710 N   0  0  0  0  0  1  0  0  0  0  0  0
  192.8470  174.5170  145.6530 C   0  0  0  0  0  0  0  0  0  0  0  0
  194.3070  176.3480  146.1570 C   0  0  2  0  0  3  0  0  0  0  0  0
  193.8510  173.8520  144.9430 C   0  0  0  0  0  0  0  0  0  0  0  0
  191.9160  176.1090  146.9030 C   0  0  0  0  0  3  0  0  0  0  0  0
  195.1220  174.4830  144.8920 C   0  0  0  0  0  0  0  0  0  0  0  0
  193.0660  175.7280  146.2440 C   0  0  0  0  0  0  0  0  0  0  0  0
  196.2910  173.8380  144.2260 C   0  0  0  0  0  1  0  0  0  0  0  0
  189.6730  174.9380  147.2120 C   0  0  0  0  0  2  0  0  0  0  0  0
  188.6820  175.5970  146.2690 C   0  0  0  0  0  2  0  0  0  0  0  0
  187.9270  176.7070  146.9830 C   0  0  0  0  0  2  0  0  0  0  0  0
  186.8430  177.2590  146.1140 C   0  0  0  0  0  3  0  0  0  0  0  0
  185.6120  176.7490  146.1360 C   0  0  0  0  0  2  0  0  0  0  0  0
  1  4  1  0  0  0  0
  1  3  1  0  0  0  0
  1 11  1  1  0  0  0
  2 25  1  1  0  0  0
  3 20  1  6  0  0  0
  3  2  1  0  0  0  0
  4  2  1  0  0  0  0
  5  7  1  0  0  0  0
  6  7  2  0  0  0  0
  7  9  1  0  0  0  0
  8  6  1  0  0  0  0
 10 11  1  0  0  0  0
 10  8  2  0  0  0  0
 11  5  2  0  0  0  0
 12  8  1  0  0  0  0
 14 13  1  6  0  0  0
 14 15  1  0  0  0  0
 14 12  1  0  0  0  0
 15 16  2  0  0  0  0
 17 15  1  0  0  0  0
 17 18  1  0  0  0  0
 19 17  2  0  0  0  0
 20 21  2  0  0  0  0
 22 20  1  0  0  0  0
 23 22  2  0  0  0  0
 24 23  1  0  0  0  0
 25 26  1  0  0  0  0
 26 34  1  0  0  0  0
 26 27  1  1  0  0  0
 28 33  1  0  0  0  0
 29 35  1  0  0  0  0
 29 39  1  0  0  0  0
 30 29  2  0  0  0  0
 32 30  1  0  0  0  0
 32 37  1  0  0  0  0
 33 37  1  0  0  0  0
 33 31  1  1  0  0  0
 34 32  2  0  0  0  0
 36 34  1  0  0  0  0
 36 28  2  0  0  0  0
 37 35  2  0  0  0  0
 38 36  1  0  0  0  0
 40 41  1  0  0  0  0
 40 39  1  0  0  0  0
 42 43  2  0  0  0  0
 42 41  1  0  0  0  0
M  END
>  <MODEL>
3

>  <REMARK>
 VINA RESULT:      -6.7      1.674      2.453
  Name = 
  14 active torsions:
  status: ('A' for Active; 'I' for Inactive)
    1  A    between atoms: N_2  and  C_3
    2  A    between atoms: C_3  and  C_24
    3  A    between atoms: C_4  and  C_16
    4  A    between atoms: C_4  and  C_34
    5  A    between atoms: C_5  and  C_10
    6  A    between atoms: C_5  and  C_18
    7  A    between atoms: C_7  and  C_41
    8  A    between atoms: C_8  and  C_13
    9  A    between atoms: C_8  and  C_39
   10  A    between atoms: C_9  and  C_11
   11  A    between atoms: C_9  and  C_39
   12  A    between atoms: C_18  and  N_43
   13  A    between atoms: C_26  and  C_34
   14  A    between atoms: C_33  and  N_43
                            x       y       z     vdW  Elec       q    Type
                         _______ _______ _______ _____ _____    ______ ____

>  <TORSDO>
F 14

$$$$
=
 OpenBabel11042419053D

 43 46  0  0  1  0  0  0  0  0999 V2000
  189.3430  172.8790  141.4180 C   0  0  2  0  0  3  0  0  0  0  0  0
  188.0930  174.4360  141.6460 C   0  0  1  0  0  3  0  0  0  0  0  0
  189.2500  174.2100  140.7020 C   0  0  2  0  0  3  0  0  0  0  0  0
  188.2700  173.1860  142.2720 O   0  0  0  0  0  0  0  0  0  0  0  0
  190.9950  171.4970  142.7670 C   0  0  0  0  0  3  0  0  0  0  0  0
  193.0420  172.4970  143.5850 C   0  0  0  0  0  3  0  0  0  0  0  0
  192.2020  171.3840  143.4590 C   0  0  0  0  0  0  0  0  0  0  0  0
  192.6790  173.7220  143.0190 C   0  0  0  0  0  0  0  0  0  0  0  0
  192.6010  170.0770  144.0470 C   0  0  0  0  0  1  0  0  0  0  0  0
  191.4660  173.8270  142.3230 C   0  0  0  0  0  3  0  0  0  0  0  0
  190.6160  172.7250  142.2020 C   0  0  0  0  0  0  0  0  0  0  0  0
  193.5620  174.8420  143.1470 N   0  0  0  0  0  2  0  0  0  0  0  0
  192.5550  177.0440  143.4080 C   0  0  0  0  0  1  0  0  0  0  0  0
  193.3460  175.9390  144.0850 C   0  0  2  0  0  3  0  0  0  0  0  0
  194.6500  176.4630  144.6200 C   0  0  0  0  0  0  0  0  0  0  0  0
  194.6680  177.2570  145.6900 C   0  0  0  0  0  2  0  0  0  0  0  0
  195.9030  176.1200  143.9260 C   0  0  0  0  0  0  0  0  0  0  0  0
  196.2590  176.7490  142.8920 O   0  0  0  0  0  0  0  0  0  0  0  0
  196.7030  175.0880  144.4020 O   0  0  0  0  0  1  0  0  0  0  0  0
  188.7610  174.0230  139.2960 C   0  0  0  0  0  0  0  0  0  0  0  0
  189.3110  173.1650  138.5500 O   0  0  0  0  0  0  0  0  0  0  0  0
  187.7260  174.8720  138.7860 N   0  0  0  0  0  0  0  0  0  0  0  0
  187.5740  175.0930  137.5220 C   0  0  0  0  0  3  0  0  0  0  0  0
  186.4830  175.9840  137.0480 C   0  0  0  0  0  1  0  0  0  0  0  0
  188.4290  175.5740  142.6070 C   0  0  0  0  0  2  0  0  0  0  0  0
  187.7170  176.8510  142.1970 C   0  0  2  0  0  3  0  0  0  0  0  0
  188.6910  177.9540  141.8190 C   0  0  0  0  0  1  0  0  0  0  0  0
  184.5530  178.1030  143.9400 N   0  0  0  0  0  0  0  0  0  0  0  0
  188.2140  177.3610  146.3830 C   0  0  0  0  0  0  0  0  0  0  0  0
  188.3270  177.0860  145.0620 N   0  0  0  0  0  0  0  0  0  0  0  0
  184.0620  178.6180  146.2520 N   0  0  0  0  0  1  0  0  0  0  0  0
  187.1060  177.3520  144.5680 C   0  0  0  0  0  0  0  0  0  0  0  0
  184.9550  178.1610  145.2410 C   0  0  2  0  0  3  0  0  0  0  0  0
  186.7070  177.2650  143.2310 C   0  0  0  0  0  0  0  0  0  0  0  0
  186.9430  177.8080  146.7430 C   0  0  0  0  0  3  0  0  0  0  0  0
  185.3830  177.6820  142.9330 C   0  0  0  0  0  0  0  0  0  0  0  0
  186.2590  177.7870  145.5450 C   0  0  0  0  0  0  0  0  0  0  0  0
  184.8650  177.7040  141.5330 C   0  0  0  0  0  1  0  0  0  0  0  0
  189.3680  177.2750  147.3180 C   0  0  0  0  0  2  0  0  0  0  0  0
  190.6000  176.8080  146.5620 C   0  0  0  0  0  2  0  0  0  0  0  0
  190.9350  175.3710  146.9300 C   0  0  0  0  0  2  0  0  0  0  0  0
  190.6680  174.4510  145.7830 C   0  0  0  0  0  3  0  0  0  0  0  0
  189.5590  173.7130  145.7300 C   0  0  0  0  0  2  0  0  0  0  0  0
  1 11  1  1  0  0  0
  1  4  1  0  0  0  0
  2  4  1  0  0  0  0
  2 25  1  1  0  0  0
  3 20  1  6  0  0  0
  3  1  1  0  0  0  0
  3  2  1  0  0  0  0
  5  7  1  0  0  0  0
  7  6  2  0  0  0  0
  7  9  1  0  0  0  0
  8 12  1  0  0  0  0
  8  6  1  0  0  0  0
 10  8  2  0  0  0  0
 11 10  1  0  0  0  0
 11  5  2  0  0  0  0
 12 14  1  0  0  0  0
 14 13  1  6  0  0  0
 14 15  1  0  0  0  0
 15 16  2  0  0  0  0
 17 19  1  0  0  0  0
 17 15  1  0  0  0  0
 18 17  2  0  0  0  0
 21 20  2  0  0  0  0
 22 20  1  0  0  0  0
 23 22  2  0  0  0  0
 24 23  1  0  0  0  0
 26 27  1  1  0  0  0
 26 25  1  0  0  0  0
 26 34  1  0  0  0  0
 28 33  1  0  0  0  0
 29 35  1  0  0  0  0
 29 39  1  0  0  0  0
 30 29  2  0  0  0  0
 32 30  1  0  0  0  0
 32 37  1  0  0  0  0
 33 37  1  0  0  0  0
 33 31  1  6  0  0  0
 34 32  2  0  0  0  0
 36 34  1  0  0  0  0
 36 28  2  0  0  0  0
 37 35  2  0  0  0  0
 38 36  1  0  0  0  0
 40 41  1  0  0  0  0
 40 39  1  0  0  0  0
 42 41  1  0  0  0  0
 43 42  2  0  0  0  0
M  END
>  <MODEL>
4

>  <REMARK>
 VINA RESULT:      -6.6      2.424      7.286
  Name = 
  14 active torsions:
  status: ('A' for Active; 'I' for Inactive)
    1  A    between atoms: N_2  and  C_3
    2  A    between atoms: C_3  and  C_24
    3  A    between atoms: C_4  and  C_16
    4  A    between atoms: C_4  and  C_34
    5  A    between atoms: C_5  and  C_10
    6  A    between atoms: C_5  and  C_18
    7  A    between atoms: C_7  and  C_41
    8  A    between atoms: C_8  and  C_13
    9  A    between atoms: C_8  and  C_39
   10  A    between atoms: C_9  and  C_11
   11  A    between atoms: C_9  and  C_39
   12  A    between atoms: C_18  and  N_43
   13  A    between atoms: C_26  and  C_34
   14  A    between atoms: C_33  and  N_43
                            x       y       z     vdW  Elec       q    Type
                         _______ _______ _______ _____ _____    ______ ____

>  <TORSDO>
F 14

$$$$
=
 OpenBabel11042419053D

 43 46  0  0  1  0  0  0  0  0999 V2000
  190.0490  173.8940  143.0370 C   0  0  2  0  0  3  0  0  0  0  0  0
  188.3060  174.7440  142.5090 C   0  0  1  0  0  3  0  0  0  0  0  0
  189.6670  174.7580  141.8530 C   0  0  2  0  0  3  0  0  0  0  0  0
  188.7580  173.9570  143.5880 O   0  0  0  0  0  0  0  0  0  0  0  0
  190.8410  174.6460  145.3320 C   0  0  0  0  0  3  0  0  0  0  0  0
  192.9830  175.7420  145.5860 C   0  0  0  0  0  3  0  0  0  0  0  0
  191.8040  175.2390  146.1490 C   0  0  0  0  0  0  0  0  0  0  0  0
  193.2010  175.6520  144.2090 C   0  0  0  0  0  0  0  0  0  0  0  0
  191.5840  175.3200  147.6190 C   0  0  0  0  0  1  0  0  0  0  0  0
  192.2290  175.0530  143.3950 C   0  0  0  0  0  3  0  0  0  0  0  0
  191.0450  174.5570  143.9450 C   0  0  0  0  0  0  0  0  0  0  0  0
  194.4220  176.1600  143.6590 N   0  0  0  0  0  2  0  0  0  0  0  0
  196.8060  176.5940  143.4130 C   0  0  0  0  0  1  0  0  0  0  0  0
  195.7430  175.8350  144.1870 C   0  0  2  0  0  3  0  0  0  0  0  0
  196.0000  174.3540  144.1400 C   0  0  0  0  0  0  0  0  0  0  0  0
  196.1300  173.7290  142.9700 C   0  0  0  0  0  2  0  0  0  0  0  0
  196.0680  173.5950  145.4010 C   0  0  0  0  0  0  0  0  0  0  0  0
  196.9960  173.8040  146.2290 O   0  0  0  0  0  1  0  0  0  0  0  0
  195.1090  172.6290  145.6850 O   0  0  0  0  0  0  0  0  0  0  0  0
  189.6560  173.9500  140.5890 C   0  0  0  0  0  0  0  0  0  0  0  0
  188.8260  174.2250  139.6770 O   0  0  0  0  0  0  0  0  0  0  0  0
  190.5330  172.8250  140.4580 N   0  0  0  0  0  0  0  0  0  0  0  0
  190.8660  172.3390  139.3070 C   0  0  0  0  0  3  0  0  0  0  0  0
  191.7800  171.1690  139.2300 C   0  0  0  0  0  1  0  0  0  0  0  0
  187.9490  176.1510  142.9800 C   0  0  0  0  0  2  0  0  0  0  0  0
  187.8580  177.1050  141.8010 C   0  0  2  0  0  3  0  0  0  0  0  0
  188.7370  178.3300  141.9860 C   0  0  0  0  0  1  0  0  0  0  0  0
  184.5860  177.8350  139.9620 N   0  0  0  0  0  0  0  0  0  0  0  0
  184.7540  178.4180  144.3840 C   0  0  0  0  0  0  0  0  0  0  0  0
  185.8910  177.9600  143.8120 N   0  0  0  0  0  0  0  0  0  0  0  0
  182.4230  178.5990  140.7290 N   0  0  0  0  0  1  0  0  0  0  0  0
  185.5760  177.8370  142.5120 C   0  0  0  0  0  0  0  0  0  0  0  0
  183.7670  178.2060  140.9870 C   0  0  2  0  0  3  0  0  0  0  0  0
  186.4260  177.4320  141.4780 C   0  0  0  0  0  0  0  0  0  0  0  0
  183.7160  178.6010  143.4710 C   0  0  0  0  0  3  0  0  0  0  0  0
  185.8900  177.4620  140.1630 C   0  0  0  0  0  0  0  0  0  0  0  0
  184.2860  178.2140  142.2770 C   0  0  0  0  0  0  0  0  0  0  0  0
  186.7210  177.1220  138.9710 C   0  0  0  0  0  1  0  0  0  0  0  0
  184.6730  178.7720  145.8270 C   0  0  0  0  0  2  0  0  0  0  0  0
  185.0850  177.5750  146.6670 C   0  0  0  0  0  2  0  0  0  0  0  0
  186.2860  177.9220  147.5330 C   0  0  0  0  0  2  0  0  0  0  0  0
  187.5550  177.4490  146.8990 C   0  0  0  0  0  3  0  0  0  0  0  0
  187.8270  176.1500  146.7800 C   0  0  0  0  0  2  0  0  0  0  0  0
  1  4  1  0  0  0  0
  1 11  1  1  0  0  0
  2 25  1  1  0  0  0
  2  4  1  0  0  0  0
  3 20  1  6  0  0  0
  3  2  1  0  0  0  0
  3  1  1  0  0  0  0
  5  7  1  0  0  0  0
  6  7  2  0  0  0  0
  7  9  1  0  0  0  0
  8  6  1  0  0  0  0
 10 11  1  0  0  0  0
 10  8  2  0  0  0  0
 11  5  2  0  0  0  0
 12 14  1  0  0  0  0
 12  8  1  0  0  0  0
 14 13  1  6  0  0  0
 15 14  1  0  0  0  0
 15 17  1  0  0  0  0
 16 15  2  0  0  0  0
 17 19  2  0  0  0  0
 17 18  1  0  0  0  0
 21 20  2  0  0  0  0
 22 20  1  0  0  0  0
 23 22  2  0  0  0  0
 24 23  1  0  0  0  0
 26 27  1  1  0  0  0
 26 25  1  0  0  0  0
 28 36  2  0  0  0  0
 28 33  1  0  0  0  0
 29 39  1  0  0  0  0
 30 29  2  0  0  0  0
 32 30  1  0  0  0  0
 33 31  1  6  0  0  0
 33 37  1  0  0  0  0
 34 26  1  0  0  0  0
 34 32  2  0  0  0  0
 35 29  1  0  0  0  0
 36 34  1  0  0  0  0
 37 32  1  0  0  0  0
 37 35  2  0  0  0  0
 38 36  1  0  0  0  0
 39 40  1  0  0  0  0
 40 41  1  0  0  0  0
 42 41  1  0  0  0  0
 43 42  2  0  0  0  0
M  END
>  <MODEL>
5

>  <REMARK>
 VINA RESULT:      -6.5      2.486      8.102
  Name = 
  14 active torsions:
  status: ('A' for Active; 'I' for Inactive)
    1  A    between atoms: N_2  and  C_3
    2  A    between atoms: C_3  and  C_24
    3  A    between atoms: C_4  and  C_16
    4  A    between atoms: C_4  and  C_34
    5  A    between atoms: C_5  and  C_10
    6  A    between atoms: C_5  and  C_18
    7  A    between atoms: C_7  and  C_41
    8  A    between atoms: C_8  and  C_13
    9  A    between atoms: C_8  and  C_39
   10  A    between atoms: C_9  and  C_11
   11  A    between atoms: C_9  and  C_39
   12  A    between atoms: C_18  and  N_43
   13  A    between atoms: C_26  and  C_34
   14  A    between atoms: C_33  and  N_43
                            x       y       z     vdW  Elec       q    Type
                         _______ _______ _______ _____ _____    ______ ____

>  <TORSDO>
F 14

$$$$
=
 OpenBabel11042419053D

 43 46  0  0  1  0  0  0  0  0999 V2000
  193.2260  176.6520  145.1040 C   0  0  2  0  0  3  0  0  0  0  0  0
  191.4940  175.7950  144.5560 C   0  0  1  0  0  3  0  0  0  0  0  0
  192.2710  175.7430  145.8500 C   0  0  2  0  0  3  0  0  0  0  0  0
  192.4500  176.6220  143.9340 O   0  0  0  0  0  0  0  0  0  0  0  0
  195.1420  175.1270  145.7870 C   0  0  0  0  0  3  0  0  0  0  0  0
  197.0390  174.8170  144.3180 C   0  0  0  0  0  3  0  0  0  0  0  0
  196.3740  174.5310  145.5160 C   0  0  0  0  0  0  0  0  0  0  0  0
  196.4740  175.6950  143.3900 C   0  0  0  0  0  0  0  0  0  0  0  0
  196.9700  173.5800  146.4940 C   0  0  0  0  0  1  0  0  0  0  0  0
  195.2350  176.2880  143.6690 C   0  0  0  0  0  3  0  0  0  0  0  0
  194.5680  176.0180  144.8660 C   0  0  0  0  0  0  0  0  0  0  0  0
  197.1670  175.9590  142.1640 N   0  0  0  0  0  2  0  0  0  0  0  0
  197.9130  175.6660  139.8640 C   0  0  0  0  0  1  0  0  0  0  0  0
  197.2450  175.0090  141.0600 C   0  0  2  0  0  3  0  0  0  0  0  0
  195.8850  174.4850  140.6930 C   0  0  0  0  0  0  0  0  0  0  0  0
  195.0520  175.2260  139.9620 C   0  0  0  0  0  2  0  0  0  0  0  0
  195.4670  173.1600  141.1830 C   0  0  0  0  0  0  0  0  0  0  0  0
  196.0190  172.1120  140.7530 O   0  0  0  0  0  0  0  0  0  0  0  0
  194.4470  173.0550  142.1220 O   0  0  0  0  0  1  0  0  0  0  0  0
  191.5560  176.4980  146.9300 C   0  0  0  0  0  0  0  0  0  0  0  0
  192.1910  176.8820  147.9530 O   0  0  0  0  0  0  0  0  0  0  0  0
  190.1430  176.7100  146.8310 N   0  0  0  0  0  0  0  0  0  0  0  0
  189.2850  175.7690  147.0580 C   0  0  0  0  0  3  0  0  0  0  0  0
  187.8290  176.0450  146.9390 C   0  0  0  0  0  1  0  0  0  0  0  0
  191.4760  174.4110  143.9110 C   0  0  0  0  0  2  0  0  0  0  0  0
  190.0590  173.8660  143.8490 C   0  0  2  0  0  3  0  0  0  0  0  0
  189.9590  172.4640  144.4260 C   0  0  0  0  0  1  0  0  0  0  0  0
  189.3040  173.3680  140.1350 N   0  0  0  0  0  0  0  0  0  0  0  0
  187.5190  176.8700  142.2490 C   0  0  0  0  0  0  0  0  0  0  0  0
  188.2750  176.0480  143.0150 N   0  0  0  0  0  2  0  0  0  0  0  0
  187.9670  174.6290  138.5610 N   0  0  0  0  0  1  0  0  0  0  0  0
  188.6560  175.0750  142.1710 C   0  0  0  0  0  0  0  0  0  0  0  0
  188.4750  174.4190  139.8750 C   0  0  0  0  0  0  0  0  0  0  0  0
  189.4900  173.9920  142.4630 C   0  0  0  0  0  0  0  0  0  0  0  0
  187.4170  176.4460  140.9260 C   0  0  0  0  0  3  0  0  0  0  0  0
  189.8260  173.1350  141.3810 C   0  0  0  0  0  0  0  0  0  0  0  0
  188.1630  175.2860  140.9160 C   0  0  0  0  0  0  0  0  0  0  0  0
  190.7650  171.9880  141.5520 C   0  0  0  0  0  1  0  0  0  0  0  0
  186.9440  178.1390  142.7700 C   0  0  0  0  0  2  0  0  0  0  0  0
  186.1040  177.8480  144.0020 C   0  0  0  0  0  2  0  0  0  0  0  0
  185.4360  179.1200  144.5010 C   0  0  0  0  0  2  0  0  0  0  0  0
  185.1270  179.0220  145.9610 C   0  0  0  0  0  3  0  0  0  0  0  0
  184.5930  177.9180  146.4820 C   0  0  0  0  0  2  0  0  0  0  0  0
  1 11  1  6  0  0  0
  1  3  1  0  0  0  0
  2 25  1  6  0  0  0
  2  3  1  0  0  0  0
  3 20  1  1  0  0  0
  4  2  1  0  0  0  0
  4  1  1  0  0  0  0
  6  7  2  0  0  0  0
  7  5  1  0  0  0  0
  7  9  1  0  0  0  0
  8 10  2  0  0  0  0
  8  6  1  0  0  0  0
 10 11  1  0  0  0  0
 11  5  2  0  0  0  0
 12  8  1  0  0  0  0
 14 13  1  6  0  0  0
 14 12  1  0  0  0  0
 15 14  1  0  0  0  0
 15 17  1  0  0  0  0
 16 15  2  0  0  0  0
 17 19  1  0  0  0  0
 18 17  2  0  0  0  0
 20 21  2  0  0  0  0
 22 20  1  0  0  0  0
 22 23  2  0  0  0  0
 24 23  1  0  0  0  0
 26 25  1  0  0  0  0
 26 27  1  6  0  0  0
 28 36  1  0  0  0  0
 29 39  1  0  0  0  0
 29 30  1  0  0  0  0
 31 33  1  0  0  0  0
 32 34  1  0  0  0  0
 32 30  1  0  0  0  0
 33 28  2  0  0  0  0
 33 37  1  0  0  0  0
 34 26  1  0  0  0  0
 35 29  2  0  0  0  0
 36 38  1  0  0  0  0
 36 34  2  0  0  0  0
 37 35  1  0  0  0  0
 37 32  2  0  0  0  0
 39 40  1  0  0  0  0
 40 41  1  0  0  0  0
 41 42  1  0  0  0  0
 42 43  2  0  0  0  0
M  END
>  <MODEL>
6

>  <REMARK>
 VINA RESULT:      -6.3      2.467      8.070
  Name = 
  14 active torsions:
  status: ('A' for Active; 'I' for Inactive)
    1  A    between atoms: N_2  and  C_3
    2  A    between atoms: C_3  and  C_24
    3  A    between atoms: C_4  and  C_16
    4  A    between atoms: C_4  and  C_34
    5  A    between atoms: C_5  and  C_10
    6  A    between atoms: C_5  and  C_18
    7  A    between atoms: C_7  and  C_41
    8  A    between atoms: C_8  and  C_13
    9  A    between atoms: C_8  and  C_39
   10  A    between atoms: C_9  and  C_11
   11  A    between atoms: C_9  and  C_39
   12  A    between atoms: C_18  and  N_43
   13  A    between atoms: C_26  and  C_34
   14  A    between atoms: C_33  and  N_43
                            x       y       z     vdW  Elec       q    Type
                         _______ _______ _______ _____ _____    ______ ____

>  <TORSDO>
F 14

$$$$
=
 OpenBabel11042419053D

 43 46  0  0  1  0  0  0  0  0999 V2000
  189.7470  172.9250  143.5050 C   0  0  2  0  0  3  0  0  0  0  0  0
  189.4410  174.9100  143.4340 C   0  0  1  0  0  3  0  0  0  0  0  0
  189.8430  173.9200  142.3670 C   0  0  2  0  0  3  0  0  0  0  0  0
  189.4010  173.9190  144.4360 O   0  0  0  0  0  0  0  0  0  0  0  0
  191.4590  171.0520  143.3650 C   0  0  0  0  0  3  0  0  0  0  0  0
  193.5910  171.2600  144.4910 C   0  0  0  0  0  3  0  0  0  0  0  0
  192.7120  170.5270  143.6850 C   0  0  0  0  0  0  0  0  0  0  0  0
  193.2210  172.5170  144.9770 C   0  0  0  0  0  0  0  0  0  0  0  0
  193.1180  169.1980  143.1540 C   0  0  0  0  0  1  0  0  0  0  0  0
  191.9610  173.0380  144.6500 C   0  0  0  0  0  3  0  0  0  0  0  0
  191.0720  172.3100  143.8560 C   0  0  0  0  0  0  0  0  0  0  0  0
  194.1440  173.2540  145.7870 N   0  0  0  0  0  2  0  0  0  0  0  0
  196.4950  173.7820  146.1430 C   0  0  0  0  0  1  0  0  0  0  0  0
  195.2850  173.9870  145.2490 C   0  0  2  0  0  3  0  0  0  0  0  0
  194.9710  175.4490  145.0960 C   0  0  0  0  0  0  0  0  0  0  0  0
  194.4980  176.1480  146.1280 C   0  0  0  0  0  2  0  0  0  0  0  0
  195.1570  176.0920  143.7830 C   0  0  0  0  0  0  0  0  0  0  0  0
  194.2870  175.9710  142.8790 O   0  0  0  0  0  0  0  0  0  0  0  0
  196.3050  176.8330  143.5270 O   0  0  0  0  0  1  0  0  0  0  0  0
  188.7280  173.7130  141.3860 C   0  0  0  0  0  0  0  0  0  0  0  0
  187.5830  173.3760  141.8000 O   0  0  0  0  0  0  0  0  0  0  0  0
  188.9880  173.8250  139.9820 N   0  0  0  0  0  0  0  0  0  0  0  0
  188.6420  172.9060  139.1400 C   0  0  0  0  0  3  0  0  0  0  0  0
  188.9390  173.0740  137.6930 C   0  0  0  0  0  1  0  0  0  0  0  0
  190.5870  175.8870  143.6870 C   0  0  0  0  0  2  0  0  0  0  0  0
  190.0640  177.3080  143.8110 C   0  0  2  0  0  3  0  0  0  0  0  0
  191.1870  178.3290  143.8560 C   0  0  0  0  0  1  0  0  0  0  0  0
  188.3990  177.1390  147.2480 N   0  0  0  0  0  0  0  0  0  0  0  0
  185.9740  178.4490  143.7370 C   0  0  0  0  0  0  0  0  0  0  0  0
  187.2730  178.1690  143.4790 N   0  0  0  0  0  0  0  0  0  0  0  0
  186.1500  177.6260  147.9940 N   0  0  0  0  0  1  0  0  0  0  0  0
  187.7820  177.8420  144.6780 C   0  0  0  0  0  0  0  0  0  0  0  0
  187.1340  177.5630  146.9670 C   0  0  2  0  0  3  0  0  0  0  0  0
  189.0900  177.4290  144.9500 C   0  0  0  0  0  0  0  0  0  0  0  0
  185.6390  178.2980  145.0820 C   0  0  0  0  0  3  0  0  0  0  0  0
  189.3740  177.0500  146.2880 C   0  0  0  0  0  0  0  0  0  0  0  0
  186.8300  177.9070  145.6550 C   0  0  0  0  0  0  0  0  0  0  0  0
  190.7130  176.5250  146.6860 C   0  0  0  0  0  1  0  0  0  0  0  0
  185.0030  178.7920  142.6640 C   0  0  0  0  0  2  0  0  0  0  0  0
  185.4120  178.1070  141.3710 C   0  0  0  0  0  2  0  0  0  0  0  0
  184.2220  177.9950  140.4310 C   0  0  0  0  0  2  0  0  0  0  0  0
  182.9460  178.2980  141.1480 C   0  0  0  0  0  3  0  0  0  0  0  0
  181.7680  178.2100  140.5320 C   0  0  0  0  0  2  0  0  0  0  0  0
  1 11  1  1  0  0  0
  1  4  1  0  0  0  0
  2 25  1  1  0  0  0
  2  4  1  0  0  0  0
  3 20  1  6  0  0  0
  3  2  1  0  0  0  0
  3  1  1  0  0  0  0
  5  7  2  0  0  0  0
  5 11  1  0  0  0  0
  6  8  2  0  0  0  0
  7  6  1  0  0  0  0
  8 12  1  0  0  0  0
  9  7  1  0  0  0  0
 10  8  1  0  0  0  0
 11 10  2  0  0  0  0
 14 12  1  0  0  0  0
 14 13  1  1  0  0  0
 15 14  1  0  0  0  0
 15 16  2  0  0  0  0
 17 15  1  0  0  0  0
 18 17  2  0  0  0  0
 19 17  1  0  0  0  0
 20 21  2  0  0  0  0
 22 20  1  0  0  0  0
 23 22  2  0  0  0  0
 24 23  1  0  0  0  0
 25 26  1  0  0  0  0
 26 27  1  1  0  0  0
 26 34  1  0  0  0  0
 29 35  1  0  0  0  0
 30 29  2  0  0  0  0
 30 32  1  0  0  0  0
 32 34  2  0  0  0  0
 32 37  1  0  0  0  0
 33 28  1  0  0  0  0
 33 31  1  6  0  0  0
 34 36  1  0  0  0  0
 35 37  2  0  0  0  0
 36 38  1  0  0  0  0
 36 28  2  0  0  0  0
 37 33  1  0  0  0  0
 39 29  1  0  0  0  0
 40 39  1  0  0  0  0
 41 42  1  0  0  0  0
 41 40  1  0  0  0  0
 43 42  2  0  0  0  0
M  END
>  <MODEL>
7

>  <REMARK>
 VINA RESULT:      -6.2      2.344      7.765
  Name = 
  14 active torsions:
  status: ('A' for Active; 'I' for Inactive)
    1  A    between atoms: N_2  and  C_3
    2  A    between atoms: C_3  and  C_24
    3  A    between atoms: C_4  and  C_16
    4  A    between atoms: C_4  and  C_34
    5  A    between atoms: C_5  and  C_10
    6  A    between atoms: C_5  and  C_18
    7  A    between atoms: C_7  and  C_41
    8  A    between atoms: C_8  and  C_13
    9  A    between atoms: C_8  and  C_39
   10  A    between atoms: C_9  and  C_11
   11  A    between atoms: C_9  and  C_39
   12  A    between atoms: C_18  and  N_43
   13  A    between atoms: C_26  and  C_34
   14  A    between atoms: C_33  and  N_43
                            x       y       z     vdW  Elec       q    Type
                         _______ _______ _______ _____ _____    ______ ____

>  <TORSDO>
F 14

$$$$
=
 OpenBabel11042419053D

 43 46  0  0  1  0  0  0  0  0999 V2000
  189.2750  177.3890  143.7770 C   0  0  2  0  0  3  0  0  0  0  0  0
  188.6960  176.2100  142.2570 C   0  0  1  0  0  3  0  0  0  0  0  0
  188.2580  176.2700  143.7020 C   0  0  2  0  0  3  0  0  0  0  0  0
  189.6370  177.2450  142.4270 O   0  0  0  0  0  0  0  0  0  0  0  0
  190.2670  176.8150  146.0460 C   0  0  0  0  0  3  0  0  0  0  0  0
  192.6390  176.3860  146.2680 C   0  0  0  0  0  3  0  0  0  0  0  0
  191.3640  176.4810  146.8410 C   0  0  0  0  0  0  0  0  0  0  0  0
  192.8170  176.6230  144.9030 C   0  0  0  0  0  0  0  0  0  0  0  0
  191.1750  176.2100  148.2920 C   0  0  0  0  0  1  0  0  0  0  0  0
  191.7100  176.9550  144.1100 C   0  0  0  0  0  3  0  0  0  0  0  0
  190.4360  177.0630  144.6740 C   0  0  0  0  0  0  0  0  0  0  0  0
  194.1280  176.5030  144.3380 N   0  0  0  0  0  2  0  0  0  0  0  0
  195.8290  174.9780  145.1820 C   0  0  0  0  0  1  0  0  0  0  0  0
  194.7930  175.2270  144.1000 C   0  0  2  0  0  3  0  0  0  0  0  0
  195.4220  175.1850  142.7350 C   0  0  0  0  0  0  0  0  0  0  0  0
  195.2330  174.1350  141.9370 C   0  0  0  0  0  2  0  0  0  0  0  0
  196.2810  176.3020  142.3040 C   0  0  0  0  0  0  0  0  0  0  0  0
  197.3890  176.5160  142.8670 O   0  0  0  0  0  1  0  0  0  0  0  0
  195.8690  177.1400  141.2750 O   0  0  0  0  0  0  0  0  0  0  0  0
  186.8640  176.8120  143.8130 C   0  0  0  0  0  0  0  0  0  0  0  0
  186.2010  177.0570  142.7660 O   0  0  0  0  0  0  0  0  0  0  0  0
  186.3230  177.1200  145.1040 N   0  0  0  0  0  0  0  0  0  0  0  0
  186.1700  178.3350  145.5160 C   0  0  0  0  0  3  0  0  0  0  0  0
  185.6050  178.5970  146.8660 C   0  0  0  0  0  1  0  0  0  0  0  0
  189.3970  174.8810  141.9880 C   0  0  0  0  0  2  0  0  0  0  0  0
  188.6500  174.0840  140.9320 C   0  0  2  0  0  3  0  0  0  0  0  0
  187.7730  173.0050  141.5440 C   0  0  0  0  0  1  0  0  0  0  0  0
  190.2540  173.1640  137.5860 N   0  0  0  0  0  0  0  0  0  0  0  0
  192.1420  171.7060  141.3590 C   0  0  0  0  0  0  0  0  0  0  0  0
  191.0410  172.4770  141.5170 N   0  0  0  0  0  2  0  0  0  0  0  0
  192.2190  171.8690  137.0230 N   0  0  0  0  0  1  0  0  0  0  0  0
  190.6930  172.8100  140.2630 C   0  0  0  0  0  0  0  0  0  0  0  0
  191.3390  172.4410  137.9860 C   0  0  0  0  0  0  0  0  0  0  0  0
  189.5880  173.5730  139.8740 C   0  0  0  0  0  0  0  0  0  0  0  0
  192.5020  171.5310  140.0240 C   0  0  0  0  0  3  0  0  0  0  0  0
  189.3740  173.7210  138.4780 C   0  0  0  0  0  0  0  0  0  0  0  0
  191.5440  172.2580  139.3490 C   0  0  0  0  0  0  0  0  0  0  0  0
  188.1890  174.4510  137.9400 C   0  0  0  0  0  1  0  0  0  0  0  0
  192.8270  171.0500  142.5050 C   0  0  0  0  0  2  0  0  0  0  0  0
  191.9890  171.2160  143.7610 C   0  0  0  0  0  2  0  0  0  0  0  0
  192.4560  172.4250  144.5550 C   0  0  0  0  0  2  0  0  0  0  0  0
  191.3100  173.3320  144.8690 C   0  0  0  0  0  3  0  0  0  0  0  0
  190.0710  172.8600  145.0030 C   0  0  0  0  0  2  0  0  0  0  0  0
  1 11  1  1  0  0  0
  2 25  1  1  0  0  0
  2  4  1  0  0  0  0
  2  3  1  0  0  0  0
  3  1  1  0  0  0  0
  3 20  1  6  0  0  0
  4  1  1  0  0  0  0
  5  7  1  0  0  0  0
  6  7  2  0  0  0  0
  7  9  1  0  0  0  0
  8  6  1  0  0  0  0
 10 11  1  0  0  0  0
 10  8  2  0  0  0  0
 11  5  2  0  0  0  0
 12  8  1  0  0  0  0
 14 12  1  0  0  0  0
 14 13  1  1  0  0  0
 15 14  1  0  0  0  0
 16 15  2  0  0  0  0
 17 15  1  0  0  0  0
 17 18  1  0  0  0  0
 19 17  2  0  0  0  0
 20 22  1  0  0  0  0
 21 20  2  0  0  0  0
 22 23  2  0  0  0  0
 23 24  1  0  0  0  0
 26 27  1  1  0  0  0
 26 25  1  0  0  0  0
 28 33  2  0  0  0  0
 28 36  1  0  0  0  0
 29 30  1  0  0  0  0
 29 39  1  0  0  0  0
 31 33  1  0  0  0  0
 32 30  1  0  0  0  0
 33 37  1  0  0  0  0
 34 32  1  0  0  0  0
 34 26  1  0  0  0  0
 35 29  2  0  0  0  0
 36 34  2  0  0  0  0
 37 35  1  0  0  0  0
 37 32  2  0  0  0  0
 38 36  1  0  0  0  0
 39 40  1  0  0  0  0
 40 41  1  0  0  0  0
 41 42  1  0  0  0  0
 42 43  2  0  0  0  0
M  END
>  <MODEL>
8

>  <REMARK>
 VINA RESULT:      -6.2      2.172      7.305
  Name = 
  14 active torsions:
  status: ('A' for Active; 'I' for Inactive)
    1  A    between atoms: N_2  and  C_3
    2  A    between atoms: C_3  and  C_24
    3  A    between atoms: C_4  and  C_16
    4  A    between atoms: C_4  and  C_34
    5  A    between atoms: C_5  and  C_10
    6  A    between atoms: C_5  and  C_18
    7  A    between atoms: C_7  and  C_41
    8  A    between atoms: C_8  and  C_13
    9  A    between atoms: C_8  and  C_39
   10  A    between atoms: C_9  and  C_11
   11  A    between atoms: C_9  and  C_39
   12  A    between atoms: C_18  and  N_43
   13  A    between atoms: C_26  and  C_34
   14  A    between atoms: C_33  and  N_43
                            x       y       z     vdW  Elec       q    Type
                         _______ _______ _______ _____ _____    ______ ____

>  <TORSDO>
F 14

$$$$
=
 OpenBabel11042419053D

 43 46  0  0  1  0  0  0  0  0999 V2000
  189.8070  174.2490  145.1540 C   0  0  2  0  0  3  0  0  0  0  0  0
  190.9880  175.4170  146.2870 C   0  0  1  0  0  3  0  0  0  0  0  0
  189.5470  175.5660  145.8560 C   0  0  2  0  0  3  0  0  0  0  0  0
  191.1450  174.2060  145.5820 O   0  0  0  0  0  0  0  0  0  0  0  0
  190.6540  173.7120  142.8190 C   0  0  0  0  0  3  0  0  0  0  0  0
  189.4870  174.5550  140.8730 C   0  0  0  0  0  3  0  0  0  0  0  0
  190.5330  173.8110  141.4320 C   0  0  0  0  0  0  0  0  0  0  0  0
  188.5600  175.1980  141.6980 C   0  0  0  0  0  0  0  0  0  0  0  0
  191.5070  173.1130  140.5500 C   0  0  0  0  0  1  0  0  0  0  0  0
  188.6870  175.0920  143.0900 C   0  0  0  0  0  3  0  0  0  0  0  0
  189.7340  174.3610  143.6580 C   0  0  0  0  0  0  0  0  0  0  0  0
  187.4890  175.9390  141.1030 N   0  0  0  0  0  2  0  0  0  0  0  0
  188.5650  177.9740  141.8990 C   0  0  0  0  0  1  0  0  0  0  0  0
  187.4440  177.3970  141.0540 C   0  0  2  0  0  3  0  0  0  0  0  0
  186.1080  177.9160  141.5060 C   0  0  0  0  0  0  0  0  0  0  0  0
  185.1820  178.2650  140.6130 C   0  0  0  0  0  2  0  0  0  0  0  0
  185.8470  178.0720  142.9480 C   0  0  0  0  0  0  0  0  0  0  0  0
  185.7880  179.2170  143.4710 O   0  0  0  0  0  0  0  0  0  0  0  0
  185.6740  176.9490  143.7490 O   0  0  0  0  0  1  0  0  0  0  0  0
  188.6210  175.3730  147.0200 C   0  0  0  0  0  0  0  0  0  0  0  0
  188.9170  174.5420  147.9260 O   0  0  0  0  0  0  0  0  0  0  0  0
  187.3730  176.0730  147.0580 N   0  0  0  0  0  0  0  0  0  0  0  0
  187.3060  177.3620  147.1310 C   0  0  0  0  0  3  0  0  0  0  0  0
  185.9820  178.0380  147.1680 C   0  0  0  0  0  1  0  0  0  0  0  0
  191.8300  176.5230  145.6560 C   0  0  0  0  0  2  0  0  0  0  0  0
  193.3020  176.1470  145.6640 C   0  0  2  0  0  3  0  0  0  0  0  0
  194.1360  177.1230  146.4770 C   0  0  0  0  0  1  0  0  0  0  0  0
  193.6860  176.1190  141.8610 N   0  0  0  0  0  0  0  0  0  0  0  0
  196.5700  173.7830  144.3390 C   0  0  0  0  0  0  0  0  0  0  0  0
  195.6340  174.4750  145.0290 N   0  0  0  0  0  2  0  0  0  0  0  0
  195.2710  175.0320  140.3920 N   0  0  0  0  0  1  0  0  0  0  0  0
  194.9290  175.1080  144.0770 C   0  0  0  0  0  0  0  0  0  0  0  0
  194.7870  175.3320  141.6970 C   0  0  0  0  0  0  0  0  0  0  0  0
  193.8140  175.9310  144.2670 C   0  0  0  0  0  0  0  0  0  0  0  0
  196.4720  173.9540  142.9590 C   0  0  0  0  0  3  0  0  0  0  0  0
  193.1770  176.4220  143.0980 C   0  0  0  0  0  0  0  0  0  0  0  0
  195.4030  174.8150  142.8320 C   0  0  0  0  0  0  0  0  0  0  0  0
  191.9370  177.2490  143.1700 C   0  0  0  0  0  1  0  0  0  0  0  0
  197.5370  172.8670  145.0040 C   0  0  0  0  0  2  0  0  0  0  0  0
  196.8150  172.0440  146.0570 C   0  0  0  0  0  2  0  0  0  0  0  0
  196.1130  170.8590  145.4130 C   0  0  0  0  0  2  0  0  0  0  0  0
  194.6590  170.8470  145.7620 C   0  0  0  0  0  3  0  0  0  0  0  0
  193.7680  171.5250  145.0390 C   0  0  0  0  0  2  0  0  0  0  0  0
  1 11  1  6  0  0  0
  1  4  1  0  0  0  0
  1  3  1  0  0  0  0
  2 25  1  6  0  0  0
  3  2  1  0  0  0  0
  3 20  1  1  0  0  0
  4  2  1  0  0  0  0
  5 11  1  0  0  0  0
  6  7  1  0  0  0  0
  6  8  2  0  0  0  0
  7  5  2  0  0  0  0
  8 10  1  0  0  0  0
  9  7  1  0  0  0  0
 10 11  2  0  0  0  0
 12  8  1  0  0  0  0
 14 12  1  0  0  0  0
 14 15  1  0  0  0  0
 14 13  1  1  0  0  0
 15 17  1  0  0  0  0
 16 15  2  0  0  0  0
 17 18  2  0  0  0  0
 17 19  1  0  0  0  0
 20 22  1  0  0  0  0
 20 21  2  0  0  0  0
 22 23  2  0  0  0  0
 23 24  1  0  0  0  0
 25 26  1  0  0  0  0
 26 27  1  6  0  0  0
 28 36  1  0  0  0  0
 29 39  1  0  0  0  0
 29 30  1  0  0  0  0
 31 33  1  0  0  0  0
 32 34  1  0  0  0  0
 32 30  1  0  0  0  0
 33 28  2  0  0  0  0
 33 37  1  0  0  0  0
 34 26  1  0  0  0  0
 35 29  2  0  0  0  0
 36 38  1  0  0  0  0
 36 34  2  0  0  0  0
 37 35  1  0  0  0  0
 37 32  2  0  0  0  0
 39 40  1  0  0  0  0
 41 42  1  0  0  0  0
 41 40  1  0  0  0  0
 43 42  2  0  0  0  0
M  END
>  <MODEL>
9

>  <REMARK>
 VINA RESULT:      -6.2      2.171      4.989
  Name = 
  14 active torsions:
  status: ('A' for Active; 'I' for Inactive)
    1  A    between atoms: N_2  and  C_3
    2  A    between atoms: C_3  and  C_24
    3  A    between atoms: C_4  and  C_16
    4  A    between atoms: C_4  and  C_34
    5  A    between atoms: C_5  and  C_10
    6  A    between atoms: C_5  and  C_18
    7  A    between atoms: C_7  and  C_41
    8  A    between atoms: C_8  and  C_13
    9  A    between atoms: C_8  and  C_39
   10  A    between atoms: C_9  and  C_11
   11  A    between atoms: C_9  and  C_39
   12  A    between atoms: C_18  and  N_43
   13  A    between atoms: C_26  and  C_34
   14  A    between atoms: C_33  and  N_43
                            x       y       z     vdW  Elec       q    Type
                         _______ _______ _______ _____ _____    ______ ____

>  <TORSDO>
F 14

$$$$
