=
 OpenBabel11042413483D

 25 28  0  0  1  0  0  0  0  0999 V2000
  188.1530  176.0230  141.8830 C   0  0  1  0  0  0  0  0  0  0  0  0
  188.1750  177.3640  141.4440 O   0  0  0  0  0  0  0  0  0  0  0  0
  185.0890  178.6620  141.5880 N   0  0  0  0  0  1  0  0  0  0  0  0
  185.9340  176.5840  142.7030 C   0  0  1  0  0  3  0  0  0  0  0  0
  188.9790  175.1180  141.2180 O   0  0  0  0  0  1  0  0  0  0  0  0
  188.3030  175.9280  143.3590 N   0  0  0  0  0  0  0  0  0  0  0  0
  185.7410  177.3770  141.3850 C   0  0  2  0  0  3  0  0  0  0  0  0
  187.0650  175.5300  142.5950 C   0  0  2  0  0  3  0  0  0  0  0  0
  187.0560  177.5480  140.6100 C   0  0  0  0  0  2  0  0  0  0  0  0
  189.0380  176.1080  144.5660 C   0  0  0  0  0  0  0  0  0  0  0  0
  190.1810  177.5630  146.1270 C   0  0  0  0  0  3  0  0  0  0  0  0
  189.4830  177.3820  144.9280 C   0  0  0  0  0  3  0  0  0  0  0  0
  189.2890  175.0150  145.4000 C   0  0  0  0  0  3  0  0  0  0  0  0
  189.9860  175.1960  146.5990 C   0  0  0  0  0  3  0  0  0  0  0  0
  190.4330  176.4690  146.9660 C   0  0  0  0  0  0  0  0  0  0  0  0
  191.1420  176.6380  148.1930 N   0  0  0  0  0  2  0  0  0  0  0  0
  191.1740  177.8330  148.8300 O   0  0  0  0  0  1  0  0  0  0  0  0
  185.9500  178.7960  143.8830 C   0  0  0  0  0  3  0  0  0  0  0  0
  185.8880  178.9630  146.2980 C   0  0  0  0  0  3  0  0  0  0  0  0
  185.9530  177.3990  143.9720 C   0  0  0  0  0  0  0  0  0  0  0  0
  185.9210  179.5770  145.0420 C   0  0  0  0  0  3  0  0  0  0  0  0
  185.8780  177.5680  146.3950 C   0  0  0  0  0  0  0  0  0  0  0  0
  185.9160  176.7880  145.2360 C   0  0  0  0  0  3  0  0  0  0  0  0
  186.9290  176.0480  147.8410 F   0  0  0  0  0  0  0  0  0  0  0  0
  185.8590  176.9150  147.7310 C   0  0  0  0  0  2  0  0  0  0  0  0
  1  5  1  6  0  0  0
  1  8  1  0  0  0  0
  1  6  1  0  0  0  0
  2  1  1  0  0  0  0
  4 20  1  1  0  0  0
  6 10  1  0  0  0  0
  7  3  1  1  0  0  0
  7  4  1  0  0  0  0
  8  4  1  0  0  0  0
  8  6  1  1  0  0  0
  9  7  1  0  0  0  0
  9  2  1  0  0  0  0
 10 12  2  0  0  0  0
 10 13  1  0  0  0  0
 11 15  2  0  0  0  0
 12 11  1  0  0  0  0
 13 14  2  0  0  0  0
 14 15  1  0  0  0  0
 15 16  1  0  0  0  0
 16 17  1  0  0  0  0
 18 20  2  0  0  0  0
 18 21  1  0  0  0  0
 19 22  1  0  0  0  0
 20 23  1  0  0  0  0
 21 19  2  0  0  0  0
 22 25  1  0  0  0  0
 23 22  2  0  0  0  0
 25 24  1  0  0  0  0
M  END
>  <MODEL>
1

>  <REMARK>
 VINA RESULT:      -7.5      0.000      0.000
  Name = 
  4 active torsions:
  status: ('A' for Active; 'I' for Inactive)
    1  A    between atoms: C_2  and  N_18
    2  A    between atoms: N_3  and  C_21
    3  A    between atoms: C_8  and  C_10
    4  A    between atoms: C_16  and  C_24
                            x       y       z     vdW  Elec       q    Type
                         _______ _______ _______ _____ _____    ______ ____

>  <TORSDO>
F 4

$$$$
=
 OpenBabel11042413483D

 25 28  0  0  1  0  0  0  0  0999 V2000
  188.7590  173.4610  141.4670 C   0  0  1  0  0  0  0  0  0  0  0  0
  188.5250  172.6630  142.6080 O   0  0  0  0  0  0  0  0  0  0  0  0
  191.2930  172.5300  144.4920 N   0  0  0  0  0  1  0  0  0  0  0  0
  190.7580  174.1560  142.6640 C   0  0  1  0  0  3  0  0  0  0  0  0
  188.1750  173.0520  140.2690 O   0  0  0  0  0  1  0  0  0  0  0  0
  188.5060  174.9000  141.7440 N   0  0  0  0  0  0  0  0  0  0  0  0
  190.9100  172.6750  143.0960 C   0  0  2  0  0  3  0  0  0  0  0  0
  189.8560  174.3140  141.4140 C   0  0  2  0  0  3  0  0  0  0  0  0
  189.6570  171.8450  142.7830 C   0  0  0  0  0  2  0  0  0  0  0  0
  187.6510  175.9860  142.0890 C   0  0  0  0  0  0  0  0  0  0  0  0
  185.7420  176.8460  143.3020 C   0  0  0  0  0  3  0  0  0  0  0  0
  186.5640  175.7740  142.9420 C   0  0  0  0  0  3  0  0  0  0  0  0
  187.9170  177.2670  141.5980 C   0  0  0  0  0  3  0  0  0  0  0  0
  187.0950  178.3390  141.9590 C   0  0  0  0  0  3  0  0  0  0  0  0
  186.0060  178.1330  142.8120 C   0  0  0  0  0  0  0  0  0  0  0  0
  185.1770  179.2360  143.1720 N   0  0  0  0  0  2  0  0  0  0  0  0
  185.5600  180.1270  144.1180 O   0  0  0  0  0  1  0  0  0  0  0  0
  190.9940  176.4430  143.6620 C   0  0  0  0  0  3  0  0  0  0  0  0
  189.9160  177.0530  145.7430 C   0  0  0  0  0  3  0  0  0  0  0  0
  190.4810  175.1460  143.7690 C   0  0  0  0  0  0  0  0  0  0  0  0
  190.7160  177.3950  144.6480 C   0  0  0  0  0  3  0  0  0  0  0  0
  189.3900  175.7620  145.8500 C   0  0  0  0  0  0  0  0  0  0  0  0
  189.6760  174.8100  144.8690 C   0  0  0  0  0  3  0  0  0  0  0  0
  188.9610  174.1720  147.5220 F   0  0  0  0  0  0  0  0  0  0  0  0
  188.5520  175.3950  147.0230 C   0  0  0  0  0  2  0  0  0  0  0  0
  1  5  1  6  0  0  0
  1  6  1  0  0  0  0
  1  2  1  0  0  0  0
  2  9  1  0  0  0  0
  4  7  1  0  0  0  0
  4 20  1  1  0  0  0
  6 10  1  0  0  0  0
  7  3  1  1  0  0  0
  8  1  1  0  0  0  0
  8  6  1  1  0  0  0
  8  4  1  0  0  0  0
  9  7  1  0  0  0  0
 10 12  1  0  0  0  0
 12 11  2  0  0  0  0
 13 14  1  0  0  0  0
 13 10  2  0  0  0  0
 14 15  2  0  0  0  0
 15 16  1  0  0  0  0
 15 11  1  0  0  0  0
 16 17  1  0  0  0  0
 18 20  2  0  0  0  0
 18 21  1  0  0  0  0
 19 22  1  0  0  0  0
 20 23  1  0  0  0  0
 21 19  2  0  0  0  0
 22 25  1  0  0  0  0
 23 22  2  0  0  0  0
 25 24  1  0  0  0  0
M  END
>  <MODEL>
2

>  <REMARK>
 VINA RESULT:      -7.3      2.748      5.275
  Name = 
  4 active torsions:
  status: ('A' for Active; 'I' for Inactive)
    1  A    between atoms: C_2  and  N_18
    2  A    between atoms: N_3  and  C_21
    3  A    between atoms: C_8  and  C_10
    4  A    between atoms: C_16  and  C_24
                            x       y       z     vdW  Elec       q    Type
                         _______ _______ _______ _____ _____    ______ ____

>  <TORSDO>
F 4

$$$$
=
 OpenBabel11042413483D

 25 28  0  0  1  0  0  0  0  0999 V2000
  188.7040  177.1020  146.8460 C   0  0  1  0  0  0  0  0  0  0  0  0
  190.0270  177.5910  146.8020 O   0  0  0  0  0  0  0  0  0  0  0  0
  192.1900  175.0550  147.1490 N   0  0  0  0  0  1  0  0  0  0  0  0
  189.7570  174.9280  146.5710 C   0  0  1  0  0  3  0  0  0  0  0  0
  187.7530  177.8870  147.4970 O   0  0  0  0  0  1  0  0  0  0  0  0
  188.2360  176.6660  145.5040 N   0  0  0  0  0  0  0  0  0  0  0  0
  190.8440  175.4250  147.5580 C   0  0  2  0  0  3  0  0  0  0  0  0
  188.4450  175.7460  146.6810 C   0  0  2  0  0  3  0  0  0  0  0  0
  190.7480  176.9350  147.8190 C   0  0  0  0  0  2  0  0  0  0  0  0
  187.8910  176.9200  144.1450 C   0  0  0  0  0  0  0  0  0  0  0  0
  188.4160  177.9080  141.9990 C   0  0  0  0  0  3  0  0  0  0  0  0
  188.7420  177.6830  143.3400 C   0  0  0  0  0  3  0  0  0  0  0  0
  186.7170  176.3820  143.6110 C   0  0  0  0  0  3  0  0  0  0  0  0
  186.3920  176.6070  142.2690 C   0  0  0  0  0  3  0  0  0  0  0  0
  187.2400  177.3690  141.4600 C   0  0  0  0  0  0  0  0  0  0  0  0
  186.8960  177.5890  140.0930 N   0  0  0  0  0  2  0  0  0  0  0  0
  185.6140  177.4990  139.6650 O   0  0  0  0  0  1  0  0  0  0  0  0
  189.6160  173.6180  144.4390 C   0  0  0  0  0  3  0  0  0  0  0  0
  190.9550  174.1750  142.4990 C   0  0  0  0  0  3  0  0  0  0  0  0
  190.2140  174.6580  145.1590 C   0  0  0  0  0  0  0  0  0  0  0  0
  189.9880  173.3730  143.1130 C   0  0  0  0  0  3  0  0  0  0  0  0
  191.5470  175.2240  143.2080 C   0  0  0  0  0  0  0  0  0  0  0  0
  191.1830  175.4620  144.5360 C   0  0  0  0  0  3  0  0  0  0  0  0
  192.2220  177.3980  142.6350 F   0  0  0  0  0  0  0  0  0  0  0  0
  192.5870  176.0670  142.5600 C   0  0  0  0  0  2  0  0  0  0  0  0
  1  5  1  1  0  0  0
  2  1  1  0  0  0  0
  2  9  1  0  0  0  0
  4 20  1  6  0  0  0
  4  8  1  0  0  0  0
  4  7  1  0  0  0  0
  6  1  1  0  0  0  0
  7  3  1  6  0  0  0
  7  9  1  0  0  0  0
  8  6  1  6  0  0  0
  8  1  1  0  0  0  0
 10  6  1  0  0  0  0
 11 12  1  0  0  0  0
 12 10  2  0  0  0  0
 13 10  1  0  0  0  0
 14 13  2  0  0  0  0
 15 11  2  0  0  0  0
 15 14  1  0  0  0  0
 16 15  1  0  0  0  0
 17 16  1  0  0  0  0
 18 20  1  0  0  0  0
 19 21  1  0  0  0  0
 19 22  2  0  0  0  0
 21 18  2  0  0  0  0
 22 23  1  0  0  0  0
 23 20  2  0  0  0  0
 25 24  1  0  0  0  0
 25 22  1  0  0  0  0
M  END
>  <MODEL>
3

>  <REMARK>
 VINA RESULT:      -7.1      2.672      6.633
  Name = 
  4 active torsions:
  status: ('A' for Active; 'I' for Inactive)
    1  A    between atoms: C_2  and  N_18
    2  A    between atoms: N_3  and  C_21
    3  A    between atoms: C_8  and  C_10
    4  A    between atoms: C_16  and  C_24
                            x       y       z     vdW  Elec       q    Type
                         _______ _______ _______ _____ _____    ______ ____

>  <TORSDO>
F 4

$$$$
=
 OpenBabel11042413483D

 25 28  0  0  1  0  0  0  0  0999 V2000
  187.0180  177.3830  141.5590 C   0  0  1  0  0  0  0  0  0  0  0  0
  186.6600  178.6660  142.0270 O   0  0  0  0  0  0  0  0  0  0  0  0
  184.4540  178.3880  144.5350 N   0  0  0  0  0  1  0  0  0  0  0  0
  185.9440  176.6070  143.5970 C   0  0  1  0  0  3  0  0  0  0  0  0
  187.2090  177.2330  140.1860 O   0  0  0  0  0  1  0  0  0  0  0  0
  188.1470  176.8110  142.3400 N   0  0  0  0  0  0  0  0  0  0  0  0
  184.8560  177.6770  143.3300 C   0  0  2  0  0  3  0  0  0  0  0  0
  186.7460  176.2510  142.3200 C   0  0  2  0  0  3  0  0  0  0  0  0
  185.2660  178.6620  142.2260 C   0  0  0  0  0  2  0  0  0  0  0  0
  189.4990  176.8130  142.7880 C   0  0  0  0  0  0  0  0  0  0  0  0
  191.3540  177.9490  143.8490 C   0  0  0  0  0  3  0  0  0  0  0  0
  190.0350  177.9580  143.3850 C   0  0  0  0  0  3  0  0  0  0  0  0
  190.2800  175.6610  142.6560 C   0  0  0  0  0  3  0  0  0  0  0  0
  191.5980  175.6530  143.1210 C   0  0  0  0  0  3  0  0  0  0  0  0
  192.1390  176.7960  143.7190 C   0  0  0  0  0  0  0  0  0  0  0  0
  193.4850  176.7720  144.1900 N   0  0  0  0  0  2  0  0  0  0  0  0
  193.7870  177.0580  145.4790 O   0  0  0  0  0  1  0  0  0  0  0  0
  186.6980  178.0220  145.5240 C   0  0  0  0  0  3  0  0  0  0  0  0
  188.2540  177.2020  147.1890 C   0  0  0  0  0  3  0  0  0  0  0  0
  186.7870  176.8090  144.8330 C   0  0  0  0  0  0  0  0  0  0  0  0
  187.4320  178.2210  146.6970 C   0  0  0  0  0  3  0  0  0  0  0  0
  188.3370  175.9810  146.5100 C   0  0  0  0  0  0  0  0  0  0  0  0
  187.6110  175.7870  145.3330 C   0  0  0  0  0  3  0  0  0  0  0  0
  188.5670  174.1930  148.0130 F   0  0  0  0  0  0  0  0  0  0  0  0
  189.2230  174.9030  147.0250 C   0  0  0  0  0  2  0  0  0  0  0  0
  1  5  1  6  0  0  0
  1  2  1  0  0  0  0
  1  8  1  0  0  0  0
  1  6  1  0  0  0  0
  2  9  1  0  0  0  0
  4 20  1  1  0  0  0
  6 10  1  0  0  0  0
  7  4  1  0  0  0  0
  7  3  1  1  0  0  0
  8  6  1  1  0  0  0
  8  4  1  0  0  0  0
  9  7  1  0  0  0  0
 10 12  1  0  0  0  0
 12 11  2  0  0  0  0
 13 10  2  0  0  0  0
 13 14  1  0  0  0  0
 14 15  2  0  0  0  0
 15 11  1  0  0  0  0
 15 16  1  0  0  0  0
 16 17  1  0  0  0  0
 18 21  1  0  0  0  0
 20 23  1  0  0  0  0
 20 18  2  0  0  0  0
 21 19  2  0  0  0  0
 22 25  1  0  0  0  0
 22 19  1  0  0  0  0
 23 22  2  0  0  0  0
 25 24  1  0  0  0  0
M  END
>  <MODEL>
4

>  <REMARK>
 VINA RESULT:      -6.9      2.211      2.743
  Name = 
  4 active torsions:
  status: ('A' for Active; 'I' for Inactive)
    1  A    between atoms: C_2  and  N_18
    2  A    between atoms: N_3  and  C_21
    3  A    between atoms: C_8  and  C_10
    4  A    between atoms: C_16  and  C_24
                            x       y       z     vdW  Elec       q    Type
                         _______ _______ _______ _____ _____    ______ ____

>  <TORSDO>
F 4

$$$$
=
 OpenBabel11042413483D

 25 28  0  0  1  0  0  0  0  0999 V2000
  193.4310  176.2310  145.8760 C   0  0  1  0  0  0  0  0  0  0  0  0
  193.5040  176.6950  144.5450 O   0  0  0  0  0  0  0  0  0  0  0  0
  194.0840  174.1270  142.4720 N   0  0  0  0  0  1  0  0  0  0  0  0
  193.2840  174.0340  144.8440 C   0  0  1  0  0  3  0  0  0  0  0  0
  193.9800  177.0420  146.8680 O   0  0  0  0  0  1  0  0  0  0  0  0
  192.0570  175.7830  146.2250 N   0  0  0  0  0  0  0  0  0  0  0  0
  194.3610  174.5270  143.8440 C   0  0  2  0  0  3  0  0  0  0  0  0
  193.2600  174.8770  146.1440 C   0  0  2  0  0  3  0  0  0  0  0  0
  194.5920  176.0420  143.9350 C   0  0  0  0  0  2  0  0  0  0  0  0
  190.6690  176.0220  146.4370 C   0  0  0  0  0  0  0  0  0  0  0  0
  188.7150  177.4200  146.1470 C   0  0  0  0  0  3  0  0  0  0  0  0
  190.0830  177.1990  145.9620 C   0  0  0  0  0  3  0  0  0  0  0  0
  189.8880  175.0680  147.0950 C   0  0  0  0  0  3  0  0  0  0  0  0
  188.5200  175.2890  147.2790 C   0  0  0  0  0  3  0  0  0  0  0  0
  187.9290  176.4650  146.8060 C   0  0  0  0  0  0  0  0  0  0  0  0
  186.5320  176.6760  146.9990 N   0  0  0  0  0  2  0  0  0  0  0  0
  185.6830  176.7910  145.9500 O   0  0  0  0  0  1  0  0  0  0  0  0
  191.2700  172.5570  144.6380 C   0  0  0  0  0  3  0  0  0  0  0  0
  189.3550  173.1760  143.2900 C   0  0  0  0  0  3  0  0  0  0  0  0
  191.9240  173.7350  144.2620 C   0  0  0  0  0  0  0  0  0  0  0  0
  189.9900  172.2750  144.1510 C   0  0  0  0  0  3  0  0  0  0  0  0
  189.9980  174.3620  142.9210 C   0  0  0  0  0  0  0  0  0  0  0  0
  191.2810  174.6380  143.4010 C   0  0  0  0  0  3  0  0  0  0  0  0
  189.4730  176.6040  142.4670 F   0  0  0  0  0  0  0  0  0  0  0  0
  189.3300  175.3130  141.9940 C   0  0  0  0  0  2  0  0  0  0  0  0
  1  8  1  0  0  0  0
  1  6  1  0  0  0  0
  1  5  1  1  0  0  0
  2  1  1  0  0  0  0
  4 20  1  6  0  0  0
  4  8  1  0  0  0  0
  6 10  1  0  0  0  0
  7  3  1  6  0  0  0
  7  9  1  0  0  0  0
  7  4  1  0  0  0  0
  8  6  1  6  0  0  0
  9  2  1  0  0  0  0
 10 13  1  0  0  0  0
 11 15  2  0  0  0  0
 12 11  1  0  0  0  0
 12 10  2  0  0  0  0
 13 14  2  0  0  0  0
 15 16  1  0  0  0  0
 15 14  1  0  0  0  0
 17 16  1  0  0  0  0
 19 21  1  0  0  0  0
 20 18  1  0  0  0  0
 21 18  2  0  0  0  0
 22 19  2  0  0  0  0
 22 23  1  0  0  0  0
 23 20  2  0  0  0  0
 25 24  1  0  0  0  0
 25 22  1  0  0  0  0
M  END
>  <MODEL>
5

>  <REMARK>
 VINA RESULT:      -6.9      3.553      6.413
  Name = 
  4 active torsions:
  status: ('A' for Active; 'I' for Inactive)
    1  A    between atoms: C_2  and  N_18
    2  A    between atoms: N_3  and  C_21
    3  A    between atoms: C_8  and  C_10
    4  A    between atoms: C_16  and  C_24
                            x       y       z     vdW  Elec       q    Type
                         _______ _______ _______ _____ _____    ______ ____

>  <TORSDO>
F 4

$$$$
=
 OpenBabel11042413483D

 25 28  0  0  1  0  0  0  0  0999 V2000
  188.7280  177.0960  146.8880 C   0  0  1  0  0  0  0  0  0  0  0  0
  190.0570  177.5420  146.7270 O   0  0  0  0  0  0  0  0  0  0  0  0
  192.1600  174.9380  146.8900 N   0  0  0  0  0  1  0  0  0  0  0  0
  189.6830  174.8890  146.5290 C   0  0  1  0  0  3  0  0  0  0  0  0
  187.8630  177.9110  147.6180 O   0  0  0  0  0  1  0  0  0  0  0  0
  188.1300  176.6750  145.5940 N   0  0  0  0  0  0  0  0  0  0  0  0
  190.8680  175.3520  147.4140 C   0  0  2  0  0  3  0  0  0  0  0  0
  188.4120  175.7490  146.7510 C   0  0  2  0  0  3  0  0  0  0  0  0
  190.8430  176.8640  147.6780 C   0  0  0  0  0  2  0  0  0  0  0  0
  187.6750  176.9390  144.2700 C   0  0  0  0  0  0  0  0  0  0  0  0
  185.9410  176.8160  142.5860 C   0  0  0  0  0  3  0  0  0  0  0  0
  186.3970  176.5310  143.8770 C   0  0  0  0  0  3  0  0  0  0  0  0
  188.4960  177.6310  143.3750 C   0  0  0  0  0  3  0  0  0  0  0  0
  188.0390  177.9160  142.0840 C   0  0  0  0  0  3  0  0  0  0  0  0
  186.7620  177.5100  141.6860 C   0  0  0  0  0  0  0  0  0  0  0  0
  186.3090  177.8090  140.3670 N   0  0  0  0  0  2  0  0  0  0  0  0
  185.0580  178.2760  140.1390 O   0  0  0  0  0  1  0  0  0  0  0  0
  191.0450  175.3100  144.4670 C   0  0  0  0  0  3  0  0  0  0  0  0
  190.7120  174.0460  142.4280 C   0  0  0  0  0  3  0  0  0  0  0  0
  190.0050  174.6040  145.0820 C   0  0  0  0  0  0  0  0  0  0  0  0
  191.3960  175.0350  143.1420 C   0  0  0  0  0  3  0  0  0  0  0  0
  189.6800  173.3290  143.0410 C   0  0  0  0  0  0  0  0  0  0  0  0
  189.3230  173.6110  144.3610 C   0  0  0  0  0  3  0  0  0  0  0  0
  187.6980  172.7700  141.9160 F   0  0  0  0  0  0  0  0  0  0  0  0
  188.9420  172.2880  142.2770 C   0  0  0  0  0  2  0  0  0  0  0  0
  1  5  1  1  0  0  0
  2  1  1  0  0  0  0
  2  9  1  0  0  0  0
  4 20  1  6  0  0  0
  4  8  1  0  0  0  0
  4  7  1  0  0  0  0
  6  1  1  0  0  0  0
  7  3  1  6  0  0  0
  7  9  1  0  0  0  0
  8  6  1  6  0  0  0
  8  1  1  0  0  0  0
 10  6  1  0  0  0  0
 11 12  2  0  0  0  0
 12 10  1  0  0  0  0
 13 10  2  0  0  0  0
 14 13  1  0  0  0  0
 15 14  2  0  0  0  0
 15 11  1  0  0  0  0
 16 15  1  0  0  0  0
 17 16  1  0  0  0  0
 18 20  1  0  0  0  0
 19 22  2  0  0  0  0
 19 21  1  0  0  0  0
 21 18  2  0  0  0  0
 22 23  1  0  0  0  0
 23 20  2  0  0  0  0
 24 25  1  0  0  0  0
 25 22  1  0  0  0  0
M  END
>  <MODEL>
6

>  <REMARK>
 VINA RESULT:      -6.8      2.628      6.546
  Name = 
  4 active torsions:
  status: ('A' for Active; 'I' for Inactive)
    1  A    between atoms: C_2  and  N_18
    2  A    between atoms: N_3  and  C_21
    3  A    between atoms: C_8  and  C_10
    4  A    between atoms: C_16  and  C_24
                            x       y       z     vdW  Elec       q    Type
                         _______ _______ _______ _____ _____    ______ ____

>  <TORSDO>
F 4

$$$$
=
 OpenBabel11042413483D

 25 28  0  0  1  0  0  0  0  0999 V2000
  191.3960  174.4990  145.3000 C   0  0  1  0  0  0  0  0  0  0  0  0
  190.3040  174.4490  146.1920 O   0  0  0  0  0  0  0  0  0  0  0  0
  189.5050  177.5460  147.1900 N   0  0  0  0  0  1  0  0  0  0  0  0
  190.9170  176.8810  145.2320 C   0  0  1  0  0  3  0  0  0  0  0  0
  192.3440  173.4810  145.3910 O   0  0  0  0  0  1  0  0  0  0  0  0
  190.9490  174.7150  143.8980 N   0  0  0  0  0  0  0  0  0  0  0  0
  190.6700  176.7880  146.7590 C   0  0  2  0  0  3  0  0  0  0  0  0
  191.7650  175.6980  144.7000 C   0  0  2  0  0  3  0  0  0  0  0  0
  190.5880  175.3350  147.2480 C   0  0  0  0  0  2  0  0  0  0  0  0
  190.2550  174.3150  142.7210 C   0  0  0  0  0  0  0  0  0  0  0  0
  190.2690  173.7730  140.3620 C   0  0  0  0  0  3  0  0  0  0  0  0
  190.9450  174.1920  141.5110 C   0  0  0  0  0  3  0  0  0  0  0  0
  188.8900  174.0170  142.7810 C   0  0  0  0  0  3  0  0  0  0  0  0
  188.2140  173.5970  141.6320 C   0  0  0  0  0  3  0  0  0  0  0  0
  188.9000  173.4730  140.4200 C   0  0  0  0  0  0  0  0  0  0  0  0
  188.1980  173.0420  139.2560 N   0  0  0  0  0  2  0  0  0  0  0  0
  188.2180  173.7650  138.1110 O   0  0  0  0  0  1  0  0  0  0  0  0
  189.9220  177.7800  143.1140 C   0  0  0  0  0  3  0  0  0  0  0  0
  187.5310  177.7990  142.7270 C   0  0  0  0  0  3  0  0  0  0  0  0
  189.7180  177.2280  144.3840 C   0  0  0  0  0  0  0  0  0  0  0  0
  188.8320  178.0690  142.2880 C   0  0  0  0  0  3  0  0  0  0  0  0
  187.3210  177.2350  143.9890 C   0  0  0  0  0  0  0  0  0  0  0  0
  188.4110  176.9560  144.8170 C   0  0  0  0  0  3  0  0  0  0  0  0
  185.9790  176.4100  145.7270 F   0  0  0  0  0  0  0  0  0  0  0  0
  185.9380  176.9630  144.4610 C   0  0  0  0  0  2  0  0  0  0  0  0
  1  5  1  1  0  0  0
  1  2  1  0  0  0  0
  2  9  1  0  0  0  0
  4 20  1  6  0  0  0
  4  7  1  0  0  0  0
  6  1  1  0  0  0  0
  7  3  1  6  0  0  0
  7  9  1  0  0  0  0
  8  6  1  6  0  0  0
  8  4  1  0  0  0  0
  8  1  1  0  0  0  0
 10 13  1  0  0  0  0
 10  6  1  0  0  0  0
 11 15  2  0  0  0  0
 11 12  1  0  0  0  0
 12 10  2  0  0  0  0
 14 13  2  0  0  0  0
 15 14  1  0  0  0  0
 16 15  1  0  0  0  0
 17 16  1  0  0  0  0
 18 20  1  0  0  0  0
 19 22  2  0  0  0  0
 20 23  2  0  0  0  0
 21 19  1  0  0  0  0
 21 18  2  0  0  0  0
 22 25  1  0  0  0  0
 22 23  1  0  0  0  0
 25 24  1  0  0  0  0
M  END
>  <MODEL>
7

>  <REMARK>
 VINA RESULT:      -6.7      2.747      5.785
  Name = 
  4 active torsions:
  status: ('A' for Active; 'I' for Inactive)
    1  A    between atoms: C_2  and  N_18
    2  A    between atoms: N_3  and  C_21
    3  A    between atoms: C_8  and  C_10
    4  A    between atoms: C_16  and  C_24
                            x       y       z     vdW  Elec       q    Type
                         _______ _______ _______ _____ _____    ______ ____

>  <TORSDO>
F 4

$$$$
=
 OpenBabel11042413483D

 25 28  0  0  1  0  0  0  0  0999 V2000
  191.6280  176.4590  147.3010 C   0  0  1  0  0  0  0  0  0  0  0  0
  192.5550  177.0180  146.3950 O   0  0  0  0  0  0  0  0  0  0  0  0
  194.1080  174.5770  144.7040 N   0  0  0  0  0  1  0  0  0  0  0  0
  191.9940  174.4150  146.0370 C   0  0  1  0  0  3  0  0  0  0  0  0
  191.4940  177.0790  148.5430 O   0  0  0  0  0  1  0  0  0  0  0  0
  190.3100  176.2190  146.6570 N   0  0  0  0  0  0  0  0  0  0  0  0
  193.4930  174.8060  146.0030 C   0  0  2  0  0  3  0  0  0  0  0  0
  191.2240  175.1350  147.1730 C   0  0  2  0  0  3  0  0  0  0  0  0
  193.7310  176.2470  146.4740 C   0  0  0  0  0  2  0  0  0  0  0  0
  189.1190  176.6670  146.0170 C   0  0  0  0  0  0  0  0  0  0  0  0
  188.0320  177.9090  144.2470 C   0  0  0  0  0  3  0  0  0  0  0  0
  189.2000  177.4920  144.8910 C   0  0  0  0  0  3  0  0  0  0  0  0
  187.8720  176.2580  146.4970 C   0  0  0  0  0  3  0  0  0  0  0  0
  186.7030  176.6740  145.8510 C   0  0  0  0  0  3  0  0  0  0  0  0
  186.7790  177.5000  144.7250 C   0  0  0  0  0  0  0  0  0  0  0  0
  185.5790  177.9160  144.0770 N   0  0  0  0  0  2  0  0  0  0  0  0
  185.5070  179.0940  143.4120 O   0  0  0  0  0  1  0  0  0  0  0  0
  191.6260  175.3490  143.7390 C   0  0  0  0  0  3  0  0  0  0  0  0
  190.0610  174.3520  142.1840 C   0  0  0  0  0  3  0  0  0  0  0  0
  191.2810  174.3980  144.7060 C   0  0  0  0  0  0  0  0  0  0  0  0
  191.0150  175.3290  142.4820 C   0  0  0  0  0  3  0  0  0  0  0  0
  189.7200  173.3910  143.1410 C   0  0  0  0  0  0  0  0  0  0  0  0
  190.3240  173.4170  144.4000 C   0  0  0  0  0  3  0  0  0  0  0  0
  187.7140  172.9100  142.0240 F   0  0  0  0  0  0  0  0  0  0  0  0
  188.6940  172.3610  142.8290 C   0  0  0  0  0  2  0  0  0  0  0  0
  1  5  1  1  0  0  0
  2  9  1  0  0  0  0
  2  1  1  0  0  0  0
  4 20  1  6  0  0  0
  4  8  1  0  0  0  0
  6  1  1  0  0  0  0
  7  3  1  6  0  0  0
  7  4  1  0  0  0  0
  7  9  1  0  0  0  0
  8  6  1  6  0  0  0
  8  1  1  0  0  0  0
 10 13  1  0  0  0  0
 10  6  1  0  0  0  0
 11 15  2  0  0  0  0
 11 12  1  0  0  0  0
 12 10  2  0  0  0  0
 14 13  2  0  0  0  0
 15 14  1  0  0  0  0
 16 15  1  0  0  0  0
 17 16  1  0  0  0  0
 18 20  1  0  0  0  0
 19 21  1  0  0  0  0
 19 22  2  0  0  0  0
 21 18  2  0  0  0  0
 22 23  1  0  0  0  0
 23 20  2  0  0  0  0
 24 25  1  0  0  0  0
 25 22  1  0  0  0  0
M  END
>  <MODEL>
8

>  <REMARK>
 VINA RESULT:      -6.6      2.833      6.488
  Name = 
  4 active torsions:
  status: ('A' for Active; 'I' for Inactive)
    1  A    between atoms: C_2  and  N_18
    2  A    between atoms: N_3  and  C_21
    3  A    between atoms: C_8  and  C_10
    4  A    between atoms: C_16  and  C_24
                            x       y       z     vdW  Elec       q    Type
                         _______ _______ _______ _____ _____    ______ ____

>  <TORSDO>
F 4

$$$$
=
 OpenBabel11042413483D

 25 28  0  0  1  0  0  0  0  0999 V2000
  193.6220  176.5260  146.0700 C   0  0  1  0  0  0  0  0  0  0  0  0
  193.9180  177.1540  144.8410 O   0  0  0  0  0  0  0  0  0  0  0  0
  194.8480  174.8600  142.5820 N   0  0  0  0  0  1  0  0  0  0  0  0
  193.6600  174.4820  144.7540 C   0  0  1  0  0  3  0  0  0  0  0  0
  193.9940  177.1940  147.2360 O   0  0  0  0  0  1  0  0  0  0  0  0
  192.2110  176.0630  146.1230 N   0  0  0  0  0  0  0  0  0  0  0  0
  194.8880  175.0770  144.0200 C   0  0  2  0  0  3  0  0  0  0  0  0
  193.4140  175.1520  146.1290 C   0  0  2  0  0  3  0  0  0  0  0  0
  195.0950  176.5640  144.3430 C   0  0  0  0  0  2  0  0  0  0  0  0
  190.8060  176.2990  146.1280 C   0  0  0  0  0  0  0  0  0  0  0  0
  188.8850  177.5340  145.3280 C   0  0  0  0  0  3  0  0  0  0  0  0
  190.2670  177.3220  145.3430 C   0  0  0  0  0  3  0  0  0  0  0  0
  189.9650  175.4890  146.8970 C   0  0  0  0  0  3  0  0  0  0  0  0
  188.5830  175.7010  146.8810 C   0  0  0  0  0  3  0  0  0  0  0  0
  188.0390  176.7230  146.0970 C   0  0  0  0  0  0  0  0  0  0  0  0
  186.6270  176.9280  146.0890 N   0  0  0  0  0  2  0  0  0  0  0  0
  185.8960  176.7620  144.9610 O   0  0  0  0  0  1  0  0  0  0  0  0
  192.1800  175.1450  142.8430 C   0  0  0  0  0  3  0  0  0  0  0  0
  190.1800  173.9020  142.2750 C   0  0  0  0  0  3  0  0  0  0  0  0
  192.4180  174.2840  143.9190 C   0  0  0  0  0  0  0  0  0  0  0  0
  191.0620  174.9580  142.0240 C   0  0  0  0  0  3  0  0  0  0  0  0
  190.4190  173.0300  143.3420 C   0  0  0  0  0  0  0  0  0  0  0  0
  191.5310  173.2230  144.1650 C   0  0  0  0  0  3  0  0  0  0  0  0
  189.2730  171.8030  144.9810 F   0  0  0  0  0  0  0  0  0  0  0  0
  189.4730  171.9170  143.6190 C   0  0  0  0  0  2  0  0  0  0  0  0
  1  6  1  0  0  0  0
  1  8  1  0  0  0  0
  1  5  1  1  0  0  0
  2  1  1  0  0  0  0
  4 20  1  6  0  0  0
  4  8  1  0  0  0  0
  6 10  1  0  0  0  0
  7  3  1  6  0  0  0
  7  9  1  0  0  0  0
  7  4  1  0  0  0  0
  8  6  1  6  0  0  0
  9  2  1  0  0  0  0
 10 13  1  0  0  0  0
 11 12  1  0  0  0  0
 11 15  2  0  0  0  0
 12 10  2  0  0  0  0
 14 13  2  0  0  0  0
 15 14  1  0  0  0  0
 16 15  1  0  0  0  0
 17 16  1  0  0  0  0
 18 20  1  0  0  0  0
 19 22  2  0  0  0  0
 20 23  2  0  0  0  0
 21 19  1  0  0  0  0
 21 18  2  0  0  0  0
 22 25  1  0  0  0  0
 22 23  1  0  0  0  0
 25 24  1  0  0  0  0
M  END
>  <MODEL>
9

>  <REMARK>
 VINA RESULT:      -6.5      3.630      6.578
  Name = 
  4 active torsions:
  status: ('A' for Active; 'I' for Inactive)
    1  A    between atoms: C_2  and  N_18
    2  A    between atoms: N_3  and  C_21
    3  A    between atoms: C_8  and  C_10
    4  A    between atoms: C_16  and  C_24
                            x       y       z     vdW  Elec       q    Type
                         _______ _______ _______ _____ _____    ______ ____

>  <TORSDO>
F 4

$$$$
