=
 OpenBabel11042418223D

 37 39  0  0  1  0  0  0  0  0999 V2000
  186.1670  178.0710  142.1580 C   0  0  0  0  0  0  0  0  0  0  0  0
  184.0190  178.8750  143.7760 C   0  0  0  0  0  3  0  0  0  0  0  0
  183.7720  178.3750  142.4880 C   0  0  0  0  0  0  0  0  0  0  0  0
  186.3960  178.5770  143.4500 C   0  0  0  0  0  3  0  0  0  0  0  0
  184.8460  177.9750  141.6900 C   0  0  0  0  0  3  0  0  0  0  0  0
  185.3300  178.9770  144.2590 C   0  0  0  0  0  0  0  0  0  0  0  0
  187.3270  177.6320  141.2930 C   0  0  2  0  0  0  0  0  0  0  0  0
  187.5030  175.5260  140.3050 N   0  0  0  0  0  0  0  0  0  0  0  0
  187.0020  177.7980  139.8110 C   0  0  0  0  0  3  0  0  0  0  0  0
  187.1570  176.4050  139.2030 C   0  0  0  0  0  3  0  0  0  0  0  0
  187.5900  176.1770  141.4140 C   0  0  0  0  0  0  0  0  0  0  0  0
  188.4930  178.3450  141.5920 O   0  0  0  0  0  1  0  0  0  0  0  0
  187.9340  175.5510  142.6550 N   0  0  0  0  0  0  0  0  0  0  0  0
  188.5080  174.4160  142.7110 C   0  0  0  0  0  0  0  0  0  0  0  0
  189.0690  173.3130  142.7680 O   0  0  0  0  0  0  0  0  0  0  0  0
  182.4730  178.2610  141.9810 O   0  0  0  0  0  0  0  0  0  0  0  0
  182.1870  178.1540  140.5920 C   0  0  0  0  0  2  0  0  0  0  0  0
  180.5250  179.5920  140.8040 C   0  0  0  0  0  1  0  0  0  0  0  0
  180.8140  178.2950  140.3800 O   0  0  0  0  0  0  0  0  0  0  0  0
  185.6000  179.4870  145.5680 N   0  0  0  0  0  2  0  0  0  0  0  0
  183.9840  178.6250  146.9990 F   0  0  0  0  0  0  0  0  0  0  0  0
  185.3470  178.7320  146.7870 C   0  0  1  0  0  3  0  0  0  0  0  0
  185.2160  176.3810  146.4050 O   0  0  0  0  0  0  0  0  0  0  0  0
  187.3540  177.2120  146.8580 N   0  0  0  0  0  2  0  0  0  0  0  0
  185.9470  177.3730  146.6730 C   0  0  0  0  0  0  0  0  0  0  0  0
  188.0030  175.9080  146.8510 C   0  0  0  0  0  2  0  0  0  0  0  0
  191.4740  175.4050  147.4610 C   0  0  0  0  0  2  0  0  0  0  0  0
  189.4150  176.0210  146.2960 C   0  0  2  0  0  3  0  0  0  0  0  0
  190.2430  174.8410  146.7800 C   0  0  1  0  0  3  0  0  0  0  0  0
  191.0960  176.8100  147.8650 C   0  0  0  0  0  2  0  0  0  0  0  0
  190.1060  177.2720  146.8180 C   0  0  0  0  0  2  0  0  0  0  0  0
  190.6240  173.9160  145.6290 C   0  0  0  0  0  2  0  0  0  0  0  0
  191.6840  174.4490  144.8880 O   0  0  0  0  0  0  0  0  0  0  0  0
  193.6970  172.9350  145.6430 O   0  0  0  0  0  1  0  0  0  0  0  0
  191.7710  171.7260  144.3440 O   0  0  0  0  0  1  0  0  0  0  0  0
  192.6930  173.1340  144.5310 P   0  0  0  0  0  0  0  0  0  0  0  0
  193.5170  173.4480  143.0890 O   0  0  0  0  0  0  0  0  0  0  0  0
  1  4  1  0  0  0  0
  2  6  1  0  0  0  0
  3  2  2  0  0  0  0
  4  6  2  0  0  0  0
  5  1  2  0  0  0  0
  5  3  1  0  0  0  0
  6 20  1  0  0  0  0
  7 11  1  0  0  0  0
  7 12  1  1  0  0  0
  7  1  1  0  0  0  0
  8 11  2  0  0  0  0
  9  7  1  0  0  0  0
 10  9  2  0  0  0  0
 10  8  1  0  0  0  0
 11 13  1  0  0  0  0
 13 14  2  0  0  0  0
 14 15  2  0  0  0  0
 16  3  1  0  0  0  0
 17 16  1  0  0  0  0
 19 17  1  0  0  0  0
 19 18  1  0  0  0  0
 20 22  1  0  0  0  0
 22 21  1  6  0  0  0
 23 25  2  0  0  0  0
 25 22  1  0  0  0  0
 25 24  1  0  0  0  0
 26 24  1  0  0  0  0
 27 30  1  0  0  0  0
 28 29  1  0  0  0  0
 28 31  1  0  0  0  0
 28 26  1  1  0  0  0
 29 32  1  6  0  0  0
 29 27  1  0  0  0  0
 31 30  1  0  0  0  0
 33 32  1  0  0  0  0
 35 36  1  0  0  0  0
 36 33  1  0  0  0  0
 36 34  1  0  0  0  0
 37 36  2  0  0  0  0
M  END
>  <MODEL>
1

>  <REMARK>
 VINA RESULT:      -6.9      0.000      0.000
  Name = 
  13 active torsions:
  status: ('A' for Active; 'I' for Inactive)
    1  A    between atoms: C_2  and  C_4
    2  A    between atoms: O_8  and  C_25
    3  A    between atoms: O_8  and  P_30
    4  A    between atoms: C_9  and  C_28
    5  A    between atoms: N_11  and  C_28
    6  A    between atoms: O_13  and  C_15
    7  A    between atoms: O_13  and  C_36
    8  A    between atoms: C_16  and  C_25
    9  A    between atoms: N_20  and  C_23
   10  A    between atoms: N_20  and  C_37
   11  A    between atoms: C_21  and  N_27
   12  A    between atoms: C_23  and  C_32
   13  A    between atoms: O_24  and  C_36
                            x       y       z     vdW  Elec       q    Type
                         _______ _______ _______ _____ _____    ______ ____

>  <TORSDO>
F 13

$$$$
=
 OpenBabel11042418223D

 37 39  0  0  1  0  0  0  0  0999 V2000
  188.6470  177.2330  144.1770 C   0  0  0  0  0  0  0  0  0  0  0  0
  188.7310  176.7700  146.9440 C   0  0  0  0  0  3  0  0  0  0  0  0
  187.4930  176.8380  146.2860 C   0  0  0  0  0  0  0  0  0  0  0  0
  189.8780  177.1640  144.8530 C   0  0  0  0  0  3  0  0  0  0  0  0
  187.4600  177.0670  144.9090 C   0  0  0  0  0  3  0  0  0  0  0  0
  189.9250  176.9330  146.2290 C   0  0  0  0  0  0  0  0  0  0  0  0
  188.6070  177.4760  142.6850 C   0  0  2  0  0  0  0  0  0  0  0  0
  187.3750  176.1880  141.1790 N   0  0  0  0  0  0  0  0  0  0  0  0
  187.3780  178.2890  142.2930 C   0  0  0  0  0  3  0  0  0  0  0  0
  186.6200  177.4220  141.2880 C   0  0  0  0  0  3  0  0  0  0  0  0
  188.4290  176.2160  141.9220 C   0  0  0  0  0  0  0  0  0  0  0  0
  189.7580  178.1330  142.2380 O   0  0  0  0  0  1  0  0  0  0  0  0
  189.3590  175.1290  141.9890 N   0  0  0  0  0  0  0  0  0  0  0  0
  188.9920  173.9270  142.1930 C   0  0  0  0  0  0  0  0  0  0  0  0
  188.6360  172.7580  142.3900 O   0  0  0  0  0  0  0  0  0  0  0  0
  186.2860  176.6770  146.9750 O   0  0  0  0  0  0  0  0  0  0  0  0
  185.0140  176.8970  146.3760 C   0  0  0  0  0  2  0  0  0  0  0  0
  184.1610  178.8320  145.7440 C   0  0  0  0  0  1  0  0  0  0  0  0
  184.4530  178.0730  146.8770 O   0  0  0  0  0  0  0  0  0  0  0  0
  191.1950  176.8690  146.8850 N   0  0  0  0  0  2  0  0  0  0  0  0
  191.3670  174.6360  146.2640 F   0  0  0  0  0  0  0  0  0  0  0  0
  192.0240  175.6730  146.9030 C   0  0  1  0  0  3  0  0  0  0  0  0
  194.1390  176.7610  146.7240 O   0  0  0  0  0  0  0  0  0  0  0  0
  193.6270  175.2610  145.0050 N   0  0  0  0  0  2  0  0  0  0  0  0
  193.3200  175.9440  146.2210 C   0  0  0  0  0  0  0  0  0  0  0  0
  194.8310  175.5340  144.2330 C   0  0  0  0  0  2  0  0  0  0  0  0
  195.7510  172.4060  145.6600 C   0  0  0  0  0  2  0  0  0  0  0  0
  195.6620  174.2700  144.0800 C   0  0  2  0  0  3  0  0  0  0  0  0
  194.8790  173.0830  144.6220 C   0  0  1  0  0  3  0  0  0  0  0  0
  196.7270  173.4670  146.1130 C   0  0  0  0  0  2  0  0  0  0  0  0
  196.9370  174.3550  144.9060 C   0  0  0  0  0  2  0  0  0  0  0  0
  194.4920  172.1150  143.5090 C   0  0  0  0  0  2  0  0  0  0  0  0
  193.2630  172.4690  142.9420 O   0  0  0  0  0  0  0  0  0  0  0  0
  191.1780  172.0550  144.4910 O   0  0  0  0  0  1  0  0  0  0  0  0
  191.2820  170.6300  142.2950 O   0  0  0  0  0  0  0  0  0  0  0  0
  192.1430  171.3560  143.5600 P   0  0  0  0  0  0  0  0  0  0  0  0
  192.9730  170.1600  144.4190 O   0  0  0  0  0  1  0  0  0  0  0  0
  1  4  2  0  0  0  0
  1  5  1  0  0  0  0
  3  2  1  0  0  0  0
  3 16  1  0  0  0  0
  4  6  1  0  0  0  0
  5  3  2  0  0  0  0
  6 20  1  0  0  0  0
  6  2  2  0  0  0  0
  7 12  1  6  0  0  0
  7  1  1  0  0  0  0
  8 10  1  0  0  0  0
  8 11  2  0  0  0  0
  9  7  1  0  0  0  0
 10  9  2  0  0  0  0
 11 13  1  0  0  0  0
 11  7  1  0  0  0  0
 13 14  2  0  0  0  0
 14 15  2  0  0  0  0
 17 19  1  0  0  0  0
 17 16  1  0  0  0  0
 18 19  1  0  0  0  0
 20 22  1  0  0  0  0
 22 21  1  6  0  0  0
 24 25  1  0  0  0  0
 25 23  2  0  0  0  0
 25 22  1  0  0  0  0
 26 24  1  0  0  0  0
 27 30  1  0  0  0  0
 28 26  1  1  0  0  0
 28 29  1  0  0  0  0
 28 31  1  0  0  0  0
 29 32  1  6  0  0  0
 29 27  1  0  0  0  0
 31 30  1  0  0  0  0
 33 32  1  0  0  0  0
 33 36  1  0  0  0  0
 35 36  2  0  0  0  0
 36 37  1  0  0  0  0
 36 34  1  0  0  0  0
M  END
>  <MODEL>
2

>  <REMARK>
 VINA RESULT:      -6.8      3.259      5.255
  Name = 
  13 active torsions:
  status: ('A' for Active; 'I' for Inactive)
    1  A    between atoms: C_2  and  C_4
    2  A    between atoms: O_8  and  C_25
    3  A    between atoms: O_8  and  P_30
    4  A    between atoms: C_9  and  C_28
    5  A    between atoms: N_11  and  C_28
    6  A    between atoms: O_13  and  C_15
    7  A    between atoms: O_13  and  C_36
    8  A    between atoms: C_16  and  C_25
    9  A    between atoms: N_20  and  C_23
   10  A    between atoms: N_20  and  C_37
   11  A    between atoms: C_21  and  N_27
   12  A    between atoms: C_23  and  C_32
   13  A    between atoms: O_24  and  C_36
                            x       y       z     vdW  Elec       q    Type
                         _______ _______ _______ _____ _____    ______ ____

>  <TORSDO>
F 13

$$$$
=
 OpenBabel11042418223D

 37 39  0  0  1  0  0  0  0  0999 V2000
  194.8110  173.6080  145.2690 C   0  0  0  0  0  0  0  0  0  0  0  0
  193.8340  176.2390  145.2560 C   0  0  0  0  0  3  0  0  0  0  0  0
  195.1110  175.9680  144.7410 C   0  0  0  0  0  0  0  0  0  0  0  0
  193.5360  173.8990  145.7830 C   0  0  0  0  0  3  0  0  0  0  0  0
  195.5890  174.6550  144.7490 C   0  0  0  0  0  3  0  0  0  0  0  0
  193.0440  175.2070  145.7780 C   0  0  0  0  0  0  0  0  0  0  0  0
  195.3300  172.1880  145.2720 C   0  0  2  0  0  0  0  0  0  0  0  0
  196.8020  171.3270  143.6790 N   0  0  0  0  0  0  0  0  0  0  0  0
  196.7070  172.1070  145.9240 C   0  0  0  0  0  3  0  0  0  0  0  0
  197.6270  171.5130  144.8580 C   0  0  0  0  0  3  0  0  0  0  0  0
  195.5840  171.6870  143.8980 C   0  0  0  0  0  0  0  0  0  0  0  0
  194.4540  171.3190  145.9320 O   0  0  0  0  0  1  0  0  0  0  0  0
  194.5570  171.5920  142.9040 N   0  0  0  0  0  0  0  0  0  0  0  0
  194.5850  172.2680  141.8260 C   0  0  0  0  0  0  0  0  0  0  0  0
  194.6110  172.9250  140.7770 O   0  0  0  0  0  0  0  0  0  0  0  0
  195.9200  176.9790  144.2120 O   0  0  0  0  0  0  0  0  0  0  0  0
  196.7650  176.7900  143.0830 C   0  0  0  0  0  2  0  0  0  0  0  0
  196.6210  175.8650  141.0840 C   0  0  0  0  0  1  0  0  0  0  0  0
  196.0020  176.8000  141.9150 O   0  0  0  0  0  0  0  0  0  0  0  0
  191.7430  175.4670  146.3100 N   0  0  0  0  0  2  0  0  0  0  0  0
  189.8370  174.1400  146.2050 F   0  0  0  0  0  0  0  0  0  0  0  0
  190.5130  175.1780  145.5870 C   0  0  1  0  0  3  0  0  0  0  0  0
  190.1550  177.5200  145.3100 O   0  0  0  0  0  0  0  0  0  0  0  0
  188.2450  176.2570  145.7840 N   0  0  0  0  0  2  0  0  0  0  0  0
  189.6480  176.3910  145.5530 C   0  0  0  0  0  0  0  0  0  0  0  0
  187.3480  177.4010  145.8550 C   0  0  0  0  0  2  0  0  0  0  0  0
  184.2840  178.5930  144.4900 C   0  0  0  0  0  2  0  0  0  0  0  0
  185.9730  177.0310  145.3180 C   0  0  2  0  0  3  0  0  0  0  0  0
  185.6190  177.9540  144.1620 C   0  0  1  0  0  3  0  0  0  0  0  0
  184.1580  178.5010  145.9920 C   0  0  0  0  0  2  0  0  0  0  0  0
  184.9020  177.2410  146.3770 C   0  0  0  0  0  2  0  0  0  0  0  0
  185.5580  177.1960  142.8400 C   0  0  0  0  0  2  0  0  0  0  0  0
  186.4880  176.1500  142.8200 O   0  0  0  0  0  0  0  0  0  0  0  0
  188.7790  177.2970  142.2280 O   0  0  0  0  0  1  0  0  0  0  0  0
  188.1610  175.1690  140.8300 O   0  0  0  0  0  1  0  0  0  0  0  0
  187.6070  176.5630  141.6150 P   0  0  0  0  0  0  0  0  0  0  0  0
  186.8530  177.5690  140.4860 O   0  0  0  0  0  0  0  0  0  0  0  0
  1  7  1  0  0  0  0
  1  4  1  0  0  0  0
  2  6  1  0  0  0  0
  3  5  1  0  0  0  0
  3  2  2  0  0  0  0
  5  1  2  0  0  0  0
  6  4  2  0  0  0  0
  6 20  1  0  0  0  0
  7  9  1  0  0  0  0
  7 12  1  1  0  0  0
  8 11  2  0  0  0  0
  8 10  1  0  0  0  0
 10  9  2  0  0  0  0
 11  7  1  0  0  0  0
 13 11  1  0  0  0  0
 14 13  2  0  0  0  0
 15 14  2  0  0  0  0
 16  3  1  0  0  0  0
 17 16  1  0  0  0  0
 18 19  1  0  0  0  0
 19 17  1  0  0  0  0
 22 21  1  1  0  0  0
 22 20  1  0  0  0  0
 23 25  2  0  0  0  0
 24 26  1  0  0  0  0
 25 22  1  0  0  0  0
 25 24  1  0  0  0  0
 27 30  1  0  0  0  0
 28 26  1  1  0  0  0
 28 31  1  0  0  0  0
 29 32  1  6  0  0  0
 29 27  1  0  0  0  0
 29 28  1  0  0  0  0
 30 31  1  0  0  0  0
 33 32  1  0  0  0  0
 35 36  1  0  0  0  0
 36 34  1  0  0  0  0
 36 33  1  0  0  0  0
 37 36  2  0  0  0  0
M  END
>  <MODEL>
3

>  <REMARK>
 VINA RESULT:      -6.7      4.552      9.197
  Name = 
  13 active torsions:
  status: ('A' for Active; 'I' for Inactive)
    1  A    between atoms: C_2  and  C_4
    2  A    between atoms: O_8  and  C_25
    3  A    between atoms: O_8  and  P_30
    4  A    between atoms: C_9  and  C_28
    5  A    between atoms: N_11  and  C_28
    6  A    between atoms: O_13  and  C_15
    7  A    between atoms: O_13  and  C_36
    8  A    between atoms: C_16  and  C_25
    9  A    between atoms: N_20  and  C_23
   10  A    between atoms: N_20  and  C_37
   11  A    between atoms: C_21  and  N_27
   12  A    between atoms: C_23  and  C_32
   13  A    between atoms: O_24  and  C_36
                            x       y       z     vdW  Elec       q    Type
                         _______ _______ _______ _____ _____    ______ ____

>  <TORSDO>
F 13

$$$$
=
 OpenBabel11042418223D

 37 39  0  0  1  0  0  0  0  0999 V2000
  193.0560  174.4090  143.9780 C   0  0  0  0  0  0  0  0  0  0  0  0
  191.3670  173.7760  141.8280 C   0  0  0  0  0  3  0  0  0  0  0  0
  192.4580  172.9450  142.1250 C   0  0  0  0  0  0  0  0  0  0  0  0
  191.9600  175.2310  143.6650 C   0  0  0  0  0  3  0  0  0  0  0  0
  193.2930  173.2660  143.1970 C   0  0  0  0  0  3  0  0  0  0  0  0
  191.1150  174.9200  142.5970 C   0  0  0  0  0  0  0  0  0  0  0  0
  193.9600  174.7510  145.1420 C   0  0  2  0  0  0  0  0  0  0  0  0
  194.9240  176.8490  145.4810 N   0  0  0  0  0  0  0  0  0  0  0  0
  193.1800  175.4320  146.2620 C   0  0  0  0  0  3  0  0  0  0  0  0
  193.8630  176.7840  146.4680 C   0  0  0  0  0  3  0  0  0  0  0  0
  194.9740  175.7700  144.7750 C   0  0  0  0  0  0  0  0  0  0  0  0
  194.6010  173.6160  145.6490 O   0  0  0  0  0  1  0  0  0  0  0  0
  195.9410  175.5670  143.7390 N   0  0  0  0  0  0  0  0  0  0  0  0
  195.9680  176.2730  142.6810 C   0  0  0  0  0  0  0  0  0  0  0  0
  195.9950  176.9600  141.6510 O   0  0  0  0  0  0  0  0  0  0  0  0
  192.7310  171.7960  141.3750 O   0  0  0  0  0  0  0  0  0  0  0  0
  192.5580  170.4770  141.8810 C   0  0  0  0  0  2  0  0  0  0  0  0
  190.9100  169.9660  140.5040 C   0  0  0  0  0  1  0  0  0  0  0  0
  191.2050  170.1360  141.8570 O   0  0  0  0  0  0  0  0  0  0  0  0
  190.0090  175.7790  142.3070 N   0  0  0  0  0  2  0  0  0  0  0  0
  188.3610  174.2270  142.8300 F   0  0  0  0  0  0  0  0  0  0  0  0
  188.6750  175.2860  141.9960 C   0  0  1  0  0  3  0  0  0  0  0  0
  187.8720  177.5030  141.6350 O   0  0  0  0  0  0  0  0  0  0  0  0
  186.4990  176.1320  142.9400 N   0  0  0  0  0  2  0  0  0  0  0  0
  187.6780  176.3780  142.1720 C   0  0  0  0  0  0  0  0  0  0  0  0
  185.5200  177.1700  143.2310 C   0  0  0  0  0  2  0  0  0  0  0  0
  184.6480  177.8260  146.6190 C   0  0  0  0  0  2  0  0  0  0  0  0
  185.8880  177.9010  144.5130 C   0  0  2  0  0  3  0  0  0  0  0  0
  185.5540  177.0210  145.7090 C   0  0  1  0  0  3  0  0  0  0  0  0
  184.0240  178.8770  145.7320 C   0  0  0  0  0  2  0  0  0  0  0  0
  185.0620  179.1700  144.6710 C   0  0  0  0  0  2  0  0  0  0  0  0
  186.8140  176.5720  146.4400 C   0  0  0  0  0  2  0  0  0  0  0  0
  187.7040  177.6380  146.6060 O   0  0  0  0  0  0  0  0  0  0  0  0
  189.7370  177.8570  144.9520 O   0  0  0  0  0  0  0  0  0  0  0  0
  190.3180  177.1240  147.3990 O   0  0  0  0  0  1  0  0  0  0  0  0
  189.2150  177.0450  146.1170 P   0  0  0  0  0  0  0  0  0  0  0  0
  189.0440  175.4340  145.6360 O   0  0  0  0  0  1  0  0  0  0  0  0
  1  7  1  0  0  0  0
  2  3  2  0  0  0  0
  2  6  1  0  0  0  0
  3  5  1  0  0  0  0
  4  1  1  0  0  0  0
  5  1  2  0  0  0  0
  6  4  2  0  0  0  0
  7 12  1  1  0  0  0
  7  9  1  0  0  0  0
  8 10  1  0  0  0  0
  9 10  2  0  0  0  0
 11  7  1  0  0  0  0
 11  8  2  0  0  0  0
 13 11  1  0  0  0  0
 14 13  2  0  0  0  0
 15 14  2  0  0  0  0
 16 17  1  0  0  0  0
 16  3  1  0  0  0  0
 18 19  1  0  0  0  0
 19 17  1  0  0  0  0
 20  6  1  0  0  0  0
 22 25  1  0  0  0  0
 22 20  1  0  0  0  0
 22 21  1  1  0  0  0
 23 25  2  0  0  0  0
 24 26  1  0  0  0  0
 25 24  1  0  0  0  0
 28 26  1  6  0  0  0
 28 31  1  0  0  0  0
 28 29  1  0  0  0  0
 29 32  1  1  0  0  0
 29 27  1  0  0  0  0
 30 27  1  0  0  0  0
 31 30  1  0  0  0  0
 32 33  1  0  0  0  0
 34 36  2  0  0  0  0
 36 33  1  0  0  0  0
 36 35  1  0  0  0  0
 37 36  1  0  0  0  0
M  END
>  <MODEL>
4

>  <REMARK>
 VINA RESULT:      -6.7      3.758      8.094
  Name = 
  13 active torsions:
  status: ('A' for Active; 'I' for Inactive)
    1  A    between atoms: C_2  and  C_4
    2  A    between atoms: O_8  and  C_25
    3  A    between atoms: O_8  and  P_30
    4  A    between atoms: C_9  and  C_28
    5  A    between atoms: N_11  and  C_28
    6  A    between atoms: O_13  and  C_15
    7  A    between atoms: O_13  and  C_36
    8  A    between atoms: C_16  and  C_25
    9  A    between atoms: N_20  and  C_23
   10  A    between atoms: N_20  and  C_37
   11  A    between atoms: C_21  and  N_27
   12  A    between atoms: C_23  and  C_32
   13  A    between atoms: O_24  and  C_36
                            x       y       z     vdW  Elec       q    Type
                         _______ _______ _______ _____ _____    ______ ____

>  <TORSDO>
F 13

$$$$
=
 OpenBabel11042418223D

 37 39  0  0  1  0  0  0  0  0999 V2000
  194.3420  175.7210  143.2250 C   0  0  0  0  0  0  0  0  0  0  0  0
  191.9440  174.9000  142.0210 C   0  0  0  0  0  3  0  0  0  0  0  0
  193.1670  174.3960  141.5520 C   0  0  0  0  0  0  0  0  0  0  0  0
  193.1080  176.2180  143.6790 C   0  0  0  0  0  3  0  0  0  0  0  0
  194.3560  174.8080  142.1580 C   0  0  0  0  0  3  0  0  0  0  0  0
  191.9120  175.8120  143.0840 C   0  0  0  0  0  0  0  0  0  0  0  0
  195.6320  176.1620  143.8810 C   0  0  2  0  0  0  0  0  0  0  0  0
  197.5640  174.8580  143.9810 N   0  0  0  0  0  0  0  0  0  0  0  0
  196.6100  176.7220  142.8530 C   0  0  0  0  0  3  0  0  0  0  0  0
  197.8650  175.8590  142.9740 C   0  0  0  0  0  3  0  0  0  0  0  0
  196.3780  175.0180  144.4600 C   0  0  0  0  0  0  0  0  0  0  0  0
  195.4050  177.1220  144.8730 O   0  0  0  0  0  1  0  0  0  0  0  0
  195.8360  174.1730  145.4820 N   0  0  0  0  0  0  0  0  0  0  0  0
  196.4010  173.0920  145.8460 C   0  0  0  0  0  0  0  0  0  0  0  0
  196.9500  172.0410  146.2020 O   0  0  0  0  0  0  0  0  0  0  0  0
  193.2280  173.4840  140.4930 O   0  0  0  0  0  0  0  0  0  0  0  0
  192.0790  172.8420  139.9520 C   0  0  0  0  0  2  0  0  0  0  0  0
  190.3220  173.4850  138.7810 C   0  0  0  0  0  1  0  0  0  0  0  0
  191.7160  173.4570  138.7530 O   0  0  0  0  0  0  0  0  0  0  0  0
  190.6750  176.3370  143.5720 N   0  0  0  0  0  2  0  0  0  0  0  0
  190.2490  178.3250  144.6980 F   0  0  0  0  0  0  0  0  0  0  0  0
  190.5370  176.9820  144.8700 C   0  0  1  0  0  3  0  0  0  0  0  0
  189.5520  175.1180  145.9860 O   0  0  0  0  0  0  0  0  0  0  0  0
  188.2950  177.0900  146.0120 N   0  0  0  0  0  2  0  0  0  0  0  0
  189.4470  176.3290  145.6470 C   0  0  0  0  0  0  0  0  0  0  0  0
  187.1500  176.5040  146.6940 C   0  0  0  0  0  2  0  0  0  0  0  0
  185.4380  178.8720  144.6610 C   0  0  0  0  0  2  0  0  0  0  0  0
  185.8630  176.8430  145.9570 C   0  0  2  0  0  3  0  0  0  0  0  0
  186.2000  177.5610  144.6590 C   0  0  1  0  0  3  0  0  0  0  0  0
  185.1460  179.1600  146.1150 C   0  0  0  0  0  2  0  0  0  0  0  0
  185.0080  177.8040  146.7690 C   0  0  0  0  0  2  0  0  0  0  0  0
  185.8410  176.7150  143.4430 C   0  0  0  0  0  2  0  0  0  0  0  0
  186.9680  176.0560  142.9410 O   0  0  0  0  0  0  0  0  0  0  0  0
  186.0190  177.3560  140.8610 O   0  0  0  0  0  1  0  0  0  0  0  0
  188.4260  178.0340  141.6420 O   0  0  0  0  0  1  0  0  0  0  0  0
  187.2930  176.7910  141.4470 P   0  0  0  0  0  0  0  0  0  0  0  0
  187.9230  175.6320  140.3900 O   0  0  0  0  0  0  0  0  0  0  0  0
  1  4  1  0  0  0  0
  1  7  1  0  0  0  0
  2  6  1  0  0  0  0
  3  2  2  0  0  0  0
  3  5  1  0  0  0  0
  5  1  2  0  0  0  0
  6 20  1  0  0  0  0
  6  4  2  0  0  0  0
  7 11  1  0  0  0  0
  7 12  1  1  0  0  0
  8 11  2  0  0  0  0
  9 10  2  0  0  0  0
  9  7  1  0  0  0  0
 10  8  1  0  0  0  0
 11 13  1  0  0  0  0
 13 14  2  0  0  0  0
 14 15  2  0  0  0  0
 16  3  1  0  0  0  0
 17 16  1  0  0  0  0
 19 18  1  0  0  0  0
 19 17  1  0  0  0  0
 20 22  1  0  0  0  0
 22 21  1  6  0  0  0
 22 25  1  0  0  0  0
 24 26  1  0  0  0  0
 25 23  2  0  0  0  0
 25 24  1  0  0  0  0
 27 30  1  0  0  0  0
 28 26  1  1  0  0  0
 28 31  1  0  0  0  0
 29 32  1  6  0  0  0
 29 27  1  0  0  0  0
 29 28  1  0  0  0  0
 30 31  1  0  0  0  0
 33 32  1  0  0  0  0
 34 36  1  0  0  0  0
 36 35  1  0  0  0  0
 36 33  1  0  0  0  0
 37 36  2  0  0  0  0
M  END
>  <MODEL>
5

>  <REMARK>
 VINA RESULT:      -6.7      4.480      8.143
  Name = 
  13 active torsions:
  status: ('A' for Active; 'I' for Inactive)
    1  A    between atoms: C_2  and  C_4
    2  A    between atoms: O_8  and  C_25
    3  A    between atoms: O_8  and  P_30
    4  A    between atoms: C_9  and  C_28
    5  A    between atoms: N_11  and  C_28
    6  A    between atoms: O_13  and  C_15
    7  A    between atoms: O_13  and  C_36
    8  A    between atoms: C_16  and  C_25
    9  A    between atoms: N_20  and  C_23
   10  A    between atoms: N_20  and  C_37
   11  A    between atoms: C_21  and  N_27
   12  A    between atoms: C_23  and  C_32
   13  A    between atoms: O_24  and  C_36
                            x       y       z     vdW  Elec       q    Type
                         _______ _______ _______ _____ _____    ______ ____

>  <TORSDO>
F 13

$$$$
=
 OpenBabel11042418223D

 37 39  0  0  1  0  0  0  0  0999 V2000
  193.9520  175.7690  144.0390 C   0  0  0  0  0  0  0  0  0  0  0  0
  191.2550  175.0000  144.1230 C   0  0  0  0  0  3  0  0  0  0  0  0
  192.0320  174.6910  142.9960 C   0  0  0  0  0  0  0  0  0  0  0  0
  193.1580  176.0720  145.1580 C   0  0  0  0  0  3  0  0  0  0  0  0
  193.3750  175.0760  142.9630 C   0  0  0  0  0  3  0  0  0  0  0  0
  191.8150  175.6910  145.2050 C   0  0  0  0  0  0  0  0  0  0  0  0
  195.4080  176.1800  144.0010 C   0  0  2  0  0  0  0  0  0  0  0  0
  197.1690  174.7240  143.5300 N   0  0  0  0  0  0  0  0  0  0  0  0
  195.8620  176.4650  142.5730 C   0  0  0  0  0  3  0  0  0  0  0  0
  197.0300  175.5130  142.3200 C   0  0  0  0  0  3  0  0  0  0  0  0
  196.3070  175.0760  144.4210 C   0  0  0  0  0  0  0  0  0  0  0  0
  195.6470  177.3060  144.7960 O   0  0  0  0  0  1  0  0  0  0  0  0
  196.2370  174.4670  145.7150 N   0  0  0  0  0  0  0  0  0  0  0  0
  196.5590  173.2520  145.9170 C   0  0  0  0  0  0  0  0  0  0  0  0
  196.8740  172.0720  146.1140 O   0  0  0  0  0  0  0  0  0  0  0  0
  191.4990  174.0000  141.9020 O   0  0  0  0  0  0  0  0  0  0  0  0
  190.5970  172.9080  142.0360 C   0  0  0  0  0  2  0  0  0  0  0  0
  189.5330  171.8690  143.6670 C   0  0  0  0  0  1  0  0  0  0  0  0
  190.8050  172.2700  143.2600 O   0  0  0  0  0  0  0  0  0  0  0  0
  191.0360  176.0160  146.3590 N   0  0  0  0  0  2  0  0  0  0  0  0
  189.9420  177.6510  145.1210 F   0  0  0  0  0  0  0  0  0  0  0  0
  190.0380  177.0760  146.3760 C   0  0  1  0  0  3  0  0  0  0  0  0
  188.6160  175.3090  147.1140 O   0  0  0  0  0  0  0  0  0  0  0  0
  187.5720  177.3750  146.7890 N   0  0  0  0  0  2  0  0  0  0  0  0
  188.7160  176.5200  146.7770 C   0  0  0  0  0  0  0  0  0  0  0  0
  186.2310  176.8900  147.0830 C   0  0  0  0  0  2  0  0  0  0  0  0
  185.5800  178.8370  144.1750 C   0  0  0  0  0  2  0  0  0  0  0  0
  185.3100  177.1200  145.8940 C   0  0  2  0  0  3  0  0  0  0  0  0
  186.1400  177.5240  144.6850 C   0  0  1  0  0  3  0  0  0  0  0  0
  184.8600  179.4470  145.3540 C   0  0  0  0  0  2  0  0  0  0  0  0
  184.3540  178.2730  146.1620 C   0  0  0  0  0  2  0  0  0  0  0  0
  186.1060  176.4520  143.6020 C   0  0  0  0  0  2  0  0  0  0  0  0
  187.3890  175.9490  143.3550 O   0  0  0  0  0  0  0  0  0  0  0  0
  188.3130  175.4090  140.9530 O   0  0  0  0  0  0  0  0  0  0  0  0
  186.4880  177.2820  141.0900 O   0  0  0  0  0  1  0  0  0  0  0  0
  187.8200  176.5410  141.8260 P   0  0  0  0  0  0  0  0  0  0  0  0
  189.0550  177.6810  142.0060 O   0  0  0  0  0  1  0  0  0  0  0  0
  1  4  1  0  0  0  0
  2  6  1  0  0  0  0
  3  2  2  0  0  0  0
  4  6  2  0  0  0  0
  5  3  1  0  0  0  0
  5  1  2  0  0  0  0
  6 20  1  0  0  0  0
  7  1  1  0  0  0  0
  7 11  1  0  0  0  0
  7 12  1  1  0  0  0
  8 11  2  0  0  0  0
  9  7  1  0  0  0  0
 10  9  2  0  0  0  0
 10  8  1  0  0  0  0
 11 13  1  0  0  0  0
 13 14  2  0  0  0  0
 14 15  2  0  0  0  0
 16 17  1  0  0  0  0
 16  3  1  0  0  0  0
 17 19  1  0  0  0  0
 19 18  1  0  0  0  0
 20 22  1  0  0  0  0
 22 21  1  6  0  0  0
 22 25  1  0  0  0  0
 24 26  1  0  0  0  0
 25 24  1  0  0  0  0
 25 23  2  0  0  0  0
 27 29  1  0  0  0  0
 27 30  1  0  0  0  0
 28 31  1  0  0  0  0
 28 26  1  1  0  0  0
 29 32  1  6  0  0  0
 29 28  1  0  0  0  0
 30 31  1  0  0  0  0
 33 32  1  0  0  0  0
 34 36  2  0  0  0  0
 35 36  1  0  0  0  0
 36 37  1  0  0  0  0
 36 33  1  0  0  0  0
M  END
>  <MODEL>
6

>  <REMARK>
 VINA RESULT:      -6.6      4.106      7.786
  Name = 
  13 active torsions:
  status: ('A' for Active; 'I' for Inactive)
    1  A    between atoms: C_2  and  C_4
    2  A    between atoms: O_8  and  C_25
    3  A    between atoms: O_8  and  P_30
    4  A    between atoms: C_9  and  C_28
    5  A    between atoms: N_11  and  C_28
    6  A    between atoms: O_13  and  C_15
    7  A    between atoms: O_13  and  C_36
    8  A    between atoms: C_16  and  C_25
    9  A    between atoms: N_20  and  C_23
   10  A    between atoms: N_20  and  C_37
   11  A    between atoms: C_21  and  N_27
   12  A    between atoms: C_23  and  C_32
   13  A    between atoms: O_24  and  C_36
                            x       y       z     vdW  Elec       q    Type
                         _______ _______ _______ _____ _____    ______ ____

>  <TORSDO>
F 13

$$$$
=
 OpenBabel11042418223D

 37 39  0  0  1  0  0  0  0  0999 V2000
  191.5310  172.8570  143.9130 C   0  0  0  0  0  0  0  0  0  0  0  0
  192.6770  174.6350  145.7570 C   0  0  0  0  0  3  0  0  0  0  0  0
  193.4900  173.9930  144.8100 C   0  0  0  0  0  0  0  0  0  0  0  0
  190.7320  173.5060  144.8700 C   0  0  0  0  0  3  0  0  0  0  0  0
  192.9120  173.1110  143.8950 C   0  0  0  0  0  3  0  0  0  0  0  0
  191.2980  174.3930  145.7890 C   0  0  0  0  0  0  0  0  0  0  0  0
  190.9080  171.9040  142.9170 C   0  0  2  0  0  0  0  0  0  0  0  0
  191.7880  171.4580  140.8020 N   0  0  0  0  0  0  0  0  0  0  0  0
  191.5680  170.5310  142.9820 C   0  0  0  0  0  3  0  0  0  0  0  0
  192.1020  170.2700  141.5730 C   0  0  0  0  0  3  0  0  0  0  0  0
  191.1560  172.3260  141.5160 C   0  0  0  0  0  0  0  0  0  0  0  0
  189.5320  171.7660  143.1260 O   0  0  0  0  0  1  0  0  0  0  0  0
  190.7130  173.5840  140.9940 N   0  0  0  0  0  0  0  0  0  0  0  0
  190.1080  173.6850  139.8780 C   0  0  0  0  0  0  0  0  0  0  0  0
  189.5190  173.7850  138.7940 O   0  0  0  0  0  0  0  0  0  0  0  0
  194.8700  174.2170  144.7550 O   0  0  0  0  0  0  0  0  0  0  0  0
  195.4560  175.5070  144.8930 C   0  0  0  0  0  2  0  0  0  0  0  0
  195.8840  176.3880  142.9150 C   0  0  0  0  0  1  0  0  0  0  0  0
  196.4750  175.6660  143.9530 O   0  0  0  0  0  0  0  0  0  0  0  0
  190.4550  175.0370  146.7490 N   0  0  0  0  0  2  0  0  0  0  0  0
  188.5700  174.3980  147.9480 F   0  0  0  0  0  0  0  0  0  0  0  0
  189.0040  174.9210  146.7420 C   0  0  1  0  0  3  0  0  0  0  0  0
  189.0720  177.1930  146.0190 O   0  0  0  0  0  0  0  0  0  0  0  0
  187.0230  176.4700  146.8810 N   0  0  0  0  0  2  0  0  0  0  0  0
  188.3900  176.2600  146.5240 C   0  0  0  0  0  0  0  0  0  0  0  0
  186.3750  177.7700  146.7810 C   0  0  0  0  0  2  0  0  0  0  0  0
  185.5210  179.0810  143.5840 C   0  0  0  0  0  2  0  0  0  0  0  0
  185.3650  177.7740  145.6440 C   0  0  2  0  0  3  0  0  0  0  0  0
  186.1000  177.8870  144.3170 C   0  0  1  0  0  3  0  0  0  0  0  0
  184.9080  179.9480  144.6580 C   0  0  0  0  0  2  0  0  0  0  0  0
  184.4510  178.9870  145.7330 C   0  0  0  0  0  2  0  0  0  0  0  0
  185.9620  176.6130  143.4920 C   0  0  0  0  0  2  0  0  0  0  0  0
  185.9990  176.8970  142.1220 O   0  0  0  0  0  0  0  0  0  0  0  0
  187.5750  175.9820  140.2260 O   0  0  0  0  0  0  0  0  0  0  0  0
  188.5330  177.9460  141.6710 O   0  0  0  0  0  1  0  0  0  0  0  0
  187.5830  176.5450  141.6290 P   0  0  0  0  0  0  0  0  0  0  0  0
  188.2440  175.3990  142.6820 O   0  0  0  0  0  1  0  0  0  0  0  0
  1  4  1  0  0  0  0
  2  6  1  0  0  0  0
  3  2  2  0  0  0  0
  4  6  2  0  0  0  0
  5  1  2  0  0  0  0
  5  3  1  0  0  0  0
  6 20  1  0  0  0  0
  7  9  1  0  0  0  0
  7 12  1  1  0  0  0
  7  1  1  0  0  0  0
  8 11  2  0  0  0  0
  8 10  1  0  0  0  0
 10  9  2  0  0  0  0
 11  7  1  0  0  0  0
 13 11  1  0  0  0  0
 14 13  2  0  0  0  0
 15 14  2  0  0  0  0
 16  3  1  0  0  0  0
 16 17  1  0  0  0  0
 18 19  1  0  0  0  0
 19 17  1  0  0  0  0
 22 20  1  0  0  0  0
 22 21  1  1  0  0  0
 23 25  2  0  0  0  0
 25 22  1  0  0  0  0
 25 24  1  0  0  0  0
 26 24  1  0  0  0  0
 27 29  1  0  0  0  0
 27 30  1  0  0  0  0
 28 31  1  0  0  0  0
 28 26  1  1  0  0  0
 29 32  1  6  0  0  0
 29 28  1  0  0  0  0
 30 31  1  0  0  0  0
 33 32  1  0  0  0  0
 34 36  2  0  0  0  0
 36 35  1  0  0  0  0
 36 33  1  0  0  0  0
 36 37  1  0  0  0  0
M  END
>  <MODEL>
7

>  <REMARK>
 VINA RESULT:      -6.6      3.356      7.991
  Name = 
  13 active torsions:
  status: ('A' for Active; 'I' for Inactive)
    1  A    between atoms: C_2  and  C_4
    2  A    between atoms: O_8  and  C_25
    3  A    between atoms: O_8  and  P_30
    4  A    between atoms: C_9  and  C_28
    5  A    between atoms: N_11  and  C_28
    6  A    between atoms: O_13  and  C_15
    7  A    between atoms: O_13  and  C_36
    8  A    between atoms: C_16  and  C_25
    9  A    between atoms: N_20  and  C_23
   10  A    between atoms: N_20  and  C_37
   11  A    between atoms: C_21  and  N_27
   12  A    between atoms: C_23  and  C_32
   13  A    between atoms: O_24  and  C_36
                            x       y       z     vdW  Elec       q    Type
                         _______ _______ _______ _____ _____    ______ ____

>  <TORSDO>
F 13

$$$$
=
 OpenBabel11042418223D

 37 39  0  0  1  0  0  0  0  0999 V2000
  190.9400  173.5470  141.8090 C   0  0  0  0  0  0  0  0  0  0  0  0
  192.5200  175.7890  142.4040 C   0  0  0  0  0  3  0  0  0  0  0  0
  192.9470  174.8750  141.4290 C   0  0  0  0  0  0  0  0  0  0  0  0
  190.5290  174.4720  142.7840 C   0  0  0  0  0  3  0  0  0  0  0  0
  192.1540  173.7630  141.1370 C   0  0  0  0  0  3  0  0  0  0  0  0
  191.3110  175.5900  143.0830 C   0  0  0  0  0  0  0  0  0  0  0  0
  190.0820  172.3440  141.4860 C   0  0  2  0  0  0  0  0  0  0  0  0
  190.1690  171.1750  139.4690 N   0  0  0  0  0  0  0  0  0  0  0  0
  190.8370  171.0440  141.7480 C   0  0  0  0  0  3  0  0  0  0  0  0
  190.8430  170.3020  140.4120 C   0  0  0  0  0  3  0  0  0  0  0  0
  189.7670  172.2590  140.0390 C   0  0  0  0  0  0  0  0  0  0  0  0
  188.8930  172.3450  142.2240 O   0  0  0  0  0  1  0  0  0  0  0  0
  189.0580  173.2860  139.3370 N   0  0  0  0  0  0  0  0  0  0  0  0
  189.1670  173.4550  138.0800 C   0  0  0  0  0  0  0  0  0  0  0  0
  189.2720  173.6200  136.8570 O   0  0  0  0  0  0  0  0  0  0  0  0
  194.1490  175.0500  140.7350 O   0  0  0  0  0  0  0  0  0  0  0  0
  194.9650  176.2080  140.8710 C   0  0  0  0  0  2  0  0  0  0  0  0
  196.4880  176.6190  142.4150 C   0  0  0  0  0  1  0  0  0  0  0  0
  196.2450  175.8380  141.2840 O   0  0  0  0  0  0  0  0  0  0  0  0
  190.8620  176.5100  144.0810 N   0  0  0  0  0  2  0  0  0  0  0  0
  192.1930  176.7530  145.9710 F   0  0  0  0  0  0  0  0  0  0  0  0
  190.9840  176.2610  145.5110 C   0  0  1  0  0  3  0  0  0  0  0  0
  190.0570  177.4180  147.3790 O   0  0  0  0  0  0  0  0  0  0  0  0
  188.5760  176.9900  145.6220 N   0  0  0  0  0  2  0  0  0  0  0  0
  189.8630  176.9190  146.2370 C   0  0  0  0  0  0  0  0  0  0  0  0
  187.4090  177.5380  146.3000 C   0  0  0  0  0  2  0  0  0  0  0  0
  184.5610  179.2050  144.9660 C   0  0  0  0  0  2  0  0  0  0  0  0
  186.1790  177.4270  145.4120 C   0  0  2  0  0  3  0  0  0  0  0  0
  185.9730  178.7390  144.6700 C   0  0  1  0  0  3  0  0  0  0  0  0
  184.1790  178.5210  146.2570 C   0  0  0  0  0  2  0  0  0  0  0  0
  184.9260  177.2050  146.2460 C   0  0  0  0  0  2  0  0  0  0  0  0
  186.1970  178.5740  143.1710 C   0  0  0  0  0  2  0  0  0  0  0  0
  186.3170  177.2220  142.8290 O   0  0  0  0  0  0  0  0  0  0  0  0
  187.7820  175.7650  141.2020 O   0  0  0  0  0  1  0  0  0  0  0  0
  186.5720  177.8250  140.1280 O   0  0  0  0  0  0  0  0  0  0  0  0
  187.3540  177.1870  141.4870 P   0  0  0  0  0  0  0  0  0  0  0  0
  188.7220  178.1210  141.8240 O   0  0  0  0  0  1  0  0  0  0  0  0
  1  4  1  0  0  0  0
  2  6  1  0  0  0  0
  3  2  2  0  0  0  0
  4  6  2  0  0  0  0
  5  3  1  0  0  0  0
  5  1  2  0  0  0  0
  6 20  1  0  0  0  0
  7  9  1  0  0  0  0
  7  1  1  0  0  0  0
  7 12  1  1  0  0  0
  8 11  2  0  0  0  0
  8 10  1  0  0  0  0
 10  9  2  0  0  0  0
 11  7  1  0  0  0  0
 13 11  1  0  0  0  0
 14 13  2  0  0  0  0
 15 14  2  0  0  0  0
 16 17  1  0  0  0  0
 16  3  1  0  0  0  0
 17 19  1  0  0  0  0
 19 18  1  0  0  0  0
 20 22  1  0  0  0  0
 22 21  1  1  0  0  0
 22 25  1  0  0  0  0
 24 25  1  0  0  0  0
 24 26  1  0  0  0  0
 25 23  2  0  0  0  0
 27 30  1  0  0  0  0
 28 31  1  0  0  0  0
 28 26  1  1  0  0  0
 29 32  1  6  0  0  0
 29 27  1  0  0  0  0
 29 28  1  0  0  0  0
 31 30  1  0  0  0  0
 33 32  1  0  0  0  0
 34 36  1  0  0  0  0
 35 36  2  0  0  0  0
 36 37  1  0  0  0  0
 36 33  1  0  0  0  0
M  END
>  <MODEL>
8

>  <REMARK>
 VINA RESULT:      -6.5      3.836      7.797
  Name = 
  13 active torsions:
  status: ('A' for Active; 'I' for Inactive)
    1  A    between atoms: C_2  and  C_4
    2  A    between atoms: O_8  and  C_25
    3  A    between atoms: O_8  and  P_30
    4  A    between atoms: C_9  and  C_28
    5  A    between atoms: N_11  and  C_28
    6  A    between atoms: O_13  and  C_15
    7  A    between atoms: O_13  and  C_36
    8  A    between atoms: C_16  and  C_25
    9  A    between atoms: N_20  and  C_23
   10  A    between atoms: N_20  and  C_37
   11  A    between atoms: C_21  and  N_27
   12  A    between atoms: C_23  and  C_32
   13  A    between atoms: O_24  and  C_36
                            x       y       z     vdW  Elec       q    Type
                         _______ _______ _______ _____ _____    ______ ____

>  <TORSDO>
F 13

$$$$
=
 OpenBabel11042418223D

 37 39  0  0  1  0  0  0  0  0999 V2000
  194.1040  174.3910  143.4470 C   0  0  0  0  0  0  0  0  0  0  0  0
  191.5680  173.7810  144.4810 C   0  0  0  0  0  3  0  0  0  0  0  0
  192.1510  172.9360  143.5240 C   0  0  0  0  0  0  0  0  0  0  0  0
  193.5040  175.2260  144.4040 C   0  0  0  0  0  3  0  0  0  0  0  0
  193.4150  173.2460  143.0160 C   0  0  0  0  0  3  0  0  0  0  0  0
  192.2420  174.9270  144.9230 C   0  0  0  0  0  0  0  0  0  0  0  0
  195.4750  174.7200  142.8970 C   0  0  2  0  0  0  0  0  0  0  0  0
  196.0430  176.7680  141.9350 N   0  0  0  0  0  0  0  0  0  0  0  0
  196.3080  175.4850  143.9200 C   0  0  0  0  0  3  0  0  0  0  0  0
  196.6800  176.8010  143.2380 C   0  0  0  0  0  3  0  0  0  0  0  0
  195.4020  175.6640  141.7550 C   0  0  0  0  0  0  0  0  0  0  0  0
  196.1650  173.5680  142.5070 O   0  0  0  0  0  1  0  0  0  0  0  0
  194.6950  175.3670  140.5460 N   0  0  0  0  0  0  0  0  0  0  0  0
  195.2790  175.2750  139.4180 C   0  0  0  0  0  0  0  0  0  0  0  0
  195.8460  175.1830  138.3210 O   0  0  0  0  0  0  0  0  0  0  0  0
  191.5010  171.7850  143.0670 O   0  0  0  0  0  0  0  0  0  0  0  0
  190.0860  171.6750  142.9740 C   0  0  0  0  0  2  0  0  0  0  0  0
  188.8500  173.0150  141.7290 C   0  0  0  0  0  1  0  0  0  0  0  0
  189.6800  171.8960  141.6570 O   0  0  0  0  0  0  0  0  0  0  0  0
  191.6610  175.7990  145.8950 N   0  0  0  0  0  2  0  0  0  0  0  0
  191.4020  175.2550  148.1400 F   0  0  0  0  0  0  0  0  0  0  0  0
  190.7400  175.3440  146.9280 C   0  0  1  0  0  3  0  0  0  0  0  0
  189.8190  177.5320  147.1540 O   0  0  0  0  0  0  0  0  0  0  0  0
  188.2640  175.7910  147.0200 N   0  0  0  0  0  2  0  0  0  0  0  0
  189.6000  176.2950  147.0450 C   0  0  0  0  0  0  0  0  0  0  0  0
  187.0990  176.6430  147.2160 C   0  0  0  0  0  2  0  0  0  0  0  0
  185.8350  178.9620  144.8290 C   0  0  0  0  0  2  0  0  0  0  0  0
  186.3490  176.8280  145.9060 C   0  0  2  0  0  3  0  0  0  0  0  0
  186.9580  177.9910  145.1360 C   0  0  1  0  0  3  0  0  0  0  0  0
  184.7670  178.6730  145.8570 C   0  0  0  0  0  2  0  0  0  0  0  0
  184.8950  177.1960  146.1590 C   0  0  0  0  0  2  0  0  0  0  0  0
  187.6430  177.5180  143.8590 C   0  0  0  0  0  2  0  0  0  0  0  0
  186.7110  176.9990  142.9530 O   0  0  0  0  0  0  0  0  0  0  0  0
  186.2220  178.2920  140.7160 O   0  0  0  0  0  1  0  0  0  0  0  0
  188.7010  178.3500  141.5610 O   0  0  0  0  0  1  0  0  0  0  0  0
  187.2690  177.4580  141.4190 P   0  0  0  0  0  0  0  0  0  0  0  0
  187.5740  176.0680  140.5070 O   0  0  0  0  0  0  0  0  0  0  0  0
  1  4  1  0  0  0  0
  2  6  1  0  0  0  0
  3  2  2  0  0  0  0
  4  6  2  0  0  0  0
  5  1  2  0  0  0  0
  5  3  1  0  0  0  0
  6 20  1  0  0  0  0
  7 12  1  6  0  0  0
  7  1  1  0  0  0  0
  7  9  1  0  0  0  0
  8 10  1  0  0  0  0
 10  9  2  0  0  0  0
 11  8  2  0  0  0  0
 11  7  1  0  0  0  0
 13 11  1  0  0  0  0
 14 13  2  0  0  0  0
 15 14  2  0  0  0  0
 16  3  1  0  0  0  0
 17 16  1  0  0  0  0
 19 18  1  0  0  0  0
 19 17  1  0  0  0  0
 20 22  1  0  0  0  0
 22 25  1  0  0  0  0
 22 21  1  1  0  0  0
 24 25  1  0  0  0  0
 24 26  1  0  0  0  0
 25 23  2  0  0  0  0
 27 29  1  0  0  0  0
 27 30  1  0  0  0  0
 28 31  1  0  0  0  0
 28 26  1  1  0  0  0
 29 32  1  6  0  0  0
 29 28  1  0  0  0  0
 30 31  1  0  0  0  0
 33 32  1  0  0  0  0
 34 36  1  0  0  0  0
 36 35  1  0  0  0  0
 36 33  1  0  0  0  0
 37 36  2  0  0  0  0
M  END
>  <MODEL>
9

>  <REMARK>
 VINA RESULT:      -6.5      4.181      7.962
  Name = 
  13 active torsions:
  status: ('A' for Active; 'I' for Inactive)
    1  A    between atoms: C_2  and  C_4
    2  A    between atoms: O_8  and  C_25
    3  A    between atoms: O_8  and  P_30
    4  A    between atoms: C_9  and  C_28
    5  A    between atoms: N_11  and  C_28
    6  A    between atoms: O_13  and  C_15
    7  A    between atoms: O_13  and  C_36
    8  A    between atoms: C_16  and  C_25
    9  A    between atoms: N_20  and  C_23
   10  A    between atoms: N_20  and  C_37
   11  A    between atoms: C_21  and  N_27
   12  A    between atoms: C_23  and  C_32
   13  A    between atoms: O_24  and  C_36
                            x       y       z     vdW  Elec       q    Type
                         _______ _______ _______ _____ _____    ______ ____

>  <TORSDO>
F 13

$$$$
