=
 OpenBabel11042417373D

 33 34  0  0  1  0  0  0  0  0999 V2000
  194.7280  177.2220  145.3170 O   0  0  0  0  0  0  0  0  0  0  0  0
  192.8470  176.0610  144.5480 N   0  0  0  0  0  2  0  0  0  0  0  0
  194.2590  176.2980  144.6030 C   0  0  0  0  0  0  0  0  0  0  0  0
  191.8310  176.8840  145.1940 C   0  0  1  0  0  3  0  0  0  0  0  0
  191.0420  175.3020  148.3710 O   0  0  0  0  0  0  0  0  0  0  0  0
  188.6980  176.1650  145.9060 C   0  0  1  0  0  3  0  0  0  0  0  0
  190.8340  175.6590  147.1830 C   0  0  0  0  0  0  0  0  0  0  0  0
  190.5280  176.9240  144.3920 C   0  0  0  0  0  2  0  0  0  0  0  0
  191.7180  176.5720  146.5910 O   0  0  0  0  0  0  0  0  0  0  0  0
  189.3560  177.3740  145.2470 C   0  0  0  0  0  2  0  0  0  0  0  0
  189.6440  175.0950  146.4670 C   0  0  0  0  0  2  0  0  0  0  0  0
  187.4820  176.5030  146.7780 C   0  0  0  0  0  2  0  0  0  0  0  0
  186.2570  177.1010  146.0780 C   0  0  1  0  0  3  0  0  0  0  0  0
  185.0970  176.3650  146.3340 O   0  0  0  0  0  1  0  0  0  0  0  0
  186.0650  178.6010  146.3170 C   0  0  2  0  0  3  0  0  0  0  0  0
  185.2080  178.8450  147.3960 O   0  0  0  0  0  1  0  0  0  0  0  0
  185.5710  179.3060  145.0560 C   0  0  2  0  0  3  0  0  0  0  0  0
  184.1820  179.2060  144.9710 O   0  0  0  0  0  1  0  0  0  0  0  0
  186.1980  178.7370  143.7930 C   0  0  0  0  0  1  0  0  0  0  0  0
  195.1970  175.4590  143.7910 C   0  0  2  0  0  3  0  0  0  0  0  0
  196.4530  171.9010  145.8800 C   0  0  0  0  0  0  0  0  0  0  0  0
  195.0460  172.9360  144.1730 C   0  0  0  0  0  0  0  0  0  0  0  0
  194.9870  170.5610  144.5900 F   0  0  0  0  0  0  0  0  0  0  0  0
  196.5590  174.2840  145.5330 C   0  0  0  0  0  3  0  0  0  0  0  0
  196.9820  173.1450  146.2110 C   0  0  0  0  0  3  0  0  0  0  0  0
  195.5940  174.2000  144.5160 C   0  0  0  0  0  0  0  0  0  0  0  0
  196.8700  170.7980  146.5490 F   0  0  0  0  0  0  0  0  0  0  0  0
  195.4940  171.7900  144.8690 C   0  0  0  0  0  0  0  0  0  0  0  0
  192.7970  172.7190  143.4020 O   0  0  0  0  0  1  0  0  0  0  0  0
  194.0190  172.7920  143.1050 C   0  0  0  0  0  0  0  0  0  0  0  0
  194.3820  172.7500  141.7650 O   0  0  0  0  0  0  0  0  0  0  0  0
  196.3780  176.7960  142.2410 O   0  0  0  0  0  0  0  0  0  0  0  0
  196.3920  176.2330  143.3240 C   0  0  0  0  0  3  0  0  0  0  0  0
  2  3  1  0  0  0  0
  3  1  2  0  0  0  0
  4  2  1  6  0  0  0
  4  9  1  0  0  0  0
  6 11  1  0  0  0  0
  6 12  1  1  0  0  0
  7  5  2  0  0  0  0
  8  4  1  0  0  0  0
  8 10  1  0  0  0  0
  9  7  1  0  0  0  0
 10  6  1  0  0  0  0
 11  7  1  0  0  0  0
 13 15  1  0  0  0  0
 13 14  1  1  0  0  0
 13 12  1  0  0  0  0
 15 16  1  1  0  0  0
 17 19  1  6  0  0  0
 17 15  1  0  0  0  0
 18 17  1  0  0  0  0
 20 33  1  1  0  0  0
 20 26  1  0  0  0  0
 20  3  1  0  0  0  0
 21 25  1  0  0  0  0
 21 27  1  0  0  0  0
 22 26  2  0  0  0  0
 22 28  1  0  0  0  0
 23 28  1  0  0  0  0
 24 25  2  0  0  0  0
 26 24  1  0  0  0  0
 28 21  2  0  0  0  0
 30 29  1  0  0  0  0
 30 22  1  0  0  0  0
 31 30  2  0  0  0  0
 32 33  2  0  0  0  0
M  END
>  <MODEL>
1

>  <REMARK>
 VINA RESULT:      -7.1      0.000      0.000
  Name = 
  9 active torsions:
  status: ('A' for Active; 'I' for Inactive)
    1  A    between atoms: C_1  and  N_12
    2  A    between atoms: C_2  and  C_5
    3  A    between atoms: C_2  and  C_8
    4  A    between atoms: C_5  and  C_27
    5  A    between atoms: C_6  and  C_27
    6  A    between atoms: C_9  and  C_24
    7  A    between atoms: C_11  and  C_15
    8  A    between atoms: C_15  and  C_17
    9  A    between atoms: C_15  and  C_26
                            x       y       z     vdW  Elec       q    Type
                         _______ _______ _______ _____ _____    ______ ____

>  <TORSDO>
F 9

$$$$
=
 OpenBabel11042417373D

 33 34  0  0  1  0  0  0  0  0999 V2000
  191.4220  172.0520  144.2710 O   0  0  0  0  0  0  0  0  0  0  0  0
  191.4970  174.2080  145.1780 N   0  0  0  0  0  2  0  0  0  0  0  0
  192.1170  173.0340  144.6390 C   0  0  0  0  0  0  0  0  0  0  0  0
  190.0710  174.3550  145.4490 C   0  0  1  0  0  3  0  0  0  0  0  0
  188.6950  176.4360  142.8040 O   0  0  0  0  0  0  0  0  0  0  0  0
  188.3610  177.0550  146.2420 C   0  0  1  0  0  3  0  0  0  0  0  0
  189.0730  176.1650  143.9730 C   0  0  0  0  0  0  0  0  0  0  0  0
  189.8090  175.0940  146.7650 C   0  0  0  0  0  2  0  0  0  0  0  0
  189.3670  174.8320  144.2930 O   0  0  0  0  0  0  0  0  0  0  0  0
  188.3960  175.6450  146.8270 C   0  0  0  0  0  2  0  0  0  0  0  0
  189.1790  177.2840  144.9650 C   0  0  0  0  0  2  0  0  0  0  0  0
  186.9800  177.7210  146.2770 C   0  0  0  0  0  2  0  0  0  0  0  0
  185.8050  176.9390  145.6810 C   0  0  1  0  0  3  0  0  0  0  0  0
  184.7740  176.7580  146.6070 O   0  0  0  0  0  1  0  0  0  0  0  0
  185.3010  177.4810  144.3420 C   0  0  2  0  0  3  0  0  0  0  0  0
  185.5620  176.5910  143.2940 O   0  0  0  0  0  1  0  0  0  0  0  0
  185.8850  178.8610  144.0450 C   0  0  2  0  0  3  0  0  0  0  0  0
  184.9210  179.8420  144.2790 O   0  0  0  0  0  1  0  0  0  0  0  0
  186.3900  178.9780  142.6160 C   0  0  0  0  0  1  0  0  0  0  0  0
  193.6080  172.9540  144.5260 C   0  0  2  0  0  3  0  0  0  0  0  0
  195.2280  176.1180  142.0850 C   0  0  0  0  0  0  0  0  0  0  0  0
  195.0180  175.0720  144.2810 C   0  0  0  0  0  0  0  0  0  0  0  0
  196.3420  177.0600  143.9510 F   0  0  0  0  0  0  0  0  0  0  0  0
  193.8740  174.1400  142.3370 C   0  0  0  0  0  3  0  0  0  0  0  0
  194.3950  175.1490  141.5330 C   0  0  0  0  0  3  0  0  0  0  0  0
  194.1710  174.0860  143.7090 C   0  0  0  0  0  0  0  0  0  0  0  0
  195.7280  177.0990  141.2930 F   0  0  0  0  0  0  0  0  0  0  0  0
  195.5430  176.0840  143.4460 C   0  0  0  0  0  0  0  0  0  0  0  0
  194.6940  175.7480  146.5480 O   0  0  0  0  0  1  0  0  0  0  0  0
  195.3620  175.0620  145.7290 C   0  0  0  0  0  0  0  0  0  0  0  0
  196.4110  174.2890  146.2100 O   0  0  0  0  0  0  0  0  0  0  0  0
  194.6220  170.8330  144.7700 O   0  0  0  0  0  0  0  0  0  0  0  0
  194.0680  171.6200  144.0200 C   0  0  0  0  0  3  0  0  0  0  0  0
  1  3  2  0  0  0  0
  3  2  1  0  0  0  0
  4  2  1  6  0  0  0
  4  8  1  0  0  0  0
  5  7  2  0  0  0  0
  6 12  1  6  0  0  0
  6 10  1  0  0  0  0
  7  9  1  0  0  0  0
  7 11  1  0  0  0  0
  8 10  1  0  0  0  0
  9  4  1  0  0  0  0
 11  6  1  0  0  0  0
 13 12  1  0  0  0  0
 13 14  1  1  0  0  0
 15 16  1  6  0  0  0
 15 13  1  0  0  0  0
 17 19  1  6  0  0  0
 17 18  1  0  0  0  0
 17 15  1  0  0  0  0
 20 33  1  6  0  0  0
 20  3  1  0  0  0  0
 21 28  1  0  0  0  0
 22 30  1  0  0  0  0
 24 26  2  0  0  0  0
 25 21  2  0  0  0  0
 25 24  1  0  0  0  0
 26 22  1  0  0  0  0
 26 20  1  0  0  0  0
 27 21  1  0  0  0  0
 28 23  1  0  0  0  0
 28 22  2  0  0  0  0
 30 31  2  0  0  0  0
 30 29  1  0  0  0  0
 33 32  2  0  0  0  0
M  END
>  <MODEL>
2

>  <REMARK>
 VINA RESULT:      -7.1      2.583      4.128
  Name = 
  9 active torsions:
  status: ('A' for Active; 'I' for Inactive)
    1  A    between atoms: C_1  and  N_12
    2  A    between atoms: C_2  and  C_5
    3  A    between atoms: C_2  and  C_8
    4  A    between atoms: C_5  and  C_27
    5  A    between atoms: C_6  and  C_27
    6  A    between atoms: C_9  and  C_24
    7  A    between atoms: C_11  and  C_15
    8  A    between atoms: C_15  and  C_17
    9  A    between atoms: C_15  and  C_26
                            x       y       z     vdW  Elec       q    Type
                         _______ _______ _______ _____ _____    ______ ____

>  <TORSDO>
F 9

$$$$
=
 OpenBabel11042417373D

 33 34  0  0  1  0  0  0  0  0999 V2000
  194.6370  177.3120  145.3990 O   0  0  0  0  0  0  0  0  0  0  0  0
  192.7600  176.2180  144.5280 N   0  0  0  0  0  2  0  0  0  0  0  0
  194.1730  176.4320  144.6280 C   0  0  0  0  0  0  0  0  0  0  0  0
  191.7400  177.0210  145.1920 C   0  0  1  0  0  3  0  0  0  0  0  0
  190.5980  175.1220  148.0750 O   0  0  0  0  0  0  0  0  0  0  0  0
  188.5230  176.4270  145.5630 C   0  0  1  0  0  3  0  0  0  0  0  0
  190.5110  175.6330  146.9280 C   0  0  0  0  0  0  0  0  0  0  0  0
  190.5130  177.2430  144.3020 C   0  0  0  0  0  2  0  0  0  0  0  0
  191.4910  176.5510  146.5250 O   0  0  0  0  0  0  0  0  0  0  0  0
  189.3000  177.6620  145.1140 C   0  0  0  0  0  2  0  0  0  0  0  0
  189.3570  175.2380  146.0570 C   0  0  0  0  0  2  0  0  0  0  0  0
  187.2570  176.7360  146.3730 C   0  0  0  0  0  2  0  0  0  0  0  0
  185.9290  176.7920  145.6110 C   0  0  1  0  0  3  0  0  0  0  0  0
  184.8330  176.6080  146.4580 O   0  0  0  0  0  1  0  0  0  0  0  0
  185.7720  178.0170  144.7070 C   0  0  2  0  0  3  0  0  0  0  0  0
  184.6430  178.7690  145.0500 O   0  0  0  0  0  1  0  0  0  0  0  0
  185.7370  177.6190  143.2330 C   0  0  2  0  0  3  0  0  0  0  0  0
  185.9900  176.2530  143.1060 O   0  0  0  0  0  1  0  0  0  0  0  0
  186.7420  178.4000  142.4010 C   0  0  0  0  0  1  0  0  0  0  0  0
  195.1190  175.6220  143.7960 C   0  0  2  0  0  3  0  0  0  0  0  0
  196.4200  172.0340  145.8040 C   0  0  0  0  0  0  0  0  0  0  0  0
  194.9990  173.0900  144.1220 C   0  0  0  0  0  0  0  0  0  0  0  0
  194.9680  170.7060  144.4860 F   0  0  0  0  0  0  0  0  0  0  0  0
  196.4980  174.4250  145.5100 C   0  0  0  0  0  3  0  0  0  0  0  0
  196.9350  173.2760  146.1620 C   0  0  0  0  0  3  0  0  0  0  0  0
  195.5330  174.3520  144.4920 C   0  0  0  0  0  0  0  0  0  0  0  0
  196.8500  170.9210  146.4480 F   0  0  0  0  0  0  0  0  0  0  0  0
  195.4610  171.9330  144.7920 C   0  0  0  0  0  0  0  0  0  0  0  0
  194.3180  172.7970  141.8520 O   0  0  0  0  0  0  0  0  0  0  0  0
  193.9720  172.9570  143.0530 C   0  0  0  0  0  0  0  0  0  0  0  0
  192.6160  172.9910  143.3550 O   0  0  0  0  0  1  0  0  0  0  0  0
  196.3920  176.7950  142.1870 O   0  0  0  0  0  0  0  0  0  0  0  0
  196.3050  176.4200  143.3450 C   0  0  0  0  0  3  0  0  0  0  0  0
  2  3  1  0  0  0  0
  3  1  2  0  0  0  0
  4  2  1  6  0  0  0
  4  9  1  0  0  0  0
  6 11  1  0  0  0  0
  6 12  1  1  0  0  0
  7  5  2  0  0  0  0
  8 10  1  0  0  0  0
  8  4  1  0  0  0  0
  9  7  1  0  0  0  0
 10  6  1  0  0  0  0
 11  7  1  0  0  0  0
 13 12  1  0  0  0  0
 13 14  1  1  0  0  0
 15 16  1  1  0  0  0
 15 13  1  0  0  0  0
 17 19  1  6  0  0  0
 17 15  1  0  0  0  0
 18 17  1  0  0  0  0
 20 33  1  1  0  0  0
 20 26  1  0  0  0  0
 20  3  1  0  0  0  0
 21 25  1  0  0  0  0
 21 27  1  0  0  0  0
 22 26  2  0  0  0  0
 22 28  1  0  0  0  0
 23 28  1  0  0  0  0
 24 25  2  0  0  0  0
 26 24  1  0  0  0  0
 28 21  2  0  0  0  0
 29 30  2  0  0  0  0
 30 31  1  0  0  0  0
 30 22  1  0  0  0  0
 32 33  2  0  0  0  0
M  END
>  <MODEL>
3

>  <REMARK>
 VINA RESULT:      -7.0      0.777      1.178
  Name = 
  9 active torsions:
  status: ('A' for Active; 'I' for Inactive)
    1  A    between atoms: C_1  and  N_12
    2  A    between atoms: C_2  and  C_5
    3  A    between atoms: C_2  and  C_8
    4  A    between atoms: C_5  and  C_27
    5  A    between atoms: C_6  and  C_27
    6  A    between atoms: C_9  and  C_24
    7  A    between atoms: C_11  and  C_15
    8  A    between atoms: C_15  and  C_17
    9  A    between atoms: C_15  and  C_26
                            x       y       z     vdW  Elec       q    Type
                         _______ _______ _______ _____ _____    ______ ____

>  <TORSDO>
F 9

$$$$
=
 OpenBabel11042417373D

 33 34  0  0  1  0  0  0  0  0999 V2000
  189.3010  175.0880  144.5410 O   0  0  0  0  0  0  0  0  0  0  0  0
  190.0200  177.3140  144.4710 N   0  0  0  0  0  2  0  0  0  0  0  0
  189.0360  176.2910  144.2820 C   0  0  0  0  0  0  0  0  0  0  0  0
  191.4060  177.0840  144.8650 C   0  0  1  0  0  3  0  0  0  0  0  0
  193.0370  175.4010  142.0850 O   0  0  0  0  0  0  0  0  0  0  0  0
  192.9840  174.2440  145.3980 C   0  0  1  0  0  3  0  0  0  0  0  0
  192.5360  175.4970  143.2350 C   0  0  0  0  0  0  0  0  0  0  0  0
  191.5130  176.1420  146.0680 C   0  0  0  0  0  2  0  0  0  0  0  0
  192.2260  176.7730  143.7290 O   0  0  0  0  0  0  0  0  0  0  0  0
  192.9040  175.5450  146.1910 C   0  0  0  0  0  2  0  0  0  0  0  0
  192.3080  174.2410  144.0210 C   0  0  0  0  0  2  0  0  0  0  0  0
  194.3450  173.5400  145.4730 C   0  0  0  0  0  2  0  0  0  0  0  0
  195.5980  174.4150  145.3690 C   0  0  1  0  0  3  0  0  0  0  0  0
  196.6170  173.9710  146.2160 O   0  0  0  0  0  1  0  0  0  0  0  0
  196.0870  174.6490  143.9370 C   0  0  2  0  0  3  0  0  0  0  0  0
  197.1890  173.8440  143.6300 O   0  0  0  0  0  1  0  0  0  0  0  0
  196.4010  176.1230  143.6910 C   0  0  2  0  0  3  0  0  0  0  0  0
  195.5280  176.9220  144.4290 O   0  0  0  0  0  1  0  0  0  0  0  0
  196.3070  176.4950  142.2190 C   0  0  0  0  0  1  0  0  0  0  0  0
  187.6790  176.6390  143.7500 C   0  0  2  0  0  3  0  0  0  0  0  0
  185.0700  177.9610  146.9190 C   0  0  0  0  0  0  0  0  0  0  0  0
  185.6510  177.9740  144.5470 C   0  0  0  0  0  0  0  0  0  0  0  0
  183.7430  179.1860  145.3880 F   0  0  0  0  0  0  0  0  0  0  0  0
  187.0010  176.7350  146.1590 C   0  0  0  0  0  3  0  0  0  0  0  0
  186.1650  177.1450  147.1920 C   0  0  0  0  0  3  0  0  0  0  0  0
  186.7630  177.1390  144.8350 C   0  0  0  0  0  0  0  0  0  0  0  0
  184.2630  178.3580  147.9340 F   0  0  0  0  0  0  0  0  0  0  0  0
  184.8080  178.3740  145.6090 C   0  0  0  0  0  0  0  0  0  0  0  0
  186.0470  179.3390  142.6290 O   0  0  0  0  0  1  0  0  0  0  0  0
  185.3540  178.4330  143.1630 C   0  0  0  0  0  0  0  0  0  0  0  0
  184.3230  177.8640  142.4250 O   0  0  0  0  0  0  0  0  0  0  0  0
  187.4320  175.2680  141.8410 O   0  0  0  0  0  0  0  0  0  0  0  0
  187.0650  175.5100  142.9790 C   0  0  0  0  0  3  0  0  0  0  0  0
  3  2  1  0  0  0  0
  3  1  2  0  0  0  0
  4  2  1  6  0  0  0
  4  8  1  0  0  0  0
  5  7  2  0  0  0  0
  6 12  1  6  0  0  0
  6 10  1  0  0  0  0
  7  9  1  0  0  0  0
  7 11  1  0  0  0  0
  8 10  1  0  0  0  0
  9  4  1  0  0  0  0
 11  6  1  0  0  0  0
 13 12  1  0  0  0  0
 13 14  1  1  0  0  0
 15 16  1  1  0  0  0
 15 13  1  0  0  0  0
 17 19  1  6  0  0  0
 17 15  1  0  0  0  0
 17 18  1  0  0  0  0
 20 33  1  1  0  0  0
 20  3  1  0  0  0  0
 20 26  1  0  0  0  0
 21 25  1  0  0  0  0
 21 27  1  0  0  0  0
 22 26  2  0  0  0  0
 22 28  1  0  0  0  0
 23 28  1  0  0  0  0
 24 25  2  0  0  0  0
 26 24  1  0  0  0  0
 28 21  2  0  0  0  0
 29 30  1  0  0  0  0
 30 22  1  0  0  0  0
 31 30  2  0  0  0  0
 32 33  2  0  0  0  0
M  END
>  <MODEL>
4

>  <REMARK>
 VINA RESULT:      -6.9      4.148      9.372
  Name = 
  9 active torsions:
  status: ('A' for Active; 'I' for Inactive)
    1  A    between atoms: C_1  and  N_12
    2  A    between atoms: C_2  and  C_5
    3  A    between atoms: C_2  and  C_8
    4  A    between atoms: C_5  and  C_27
    5  A    between atoms: C_6  and  C_27
    6  A    between atoms: C_9  and  C_24
    7  A    between atoms: C_11  and  C_15
    8  A    between atoms: C_15  and  C_17
    9  A    between atoms: C_15  and  C_26
                            x       y       z     vdW  Elec       q    Type
                         _______ _______ _______ _____ _____    ______ ____

>  <TORSDO>
F 9

$$$$
=
 OpenBabel11042417373D

 33 34  0  0  1  0  0  0  0  0999 V2000
  189.1440  178.2150  142.3110 O   0  0  0  0  0  0  0  0  0  0  0  0
  189.6980  176.3050  143.5440 N   0  0  0  0  0  2  0  0  0  0  0  0
  188.7540  177.2260  142.9840 C   0  0  0  0  0  0  0  0  0  0  0  0
  191.1480  176.4540  143.4940 C   0  0  1  0  0  3  0  0  0  0  0  0
  192.5760  173.1460  143.9810 O   0  0  0  0  0  0  0  0  0  0  0  0
  193.3820  175.9930  145.8690 C   0  0  1  0  0  3  0  0  0  0  0  0
  192.2840  174.3280  144.2960 C   0  0  0  0  0  0  0  0  0  0  0  0
  191.6760  177.3280  144.6340 C   0  0  0  0  0  2  0  0  0  0  0  0
  191.7960  175.1880  143.3010 O   0  0  0  0  0  0  0  0  0  0  0  0
  193.1630  177.1180  144.8610 C   0  0  0  0  0  2  0  0  0  0  0  0
  192.4840  174.7580  145.7180 C   0  0  0  0  0  2  0  0  0  0  0  0
  194.8540  175.7100  146.1920 C   0  0  0  0  0  2  0  0  0  0  0  0
  195.6960  175.0270  145.1090 C   0  0  1  0  0  3  0  0  0  0  0  0
  196.3230  175.9540  144.2720 O   0  0  0  0  0  1  0  0  0  0  0  0
  196.6640  173.9670  145.6380 C   0  0  2  0  0  3  0  0  0  0  0  0
  197.9380  174.1060  145.0770 O   0  0  0  0  0  1  0  0  0  0  0  0
  196.1200  172.5560  145.4180 C   0  0  2  0  0  3  0  0  0  0  0  0
  196.9530  171.6260  146.0400 O   0  0  0  0  0  1  0  0  0  0  0  0
  195.9890  172.2130  143.9420 C   0  0  0  0  0  1  0  0  0  0  0  0
  187.2860  177.0330  143.2120 C   0  0  2  0  0  3  0  0  0  0  0  0
  186.2580  177.3730  147.3870 C   0  0  0  0  0  0  0  0  0  0  0  0
  185.8700  178.0590  145.0760 C   0  0  0  0  0  0  0  0  0  0  0  0
  184.5690  178.9580  146.8960 F   0  0  0  0  0  0  0  0  0  0  0  0
  187.6100  176.4390  145.6230 C   0  0  0  0  0  3  0  0  0  0  0  0
  187.2860  176.5300  146.9730 C   0  0  0  0  0  3  0  0  0  0  0  0
  186.9170  177.1940  144.6630 C   0  0  0  0  0  0  0  0  0  0  0  0
  185.9520  177.4570  148.7050 F   0  0  0  0  0  0  0  0  0  0  0  0
  185.5500  178.1320  146.4510 C   0  0  0  0  0  0  0  0  0  0  0  0
  184.1970  178.3640  143.3990 O   0  0  0  0  0  0  0  0  0  0  0  0
  185.1060  178.8840  144.1000 C   0  0  0  0  0  0  0  0  0  0  0  0
  185.3640  180.2410  143.9520 O   0  0  0  0  0  1  0  0  0  0  0  0
  187.4430  175.1330  141.8150 O   0  0  0  0  0  0  0  0  0  0  0  0
  186.7910  175.7330  142.6540 C   0  0  0  0  0  3  0  0  0  0  0  0
  1  3  2  0  0  0  0
  3 20  1  0  0  0  0
  3  2  1  0  0  0  0
  4  2  1  1  0  0  0
  4  8  1  0  0  0  0
  5  7  2  0  0  0  0
  6 12  1  6  0  0  0
  7 11  1  0  0  0  0
  8 10  1  0  0  0  0
  9  4  1  0  0  0  0
  9  7  1  0  0  0  0
 10  6  1  0  0  0  0
 11  6  1  0  0  0  0
 13 14  1  1  0  0  0
 13 15  1  0  0  0  0
 13 12  1  0  0  0  0
 15 16  1  6  0  0  0
 17 19  1  6  0  0  0
 17 15  1  0  0  0  0
 17 18  1  0  0  0  0
 20 33  1  1  0  0  0
 20 26  1  0  0  0  0
 21 27  1  0  0  0  0
 22 28  1  0  0  0  0
 24 25  2  0  0  0  0
 25 21  1  0  0  0  0
 26 22  2  0  0  0  0
 26 24  1  0  0  0  0
 28 23  1  0  0  0  0
 28 21  2  0  0  0  0
 29 30  2  0  0  0  0
 30 22  1  0  0  0  0
 31 30  1  0  0  0  0
 32 33  2  0  0  0  0
M  END
>  <MODEL>
5

>  <REMARK>
 VINA RESULT:      -6.9      3.943      9.426
  Name = 
  9 active torsions:
  status: ('A' for Active; 'I' for Inactive)
    1  A    between atoms: C_1  and  N_12
    2  A    between atoms: C_2  and  C_5
    3  A    between atoms: C_2  and  C_8
    4  A    between atoms: C_5  and  C_27
    5  A    between atoms: C_6  and  C_27
    6  A    between atoms: C_9  and  C_24
    7  A    between atoms: C_11  and  C_15
    8  A    between atoms: C_15  and  C_17
    9  A    between atoms: C_15  and  C_26
                            x       y       z     vdW  Elec       q    Type
                         _______ _______ _______ _____ _____    ______ ____

>  <TORSDO>
F 9

$$$$
=
 OpenBabel11042417373D

 33 34  0  0  1  0  0  0  0  0999 V2000
  194.8180  177.2230  145.2130 O   0  0  0  0  0  0  0  0  0  0  0  0
  193.0650  175.9600  144.3130 N   0  0  0  0  0  2  0  0  0  0  0  0
  194.4540  176.2720  144.4730 C   0  0  0  0  0  0  0  0  0  0  0  0
  191.9610  176.7310  144.8740 C   0  0  1  0  0  3  0  0  0  0  0  0
  189.6240  174.3500  146.3180 O   0  0  0  0  0  0  0  0  0  0  0  0
  188.7970  176.8200  143.9660 C   0  0  1  0  0  3  0  0  0  0  0  0
  190.0300  175.1980  145.4820 C   0  0  0  0  0  0  0  0  0  0  0  0
  191.1910  177.4990  143.7960 C   0  0  0  0  0  2  0  0  0  0  0  0
  191.1810  175.9410  145.7830 O   0  0  0  0  0  0  0  0  0  0  0  0
  189.8130  177.9150  144.2800 C   0  0  0  0  0  2  0  0  0  0  0  0
  189.2530  175.3760  144.2130 C   0  0  0  0  0  2  0  0  0  0  0  0
  187.3610  177.1460  144.3910 C   0  0  0  0  0  2  0  0  0  0  0  0
  186.5630  178.1060  143.5020 C   0  0  1  0  0  3  0  0  0  0  0  0
  187.0470  178.1300  142.1920 O   0  0  0  0  0  1  0  0  0  0  0  0
  185.0460  177.9070  143.5630 C   0  0  2  0  0  3  0  0  0  0  0  0
  184.4940  177.7610  142.2860 O   0  0  0  0  0  1  0  0  0  0  0  0
  184.3660  179.0420  144.3260 C   0  0  2  0  0  3  0  0  0  0  0  0
  185.1710  180.1810  144.2950 O   0  0  0  0  0  1  0  0  0  0  0  0
  184.0700  178.6700  145.7700 C   0  0  0  0  0  1  0  0  0  0  0  0
  195.4940  175.4800  143.7410 C   0  0  2  0  0  3  0  0  0  0  0  0
  196.4730  171.7910  145.7490 C   0  0  0  0  0  0  0  0  0  0  0  0
  195.2770  172.9420  143.9590 C   0  0  0  0  0  0  0  0  0  0  0  0
  195.1480  170.5490  144.2290 F   0  0  0  0  0  0  0  0  0  0  0  0
  196.6400  174.1870  145.5540 C   0  0  0  0  0  3  0  0  0  0  0  0
  196.9730  173.0060  146.2090 C   0  0  0  0  0  3  0  0  0  0  0  0
  195.7950  174.1760  144.4320 C   0  0  0  0  0  0  0  0  0  0  0  0
  196.8010  170.6450  146.3960 F   0  0  0  0  0  0  0  0  0  0  0  0
  195.6330  171.7520  144.6330 C   0  0  0  0  0  0  0  0  0  0  0  0
  194.8520  172.8270  141.6120 O   0  0  0  0  0  0  0  0  0  0  0  0
  194.3750  172.8750  142.7770 C   0  0  0  0  0  0  0  0  0  0  0  0
  192.9940  172.8470  142.9310 O   0  0  0  0  0  1  0  0  0  0  0  0
  197.3010  176.2100  142.4060 O   0  0  0  0  0  0  0  0  0  0  0  0
  196.7380  176.2750  143.4860 C   0  0  0  0  0  3  0  0  0  0  0  0
  2  3  1  0  0  0  0
  3  1  2  0  0  0  0
  4  2  1  6  0  0  0
  4  9  1  0  0  0  0
  6 11  1  0  0  0  0
  6 10  1  0  0  0  0
  6 12  1  1  0  0  0
  7  9  1  0  0  0  0
  7  5  2  0  0  0  0
  8 10  1  0  0  0  0
  8  4  1  0  0  0  0
 11  7  1  0  0  0  0
 13 14  1  6  0  0  0
 13 15  1  0  0  0  0
 13 12  1  0  0  0  0
 15 16  1  6  0  0  0
 15 17  1  0  0  0  0
 17 19  1  1  0  0  0
 18 17  1  0  0  0  0
 20 33  1  1  0  0  0
 20 26  1  0  0  0  0
 20  3  1  0  0  0  0
 21 25  1  0  0  0  0
 21 27  1  0  0  0  0
 22 26  2  0  0  0  0
 22 28  1  0  0  0  0
 23 28  1  0  0  0  0
 24 25  2  0  0  0  0
 26 24  1  0  0  0  0
 28 21  2  0  0  0  0
 29 30  2  0  0  0  0
 30 31  1  0  0  0  0
 30 22  1  0  0  0  0
 32 33  2  0  0  0  0
M  END
>  <MODEL>
6

>  <REMARK>
 VINA RESULT:      -6.7      1.472      1.948
  Name = 
  9 active torsions:
  status: ('A' for Active; 'I' for Inactive)
    1  A    between atoms: C_1  and  N_12
    2  A    between atoms: C_2  and  C_5
    3  A    between atoms: C_2  and  C_8
    4  A    between atoms: C_5  and  C_27
    5  A    between atoms: C_6  and  C_27
    6  A    between atoms: C_9  and  C_24
    7  A    between atoms: C_11  and  C_15
    8  A    between atoms: C_15  and  C_17
    9  A    between atoms: C_15  and  C_26
                            x       y       z     vdW  Elec       q    Type
                         _______ _______ _______ _____ _____    ______ ____

>  <TORSDO>
F 9

$$$$
=
 OpenBabel11042417373D

 33 34  0  0  1  0  0  0  0  0999 V2000
  189.7190  177.9720  144.9310 O   0  0  0  0  0  0  0  0  0  0  0  0
  190.8740  175.9480  145.1480 N   0  0  0  0  0  2  0  0  0  0  0  0
  189.6770  176.7350  145.1590 C   0  0  0  0  0  0  0  0  0  0  0  0
  192.2240  176.4760  144.9840 C   0  0  1  0  0  3  0  0  0  0  0  0
  193.5150  175.1450  141.8560 O   0  0  0  0  0  0  0  0  0  0  0  0
  195.1060  174.8830  144.9730 C   0  0  1  0  0  3  0  0  0  0  0  0
  193.4270  175.2600  143.1050 C   0  0  0  0  0  0  0  0  0  0  0  0
  193.1690  175.9900  146.0860 C   0  0  0  0  0  2  0  0  0  0  0  0
  192.6820  176.3260  143.6320 O   0  0  0  0  0  0  0  0  0  0  0  0
  194.6260  176.1440  145.6850 C   0  0  0  0  0  2  0  0  0  0  0  0
  194.1330  174.2560  143.9650 C   0  0  0  0  0  2  0  0  0  0  0  0
  196.5770  174.9190  144.5430 C   0  0  0  0  0  2  0  0  0  0  0  0
  197.5260  173.9040  145.1900 C   0  0  1  0  0  3  0  0  0  0  0  0
  197.1960  173.6560  146.5240 O   0  0  0  0  0  1  0  0  0  0  0  0
  197.7160  172.6160  144.3840 C   0  0  2  0  0  3  0  0  0  0  0  0
  197.2820  172.7670  143.0620 O   0  0  0  0  0  1  0  0  0  0  0  0
  197.0230  171.4320  145.0550 C   0  0  2  0  0  3  0  0  0  0  0  0
  197.9330  170.3890  145.2290 O   0  0  0  0  0  1  0  0  0  0  0  0
  195.8280  170.9350  144.2570 C   0  0  0  0  0  1  0  0  0  0  0  0
  188.3580  176.0950  145.4660 C   0  0  2  0  0  3  0  0  0  0  0  0
  184.9930  178.5470  144.3410 C   0  0  0  0  0  0  0  0  0  0  0  0
  186.7500  176.9820  143.6880 C   0  0  0  0  0  0  0  0  0  0  0  0
  185.1750  177.8550  142.0840 F   0  0  0  0  0  0  0  0  0  0  0  0
  186.5380  177.7300  146.0010 C   0  0  0  0  0  3  0  0  0  0  0  0
  185.4460  178.5210  145.6570 C   0  0  0  0  0  3  0  0  0  0  0  0
  187.2020  176.9580  145.0340 C   0  0  0  0  0  0  0  0  0  0  0  0
  183.9300  179.3230  144.0150 F   0  0  0  0  0  0  0  0  0  0  0  0
  185.6340  177.7850  143.3600 C   0  0  0  0  0  0  0  0  0  0  0  0
  187.0810  174.9900  142.4140 O   0  0  0  0  0  1  0  0  0  0  0  0
  187.4190  176.1850  142.6230 C   0  0  0  0  0  0  0  0  0  0  0  0
  188.4140  176.7430  141.8310 O   0  0  0  0  0  0  0  0  0  0  0  0
  188.8790  174.7420  147.3320 O   0  0  0  0  0  0  0  0  0  0  0  0
  188.2430  175.6910  146.9050 C   0  0  0  0  0  3  0  0  0  0  0  0
  1  3  2  0  0  0  0
  2  3  1  0  0  0  0
  3 20  1  0  0  0  0
  4  2  1  6  0  0  0
  4  8  1  0  0  0  0
  5  7  2  0  0  0  0
  6 12  1  6  0  0  0
  6 10  1  0  0  0  0
  7  9  1  0  0  0  0
  7 11  1  0  0  0  0
  9  4  1  0  0  0  0
 10  8  1  0  0  0  0
 11  6  1  0  0  0  0
 12 13  1  0  0  0  0
 13 14  1  1  0  0  0
 15 16  1  6  0  0  0
 15 17  1  0  0  0  0
 15 13  1  0  0  0  0
 17 19  1  6  0  0  0
 17 18  1  0  0  0  0
 20 33  1  1  0  0  0
 21 25  1  0  0  0  0
 22 26  2  0  0  0  0
 23 28  1  0  0  0  0
 25 24  2  0  0  0  0
 26 20  1  0  0  0  0
 26 24  1  0  0  0  0
 27 21  1  0  0  0  0
 28 22  1  0  0  0  0
 28 21  2  0  0  0  0
 29 30  1  0  0  0  0
 30 22  1  0  0  0  0
 31 30  2  0  0  0  0
 33 32  2  0  0  0  0
M  END
>  <MODEL>
7

>  <REMARK>
 VINA RESULT:      -6.7      4.060      9.744
  Name = 
  9 active torsions:
  status: ('A' for Active; 'I' for Inactive)
    1  A    between atoms: C_1  and  N_12
    2  A    between atoms: C_2  and  C_5
    3  A    between atoms: C_2  and  C_8
    4  A    between atoms: C_5  and  C_27
    5  A    between atoms: C_6  and  C_27
    6  A    between atoms: C_9  and  C_24
    7  A    between atoms: C_11  and  C_15
    8  A    between atoms: C_15  and  C_17
    9  A    between atoms: C_15  and  C_26
                            x       y       z     vdW  Elec       q    Type
                         _______ _______ _______ _____ _____    ______ ____

>  <TORSDO>
F 9

$$$$
=
 OpenBabel11042417373D

 33 34  0  0  1  0  0  0  0  0999 V2000
  191.7260  176.9780  143.8640 O   0  0  0  0  0  0  0  0  0  0  0  0
  191.2640  175.9120  145.8960 N   0  0  0  0  0  2  0  0  0  0  0  0
  192.1640  176.4350  144.9120 C   0  0  0  0  0  0  0  0  0  0  0  0
  189.8130  175.8520  145.7600 C   0  0  1  0  0  3  0  0  0  0  0  0
  189.0970  173.6550  142.9530 O   0  0  0  0  0  0  0  0  0  0  0  0
  187.8960  176.9330  143.3110 C   0  0  1  0  0  3  0  0  0  0  0  0
  189.1760  174.7540  143.5600 C   0  0  0  0  0  0  0  0  0  0  0  0
  189.2120  177.2160  145.4100 C   0  0  0  0  0  2  0  0  0  0  0  0
  189.4110  174.7430  144.9430 O   0  0  0  0  0  0  0  0  0  0  0  0
  187.8160  177.0820  144.8280 C   0  0  0  0  0  2  0  0  0  0  0  0
  189.0030  176.0170  142.7730 C   0  0  0  0  0  2  0  0  0  0  0  0
  186.5350  176.8130  142.6140 C   0  0  0  0  0  2  0  0  0  0  0  0
  185.7230  178.0990  142.4280 C   0  0  1  0  0  3  0  0  0  0  0  0
  185.5350  178.4100  141.0790 O   0  0  0  0  0  1  0  0  0  0  0  0
  184.4170  178.1400  143.2250 C   0  0  2  0  0  3  0  0  0  0  0  0
  183.3060  178.2890  142.3880 O   0  0  0  0  0  1  0  0  0  0  0  0
  184.4490  179.2340  144.2910 C   0  0  2  0  0  3  0  0  0  0  0  0
  185.5920  180.0160  144.1310 O   0  0  0  0  0  1  0  0  0  0  0  0
  184.4180  178.6660  145.7010 C   0  0  0  0  0  1  0  0  0  0  0  0
  193.6450  176.3240  145.1090 C   0  0  2  0  0  3  0  0  0  0  0  0
  195.1440  172.4430  143.9760 C   0  0  0  0  0  0  0  0  0  0  0  0
  195.1080  174.8570  143.6130 C   0  0  0  0  0  0  0  0  0  0  0  0
  196.4730  173.3970  142.2640 F   0  0  0  0  0  0  0  0  0  0  0  0
  193.7420  173.8340  145.3570 C   0  0  0  0  0  3  0  0  0  0  0  0
  194.2220  172.5750  145.0100 C   0  0  0  0  0  3  0  0  0  0  0  0
  194.1700  174.9830  144.6720 C   0  0  0  0  0  0  0  0  0  0  0  0
  195.6030  171.2110  143.6440 F   0  0  0  0  0  0  0  0  0  0  0  0
  195.5900  173.5700  143.2800 C   0  0  0  0  0  0  0  0  0  0  0  0
  195.0280  176.3840  141.7790 O   0  0  0  0  0  0  0  0  0  0  0  0
  195.5920  176.0410  142.8520 C   0  0  0  0  0  0  0  0  0  0  0  0
  196.6610  176.8000  143.3120 O   0  0  0  0  0  1  0  0  0  0  0  0
  194.5460  177.7390  146.7740 O   0  0  0  0  0  0  0  0  0  0  0  0
  194.0570  176.6520  146.5120 C   0  0  0  0  0  3  0  0  0  0  0  0
  1  3  2  0  0  0  0
  3 20  1  0  0  0  0
  3  2  1  0  0  0  0
  4  2  1  6  0  0  0
  5  7  2  0  0  0  0
  6 12  1  1  0  0  0
  6 10  1  0  0  0  0
  7  9  1  0  0  0  0
  8  4  1  0  0  0  0
  9  4  1  0  0  0  0
 10  8  1  0  0  0  0
 11  6  1  0  0  0  0
 11  7  1  0  0  0  0
 13 14  1  6  0  0  0
 13 12  1  0  0  0  0
 13 15  1  0  0  0  0
 15 16  1  6  0  0  0
 15 17  1  0  0  0  0
 17 19  1  1  0  0  0
 18 17  1  0  0  0  0
 20 33  1  1  0  0  0
 21 25  1  0  0  0  0
 22 26  2  0  0  0  0
 23 28  1  0  0  0  0
 25 24  2  0  0  0  0
 26 20  1  0  0  0  0
 26 24  1  0  0  0  0
 27 21  1  0  0  0  0
 28 22  1  0  0  0  0
 28 21  2  0  0  0  0
 29 30  2  0  0  0  0
 30 31  1  0  0  0  0
 30 22  1  0  0  0  0
 33 32  2  0  0  0  0
M  END
>  <MODEL>
8

>  <REMARK>
 VINA RESULT:      -6.5      2.181      3.487
  Name = 
  9 active torsions:
  status: ('A' for Active; 'I' for Inactive)
    1  A    between atoms: C_1  and  N_12
    2  A    between atoms: C_2  and  C_5
    3  A    between atoms: C_2  and  C_8
    4  A    between atoms: C_5  and  C_27
    5  A    between atoms: C_6  and  C_27
    6  A    between atoms: C_9  and  C_24
    7  A    between atoms: C_11  and  C_15
    8  A    between atoms: C_15  and  C_17
    9  A    between atoms: C_15  and  C_26
                            x       y       z     vdW  Elec       q    Type
                         _______ _______ _______ _____ _____    ______ ____

>  <TORSDO>
F 9

$$$$
=
 OpenBabel11042417373D

 33 34  0  0  1  0  0  0  0  0999 V2000
  191.7840  173.4530  143.1470 O   0  0  0  0  0  0  0  0  0  0  0  0
  191.5260  175.7720  143.3230 N   0  0  0  0  0  2  0  0  0  0  0  0
  192.2930  174.5980  143.0310 C   0  0  0  0  0  0  0  0  0  0  0  0
  190.1700  175.7770  143.8620 C   0  0  1  0  0  3  0  0  0  0  0  0
  187.9010  175.4790  141.0370 O   0  0  0  0  0  0  0  0  0  0  0  0
  187.7730  178.0010  143.4750 C   0  0  1  0  0  3  0  0  0  0  0  0
  188.4760  176.0630  141.9910 C   0  0  0  0  0  0  0  0  0  0  0  0
  189.8310  177.1000  144.5550 C   0  0  0  0  0  2  0  0  0  0  0  0
  189.2240  175.2960  142.8970 O   0  0  0  0  0  0  0  0  0  0  0  0
  188.3320  177.2880  144.7030 C   0  0  0  0  0  2  0  0  0  0  0  0
  188.3220  177.5490  142.1150 C   0  0  0  0  0  2  0  0  0  0  0  0
  186.2630  178.2660  143.5280 C   0  0  0  0  0  2  0  0  0  0  0  0
  185.7380  179.1180  144.6890 C   0  0  1  0  0  3  0  0  0  0  0  0
  185.3130  180.3780  144.2620 O   0  0  0  0  0  1  0  0  0  0  0  0
  184.6980  178.4150  145.5660 C   0  0  2  0  0  3  0  0  0  0  0  0
  183.4450  179.0300  145.4720 O   0  0  0  0  0  1  0  0  0  0  0  0
  185.1600  178.3330  147.0190 C   0  0  2  0  0  3  0  0  0  0  0  0
  185.9420  179.4460  147.3300 O   0  0  0  0  0  1  0  0  0  0  0  0
  185.9490  177.0650  147.3030 C   0  0  0  0  0  1  0  0  0  0  0  0
  193.7230  174.7200  142.6030 C   0  0  2  0  0  3  0  0  0  0  0  0
  196.4460  173.9340  145.8540 C   0  0  0  0  0  0  0  0  0  0  0  0
  195.6720  173.4000  143.6010 C   0  0  0  0  0  0  0  0  0  0  0  0
  197.5160  172.2230  144.6150 F   0  0  0  0  0  0  0  0  0  0  0  0
  194.5870  175.1460  144.9150 C   0  0  0  0  0  3  0  0  0  0  0  0
  195.4620  174.9120  145.9710 C   0  0  0  0  0  3  0  0  0  0  0  0
  194.6740  174.4030  143.7270 C   0  0  0  0  0  0  0  0  0  0  0  0
  197.2920  173.7110  146.8900 F   0  0  0  0  0  0  0  0  0  0  0  0
  196.5570  173.1820  144.6810 C   0  0  0  0  0  0  0  0  0  0  0  0
  195.4770  171.3660  142.3670 O   0  0  0  0  0  1  0  0  0  0  0  0
  195.8070  172.5810  142.3650 C   0  0  0  0  0  0  0  0  0  0  0  0
  196.2810  173.1400  141.1840 O   0  0  0  0  0  0  0  0  0  0  0  0
  195.0810  176.2450  141.4130 O   0  0  0  0  0  0  0  0  0  0  0  0
  194.0200  176.0520  141.9830 C   0  0  0  0  0  3  0  0  0  0  0  0
  3  1  2  0  0  0  0
  3  2  1  0  0  0  0
  4  2  1  6  0  0  0
  4  8  1  0  0  0  0
  5  7  2  0  0  0  0
  6 12  1  6  0  0  0
  6 10  1  0  0  0  0
  7 11  1  0  0  0  0
  7  9  1  0  0  0  0
  8 10  1  0  0  0  0
  9  4  1  0  0  0  0
 11  6  1  0  0  0  0
 12 13  1  0  0  0  0
 13 14  1  6  0  0  0
 13 15  1  0  0  0  0
 15 16  1  1  0  0  0
 15 17  1  0  0  0  0
 17 19  1  6  0  0  0
 17 18  1  0  0  0  0
 20 33  1  1  0  0  0
 20  3  1  0  0  0  0
 20 26  1  0  0  0  0
 21 25  1  0  0  0  0
 21 27  1  0  0  0  0
 22 26  2  0  0  0  0
 22 28  1  0  0  0  0
 23 28  1  0  0  0  0
 24 25  2  0  0  0  0
 26 24  1  0  0  0  0
 28 21  2  0  0  0  0
 30 29  1  0  0  0  0
 30 22  1  0  0  0  0
 31 30  2  0  0  0  0
 32 33  2  0  0  0  0
M  END
>  <MODEL>
9

>  <REMARK>
 VINA RESULT:      -6.4      2.223      3.270
  Name = 
  9 active torsions:
  status: ('A' for Active; 'I' for Inactive)
    1  A    between atoms: C_1  and  N_12
    2  A    between atoms: C_2  and  C_5
    3  A    between atoms: C_2  and  C_8
    4  A    between atoms: C_5  and  C_27
    5  A    between atoms: C_6  and  C_27
    6  A    between atoms: C_9  and  C_24
    7  A    between atoms: C_11  and  C_15
    8  A    between atoms: C_15  and  C_17
    9  A    between atoms: C_15  and  C_26
                            x       y       z     vdW  Elec       q    Type
                         _______ _______ _______ _____ _____    ______ ____

>  <TORSDO>
F 9

$$$$
