=
 OpenBabel11042418533D

 27 31  0  0  1  0  0  0  0  0999 V2000
  184.6050  178.1930  144.8080 C   0  0  0  0  0  3  0  0  0  0  0  0
  189.2270  177.3100  146.1820 N   0  0  0  0  0  0  0  0  0  0  0  0
  186.8560  177.7570  145.7930 C   0  0  2  0  0  3  0  0  0  0  0  0
  189.6820  176.6110  144.9830 C   0  0  0  0  0  2  0  0  0  0  0  0
  185.7330  177.2000  144.9110 C   0  0  2  0  0  3  0  0  0  0  0  0
  187.0590  178.6520  147.9870 O   0  0  0  0  0  0  0  0  0  0  0  0
  187.7000  176.4250  143.5270 N   0  0  0  0  0  0  0  0  0  0  0  0
  184.8200  178.5240  147.2500 C   0  0  0  0  0  2  0  0  0  0  0  0
  186.3150  176.8260  143.5840 C   0  0  0  0  0  0  0  0  0  0  0  0
  185.5780  176.7660  142.5620 O   0  0  0  0  0  0  0  0  0  0  0  0
  187.9220  176.6780  146.0260 C   0  0  1  0  0  3  0  0  0  0  0  0
  184.1770  178.8130  145.9160 C   0  0  0  0  0  3  0  0  0  0  0  0
  186.3060  178.3270  147.0840 C   0  0  0  0  0  0  0  0  0  0  0  0
  188.3460  175.9280  144.7530 C   0  0  2  0  0  3  0  0  0  0  0  0
  188.9410  173.5440  141.9710 C   0  0  2  0  0  0  0  0  0  0  0  0
  189.5000  174.1920  140.7970 C   0  0  1  0  0  0  0  0  0  0  0  0
  188.8180  175.0600  141.8500 C   0  0  0  0  0  0  0  0  0  0  0  0
  188.4050  176.2460  142.2860 C   0  0  0  0  0  3  0  0  0  0  0  0
  189.9720  172.9560  141.2390 O   0  0  0  0  0  0  0  0  0  0  0  0
  188.6640  174.0550  139.5270 C   0  0  0  0  0  1  0  0  0  0  0  0
  187.6680  172.8820  141.7090 N   0  0  0  0  0  1  0  0  0  0  0  0
  189.8740  176.6840  147.3250 C   0  0  0  0  0  2  0  0  0  0  0  0
  191.3740  176.6370  147.1010 C   0  0  0  0  0  2  0  0  0  0  0  0
  191.9120  175.2590  147.4370 C   0  0  0  0  0  2  0  0  0  0  0  0
  192.5710  174.6850  146.2770 N   0  0  0  0  0  2  0  0  0  0  0  0
  194.8290  175.5490  146.1400 C   0  0  0  0  0  1  0  0  0  0  0  0
  193.3920  175.7330  145.7020 C   0  0  0  0  0  2  0  0  0  0  0  0
  1 12  2  0  0  0  0
  2 22  1  0  0  0  0
  3 11  1  0  0  0  0
  3 13  1  1  0  0  0
  4  2  1  0  0  0  0
  5  1  1  6  0  0  0
  5  3  1  0  0  0  0
  7  9  1  0  0  0  0
  7 14  1  0  0  0  0
  9  5  1  0  0  0  0
 10  9  2  0  0  0  0
 11  2  1  6  0  0  0
 12  8  1  0  0  0  0
 13  8  1  0  0  0  0
 13  6  2  0  0  0  0
 14  4  1  6  0  0  0
 14 11  1  0  0  0  0
 15 21  1  6  0  0  0
 16 20  1  6  0  0  0
 16 19  1  0  0  0  0
 16 17  1  0  0  0  0
 16 15  1  0  0  0  0
 17 15  1  0  0  0  0
 17 18  2  0  0  0  0
 18  7  1  0  0  0  0
 19 15  1  0  0  0  0
 23 22  1  0  0  0  0
 23 24  1  0  0  0  0
 25 24  1  0  0  0  0
 27 26  1  0  0  0  0
 27 25  1  0  0  0  0
M  END
>  <MODEL>
1

>  <REMARK>
 VINA RESULT:      -6.9      0.000      0.000
  Name = 
  6 active torsions:
  status: ('A' for Active; 'I' for Inactive)
    1  A    between atoms: N_2  and  C_25
    2  A    between atoms: C_6  and  N_14
    3  A    between atoms: C_6  and  C_21
    4  A    between atoms: N_10  and  C_18
    5  A    between atoms: N_14  and  C_15
    6  A    between atoms: C_21  and  C_25
                            x       y       z     vdW  Elec       q    Type
                         _______ _______ _______ _____ _____    ______ ____

>  <TORSDO>
F 6

$$$$
=
 OpenBabel11042418533D

 27 31  0  0  1  0  0  0  0  0999 V2000
  187.4600  176.4010  146.7680 C   0  0  0  0  0  3  0  0  0  0  0  0
  186.3060  177.2880  142.0870 N   0  0  0  0  0  0  0  0  0  0  0  0
  186.6810  177.0630  144.4920 C   0  0  2  0  0  3  0  0  0  0  0  0
  187.5470  176.8340  141.4660 C   0  0  0  0  0  2  0  0  0  0  0  0
  187.8800  176.9790  145.4430 C   0  0  2  0  0  3  0  0  0  0  0  0
  184.4940  177.9980  144.5320 O   0  0  0  0  0  0  0  0  0  0  0  0
  189.0380  176.2160  143.3300 N   0  0  0  0  0  0  0  0  0  0  0  0
  185.4910  177.8950  146.6700 C   0  0  0  0  0  2  0  0  0  0  0  0
  188.9620  176.1940  144.7720 C   0  0  0  0  0  0  0  0  0  0  0  0
  189.8450  175.6120  145.4600 O   0  0  0  0  0  0  0  0  0  0  0  0
  187.0830  177.8030  143.2090 C   0  0  1  0  0  3  0  0  0  0  0  0
  186.3310  176.8390  147.3440 C   0  0  0  0  0  3  0  0  0  0  0  0
  185.4820  177.6860  145.1770 C   0  0  0  0  0  0  0  0  0  0  0  0
  188.4160  177.3360  142.6050 C   0  0  2  0  0  3  0  0  0  0  0  0
  188.8190  172.7900  142.6410 C   0  0  2  0  0  0  0  0  0  0  0  0
  190.0400  172.6780  141.8620 C   0  0  1  0  0  0  0  0  0  0  0  0
  189.6670  174.0420  142.4330 C   0  0  0  0  0  0  0  0  0  0  0  0
  189.9030  175.3410  142.5850 C   0  0  0  0  0  3  0  0  0  0  0  0
  189.4890  171.5740  142.5100 O   0  0  0  0  0  0  0  0  0  0  0  0
  189.8350  172.6070  140.3500 C   0  0  0  0  0  1  0  0  0  0  0  0
  187.6150  172.8180  141.8190 N   0  0  0  0  0  1  0  0  0  0  0  0
  185.8310  178.4360  141.3300 C   0  0  0  0  0  2  0  0  0  0  0  0
  184.6340  178.0340  140.4880 C   0  0  0  0  0  2  0  0  0  0  0  0
  183.3500  178.2510  141.2660 C   0  0  0  0  0  2  0  0  0  0  0  0
  182.2030  177.9460  140.4280 N   0  0  0  0  0  2  0  0  0  0  0  0
  180.4400  179.5940  140.6310 C   0  0  0  0  0  1  0  0  0  0  0  0
  181.0220  178.3110  141.1860 C   0  0  0  0  0  2  0  0  0  0  0  0
  1 12  2  0  0  0  0
  3 13  1  1  0  0  0
  3  5  1  0  0  0  0
  4  2  1  0  0  0  0
  5  1  1  1  0  0  0
  6 13  2  0  0  0  0
  7  9  1  0  0  0  0
  8 12  1  0  0  0  0
  9  5  1  0  0  0  0
  9 10  2  0  0  0  0
 11  2  1  6  0  0  0
 11  3  1  0  0  0  0
 13  8  1  0  0  0  0
 14  4  1  6  0  0  0
 14 11  1  0  0  0  0
 14  7  1  0  0  0  0
 15 21  1  6  0  0  0
 16 20  1  6  0  0  0
 16 17  1  0  0  0  0
 16 19  1  0  0  0  0
 16 15  1  0  0  0  0
 17 18  2  0  0  0  0
 17 15  1  0  0  0  0
 18  7  1  0  0  0  0
 19 15  1  0  0  0  0
 22  2  1  0  0  0  0
 23 24  1  0  0  0  0
 23 22  1  0  0  0  0
 25 27  1  0  0  0  0
 25 24  1  0  0  0  0
 26 27  1  0  0  0  0
M  END
>  <MODEL>
2

>  <REMARK>
 VINA RESULT:      -6.9      2.728      6.165
  Name = 
  6 active torsions:
  status: ('A' for Active; 'I' for Inactive)
    1  A    between atoms: N_2  and  C_25
    2  A    between atoms: C_6  and  N_14
    3  A    between atoms: C_6  and  C_21
    4  A    between atoms: N_10  and  C_18
    5  A    between atoms: N_14  and  C_15
    6  A    between atoms: C_21  and  C_25
                            x       y       z     vdW  Elec       q    Type
                         _______ _______ _______ _____ _____    ______ ____

>  <TORSDO>
F 6

$$$$
=
 OpenBabel11042418533D

 27 31  0  0  1  0  0  0  0  0999 V2000
  186.8190  176.7700  147.2480 C   0  0  0  0  0  3  0  0  0  0  0  0
  187.3290  176.9340  142.3750 N   0  0  0  0  0  0  0  0  0  0  0  0
  186.8600  177.0640  144.7700 C   0  0  2  0  0  3  0  0  0  0  0  0
  188.7140  176.4810  142.2850 C   0  0  0  0  0  2  0  0  0  0  0  0
  187.6600  177.1880  146.0700 C   0  0  2  0  0  3  0  0  0  0  0  0
  184.7790  177.8520  143.9290 O   0  0  0  0  0  0  0  0  0  0  0  0
  189.4840  176.2210  144.6130 N   0  0  0  0  0  0  0  0  0  0  0  0
  184.9820  178.1060  146.2680 C   0  0  0  0  0  2  0  0  0  0  0  0
  188.9180  176.3900  145.9300 C   0  0  0  0  0  0  0  0  0  0  0  0
  189.5190  175.9670  146.9540 O   0  0  0  0  0  0  0  0  0  0  0  0
  187.6670  177.6460  143.6010 C   0  0  1  0  0  3  0  0  0  0  0  0
  185.5550  177.2080  147.3360 C   0  0  0  0  0  3  0  0  0  0  0  0
  185.4900  177.6950  144.9080 C   0  0  0  0  0  0  0  0  0  0  0  0
  189.1330  177.1890  143.5600 C   0  0  2  0  0  3  0  0  0  0  0  0
  192.9320  176.5040  145.1540 C   0  0  2  0  0  0  0  0  0  0  0  0
  193.3110  175.2040  144.6270 C   0  0  1  0  0  0  0  0  0  0  0  0
  191.8360  175.5930  144.6080 C   0  0  0  0  0  0  0  0  0  0  0  0
  190.5640  175.3100  144.3430 C   0  0  0  0  0  3  0  0  0  0  0  0
  194.2190  176.2610  144.6760 O   0  0  0  0  0  0  0  0  0  0  0  0
  193.6180  174.1460  145.6840 C   0  0  0  0  0  1  0  0  0  0  0  0
  192.9120  176.5490  146.6120 N   0  0  0  0  0  1  0  0  0  0  0  0
  187.1270  177.9350  141.3380 C   0  0  0  0  0  2  0  0  0  0  0  0
  185.9360  177.5490  140.4800 C   0  0  0  0  0  2  0  0  0  0  0  0
  184.8250  178.5710  140.6350 C   0  0  0  0  0  2  0  0  0  0  0  0
  183.5690  178.0150  140.1620 N   0  0  0  0  0  2  0  0  0  0  0  0
  181.2010  178.2410  140.6100 C   0  0  0  0  0  1  0  0  0  0  0  0
  182.5910  178.2400  141.2090 C   0  0  0  0  0  2  0  0  0  0  0  0
  1 12  2  0  0  0  0
  3 13  1  1  0  0  0
  3  5  1  0  0  0  0
  4  2  1  0  0  0  0
  5  1  1  1  0  0  0
  6 13  2  0  0  0  0
  7  9  1  0  0  0  0
  8 12  1  0  0  0  0
  9  5  1  0  0  0  0
  9 10  2  0  0  0  0
 11  2  1  6  0  0  0
 11  3  1  0  0  0  0
 13  8  1  0  0  0  0
 14  4  1  6  0  0  0
 14 11  1  0  0  0  0
 14  7  1  0  0  0  0
 15 21  1  1  0  0  0
 16 19  1  0  0  0  0
 16 15  1  0  0  0  0
 16 20  1  1  0  0  0
 17 16  1  0  0  0  0
 17 15  1  0  0  0  0
 18 17  2  0  0  0  0
 18  7  1  0  0  0  0
 19 15  1  0  0  0  0
 22  2  1  0  0  0  0
 23 24  1  0  0  0  0
 23 22  1  0  0  0  0
 25 24  1  0  0  0  0
 25 27  1  0  0  0  0
 26 27  1  0  0  0  0
M  END
>  <MODEL>
3

>  <REMARK>
 VINA RESULT:      -6.9      2.725      6.462
  Name = 
  6 active torsions:
  status: ('A' for Active; 'I' for Inactive)
    1  A    between atoms: N_2  and  C_25
    2  A    between atoms: C_6  and  N_14
    3  A    between atoms: C_6  and  C_21
    4  A    between atoms: N_10  and  C_18
    5  A    between atoms: N_14  and  C_15
    6  A    between atoms: C_21  and  C_25
                            x       y       z     vdW  Elec       q    Type
                         _______ _______ _______ _____ _____    ______ ____

>  <TORSDO>
F 6

$$$$
=
 OpenBabel11042418533D

 27 31  0  0  1  0  0  0  0  0999 V2000
  187.7090  173.9200  142.0380 C   0  0  0  0  0  3  0  0  0  0  0  0
  190.8590  176.7080  144.5550 N   0  0  0  0  0  0  0  0  0  0  0  0
  189.5330  175.1760  143.1890 C   0  0  2  0  0  3  0  0  0  0  0  0
  190.0240  177.8950  144.7120 C   0  0  0  0  0  2  0  0  0  0  0  0
  188.3610  175.2680  142.2070 C   0  0  2  0  0  3  0  0  0  0  0  0
  191.5100  173.8720  143.4170 O   0  0  0  0  0  0  0  0  0  0  0  0
  187.9490  177.4200  143.4670 N   0  0  0  0  0  0  0  0  0  0  0  0
  189.9850  172.9680  141.8570 C   0  0  0  0  0  2  0  0  0  0  0  0
  187.4170  176.3230  142.6940 C   0  0  0  0  0  0  0  0  0  0  0  0
  186.2060  176.3010  142.3450 O   0  0  0  0  0  0  0  0  0  0  0  0
  190.2890  176.5110  143.2280 C   0  0  1  0  0  3  0  0  0  0  0  0
  188.4820  172.8380  141.8710 C   0  0  0  0  0  3  0  0  0  0  0  0
  190.4320  174.0030  142.8590 C   0  0  0  0  0  0  0  0  0  0  0  0
  189.3800  177.7450  143.3460 C   0  0  2  0  0  3  0  0  0  0  0  0
  185.6620  177.0110  146.0870 C   0  0  2  0  0  0  0  0  0  0  0  0
  185.2460  178.3990  146.1890 C   0  0  1  0  0  0  0  0  0  0  0  0
  186.2790  178.0270  145.1300 C   0  0  0  0  0  0  0  0  0  0  0  0
  187.1090  178.3670  144.1490 C   0  0  0  0  0  3  0  0  0  0  0  0
  184.4280  177.3600  146.6330 O   0  0  0  0  0  0  0  0  0  0  0  0
  185.8600  179.1710  147.3540 C   0  0  0  0  0  1  0  0  0  0  0  0
  186.6050  176.6170  147.1280 N   0  0  0  0  0  1  0  0  0  0  0  0
  192.2300  177.1590  144.3710 C   0  0  0  0  0  2  0  0  0  0  0  0
  193.1710  176.2770  145.1720 C   0  0  0  0  0  2  0  0  0  0  0  0
  192.8630  176.3900  146.6530 C   0  0  0  0  0  2  0  0  0  0  0  0
  192.2520  175.1610  147.1300 N   0  0  0  0  0  2  0  0  0  0  0  0
  189.8610  174.9320  147.4340 C   0  0  0  0  0  1  0  0  0  0  0  0
  191.1360  175.5470  147.9710 C   0  0  0  0  0  2  0  0  0  0  0  0
  2  4  1  0  0  0  0
  3 13  1  6  0  0  0
  3 11  1  0  0  0  0
  5  1  1  1  0  0  0
  5  9  1  0  0  0  0
  5  3  1  0  0  0  0
  7 18  1  0  0  0  0
  8 12  1  0  0  0  0
  8 13  1  0  0  0  0
  9  7  1  0  0  0  0
 10  9  2  0  0  0  0
 11 14  1  0  0  0  0
 11  2  1  1  0  0  0
 12  1  2  0  0  0  0
 13  6  2  0  0  0  0
 14  7  1  0  0  0  0
 14  4  1  1  0  0  0
 15 16  1  0  0  0  0
 15 19  1  0  0  0  0
 15 21  1  1  0  0  0
 16 19  1  0  0  0  0
 16 20  1  1  0  0  0
 17 15  1  0  0  0  0
 17 16  1  0  0  0  0
 18 17  2  0  0  0  0
 22  2  1  0  0  0  0
 22 23  1  0  0  0  0
 23 24  1  0  0  0  0
 24 25  1  0  0  0  0
 25 27  1  0  0  0  0
 26 27  1  0  0  0  0
M  END
>  <MODEL>
4

>  <REMARK>
 VINA RESULT:      -6.8      1.877      5.448
  Name = 
  6 active torsions:
  status: ('A' for Active; 'I' for Inactive)
    1  A    between atoms: N_2  and  C_25
    2  A    between atoms: C_6  and  N_14
    3  A    between atoms: C_6  and  C_21
    4  A    between atoms: N_10  and  C_18
    5  A    between atoms: N_14  and  C_15
    6  A    between atoms: C_21  and  C_25
                            x       y       z     vdW  Elec       q    Type
                         _______ _______ _______ _____ _____    ______ ____

>  <TORSDO>
F 6

$$$$
=
 OpenBabel11042418533D

 27 31  0  0  1  0  0  0  0  0999 V2000
  193.3810  176.4180  146.6810 C   0  0  0  0  0  3  0  0  0  0  0  0
  190.1310  175.3860  143.1590 N   0  0  0  0  0  0  0  0  0  0  0  0
  191.9660  175.8320  144.7110 C   0  0  2  0  0  3  0  0  0  0  0  0
  188.9990  175.0220  144.0070 C   0  0  0  0  0  2  0  0  0  0  0  0
  192.3350  175.4710  146.1540 C   0  0  2  0  0  3  0  0  0  0  0  0
  193.1150  176.1620  142.6550 O   0  0  0  0  0  0  0  0  0  0  0  0
  189.8360  175.1330  146.3230 N   0  0  0  0  0  0  0  0  0  0  0  0
  194.5590  176.1420  144.5240 C   0  0  0  0  0  2  0  0  0  0  0  0
  191.0830  175.4590  146.9740 C   0  0  0  0  0  0  0  0  0  0  0  0
  191.1400  175.6280  148.2220 O   0  0  0  0  0  0  0  0  0  0  0  0
  191.0260  174.7670  144.1310 C   0  0  1  0  0  3  0  0  0  0  0  0
  194.4300  176.7300  145.9070 C   0  0  0  0  0  3  0  0  0  0  0  0
  193.2050  176.0440  143.8670 C   0  0  0  0  0  0  0  0  0  0  0  0
  189.8710  174.3710  145.0640 C   0  0  2  0  0  3  0  0  0  0  0  0
  187.6380  177.8560  146.4560 C   0  0  2  0  0  0  0  0  0  0  0  0
  186.6150  177.2290  147.2760 C   0  0  1  0  0  0  0  0  0  0  0  0
  187.8580  176.4190  146.9220 C   0  0  0  0  0  0  0  0  0  0  0  0
  188.5600  175.2910  146.9680 C   0  0  0  0  0  3  0  0  0  0  0  0
  186.7560  178.6160  147.2230 O   0  0  0  0  0  0  0  0  0  0  0  0
  185.3790  176.7580  146.5130 C   0  0  0  0  0  1  0  0  0  0  0  0
  187.2870  177.9100  145.0420 N   0  0  0  0  0  1  0  0  0  0  0  0
  190.0990  174.5200  141.9910 C   0  0  0  0  0  2  0  0  0  0  0  0
  188.6610  174.2900  141.5630 C   0  0  0  0  0  2  0  0  0  0  0  0
  188.1940  175.4210  140.6660 C   0  0  0  0  0  2  0  0  0  0  0  0
  187.1340  176.1690  141.3190 N   0  0  0  0  0  2  0  0  0  0  0  0
  188.4490  178.1770  141.6380 C   0  0  0  0  0  1  0  0  0  0  0  0
  187.2800  177.5510  140.9060 C   0  0  0  0  0  2  0  0  0  0  0  0
  2  4  1  0  0  0  0
  3 13  1  6  0  0  0
  3  5  1  0  0  0  0
  5  1  1  1  0  0  0
  5  9  1  0  0  0  0
  6 13  2  0  0  0  0
  7 18  1  0  0  0  0
  7  9  1  0  0  0  0
  8 12  1  0  0  0  0
  9 10  2  0  0  0  0
 11  2  1  6  0  0  0
 11  3  1  0  0  0  0
 11 14  1  0  0  0  0
 12  1  2  0  0  0  0
 13  8  1  0  0  0  0
 14  4  1  6  0  0  0
 14  7  1  0  0  0  0
 15 21  1  6  0  0  0
 15 17  1  0  0  0  0
 15 19  1  0  0  0  0
 15 16  1  0  0  0  0
 16 20  1  6  0  0  0
 17 18  2  0  0  0  0
 17 16  1  0  0  0  0
 19 16  1  0  0  0  0
 22  2  1  0  0  0  0
 23 22  1  0  0  0  0
 24 25  1  0  0  0  0
 24 23  1  0  0  0  0
 27 25  1  0  0  0  0
 27 26  1  0  0  0  0
M  END
>  <MODEL>
5

>  <REMARK>
 VINA RESULT:      -6.5      2.213      7.007
  Name = 
  6 active torsions:
  status: ('A' for Active; 'I' for Inactive)
    1  A    between atoms: N_2  and  C_25
    2  A    between atoms: C_6  and  N_14
    3  A    between atoms: C_6  and  C_21
    4  A    between atoms: N_10  and  C_18
    5  A    between atoms: N_14  and  C_15
    6  A    between atoms: C_21  and  C_25
                            x       y       z     vdW  Elec       q    Type
                         _______ _______ _______ _____ _____    ______ ____

>  <TORSDO>
F 6

$$$$
=
 OpenBabel11042418533D

 27 31  0  0  1  0  0  0  0  0999 V2000
  189.6710  174.2170  146.2070 C   0  0  0  0  0  3  0  0  0  0  0  0
  187.4550  176.5610  142.5150 N   0  0  0  0  0  0  0  0  0  0  0  0
  188.5810  175.6640  144.4900 C   0  0  2  0  0  3  0  0  0  0  0  0
  187.7790  175.6300  141.4390 C   0  0  0  0  0  2  0  0  0  0  0  0
  189.7520  174.7210  144.7890 C   0  0  2  0  0  3  0  0  0  0  0  0
  187.6510  177.6350  145.4430 O   0  0  0  0  0  0  0  0  0  0  0  0
  189.2130  173.9030  142.4600 N   0  0  0  0  0  0  0  0  0  0  0  0
  189.1660  176.5410  146.8870 C   0  0  0  0  0  2  0  0  0  0  0  0
  189.7480  173.6250  143.7710 C   0  0  0  0  0  0  0  0  0  0  0  0
  190.2960  172.5180  144.0280 O   0  0  0  0  0  0  0  0  0  0  0  0
  188.7620  176.2980  143.1050 C   0  0  1  0  0  3  0  0  0  0  0  0
  189.3960  175.0820  147.1930 C   0  0  0  0  0  3  0  0  0  0  0  0
  188.4130  176.6930  145.5890 C   0  0  0  0  0  0  0  0  0  0  0  0
  189.1500  175.3010  142.0020 C   0  0  2  0  0  3  0  0  0  0  0  0
  191.0470  172.9290  139.6400 C   0  0  2  0  0  0  0  0  0  0  0  0
  190.1670  171.8580  139.2060 C   0  0  1  0  0  0  0  0  0  0  0  0
  189.7870  172.6490  140.4540 C   0  0  0  0  0  0  0  0  0  0  0  0
  188.9770  172.8730  141.4840 C   0  0  0  0  0  3  0  0  0  0  0  0
  191.0210  172.5030  138.3130 O   0  0  0  0  0  0  0  0  0  0  0  0
  190.6550  170.4500  139.5380 C   0  0  0  0  0  1  0  0  0  0  0  0
  192.2420  172.4480  140.3230 N   0  0  0  0  0  1  0  0  0  0  0  0
  187.4960  177.9050  141.9590 C   0  0  0  0  0  2  0  0  0  0  0  0
  186.2760  178.6840  142.4150 C   0  0  0  0  0  2  0  0  0  0  0  0
  185.1750  177.7320  142.8430 C   0  0  0  0  0  2  0  0  0  0  0  0
  184.0610  178.4790  143.4020 N   0  0  0  0  0  2  0  0  0  0  0  0
  184.1150  178.7130  145.8110 C   0  0  0  0  0  1  0  0  0  0  0  0
  184.5950  179.2750  144.4900 C   0  0  0  0  0  2  0  0  0  0  0  0
  1 12  2  0  0  0  0
  3  5  1  0  0  0  0
  3 13  1  1  0  0  0
  4  2  1  0  0  0  0
  5  1  1  1  0  0  0
  6 13  2  0  0  0  0
  7  9  1  0  0  0  0
  8 12  1  0  0  0  0
  9 10  2  0  0  0  0
  9  5  1  0  0  0  0
 11  2  1  6  0  0  0
 11  3  1  0  0  0  0
 13  8  1  0  0  0  0
 14  4  1  6  0  0  0
 14  7  1  0  0  0  0
 14 11  1  0  0  0  0
 15 21  1  1  0  0  0
 15 17  1  0  0  0  0
 16 20  1  1  0  0  0
 16 15  1  0  0  0  0
 16 17  1  0  0  0  0
 17 18  2  0  0  0  0
 18  7  1  0  0  0  0
 19 16  1  0  0  0  0
 19 15  1  0  0  0  0
 22 23  1  0  0  0  0
 22  2  1  0  0  0  0
 23 24  1  0  0  0  0
 24 25  1  0  0  0  0
 25 27  1  0  0  0  0
 27 26  1  0  0  0  0
M  END
>  <MODEL>
6

>  <REMARK>
 VINA RESULT:      -6.4      2.479      5.598
  Name = 
  6 active torsions:
  status: ('A' for Active; 'I' for Inactive)
    1  A    between atoms: N_2  and  C_25
    2  A    between atoms: C_6  and  N_14
    3  A    between atoms: C_6  and  C_21
    4  A    between atoms: N_10  and  C_18
    5  A    between atoms: N_14  and  C_15
    6  A    between atoms: C_21  and  C_25
                            x       y       z     vdW  Elec       q    Type
                         _______ _______ _______ _____ _____    ______ ____

>  <TORSDO>
F 6

$$$$
=
 OpenBabel11042418533D

 27 31  0  0  1  0  0  0  0  0999 V2000
  193.3960  176.4800  146.8870 C   0  0  0  0  0  3  0  0  0  0  0  0
  190.3720  175.4430  143.1710 N   0  0  0  0  0  0  0  0  0  0  0  0
  192.1070  175.9060  144.8300 C   0  0  2  0  0  3  0  0  0  0  0  0
  189.2120  175.0130  143.9470 C   0  0  0  0  0  2  0  0  0  0  0  0
  192.4150  175.5140  146.2780 C   0  0  2  0  0  3  0  0  0  0  0  0
  193.3470  176.3420  142.8470 O   0  0  0  0  0  0  0  0  0  0  0  0
  189.9250  175.0810  146.3070 N   0  0  0  0  0  0  0  0  0  0  0  0
  194.6930  176.3140  144.7870 C   0  0  0  0  0  2  0  0  0  0  0  0
  191.1240  175.4300  147.0310 C   0  0  0  0  0  0  0  0  0  0  0  0
  191.1100  175.5620  148.2850 O   0  0  0  0  0  0  0  0  0  0  0  0
  191.2380  174.8270  144.1690 C   0  0  1  0  0  3  0  0  0  0  0  0
  194.4720  176.8530  146.1780 C   0  0  0  0  0  3  0  0  0  0  0  0
  193.3790  176.1890  144.0570 C   0  0  0  0  0  0  0  0  0  0  0  0
  190.0530  174.3600  145.0290 C   0  0  2  0  0  3  0  0  0  0  0  0
  187.6770  177.7570  146.5210 C   0  0  2  0  0  0  0  0  0  0  0  0
  186.6210  177.0570  147.2310 C   0  0  1  0  0  0  0  0  0  0  0  0
  187.8950  176.2920  146.8880 C   0  0  0  0  0  0  0  0  0  0  0  0
  188.6130  175.1730  146.8880 C   0  0  0  0  0  3  0  0  0  0  0  0
  186.7410  178.4450  147.2920 O   0  0  0  0  0  0  0  0  0  0  0  0
  185.4380  176.6300  146.3660 C   0  0  0  0  0  1  0  0  0  0  0  0
  187.4040  177.9160  145.0970 N   0  0  0  0  0  1  0  0  0  0  0  0
  190.4320  174.6140  141.9780 C   0  0  0  0  0  2  0  0  0  0  0  0
  189.0330  174.4090  141.4260 C   0  0  0  0  0  2  0  0  0  0  0  0
  188.9190  173.0410  140.7800 C   0  0  0  0  0  2  0  0  0  0  0  0
  189.6940  172.0700  141.5330 N   0  0  0  0  0  2  0  0  0  0  0  0
  189.8980  171.5520  139.1770 C   0  0  0  0  0  1  0  0  0  0  0  0
  190.4410  171.2900  140.5660 C   0  0  0  0  0  2  0  0  0  0  0  0
  2  4  1  0  0  0  0
  3 13  1  6  0  0  0
  3  5  1  0  0  0  0
  5  1  1  1  0  0  0
  5  9  1  0  0  0  0
  6 13  2  0  0  0  0
  7 18  1  0  0  0  0
  7  9  1  0  0  0  0
  8 12  1  0  0  0  0
  9 10  2  0  0  0  0
 11  2  1  6  0  0  0
 11  3  1  0  0  0  0
 11 14  1  0  0  0  0
 12  1  2  0  0  0  0
 13  8  1  0  0  0  0
 14  4  1  6  0  0  0
 14  7  1  0  0  0  0
 15 21  1  6  0  0  0
 15 17  1  0  0  0  0
 15 16  1  0  0  0  0
 15 19  1  0  0  0  0
 16 20  1  6  0  0  0
 16 19  1  0  0  0  0
 17 16  1  0  0  0  0
 18 17  2  0  0  0  0
 22  2  1  0  0  0  0
 23 22  1  0  0  0  0
 24 23  1  0  0  0  0
 24 25  1  0  0  0  0
 26 27  1  0  0  0  0
 27 25  1  0  0  0  0
M  END
>  <MODEL>
7

>  <REMARK>
 VINA RESULT:      -6.4      2.233      6.986
  Name = 
  6 active torsions:
  status: ('A' for Active; 'I' for Inactive)
    1  A    between atoms: N_2  and  C_25
    2  A    between atoms: C_6  and  N_14
    3  A    between atoms: C_6  and  C_21
    4  A    between atoms: N_10  and  C_18
    5  A    between atoms: N_14  and  C_15
    6  A    between atoms: C_21  and  C_25
                            x       y       z     vdW  Elec       q    Type
                         _______ _______ _______ _____ _____    ______ ____

>  <TORSDO>
F 6

$$$$
=
 OpenBabel11042418533D

 27 31  0  0  1  0  0  0  0  0999 V2000
  186.0330  177.3950  146.9340 C   0  0  0  0  0  3  0  0  0  0  0  0
  186.6110  176.5400  142.1420 N   0  0  0  0  0  0  0  0  0  0  0  0
  186.1300  177.1860  144.4490 C   0  0  2  0  0  3  0  0  0  0  0  0
  187.9460  175.9520  142.1850 C   0  0  0  0  0  2  0  0  0  0  0  0
  186.9240  177.4920  145.7240 C   0  0  2  0  0  3  0  0  0  0  0  0
  184.1440  177.9810  143.4080 O   0  0  0  0  0  0  0  0  0  0  0  0
  188.6610  176.0880  144.5400 N   0  0  0  0  0  0  0  0  0  0  0  0
  184.3450  178.6750  145.6560 C   0  0  0  0  0  2  0  0  0  0  0  0
  188.1000  176.5680  145.7810 C   0  0  0  0  0  0  0  0  0  0  0  0
  188.6460  176.3030  146.8870 O   0  0  0  0  0  0  0  0  0  0  0  0
  187.0020  177.4470  143.2150 C   0  0  1  0  0  3  0  0  0  0  0  0
  184.8160  177.9580  146.8970 C   0  0  0  0  0  3  0  0  0  0  0  0
  184.8260  177.9570  144.4200 C   0  0  0  0  0  0  0  0  0  0  0  0
  188.4180  176.8560  143.3080 C   0  0  2  0  0  3  0  0  0  0  0  0
  192.1600  176.2270  144.4970 C   0  0  2  0  0  0  0  0  0  0  0  0
  192.4020  174.7960  144.4390 C   0  0  1  0  0  0  0  0  0  0  0  0
  190.9580  175.2870  144.4660 C   0  0  0  0  0  0  0  0  0  0  0  0
  189.6510  175.0460  144.4880 C   0  0  0  0  0  3  0  0  0  0  0  0
  193.3490  175.7120  143.9810 O   0  0  0  0  0  0  0  0  0  0  0  0
  192.8240  174.1610  145.7620 C   0  0  0  0  0  1  0  0  0  0  0  0
  192.3640  176.7900  145.8260 N   0  0  0  0  0  1  0  0  0  0  0  0
  186.5190  177.3290  140.9230 C   0  0  0  0  0  2  0  0  0  0  0  0
  187.1170  176.5520  139.7650 C   0  0  0  0  0  2  0  0  0  0  0  0
  186.3420  176.8320  138.4900 C   0  0  0  0  0  2  0  0  0  0  0  0
  186.6700  175.8390  137.4810 N   0  0  0  0  0  2  0  0  0  0  0  0
  185.9950  176.4140  135.2280 C   0  0  0  0  0  1  0  0  0  0  0  0
  187.0630  176.5680  136.2900 C   0  0  0  0  0  2  0  0  0  0  0  0
  2  4  1  0  0  0  0
  3 13  1  6  0  0  0
  3  5  1  0  0  0  0
  5  9  1  0  0  0  0
  5  1  1  1  0  0  0
  6 13  2  0  0  0  0
  7  9  1  0  0  0  0
  8 12  1  0  0  0  0
  9 10  2  0  0  0  0
 11  2  1  6  0  0  0
 11 14  1  0  0  0  0
 11  3  1  0  0  0  0
 12  1  2  0  0  0  0
 13  8  1  0  0  0  0
 14  4  1  6  0  0  0
 14  7  1  0  0  0  0
 15 21  1  1  0  0  0
 16 17  1  0  0  0  0
 16 15  1  0  0  0  0
 16 20  1  1  0  0  0
 17 18  2  0  0  0  0
 17 15  1  0  0  0  0
 18  7  1  0  0  0  0
 19 16  1  0  0  0  0
 19 15  1  0  0  0  0
 22  2  1  0  0  0  0
 23 22  1  0  0  0  0
 24 23  1  0  0  0  0
 25 24  1  0  0  0  0
 26 27  1  0  0  0  0
 27 25  1  0  0  0  0
M  END
>  <MODEL>
8

>  <REMARK>
 VINA RESULT:      -6.3      2.565      6.156
  Name = 
  6 active torsions:
  status: ('A' for Active; 'I' for Inactive)
    1  A    between atoms: N_2  and  C_25
    2  A    between atoms: C_6  and  N_14
    3  A    between atoms: C_6  and  C_21
    4  A    between atoms: N_10  and  C_18
    5  A    between atoms: N_14  and  C_15
    6  A    between atoms: C_21  and  C_25
                            x       y       z     vdW  Elec       q    Type
                         _______ _______ _______ _____ _____    ______ ____

>  <TORSDO>
F 6

$$$$
=
 OpenBabel11042418533D

 27 31  0  0  1  0  0  0  0  0999 V2000
  192.6670  175.9060  144.9240 C   0  0  0  0  0  3  0  0  0  0  0  0
  187.9020  176.3850  145.9710 N   0  0  0  0  0  0  0  0  0  0  0  0
  190.3170  176.0880  145.7440 C   0  0  2  0  0  3  0  0  0  0  0  0
  187.5250  177.2740  144.8750 C   0  0  0  0  0  2  0  0  0  0  0  0
  191.4870  176.8280  145.0890 C   0  0  2  0  0  3  0  0  0  0  0  0
  189.9570  174.8070  147.7160 O   0  0  0  0  0  0  0  0  0  0  0  0
  189.6200  177.7790  143.6760 N   0  0  0  0  0  0  0  0  0  0  0  0
  192.2460  175.1350  147.2360 C   0  0  0  0  0  2  0  0  0  0  0  0
  191.0120  177.4160  143.7980 C   0  0  0  0  0  0  0  0  0  0  0  0
  191.8350  177.6810  142.8790 O   0  0  0  0  0  0  0  0  0  0  0  0
  189.1840  177.0740  146.0570 C   0  0  1  0  0  3  0  0  0  0  0  0
  193.0210  175.1090  145.9430 C   0  0  0  0  0  3  0  0  0  0  0  0
  190.7740  175.3130  146.9630 C   0  0  0  0  0  0  0  0  0  0  0  0
  188.8420  178.0270  144.9010 C   0  0  2  0  0  3  0  0  0  0  0  0
  187.7570  175.9320  141.3570 C   0  0  2  0  0  0  0  0  0  0  0  0
  187.5360  177.0030  140.4000 C   0  0  1  0  0  0  0  0  0  0  0  0
  188.3490  177.3070  141.6540 C   0  0  0  0  0  0  0  0  0  0  0  0
  189.0230  178.1560  142.4230 C   0  0  0  0  0  3  0  0  0  0  0  0
  187.4870  175.6640  140.0150 O   0  0  0  0  0  0  0  0  0  0  0  0
  186.1450  177.6300  140.4450 C   0  0  0  0  0  1  0  0  0  0  0  0
  186.5920  175.6610  142.1920 N   0  0  0  0  0  1  0  0  0  0  0  0
  187.1240  176.7760  147.1370 C   0  0  0  0  0  2  0  0  0  0  0  0
  185.6730  176.9790  146.7400 C   0  0  0  0  0  2  0  0  0  0  0  0
  185.2500  178.4100  147.0140 C   0  0  0  0  0  2  0  0  0  0  0  0
  184.0210  178.7110  146.3000 N   0  0  0  0  0  2  0  0  0  0  0  0
  185.0230  179.8040  144.3860 C   0  0  0  0  0  1  0  0  0  0  0  0
  184.3120  178.5640  144.8860 C   0  0  0  0  0  2  0  0  0  0  0  0
  1 12  2  0  0  0  0
  2 22  1  0  0  0  0
  3 11  1  0  0  0  0
  3 13  1  1  0  0  0
  4  2  1  0  0  0  0
  5  1  1  6  0  0  0
  5  3  1  0  0  0  0
  7  9  1  0  0  0  0
  7 14  1  0  0  0  0
  9  5  1  0  0  0  0
 10  9  2  0  0  0  0
 11  2  1  6  0  0  0
 12  8  1  0  0  0  0
 13  8  1  0  0  0  0
 13  6  2  0  0  0  0
 14  4  1  6  0  0  0
 14 11  1  0  0  0  0
 15 17  1  0  0  0  0
 15 21  1  1  0  0  0
 16 20  1  1  0  0  0
 16 15  1  0  0  0  0
 16 17  1  0  0  0  0
 17 18  2  0  0  0  0
 18  7  1  0  0  0  0
 19 16  1  0  0  0  0
 19 15  1  0  0  0  0
 23 24  1  0  0  0  0
 23 22  1  0  0  0  0
 25 24  1  0  0  0  0
 26 27  1  0  0  0  0
 27 25  1  0  0  0  0
M  END
>  <MODEL>
9

>  <REMARK>
 VINA RESULT:      -6.3      2.349      5.699
  Name = 
  6 active torsions:
  status: ('A' for Active; 'I' for Inactive)
    1  A    between atoms: N_2  and  C_25
    2  A    between atoms: C_6  and  N_14
    3  A    between atoms: C_6  and  C_21
    4  A    between atoms: N_10  and  C_18
    5  A    between atoms: N_14  and  C_15
    6  A    between atoms: C_21  and  C_25
                            x       y       z     vdW  Elec       q    Type
                         _______ _______ _______ _____ _____    ______ ____

>  <TORSDO>
F 6

$$$$
