=
 OpenBabel11042419343D

 32 35  0  0  1  0  0  0  0  0999 V2000
  189.4040  173.9600  143.6580 C   0  0  0  0  0  1  0  0  0  0  0  0
  189.5260  174.5780  142.2690 C   0  0  1  0  0  3  0  0  0  0  0  0
  188.1930  174.8640  141.7030 N   0  0  0  0  0  0  0  0  0  0  0  0
  188.2890  174.7700  140.2490 C   0  0  0  0  0  1  0  0  0  0  0  0
  187.8450  176.2550  141.9850 C   0  0  1  0  0  3  0  0  0  0  0  0
  186.6930  176.6250  141.2560 O   0  0  0  0  0  0  0  0  0  0  0  0
  186.5030  176.3220  142.6170 C   0  0  2  0  0  3  0  0  0  0  0  0
  184.9360  179.4370  145.0650 N   0  0  0  0  0  0  0  0  0  0  0  0
  184.6960  179.3850  143.6520 C   0  0  0  0  0  3  0  0  0  0  0  0
  186.0030  177.2480  144.9180 C   0  0  2  0  0  3  0  0  0  0  0  0
  185.3070  178.5090  142.9100 N   0  0  0  0  0  0  0  0  0  0  0  0
  187.4260  176.7680  146.8940 C   0  0  0  0  0  3  0  0  0  0  0  0
  185.5890  178.4920  145.6710 C   0  0  0  0  0  0  0  0  0  0  0  0
  186.6850  177.7850  147.6640 C   0  0  0  0  0  3  0  0  0  0  0  0
  185.8450  178.5860  147.0790 N   0  0  0  0  0  0  0  0  0  0  0  0
  187.1440  176.5460  145.6070 C   0  0  0  0  0  3  0  0  0  0  0  0
  186.3230  177.5960  143.4600 C   0  0  2  0  0  3  0  0  0  0  0  0
  190.3560  175.8480  142.4270 C   0  0  0  0  0  2  0  0  0  0  0  0
  191.3910  175.6760  143.5280 C   0  0  0  0  0  2  0  0  0  0  0  0
  191.4710  176.9210  144.4020 C   0  0  1  0  0  3  0  0  0  0  0  0
  190.6780  178.0630  143.7710 C   0  0  0  0  0  3  0  0  0  0  0  0
  191.4380  179.2210  143.7110 F   0  0  0  0  0  0  0  0  0  0  0  0
  189.5210  178.2970  144.4910 F   0  0  0  0  0  0  0  0  0  0  0  0
  190.9590  176.6220  145.8080 C   0  0  0  0  0  2  0  0  0  0  0  0
  191.3710  175.4070  147.9480 C   0  0  0  0  0  1  0  0  0  0  0  0
  191.9630  175.7990  146.6050 C   0  0  2  0  0  3  0  0  0  0  0  0
  193.3090  176.5090  146.7700 C   0  0  0  0  0  2  0  0  0  0  0  0
  194.5000  175.6530  146.3460 C   0  0  1  0  0  3  0  0  0  0  0  0
  194.0280  174.3610  145.7570 C   0  0  0  0  0  2  0  0  0  0  0  0
  194.5970  174.4290  144.3720 C   0  0  0  0  0  2  0  0  0  0  0  0
  194.8400  175.7810  144.0980 O   0  0  0  0  0  0  0  0  0  0  0  0
  195.2320  176.3290  145.2850 N   0  0  0  0  0  2  0  0  0  0  0  0
  2 18  1  0  0  0  0
  2  1  1  1  0  0  0
  3  2  1  0  0  0  0
  4  3  1  0  0  0  0
  5  3  1  6  0  0  0
  5  7  1  0  0  0  0
  6  5  1  0  0  0  0
  7  6  1  6  0  0  0
  7 17  1  0  0  0  0
  8 13  2  0  0  0  0
  9  8  1  0  0  0  0
 10 16  1  1  0  0  0
 10 13  1  0  0  0  0
 11  9  2  0  0  0  0
 12 14  1  0  0  0  0
 13 15  1  0  0  0  0
 15 14  2  0  0  0  0
 16 12  2  0  0  0  0
 17 11  1  6  0  0  0
 17 10  1  0  0  0  0
 18 19  1  0  0  0  0
 20 19  1  6  0  0  0
 20 24  1  0  0  0  0
 21 20  1  0  0  0  0
 21 23  1  0  0  0  0
 22 21  1  0  0  0  0
 24 26  1  0  0  0  0
 26 27  1  0  0  0  0
 26 25  1  1  0  0  0
 28 27  1  6  0  0  0
 29 28  1  0  0  0  0
 30 29  1  0  0  0  0
 31 30  1  0  0  0  0
 31 32  1  0  0  0  0
 32 28  1  0  0  0  0
M  END
>  <MODEL>
1

>  <REMARK>
 VINA RESULT:      -6.8      0.000      0.000
  Name = 
  11 active torsions:
  status: ('A' for Active; 'I' for Inactive)
    1  A    between atoms: C_1  and  C_10
    2  A    between atoms: C_1  and  C_16
    3  A    between atoms: C_1  and  C_22
    4  A    between atoms: N_2  and  C_11
    5  A    between atoms: N_2  and  C_20
    6  A    between atoms: C_4  and  C_7
    7  A    between atoms: C_7  and  C_23
    8  A    between atoms: C_16  and  C_25
    9  A    between atoms: C_20  and  C_25
   10  A    between atoms: C_22  and  C_23
   11  A    between atoms: C_30  and  C_32
                            x       y       z     vdW  Elec       q    Type
                         _______ _______ _______ _____ _____    ______ ____

>  <TORSDO>
F 11

$$$$
=
 OpenBabel11042419343D

 32 35  0  0  1  0  0  0  0  0999 V2000
  190.6910  173.9570  142.8900 C   0  0  0  0  0  1  0  0  0  0  0  0
  189.9800  175.3010  142.7620 C   0  0  1  0  0  3  0  0  0  0  0  0
  188.5840  175.1160  142.3210 N   0  0  0  0  0  0  0  0  0  0  0  0
  188.5950  174.8320  140.8890 C   0  0  0  0  0  1  0  0  0  0  0  0
  187.8680  176.3820  142.4650 C   0  0  1  0  0  3  0  0  0  0  0  0
  186.7240  176.3910  141.6370 O   0  0  0  0  0  0  0  0  0  0  0  0
  186.5070  176.1350  143.0030 C   0  0  2  0  0  3  0  0  0  0  0  0
  184.0040  178.8710  145.1020 N   0  0  0  0  0  0  0  0  0  0  0  0
  183.8830  178.6570  143.6880 C   0  0  0  0  0  3  0  0  0  0  0  0
  185.6230  177.0480  145.1910 C   0  0  2  0  0  3  0  0  0  0  0  0
  184.7540  177.9300  143.0530 N   0  0  0  0  0  0  0  0  0  0  0  0
  186.9860  177.1110  147.2650 C   0  0  0  0  0  3  0  0  0  0  0  0
  184.8430  178.1820  145.8160 C   0  0  0  0  0  0  0  0  0  0  0  0
  185.9510  177.9400  147.9100 C   0  0  0  0  0  3  0  0  0  0  0  0
  184.9680  178.4400  147.2210 N   0  0  0  0  0  0  0  0  0  0  0  0
  186.8610  176.7310  145.9900 C   0  0  0  0  0  3  0  0  0  0  0  0
  185.9360  177.3680  143.7250 C   0  0  2  0  0  3  0  0  0  0  0  0
  190.0570  175.9680  144.1320 C   0  0  0  0  0  2  0  0  0  0  0  0
  190.3350  174.9370  145.2140 C   0  0  0  0  0  2  0  0  0  0  0  0
  191.3630  175.4550  146.2120 C   0  0  1  0  0  3  0  0  0  0  0  0
  190.7990  175.4020  147.6290 C   0  0  0  0  0  3  0  0  0  0  0  0
  189.5210  174.8660  147.6360 F   0  0  0  0  0  0  0  0  0  0  0  0
  190.7810  176.6690  148.1850 F   0  0  0  0  0  0  0  0  0  0  0  0
  192.6560  174.6500  146.1150 C   0  0  0  0  0  2  0  0  0  0  0  0
  193.9300  176.7380  146.6070 C   0  0  0  0  0  1  0  0  0  0  0  0
  193.8300  175.5260  145.6970 C   0  0  2  0  0  3  0  0  0  0  0  0
  193.7660  175.9340  144.2220 C   0  0  0  0  0  2  0  0  0  0  0  0
  194.9160  175.3730  143.3890 C   0  0  1  0  0  3  0  0  0  0  0  0
  195.0000  176.0840  142.0750 C   0  0  0  0  0  2  0  0  0  0  0  0
  196.3780  176.6720  142.1330 C   0  0  0  0  0  2  0  0  0  0  0  0
  196.7370  176.7370  143.4850 O   0  0  0  0  0  0  0  0  0  0  0  0
  196.1780  175.6350  144.0640 N   0  0  0  0  0  2  0  0  0  0  0  0
  2  1  1  1  0  0  0
  2 18  1  0  0  0  0
  3  2  1  0  0  0  0
  4  3  1  0  0  0  0
  5  3  1  6  0  0  0
  5  7  1  0  0  0  0
  6  5  1  0  0  0  0
  7  6  1  6  0  0  0
  7 17  1  0  0  0  0
  8 13  2  0  0  0  0
  9  8  1  0  0  0  0
 10 13  1  0  0  0  0
 10 16  1  1  0  0  0
 11  9  2  0  0  0  0
 12 14  1  0  0  0  0
 13 15  1  0  0  0  0
 15 14  2  0  0  0  0
 16 12  2  0  0  0  0
 17 11  1  6  0  0  0
 17 10  1  0  0  0  0
 18 19  1  0  0  0  0
 20 19  1  6  0  0  0
 20 21  1  0  0  0  0
 21 22  1  0  0  0  0
 21 23  1  0  0  0  0
 24 20  1  0  0  0  0
 26 24  1  0  0  0  0
 26 25  1  1  0  0  0
 27 26  1  0  0  0  0
 28 32  1  0  0  0  0
 28 27  1  1  0  0  0
 29 30  1  0  0  0  0
 29 28  1  0  0  0  0
 30 31  1  0  0  0  0
 31 32  1  0  0  0  0
M  END
>  <MODEL>
2

>  <REMARK>
 VINA RESULT:      -6.7      1.720      2.359
  Name = 
  11 active torsions:
  status: ('A' for Active; 'I' for Inactive)
    1  A    between atoms: C_1  and  C_10
    2  A    between atoms: C_1  and  C_16
    3  A    between atoms: C_1  and  C_22
    4  A    between atoms: N_2  and  C_11
    5  A    between atoms: N_2  and  C_20
    6  A    between atoms: C_4  and  C_7
    7  A    between atoms: C_7  and  C_23
    8  A    between atoms: C_16  and  C_25
    9  A    between atoms: C_20  and  C_25
   10  A    between atoms: C_22  and  C_23
   11  A    between atoms: C_30  and  C_32
                            x       y       z     vdW  Elec       q    Type
                         _______ _______ _______ _____ _____    ______ ____

>  <TORSDO>
F 11

$$$$
=
 OpenBabel11042419343D

 32 35  0  0  1  0  0  0  0  0999 V2000
  190.3240  173.8620  142.8650 C   0  0  0  0  0  1  0  0  0  0  0  0
  189.7000  175.2480  142.7460 C   0  0  1  0  0  3  0  0  0  0  0  0
  188.3200  175.1610  142.2300 N   0  0  0  0  0  0  0  0  0  0  0  0
  188.3880  174.9730  140.7840 C   0  0  0  0  0  1  0  0  0  0  0  0
  187.6560  176.4470  142.4280 C   0  0  1  0  0  3  0  0  0  0  0  0
  186.4940  176.5230  141.6290 O   0  0  0  0  0  0  0  0  0  0  0  0
  186.2990  176.2340  142.9920 C   0  0  2  0  0  3  0  0  0  0  0  0
  183.9520  178.9910  145.2370 N   0  0  0  0  0  0  0  0  0  0  0  0
  183.7810  178.8200  143.8240 C   0  0  0  0  0  3  0  0  0  0  0  0
  185.5120  177.1150  145.2290 C   0  0  2  0  0  3  0  0  0  0  0  0
  184.6080  178.0830  143.1430 N   0  0  0  0  0  0  0  0  0  0  0  0
  186.9380  177.0770  147.2610 C   0  0  0  0  0  3  0  0  0  0  0  0
  184.7880  178.2570  145.9070 C   0  0  0  0  0  0  0  0  0  0  0  0
  185.9500  177.9210  147.9590 C   0  0  0  0  0  3  0  0  0  0  0  0
  184.9650  178.4710  147.3140 N   0  0  0  0  0  0  0  0  0  0  0  0
  186.7620  176.7370  145.9810 C   0  0  0  0  0  3  0  0  0  0  0  0
  185.7910  177.4640  143.7630 C   0  0  2  0  0  3  0  0  0  0  0  0
  189.7450  175.8690  144.1390 C   0  0  0  0  0  2  0  0  0  0  0  0
  190.1970  174.8440  145.1670 C   0  0  0  0  0  2  0  0  0  0  0  0
  191.0800  175.4880  146.2280 C   0  0  1  0  0  3  0  0  0  0  0  0
  190.4330  175.3600  147.6050 C   0  0  0  0  0  3  0  0  0  0  0  0
  191.3630  174.9690  148.5560 F   0  0  0  0  0  0  0  0  0  0  0  0
  189.3930  174.4500  147.5620 F   0  0  0  0  0  0  0  0  0  0  0  0
  192.4690  174.8550  146.2250 C   0  0  0  0  0  2  0  0  0  0  0  0
  193.3910  176.3800  144.4790 C   0  0  0  0  0  1  0  0  0  0  0  0
  193.5490  175.8800  145.9040 C   0  0  2  0  0  3  0  0  0  0  0  0
  194.9620  175.3490  146.1610 C   0  0  0  0  0  2  0  0  0  0  0  0
  195.4330  174.3510  145.1060 C   0  0  1  0  0  3  0  0  0  0  0  0
  196.7980  174.7210  144.6140 C   0  0  0  0  0  2  0  0  0  0  0  0
  197.5950  173.5050  144.9780 C   0  0  0  0  0  2  0  0  0  0  0  0
  196.8940  172.8480  145.9970 O   0  0  0  0  0  0  0  0  0  0  0  0
  195.5730  173.0340  145.7100 N   0  0  0  0  0  2  0  0  0  0  0  0
  2  1  1  1  0  0  0
  2 18  1  0  0  0  0
  3  2  1  0  0  0  0
  4  3  1  0  0  0  0
  5  3  1  6  0  0  0
  5  7  1  0  0  0  0
  6  5  1  0  0  0  0
  7  6  1  6  0  0  0
  7 17  1  0  0  0  0
  8 13  2  0  0  0  0
  9  8  1  0  0  0  0
 10 13  1  0  0  0  0
 10 16  1  1  0  0  0
 11  9  2  0  0  0  0
 12 14  1  0  0  0  0
 13 15  1  0  0  0  0
 15 14  2  0  0  0  0
 16 12  2  0  0  0  0
 17 11  1  6  0  0  0
 17 10  1  0  0  0  0
 18 19  1  0  0  0  0
 20 19  1  6  0  0  0
 20 21  1  0  0  0  0
 21 22  1  0  0  0  0
 23 21  1  0  0  0  0
 24 20  1  0  0  0  0
 26 25  1  6  0  0  0
 26 27  1  0  0  0  0
 26 24  1  0  0  0  0
 28 32  1  0  0  0  0
 28 27  1  1  0  0  0
 29 30  1  0  0  0  0
 29 28  1  0  0  0  0
 30 31  1  0  0  0  0
 32 31  1  0  0  0  0
M  END
>  <MODEL>
3

>  <REMARK>
 VINA RESULT:      -6.6      1.984      2.456
  Name = 
  11 active torsions:
  status: ('A' for Active; 'I' for Inactive)
    1  A    between atoms: C_1  and  C_10
    2  A    between atoms: C_1  and  C_16
    3  A    between atoms: C_1  and  C_22
    4  A    between atoms: N_2  and  C_11
    5  A    between atoms: N_2  and  C_20
    6  A    between atoms: C_4  and  C_7
    7  A    between atoms: C_7  and  C_23
    8  A    between atoms: C_16  and  C_25
    9  A    between atoms: C_20  and  C_25
   10  A    between atoms: C_22  and  C_23
   11  A    between atoms: C_30  and  C_32
                            x       y       z     vdW  Elec       q    Type
                         _______ _______ _______ _____ _____    ______ ____

>  <TORSDO>
F 11

$$$$
=
 OpenBabel11042419343D

 32 35  0  0  1  0  0  0  0  0999 V2000
  191.0640  173.4000  144.1930 C   0  0  0  0  0  1  0  0  0  0  0  0
  190.2210  174.5730  143.7040 C   0  0  1  0  0  3  0  0  0  0  0  0
  189.4790  174.2130  142.4800 N   0  0  0  0  0  0  0  0  0  0  0  0
  190.4300  173.6550  141.5230 C   0  0  0  0  0  1  0  0  0  0  0  0
  188.9660  175.4320  141.8590 C   0  0  1  0  0  3  0  0  0  0  0  0
  188.2990  175.1190  140.6540 O   0  0  0  0  0  0  0  0  0  0  0  0
  187.4850  175.3700  141.7740 C   0  0  2  0  0  3  0  0  0  0  0  0
  184.8390  178.6530  141.1640 N   0  0  0  0  0  0  0  0  0  0  0  0
  185.6050  178.0830  140.0930 C   0  0  0  0  0  3  0  0  0  0  0  0
  185.6190  176.8560  142.6180 C   0  0  2  0  0  3  0  0  0  0  0  0
  186.5110  177.1820  140.3360 N   0  0  0  0  0  0  0  0  0  0  0  0
  185.3260  177.4050  145.0210 C   0  0  0  0  0  3  0  0  0  0  0  0
  184.8700  178.1430  142.3580 C   0  0  0  0  0  0  0  0  0  0  0  0
  184.3120  178.4130  144.6580 C   0  0  0  0  0  3  0  0  0  0  0  0
  184.1210  178.7530  143.4180 N   0  0  0  0  0  0  0  0  0  0  0  0
  185.9680  176.7110  144.0760 C   0  0  0  0  0  3  0  0  0  0  0  0
  186.8500  176.7700  141.7080 C   0  0  2  0  0  3  0  0  0  0  0  0
  189.2800  174.9420  144.8470 C   0  0  0  0  0  2  0  0  0  0  0  0
  189.4060  176.4180  145.1890 C   0  0  0  0  0  2  0  0  0  0  0  0
  189.5180  176.6230  146.6940 C   0  0  1  0  0  3  0  0  0  0  0  0
  188.1760  177.0650  147.2710 C   0  0  0  0  0  3  0  0  0  0  0  0
  187.2450  176.0400  147.2030 F   0  0  0  0  0  0  0  0  0  0  0  0
  187.7050  178.1730  146.5910 F   0  0  0  0  0  0  0  0  0  0  0  0
  190.0020  175.3440  147.3730 C   0  0  0  0  0  2  0  0  0  0  0  0
  191.6410  176.9140  148.4080 C   0  0  0  0  0  1  0  0  0  0  0  0
  191.4200  175.4970  147.9080 C   0  0  2  0  0  3  0  0  0  0  0  0
  192.4840  175.0890  146.8850 C   0  0  0  0  0  2  0  0  0  0  0  0
  193.3490  176.2550  146.4150 C   0  0  1  0  0  3  0  0  0  0  0  0
  194.7680  175.8110  146.2380 C   0  0  0  0  0  2  0  0  0  0  0  0
  194.9970  176.0890  144.7830 C   0  0  0  0  0  2  0  0  0  0  0  0
  193.7380  176.1350  144.1740 O   0  0  0  0  0  0  0  0  0  0  0  0
  192.9040  176.6930  145.1000 N   0  0  0  0  0  2  0  0  0  0  0  0
  2  1  1  1  0  0  0
  2 18  1  0  0  0  0
  3  2  1  0  0  0  0
  4  3  1  0  0  0  0
  5  3  1  1  0  0  0
  6  5  1  0  0  0  0
  7  6  1  6  0  0  0
  7  5  1  0  0  0  0
  8 13  2  0  0  0  0
  9 11  2  0  0  0  0
  9  8  1  0  0  0  0
 10 16  1  1  0  0  0
 13 10  1  0  0  0  0
 13 15  1  0  0  0  0
 14 12  1  0  0  0  0
 15 14  2  0  0  0  0
 16 12  2  0  0  0  0
 17 11  1  6  0  0  0
 17  7  1  0  0  0  0
 17 10  1  0  0  0  0
 18 19  1  0  0  0  0
 20 19  1  6  0  0  0
 20 21  1  0  0  0  0
 20 24  1  0  0  0  0
 22 21  1  0  0  0  0
 23 21  1  0  0  0  0
 24 26  1  0  0  0  0
 26 25  1  6  0  0  0
 27 26  1  0  0  0  0
 28 27  1  6  0  0  0
 29 28  1  0  0  0  0
 30 29  1  0  0  0  0
 31 30  1  0  0  0  0
 31 32  1  0  0  0  0
 32 28  1  0  0  0  0
M  END
>  <MODEL>
4

>  <REMARK>
 VINA RESULT:      -6.4      1.895      2.793
  Name = 
  11 active torsions:
  status: ('A' for Active; 'I' for Inactive)
    1  A    between atoms: C_1  and  C_10
    2  A    between atoms: C_1  and  C_16
    3  A    between atoms: C_1  and  C_22
    4  A    between atoms: N_2  and  C_11
    5  A    between atoms: N_2  and  C_20
    6  A    between atoms: C_4  and  C_7
    7  A    between atoms: C_7  and  C_23
    8  A    between atoms: C_16  and  C_25
    9  A    between atoms: C_20  and  C_25
   10  A    between atoms: C_22  and  C_23
   11  A    between atoms: C_30  and  C_32
                            x       y       z     vdW  Elec       q    Type
                         _______ _______ _______ _____ _____    ______ ____

>  <TORSDO>
F 11

$$$$
=
 OpenBabel11042419343D

 32 35  0  0  1  0  0  0  0  0999 V2000
  188.9710  174.9750  146.9260 C   0  0  0  0  0  1  0  0  0  0  0  0
  189.6820  176.3040  147.1600 C   0  0  1  0  0  3  0  0  0  0  0  0
  191.0880  176.0860  147.5500 N   0  0  0  0  0  0  0  0  0  0  0  0
  191.4790  177.1620  148.4570 C   0  0  0  0  0  1  0  0  0  0  0  0
  191.9380  176.2380  146.3710 C   0  0  1  0  0  3  0  0  0  0  0  0
  193.2880  175.9990  146.7110 O   0  0  0  0  0  0  0  0  0  0  0  0
  192.6100  174.9500  146.0630 C   0  0  2  0  0  3  0  0  0  0  0  0
  194.1790  173.6690  142.3150 N   0  0  0  0  0  0  0  0  0  0  0  0
  195.0030  174.2830  143.3160 C   0  0  0  0  0  3  0  0  0  0  0  0
  192.3350  173.6460  143.9120 C   0  0  2  0  0  3  0  0  0  0  0  0
  194.4710  174.7960  144.3860 N   0  0  0  0  0  0  0  0  0  0  0  0
  190.1370  173.3470  142.7980 C   0  0  0  0  0  3  0  0  0  0  0  0
  192.9250  173.4140  142.5390 C   0  0  0  0  0  0  0  0  0  0  0  0
  190.8220  172.7810  141.6200 C   0  0  0  0  0  3  0  0  0  0  0  0
  192.1160  172.8310  141.5100 N   0  0  0  0  0  0  0  0  0  0  0  0
  190.8370  173.7910  143.8460 C   0  0  0  0  0  3  0  0  0  0  0  0
  193.0130  174.8470  144.5820 C   0  0  2  0  0  3  0  0  0  0  0  0
  189.5730  177.0930  145.8590 C   0  0  0  0  0  2  0  0  0  0  0  0
  188.6090  176.4120  144.9000 C   0  0  0  0  0  2  0  0  0  0  0  0
  188.0800  177.3970  143.8650 C   0  0  1  0  0  3  0  0  0  0  0  0
  189.1850  177.7790  142.8840 C   0  0  0  0  0  3  0  0  0  0  0  0
  188.6870  178.5670  141.8570 F   0  0  0  0  0  0  0  0  0  0  0  0
  189.7750  176.6430  142.3600 F   0  0  0  0  0  0  0  0  0  0  0  0
  186.8840  176.8040  143.1250 C   0  0  0  0  0  2  0  0  0  0  0  0
  184.7150  177.8070  142.4080 C   0  0  0  0  0  1  0  0  0  0  0  0
  185.5730  177.4190  143.6000 C   0  0  2  0  0  3  0  0  0  0  0  0
  185.7850  178.6010  144.5490 C   0  0  0  0  0  2  0  0  0  0  0  0
  185.1180  178.4120  145.9090 C   0  0  1  0  0  3  0  0  0  0  0  0
  185.2350  176.9870  146.3520 C   0  0  0  0  0  2  0  0  0  0  0  0
  186.0010  177.1260  147.6340 C   0  0  0  0  0  2  0  0  0  0  0  0
  186.6650  178.3570  147.5790 O   0  0  0  0  0  0  0  0  0  0  0  0
  185.8230  179.1980  146.9110 N   0  0  0  0  0  2  0  0  0  0  0  0
  2  1  1  6  0  0  0
  2  3  1  0  0  0  0
  3  4  1  0  0  0  0
  5  6  1  0  0  0  0
  5  3  1  1  0  0  0
  7  5  1  0  0  0  0
  7  6  1  1  0  0  0
  8 13  2  0  0  0  0
  8  9  1  0  0  0  0
  9 11  2  0  0  0  0
 10 16  1  6  0  0  0
 10 17  1  0  0  0  0
 12 16  2  0  0  0  0
 13 10  1  0  0  0  0
 14 12  1  0  0  0  0
 15 14  2  0  0  0  0
 15 13  1  0  0  0  0
 17 11  1  1  0  0  0
 17  7  1  0  0  0  0
 18  2  1  0  0  0  0
 19 18  1  0  0  0  0
 20 24  1  6  0  0  0
 20 19  1  0  0  0  0
 21 20  1  0  0  0  0
 22 21  1  0  0  0  0
 23 21  1  0  0  0  0
 24 26  1  0  0  0  0
 26 25  1  6  0  0  0
 26 27  1  0  0  0  0
 28 27  1  6  0  0  0
 28 29  1  0  0  0  0
 28 32  1  0  0  0  0
 29 30  1  0  0  0  0
 31 30  1  0  0  0  0
 32 31  1  0  0  0  0
M  END
>  <MODEL>
5

>  <REMARK>
 VINA RESULT:      -6.3      2.445      7.630
  Name = 
  11 active torsions:
  status: ('A' for Active; 'I' for Inactive)
    1  A    between atoms: C_1  and  C_10
    2  A    between atoms: C_1  and  C_16
    3  A    between atoms: C_1  and  C_22
    4  A    between atoms: N_2  and  C_11
    5  A    between atoms: N_2  and  C_20
    6  A    between atoms: C_4  and  C_7
    7  A    between atoms: C_7  and  C_23
    8  A    between atoms: C_16  and  C_25
    9  A    between atoms: C_20  and  C_25
   10  A    between atoms: C_22  and  C_23
   11  A    between atoms: C_30  and  C_32
                            x       y       z     vdW  Elec       q    Type
                         _______ _______ _______ _____ _____    ______ ____

>  <TORSDO>
F 11

$$$$
=
 OpenBabel11042419343D

 32 35  0  0  1  0  0  0  0  0999 V2000
  189.7050  174.0000  145.3720 C   0  0  0  0  0  1  0  0  0  0  0  0
  189.6150  174.8400  146.6420 C   0  0  1  0  0  3  0  0  0  0  0  0
  190.9490  175.3190  147.0510 N   0  0  0  0  0  0  0  0  0  0  0  0
  190.7920  176.6440  147.6430 C   0  0  0  0  0  1  0  0  0  0  0  0
  191.7690  175.5170  145.8580 C   0  0  1  0  0  3  0  0  0  0  0  0
  192.5240  176.7050  145.9780 O   0  0  0  0  0  0  0  0  0  0  0  0
  193.2080  175.5010  146.2260 C   0  0  2  0  0  3  0  0  0  0  0  0
  196.5270  174.6900  143.6800 N   0  0  0  0  0  0  0  0  0  0  0  0
  196.0340  176.0210  143.8880 C   0  0  0  0  0  3  0  0  0  0  0  0
  194.9800  173.8980  145.3920 C   0  0  2  0  0  3  0  0  0  0  0  0
  194.9330  176.2210  144.5510 N   0  0  0  0  0  0  0  0  0  0  0  0
  194.6130  171.4470  145.2580 C   0  0  0  0  0  3  0  0  0  0  0  0
  196.0210  173.6780  144.3170 C   0  0  0  0  0  0  0  0  0  0  0  0
  195.8750  171.3080  144.5050 C   0  0  0  0  0  3  0  0  0  0  0  0
  196.5090  172.3540  144.0650 N   0  0  0  0  0  0  0  0  0  0  0  0
  194.1710  172.6500  145.6330 C   0  0  0  0  0  3  0  0  0  0  0  0
  194.1050  175.1070  145.0390 C   0  0  2  0  0  3  0  0  0  0  0  0
  188.6690  175.9970  146.3340 C   0  0  0  0  0  2  0  0  0  0  0  0
  188.3500  176.0460  144.8480 C   0  0  0  0  0  2  0  0  0  0  0  0
  188.4800  177.4640  144.3080 C   0  0  1  0  0  3  0  0  0  0  0  0
  189.8520  177.6640  143.6690 C   0  0  0  0  0  3  0  0  0  0  0  0
  190.5620  178.6620  144.3200 F   0  0  0  0  0  0  0  0  0  0  0  0
  189.7150  177.9820  142.3300 F   0  0  0  0  0  0  0  0  0  0  0  0
  187.3700  177.7570  143.3020 C   0  0  0  0  0  2  0  0  0  0  0  0
  184.9020  177.8330  142.9450 C   0  0  0  0  0  1  0  0  0  0  0  0
  186.0110  177.8520  143.9830 C   0  0  2  0  0  3  0  0  0  0  0  0
  185.8960  179.0690  144.9050 C   0  0  0  0  0  2  0  0  0  0  0  0
  185.1690  178.7690  146.2140 C   0  0  1  0  0  3  0  0  0  0  0  0
  185.2070  177.3020  146.5050 C   0  0  0  0  0  2  0  0  0  0  0  0
  185.9280  177.2690  147.8200 C   0  0  0  0  0  2  0  0  0  0  0  0
  186.6470  178.4660  147.9200 O   0  0  0  0  0  0  0  0  0  0  0  0
  185.8690  179.4110  147.3170 N   0  0  0  0  0  2  0  0  0  0  0  0
  2  1  1  6  0  0  0
  2  3  1  0  0  0  0
  3  4  1  0  0  0  0
  5  6  1  0  0  0  0
  5  7  1  0  0  0  0
  5  3  1  1  0  0  0
  7  6  1  6  0  0  0
  8  9  1  0  0  0  0
  8 13  2  0  0  0  0
  9 11  2  0  0  0  0
 10 16  1  6  0  0  0
 12 16  2  0  0  0  0
 13 10  1  0  0  0  0
 14 12  1  0  0  0  0
 15 13  1  0  0  0  0
 15 14  2  0  0  0  0
 17 11  1  1  0  0  0
 17 10  1  0  0  0  0
 17  7  1  0  0  0  0
 18  2  1  0  0  0  0
 19 18  1  0  0  0  0
 20 24  1  6  0  0  0
 20 19  1  0  0  0  0
 21 20  1  0  0  0  0
 21 22  1  0  0  0  0
 23 21  1  0  0  0  0
 24 26  1  0  0  0  0
 26 25  1  6  0  0  0
 26 27  1  0  0  0  0
 28 27  1  6  0  0  0
 28 29  1  0  0  0  0
 28 32  1  0  0  0  0
 29 30  1  0  0  0  0
 30 31  1  0  0  0  0
 32 31  1  0  0  0  0
M  END
>  <MODEL>
6

>  <REMARK>
 VINA RESULT:      -6.1      2.500      8.155
  Name = 
  11 active torsions:
  status: ('A' for Active; 'I' for Inactive)
    1  A    between atoms: C_1  and  C_10
    2  A    between atoms: C_1  and  C_16
    3  A    between atoms: C_1  and  C_22
    4  A    between atoms: N_2  and  C_11
    5  A    between atoms: N_2  and  C_20
    6  A    between atoms: C_4  and  C_7
    7  A    between atoms: C_7  and  C_23
    8  A    between atoms: C_16  and  C_25
    9  A    between atoms: C_20  and  C_25
   10  A    between atoms: C_22  and  C_23
   11  A    between atoms: C_30  and  C_32
                            x       y       z     vdW  Elec       q    Type
                         _______ _______ _______ _____ _____    ______ ____

>  <TORSDO>
F 11

$$$$
=
 OpenBabel11042419343D

 32 35  0  0  1  0  0  0  0  0999 V2000
  189.0800  172.4900  140.8250 C   0  0  0  0  0  1  0  0  0  0  0  0
  189.6600  173.4490  141.8590 C   0  0  1  0  0  3  0  0  0  0  0  0
  190.7730  174.2300  141.2850 N   0  0  0  0  0  0  0  0  0  0  0  0
  191.2610  173.5210  140.1050 C   0  0  0  0  0  1  0  0  0  0  0  0
  191.8880  174.2340  142.2290 C   0  0  1  0  0  3  0  0  0  0  0  0
  192.8870  175.1350  141.7980 O   0  0  0  0  0  0  0  0  0  0  0  0
  192.0390  175.5860  142.8260 C   0  0  2  0  0  3  0  0  0  0  0  0
  193.7690  176.5890  146.5880 N   0  0  0  0  0  0  0  0  0  0  0  0
  194.4680  176.7840  145.3510 C   0  0  0  0  0  3  0  0  0  0  0  0
  191.7820  175.9730  145.3130 C   0  0  2  0  0  3  0  0  0  0  0  0
  193.9760  176.3340  144.2350 N   0  0  0  0  0  0  0  0  0  0  0  0
  190.1270  174.7440  146.6970 C   0  0  0  0  0  3  0  0  0  0  0  0
  192.5430  176.1580  146.6060 C   0  0  0  0  0  0  0  0  0  0  0  0
  190.7510  175.2950  147.9160 C   0  0  0  0  0  3  0  0  0  0  0  0
  191.8780  175.9390  147.8580 N   0  0  0  0  0  0  0  0  0  0  0  0
  190.6290  175.0200  145.4900 C   0  0  0  0  0  3  0  0  0  0  0  0
  192.7370  175.5390  144.1960 C   0  0  2  0  0  3  0  0  0  0  0  0
  188.5150  174.3480  142.3140 C   0  0  0  0  0  2  0  0  0  0  0  0
  188.2050  175.3950  141.2560 C   0  0  0  0  0  2  0  0  0  0  0  0
  187.7500  176.7000  141.8960 C   0  0  1  0  0  3  0  0  0  0  0  0
  186.6760  177.3650  141.0390 C   0  0  0  0  0  3  0  0  0  0  0  0
  185.4200  177.2040  141.6040 F   0  0  0  0  0  0  0  0  0  0  0  0
  186.6880  176.8370  139.7610 F   0  0  0  0  0  0  0  0  0  0  0  0
  187.2330  176.4500  143.3100 C   0  0  0  0  0  2  0  0  0  0  0  0
  189.1290  177.9270  143.9790 C   0  0  0  0  0  1  0  0  0  0  0  0
  187.6900  177.5380  144.2730 C   0  0  2  0  0  3  0  0  0  0  0  0
  187.5030  177.1450  145.7410 C   0  0  0  0  0  2  0  0  0  0  0  0
  186.6070  178.1080  146.5150 C   0  0  1  0  0  3  0  0  0  0  0  0
  185.8710  179.0080  145.5710 C   0  0  0  0  0  2  0  0  0  0  0  0
  184.4420  178.6780  145.8840 C   0  0  0  0  0  2  0  0  0  0  0  0
  184.4380  177.4130  146.4840 O   0  0  0  0  0  0  0  0  0  0  0  0
  185.5830  177.3560  147.2260 N   0  0  0  0  0  2  0  0  0  0  0  0
  2  1  1  6  0  0  0
  2 18  1  0  0  0  0
  3  2  1  0  0  0  0
  4  3  1  0  0  0  0
  5  3  1  6  0  0  0
  5  7  1  0  0  0  0
  6  5  1  0  0  0  0
  7  6  1  6  0  0  0
  7 17  1  0  0  0  0
  8 13  2  0  0  0  0
  9  8  1  0  0  0  0
 10 16  1  1  0  0  0
 10 13  1  0  0  0  0
 11  9  2  0  0  0  0
 12 14  1  0  0  0  0
 13 15  1  0  0  0  0
 15 14  2  0  0  0  0
 16 12  2  0  0  0  0
 17 11  1  6  0  0  0
 17 10  1  0  0  0  0
 19 18  1  0  0  0  0
 20 19  1  6  0  0  0
 20 24  1  0  0  0  0
 21 22  1  0  0  0  0
 21 20  1  0  0  0  0
 23 21  1  0  0  0  0
 24 26  1  0  0  0  0
 26 25  1  1  0  0  0
 26 27  1  0  0  0  0
 28 27  1  6  0  0  0
 28 32  1  0  0  0  0
 29 30  1  0  0  0  0
 29 28  1  0  0  0  0
 30 31  1  0  0  0  0
 31 32  1  0  0  0  0
M  END
>  <MODEL>
7

>  <REMARK>
 VINA RESULT:      -6.1      2.487      6.548
  Name = 
  11 active torsions:
  status: ('A' for Active; 'I' for Inactive)
    1  A    between atoms: C_1  and  C_10
    2  A    between atoms: C_1  and  C_16
    3  A    between atoms: C_1  and  C_22
    4  A    between atoms: N_2  and  C_11
    5  A    between atoms: N_2  and  C_20
    6  A    between atoms: C_4  and  C_7
    7  A    between atoms: C_7  and  C_23
    8  A    between atoms: C_16  and  C_25
    9  A    between atoms: C_20  and  C_25
   10  A    between atoms: C_22  and  C_23
   11  A    between atoms: C_30  and  C_32
                            x       y       z     vdW  Elec       q    Type
                         _______ _______ _______ _____ _____    ______ ____

>  <TORSDO>
F 11

$$$$
=
 OpenBabel11042419343D

 32 35  0  0  1  0  0  0  0  0999 V2000
  189.4270  172.8710  143.2620 C   0  0  0  0  0  1  0  0  0  0  0  0
  190.7180  173.4880  143.7910 C   0  0  1  0  0  3  0  0  0  0  0  0
  190.9060  174.8510  143.2580 N   0  0  0  0  0  0  0  0  0  0  0  0
  189.9500  175.0470  142.1720 C   0  0  0  0  0  1  0  0  0  0  0  0
  192.2270  174.9430  142.6410 C   0  0  1  0  0  3  0  0  0  0  0  0
  192.5590  176.2950  142.4010 O   0  0  0  0  0  0  0  0  0  0  0  0
  193.1480  175.6960  143.5290 C   0  0  2  0  0  3  0  0  0  0  0  0
  197.4080  175.6040  143.5110 N   0  0  0  0  0  0  0  0  0  0  0  0
  196.6620  176.5120  142.6880 C   0  0  0  0  0  3  0  0  0  0  0  0
  195.3200  174.9250  144.5740 C   0  0  2  0  0  3  0  0  0  0  0  0
  195.3670  176.4160  142.6050 N   0  0  0  0  0  0  0  0  0  0  0  0
  195.5390  172.7560  145.7620 C   0  0  0  0  0  3  0  0  0  0  0  0
  196.8110  174.8150  144.3520 C   0  0  0  0  0  0  0  0  0  0  0  0
  197.0020  172.9400  145.8080 C   0  0  0  0  0  3  0  0  0  0  0  0
  197.5790  173.8930  145.1380 N   0  0  0  0  0  0  0  0  0  0  0  0
  194.7580  173.6520  145.1520 C   0  0  0  0  0  3  0  0  0  0  0  0
  194.6220  175.3370  143.2730 C   0  0  2  0  0  3  0  0  0  0  0  0
  190.6120  173.4860  145.3130 C   0  0  0  0  0  2  0  0  0  0  0  0
  189.3210  174.1530  145.7600 C   0  0  0  0  0  2  0  0  0  0  0  0
  189.5600  175.0550  146.9640 C   0  0  1  0  0  3  0  0  0  0  0  0
  191.0550  175.3040  147.1510 C   0  0  0  0  0  3  0  0  0  0  0  0
  191.4670  174.9210  148.4180 F   0  0  0  0  0  0  0  0  0  0  0  0
  191.3470  176.6400  146.9450 F   0  0  0  0  0  0  0  0  0  0  0  0
  188.8100  176.3750  146.8010 C   0  0  0  0  0  2  0  0  0  0  0  0
  189.0900  177.6990  144.7050 C   0  0  0  0  0  1  0  0  0  0  0  0
  188.3240  176.5680  145.3700 C   0  0  2  0  0  3  0  0  0  0  0  0
  186.8110  176.7860  145.2850 C   0  0  0  0  0  2  0  0  0  0  0  0
  186.3380  178.0360  146.0230 C   0  0  1  0  0  3  0  0  0  0  0  0
  185.6270  178.9580  145.0820 C   0  0  0  0  0  2  0  0  0  0  0  0
  184.2650  179.0400  145.7040 C   0  0  0  0  0  2  0  0  0  0  0  0
  184.1180  177.9060  146.5130 O   0  0  0  0  0  0  0  0  0  0  0  0
  185.3570  177.6640  147.0320 N   0  0  0  0  0  2  0  0  0  0  0  0
  2  1  1  6  0  0  0
  2 18  1  0  0  0  0
  3  2  1  0  0  0  0
  4  3  1  0  0  0  0
  5  3  1  1  0  0  0
  5  7  1  0  0  0  0
  6  5  1  0  0  0  0
  7  6  1  6  0  0  0
  8 13  2  0  0  0  0
  9  8  1  0  0  0  0
 10 16  1  6  0  0  0
 11  9  2  0  0  0  0
 12 14  1  0  0  0  0
 13 10  1  0  0  0  0
 13 15  1  0  0  0  0
 15 14  2  0  0  0  0
 16 12  2  0  0  0  0
 17 11  1  1  0  0  0
 17  7  1  0  0  0  0
 17 10  1  0  0  0  0
 18 19  1  0  0  0  0
 20 19  1  6  0  0  0
 20 21  1  0  0  0  0
 21 22  1  0  0  0  0
 23 21  1  0  0  0  0
 24 20  1  0  0  0  0
 26 25  1  1  0  0  0
 26 24  1  0  0  0  0
 27 26  1  0  0  0  0
 28 27  1  6  0  0  0
 28 32  1  0  0  0  0
 29 30  1  0  0  0  0
 29 28  1  0  0  0  0
 30 31  1  0  0  0  0
 31 32  1  0  0  0  0
M  END
>  <MODEL>
8

>  <REMARK>
 VINA RESULT:      -6.0      2.463      7.964
  Name = 
  11 active torsions:
  status: ('A' for Active; 'I' for Inactive)
    1  A    between atoms: C_1  and  C_10
    2  A    between atoms: C_1  and  C_16
    3  A    between atoms: C_1  and  C_22
    4  A    between atoms: N_2  and  C_11
    5  A    between atoms: N_2  and  C_20
    6  A    between atoms: C_4  and  C_7
    7  A    between atoms: C_7  and  C_23
    8  A    between atoms: C_16  and  C_25
    9  A    between atoms: C_20  and  C_25
   10  A    between atoms: C_22  and  C_23
   11  A    between atoms: C_30  and  C_32
                            x       y       z     vdW  Elec       q    Type
                         _______ _______ _______ _____ _____    ______ ____

>  <TORSDO>
F 11

$$$$
=
 OpenBabel11042419343D

 32 35  0  0  1  0  0  0  0  0999 V2000
  191.3170  175.5810  147.9010 C   0  0  0  0  0  1  0  0  0  0  0  0
  191.7130  176.4070  146.6820 C   0  0  1  0  0  3  0  0  0  0  0  0
  192.9310  175.8620  146.0520 N   0  0  0  0  0  0  0  0  0  0  0  0
  194.0700  176.6500  146.5130 C   0  0  0  0  0  1  0  0  0  0  0  0
  192.8600  176.0830  144.6090 C   0  0  1  0  0  3  0  0  0  0  0  0
  194.1170  175.8330  144.0160 O   0  0  0  0  0  0  0  0  0  0  0  0
  193.1530  174.8170  143.8890 C   0  0  2  0  0  3  0  0  0  0  0  0
  192.0600  173.7910  139.9010 N   0  0  0  0  0  0  0  0  0  0  0  0
  193.3050  174.4330  140.2090 C   0  0  0  0  0  3  0  0  0  0  0  0
  191.6360  173.5700  142.2940 C   0  0  2  0  0  3  0  0  0  0  0  0
  193.5460  174.8660  141.4110 N   0  0  0  0  0  0  0  0  0  0  0  0
  189.2410  173.1390  142.7820 C   0  0  0  0  0  3  0  0  0  0  0  0
  191.2390  173.4320  140.8410 C   0  0  0  0  0  0  0  0  0  0  0  0
  189.0520  172.6680  141.3960 C   0  0  0  0  0  3  0  0  0  0  0  0
  189.9850  172.8230  140.5050 N   0  0  0  0  0  0  0  0  0  0  0  0
  190.4260  173.6000  143.1910 C   0  0  0  0  0  3  0  0  0  0  0  0
  192.5360  174.7970  142.4800 C   0  0  2  0  0  3  0  0  0  0  0  0
  190.5220  176.3770  145.7280 C   0  0  0  0  0  2  0  0  0  0  0  0
  189.6760  177.6300  145.8910 C   0  0  0  0  0  2  0  0  0  0  0  0
  188.3480  177.4920  145.1580 C   0  0  1  0  0  3  0  0  0  0  0  0
  188.5070  176.5860  143.9400 C   0  0  0  0  0  3  0  0  0  0  0  0
  188.7760  177.3290  142.8000 F   0  0  0  0  0  0  0  0  0  0  0  0
  187.3630  175.8320  143.7500 F   0  0  0  0  0  0  0  0  0  0  0  0
  187.2730  176.9490  146.0960 C   0  0  0  0  0  2  0  0  0  0  0  0
  186.2560  178.2150  147.9900 C   0  0  0  0  0  1  0  0  0  0  0  0
  186.2720  178.0300  146.4830 C   0  0  2  0  0  3  0  0  0  0  0  0
  184.8680  177.7570  145.9360 C   0  0  0  0  0  2  0  0  0  0  0  0
  184.4760  178.6830  144.7870 C   0  0  1  0  0  3  0  0  0  0  0  0
  185.5450  179.7040  144.5550 C   0  0  0  0  0  2  0  0  0  0  0  0
  185.9420  179.4160  143.1370 C   0  0  0  0  0  2  0  0  0  0  0  0
  185.5490  178.1000  142.8640 O   0  0  0  0  0  0  0  0  0  0  0  0
  184.3850  177.9160  143.5530 N   0  0  0  0  0  2  0  0  0  0  0  0
  2  1  1  1  0  0  0
  3  4  1  0  0  0  0
  3  2  1  0  0  0  0
  5  3  1  1  0  0  0
  6  5  1  0  0  0  0
  7  6  1  6  0  0  0
  7  5  1  0  0  0  0
  8  9  1  0  0  0  0
  8 13  2  0  0  0  0
  9 11  2  0  0  0  0
 10 17  1  0  0  0  0
 10 16  1  1  0  0  0
 12 16  2  0  0  0  0
 13 10  1  0  0  0  0
 14 12  1  0  0  0  0
 15 13  1  0  0  0  0
 15 14  2  0  0  0  0
 17 11  1  6  0  0  0
 17  7  1  0  0  0  0
 18 19  1  0  0  0  0
 18  2  1  0  0  0  0
 20 19  1  1  0  0  0
 20 24  1  0  0  0  0
 21 20  1  0  0  0  0
 22 21  1  0  0  0  0
 23 21  1  0  0  0  0
 24 26  1  0  0  0  0
 26 25  1  1  0  0  0
 27 26  1  0  0  0  0
 28 27  1  1  0  0  0
 29 28  1  0  0  0  0
 30 29  1  0  0  0  0
 31 30  1  0  0  0  0
 31 32  1  0  0  0  0
 32 28  1  0  0  0  0
M  END
>  <MODEL>
9

>  <REMARK>
 VINA RESULT:      -6.0      2.099      7.448
  Name = 
  11 active torsions:
  status: ('A' for Active; 'I' for Inactive)
    1  A    between atoms: C_1  and  C_10
    2  A    between atoms: C_1  and  C_16
    3  A    between atoms: C_1  and  C_22
    4  A    between atoms: N_2  and  C_11
    5  A    between atoms: N_2  and  C_20
    6  A    between atoms: C_4  and  C_7
    7  A    between atoms: C_7  and  C_23
    8  A    between atoms: C_16  and  C_25
    9  A    between atoms: C_20  and  C_25
   10  A    between atoms: C_22  and  C_23
   11  A    between atoms: C_30  and  C_32
                            x       y       z     vdW  Elec       q    Type
                         _______ _______ _______ _____ _____    ______ ____

>  <TORSDO>
F 11

$$$$
