=
 OpenBabel11042417203D

 26 27  0  0  1  0  0  0  0  0999 V2000
  186.5610  176.7050  146.3500 C   0  0  0  0  0  0  0  0  0  0  0  0
  185.8030  177.1060  143.9870 C   0  0  0  0  0  0  0  0  0  0  0  0
  188.8230  175.5610  142.3990 C   0  0  0  0  0  3  0  0  0  0  0  0
  185.5830  177.4200  145.4440 C   0  0  2  0  0  3  0  0  0  0  0  0
  187.4970  176.2220  142.1590 C   0  0  0  0  0  3  0  0  0  0  0  0
  186.2880  176.6050  147.5770 O   0  0  0  0  0  0  0  0  0  0  0  0
  188.8120  175.6810  146.7300 C   0  0  0  0  0  0  0  0  0  0  0  0
  189.0980  175.5030  143.6990 C   0  0  0  0  0  2  0  0  0  0  0  0
  187.9910  176.1230  144.4090 C   0  0  0  0  0  0  0  0  0  0  0  0
  188.4920  174.8330  147.6070 O   0  0  0  0  0  0  0  0  0  0  0  0
  187.8090  176.1910  145.8350 N   0  0  0  0  0  0  0  0  0  0  0  0
  187.0760  176.5240  143.5530 C   0  0  0  0  0  0  0  0  0  0  0  0
  184.9040  177.3660  143.1440 O   0  0  0  0  0  0  0  0  0  0  0  0
  185.5620  179.3660  146.8450 O   0  0  0  0  0  0  0  0  0  0  0  0
  185.6350  178.8970  145.6770 C   0  0  0  0  0  0  0  0  0  0  0  0
  185.7700  179.7800  144.5700 N   0  0  0  0  0  1  0  0  0  0  0  0
  190.2040  176.1530  146.6600 C   0  0  0  0  0  0  0  0  0  0  0  0
  191.2760  175.2530  146.9440 N   0  0  0  0  0  2  0  0  0  0  0  0
  190.4520  177.3550  146.3700 O   0  0  0  0  0  0  0  0  0  0  0  0
  192.6080  175.6780  146.8900 N   0  0  0  0  0  0  0  0  0  0  0  0
  193.4610  175.0380  146.1630 C   0  0  0  0  0  3  0  0  0  0  0  0
  194.8850  175.4810  146.1000 C   0  0  0  0  0  2  0  0  0  0  0  0
  195.0440  176.6230  145.1520 C   0  0  0  0  0  0  0  0  0  0  0  0
  194.8510  177.7650  145.5350 O   0  0  0  0  0  0  0  0  0  0  0  0
  195.3970  176.3630  143.7250 C   0  0  0  0  0  2  0  0  0  0  0  0
  196.7350  176.6900  143.5010 O   0  0  0  0  0  1  0  0  0  0  0  0
  1  6  2  0  0  0  0
  2  4  1  0  0  0  0
  3  8  1  0  0  0  0
  4 15  1  6  0  0  0
  4  1  1  0  0  0  0
  5  3  2  0  0  0  0
  5 12  1  0  0  0  0
  7 10  2  0  0  0  0
  8  9  1  0  0  0  0
  9 11  1  0  0  0  0
 11  1  1  0  0  0  0
 11  7  1  0  0  0  0
 12  2  1  0  0  0  0
 12  9  2  0  0  0  0
 13  2  2  0  0  0  0
 15 14  2  0  0  0  0
 16 15  1  0  0  0  0
 17  7  1  0  0  0  0
 17 18  1  0  0  0  0
 19 17  2  0  0  0  0
 20 18  1  0  0  0  0
 21 20  2  0  0  0  0
 22 21  1  0  0  0  0
 23 24  2  0  0  0  0
 23 22  1  0  0  0  0
 25 23  1  0  0  0  0
 26 25  1  0  0  0  0
M  END
>  <MODEL>
1

>  <REMARK>
 VINA RESULT:      -6.9      0.000      0.000
  Name = 
  6 active torsions:
  status: ('A' for Active; 'I' for Inactive)
    1  A    between atoms: C_4  and  C_5
    2  A    between atoms: C_5  and  C_22
    3  A    between atoms: C_6  and  C_17
    4  A    between atoms: C_8  and  C_14
    5  A    between atoms: N_9  and  N_11
    6  A    between atoms: C_19  and  C_22
                            x       y       z     vdW  Elec       q    Type
                         _______ _______ _______ _____ _____    ______ ____

>  <TORSDO>
F 6

$$$$
=
 OpenBabel11042417203D

 26 27  0  0  1  0  0  0  0  0999 V2000
  186.4340  178.6040  144.3880 C   0  0  0  0  0  0  0  0  0  0  0  0
  187.0760  178.2280  146.7900 C   0  0  0  0  0  0  0  0  0  0  0  0
  189.8990  175.8900  146.0220 C   0  0  0  0  0  3  0  0  0  0  0  0
  186.0420  178.7730  145.8390 C   0  0  2  0  0  3  0  0  0  0  0  0
  189.1350  176.5990  147.1020 C   0  0  0  0  0  2  0  0  0  0  0  0
  185.8460  179.2990  143.5160 O   0  0  0  0  0  0  0  0  0  0  0  0
  187.6630  177.3450  142.6080 C   0  0  0  0  0  0  0  0  0  0  0  0
  189.3750  176.1400  144.8260 C   0  0  0  0  0  3  0  0  0  0  0  0
  188.2330  177.0170  145.0230 C   0  0  0  0  0  0  0  0  0  0  0  0
  187.8580  178.2950  141.8020 O   0  0  0  0  0  0  0  0  0  0  0  0
  187.4280  177.6300  143.9980 N   0  0  0  0  0  0  0  0  0  0  0  0
  188.0920  177.2930  146.3000 C   0  0  0  0  0  0  0  0  0  0  0  0
  187.0500  178.5590  148.0050 O   0  0  0  0  0  0  0  0  0  0  0  0
  183.6470  178.8080  145.9510 O   0  0  0  0  0  0  0  0  0  0  0  0
  184.7080  178.1440  146.0980 C   0  0  0  0  0  0  0  0  0  0  0  0
  184.6390  176.7860  146.5120 N   0  0  0  0  0  1  0  0  0  0  0  0
  187.6510  175.9630  142.1040 C   0  0  0  0  0  0  0  0  0  0  0  0
  188.6380  175.5400  141.1630 N   0  0  0  0  0  2  0  0  0  0  0  0
  186.7590  175.1570  142.4840 O   0  0  0  0  0  0  0  0  0  0  0  0
  188.6450  174.2340  140.6630 N   0  0  0  0  0  0  0  0  0  0  0  0
  188.4500  174.0220  139.4040 C   0  0  0  0  0  3  0  0  0  0  0  0
  188.4530  172.6320  138.8610 C   0  0  0  0  0  2  0  0  0  0  0  0
  189.8470  172.1760  138.5800 C   0  0  0  0  0  0  0  0  0  0  0  0
  190.5180  172.7510  137.7390 O   0  0  0  0  0  0  0  0  0  0  0  0
  190.4020  170.9900  139.2970 C   0  0  0  0  0  2  0  0  0  0  0  0
  190.3290  171.1940  140.6760 O   0  0  0  0  0  1  0  0  0  0  0  0
  1  4  1  0  0  0  0
  2 13  2  0  0  0  0
  3  5  1  0  0  0  0
  4 15  1  6  0  0  0
  4  2  1  0  0  0  0
  6  1  2  0  0  0  0
  7 11  1  0  0  0  0
  8  9  1  0  0  0  0
  8  3  2  0  0  0  0
  9 12  2  0  0  0  0
 10  7  2  0  0  0  0
 11  1  1  0  0  0  0
 11  9  1  0  0  0  0
 12  2  1  0  0  0  0
 12  5  1  0  0  0  0
 14 15  2  0  0  0  0
 15 16  1  0  0  0  0
 17 19  2  0  0  0  0
 17  7  1  0  0  0  0
 18 17  1  0  0  0  0
 20 18  1  0  0  0  0
 21 20  2  0  0  0  0
 22 21  1  0  0  0  0
 23 22  1  0  0  0  0
 23 25  1  0  0  0  0
 24 23  2  0  0  0  0
 25 26  1  0  0  0  0
M  END
>  <MODEL>
2

>  <REMARK>
 VINA RESULT:      -6.5      3.857      5.883
  Name = 
  6 active torsions:
  status: ('A' for Active; 'I' for Inactive)
    1  A    between atoms: C_4  and  C_5
    2  A    between atoms: C_5  and  C_22
    3  A    between atoms: C_6  and  C_17
    4  A    between atoms: C_8  and  C_14
    5  A    between atoms: N_9  and  N_11
    6  A    between atoms: C_19  and  C_22
                            x       y       z     vdW  Elec       q    Type
                         _______ _______ _______ _____ _____    ______ ____

>  <TORSDO>
F 6

$$$$
=
 OpenBabel11042417203D

 26 27  0  0  1  0  0  0  0  0999 V2000
  188.4550  178.0670  142.6750 C   0  0  0  0  0  0  0  0  0  0  0  0
  186.1060  177.9940  143.5670 C   0  0  0  0  0  0  0  0  0  0  0  0
  187.0520  176.5490  146.8890 C   0  0  0  0  0  3  0  0  0  0  0  0
  186.9800  178.1750  142.3540 C   0  0  2  0  0  3  0  0  0  0  0  0
  185.9290  177.0500  146.0300 C   0  0  0  0  0  3  0  0  0  0  0  0
  189.2900  178.5240  141.8480 O   0  0  0  0  0  0  0  0  0  0  0  0
  190.3040  177.1470  144.0890 C   0  0  0  0  0  0  0  0  0  0  0  0
  188.2080  176.5860  146.2320 C   0  0  0  0  0  2  0  0  0  0  0  0
  187.9370  177.1000  144.9000 C   0  0  0  0  0  0  0  0  0  0  0  0
  191.1410  178.0780  143.9390 O   0  0  0  0  0  0  0  0  0  0  0  0
  188.9050  177.4100  143.8800 N   0  0  0  0  0  0  0  0  0  0  0  0
  186.6570  177.3760  144.7760 C   0  0  0  0  0  0  0  0  0  0  0  0
  184.8990  178.3540  143.5320 O   0  0  0  0  0  0  0  0  0  0  0  0
  187.0460  176.0170  141.3120 O   0  0  0  0  0  0  0  0  0  0  0  0
  186.6040  177.1970  141.2850 C   0  0  0  0  0  0  0  0  0  0  0  0
  185.7410  177.6040  140.2310 N   0  0  0  0  0  1  0  0  0  0  0  0
  190.7790  175.8020  144.4470 C   0  0  0  0  0  0  0  0  0  0  0  0
  191.8600  175.6510  145.3670 N   0  0  0  0  0  2  0  0  0  0  0  0
  190.2480  174.7830  143.9270 O   0  0  0  0  0  0  0  0  0  0  0  0
  192.3350  174.3830  145.7200 N   0  0  0  0  0  0  0  0  0  0  0  0
  193.3470  173.8760  145.0980 C   0  0  0  0  0  3  0  0  0  0  0  0
  193.8600  172.5240  145.4640 C   0  0  0  0  0  2  0  0  0  0  0  0
  195.3530  172.5160  145.5040 C   0  0  0  0  0  0  0  0  0  0  0  0
  195.9600  171.4630  145.4020 O   0  0  0  0  0  0  0  0  0  0  0  0
  196.1000  173.7920  145.7120 C   0  0  0  0  0  2  0  0  0  0  0  0
  197.1610  173.5820  146.5940 O   0  0  0  0  0  1  0  0  0  0  0  0
  1 11  1  0  0  0  0
  2 12  1  0  0  0  0
  4 15  1  6  0  0  0
  4  1  1  0  0  0  0
  4  2  1  0  0  0  0
  5  3  2  0  0  0  0
  6  1  2  0  0  0  0
  7 17  1  0  0  0  0
  8  3  1  0  0  0  0
  9  8  1  0  0  0  0
 10  7  2  0  0  0  0
 11  7  1  0  0  0  0
 11  9  1  0  0  0  0
 12  9  2  0  0  0  0
 12  5  1  0  0  0  0
 13  2  2  0  0  0  0
 15 14  2  0  0  0  0
 16 15  1  0  0  0  0
 17 18  1  0  0  0  0
 18 20  1  0  0  0  0
 19 17  2  0  0  0  0
 21 22  1  0  0  0  0
 21 20  2  0  0  0  0
 22 23  1  0  0  0  0
 23 25  1  0  0  0  0
 24 23  2  0  0  0  0
 25 26  1  0  0  0  0
M  END
>  <MODEL>
3

>  <REMARK>
 VINA RESULT:      -6.5      2.691      3.912
  Name = 
  6 active torsions:
  status: ('A' for Active; 'I' for Inactive)
    1  A    between atoms: C_4  and  C_5
    2  A    between atoms: C_5  and  C_22
    3  A    between atoms: C_6  and  C_17
    4  A    between atoms: C_8  and  C_14
    5  A    between atoms: N_9  and  N_11
    6  A    between atoms: C_19  and  C_22
                            x       y       z     vdW  Elec       q    Type
                         _______ _______ _______ _____ _____    ______ ____

>  <TORSDO>
F 6

$$$$
=
 OpenBabel11042417203D

 26 27  0  0  1  0  0  0  0  0999 V2000
  186.4740  176.9060  144.9050 C   0  0  0  0  0  0  0  0  0  0  0  0
  184.8800  177.9000  143.2330 C   0  0  0  0  0  0  0  0  0  0  0  0
  187.0670  177.2590  140.2620 C   0  0  0  0  0  3  0  0  0  0  0  0
  185.2290  177.7380  144.6900 C   0  0  2  0  0  3  0  0  0  0  0  0
  185.7530  177.8030  140.7390 C   0  0  0  0  0  3  0  0  0  0  0  0
  186.6850  176.4150  146.0470 O   0  0  0  0  0  0  0  0  0  0  0  0
  188.6970  176.0850  144.1010 C   0  0  0  0  0  0  0  0  0  0  0  0
  187.8130  176.8500  141.2840 C   0  0  0  0  0  2  0  0  0  0  0  0
  187.0600  177.0980  142.5020 C   0  0  0  0  0  0  0  0  0  0  0  0
  188.7280  174.9840  144.7140 O   0  0  0  0  0  0  0  0  0  0  0  0
  187.4320  176.7180  143.8400 N   0  0  0  0  0  0  0  0  0  0  0  0
  185.8920  177.6250  142.2090 C   0  0  0  0  0  0  0  0  0  0  0  0
  183.7310  178.2910  142.9010 O   0  0  0  0  0  0  0  0  0  0  0  0
  185.6150  180.1050  144.6600 O   0  0  0  0  0  0  0  0  0  0  0  0
  185.3730  179.0760  145.3470 C   0  0  0  0  0  0  0  0  0  0  0  0
  185.2350  179.1860  146.7580 N   0  0  0  0  0  1  0  0  0  0  0  0
  189.9610  176.7150  143.6890 C   0  0  0  0  0  0  0  0  0  0  0  0
  190.9600  175.9400  143.0250 N   0  0  0  0  0  2  0  0  0  0  0  0
  190.1730  177.9330  143.9390 O   0  0  0  0  0  0  0  0  0  0  0  0
  192.1720  176.5140  142.6290 N   0  0  0  0  0  0  0  0  0  0  0  0
  193.1720  175.7590  142.3150 C   0  0  0  0  0  3  0  0  0  0  0  0
  194.4710  176.3600  141.8940 C   0  0  0  0  0  2  0  0  0  0  0  0
  195.5820  175.8940  142.7750 C   0  0  0  0  0  0  0  0  0  0  0  0
  195.5230  174.7950  143.3020 O   0  0  0  0  0  0  0  0  0  0  0  0
  196.7450  176.7910  143.0460 C   0  0  0  0  0  2  0  0  0  0  0  0
  197.9130  176.0350  143.1460 O   0  0  0  0  0  1  0  0  0  0  0  0
  1  6  2  0  0  0  0
  2  4  1  0  0  0  0
  3  5  2  0  0  0  0
  3  8  1  0  0  0  0
  4  1  1  0  0  0  0
  4 15  1  6  0  0  0
  5 12  1  0  0  0  0
  7 10  2  0  0  0  0
  8  9  1  0  0  0  0
  9 11  1  0  0  0  0
 11  7  1  0  0  0  0
 11  1  1  0  0  0  0
 12  9  2  0  0  0  0
 12  2  1  0  0  0  0
 13  2  2  0  0  0  0
 14 15  2  0  0  0  0
 15 16  1  0  0  0  0
 17 19  2  0  0  0  0
 17  7  1  0  0  0  0
 18 17  1  0  0  0  0
 20 18  1  0  0  0  0
 21 20  2  0  0  0  0
 22 21  1  0  0  0  0
 22 23  1  0  0  0  0
 23 25  1  0  0  0  0
 23 24  2  0  0  0  0
 25 26  1  0  0  0  0
M  END
>  <MODEL>
4

>  <REMARK>
 VINA RESULT:      -6.4      2.372      2.686
  Name = 
  6 active torsions:
  status: ('A' for Active; 'I' for Inactive)
    1  A    between atoms: C_4  and  C_5
    2  A    between atoms: C_5  and  C_22
    3  A    between atoms: C_6  and  C_17
    4  A    between atoms: C_8  and  C_14
    5  A    between atoms: N_9  and  N_11
    6  A    between atoms: C_19  and  C_22
                            x       y       z     vdW  Elec       q    Type
                         _______ _______ _______ _____ _____    ______ ____

>  <TORSDO>
F 6

$$$$
=
 OpenBabel11042417203D

 26 27  0  0  1  0  0  0  0  0999 V2000
  191.8210  174.1450  142.8530 C   0  0  0  0  0  0  0  0  0  0  0  0
  192.8250  174.5720  145.1180 C   0  0  0  0  0  0  0  0  0  0  0  0
  189.5680  175.3740  146.7840 C   0  0  0  0  0  3  0  0  0  0  0  0
  193.0880  174.3740  143.6480 C   0  0  2  0  0  3  0  0  0  0  0  0
  191.0490  175.2180  146.9680 C   0  0  0  0  0  2  0  0  0  0  0  0
  191.9110  173.6380  141.7020 O   0  0  0  0  0  0  0  0  0  0  0  0
  189.3620  174.4950  142.5460 C   0  0  0  0  0  0  0  0  0  0  0  0
  189.2240  175.1900  145.5120 C   0  0  0  0  0  3  0  0  0  0  0  0
  190.4400  174.9110  144.7660 C   0  0  0  0  0  0  0  0  0  0  0  0
  189.0970  173.4420  141.9050 O   0  0  0  0  0  0  0  0  0  0  0  0
  190.5350  174.5440  143.3770 N   0  0  0  0  0  0  0  0  0  0  0  0
  191.4750  174.9130  145.5760 C   0  0  0  0  0  0  0  0  0  0  0  0
  193.7680  174.4680  145.9460 O   0  0  0  0  0  0  0  0  0  0  0  0
  193.2500  176.5520  142.6580 O   0  0  0  0  0  0  0  0  0  0  0  0
  193.8540  175.5330  143.0910 C   0  0  0  0  0  0  0  0  0  0  0  0
  195.2740  175.4840  143.0490 N   0  0  0  0  0  1  0  0  0  0  0  0
  188.4790  175.6630  142.4080 C   0  0  0  0  0  0  0  0  0  0  0  0
  187.0640  175.5010  142.5050 N   0  0  0  0  0  2  0  0  0  0  0  0
  188.9670  176.8040  142.1850 O   0  0  0  0  0  0  0  0  0  0  0  0
  186.2010  176.5940  142.3720 N   0  0  0  0  0  0  0  0  0  0  0  0
  185.5240  177.0110  143.3890 C   0  0  0  0  0  3  0  0  0  0  0  0
  184.5990  178.1740  143.2580 C   0  0  0  0  0  2  0  0  0  0  0  0
  184.8050  179.1440  144.3740 C   0  0  0  0  0  0  0  0  0  0  0  0
  185.5080  180.1270  144.2060 O   0  0  0  0  0  0  0  0  0  0  0  0
  184.1860  178.8880  145.7080 C   0  0  0  0  0  2  0  0  0  0  0  0
  185.1550  178.9880  146.7080 O   0  0  0  0  0  1  0  0  0  0  0  0
  1 11  1  0  0  0  0
  1  4  1  0  0  0  0
  2 12  1  0  0  0  0
  2 13  2  0  0  0  0
  3  5  1  0  0  0  0
  4 15  1  6  0  0  0
  4  2  1  0  0  0  0
  6  1  2  0  0  0  0
  7 11  1  0  0  0  0
  8  3  2  0  0  0  0
  9  8  1  0  0  0  0
  9 12  2  0  0  0  0
 10  7  2  0  0  0  0
 11  9  1  0  0  0  0
 12  5  1  0  0  0  0
 14 15  2  0  0  0  0
 16 15  1  0  0  0  0
 17 18  1  0  0  0  0
 17  7  1  0  0  0  0
 19 17  2  0  0  0  0
 20 18  1  0  0  0  0
 20 21  2  0  0  0  0
 22 21  1  0  0  0  0
 22 23  1  0  0  0  0
 23 25  1  0  0  0  0
 24 23  2  0  0  0  0
 25 26  1  0  0  0  0
M  END
>  <MODEL>
5

>  <REMARK>
 VINA RESULT:      -6.4      2.952      7.884
  Name = 
  6 active torsions:
  status: ('A' for Active; 'I' for Inactive)
    1  A    between atoms: C_4  and  C_5
    2  A    between atoms: C_5  and  C_22
    3  A    between atoms: C_6  and  C_17
    4  A    between atoms: C_8  and  C_14
    5  A    between atoms: N_9  and  N_11
    6  A    between atoms: C_19  and  C_22
                            x       y       z     vdW  Elec       q    Type
                         _______ _______ _______ _____ _____    ______ ____

>  <TORSDO>
F 6

$$$$
=
 OpenBabel11042417203D

 26 27  0  0  1  0  0  0  0  0999 V2000
  188.1680  178.1900  142.7600 C   0  0  0  0  0  0  0  0  0  0  0  0
  185.7510  178.1090  143.4460 C   0  0  0  0  0  0  0  0  0  0  0  0
  186.4180  176.7510  146.8710 C   0  0  0  0  0  3  0  0  0  0  0  0
  186.7270  178.2730  142.3090 C   0  0  2  0  0  3  0  0  0  0  0  0
  185.3690  177.2190  145.9060 C   0  0  0  0  0  3  0  0  0  0  0  0
  189.0680  178.6370  141.9980 O   0  0  0  0  0  0  0  0  0  0  0  0
  189.8960  177.3240  144.3510 C   0  0  0  0  0  0  0  0  0  0  0  0
  187.6260  176.7860  146.3160 C   0  0  0  0  0  2  0  0  0  0  0  0
  187.4670  177.2670  144.9530 C   0  0  0  0  0  0  0  0  0  0  0  0
  190.7330  178.2610  144.2530 O   0  0  0  0  0  0  0  0  0  0  0  0
  188.5180  177.5650  144.0150 N   0  0  0  0  0  0  0  0  0  0  0  0
  186.2010  177.5250  144.7120 C   0  0  0  0  0  0  0  0  0  0  0  0
  184.5490  178.4540  143.2970 O   0  0  0  0  0  0  0  0  0  0  0  0
  186.9350  176.1030  141.3100 O   0  0  0  0  0  0  0  0  0  0  0  0
  186.4550  177.2660  141.2350 C   0  0  0  0  0  0  0  0  0  0  0  0
  185.6470  177.6270  140.1210 N   0  0  0  0  0  1  0  0  0  0  0  0
  190.3510  175.9920  144.7800 C   0  0  0  0  0  0  0  0  0  0  0  0
  190.1320  174.8600  143.9380 N   0  0  0  0  0  2  0  0  0  0  0  0
  190.9150  175.8450  145.8980 O   0  0  0  0  0  0  0  0  0  0  0  0
  190.5500  173.5820  144.3250 N   0  0  0  0  0  0  0  0  0  0  0  0
  191.6310  173.0780  143.8310 C   0  0  0  0  0  3  0  0  0  0  0  0
  192.0840  171.7150  144.2340 C   0  0  0  0  0  2  0  0  0  0  0  0
  193.4050  171.7790  144.9280 C   0  0  0  0  0  0  0  0  0  0  0  0
  194.0320  170.7550  145.1400 O   0  0  0  0  0  0  0  0  0  0  0  0
  193.9360  173.0920  145.4000 C   0  0  0  0  0  2  0  0  0  0  0  0
  195.3140  173.0010  145.6020 O   0  0  0  0  0  1  0  0  0  0  0  0
  1 11  1  0  0  0  0
  2 12  1  0  0  0  0
  4 15  1  6  0  0  0
  4  1  1  0  0  0  0
  4  2  1  0  0  0  0
  5  3  2  0  0  0  0
  6  1  2  0  0  0  0
  7 17  1  0  0  0  0
  8  3  1  0  0  0  0
  9  8  1  0  0  0  0
 10  7  2  0  0  0  0
 11  7  1  0  0  0  0
 11  9  1  0  0  0  0
 12  9  2  0  0  0  0
 12  5  1  0  0  0  0
 13  2  2  0  0  0  0
 15 14  2  0  0  0  0
 16 15  1  0  0  0  0
 17 19  2  0  0  0  0
 18 20  1  0  0  0  0
 18 17  1  0  0  0  0
 21 22  1  0  0  0  0
 21 20  2  0  0  0  0
 22 23  1  0  0  0  0
 23 24  2  0  0  0  0
 23 25  1  0  0  0  0
 25 26  1  0  0  0  0
M  END
>  <MODEL>
6

>  <REMARK>
 VINA RESULT:      -6.4      2.949      4.176
  Name = 
  6 active torsions:
  status: ('A' for Active; 'I' for Inactive)
    1  A    between atoms: C_4  and  C_5
    2  A    between atoms: C_5  and  C_22
    3  A    between atoms: C_6  and  C_17
    4  A    between atoms: C_8  and  C_14
    5  A    between atoms: N_9  and  N_11
    6  A    between atoms: C_19  and  C_22
                            x       y       z     vdW  Elec       q    Type
                         _______ _______ _______ _____ _____    ______ ____

>  <TORSDO>
F 6

$$$$
=
 OpenBabel11042417203D

 26 27  0  0  1  0  0  0  0  0999 V2000
  189.9640  174.0880  144.9220 C   0  0  0  0  0  0  0  0  0  0  0  0
  191.6380  174.9270  143.2440 C   0  0  0  0  0  0  0  0  0  0  0  0
  190.9720  178.5550  143.8900 C   0  0  0  0  0  3  0  0  0  0  0  0
  190.8680  173.7390  143.7600 C   0  0  2  0  0  3  0  0  0  0  0  0
  191.7840  177.5640  143.1100 C   0  0  0  0  0  3  0  0  0  0  0  0
  189.5320  173.1570  145.6550 O   0  0  0  0  0  0  0  0  0  0  0  0
  188.5580  175.7550  146.1500 C   0  0  0  0  0  0  0  0  0  0  0  0
  190.0860  177.9390  144.6670 C   0  0  0  0  0  2  0  0  0  0  0  0
  190.2380  176.5090  144.4550 C   0  0  0  0  0  0  0  0  0  0  0  0
  188.6670  175.2790  147.3120 O   0  0  0  0  0  0  0  0  0  0  0  0
  189.5590  175.4540  145.1620 N   0  0  0  0  0  0  0  0  0  0  0  0
  191.1990  176.2830  143.5870 C   0  0  0  0  0  0  0  0  0  0  0  0
  192.6400  174.7530  142.5020 O   0  0  0  0  0  0  0  0  0  0  0  0
  190.5600  172.1420  141.9980 O   0  0  0  0  0  0  0  0  0  0  0  0
  190.0810  173.1040  142.6570 C   0  0  0  0  0  0  0  0  0  0  0  0
  188.7800  173.5910  142.3500 N   0  0  0  0  0  1  0  0  0  0  0  0
  187.3910  176.5880  145.8190 C   0  0  0  0  0  0  0  0  0  0  0  0
  186.6810  176.3650  144.6010 N   0  0  0  0  0  2  0  0  0  0  0  0
  187.0290  177.5110  146.5990 O   0  0  0  0  0  0  0  0  0  0  0  0
  185.5720  177.1460  144.2590 N   0  0  0  0  0  0  0  0  0  0  0  0
  185.3460  177.4430  143.0230 C   0  0  0  0  0  3  0  0  0  0  0  0
  184.1680  178.2770  142.6480 C   0  0  0  0  0  2  0  0  0  0  0  0
  184.0630  178.4100  141.1640 C   0  0  0  0  0  0  0  0  0  0  0  0
  185.0740  178.4820  140.4850 O   0  0  0  0  0  0  0  0  0  0  0  0
  182.7200  178.4980  140.5170 C   0  0  0  0  0  2  0  0  0  0  0  0
  181.7220  178.2460  141.4600 O   0  0  0  0  0  1  0  0  0  0  0  0
  1 11  1  0  0  0  0
  1  6  2  0  0  0  0
  2 12  1  0  0  0  0
  2  4  1  0  0  0  0
  3  8  1  0  0  0  0
  4 15  1  6  0  0  0
  4  1  1  0  0  0  0
  5 12  1  0  0  0  0
  5  3  2  0  0  0  0
  7 10  2  0  0  0  0
  9  8  1  0  0  0  0
  9 11  1  0  0  0  0
 11  7  1  0  0  0  0
 12  9  2  0  0  0  0
 13  2  2  0  0  0  0
 14 15  2  0  0  0  0
 16 15  1  0  0  0  0
 17  7  1  0  0  0  0
 17 19  2  0  0  0  0
 18 17  1  0  0  0  0
 20 18  1  0  0  0  0
 21 20  2  0  0  0  0
 22 21  1  0  0  0  0
 23 22  1  0  0  0  0
 24 23  2  0  0  0  0
 25 23  1  0  0  0  0
 25 26  1  0  0  0  0
M  END
>  <MODEL>
7

>  <REMARK>
 VINA RESULT:      -6.3      3.040      7.536
  Name = 
  6 active torsions:
  status: ('A' for Active; 'I' for Inactive)
    1  A    between atoms: C_4  and  C_5
    2  A    between atoms: C_5  and  C_22
    3  A    between atoms: C_6  and  C_17
    4  A    between atoms: C_8  and  C_14
    5  A    between atoms: N_9  and  N_11
    6  A    between atoms: C_19  and  C_22
                            x       y       z     vdW  Elec       q    Type
                         _______ _______ _______ _____ _____    ______ ____

>  <TORSDO>
F 6

$$$$
=
 OpenBabel11042417203D

 26 27  0  0  1  0  0  0  0  0999 V2000
  191.5960  173.6680  144.1390 C   0  0  0  0  0  0  0  0  0  0  0  0
  193.9100  174.6450  144.2600 C   0  0  0  0  0  0  0  0  0  0  0  0
  193.2360  176.7300  147.2970 C   0  0  0  0  0  3  0  0  0  0  0  0
  192.9180  173.8700  143.4320 C   0  0  2  0  0  3  0  0  0  0  0  0
  194.2600  176.3120  146.2820 C   0  0  0  0  0  3  0  0  0  0  0  0
  190.8150  172.7720  143.7200 O   0  0  0  0  0  0  0  0  0  0  0  0
  189.8800  174.4430  145.7880 C   0  0  0  0  0  0  0  0  0  0  0  0
  192.0540  176.1820  147.0340 C   0  0  0  0  0  2  0  0  0  0  0  0
  192.2020  175.3760  145.8330 C   0  0  0  0  0  0  0  0  0  0  0  0
  189.3990  173.3220  146.1050 O   0  0  0  0  0  0  0  0  0  0  0  0
  191.2080  174.5180  145.2410 N   0  0  0  0  0  0  0  0  0  0  0  0
  193.4430  175.4320  145.4040 C   0  0  0  0  0  0  0  0  0  0  0  0
  195.1310  174.6320  143.9540 O   0  0  0  0  0  0  0  0  0  0  0  0
  192.0760  175.6220  142.0290 O   0  0  0  0  0  0  0  0  0  0  0  0
  192.7080  174.5350  142.1070 C   0  0  0  0  0  0  0  0  0  0  0  0
  193.2260  173.9330  140.9270 N   0  0  0  0  0  1  0  0  0  0  0  0
  189.0590  175.6530  145.9550 C   0  0  0  0  0  0  0  0  0  0  0  0
  188.8990  176.5610  144.8650 N   0  0  0  0  0  2  0  0  0  0  0  0
  188.5120  175.8990  147.0640 O   0  0  0  0  0  0  0  0  0  0  0  0
  188.1290  177.7210  144.9990 N   0  0  0  0  0  0  0  0  0  0  0  0
  186.8830  177.7120  144.6620 C   0  0  0  0  0  3  0  0  0  0  0  0
  186.0530  178.9440  144.7980 C   0  0  0  0  0  2  0  0  0  0  0  0
  185.1850  178.8670  146.0120 C   0  0  0  0  0  0  0  0  0  0  0  0
  183.9840  178.6950  145.8920 O   0  0  0  0  0  0  0  0  0  0  0  0
  185.7840  179.0440  147.3680 C   0  0  0  0  0  2  0  0  0  0  0  0
  185.8620  177.8110  148.0160 O   0  0  0  0  0  1  0  0  0  0  0  0
  1 11  1  0  0  0  0
  2 12  1  0  0  0  0
  4 15  1  6  0  0  0
  4  1  1  0  0  0  0
  4  2  1  0  0  0  0
  5  3  2  0  0  0  0
  6  1  2  0  0  0  0
  7 17  1  0  0  0  0
  7 10  2  0  0  0  0
  8  3  1  0  0  0  0
  9  8  1  0  0  0  0
 11  7  1  0  0  0  0
 11  9  1  0  0  0  0
 12  9  2  0  0  0  0
 12  5  1  0  0  0  0
 13  2  2  0  0  0  0
 14 15  2  0  0  0  0
 16 15  1  0  0  0  0
 17 19  2  0  0  0  0
 18 20  1  0  0  0  0
 18 17  1  0  0  0  0
 21 22  1  0  0  0  0
 21 20  2  0  0  0  0
 22 23  1  0  0  0  0
 23 25  1  0  0  0  0
 24 23  2  0  0  0  0
 25 26  1  0  0  0  0
M  END
>  <MODEL>
8

>  <REMARK>
 VINA RESULT:      -6.3      2.588      7.578
  Name = 
  6 active torsions:
  status: ('A' for Active; 'I' for Inactive)
    1  A    between atoms: C_4  and  C_5
    2  A    between atoms: C_5  and  C_22
    3  A    between atoms: C_6  and  C_17
    4  A    between atoms: C_8  and  C_14
    5  A    between atoms: N_9  and  N_11
    6  A    between atoms: C_19  and  C_22
                            x       y       z     vdW  Elec       q    Type
                         _______ _______ _______ _____ _____    ______ ____

>  <TORSDO>
F 6

$$$$
=
 OpenBabel11042417203D

 26 27  0  0  1  0  0  0  0  0999 V2000
  191.8200  173.4600  144.0650 C   0  0  0  0  0  0  0  0  0  0  0  0
  194.1910  174.2960  144.0810 C   0  0  0  0  0  0  0  0  0  0  0  0
  193.6730  176.7220  146.8870 C   0  0  0  0  0  3  0  0  0  0  0  0
  193.1460  173.5030  143.3390 C   0  0  2  0  0  3  0  0  0  0  0  0
  194.6600  176.1380  145.9190 C   0  0  0  0  0  3  0  0  0  0  0  0
  190.9810  172.5750  143.7420 O   0  0  0  0  0  0  0  0  0  0  0  0
  190.1690  174.5060  145.6270 C   0  0  0  0  0  0  0  0  0  0  0  0
  192.4560  176.2240  146.6840 C   0  0  0  0  0  2  0  0  0  0  0  0
  192.5440  175.2910  145.5730 C   0  0  0  0  0  0  0  0  0  0  0  0
  189.6220  173.4560  146.0600 O   0  0  0  0  0  0  0  0  0  0  0  0
  191.4950  174.4410  145.0740 N   0  0  0  0  0  0  0  0  0  0  0  0
  193.7840  175.2250  145.1390 C   0  0  0  0  0  0  0  0  0  0  0  0
  195.4070  174.1750  143.7760 O   0  0  0  0  0  0  0  0  0  0  0  0
  192.6650  175.2500  141.7680 O   0  0  0  0  0  0  0  0  0  0  0  0
  192.9670  174.0400  141.9530 C   0  0  0  0  0  0  0  0  0  0  0  0
  193.1400  173.1770  140.8360 N   0  0  0  0  0  1  0  0  0  0  0  0
  189.4260  175.7760  145.6700 C   0  0  0  0  0  0  0  0  0  0  0  0
  188.6490  176.1070  146.8220 N   0  0  0  0  0  2  0  0  0  0  0  0
  189.4570  176.5620  144.6850 O   0  0  0  0  0  0  0  0  0  0  0  0
  187.9290  177.3040  146.8860 N   0  0  0  0  0  0  0  0  0  0  0  0
  186.6640  177.2850  147.1460 C   0  0  0  0  0  3  0  0  0  0  0  0
  185.8860  178.5560  147.2150 C   0  0  0  0  0  2  0  0  0  0  0  0
  185.1110  178.7710  145.9560 C   0  0  0  0  0  0  0  0  0  0  0  0
  183.8940  178.6790  145.9660 O   0  0  0  0  0  0  0  0  0  0  0  0
  185.8280  179.0560  144.6780 C   0  0  0  0  0  2  0  0  0  0  0  0
  185.2540  180.1620  144.0490 O   0  0  0  0  0  1  0  0  0  0  0  0
  1 11  1  0  0  0  0
  2 12  1  0  0  0  0
  4 15  1  6  0  0  0
  4  1  1  0  0  0  0
  4  2  1  0  0  0  0
  5  3  2  0  0  0  0
  6  1  2  0  0  0  0
  7 17  1  0  0  0  0
  7 10  2  0  0  0  0
  8  3  1  0  0  0  0
  9  8  1  0  0  0  0
 11  9  1  0  0  0  0
 11  7  1  0  0  0  0
 12  9  2  0  0  0  0
 12  5  1  0  0  0  0
 13  2  2  0  0  0  0
 14 15  2  0  0  0  0
 16 15  1  0  0  0  0
 17 18  1  0  0  0  0
 18 20  1  0  0  0  0
 19 17  2  0  0  0  0
 20 21  2  0  0  0  0
 21 22  1  0  0  0  0
 23 24  2  0  0  0  0
 23 22  1  0  0  0  0
 25 23  1  0  0  0  0
 26 25  1  0  0  0  0
M  END
>  <MODEL>
9

>  <REMARK>
 VINA RESULT:      -6.3      2.698      7.722
  Name = 
  6 active torsions:
  status: ('A' for Active; 'I' for Inactive)
    1  A    between atoms: C_4  and  C_5
    2  A    between atoms: C_5  and  C_22
    3  A    between atoms: C_6  and  C_17
    4  A    between atoms: C_8  and  C_14
    5  A    between atoms: N_9  and  N_11
    6  A    between atoms: C_19  and  C_22
                            x       y       z     vdW  Elec       q    Type
                         _______ _______ _______ _____ _____    ______ ____

>  <TORSDO>
F 6

$$$$
