=
 OpenBabel11042418523D

 26 29  0  0  1  0  0  0  0  0999 V2000
  185.8840  177.9880  147.4440 C   0  0  0  0  0  3  0  0  0  0  0  0
  184.8080  178.0130  140.3710 N   0  0  0  0  0  0  0  0  0  0  0  0
  186.8440  177.7280  146.4500 C   0  0  0  0  0  0  0  0  0  0  0  0
  187.2090  177.5500  144.0300 N   0  0  0  0  0  0  0  0  0  0  0  0
  186.8380  177.5570  141.6690 C   0  0  0  0  0  2  0  0  0  0  0  0
  183.8300  178.2880  141.2710 C   0  0  0  0  0  3  0  0  0  0  0  0
  184.1690  178.3590  145.7410 C   0  0  0  0  0  3  0  0  0  0  0  0
  185.1390  178.0900  144.7760 C   0  0  0  0  0  0  0  0  0  0  0  0
  186.1270  177.6900  140.4700 C   0  0  0  0  0  0  0  0  0  0  0  0
  186.4370  177.7800  145.1130 C   0  0  2  0  0  3  0  0  0  0  0  0
  186.3910  177.7150  142.9640 C   0  0  0  0  0  0  0  0  0  0  0  0
  183.9200  178.3150  142.6550 C   0  0  0  0  0  3  0  0  0  0  0  0
  184.5560  178.3050  147.0910 C   0  0  0  0  0  3  0  0  0  0  0  0
  185.0490  178.0640  143.4040 C   0  0  0  0  0  0  0  0  0  0  0  0
  186.8060  177.4790  139.2640 O   0  0  0  0  0  0  0  0  0  0  0  0
  186.3960  176.5260  138.2910 C   0  0  0  0  0  1  0  0  0  0  0  0
  188.2400  177.3680  146.8290 C   0  0  0  0  0  2  0  0  0  0  0  0
  188.3770  175.9330  146.8810 N   0  0  0  0  0  0  0  0  0  0  0  0
  189.4970  175.3470  147.1280 C   0  0  0  0  0  3  0  0  0  0  0  0
  191.7500  176.7910  144.8230 C   0  0  0  0  0  0  0  0  0  0  0  0
  192.7170  176.3970  144.1200 O   0  0  0  0  0  0  0  0  0  0  0  0
  191.8530  175.2640  147.2050 C   0  0  0  0  0  2  0  0  0  0  0  0
  190.7680  176.0970  147.3860 C   0  0  1  0  0  3  0  0  0  0  0  0
  191.5260  176.2210  146.1080 N   0  0  0  0  0  0  0  0  0  0  0  0
  190.8590  177.8740  144.3230 C   0  0  0  0  0  2  0  0  0  0  0  0
  190.5600  177.6570  142.8540 C   0  0  0  0  0  1  0  0  0  0  0  0
  2  9  2  0  0  0  0
  2  6  1  0  0  0  0
  3 17  1  0  0  0  0
  3  1  2  0  0  0  0
  5 11  1  0  0  0  0
  6 12  2  0  0  0  0
  7 13  2  0  0  0  0
  8 10  1  0  0  0  0
  8  7  1  0  0  0  0
  9  5  1  0  0  0  0
 10  4  1  6  0  0  0
 10  3  1  0  0  0  0
 11 14  1  0  0  0  0
 11  4  2  0  0  0  0
 12 14  1  0  0  0  0
 13  1  1  0  0  0  0
 14  8  2  0  0  0  0
 15  9  1  0  0  0  0
 16 15  1  0  0  0  0
 17 18  1  0  0  0  0
 18 19  2  0  0  0  0
 20 24  1  0  0  0  0
 21 20  2  0  0  0  0
 22 23  1  0  0  0  0
 23 19  1  6  0  0  0
 24 22  1  0  0  0  0
 24 23  1  0  0  0  0
 25 20  1  0  0  0  0
 26 25  1  0  0  0  0
M  END
>  <MODEL>
1

>  <REMARK>
 VINA RESULT:      -7.9      0.000      0.000
  Name = 
  5 active torsions:
  status: ('A' for Active; 'I' for Inactive)
    1  A    between atoms: C_2  and  C_6
    2  A    between atoms: C_4  and  C_23
    3  A    between atoms: N_11  and  C_23
    4  A    between atoms: C_12  and  C_20
    5  A    between atoms: C_16  and  O_19
                            x       y       z     vdW  Elec       q    Type
                         _______ _______ _______ _____ _____    ______ ____

>  <TORSDO>
F 5

$$$$
=
 OpenBabel11042418523D

 26 29  0  0  1  0  0  0  0  0999 V2000
  185.9550  177.1740  147.2000 C   0  0  0  0  0  3  0  0  0  0  0  0
  185.1620  177.8950  140.1270 N   0  0  0  0  0  0  0  0  0  0  0  0
  186.8550  176.7450  146.2090 C   0  0  0  0  0  0  0  0  0  0  0  0
  187.2480  176.6300  143.7900 N   0  0  0  0  0  0  0  0  0  0  0  0
  186.9720  176.8730  141.4280 C   0  0  0  0  0  2  0  0  0  0  0  0
  184.2500  178.3470  141.0260 C   0  0  0  0  0  3  0  0  0  0  0  0
  184.4430  178.0600  145.4950 C   0  0  0  0  0  3  0  0  0  0  0  0
  185.3500  177.6180  144.5320 C   0  0  0  0  0  0  0  0  0  0  0  0
  186.3570  177.2510  140.2280 C   0  0  0  0  0  0  0  0  0  0  0  0
  186.5200  176.9780  144.8720 C   0  0  1  0  0  3  0  0  0  0  0  0
  186.5330  177.0570  142.7230 C   0  0  0  0  0  0  0  0  0  0  0  0
  184.2970  178.2670  142.4100 C   0  0  0  0  0  3  0  0  0  0  0  0
  184.7580  177.8300  146.8450 C   0  0  0  0  0  3  0  0  0  0  0  0
  185.3030  177.6990  143.1610 C   0  0  0  0  0  0  0  0  0  0  0  0
  187.0050  176.9510  139.0230 O   0  0  0  0  0  0  0  0  0  0  0  0
  186.3490  176.3640  137.9060 C   0  0  0  0  0  1  0  0  0  0  0  0
  188.1060  176.0300  146.5880 C   0  0  0  0  0  2  0  0  0  0  0  0
  189.0760  176.9740  147.0890 N   0  0  0  0  0  0  0  0  0  0  0  0
  190.1850  177.2240  146.4850 C   0  0  0  0  0  3  0  0  0  0  0  0
  193.4030  176.3740  145.3010 C   0  0  0  0  0  0  0  0  0  0  0  0
  194.3410  176.9590  144.7000 O   0  0  0  0  0  0  0  0  0  0  0  0
  191.0110  177.5040  144.2930 C   0  0  0  0  0  2  0  0  0  0  0  0
  190.5800  176.5590  145.2010 C   0  0  1  0  0  3  0  0  0  0  0  0
  192.0510  176.7090  145.0090 N   0  0  0  0  0  0  0  0  0  0  0  0
  193.7070  175.3090  146.2960 C   0  0  0  0  0  2  0  0  0  0  0  0
  193.3360  173.9540  145.7290 C   0  0  0  0  0  1  0  0  0  0  0  0
  2  9  2  0  0  0  0
  2  6  1  0  0  0  0
  3 17  1  0  0  0  0
  3  1  2  0  0  0  0
  5 11  1  0  0  0  0
  6 12  2  0  0  0  0
  7 13  2  0  0  0  0
  8 10  1  0  0  0  0
  8  7  1  0  0  0  0
  9  5  1  0  0  0  0
 10  4  1  6  0  0  0
 10  3  1  0  0  0  0
 11 14  1  0  0  0  0
 11  4  2  0  0  0  0
 12 14  1  0  0  0  0
 13  1  1  0  0  0  0
 14  8  2  0  0  0  0
 15  9  1  0  0  0  0
 16 15  1  0  0  0  0
 17 18  1  0  0  0  0
 19 18  2  0  0  0  0
 20 25  1  0  0  0  0
 21 20  2  0  0  0  0
 22 24  1  0  0  0  0
 22 23  1  0  0  0  0
 23 19  1  1  0  0  0
 24 23  1  0  0  0  0
 24 20  1  0  0  0  0
 26 25  1  0  0  0  0
M  END
>  <MODEL>
2

>  <REMARK>
 VINA RESULT:      -7.3      1.130      1.867
  Name = 
  5 active torsions:
  status: ('A' for Active; 'I' for Inactive)
    1  A    between atoms: C_2  and  C_6
    2  A    between atoms: C_4  and  C_23
    3  A    between atoms: N_11  and  C_23
    4  A    between atoms: C_12  and  C_20
    5  A    between atoms: C_16  and  O_19
                            x       y       z     vdW  Elec       q    Type
                         _______ _______ _______ _____ _____    ______ ____

>  <TORSDO>
F 5

$$$$
=
 OpenBabel11042418523D

 26 29  0  0  1  0  0  0  0  0999 V2000
  186.1070  177.8270  147.3170 C   0  0  0  0  0  3  0  0  0  0  0  0
  184.8590  178.0030  140.2750 N   0  0  0  0  0  0  0  0  0  0  0  0
  187.0310  177.5460  146.2960 C   0  0  0  0  0  0  0  0  0  0  0  0
  187.3300  177.3930  143.8650 N   0  0  0  0  0  0  0  0  0  0  0  0
  186.9020  177.4510  141.5140 C   0  0  0  0  0  2  0  0  0  0  0  0
  183.9140  178.3000  141.2040 C   0  0  0  0  0  3  0  0  0  0  0  0
  184.3660  178.2880  145.6640 C   0  0  0  0  0  3  0  0  0  0  0  0
  185.3010  177.9980  144.6710 C   0  0  0  0  0  0  0  0  0  0  0  0
  186.1670  177.6300  140.3360 C   0  0  0  0  0  0  0  0  0  0  0  0
  186.5950  177.6350  144.9710 C   0  0  1  0  0  3  0  0  0  0  0  0
  186.4930  177.6050  142.8230 C   0  0  0  0  0  0  0  0  0  0  0  0
  184.0390  178.3020  142.5850 C   0  0  0  0  0  3  0  0  0  0  0  0
  184.7840  178.1980  147.0020 C   0  0  0  0  0  3  0  0  0  0  0  0
  185.1760  177.9970  143.3020 C   0  0  0  0  0  0  0  0  0  0  0  0
  186.8080  177.4120  139.1100 O   0  0  0  0  0  0  0  0  0  0  0  0
  186.4510  176.3670  138.2140 C   0  0  0  0  0  1  0  0  0  0  0  0
  188.4220  177.1290  146.6340 C   0  0  0  0  0  2  0  0  0  0  0  0
  188.4220  175.7650  147.1040 N   0  0  0  0  0  0  0  0  0  0  0  0
  189.1260  174.8370  146.5560 C   0  0  0  0  0  3  0  0  0  0  0  0
  190.6300  172.5080  144.3660 C   0  0  0  0  0  0  0  0  0  0  0  0
  191.6660  171.7940  144.3620 O   0  0  0  0  0  0  0  0  0  0  0  0
  191.3350  174.8860  145.7300 C   0  0  0  0  0  2  0  0  0  0  0  0
  190.0170  175.0820  145.3750 C   0  0  1  0  0  3  0  0  0  0  0  0
  190.6560  173.7950  144.9750 N   0  0  0  0  0  0  0  0  0  0  0  0
  189.3870  172.0210  143.7080 C   0  0  0  0  0  2  0  0  0  0  0  0
  189.0610  172.8930  142.5130 C   0  0  0  0  0  1  0  0  0  0  0  0
  2  9  2  0  0  0  0
  2  6  1  0  0  0  0
  3 17  1  0  0  0  0
  3  1  2  0  0  0  0
  5 11  1  0  0  0  0
  6 12  2  0  0  0  0
  7 13  2  0  0  0  0
  8 10  1  0  0  0  0
  8  7  1  0  0  0  0
  9  5  1  0  0  0  0
 10  4  1  1  0  0  0
 10  3  1  0  0  0  0
 11 14  1  0  0  0  0
 11  4  2  0  0  0  0
 12 14  1  0  0  0  0
 13  1  1  0  0  0  0
 14  8  2  0  0  0  0
 15  9  1  0  0  0  0
 16 15  1  0  0  0  0
 17 18  1  0  0  0  0
 19 18  2  0  0  0  0
 20 24  1  0  0  0  0
 21 20  2  0  0  0  0
 23 22  1  0  0  0  0
 23 19  1  1  0  0  0
 24 23  1  0  0  0  0
 24 22  1  0  0  0  0
 25 20  1  0  0  0  0
 26 25  1  0  0  0  0
M  END
>  <MODEL>
3

>  <REMARK>
 VINA RESULT:      -7.3      1.988      2.165
  Name = 
  5 active torsions:
  status: ('A' for Active; 'I' for Inactive)
    1  A    between atoms: C_2  and  C_6
    2  A    between atoms: C_4  and  C_23
    3  A    between atoms: N_11  and  C_23
    4  A    between atoms: C_12  and  C_20
    5  A    between atoms: C_16  and  O_19
                            x       y       z     vdW  Elec       q    Type
                         _______ _______ _______ _____ _____    ______ ____

>  <TORSDO>
F 5

$$$$
=
 OpenBabel11042418523D

 26 29  0  0  1  0  0  0  0  0999 V2000
  188.4210  177.5310  144.7900 C   0  0  0  0  0  3  0  0  0  0  0  0
  195.3100  175.7210  145.4540 N   0  0  0  0  0  0  0  0  0  0  0  0
  189.3560  177.4020  143.7490 C   0  0  0  0  0  0  0  0  0  0  0  0
  191.6950  176.8760  143.2260 N   0  0  0  0  0  0  0  0  0  0  0  0
  193.9970  176.2740  143.4590 C   0  0  0  0  0  2  0  0  0  0  0  0
  194.4620  175.8150  146.5110 C   0  0  0  0  0  3  0  0  0  0  0  0
  190.1160  176.9140  146.4390 C   0  0  0  0  0  3  0  0  0  0  0  0
  191.0260  176.8000  145.3880 C   0  0  0  0  0  0  0  0  0  0  0  0
  195.1790  175.9050  144.1120 C   0  0  0  0  0  0  0  0  0  0  0  0
  190.6640  177.0370  144.0820 C   0  0  1  0  0  3  0  0  0  0  0  0
  192.7510  176.5240  143.9960 C   0  0  0  0  0  0  0  0  0  0  0  0
  193.1170  176.1520  146.5040 C   0  0  0  0  0  3  0  0  0  0  0  0
  188.7980  177.2860  146.1260 C   0  0  0  0  0  3  0  0  0  0  0  0
  192.3590  176.4640  145.3960 C   0  0  0  0  0  0  0  0  0  0  0  0
  196.3310  175.7030  143.3430 O   0  0  0  0  0  0  0  0  0  0  0  0
  196.5920  176.3930  142.1270 C   0  0  0  0  0  1  0  0  0  0  0  0
  188.9590  177.6860  142.3410 C   0  0  0  0  0  2  0  0  0  0  0  0
  188.1360  176.6120  141.8390 N   0  0  0  0  0  0  0  0  0  0  0  0
  187.0050  176.8130  141.2560 C   0  0  0  0  0  3  0  0  0  0  0  0
  184.1300  178.2890  142.6820 C   0  0  0  0  0  0  0  0  0  0  0  0
  182.8930  178.2850  142.4560 O   0  0  0  0  0  0  0  0  0  0  0  0
  185.3810  178.1170  140.1490 C   0  0  0  0  0  2  0  0  0  0  0  0
  186.4330  178.1810  141.0390 C   0  0  1  0  0  3  0  0  0  0  0  0
  185.0520  178.2240  141.5990 N   0  0  0  0  0  0  0  0  0  0  0  0
  184.6310  178.3910  144.0810 C   0  0  0  0  0  2  0  0  0  0  0  0
  185.4470  179.6570  144.2430 C   0  0  0  0  0  1  0  0  0  0  0  0
  1 13  1  0  0  0  0
  2  6  1  0  0  0  0
  3 10  1  0  0  0  0
  3  1  2  0  0  0  0
  4 11  2  0  0  0  0
  5 11  1  0  0  0  0
  5  9  1  0  0  0  0
  8 14  2  0  0  0  0
  8  7  1  0  0  0  0
  9  2  2  0  0  0  0
 10  4  1  1  0  0  0
 10  8  1  0  0  0  0
 11 14  1  0  0  0  0
 12  6  2  0  0  0  0
 13  7  2  0  0  0  0
 14 12  1  0  0  0  0
 15  9  1  0  0  0  0
 16 15  1  0  0  0  0
 17  3  1  0  0  0  0
 18 17  1  0  0  0  0
 19 18  2  0  0  0  0
 20 25  1  0  0  0  0
 21 20  2  0  0  0  0
 22 23  1  0  0  0  0
 22 24  1  0  0  0  0
 23 19  1  1  0  0  0
 23 24  1  0  0  0  0
 24 20  1  0  0  0  0
 25 26  1  0  0  0  0
M  END
>  <MODEL>
4

>  <REMARK>
 VINA RESULT:      -7.2      2.449      7.843
  Name = 
  5 active torsions:
  status: ('A' for Active; 'I' for Inactive)
    1  A    between atoms: C_2  and  C_6
    2  A    between atoms: C_4  and  C_23
    3  A    between atoms: N_11  and  C_23
    4  A    between atoms: C_12  and  C_20
    5  A    between atoms: C_16  and  O_19
                            x       y       z     vdW  Elec       q    Type
                         _______ _______ _______ _____ _____    ______ ____

>  <TORSDO>
F 5

$$$$
=
 OpenBabel11042418523D

 26 29  0  0  1  0  0  0  0  0999 V2000
  188.4320  175.8830  146.1890 C   0  0  0  0  0  3  0  0  0  0  0  0
  195.4800  175.6590  144.9770 N   0  0  0  0  0  0  0  0  0  0  0  0
  189.0950  176.3110  145.0260 C   0  0  0  0  0  0  0  0  0  0  0  0
  191.2920  176.5500  143.9580 N   0  0  0  0  0  0  0  0  0  0  0  0
  193.6490  176.4740  143.5640 C   0  0  0  0  0  2  0  0  0  0  0  0
  194.9100  175.2140  146.1260 C   0  0  0  0  0  3  0  0  0  0  0  0
  190.5560  175.2080  147.1950 C   0  0  0  0  0  3  0  0  0  0  0  0
  191.1890  175.6470  146.0330 C   0  0  0  0  0  0  0  0  0  0  0  0
  194.9980  176.2140  143.8310 C   0  0  0  0  0  0  0  0  0  0  0  0
  190.4870  176.1850  144.9780 C   0  0  1  0  0  3  0  0  0  0  0  0
  192.5460  176.2390  144.3600 C   0  0  0  0  0  0  0  0  0  0  0  0
  193.5660  175.2040  146.4700 C   0  0  0  0  0  3  0  0  0  0  0  0
  189.1580  175.3320  147.2650 C   0  0  0  0  0  3  0  0  0  0  0  0
  192.5220  175.6550  145.6920 C   0  0  0  0  0  0  0  0  0  0  0  0
  195.9470  176.5440  142.8550 O   0  0  0  0  0  0  0  0  0  0  0  0
  197.2920  176.0830  142.8820 C   0  0  0  0  0  1  0  0  0  0  0  0
  188.3270  176.9160  143.9010 C   0  0  0  0  0  2  0  0  0  0  0  0
  187.3060  175.9980  143.4580 N   0  0  0  0  0  0  0  0  0  0  0  0
  186.1750  176.3880  142.9810 C   0  0  0  0  0  3  0  0  0  0  0  0
  184.8030  178.5950  145.3730 C   0  0  0  0  0  0  0  0  0  0  0  0
  183.6560  178.8670  145.8140 O   0  0  0  0  0  0  0  0  0  0  0  0
  184.4490  177.9580  142.6380 C   0  0  0  0  0  2  0  0  0  0  0  0
  185.8080  177.8340  142.8380 C   0  0  1  0  0  3  0  0  0  0  0  0
  184.9730  178.2400  144.0050 N   0  0  0  0  0  0  0  0  0  0  0  0
  185.9850  178.6740  146.2740 C   0  0  0  0  0  2  0  0  0  0  0  0
  185.6690  178.0080  147.5980 C   0  0  0  0  0  1  0  0  0  0  0  0
  1 13  1  0  0  0  0
  2  6  1  0  0  0  0
  3  1  2  0  0  0  0
  4 11  2  0  0  0  0
  5  9  1  0  0  0  0
  5 11  1  0  0  0  0
  6 12  2  0  0  0  0
  7 13  2  0  0  0  0
  8  7  1  0  0  0  0
  9  2  2  0  0  0  0
 10  4  1  1  0  0  0
 10  3  1  0  0  0  0
 10  8  1  0  0  0  0
 11 14  1  0  0  0  0
 14  8  2  0  0  0  0
 14 12  1  0  0  0  0
 15 16  1  0  0  0  0
 15  9  1  0  0  0  0
 17  3  1  0  0  0  0
 18 17  1  0  0  0  0
 19 18  2  0  0  0  0
 20 21  2  0  0  0  0
 20 25  1  0  0  0  0
 22 23  1  0  0  0  0
 22 24  1  0  0  0  0
 23 19  1  1  0  0  0
 23 24  1  0  0  0  0
 24 20  1  0  0  0  0
 25 26  1  0  0  0  0
M  END
>  <MODEL>
5

>  <REMARK>
 VINA RESULT:      -7.2      2.700      7.696
  Name = 
  5 active torsions:
  status: ('A' for Active; 'I' for Inactive)
    1  A    between atoms: C_2  and  C_6
    2  A    between atoms: C_4  and  C_23
    3  A    between atoms: N_11  and  C_23
    4  A    between atoms: C_12  and  C_20
    5  A    between atoms: C_16  and  O_19
                            x       y       z     vdW  Elec       q    Type
                         _______ _______ _______ _____ _____    ______ ____

>  <TORSDO>
F 5

$$$$
=
 OpenBabel11042418523D

 26 29  0  0  1  0  0  0  0  0999 V2000
  192.1530  175.7200  146.7870 C   0  0  0  0  0  3  0  0  0  0  0  0
  185.4610  177.5090  144.9990 N   0  0  0  0  0  0  0  0  0  0  0  0
  191.7520  176.4120  145.6320 C   0  0  0  0  0  0  0  0  0  0  0  0
  189.8180  177.3060  144.4150 N   0  0  0  0  0  0  0  0  0  0  0  0
  187.5780  177.8960  143.8250 C   0  0  0  0  0  2  0  0  0  0  0  0
  185.7710  176.8470  146.1440 C   0  0  0  0  0  3  0  0  0  0  0  0
  189.8350  175.5870  147.5550 C   0  0  0  0  0  3  0  0  0  0  0  0
  189.4640  176.2680  146.3970 C   0  0  0  0  0  0  0  0  0  0  0  0
  186.1870  177.9920  143.9540 C   0  0  0  0  0  0  0  0  0  0  0  0
  190.3890  176.6690  145.4590 C   0  0  1  0  0  3  0  0  0  0  0  0
  188.4910  177.3200  144.6830 C   0  0  0  0  0  0  0  0  0  0  0  0
  187.0220  176.4520  146.5940 C   0  0  0  0  0  3  0  0  0  0  0  0
  191.2000  175.3120  147.7440 C   0  0  0  0  0  3  0  0  0  0  0  0
  188.2240  176.6600  145.9520 C   0  0  0  0  0  0  0  0  0  0  0  0
  185.4650  178.6310  142.9390 O   0  0  0  0  0  0  0  0  0  0  0  0
  184.1520  178.2450  142.5490 C   0  0  0  0  0  1  0  0  0  0  0  0
  192.7590  176.8180  144.6110 C   0  0  0  0  0  2  0  0  0  0  0  0
  193.6250  175.7030  144.3090 N   0  0  0  0  0  0  0  0  0  0  0  0
  193.5540  175.0420  143.2060 C   0  0  0  0  0  3  0  0  0  0  0  0
  190.5340  173.4090  142.3760 C   0  0  0  0  0  0  0  0  0  0  0  0
  190.1930  172.4090  141.6930 O   0  0  0  0  0  0  0  0  0  0  0  0
  192.7640  174.5340  141.0430 C   0  0  0  0  0  2  0  0  0  0  0  0
  192.5660  175.3650  142.1260 C   0  0  1  0  0  3  0  0  0  0  0  0
  191.6340  174.2120  141.9620 N   0  0  0  0  0  0  0  0  0  0  0  0
  189.7680  173.7700  143.6010 C   0  0  0  0  0  2  0  0  0  0  0  0
  190.2540  172.9440  144.7740 C   0  0  0  0  0  1  0  0  0  0  0  0
  1 13  1  0  0  0  0
  2  6  1  0  0  0  0
  3  1  2  0  0  0  0
  4 11  2  0  0  0  0
  5  9  1  0  0  0  0
  5 11  1  0  0  0  0
  6 12  2  0  0  0  0
  7 13  2  0  0  0  0
  8  7  1  0  0  0  0
  9  2  2  0  0  0  0
 10  4  1  6  0  0  0
 10  3  1  0  0  0  0
 10  8  1  0  0  0  0
 11 14  1  0  0  0  0
 14  8  2  0  0  0  0
 14 12  1  0  0  0  0
 15  9  1  0  0  0  0
 16 15  1  0  0  0  0
 17  3  1  0  0  0  0
 18 17  1  0  0  0  0
 19 18  2  0  0  0  0
 20 25  1  0  0  0  0
 21 20  2  0  0  0  0
 22 24  1  0  0  0  0
 22 23  1  0  0  0  0
 23 19  1  1  0  0  0
 24 23  1  0  0  0  0
 24 20  1  0  0  0  0
 25 26  1  0  0  0  0
M  END
>  <MODEL>
6

>  <REMARK>
 VINA RESULT:      -7.1      2.676      5.033
  Name = 
  5 active torsions:
  status: ('A' for Active; 'I' for Inactive)
    1  A    between atoms: C_2  and  C_6
    2  A    between atoms: C_4  and  C_23
    3  A    between atoms: N_11  and  C_23
    4  A    between atoms: C_12  and  C_20
    5  A    between atoms: C_16  and  O_19
                            x       y       z     vdW  Elec       q    Type
                         _______ _______ _______ _____ _____    ______ ____

>  <TORSDO>
F 5

$$$$
=
 OpenBabel11042418523D

 26 29  0  0  1  0  0  0  0  0999 V2000
  190.7470  177.1390  145.9410 C   0  0  0  0  0  3  0  0  0  0  0  0
  184.3060  178.3850  143.0880 N   0  0  0  0  0  0  0  0  0  0  0  0
  190.4560  177.3150  144.5770 C   0  0  0  0  0  0  0  0  0  0  0  0
  188.6560  177.7320  142.9620 N   0  0  0  0  0  0  0  0  0  0  0  0
  186.4990  178.1440  142.0180 C   0  0  0  0  0  2  0  0  0  0  0  0
  184.5110  178.2360  144.4220 C   0  0  0  0  0  3  0  0  0  0  0  0
  188.3940  177.4540  146.5220 C   0  0  0  0  0  3  0  0  0  0  0  0
  188.1310  177.6190  145.1620 C   0  0  0  0  0  0  0  0  0  0  0  0
  185.1160  178.3580  141.9940 C   0  0  0  0  0  0  0  0  0  0  0  0
  189.1260  177.5500  144.2140 C   0  0  2  0  0  3  0  0  0  0  0  0
  187.3240  177.9240  143.1020 C   0  0  0  0  0  0  0  0  0  0  0  0
  185.7050  177.9960  145.0860 C   0  0  0  0  0  3  0  0  0  0  0  0
  189.7230  177.2100  146.9070 C   0  0  0  0  0  3  0  0  0  0  0  0
  186.9470  177.8580  144.5060 C   0  0  0  0  0  0  0  0  0  0  0  0
  184.4930  178.5610  140.7560 O   0  0  0  0  0  0  0  0  0  0  0  0
  183.1360  178.2230  140.4970 C   0  0  0  0  0  1  0  0  0  0  0  0
  191.5380  177.2130  143.5570 C   0  0  0  0  0  2  0  0  0  0  0  0
  192.7770  176.8380  144.1960 N   0  0  0  0  0  0  0  0  0  0  0  0
  193.4640  175.8100  143.8370 C   0  0  0  0  0  3  0  0  0  0  0  0
  191.2790  173.0350  143.9080 C   0  0  0  0  0  0  0  0  0  0  0  0
  191.3610  171.8130  144.1980 O   0  0  0  0  0  0  0  0  0  0  0  0
  193.7740  173.7310  142.7670 C   0  0  0  0  0  2  0  0  0  0  0  0
  193.0460  174.9010  142.7200 C   0  0  1  0  0  3  0  0  0  0  0  0
  192.3810  173.6980  143.2970 N   0  0  0  0  0  0  0  0  0  0  0  0
  190.0180  173.7800  144.1760 C   0  0  0  0  0  2  0  0  0  0  0  0
  189.6800  173.7060  145.6510 C   0  0  0  0  0  1  0  0  0  0  0  0
  1 13  1  0  0  0  0
  2  6  1  0  0  0  0
  3  1  2  0  0  0  0
  4 11  2  0  0  0  0
  5 11  1  0  0  0  0
  6 12  2  0  0  0  0
  7 13  2  0  0  0  0
  8  7  1  0  0  0  0
  9  5  1  0  0  0  0
  9  2  2  0  0  0  0
 10  4  1  1  0  0  0
 10  3  1  0  0  0  0
 10  8  1  0  0  0  0
 11 14  1  0  0  0  0
 14 12  1  0  0  0  0
 14  8  2  0  0  0  0
 15  9  1  0  0  0  0
 16 15  1  0  0  0  0
 17 18  1  0  0  0  0
 17  3  1  0  0  0  0
 19 18  2  0  0  0  0
 20 25  1  0  0  0  0
 20 21  2  0  0  0  0
 22 24  1  0  0  0  0
 23 22  1  0  0  0  0
 23 24  1  0  0  0  0
 23 19  1  1  0  0  0
 24 20  1  0  0  0  0
 25 26  1  0  0  0  0
M  END
>  <MODEL>
7

>  <REMARK>
 VINA RESULT:      -7.0      2.368      3.925
  Name = 
  5 active torsions:
  status: ('A' for Active; 'I' for Inactive)
    1  A    between atoms: C_2  and  C_6
    2  A    between atoms: C_4  and  C_23
    3  A    between atoms: N_11  and  C_23
    4  A    between atoms: C_12  and  C_20
    5  A    between atoms: C_16  and  O_19
                            x       y       z     vdW  Elec       q    Type
                         _______ _______ _______ _____ _____    ______ ____

>  <TORSDO>
F 5

$$$$
=
 OpenBabel11042418523D

 26 29  0  0  1  0  0  0  0  0999 V2000
  190.4930  176.4860  145.8260 C   0  0  0  0  0  3  0  0  0  0  0  0
  183.9020  178.7400  144.1930 N   0  0  0  0  0  0  0  0  0  0  0  0
  189.8630  176.3940  144.5720 C   0  0  0  0  0  0  0  0  0  0  0  0
  187.8000  176.8830  143.3380 N   0  0  0  0  0  0  0  0  0  0  0  0
  185.5950  177.6370  142.8040 C   0  0  0  0  0  2  0  0  0  0  0  0
  184.4480  178.8750  145.4290 C   0  0  0  0  0  3  0  0  0  0  0  0
  188.5240  177.5830  146.7740 C   0  0  0  0  0  3  0  0  0  0  0  0
  187.9200  177.4720  145.5220 C   0  0  0  0  0  0  0  0  0  0  0  0
  184.3380  178.2160  143.0140 C   0  0  0  0  0  0  0  0  0  0  0  0
  188.5630  176.8940  144.4510 C   0  0  2  0  0  3  0  0  0  0  0  0
  186.6340  177.4700  143.6960 C   0  0  0  0  0  0  0  0  0  0  0  0
  185.7060  178.4820  145.8590 C   0  0  0  0  0  3  0  0  0  0  0  0
  189.8280  177.0800  146.9190 C   0  0  0  0  0  3  0  0  0  0  0  0
  186.6730  177.8630  145.0960 C   0  0  0  0  0  0  0  0  0  0  0  0
  183.4410  178.2730  141.9410 O   0  0  0  0  0  0  0  0  0  0  0  0
  183.8470  178.2490  140.5780 C   0  0  0  0  0  1  0  0  0  0  0  0
  190.5600  175.7430  143.4270 C   0  0  0  0  0  2  0  0  0  0  0  0
  191.5990  176.6120  142.9300 N   0  0  0  0  0  0  0  0  0  0  0  0
  192.8120  176.2190  142.7510 C   0  0  0  0  0  3  0  0  0  0  0  0
  195.3670  175.0970  144.9190 C   0  0  0  0  0  0  0  0  0  0  0  0
  196.6150  174.9530  144.8620 O   0  0  0  0  0  0  0  0  0  0  0  0
  194.4040  174.5330  142.3170 C   0  0  0  0  0  2  0  0  0  0  0  0
  193.2650  174.8200  143.0410 C   0  0  1  0  0  3  0  0  0  0  0  0
  194.5710  174.8720  143.7600 N   0  0  0  0  0  0  0  0  0  0  0  0
  194.7180  175.4750  146.2040 C   0  0  0  0  0  2  0  0  0  0  0  0
  194.3360  176.9410  146.1770 C   0  0  0  0  0  1  0  0  0  0  0  0
  1 13  1  0  0  0  0
  2  6  1  0  0  0  0
  3  1  2  0  0  0  0
  4 11  2  0  0  0  0
  5  9  1  0  0  0  0
  5 11  1  0  0  0  0
  6 12  2  0  0  0  0
  7 13  2  0  0  0  0
  8  7  1  0  0  0  0
  9  2  2  0  0  0  0
 10  4  1  6  0  0  0
 10  3  1  0  0  0  0
 10  8  1  0  0  0  0
 11 14  1  0  0  0  0
 14  8  2  0  0  0  0
 14 12  1  0  0  0  0
 15  9  1  0  0  0  0
 16 15  1  0  0  0  0
 17  3  1  0  0  0  0
 18 17  1  0  0  0  0
 19 18  2  0  0  0  0
 20 25  1  0  0  0  0
 21 20  2  0  0  0  0
 22 23  1  0  0  0  0
 22 24  1  0  0  0  0
 23 19  1  6  0  0  0
 23 24  1  0  0  0  0
 24 20  1  0  0  0  0
 26 25  1  0  0  0  0
M  END
>  <MODEL>
8

>  <REMARK>
 VINA RESULT:      -7.0      2.546      4.121
  Name = 
  5 active torsions:
  status: ('A' for Active; 'I' for Inactive)
    1  A    between atoms: C_2  and  C_6
    2  A    between atoms: C_4  and  C_23
    3  A    between atoms: N_11  and  C_23
    4  A    between atoms: C_12  and  C_20
    5  A    between atoms: C_16  and  O_19
                            x       y       z     vdW  Elec       q    Type
                         _______ _______ _______ _____ _____    ______ ____

>  <TORSDO>
F 5

$$$$
=
 OpenBabel11042418523D

 26 29  0  0  1  0  0  0  0  0999 V2000
  191.9880  175.7260  146.8160 C   0  0  0  0  0  3  0  0  0  0  0  0
  185.3000  177.5080  145.0040 N   0  0  0  0  0  0  0  0  0  0  0  0
  191.5920  176.4320  145.6670 C   0  0  0  0  0  0  0  0  0  0  0  0
  189.6630  177.3340  144.4480 N   0  0  0  0  0  0  0  0  0  0  0  0
  187.4240  177.9210  143.8500 C   0  0  0  0  0  2  0  0  0  0  0  0
  185.6060  176.8330  146.1420 C   0  0  0  0  0  3  0  0  0  0  0  0
  189.6660  175.5720  147.5650 C   0  0  0  0  0  3  0  0  0  0  0  0
  189.3000  176.2670  146.4140 C   0  0  0  0  0  0  0  0  0  0  0  0
  186.0320  178.0090  143.9710 C   0  0  0  0  0  0  0  0  0  0  0  0
  190.2290  176.6850  145.4880 C   0  0  1  0  0  3  0  0  0  0  0  0
  188.3340  177.3380  144.7070 C   0  0  0  0  0  0  0  0  0  0  0  0
  186.8560  176.4380  146.5960 C   0  0  0  0  0  3  0  0  0  0  0  0
  191.0310  175.3010  147.7610 C   0  0  0  0  0  3  0  0  0  0  0  0
  188.0610  176.6600  145.9650 C   0  0  0  0  0  0  0  0  0  0  0  0
  185.3140  178.6590  142.9600 O   0  0  0  0  0  0  0  0  0  0  0  0
  185.5520  178.4520  141.5730 C   0  0  0  0  0  1  0  0  0  0  0  0
  192.6040  176.8570  144.6590 C   0  0  0  0  0  2  0  0  0  0  0  0
  193.8270  177.2360  145.3250 N   0  0  0  0  0  0  0  0  0  0  0  0
  194.9820  176.7900  144.9710 C   0  0  0  0  0  3  0  0  0  0  0  0
  195.1140  173.2600  145.0080 C   0  0  0  0  0  0  0  0  0  0  0  0
  195.9850  172.3800  145.2310 O   0  0  0  0  0  0  0  0  0  0  0  0
  196.4840  175.4130  143.7820 C   0  0  0  0  0  2  0  0  0  0  0  0
  195.1720  175.8350  143.8310 C   0  0  1  0  0  3  0  0  0  0  0  0
  195.4820  174.4830  144.3780 N   0  0  0  0  0  0  0  0  0  0  0  0
  193.6930  173.0110  145.3750 C   0  0  0  0  0  2  0  0  0  0  0  0
  192.8270  173.0440  144.1330 C   0  0  0  0  0  1  0  0  0  0  0  0
  1 13  1  0  0  0  0
  2  6  1  0  0  0  0
  3  1  2  0  0  0  0
  4 11  2  0  0  0  0
  5  9  1  0  0  0  0
  5 11  1  0  0  0  0
  6 12  2  0  0  0  0
  7 13  2  0  0  0  0
  8  7  1  0  0  0  0
  9  2  2  0  0  0  0
 10  4  1  6  0  0  0
 10  3  1  0  0  0  0
 10  8  1  0  0  0  0
 11 14  1  0  0  0  0
 14  8  2  0  0  0  0
 14 12  1  0  0  0  0
 15  9  1  0  0  0  0
 16 15  1  0  0  0  0
 17 18  1  0  0  0  0
 17  3  1  0  0  0  0
 19 18  2  0  0  0  0
 20 21  2  0  0  0  0
 20 25  1  0  0  0  0
 22 23  1  0  0  0  0
 22 24  1  0  0  0  0
 23 24  1  0  0  0  0
 23 19  1  1  0  0  0
 24 20  1  0  0  0  0
 26 25  1  0  0  0  0
M  END
>  <MODEL>
9

>  <REMARK>
 VINA RESULT:      -6.8      2.792      5.012
  Name = 
  5 active torsions:
  status: ('A' for Active; 'I' for Inactive)
    1  A    between atoms: C_2  and  C_6
    2  A    between atoms: C_4  and  C_23
    3  A    between atoms: N_11  and  C_23
    4  A    between atoms: C_12  and  C_20
    5  A    between atoms: C_16  and  O_19
                            x       y       z     vdW  Elec       q    Type
                         _______ _______ _______ _____ _____    ______ ____

>  <TORSDO>
F 5

$$$$
