=
 OpenBabel11042415053D

 33 38  0  0  1  0  0  0  0  0999 V2000
  192.6080  171.0720  143.2780 C   0  0  0  0  0  0  0  0  0  0  0  0
  193.1060  175.9000  144.2680 C   0  0  0  0  0  2  0  0  0  0  0  0
  191.0750  174.6540  143.6900 N   0  0  0  0  0  0  0  0  0  0  0  0
  191.5120  172.4610  141.6170 C   0  0  0  0  0  3  0  0  0  0  0  0
  194.3870  173.3710  144.0160 C   0  0  2  0  0  3  0  0  0  0  0  0
  190.8410  171.3420  141.1210 C   0  0  0  0  0  3  0  0  0  0  0  0
  192.3650  174.7140  143.6800 C   0  0  0  0  0  0  0  0  0  0  0  0
  195.2380  176.8710  144.6980 O   0  0  0  0  0  1  0  0  0  0  0  0
  191.0590  170.0880  141.6910 C   0  0  0  0  0  3  0  0  0  0  0  0
  192.3930  172.3500  142.7030 C   0  0  0  0  0  0  0  0  0  0  0  0
  191.9450  169.9550  142.7620 C   0  0  0  0  0  3  0  0  0  0  0  0
  193.7260  170.8230  144.6560 S   0  0  0  0  0  0  0  0  0  0  0  0
  194.7180  176.4140  142.4420 C   0  0  0  0  0  1  0  0  0  0  0  0
  193.1840  173.5890  143.0920 C   0  0  2  0  0  3  0  0  0  0  0  0
  195.3170  174.5870  144.0180 C   0  0  0  0  0  2  0  0  0  0  0  0
  195.2900  171.8430  143.6520 S   0  0  0  0  0  0  0  0  0  0  0  0
  194.5960  175.9440  143.8800 C   0  0  2  0  0  0  0  0  0  0  0  0
  188.0920  176.7490  143.7130 C   0  0  0  0  0  3  0  0  0  0  0  0
  189.1510  176.0520  143.2910 C   0  0  0  0  0  3  0  0  0  0  0  0
  189.6910  173.7950  146.0800 C   0  0  0  0  0  1  0  0  0  0  0  0
  190.2320  175.6790  144.2640 C   0  0  1  0  0  3  0  0  0  0  0  0
  189.6210  175.2380  145.6130 C   0  0  2  0  0  0  0  0  0  0  0  0
  189.7410  176.2600  146.7190 C   0  0  0  0  0  2  0  0  0  0  0  0
  188.3760  175.9880  146.0970 C   0  0  1  0  0  3  0  0  0  0  0  0
  187.9900  177.1470  145.1630 C   0  0  2  0  0  3  0  0  0  0  0  0
  184.0700  178.6680  146.0400 C   0  0  0  0  0  3  0  0  0  0  0  0
  186.6280  177.6740  145.4850 C   0  0  0  0  0  0  0  0  0  0  0  0
  184.4840  178.5240  144.7120 C   0  0  0  0  0  0  0  0  0  0  0  0
  185.7680  178.0250  144.4400 C   0  0  0  0  0  3  0  0  0  0  0  0
  184.9240  178.3190  147.0880 C   0  0  0  0  0  3  0  0  0  0  0  0
  186.2010  177.8230  146.8140 C   0  0  0  0  0  3  0  0  0  0  0  0
  183.6050  178.8830  143.6860 O   0  0  0  0  0  0  0  0  0  0  0  0
  183.6490  178.2910  142.3950 C   0  0  0  0  0  1  0  0  0  0  0  0
  1 12  1  0  0  0  0
  4 10  1  0  0  0  0
  5 15  1  6  0  0  0
  6  4  2  0  0  0  0
  6  9  1  0  0  0  0
  7  3  2  0  0  0  0
  7  2  1  0  0  0  0
  9 11  2  0  0  0  0
 10  1  2  0  0  0  0
 11  1  1  0  0  0  0
 14 10  1  1  0  0  0
 14  7  1  0  0  0  0
 14  5  1  0  0  0  0
 16  5  1  0  0  0  0
 16 12  1  0  0  0  0
 17 13  1  6  0  0  0
 17 15  1  0  0  0  0
 17  2  1  0  0  0  0
 17  8  1  0  0  0  0
 18 25  1  0  0  0  0
 19 18  2  0  0  0  0
 19 21  1  0  0  0  0
 21  3  1  6  0  0  0
 21 22  1  0  0  0  0
 22 20  1  1  0  0  0
 22 24  1  0  0  0  0
 22 23  1  0  0  0  0
 24 23  1  1  0  0  0
 25 27  1  1  0  0  0
 25 24  1  0  0  0  0
 26 30  1  0  0  0  0
 27 31  1  0  0  0  0
 28 26  2  0  0  0  0
 29 28  1  0  0  0  0
 29 27  2  0  0  0  0
 31 30  2  0  0  0  0
 32 28  1  0  0  0  0
 33 32  1  0  0  0  0
M  END
>  <MODEL>
1

>  <REMARK>
 VINA RESULT:      -8.4      0.000      0.000
  Name = 
  3 active torsions:
  status: ('A' for Active; 'I' for Inactive)
    1  A    between atoms: N_6  and  C_12
    2  A    between atoms: C_8  and  C_23
    3  A    between atoms: C_10  and  O_22
                            x       y       z     vdW  Elec       q    Type
                         _______ _______ _______ _____ _____    ______ ____

>  <TORSDO>
F 3

$$$$
=
 OpenBabel11042415053D

 33 38  0  0  1  0  0  0  0  0999 V2000
  195.6970  172.0100  145.3330 C   0  0  0  0  0  0  0  0  0  0  0  0
  194.0300  175.7870  142.5950 C   0  0  0  0  0  2  0  0  0  0  0  0
  192.7530  174.2070  143.9700 N   0  0  0  0  0  0  0  0  0  0  0  0
  193.8380  171.3580  143.9160 C   0  0  0  0  0  3  0  0  0  0  0  0
  196.2870  174.3030  143.4910 C   0  0  2  0  0  3  0  0  0  0  0  0
  193.7000  170.1720  144.6400 C   0  0  0  0  0  3  0  0  0  0  0  0
  193.8470  174.4760  143.3370 C   0  0  0  0  0  0  0  0  0  0  0  0
  195.4990  177.1040  141.2610 O   0  0  0  0  0  1  0  0  0  0  0  0
  194.5630  169.8970  145.6990 C   0  0  0  0  0  3  0  0  0  0  0  0
  194.8240  172.2970  144.2520 C   0  0  0  0  0  0  0  0  0  0  0  0
  195.5620  170.8120  146.0390 C   0  0  0  0  0  3  0  0  0  0  0  0
  197.0000  173.1360  145.8290 S   0  0  0  0  0  0  0  0  0  0  0  0
  194.9120  174.9830  140.4090 C   0  0  0  0  0  1  0  0  0  0  0  0
  194.9950  173.4940  143.3310 C   0  0  2  0  0  3  0  0  0  0  0  0
  196.5290  175.2120  142.2830 C   0  0  0  0  0  2  0  0  0  0  0  0
  197.7300  173.2660  143.8440 S   0  0  0  0  0  0  0  0  0  0  0  0
  195.2460  175.7900  141.6510 C   0  0  2  0  0  0  0  0  0  0  0  0
  189.1810  174.9260  144.0800 C   0  0  0  0  0  3  0  0  0  0  0  0
  190.3550  174.3670  143.7730 C   0  0  0  0  0  3  0  0  0  0  0  0
  192.4070  175.3940  146.5840 C   0  0  0  0  0  1  0  0  0  0  0  0
  191.6300  175.1140  144.0430 C   0  0  1  0  0  3  0  0  0  0  0  0
  191.5570  175.8370  145.4060 C   0  0  2  0  0  0  0  0  0  0  0  0
  191.3490  177.3310  145.3120 C   0  0  0  0  0  2  0  0  0  0  0  0
  190.2090  176.4460  145.8060 C   0  0  1  0  0  3  0  0  0  0  0  0
  189.1490  176.3000  144.7020 C   0  0  2  0  0  3  0  0  0  0  0  0
  185.2130  177.2660  146.1230 C   0  0  0  0  0  3  0  0  0  0  0  0
  187.7840  176.6300  145.2120 C   0  0  0  0  0  0  0  0  0  0  0  0
  185.5280  177.4300  144.7710 C   0  0  0  0  0  0  0  0  0  0  0  0
  186.8200  177.1090  144.3200 C   0  0  0  0  0  3  0  0  0  0  0  0
  186.1720  176.7880  147.0200 C   0  0  0  0  0  3  0  0  0  0  0  0
  187.4550  176.4700  146.5670 C   0  0  0  0  0  3  0  0  0  0  0  0
  184.5470  177.9110  143.9010 O   0  0  0  0  0  0  0  0  0  0  0  0
  184.8260  178.2800  142.5570 C   0  0  0  0  0  1  0  0  0  0  0  0
  1 12  1  0  0  0  0
  1 11  1  0  0  0  0
  2  7  1  0  0  0  0
  4 10  1  0  0  0  0
  4  6  2  0  0  0  0
  5 15  1  6  0  0  0
  5 16  1  0  0  0  0
  6  9  1  0  0  0  0
  7  3  2  0  0  0  0
  8 17  1  0  0  0  0
  9 11  2  0  0  0  0
 10  1  2  0  0  0  0
 14  7  1  1  0  0  0
 14  5  1  0  0  0  0
 14 10  1  0  0  0  0
 16 12  1  0  0  0  0
 17 13  1  6  0  0  0
 17 15  1  0  0  0  0
 17  2  1  0  0  0  0
 18 25  1  0  0  0  0
 19 21  1  0  0  0  0
 19 18  2  0  0  0  0
 21  3  1  1  0  0  0
 21 22  1  0  0  0  0
 22 24  1  0  0  0  0
 22 20  1  1  0  0  0
 23 22  1  0  0  0  0
 24 23  1  6  0  0  0
 25 27  1  1  0  0  0
 25 24  1  0  0  0  0
 26 30  1  0  0  0  0
 27 31  1  0  0  0  0
 28 26  2  0  0  0  0
 29 28  1  0  0  0  0
 29 27  2  0  0  0  0
 31 30  2  0  0  0  0
 32 28  1  0  0  0  0
 33 32  1  0  0  0  0
M  END
>  <MODEL>
2

>  <REMARK>
 VINA RESULT:      -8.1      2.016      2.691
  Name = 
  3 active torsions:
  status: ('A' for Active; 'I' for Inactive)
    1  A    between atoms: N_6  and  C_12
    2  A    between atoms: C_8  and  C_23
    3  A    between atoms: C_10  and  O_22
                            x       y       z     vdW  Elec       q    Type
                         _______ _______ _______ _____ _____    ______ ____

>  <TORSDO>
F 3

$$$$
=
 OpenBabel11042415053D

 33 38  0  0  1  0  0  0  0  0999 V2000
  196.9770  174.1420  144.0380 C   0  0  0  0  0  0  0  0  0  0  0  0
  193.1910  174.8690  140.9270 C   0  0  0  0  0  2  0  0  0  0  0  0
  193.1580  174.7080  143.3740 N   0  0  0  0  0  0  0  0  0  0  0  0
  195.1140  172.6620  144.5090 C   0  0  0  0  0  3  0  0  0  0  0  0
  195.9940  174.4720  141.2240 C   0  0  2  0  0  3  0  0  0  0  0  0
  195.6840  172.3310  145.7400 C   0  0  0  0  0  3  0  0  0  0  0  0
  193.7770  174.4620  142.2670 C   0  0  0  0  0  0  0  0  0  0  0  0
  193.5020  174.8760  138.5660 O   0  0  0  0  0  1  0  0  0  0  0  0
  196.9040  172.8930  146.1160 C   0  0  0  0  0  3  0  0  0  0  0  0
  195.7390  173.5740  143.6470 C   0  0  0  0  0  0  0  0  0  0  0  0
  197.5500  173.7910  145.2640 C   0  0  0  0  0  3  0  0  0  0  0  0
  197.8640  175.3030  143.0000 S   0  0  0  0  0  0  0  0  0  0  0  0
  193.4690  172.7660  139.6230 C   0  0  0  0  0  1  0  0  0  0  0  0
  195.1210  173.7740  142.2710 C   0  0  2  0  0  3  0  0  0  0  0  0
  195.4420  174.2670  139.8100 C   0  0  0  0  0  2  0  0  0  0  0  0
  197.7400  174.0020  141.3310 S   0  0  0  0  0  0  0  0  0  0  0  0
  193.9020  174.2170  139.7260 C   0  0  2  0  0  0  0  0  0  0  0  0
  189.7090  175.0100  144.5160 C   0  0  0  0  0  3  0  0  0  0  0  0
  190.8620  174.4940  144.0780 C   0  0  0  0  0  3  0  0  0  0  0  0
  193.2210  177.0840  145.0210 C   0  0  0  0  0  1  0  0  0  0  0  0
  191.8860  175.3900  143.4430 C   0  0  1  0  0  3  0  0  0  0  0  0
  191.9870  176.7280  144.2110 C   0  0  2  0  0  0  0  0  0  0  0  0
  191.3350  177.9000  143.5150 C   0  0  0  0  0  2  0  0  0  0  0  0
  190.6870  177.3180  144.7660 C   0  0  1  0  0  3  0  0  0  0  0  0
  189.4520  176.4890  144.3740 C   0  0  2  0  0  3  0  0  0  0  0  0
  185.9830  177.7220  146.5860 C   0  0  0  0  0  3  0  0  0  0  0  0
  188.2480  176.9050  145.1550 C   0  0  0  0  0  0  0  0  0  0  0  0
  186.2960  178.3420  145.3720 C   0  0  0  0  0  0  0  0  0  0  0  0
  187.4330  177.9280  144.6600 C   0  0  0  0  0  3  0  0  0  0  0  0
  186.7920  176.6990  147.0860 C   0  0  0  0  0  3  0  0  0  0  0  0
  187.9230  176.2900  146.3740 C   0  0  0  0  0  3  0  0  0  0  0  0
  185.4660  179.3620  144.8990 O   0  0  0  0  0  0  0  0  0  0  0  0
  184.2980  179.1070  144.1310 C   0  0  0  0  0  1  0  0  0  0  0  0
  1 11  1  0  0  0  0
  2  7  1  0  0  0  0
  4  6  2  0  0  0  0
  5 15  1  6  0  0  0
  5 16  1  0  0  0  0
  5 14  1  0  0  0  0
  6  9  1  0  0  0  0
  7  3  2  0  0  0  0
  8 17  1  0  0  0  0
 10  1  2  0  0  0  0
 10  4  1  0  0  0  0
 11  9  2  0  0  0  0
 12  1  1  0  0  0  0
 14  7  1  1  0  0  0
 14 10  1  0  0  0  0
 16 12  1  0  0  0  0
 17 13  1  6  0  0  0
 17 15  1  0  0  0  0
 17  2  1  0  0  0  0
 19 18  2  0  0  0  0
 21  3  1  1  0  0  0
 21 19  1  0  0  0  0
 21 22  1  0  0  0  0
 22 24  1  0  0  0  0
 22 20  1  1  0  0  0
 23 22  1  0  0  0  0
 24 23  1  6  0  0  0
 25 18  1  0  0  0  0
 25 24  1  0  0  0  0
 25 27  1  1  0  0  0
 26 30  1  0  0  0  0
 27 31  1  0  0  0  0
 28 26  2  0  0  0  0
 29 27  2  0  0  0  0
 29 28  1  0  0  0  0
 31 30  2  0  0  0  0
 32 28  1  0  0  0  0
 33 32  1  0  0  0  0
M  END
>  <MODEL>
3

>  <REMARK>
 VINA RESULT:      -8.0      2.599      4.029
  Name = 
  3 active torsions:
  status: ('A' for Active; 'I' for Inactive)
    1  A    between atoms: N_6  and  C_12
    2  A    between atoms: C_8  and  C_23
    3  A    between atoms: C_10  and  O_22
                            x       y       z     vdW  Elec       q    Type
                         _______ _______ _______ _____ _____    ______ ____

>  <TORSDO>
F 3

$$$$
=
 OpenBabel11042415053D

 33 38  0  0  1  0  0  0  0  0999 V2000
  193.5740  171.0830  144.0910 C   0  0  0  0  0  0  0  0  0  0  0  0
  193.9140  176.0250  144.0400 C   0  0  0  0  0  2  0  0  0  0  0  0
  191.9360  174.6190  143.6850 N   0  0  0  0  0  0  0  0  0  0  0  0
  192.5010  172.0500  142.1410 C   0  0  0  0  0  3  0  0  0  0  0  0
  195.2670  173.5430  144.3710 C   0  0  2  0  0  3  0  0  0  0  0  0
  191.8760  170.8300  141.8770 C   0  0  0  0  0  3  0  0  0  0  0  0
  193.2240  174.7170  143.6980 C   0  0  0  0  0  0  0  0  0  0  0  0
  196.0040  177.1330  144.3130 O   0  0  0  0  0  1  0  0  0  0  0  0
  192.1070  169.7340  142.7070 C   0  0  0  0  0  3  0  0  0  0  0  0
  193.3460  172.2020  143.2500 C   0  0  0  0  0  0  0  0  0  0  0  0
  192.9580  169.8600  143.8070 C   0  0  0  0  0  3  0  0  0  0  0  0
  194.6500  171.1690  145.5210 S   0  0  0  0  0  0  0  0  0  0  0  0
  195.5750  176.1910  142.1930 C   0  0  0  0  0  1  0  0  0  0  0  0
  194.0920  173.5200  143.3880 C   0  0  2  0  0  3  0  0  0  0  0  0
  196.1650  174.7610  144.1390 C   0  0  0  0  0  2  0  0  0  0  0  0
  196.2210  172.0030  144.3680 S   0  0  0  0  0  0  0  0  0  0  0  0
  195.4140  176.0330  143.6940 C   0  0  2  0  0  0  0  0  0  0  0  0
  189.2850  176.9770  142.8500 C   0  0  0  0  0  3  0  0  0  0  0  0
  190.3590  176.1880  142.7550 C   0  0  0  0  0  3  0  0  0  0  0  0
  189.8100  173.8820  145.5020 C   0  0  0  0  0  1  0  0  0  0  0  0
  191.0490  175.7140  144.0020 C   0  0  1  0  0  3  0  0  0  0  0  0
  190.0120  175.3270  145.0810 C   0  0  2  0  0  0  0  0  0  0  0  0
  189.8710  176.3300  146.2020 C   0  0  0  0  0  2  0  0  0  0  0  0
  188.7480  176.1860  145.1800 C   0  0  1  0  0  3  0  0  0  0  0  0
  188.7720  177.3790  144.2100 C   0  0  2  0  0  3  0  0  0  0  0  0
  184.9040  179.2320  143.9750 C   0  0  0  0  0  3  0  0  0  0  0  0
  187.4280  178.0260  144.1110 C   0  0  0  0  0  0  0  0  0  0  0  0
  185.4130  178.8290  145.2140 C   0  0  0  0  0  0  0  0  0  0  0  0
  186.6800  178.2250  145.2750 C   0  0  0  0  0  3  0  0  0  0  0  0
  185.6470  179.0360  142.8080 C   0  0  0  0  0  3  0  0  0  0  0  0
  186.9070  178.4350  142.8740 C   0  0  0  0  0  3  0  0  0  0  0  0
  184.6450  179.0390  146.3610 O   0  0  0  0  0  0  0  0  0  0  0  0
  185.0210  178.5410  147.6390 C   0  0  0  0  0  1  0  0  0  0  0  0
  1 12  1  0  0  0  0
  3  7  2  0  0  0  0
  4 10  1  0  0  0  0
  5 15  1  6  0  0  0
  6  4  2  0  0  0  0
  6  9  1  0  0  0  0
  7  2  1  0  0  0  0
  9 11  2  0  0  0  0
 10  1  2  0  0  0  0
 11  1  1  0  0  0  0
 14 10  1  1  0  0  0
 14  7  1  0  0  0  0
 14  5  1  0  0  0  0
 16  5  1  0  0  0  0
 16 12  1  0  0  0  0
 17 13  1  6  0  0  0
 17  2  1  0  0  0  0
 17 15  1  0  0  0  0
 17  8  1  0  0  0  0
 18 25  1  0  0  0  0
 19 18  2  0  0  0  0
 19 21  1  0  0  0  0
 21  3  1  6  0  0  0
 21 22  1  0  0  0  0
 22 24  1  0  0  0  0
 22 20  1  1  0  0  0
 22 23  1  0  0  0  0
 24 23  1  1  0  0  0
 25 27  1  6  0  0  0
 25 24  1  0  0  0  0
 26 28  1  0  0  0  0
 27 29  1  0  0  0  0
 28 29  2  0  0  0  0
 28 32  1  0  0  0  0
 30 31  1  0  0  0  0
 30 26  2  0  0  0  0
 31 27  2  0  0  0  0
 32 33  1  0  0  0  0
M  END
>  <MODEL>
4

>  <REMARK>
 VINA RESULT:      -8.0      1.158      1.854
  Name = 
  3 active torsions:
  status: ('A' for Active; 'I' for Inactive)
    1  A    between atoms: N_6  and  C_12
    2  A    between atoms: C_8  and  C_23
    3  A    between atoms: C_10  and  O_22
                            x       y       z     vdW  Elec       q    Type
                         _______ _______ _______ _____ _____    ______ ____

>  <TORSDO>
F 3

$$$$
=
 OpenBabel11042415053D

 33 38  0  0  1  0  0  0  0  0999 V2000
  194.2860  170.8460  144.5230 C   0  0  0  0  0  0  0  0  0  0  0  0
  193.9730  175.7890  144.6090 C   0  0  0  0  0  2  0  0  0  0  0  0
  192.1650  174.1350  144.7070 N   0  0  0  0  0  0  0  0  0  0  0  0
  192.6320  171.6820  142.9570 C   0  0  0  0  0  3  0  0  0  0  0  0
  195.6680  173.5080  144.4720 C   0  0  2  0  0  3  0  0  0  0  0  0
  192.1190  170.3920  142.8060 C   0  0  0  0  0  3  0  0  0  0  0  0
  193.3890  174.4050  144.3960 C   0  0  0  0  0  0  0  0  0  0  0  0
  195.9050  177.1650  144.3890 O   0  0  0  0  0  1  0  0  0  0  0  0
  192.6940  169.3280  143.5010 C   0  0  0  0  0  3  0  0  0  0  0  0
  193.7090  171.9330  143.8200 C   0  0  0  0  0  0  0  0  0  0  0  0
  193.7780  169.5560  144.3510 C   0  0  0  0  0  3  0  0  0  0  0  0
  195.6750  171.0600  145.6340 S   0  0  0  0  0  0  0  0  0  0  0  0
  195.0640  176.1960  142.4080 C   0  0  0  0  0  1  0  0  0  0  0  0
  194.2920  173.3380  143.8220 C   0  0  2  0  0  3  0  0  0  0  0  0
  196.3140  174.8380  144.0740 C   0  0  0  0  0  2  0  0  0  0  0  0
  196.7760  172.1090  144.1570 S   0  0  0  0  0  0  0  0  0  0  0  0
  195.3190  176.0020  143.8920 C   0  0  2  0  0  0  0  0  0  0  0  0
  189.8270  176.9230  144.4780 C   0  0  0  0  0  3  0  0  0  0  0  0
  190.8740  176.1220  144.2590 C   0  0  0  0  0  3  0  0  0  0  0  0
  189.6720  172.9710  145.5960 C   0  0  0  0  0  1  0  0  0  0  0  0
  191.2580  175.0990  145.2890 C   0  0  1  0  0  3  0  0  0  0  0  0
  189.9990  174.4260  145.8810 C   0  0  2  0  0  0  0  0  0  0  0  0
  189.6400  174.8870  147.2750 C   0  0  0  0  0  2  0  0  0  0  0  0
  188.7670  175.3100  146.0980 C   0  0  1  0  0  3  0  0  0  0  0  0
  189.0370  176.7850  145.7550 C   0  0  2  0  0  3  0  0  0  0  0  0
  185.3900  179.0430  145.5240 C   0  0  0  0  0  3  0  0  0  0  0  0
  187.7650  177.5690  145.6910 C   0  0  0  0  0  0  0  0  0  0  0  0
  186.0920  178.7260  144.3560 C   0  0  0  0  0  0  0  0  0  0  0  0
  187.2830  177.9860  144.4480 C   0  0  0  0  0  3  0  0  0  0  0  0
  185.8670  178.6290  146.7700 C   0  0  0  0  0  3  0  0  0  0  0  0
  187.0520  177.8930  146.8560 C   0  0  0  0  0  3  0  0  0  0  0  0
  185.5880  179.1550  143.1260 O   0  0  0  0  0  0  0  0  0  0  0  0
  185.9290  178.5290  141.8960 C   0  0  0  0  0  1  0  0  0  0  0  0
  1 12  1  0  0  0  0
  4 10  1  0  0  0  0
  5 15  1  6  0  0  0
  6  4  2  0  0  0  0
  6  9  1  0  0  0  0
  7  2  1  0  0  0  0
  7  3  2  0  0  0  0
  9 11  2  0  0  0  0
 10  1  2  0  0  0  0
 11  1  1  0  0  0  0
 14 10  1  1  0  0  0
 14  7  1  0  0  0  0
 14  5  1  0  0  0  0
 16  5  1  0  0  0  0
 16 12  1  0  0  0  0
 17 13  1  6  0  0  0
 17 15  1  0  0  0  0
 17  8  1  0  0  0  0
 17  2  1  0  0  0  0
 18 25  1  0  0  0  0
 19 18  2  0  0  0  0
 19 21  1  0  0  0  0
 21  3  1  6  0  0  0
 21 22  1  0  0  0  0
 22 20  1  6  0  0  0
 22 24  1  0  0  0  0
 22 23  1  0  0  0  0
 24 23  1  1  0  0  0
 25 27  1  6  0  0  0
 25 24  1  0  0  0  0
 26 30  1  0  0  0  0
 27 31  1  0  0  0  0
 28 29  1  0  0  0  0
 28 26  2  0  0  0  0
 29 27  2  0  0  0  0
 30 31  2  0  0  0  0
 32 28  1  0  0  0  0
 33 32  1  0  0  0  0
M  END
>  <MODEL>
5

>  <REMARK>
 VINA RESULT:      -8.0      1.315      1.595
  Name = 
  3 active torsions:
  status: ('A' for Active; 'I' for Inactive)
    1  A    between atoms: N_6  and  C_12
    2  A    between atoms: C_8  and  C_23
    3  A    between atoms: C_10  and  O_22
                            x       y       z     vdW  Elec       q    Type
                         _______ _______ _______ _____ _____    ______ ____

>  <TORSDO>
F 3

$$$$
=
 OpenBabel11042415053D

 33 38  0  0  1  0  0  0  0  0999 V2000
  195.3330  175.4290  141.7880 C   0  0  0  0  0  0  0  0  0  0  0  0
  191.0880  172.9290  142.2980 C   0  0  0  0  0  2  0  0  0  0  0  0
  191.7540  175.0490  143.3350 N   0  0  0  0  0  0  0  0  0  0  0  0
  194.6990  175.1750  144.1160 C   0  0  0  0  0  3  0  0  0  0  0  0
  193.6570  173.0450  141.0790 C   0  0  2  0  0  3  0  0  0  0  0  0
  195.6440  176.1360  144.4810 C   0  0  0  0  0  3  0  0  0  0  0  0
  192.1110  173.9540  142.7490 C   0  0  0  0  0  0  0  0  0  0  0  0
  190.7490  170.8190  141.2440 O   0  0  0  0  0  1  0  0  0  0  0  0
  196.4420  176.7340  143.5060 C   0  0  0  0  0  3  0  0  0  0  0  0
  194.5200  174.8140  142.7730 C   0  0  0  0  0  0  0  0  0  0  0  0
  196.2900  176.3760  142.1650 C   0  0  0  0  0  3  0  0  0  0  0  0
  195.1950  175.0230  140.0480 S   0  0  0  0  0  0  0  0  0  0  0  0
  192.0830  170.8290  143.1910 C   0  0  0  0  0  1  0  0  0  0  0  0
  193.5680  173.6650  142.4770 C   0  0  2  0  0  3  0  0  0  0  0  0
  192.9600  171.6820  141.0270 C   0  0  0  0  0  2  0  0  0  0  0  0
  195.3550  172.9490  140.4540 S   0  0  0  0  0  0  0  0  0  0  0  0
  191.7080  171.5700  141.9210 C   0  0  2  0  0  0  0  0  0  0  0  0
  188.9050  175.5230  145.5590 C   0  0  0  0  0  3  0  0  0  0  0  0
  190.0150  175.0250  145.0040 C   0  0  0  0  0  3  0  0  0  0  0  0
  191.2440  177.8890  143.1460 C   0  0  0  0  0  1  0  0  0  0  0  0
  190.3770  175.4020  143.5970 C   0  0  1  0  0  3  0  0  0  0  0  0
  190.1070  176.9030  143.3490 C   0  0  2  0  0  0  0  0  0  0  0  0
  188.8750  177.1900  142.5220 C   0  0  0  0  0  2  0  0  0  0  0  0
  188.8680  177.5120  144.0130 C   0  0  1  0  0  3  0  0  0  0  0  0
  188.0320  176.4630  144.7670 C   0  0  2  0  0  3  0  0  0  0  0  0
  185.0580  178.3400  147.2320 C   0  0  0  0  0  3  0  0  0  0  0  0
  187.0050  177.1110  145.6380 C   0  0  0  0  0  0  0  0  0  0  0  0
  184.9040  178.3210  145.8420 C   0  0  0  0  0  0  0  0  0  0  0  0
  185.8850  177.7030  145.0490 C   0  0  0  0  0  3  0  0  0  0  0  0
  186.1750  177.7500  147.8280 C   0  0  0  0  0  3  0  0  0  0  0  0
  187.1480  177.1370  147.0350 C   0  0  0  0  0  3  0  0  0  0  0  0
  183.7750  178.9210  145.2770 O   0  0  0  0  0  0  0  0  0  0  0  0
  183.5910  179.0410  143.8730 C   0  0  0  0  0  1  0  0  0  0  0  0
  1 11  2  0  0  0  0
  1 10  1  0  0  0  0
  2  7  1  0  0  0  0
  4  6  1  0  0  0  0
  5 15  1  1  0  0  0
  5 14  1  0  0  0  0
  7  3  2  0  0  0  0
  8 17  1  0  0  0  0
  9  6  2  0  0  0  0
 10  4  2  0  0  0  0
 11  9  1  0  0  0  0
 12 16  1  0  0  0  0
 12  1  1  0  0  0  0
 14  7  1  6  0  0  0
 14 10  1  0  0  0  0
 15 17  1  0  0  0  0
 16  5  1  0  0  0  0
 17  2  1  0  0  0  0
 17 13  1  1  0  0  0
 19 18  2  0  0  0  0
 21  3  1  1  0  0  0
 21 19  1  0  0  0  0
 22 20  1  6  0  0  0
 22 21  1  0  0  0  0
 22 24  1  0  0  0  0
 23 22  1  0  0  0  0
 24 23  1  6  0  0  0
 24 25  1  0  0  0  0
 25 18  1  0  0  0  0
 25 27  1  1  0  0  0
 26 30  1  0  0  0  0
 27 31  1  0  0  0  0
 28 26  2  0  0  0  0
 29 27  2  0  0  0  0
 29 28  1  0  0  0  0
 31 30  2  0  0  0  0
 32 28  1  0  0  0  0
 33 32  1  0  0  0  0
M  END
>  <MODEL>
6

>  <REMARK>
 VINA RESULT:      -7.9      2.143      4.221
  Name = 
  3 active torsions:
  status: ('A' for Active; 'I' for Inactive)
    1  A    between atoms: N_6  and  C_12
    2  A    between atoms: C_8  and  C_23
    3  A    between atoms: C_10  and  O_22
                            x       y       z     vdW  Elec       q    Type
                         _______ _______ _______ _____ _____    ______ ____

>  <TORSDO>
F 3

$$$$
=
 OpenBabel11042415053D

 33 38  0  0  1  0  0  0  0  0999 V2000
  194.6900  175.2910  143.9520 C   0  0  0  0  0  0  0  0  0  0  0  0
  190.7080  173.7820  141.4200 C   0  0  0  0  0  2  0  0  0  0  0  0
  190.8360  175.4020  143.2570 N   0  0  0  0  0  0  0  0  0  0  0  0
  192.8590  174.6700  145.4180 C   0  0  0  0  0  3  0  0  0  0  0  0
  193.5240  173.5790  141.7830 C   0  0  2  0  0  3  0  0  0  0  0  0
  193.5090  175.2810  146.4920 C   0  0  0  0  0  3  0  0  0  0  0  0
  191.3800  174.4160  142.6240 C   0  0  0  0  0  0  0  0  0  0  0  0
  190.8630  172.1000  139.7410 O   0  0  0  0  0  1  0  0  0  0  0  0
  194.7520  175.8850  146.3030 C   0  0  0  0  0  3  0  0  0  0  0  0
  193.4270  174.6730  144.1360 C   0  0  0  0  0  0  0  0  0  0  0  0
  195.3410  175.8840  145.0370 C   0  0  0  0  0  3  0  0  0  0  0  0
  195.5080  175.3320  142.3580 S   0  0  0  0  0  0  0  0  0  0  0  0
  190.8970  171.3640  141.9820 C   0  0  0  0  0  1  0  0  0  0  0  0
  192.7210  173.8700  143.0550 C   0  0  2  0  0  3  0  0  0  0  0  0
  192.8800  172.4600  140.9600 C   0  0  0  0  0  2  0  0  0  0  0  0
  195.2730  173.2400  142.1130 S   0  0  0  0  0  0  0  0  0  0  0  0
  191.3380  172.4390  141.0060 C   0  0  2  0  0  0  0  0  0  0  0  0
  187.2630  175.9610  143.7160 C   0  0  0  0  0  3  0  0  0  0  0  0
  188.4620  175.3710  143.6770 C   0  0  0  0  0  3  0  0  0  0  0  0
  190.6840  178.2360  143.8130 C   0  0  0  0  0  1  0  0  0  0  0  0
  189.5720  175.9920  142.8790 C   0  0  1  0  0  3  0  0  0  0  0  0
  189.5740  177.5280  143.0560 C   0  0  2  0  0  0  0  0  0  0  0  0
  189.0360  178.2950  141.8710 C   0  0  0  0  0  2  0  0  0  0  0  0
  188.2130  178.2250  143.1530 C   0  0  1  0  0  3  0  0  0  0  0  0
  187.0400  177.2480  142.9640 C   0  0  2  0  0  3  0  0  0  0  0  0
  183.2890  179.0540  144.0200 C   0  0  0  0  0  3  0  0  0  0  0  0
  185.7400  177.8800  143.3470 C   0  0  0  0  0  0  0  0  0  0  0  0
  183.4440  178.4430  142.7720 C   0  0  0  0  0  0  0  0  0  0  0  0
  184.6770  177.8560  142.4410 C   0  0  0  0  0  3  0  0  0  0  0  0
  184.3470  179.0810  144.9310 C   0  0  0  0  0  3  0  0  0  0  0  0
  185.5720  178.4960  144.5970 C   0  0  0  0  0  3  0  0  0  0  0  0
  182.3660  178.4330  141.8840 O   0  0  0  0  0  0  0  0  0  0  0  0
  182.5030  178.0830  140.5130 C   0  0  0  0  0  1  0  0  0  0  0  0
  1 10  2  0  0  0  0
  1 11  1  0  0  0  0
  2  7  1  0  0  0  0
  4  6  2  0  0  0  0
  5 15  1  1  0  0  0
  5 16  1  0  0  0  0
  5 14  1  0  0  0  0
  7  3  2  0  0  0  0
  8 17  1  0  0  0  0
  9  6  1  0  0  0  0
 10  4  1  0  0  0  0
 11  9  2  0  0  0  0
 12  1  1  0  0  0  0
 14  7  1  6  0  0  0
 14 10  1  0  0  0  0
 15 17  1  0  0  0  0
 16 12  1  0  0  0  0
 17  2  1  0  0  0  0
 17 13  1  1  0  0  0
 19 18  2  0  0  0  0
 21 22  1  0  0  0  0
 21  3  1  1  0  0  0
 21 19  1  0  0  0  0
 22 24  1  0  0  0  0
 22 20  1  1  0  0  0
 23 22  1  0  0  0  0
 24 23  1  6  0  0  0
 25 24  1  0  0  0  0
 25 27  1  1  0  0  0
 25 18  1  0  0  0  0
 26 30  1  0  0  0  0
 27 31  1  0  0  0  0
 28 26  2  0  0  0  0
 29 28  1  0  0  0  0
 29 27  2  0  0  0  0
 31 30  2  0  0  0  0
 32 28  1  0  0  0  0
 33 32  1  0  0  0  0
M  END
>  <MODEL>
7

>  <REMARK>
 VINA RESULT:      -7.7      2.289      4.171
  Name = 
  3 active torsions:
  status: ('A' for Active; 'I' for Inactive)
    1  A    between atoms: N_6  and  C_12
    2  A    between atoms: C_8  and  C_23
    3  A    between atoms: C_10  and  O_22
                            x       y       z     vdW  Elec       q    Type
                         _______ _______ _______ _____ _____    ______ ____

>  <TORSDO>
F 3

$$$$
=
 OpenBabel11042415053D

 33 38  0  0  1  0  0  0  0  0999 V2000
  195.9150  174.6030  141.6300 C   0  0  0  0  0  0  0  0  0  0  0  0
  192.8570  171.9070  144.4460 C   0  0  0  0  0  2  0  0  0  0  0  0
  192.9680  174.3450  144.1990 N   0  0  0  0  0  0  0  0  0  0  0  0
  195.8010  175.4350  143.9070 C   0  0  0  0  0  3  0  0  0  0  0  0
  195.0040  171.9060  142.5780 C   0  0  2  0  0  3  0  0  0  0  0  0
  196.4310  176.6150  143.5100 C   0  0  0  0  0  3  0  0  0  0  0  0
  193.5550  173.2010  144.0700 C   0  0  0  0  0  0  0  0  0  0  0  0
  193.0450  169.5370  144.5740 O   0  0  0  0  0  1  0  0  0  0  0  0
  196.8150  176.7870  142.1800 C   0  0  0  0  0  3  0  0  0  0  0  0
  195.5230  174.4190  142.9800 C   0  0  0  0  0  0  0  0  0  0  0  0
  196.5620  175.7800  141.2460 C   0  0  0  0  0  3  0  0  0  0  0  0
  195.6210  173.3580  140.3750 S   0  0  0  0  0  0  0  0  0  0  0  0
  194.6140  170.7920  145.8110 C   0  0  0  0  0  1  0  0  0  0  0  0
  194.9590  173.1140  143.5200 C   0  0  2  0  0  3  0  0  0  0  0  0
  194.7880  170.5960  143.3390 C   0  0  0  0  0  2  0  0  0  0  0  0
  196.5100  171.8510  141.5720 S   0  0  0  0  0  0  0  0  0  0  0  0
  193.8100  170.7000  144.5270 C   0  0  2  0  0  0  0  0  0  0  0  0
  190.3770  176.1330  146.0380 C   0  0  0  0  0  3  0  0  0  0  0  0
  191.5590  175.6190  145.6850 C   0  0  0  0  0  3  0  0  0  0  0  0
  191.0770  175.0640  142.1320 C   0  0  0  0  0  1  0  0  0  0  0  0
  191.6160  174.4980  144.6880 C   0  0  1  0  0  3  0  0  0  0  0  0
  190.6090  174.7410  143.5410 C   0  0  2  0  0  0  0  0  0  0  0  0
  189.3660  173.8840  143.6060 C   0  0  0  0  0  2  0  0  0  0  0  0
  189.2640  175.3750  143.9100 C   0  0  1  0  0  3  0  0  0  0  0  0
  189.1130  175.5870  145.4250 C   0  0  2  0  0  3  0  0  0  0  0  0
  185.7480  178.1160  146.2780 C   0  0  0  0  0  3  0  0  0  0  0  0
  187.9400  176.4590  145.7380 C   0  0  0  0  0  0  0  0  0  0  0  0
  186.3640  178.1700  145.0240 C   0  0  0  0  0  0  0  0  0  0  0  0
  187.4630  177.3370  144.7590 C   0  0  0  0  0  3  0  0  0  0  0  0
  186.2200  177.2420  147.2600 C   0  0  0  0  0  3  0  0  0  0  0  0
  187.3140  176.4140  146.9930 C   0  0  0  0  0  3  0  0  0  0  0  0
  185.8680  179.0560  144.0640 O   0  0  0  0  0  0  0  0  0  0  0  0
  185.6150  178.6690  142.7200 C   0  0  0  0  0  1  0  0  0  0  0  0
  1 10  1  0  0  0  0
  2 17  1  0  0  0  0
  5 15  1  1  0  0  0
  5 14  1  0  0  0  0
  6  4  1  0  0  0  0
  7  3  2  0  0  0  0
  7  2  1  0  0  0  0
  9  6  2  0  0  0  0
 10  4  2  0  0  0  0
 11  1  2  0  0  0  0
 11  9  1  0  0  0  0
 12 16  1  0  0  0  0
 12  1  1  0  0  0  0
 14 10  1  6  0  0  0
 14  7  1  0  0  0  0
 15 17  1  0  0  0  0
 16  5  1  0  0  0  0
 17  8  1  0  0  0  0
 17 13  1  1  0  0  0
 19 18  2  0  0  0  0
 21  3  1  6  0  0  0
 21 19  1  0  0  0  0
 22 20  1  6  0  0  0
 22 23  1  0  0  0  0
 22 24  1  0  0  0  0
 22 21  1  0  0  0  0
 24 23  1  1  0  0  0
 24 25  1  0  0  0  0
 25 27  1  6  0  0  0
 25 18  1  0  0  0  0
 26 30  1  0  0  0  0
 27 31  1  0  0  0  0
 28 26  2  0  0  0  0
 29 28  1  0  0  0  0
 29 27  2  0  0  0  0
 31 30  2  0  0  0  0
 32 28  1  0  0  0  0
 33 32  1  0  0  0  0
M  END
>  <MODEL>
8

>  <REMARK>
 VINA RESULT:      -7.7      2.335      4.234
  Name = 
  3 active torsions:
  status: ('A' for Active; 'I' for Inactive)
    1  A    between atoms: N_6  and  C_12
    2  A    between atoms: C_8  and  C_23
    3  A    between atoms: C_10  and  O_22
                            x       y       z     vdW  Elec       q    Type
                         _______ _______ _______ _____ _____    ______ ____

>  <TORSDO>
F 3

$$$$
=
 OpenBabel11042415053D

 33 38  0  0  1  0  0  0  0  0999 V2000
  195.2470  174.8090  142.8870 C   0  0  0  0  0  0  0  0  0  0  0  0
  190.3060  174.8900  142.5530 C   0  0  0  0  0  2  0  0  0  0  0  0
  191.7240  175.4740  144.4660 N   0  0  0  0  0  0  0  0  0  0  0  0
  194.1890  173.7030  144.7690 C   0  0  0  0  0  3  0  0  0  0  0  0
  192.7770  174.3630  141.2440 C   0  0  2  0  0  3  0  0  0  0  0  0
  195.4020  173.7090  145.4580 C   0  0  0  0  0  3  0  0  0  0  0  0
  191.6030  174.8560  143.3380 C   0  0  0  0  0  0  0  0  0  0  0  0
  189.1770  174.1630  140.5860 O   0  0  0  0  0  1  0  0  0  0  0  0
  196.5400  174.2510  144.8620 C   0  0  0  0  0  3  0  0  0  0  0  0
  194.0860  174.2580  143.4850 C   0  0  0  0  0  0  0  0  0  0  0  0
  196.4620  174.7930  143.5780 C   0  0  0  0  0  3  0  0  0  0  0  0
  195.2250  175.5250  141.2440 S   0  0  0  0  0  0  0  0  0  0  0  0
  190.0030  172.4780  142.0170 C   0  0  0  0  0  1  0  0  0  0  0  0
  192.7640  174.0880  142.7510 C   0  0  2  0  0  3  0  0  0  0  0  0
  191.5320  173.7920  140.5620 C   0  0  0  0  0  2  0  0  0  0  0  0
  194.2970  173.7990  140.4360 S   0  0  0  0  0  0  0  0  0  0  0  0
  190.2500  173.8510  141.4180 C   0  0  2  0  0  0  0  0  0  0  0  0
  188.7470  177.5700  144.2820 C   0  0  0  0  0  3  0  0  0  0  0  0
  189.9370  177.0250  144.0070 C   0  0  0  0  0  3  0  0  0  0  0  0
  189.7050  173.8540  145.7550 C   0  0  0  0  0  1  0  0  0  0  0  0
  190.6650  176.2510  145.0680 C   0  0  1  0  0  3  0  0  0  0  0  0
  189.6810  175.3690  145.8680 C   0  0  2  0  0  0  0  0  0  0  0  0
  189.3540  175.8880  147.2490 C   0  0  0  0  0  2  0  0  0  0  0  0
  188.2920  175.9490  146.1560 C   0  0  1  0  0  3  0  0  0  0  0  0
  188.1460  177.3950  145.6540 C   0  0  2  0  0  3  0  0  0  0  0  0
  184.0440  178.6660  145.6750 C   0  0  0  0  0  3  0  0  0  0  0  0
  186.7180  177.8370  145.6780 C   0  0  0  0  0  0  0  0  0  0  0  0
  184.6910  178.4130  144.4620 C   0  0  0  0  0  0  0  0  0  0  0  0
  186.0330  177.9970  144.4710 C   0  0  0  0  0  3  0  0  0  0  0  0
  184.7230  178.5080  146.8860 C   0  0  0  0  0  3  0  0  0  0  0  0
  186.0580  178.0940  146.8900 C   0  0  0  0  0  3  0  0  0  0  0  0
  183.9840  178.5810  143.2690 O   0  0  0  0  0  0  0  0  0  0  0  0
  184.5360  178.2660  141.9980 C   0  0  0  0  0  1  0  0  0  0  0  0
  1 10  2  0  0  0  0
  1 11  1  0  0  0  0
  2  7  1  0  0  0  0
  4  6  2  0  0  0  0
  5 15  1  6  0  0  0
  5 14  1  0  0  0  0
  7  3  2  0  0  0  0
  8 17  1  0  0  0  0
  9  6  1  0  0  0  0
 10  4  1  0  0  0  0
 11  9  2  0  0  0  0
 12  1  1  0  0  0  0
 14  7  1  1  0  0  0
 14 10  1  0  0  0  0
 15 17  1  0  0  0  0
 16  5  1  0  0  0  0
 16 12  1  0  0  0  0
 17 13  1  1  0  0  0
 17  2  1  0  0  0  0
 18 25  1  0  0  0  0
 19 18  2  0  0  0  0
 19 21  1  0  0  0  0
 21  3  1  6  0  0  0
 21 22  1  0  0  0  0
 22 20  1  6  0  0  0
 22 24  1  0  0  0  0
 22 23  1  0  0  0  0
 24 23  1  1  0  0  0
 25 27  1  6  0  0  0
 25 24  1  0  0  0  0
 26 30  1  0  0  0  0
 27 31  1  0  0  0  0
 28 29  1  0  0  0  0
 28 26  2  0  0  0  0
 29 27  2  0  0  0  0
 30 31  2  0  0  0  0
 32 28  1  0  0  0  0
 33 32  1  0  0  0  0
M  END
>  <MODEL>
9

>  <REMARK>
 VINA RESULT:      -7.6      2.211      3.627
  Name = 
  3 active torsions:
  status: ('A' for Active; 'I' for Inactive)
    1  A    between atoms: N_6  and  C_12
    2  A    between atoms: C_8  and  C_23
    3  A    between atoms: C_10  and  O_22
                            x       y       z     vdW  Elec       q    Type
                         _______ _______ _______ _____ _____    ______ ____

>  <TORSDO>
F 3

$$$$
