=
 OpenBabel11042418253D

 28 31  0  0  1  0  0  0  0  0999 V2000
  187.9130  177.0010  143.7910 C   0  0  0  0  0  0  0  0  0  0  0  0
  186.6340  175.2870  142.7770 O   0  0  0  0  0  1  0  0  0  0  0  0
  187.7790  176.0780  142.8250 C   0  0  0  0  0  0  0  0  0  0  0  0
  184.8910  178.9580  146.8720 C   0  0  0  0  0  2  0  0  0  0  0  0
  184.9440  178.7620  145.3540 C   0  0  0  0  0  2  0  0  0  0  0  0
  186.7970  177.1990  144.7800 C   0  0  0  0  0  3  0  0  0  0  0  0
  186.0480  176.7060  147.1550 C   0  0  0  0  0  2  0  0  0  0  0  0
  186.3640  178.6630  144.8150 C   0  0  0  0  0  2  0  0  0  0  0  0
  187.1960  176.6580  146.1540 C   0  0  0  0  0  2  0  0  0  0  0  0
  185.8910  178.1250  147.6800 C   0  0  0  0  0  2  0  0  0  0  0  0
  188.7420  174.4440  141.1890 C   0  0  0  0  0  2  0  0  0  0  0  0
  191.1290  174.6060  141.7000 N   0  0  0  0  0  2  0  0  0  0  0  0
  189.6960  173.7520  143.3830 C   0  0  0  0  0  2  0  0  0  0  0  0
  190.9110  173.2160  143.4020 C   0  0  0  0  0  0  0  0  0  0  0  0
  189.7930  174.6980  142.2410 C   0  0  2  0  0  0  0  0  0  0  0  0
  191.7620  173.7440  142.3840 N   0  0  0  0  0  0  0  0  0  0  0  0
  188.8710  175.8330  141.8170 C   0  0  2  0  0  3  0  0  0  0  0  0
  191.3590  172.2020  144.4000 C   0  0  0  0  0  2  0  0  0  0  0  0
  193.7210  171.8030  145.1030 C   0  0  0  0  0  1  0  0  0  0  0  0
  192.6970  171.6010  144.0010 C   0  0  0  0  0  2  0  0  0  0  0  0
  189.1140  177.7820  143.8730 N   0  0  0  0  0  2  0  0  0  0  0  0
  189.9390  177.7680  145.0050 N   0  0  0  0  0  2  0  0  0  0  0  0
  193.4000  175.4110  145.1890 N   0  0  0  0  0  0  0  0  0  0  0  0
  192.1490  177.1420  144.1210 C   0  0  0  0  0  3  0  0  0  0  0  0
  192.4150  175.2270  146.1080 C   0  0  0  0  0  3  0  0  0  0  0  0
  191.2570  176.0060  146.0580 C   0  0  0  0  0  3  0  0  0  0  0  0
  193.2920  176.3440  144.2050 C   0  0  0  0  0  3  0  0  0  0  0  0
  191.1220  176.9710  145.0570 C   0  0  0  0  0  0  0  0  0  0  0  0
  1 21  1  0  0  0  0
  1  6  1  0  0  0  0
  2  3  1  0  0  0  0
  3  1  2  0  0  0  0
  4 10  1  0  0  0  0
  5  4  1  0  0  0  0
  6  8  1  0  0  0  0
  6  9  1  0  0  0  0
  7 10  1  0  0  0  0
  8  5  1  0  0  0  0
  9  7  1  0  0  0  0
 11 17  1  0  0  0  0
 12 15  1  0  0  0  0
 12 16  1  0  0  0  0
 13 14  1  0  0  0  0
 14 18  1  0  0  0  0
 15 11  1  6  0  0  0
 15 13  1  0  0  0  0
 16 14  2  0  0  0  0
 17 15  1  0  0  0  0
 17  3  1  1  0  0  0
 20 18  1  0  0  0  0
 20 19  1  0  0  0  0
 21 22  1  0  0  0  0
 22 28  1  0  0  0  0
 23 25  1  0  0  0  0
 24 27  1  0  0  0  0
 24 28  2  0  0  0  0
 26 25  2  0  0  0  0
 27 23  2  0  0  0  0
 28 26  1  0  0  0  0
M  END
>  <MODEL>
1

>  <REMARK>
 VINA RESULT:      -6.4      0.000      0.000
  Name = 
  7 active torsions:
  status: ('A' for Active; 'I' for Inactive)
    1  A    between atoms: N_2  and  N_15
    2  A    between atoms: N_2  and  C_25
    3  A    between atoms: C_7  and  C_25
    4  A    between atoms: C_13  and  C_14
    5  A    between atoms: C_13  and  C_27
    6  A    between atoms: N_15  and  C_19
    7  A    between atoms: C_22  and  C_28
                            x       y       z     vdW  Elec       q    Type
                         _______ _______ _______ _____ _____    ______ ____

>  <TORSDO>
F 7

$$$$
=
 OpenBabel11042418253D

 28 31  0  0  1  0  0  0  0  0999 V2000
  188.3840  177.5390  143.5990 C   0  0  0  0  0  0  0  0  0  0  0  0
  190.1050  177.8290  145.1990 O   0  0  0  0  0  1  0  0  0  0  0  0
  189.6860  177.4680  143.9200 C   0  0  0  0  0  0  0  0  0  0  0  0
  184.7550  177.5650  146.6460 C   0  0  0  0  0  2  0  0  0  0  0  0
  186.2260  177.1400  146.6880 C   0  0  0  0  0  2  0  0  0  0  0  0
  187.3900  177.9630  144.6440 C   0  0  0  0  0  3  0  0  0  0  0  0
  185.4030  179.4780  145.0930 C   0  0  0  0  0  2  0  0  0  0  0  0
  186.7700  176.7430  145.3230 C   0  0  0  0  0  2  0  0  0  0  0  0
  186.3490  178.9090  144.0430 C   0  0  0  0  0  2  0  0  0  0  0  0
  184.3550  178.4360  145.4510 C   0  0  0  0  0  2  0  0  0  0  0  0
  191.0080  175.5580  142.9830 C   0  0  0  0  0  2  0  0  0  0  0  0
  193.2430  176.5430  142.8490 N   0  0  0  0  0  2  0  0  0  0  0  0
  192.2880  176.2620  145.0000 C   0  0  0  0  0  2  0  0  0  0  0  0
  193.6100  176.1280  144.9870 C   0  0  0  0  0  0  0  0  0  0  0  0
  191.9910  176.5400  143.5710 C   0  0  2  0  0  0  0  0  0  0  0  0
  194.1690  176.3050  143.6840 N   0  0  0  0  0  0  0  0  0  0  0  0
  190.7230  177.0590  142.9080 C   0  0  2  0  0  3  0  0  0  0  0  0
  194.4330  175.8640  146.2020 C   0  0  0  0  0  2  0  0  0  0  0  0
  194.8470  173.4870  145.5620 C   0  0  0  0  0  1  0  0  0  0  0  0
  195.4940  174.8120  145.9220 C   0  0  0  0  0  2  0  0  0  0  0  0
  187.9570  177.2150  142.2680 N   0  0  0  0  0  2  0  0  0  0  0  0
  187.2440  176.0440  141.9760 N   0  0  0  0  0  2  0  0  0  0  0  0
  189.1950  172.5490  140.7330 N   0  0  0  0  0  0  0  0  0  0  0  0
  188.0060  173.7470  142.4230 C   0  0  0  0  0  3  0  0  0  0  0  0
  189.1100  173.6080  139.8830 C   0  0  0  0  0  3  0  0  0  0  0  0
  188.4620  174.7780  140.2850 C   0  0  0  0  0  3  0  0  0  0  0  0
  188.6610  172.5950  141.9840 C   0  0  0  0  0  3  0  0  0  0  0  0
  187.9060  174.8490  141.5650 C   0  0  0  0  0  0  0  0  0  0  0  0
  1  3  2  0  0  0  0
  1  6  1  0  0  0  0
  3  2  1  0  0  0  0
  4  5  1  0  0  0  0
  6  8  1  0  0  0  0
  7 10  1  0  0  0  0
  8  5  1  0  0  0  0
  9  6  1  0  0  0  0
  9  7  1  0  0  0  0
 10  4  1  0  0  0  0
 12 15  1  0  0  0  0
 12 16  1  0  0  0  0
 14 13  1  0  0  0  0
 14 18  1  0  0  0  0
 15 11  1  6  0  0  0
 15 13  1  0  0  0  0
 16 14  2  0  0  0  0
 17 11  1  0  0  0  0
 17 15  1  0  0  0  0
 17  3  1  1  0  0  0
 19 20  1  0  0  0  0
 20 18  1  0  0  0  0
 21  1  1  0  0  0  0
 22 21  1  0  0  0  0
 23 27  1  0  0  0  0
 25 26  1  0  0  0  0
 25 23  2  0  0  0  0
 26 28  2  0  0  0  0
 27 24  2  0  0  0  0
 28 22  1  0  0  0  0
 28 24  1  0  0  0  0
M  END
>  <MODEL>
2

>  <REMARK>
 VINA RESULT:      -6.3      2.113      4.113
  Name = 
  7 active torsions:
  status: ('A' for Active; 'I' for Inactive)
    1  A    between atoms: N_2  and  N_15
    2  A    between atoms: N_2  and  C_25
    3  A    between atoms: C_7  and  C_25
    4  A    between atoms: C_13  and  C_14
    5  A    between atoms: C_13  and  C_27
    6  A    between atoms: N_15  and  C_19
    7  A    between atoms: C_22  and  C_28
                            x       y       z     vdW  Elec       q    Type
                         _______ _______ _______ _____ _____    ______ ____

>  <TORSDO>
F 7

$$$$
=
 OpenBabel11042418253D

 28 31  0  0  1  0  0  0  0  0999 V2000
  190.1430  175.1450  143.6350 C   0  0  0  0  0  0  0  0  0  0  0  0
  190.1250  173.4940  145.3320 O   0  0  0  0  0  1  0  0  0  0  0  0
  190.2910  174.8180  144.9290 C   0  0  0  0  0  0  0  0  0  0  0  0
  189.7740  172.7050  139.5900 C   0  0  0  0  0  2  0  0  0  0  0  0
  190.8410  172.8870  140.6740 C   0  0  0  0  0  2  0  0  0  0  0  0
  189.8470  174.0650  142.6310 C   0  0  0  0  0  3  0  0  0  0  0  0
  187.9830  172.8680  141.3940 C   0  0  0  0  0  2  0  0  0  0  0  0
  190.7340  174.2210  141.3980 C   0  0  0  0  0  2  0  0  0  0  0  0
  188.3550  174.0360  142.2980 C   0  0  0  0  0  2  0  0  0  0  0  0
  188.3700  173.1930  139.9590 C   0  0  0  0  0  2  0  0  0  0  0  0
  190.1350  175.3910  147.3620 C   0  0  0  0  0  2  0  0  0  0  0  0
  189.2960  177.6870  147.2600 N   0  0  0  0  0  0  0  0  0  0  0  0
  187.8890  175.9610  146.4510 C   0  0  0  0  0  3  0  0  0  0  0  0
  187.2230  176.9720  146.9980 C   0  0  0  0  0  0  0  0  0  0  0  0
  189.3000  176.3970  146.6090 C   0  0  2  0  0  0  0  0  0  0  0  0
  188.0860  178.0050  147.4760 N   0  0  0  0  0  0  0  0  0  0  0  0
  190.5770  175.8620  145.9750 C   0  0  2  0  0  3  0  0  0  0  0  0
  185.7360  177.0480  147.0710 C   0  0  0  0  0  2  0  0  0  0  0  0
  184.1180  178.6230  146.0050 C   0  0  0  0  0  1  0  0  0  0  0  0
  185.2610  178.4910  146.9950 C   0  0  0  0  0  2  0  0  0  0  0  0
  190.2640  176.5150  143.2260 N   0  0  0  0  0  2  0  0  0  0  0  0
  189.2640  177.4630  143.4830 N   0  0  0  0  0  2  0  0  0  0  0  0
  185.7100  177.5350  141.2630 N   0  0  0  0  0  0  0  0  0  0  0  0
  186.8070  177.3800  143.3790 C   0  0  0  0  0  3  0  0  0  0  0  0
  186.9040  177.6390  140.6200 C   0  0  0  0  0  3  0  0  0  0  0  0
  188.0960  177.6170  141.3480 C   0  0  0  0  0  3  0  0  0  0  0  0
  185.6380  177.4070  142.6150 C   0  0  0  0  0  3  0  0  0  0  0  0
  188.0470  177.4850  142.7380 C   0  0  0  0  0  0  0  0  0  0  0  0
  1  3  2  0  0  0  0
  3  2  1  0  0  0  0
  4 10  1  0  0  0  0
  4  5  1  0  0  0  0
  5  8  1  0  0  0  0
  6  1  1  0  0  0  0
  7  9  1  0  0  0  0
  8  6  1  0  0  0  0
  9  6  1  0  0  0  0
 10  7  1  0  0  0  0
 12 16  2  0  0  0  0
 13 14  2  0  0  0  0
 14 18  1  0  0  0  0
 14 16  1  0  0  0  0
 15 13  1  6  0  0  0
 15 12  1  0  0  0  0
 15 11  1  0  0  0  0
 17  3  1  6  0  0  0
 17 15  1  0  0  0  0
 17 11  1  0  0  0  0
 19 20  1  0  0  0  0
 20 18  1  0  0  0  0
 21 22  1  0  0  0  0
 21  1  1  0  0  0  0
 23 27  1  0  0  0  0
 25 23  2  0  0  0  0
 25 26  1  0  0  0  0
 26 28  2  0  0  0  0
 27 24  2  0  0  0  0
 28 24  1  0  0  0  0
 28 22  1  0  0  0  0
M  END
>  <MODEL>
3

>  <REMARK>
 VINA RESULT:      -6.3      2.309      6.913
  Name = 
  7 active torsions:
  status: ('A' for Active; 'I' for Inactive)
    1  A    between atoms: N_2  and  N_15
    2  A    between atoms: N_2  and  C_25
    3  A    between atoms: C_7  and  C_25
    4  A    between atoms: C_13  and  C_14
    5  A    between atoms: C_13  and  C_27
    6  A    between atoms: N_15  and  C_19
    7  A    between atoms: C_22  and  C_28
                            x       y       z     vdW  Elec       q    Type
                         _______ _______ _______ _____ _____    ______ ____

>  <TORSDO>
F 7

$$$$
=
 OpenBabel11042418253D

 28 31  0  0  1  0  0  0  0  0999 V2000
  189.8680  176.0250  143.7810 C   0  0  0  0  0  0  0  0  0  0  0  0
  190.2040  178.1470  142.7860 O   0  0  0  0  0  1  0  0  0  0  0  0
  189.4740  176.9660  142.9090 C   0  0  0  0  0  0  0  0  0  0  0  0
  194.2690  175.6240  145.4920 C   0  0  0  0  0  2  0  0  0  0  0  0
  193.6000  176.3760  144.3380 C   0  0  0  0  0  2  0  0  0  0  0  0
  191.1240  176.2420  144.5810 C   0  0  0  0  0  3  0  0  0  0  0  0
  192.1630  175.9810  146.8820 C   0  0  0  0  0  2  0  0  0  0  0  0
  192.3370  175.6920  143.8340 C   0  0  0  0  0  2  0  0  0  0  0  0
  190.9720  175.6620  145.9880 C   0  0  0  0  0  2  0  0  0  0  0  0
  193.3160  175.0470  146.5430 C   0  0  0  0  0  2  0  0  0  0  0  0
  187.7200  178.1520  141.5710 C   0  0  0  0  0  2  0  0  0  0  0  0
  185.6810  177.0870  142.4050 N   0  0  0  0  0  2  0  0  0  0  0  0
  186.9540  178.3800  143.9300 C   0  0  0  0  0  2  0  0  0  0  0  0
  185.6470  178.4160  144.1690 C   0  0  0  0  0  0  0  0  0  0  0  0
  187.0270  177.4940  142.7390 C   0  0  2  0  0  0  0  0  0  0  0  0
  184.8970  177.6280  143.2430 N   0  0  0  0  0  0  0  0  0  0  0  0
  188.2190  176.8030  142.0930 C   0  0  2  0  0  3  0  0  0  0  0  0
  185.0270  179.1610  145.3020 C   0  0  0  0  0  2  0  0  0  0  0  0
  185.1020  177.1060  146.7190 C   0  0  0  0  0  1  0  0  0  0  0  0
  184.2230  178.2260  146.1920 C   0  0  0  0  0  2  0  0  0  0  0  0
  189.0910  174.8310  143.9450 N   0  0  0  0  0  2  0  0  0  0  0  0
  189.4840  173.6020  143.3960 N   0  0  0  0  0  2  0  0  0  0  0  0
  189.5600  172.9710  139.2530 N   0  0  0  0  0  0  0  0  0  0  0  0
  188.3170  173.0980  141.2890 C   0  0  0  0  0  3  0  0  0  0  0  0
  190.7180  173.2480  139.9110 C   0  0  0  0  0  3  0  0  0  0  0  0
  190.7070  173.4610  141.2910 C   0  0  0  0  0  3  0  0  0  0  0  0
  188.3710  172.8920  139.9090 C   0  0  0  0  0  3  0  0  0  0  0  0
  189.4970  173.3850  141.9860 C   0  0  0  0  0  0  0  0  0  0  0  0
  1 21  1  0  0  0  0
  1  6  1  0  0  0  0
  2  3  1  0  0  0  0
  3  1  2  0  0  0  0
  4 10  1  0  0  0  0
  5  4  1  0  0  0  0
  6  9  1  0  0  0  0
  8  5  1  0  0  0  0
  8  6  1  0  0  0  0
  9  7  1  0  0  0  0
 10  7  1  0  0  0  0
 11 17  1  0  0  0  0
 12 15  1  0  0  0  0
 12 16  1  0  0  0  0
 13 14  1  0  0  0  0
 14 18  1  0  0  0  0
 15 11  1  6  0  0  0
 15 13  1  0  0  0  0
 16 14  2  0  0  0  0
 17 15  1  0  0  0  0
 17  3  1  1  0  0  0
 18 20  1  0  0  0  0
 20 19  1  0  0  0  0
 22 21  1  0  0  0  0
 23 27  2  0  0  0  0
 23 25  1  0  0  0  0
 24 28  2  0  0  0  0
 25 26  2  0  0  0  0
 26 28  1  0  0  0  0
 27 24  1  0  0  0  0
 28 22  1  0  0  0  0
M  END
>  <MODEL>
4

>  <REMARK>
 VINA RESULT:      -6.2      2.269      6.561
  Name = 
  7 active torsions:
  status: ('A' for Active; 'I' for Inactive)
    1  A    between atoms: N_2  and  N_15
    2  A    between atoms: N_2  and  C_25
    3  A    between atoms: C_7  and  C_25
    4  A    between atoms: C_13  and  C_14
    5  A    between atoms: C_13  and  C_27
    6  A    between atoms: N_15  and  C_19
    7  A    between atoms: C_22  and  C_28
                            x       y       z     vdW  Elec       q    Type
                         _______ _______ _______ _____ _____    ______ ____

>  <TORSDO>
F 7

$$$$
=
 OpenBabel11042418253D

 28 31  0  0  1  0  0  0  0  0999 V2000
  188.9150  176.3140  146.4280 C   0  0  0  0  0  0  0  0  0  0  0  0
  190.1110  177.9560  147.6450 O   0  0  0  0  0  1  0  0  0  0  0  0
  190.0180  176.6750  147.1040 C   0  0  0  0  0  0  0  0  0  0  0  0
  184.5740  178.2130  146.3650 C   0  0  0  0  0  2  0  0  0  0  0  0
  185.6530  177.9660  147.4230 C   0  0  0  0  0  2  0  0  0  0  0  0
  187.7750  177.2880  146.3070 C   0  0  0  0  0  3  0  0  0  0  0  0
  186.4150  178.6620  144.6620 C   0  0  0  0  0  2  0  0  0  0  0  0
  186.5600  176.7910  147.0870 C   0  0  0  0  0  2  0  0  0  0  0  0
  187.4680  177.5740  144.8360 C   0  0  0  0  0  2  0  0  0  0  0  0
  185.0330  178.0750  144.9100 C   0  0  0  0  0  2  0  0  0  0  0  0
  192.5120  176.5140  147.2590 C   0  0  0  0  0  2  0  0  0  0  0  0
  192.9670  174.6560  145.7330 N   0  0  0  0  0  2  0  0  0  0  0  0
  192.0540  176.6400  144.8140 C   0  0  0  0  0  2  0  0  0  0  0  0
  192.8720  176.0020  143.9850 C   0  0  0  0  0  0  0  0  0  0  0  0
  192.0900  175.7680  146.0170 C   0  0  2  0  0  0  0  0  0  0  0  0
  193.4100  174.8060  144.5530 N   0  0  0  0  0  0  0  0  0  0  0  0
  191.1910  175.7420  147.2450 C   0  0  2  0  0  3  0  0  0  0  0  0
  193.1700  176.4530  142.5950 C   0  0  0  0  0  2  0  0  0  0  0  0
  195.6030  176.3110  142.0570 C   0  0  0  0  0  1  0  0  0  0  0  0
  194.2640  175.6030  141.9690 C   0  0  0  0  0  2  0  0  0  0  0  0
  188.8370  175.0130  145.8280 N   0  0  0  0  0  2  0  0  0  0  0  0
  188.9680  174.8190  144.4460 N   0  0  0  0  0  2  0  0  0  0  0  0
  191.5470  171.9300  142.8430 N   0  0  0  0  0  0  0  0  0  0  0  0
  190.2400  172.7250  144.6770 C   0  0  0  0  0  3  0  0  0  0  0  0
  191.1780  172.9950  142.0820 C   0  0  0  0  0  3  0  0  0  0  0  0
  190.3180  173.9640  142.6040 C   0  0  0  0  0  3  0  0  0  0  0  0
  191.1000  171.7770  144.1190 C   0  0  0  0  0  3  0  0  0  0  0  0
  189.8460  173.8290  143.9120 C   0  0  0  0  0  0  0  0  0  0  0  0
  1  3  2  0  0  0  0
  3  2  1  0  0  0  0
  4  5  1  0  0  0  0
  6  1  1  0  0  0  0
  6  8  1  0  0  0  0
  7  9  1  0  0  0  0
  7 10  1  0  0  0  0
  8  5  1  0  0  0  0
  9  6  1  0  0  0  0
 10  4  1  0  0  0  0
 12 15  1  0  0  0  0
 14 16  2  0  0  0  0
 14 13  1  0  0  0  0
 15 13  1  6  0  0  0
 15 17  1  0  0  0  0
 15 11  1  0  0  0  0
 16 12  1  0  0  0  0
 17  3  1  6  0  0  0
 17 11  1  0  0  0  0
 18 14  1  0  0  0  0
 20 19  1  0  0  0  0
 20 18  1  0  0  0  0
 21  1  1  0  0  0  0
 22 21  1  0  0  0  0
 23 27  1  0  0  0  0
 25 26  1  0  0  0  0
 25 23  2  0  0  0  0
 26 28  2  0  0  0  0
 27 24  2  0  0  0  0
 28 22  1  0  0  0  0
 28 24  1  0  0  0  0
M  END
>  <MODEL>
5

>  <REMARK>
 VINA RESULT:      -6.2      2.015      4.252
  Name = 
  7 active torsions:
  status: ('A' for Active; 'I' for Inactive)
    1  A    between atoms: N_2  and  N_15
    2  A    between atoms: N_2  and  C_25
    3  A    between atoms: C_7  and  C_25
    4  A    between atoms: C_13  and  C_14
    5  A    between atoms: C_13  and  C_27
    6  A    between atoms: N_15  and  C_19
    7  A    between atoms: C_22  and  C_28
                            x       y       z     vdW  Elec       q    Type
                         _______ _______ _______ _____ _____    ______ ____

>  <TORSDO>
F 7

$$$$
=
 OpenBabel11042418253D

 28 31  0  0  1  0  0  0  0  0999 V2000
  191.4100  173.9950  143.8680 C   0  0  0  0  0  0  0  0  0  0  0  0
  191.6750  174.8720  141.6850 O   0  0  0  0  0  1  0  0  0  0  0  0
  190.9110  174.2030  142.6400 C   0  0  0  0  0  0  0  0  0  0  0  0
  195.5320  174.7600  146.0780 C   0  0  0  0  0  2  0  0  0  0  0  0
  194.9430  173.6550  145.1970 C   0  0  0  0  0  2  0  0  0  0  0  0
  192.8110  174.4470  144.1800 C   0  0  0  0  0  3  0  0  0  0  0  0
  194.2440  176.4760  144.7030 C   0  0  0  0  0  2  0  0  0  0  0  0
  193.4250  173.5760  145.2740 C   0  0  0  0  0  2  0  0  0  0  0  0
  192.8310  175.9390  144.5180 C   0  0  0  0  0  2  0  0  0  0  0  0
  194.7610  176.0830  146.0800 C   0  0  0  0  0  2  0  0  0  0  0  0
  189.0480  174.4470  140.9830 C   0  0  0  0  0  2  0  0  0  0  0  0
  187.1210  174.7120  142.4660 N   0  0  0  0  0  0  0  0  0  0  0  0
  188.7810  176.4030  142.5030 C   0  0  0  0  0  3  0  0  0  0  0  0
  187.5550  176.8610  142.7320 C   0  0  0  0  0  0  0  0  0  0  0  0
  188.5370  174.9490  142.3110 C   0  0  2  0  0  0  0  0  0  0  0  0
  186.5680  175.8290  142.7110 N   0  0  0  0  0  0  0  0  0  0  0  0
  189.5110  173.7800  142.2790 C   0  0  2  0  0  3  0  0  0  0  0  0
  187.2410  178.2900  143.0230 C   0  0  0  0  0  2  0  0  0  0  0  0
  185.5340  179.7320  144.1360 C   0  0  0  0  0  1  0  0  0  0  0  0
  186.2700  178.4060  144.1880 C   0  0  0  0  0  2  0  0  0  0  0  0
  190.6070  173.3510  144.8680 N   0  0  0  0  0  2  0  0  0  0  0  0
  189.6200  174.0360  145.5890 N   0  0  0  0  0  2  0  0  0  0  0  0
  190.4970  177.4850  147.8050 N   0  0  0  0  0  0  0  0  0  0  0  0
  190.8920  175.1700  147.3650 C   0  0  0  0  0  3  0  0  0  0  0  0
  189.5550  177.5390  146.8250 C   0  0  0  0  0  3  0  0  0  0  0  0
  189.2540  176.3970  146.0790 C   0  0  0  0  0  3  0  0  0  0  0  0
  191.1650  176.3340  148.0880 C   0  0  0  0  0  3  0  0  0  0  0  0
  189.9270  175.2030  146.3510 C   0  0  0  0  0  0  0  0  0  0  0  0
  1  6  1  0  0  0  0
  1 21  1  0  0  0  0
  2  3  1  0  0  0  0
  3  1  2  0  0  0  0
  4 10  1  0  0  0  0
  5  8  1  0  0  0  0
  5  4  1  0  0  0  0
  6  9  1  0  0  0  0
  6  8  1  0  0  0  0
  7 10  1  0  0  0  0
  9  7  1  0  0  0  0
 11 17  1  0  0  0  0
 12 16  2  0  0  0  0
 13 14  2  0  0  0  0
 14 18  1  0  0  0  0
 15 11  1  6  0  0  0
 15 12  1  0  0  0  0
 15 13  1  0  0  0  0
 16 14  1  0  0  0  0
 17 15  1  0  0  0  0
 17  3  1  1  0  0  0
 18 20  1  0  0  0  0
 19 20  1  0  0  0  0
 21 22  1  0  0  0  0
 22 28  1  0  0  0  0
 23 27  1  0  0  0  0
 24 27  2  0  0  0  0
 25 23  2  0  0  0  0
 26 28  2  0  0  0  0
 26 25  1  0  0  0  0
 28 24  1  0  0  0  0
M  END
>  <MODEL>
6

>  <REMARK>
 VINA RESULT:      -6.0      2.329      6.302
  Name = 
  7 active torsions:
  status: ('A' for Active; 'I' for Inactive)
    1  A    between atoms: N_2  and  N_15
    2  A    between atoms: N_2  and  C_25
    3  A    between atoms: C_7  and  C_25
    4  A    between atoms: C_13  and  C_14
    5  A    between atoms: C_13  and  C_27
    6  A    between atoms: N_15  and  C_19
    7  A    between atoms: C_22  and  C_28
                            x       y       z     vdW  Elec       q    Type
                         _______ _______ _______ _____ _____    ______ ____

>  <TORSDO>
F 7

$$$$
=
 OpenBabel11042418253D

 28 31  0  0  1  0  0  0  0  0999 V2000
  189.9860  175.9190  143.7170 C   0  0  0  0  0  0  0  0  0  0  0  0
  190.3470  178.0300  142.7080 O   0  0  0  0  0  1  0  0  0  0  0  0
  189.6050  176.8570  142.8360 C   0  0  0  0  0  0  0  0  0  0  0  0
  194.4020  175.5390  145.3940 C   0  0  0  0  0  2  0  0  0  0  0  0
  193.7120  176.3240  144.2740 C   0  0  0  0  0  2  0  0  0  0  0  0
  191.2410  176.1280  144.5200 C   0  0  0  0  0  3  0  0  0  0  0  0
  192.2950  175.7950  146.8040 C   0  0  0  0  0  2  0  0  0  0  0  0
  192.4620  175.6350  143.7470 C   0  0  0  0  0  2  0  0  0  0  0  0
  191.1070  175.4880  145.9020 C   0  0  0  0  0  2  0  0  0  0  0  0
  193.4660  174.9000  146.4240 C   0  0  0  0  0  2  0  0  0  0  0  0
  187.8740  178.0490  141.4730 C   0  0  0  0  0  2  0  0  0  0  0  0
  185.8170  177.0260  142.3110 N   0  0  0  0  0  2  0  0  0  0  0  0
  187.1000  178.3210  143.8240 C   0  0  0  0  0  2  0  0  0  0  0  0
  185.7930  178.3790  144.0560 C   0  0  0  0  0  0  0  0  0  0  0  0
  187.1660  177.4180  142.6460 C   0  0  2  0  0  0  0  0  0  0  0  0
  185.0360  177.5900  143.1370 N   0  0  0  0  0  0  0  0  0  0  0  0
  188.3520  176.7010  142.0160 C   0  0  2  0  0  3  0  0  0  0  0  0
  185.1780  179.1490  145.1750 C   0  0  0  0  0  2  0  0  0  0  0  0
  185.1490  177.1580  146.6810 C   0  0  0  0  0  1  0  0  0  0  0  0
  184.3110  178.2490  146.0410 C   0  0  0  0  0  2  0  0  0  0  0  0
  189.1970  174.7330  143.8860 N   0  0  0  0  0  2  0  0  0  0  0  0
  189.2490  173.6650  142.9790 N   0  0  0  0  0  2  0  0  0  0  0  0
  192.5060  171.0270  142.9190 N   0  0  0  0  0  0  0  0  0  0  0  0
  190.9570  172.4050  141.7330 C   0  0  0  0  0  3  0  0  0  0  0  0
  191.9380  171.3650  144.1090 C   0  0  0  0  0  3  0  0  0  0  0  0
  190.8530  172.2430  144.1420 C   0  0  0  0  0  3  0  0  0  0  0  0
  192.0410  171.5250  141.7420 C   0  0  0  0  0  3  0  0  0  0  0  0
  190.3580  172.7670  142.9460 C   0  0  0  0  0  0  0  0  0  0  0  0
  1 21  1  0  0  0  0
  1  6  1  0  0  0  0
  2  3  1  0  0  0  0
  3  1  2  0  0  0  0
  4 10  1  0  0  0  0
  5  4  1  0  0  0  0
  6  9  1  0  0  0  0
  8  5  1  0  0  0  0
  8  6  1  0  0  0  0
  9  7  1  0  0  0  0
 10  7  1  0  0  0  0
 11 17  1  0  0  0  0
 12 15  1  0  0  0  0
 12 16  1  0  0  0  0
 13 14  1  0  0  0  0
 14 18  1  0  0  0  0
 15 11  1  6  0  0  0
 15 13  1  0  0  0  0
 16 14  2  0  0  0  0
 17 15  1  0  0  0  0
 17  3  1  1  0  0  0
 18 20  1  0  0  0  0
 20 19  1  0  0  0  0
 22 21  1  0  0  0  0
 23 25  1  0  0  0  0
 24 27  1  0  0  0  0
 24 28  2  0  0  0  0
 25 26  2  0  0  0  0
 27 23  2  0  0  0  0
 28 22  1  0  0  0  0
 28 26  1  0  0  0  0
M  END
>  <MODEL>
7

>  <REMARK>
 VINA RESULT:      -5.9      2.023      6.284
  Name = 
  7 active torsions:
  status: ('A' for Active; 'I' for Inactive)
    1  A    between atoms: N_2  and  N_15
    2  A    between atoms: N_2  and  C_25
    3  A    between atoms: C_7  and  C_25
    4  A    between atoms: C_13  and  C_14
    5  A    between atoms: C_13  and  C_27
    6  A    between atoms: N_15  and  C_19
    7  A    between atoms: C_22  and  C_28
                            x       y       z     vdW  Elec       q    Type
                         _______ _______ _______ _____ _____    ______ ____

>  <TORSDO>
F 7

$$$$
=
 OpenBabel11042418253D

 28 31  0  0  1  0  0  0  0  0999 V2000
  188.7120  176.3590  145.2620 C   0  0  0  0  0  0  0  0  0  0  0  0
  189.2800  177.6380  147.1710 O   0  0  0  0  0  1  0  0  0  0  0  0
  189.3670  176.4630  146.4290 C   0  0  0  0  0  0  0  0  0  0  0  0
  184.9810  179.1280  144.3290 C   0  0  0  0  0  2  0  0  0  0  0  0
  185.9380  178.9280  145.5090 C   0  0  0  0  0  2  0  0  0  0  0  0
  187.8520  177.5030  144.7970 C   0  0  0  0  0  3  0  0  0  0  0  0
  186.9200  178.6660  142.7420 C   0  0  0  0  0  2  0  0  0  0  0  0
  186.5320  177.5280  145.5630 C   0  0  0  0  0  2  0  0  0  0  0  0
  187.6650  177.4500  143.2800 C   0  0  0  0  0  2  0  0  0  0  0  0
  185.4300  178.5050  143.0050 C   0  0  0  0  0  2  0  0  0  0  0  0
  191.2120  175.8560  148.0110 C   0  0  0  0  0  2  0  0  0  0  0  0
  192.6480  174.4940  146.5720 N   0  0  0  0  0  0  0  0  0  0  0  0
  192.3880  176.7840  146.0210 C   0  0  0  0  0  3  0  0  0  0  0  0
  193.5850  176.3000  145.7120 C   0  0  0  0  0  0  0  0  0  0  0  0
  191.7160  175.5980  146.6120 C   0  0  2  0  0  0  0  0  0  0  0  0
  193.7230  174.9180  146.0470 N   0  0  0  0  0  0  0  0  0  0  0  0
  190.2490  175.3510  146.9350 C   0  0  2  0  0  3  0  0  0  0  0  0
  194.6600  177.0930  145.0500 C   0  0  0  0  0  2  0  0  0  0  0  0
  195.1130  176.0400  142.8320 C   0  0  0  0  0  1  0  0  0  0  0  0
  195.5960  176.1900  144.2630 C   0  0  0  0  0  2  0  0  0  0  0  0
  188.8400  175.1680  144.4720 N   0  0  0  0  0  2  0  0  0  0  0  0
  189.8510  175.0120  143.5140 N   0  0  0  0  0  2  0  0  0  0  0  0
  189.2380  172.8750  139.9610 N   0  0  0  0  0  0  0  0  0  0  0  0
  188.3690  173.7540  142.0050 C   0  0  0  0  0  3  0  0  0  0  0  0
  190.4710  173.3790  140.2360 C   0  0  0  0  0  3  0  0  0  0  0  0
  190.6880  174.0940  141.4160 C   0  0  0  0  0  3  0  0  0  0  0  0
  188.1920  173.0460  140.8140 C   0  0  0  0  0  3  0  0  0  0  0  0
  189.6300  174.2820  142.3080 C   0  0  0  0  0  0  0  0  0  0  0  0
  1  3  2  0  0  0  0
  3  2  1  0  0  0  0
  4  5  1  0  0  0  0
  5  8  1  0  0  0  0
  6  1  1  0  0  0  0
  6  8  1  0  0  0  0
  7 10  1  0  0  0  0
  7  9  1  0  0  0  0
  9  6  1  0  0  0  0
 10  4  1  0  0  0  0
 12 15  1  0  0  0  0
 14 13  2  0  0  0  0
 14 16  1  0  0  0  0
 15 13  1  6  0  0  0
 15 17  1  0  0  0  0
 15 11  1  0  0  0  0
 16 12  2  0  0  0  0
 17  3  1  6  0  0  0
 17 11  1  0  0  0  0
 18 14  1  0  0  0  0
 19 20  1  0  0  0  0
 20 18  1  0  0  0  0
 21  1  1  0  0  0  0
 22 21  1  0  0  0  0
 23 25  2  0  0  0  0
 23 27  1  0  0  0  0
 24 28  1  0  0  0  0
 25 26  1  0  0  0  0
 26 28  2  0  0  0  0
 27 24  2  0  0  0  0
 28 22  1  0  0  0  0
M  END
>  <MODEL>
8

>  <REMARK>
 VINA RESULT:      -5.8      2.300      4.759
  Name = 
  7 active torsions:
  status: ('A' for Active; 'I' for Inactive)
    1  A    between atoms: N_2  and  N_15
    2  A    between atoms: N_2  and  C_25
    3  A    between atoms: C_7  and  C_25
    4  A    between atoms: C_13  and  C_14
    5  A    between atoms: C_13  and  C_27
    6  A    between atoms: N_15  and  C_19
    7  A    between atoms: C_22  and  C_28
                            x       y       z     vdW  Elec       q    Type
                         _______ _______ _______ _____ _____    ______ ____

>  <TORSDO>
F 7

$$$$
=
 OpenBabel11042418253D

 28 31  0  0  1  0  0  0  0  0999 V2000
  188.0370  176.0150  144.4240 C   0  0  0  0  0  0  0  0  0  0  0  0
  187.0370  175.3170  142.3950 O   0  0  0  0  0  1  0  0  0  0  0  0
  188.1030  175.2960  143.2920 C   0  0  0  0  0  0  0  0  0  0  0  0
  185.2100  179.7430  145.1720 C   0  0  0  0  0  2  0  0  0  0  0  0
  185.7350  178.9860  143.9480 C   0  0  0  0  0  2  0  0  0  0  0  0
  186.8280  176.8720  144.6830 C   0  0  0  0  0  3  0  0  0  0  0  0
  185.1200  177.5350  146.4390 C   0  0  0  0  0  2  0  0  0  0  0  0
  187.0700  178.3000  144.1990 C   0  0  0  0  0  2  0  0  0  0  0  0
  186.4220  176.7970  146.1560 C   0  0  0  0  0  2  0  0  0  0  0  0
  185.3900  179.0310  146.5150 C   0  0  0  0  0  2  0  0  0  0  0  0
  190.2830  175.1210  142.0710 C   0  0  0  0  0  2  0  0  0  0  0  0
  190.1010  172.8890  141.0850 N   0  0  0  0  0  2  0  0  0  0  0  0
  188.5690  174.5440  140.3580 C   0  0  0  0  0  2  0  0  0  0  0  0
  188.8920  173.6710  139.4110 C   0  0  0  0  0  0  0  0  0  0  0  0
  189.3680  174.0580  141.5130 C   0  0  2  0  0  0  0  0  0  0  0  0
  189.8130  172.6790  139.8670 N   0  0  0  0  0  0  0  0  0  0  0  0
  189.2860  174.4140  142.9910 C   0  0  2  0  0  3  0  0  0  0  0  0
  188.3280  173.6920  138.0300 C   0  0  0  0  0  2  0  0  0  0  0  0
  189.0310  174.9160  135.9700 C   0  0  0  0  0  1  0  0  0  0  0  0
  189.4290  173.8710  136.9960 C   0  0  0  0  0  2  0  0  0  0  0  0
  189.1120  175.9560  145.3730 N   0  0  0  0  0  2  0  0  0  0  0  0
  190.2070  176.8300  145.3170 N   0  0  0  0  0  2  0  0  0  0  0  0
  194.1570  175.4530  145.5750 N   0  0  0  0  0  0  0  0  0  0  0  0
  191.8930  175.3530  146.3320 C   0  0  0  0  0  3  0  0  0  0  0  0
  193.8430  176.4260  144.6780 C   0  0  0  0  0  3  0  0  0  0  0  0
  192.5310  176.8930  144.5820 C   0  0  0  0  0  3  0  0  0  0  0  0
  193.2170  174.9120  146.3970 C   0  0  0  0  0  3  0  0  0  0  0  0
  191.5480  176.3530  145.4150 C   0  0  0  0  0  0  0  0  0  0  0  0
  1  6  1  0  0  0  0
  1 21  1  0  0  0  0
  2  3  1  0  0  0  0
  3  1  2  0  0  0  0
  4 10  1  0  0  0  0
  5  8  1  0  0  0  0
  5  4  1  0  0  0  0
  6  9  1  0  0  0  0
  7 10  1  0  0  0  0
  8  6  1  0  0  0  0
  9  7  1  0  0  0  0
 11 17  1  0  0  0  0
 12 15  1  0  0  0  0
 14 16  2  0  0  0  0
 14 13  1  0  0  0  0
 15 13  1  6  0  0  0
 15 11  1  0  0  0  0
 15 17  1  0  0  0  0
 16 12  1  0  0  0  0
 17  3  1  6  0  0  0
 18 14  1  0  0  0  0
 19 20  1  0  0  0  0
 20 18  1  0  0  0  0
 22 21  1  0  0  0  0
 22 28  1  0  0  0  0
 23 27  1  0  0  0  0
 24 27  2  0  0  0  0
 25 23  2  0  0  0  0
 26 25  1  0  0  0  0
 26 28  2  0  0  0  0
 28 24  1  0  0  0  0
M  END
>  <MODEL>
9

>  <REMARK>
 VINA RESULT:      -5.7      1.832      3.461
  Name = 
  7 active torsions:
  status: ('A' for Active; 'I' for Inactive)
    1  A    between atoms: N_2  and  N_15
    2  A    between atoms: N_2  and  C_25
    3  A    between atoms: C_7  and  C_25
    4  A    between atoms: C_13  and  C_14
    5  A    between atoms: C_13  and  C_27
    6  A    between atoms: N_15  and  C_19
    7  A    between atoms: C_22  and  C_28
                            x       y       z     vdW  Elec       q    Type
                         _______ _______ _______ _____ _____    ______ ____

>  <TORSDO>
F 7

$$$$
