=
 OpenBabel11042417103D

 38 43  0  0  1  0  0  0  0  0999 V2000
  188.4620  175.9040  144.0760 C   0  0  0  0  0  0  0  0  0  0  0  0
  190.1570  173.9250  145.2970 C   0  0  0  0  0  3  0  0  0  0  0  0
  185.7550  178.5780  142.2020 N   0  0  0  0  0  0  0  0  0  0  0  0
  188.6190  175.8320  145.4060 C   0  0  0  0  0  3  0  0  0  0  0  0
  189.1330  173.5480  141.1070 C   0  0  0  0  0  3  0  0  0  0  0  0
  186.0560  178.7730  143.5170 C   0  0  0  0  0  0  0  0  0  0  0  0
  186.9420  177.9070  144.1650 C   0  0  0  0  0  3  0  0  0  0  0  0
  188.6660  174.7320  141.8480 C   0  0  0  0  0  0  0  0  0  0  0  0
  189.5490  174.8590  146.0350 C   0  0  0  0  0  0  0  0  0  0  0  0
  189.9110  172.6330  141.7070 C   0  0  0  0  0  0  0  0  0  0  0  0
  189.9220  173.8640  143.8460 C   0  0  0  0  0  0  0  0  0  0  0  0
  189.3340  175.0720  143.1610 C   0  0  2  0  0  3  0  0  0  0  0  0
  187.5190  176.8500  143.4460 C   0  0  0  0  0  0  0  0  0  0  0  0
  187.1900  176.6760  142.0880 C   0  0  0  0  0  0  0  0  0  0  0  0
  186.2910  177.5560  141.4850 C   0  0  0  0  0  3  0  0  0  0  0  0
  187.7270  175.5270  141.3270 C   0  0  0  0  0  3  0  0  0  0  0  0
  190.2490  172.7710  143.1510 C   0  0  0  0  0  3  0  0  0  0  0  0
  190.9020  170.2830  141.6290 C   0  0  0  0  0  2  0  0  0  0  0  0
  190.0670  171.2440  139.5620 C   0  0  0  0  0  2  0  0  0  0  0  0
  190.9850  169.3290  140.5090 C   0  0  0  0  0  0  0  0  0  0  0  0
  191.4740  168.1720  140.5930 O   0  0  0  0  0  0  0  0  0  0  0  0
  190.4550  169.8710  139.3140 N   0  0  0  0  0  0  0  0  0  0  0  0
  190.3370  171.4660  140.9860 N   0  0  0  0  0  0  0  0  0  0  0  0
  190.0220  170.2380  136.9500 C   0  0  0  0  0  1  0  0  0  0  0  0
  190.5010  169.2500  138.0000 C   0  0  0  0  0  2  0  0  0  0  0  0
  185.4230  179.8880  144.2760 C   0  0  0  0  0  2  0  0  0  0  0  0
  185.3220  179.5230  145.7470 C   0  0  0  0  0  1  0  0  0  0  0  0
  189.7750  174.8700  147.4140 O   0  0  0  0  0  0  0  0  0  0  0  0
  191.0310  175.2330  147.9720 C   0  0  0  0  0  2  0  0  0  0  0  0
  191.4930  176.5790  147.4430 C   0  0  0  0  0  2  0  0  0  0  0  0
  194.4270  176.3000  144.9690 C   0  0  0  0  0  3  0  0  0  0  0  0
  193.0650  176.5890  145.4670 C   0  0  0  0  0  0  0  0  0  0  0  0
  193.7640  175.3660  142.7390 C   0  0  0  0  0  3  0  0  0  0  0  0
  192.0910  176.9580  144.6820 N   0  0  0  0  0  0  0  0  0  0  0  0
  194.7340  175.7670  143.7780 C   0  0  0  0  0  3  0  0  0  0  0  0
  192.2100  177.2180  143.2550 C   0  0  0  0  0  2  0  0  0  0  0  0
  192.8320  176.4740  146.8730 N   0  0  0  0  0  2  0  0  0  0  0  0
  192.6040  175.9820  142.5190 C   0  0  0  0  0  3  0  0  0  0  0  0
  1  4  2  0  0  0  0
  2  9  2  0  0  0  0
  3  6  1  0  0  0  0
  4  9  1  0  0  0  0
  5 10  2  0  0  0  0
  5  8  1  0  0  0  0
  6  7  2  0  0  0  0
  6 26  1  0  0  0  0
  9 28  1  0  0  0  0
 10 17  1  0  0  0  0
 11  2  1  0  0  0  0
 12  8  1  6  0  0  0
 12 11  1  0  0  0  0
 12  1  1  0  0  0  0
 13  1  1  0  0  0  0
 13  7  1  0  0  0  0
 14 13  2  0  0  0  0
 15 14  1  0  0  0  0
 15  3  2  0  0  0  0
 16  8  2  0  0  0  0
 16 14  1  0  0  0  0
 17 11  2  0  0  0  0
 19 23  1  0  0  0  0
 20 21  2  0  0  0  0
 20 18  1  0  0  0  0
 22 19  1  0  0  0  0
 22 20  1  0  0  0  0
 23 18  1  0  0  0  0
 23 10  1  0  0  0  0
 24 25  1  0  0  0  0
 25 22  1  0  0  0  0
 26 27  1  0  0  0  0
 28 29  1  0  0  0  0
 30 29  1  0  0  0  0
 31 32  1  0  0  0  0
 32 37  1  0  0  0  0
 33 35  1  0  0  0  0
 34 32  2  0  0  0  0
 35 31  2  0  0  0  0
 36 34  1  0  0  0  0
 37 30  1  0  0  0  0
 38 33  2  0  0  0  0
 38 36  1  0  0  0  0
M  END
>  <MODEL>
1

>  <REMARK>
 VINA RESULT:      -8.1      0.000      0.000
  Name = 
  7 active torsions:
  status: ('A' for Active; 'I' for Inactive)
    1  A    between atoms: C_6  and  C_11
    2  A    between atoms: C_9  and  N_21
    3  A    between atoms: C_9  and  C_24
    4  A    between atoms: O_14  and  C_24
    5  A    between atoms: O_14  and  C_25
    6  A    between atoms: N_19  and  C_38
    7  A    between atoms: C_26  and  N_29
                            x       y       z     vdW  Elec       q    Type
                         _______ _______ _______ _____ _____    ______ ____

>  <TORSDO>
F 7

$$$$
=
 OpenBabel11042417103D

 38 43  0  0  1  0  0  0  0  0999 V2000
  192.1910  175.3680  142.2760 C   0  0  0  0  0  0  0  0  0  0  0  0
  189.5280  174.7060  141.4140 C   0  0  0  0  0  3  0  0  0  0  0  0
  196.0490  176.1960  143.8330 N   0  0  0  0  0  0  0  0  0  0  0  0
  191.9640  174.4370  141.3380 C   0  0  0  0  0  3  0  0  0  0  0  0
  190.0690  177.1260  144.9620 C   0  0  0  0  0  3  0  0  0  0  0  0
  195.9530  175.4520  142.6940 C   0  0  0  0  0  0  0  0  0  0  0  0
  194.6960  175.1590  142.1580 C   0  0  0  0  0  3  0  0  0  0  0  0
  191.2550  176.7310  144.1850 C   0  0  0  0  0  0  0  0  0  0  0  0
  190.5960  174.1440  140.8390 C   0  0  0  0  0  0  0  0  0  0  0  0
  188.8380  176.7900  144.5430 C   0  0  0  0  0  0  0  0  0  0  0  0
  189.7010  175.6360  142.5400 C   0  0  0  0  0  0  0  0  0  0  0  0
  191.0610  176.2460  142.7660 C   0  0  2  0  0  3  0  0  0  0  0  0
  193.5460  175.6440  142.7960 C   0  0  0  0  0  0  0  0  0  0  0  0
  193.6780  176.4120  143.9690 C   0  0  0  0  0  0  0  0  0  0  0  0
  194.9520  176.6700  144.4770 C   0  0  0  0  0  3  0  0  0  0  0  0
  192.4800  176.8750  144.7020 C   0  0  0  0  0  3  0  0  0  0  0  0
  188.6670  175.9520  143.3250 C   0  0  0  0  0  3  0  0  0  0  0  0
  187.6740  177.1600  146.7830 C   0  0  0  0  0  2  0  0  0  0  0  0
  186.4770  177.7560  144.7570 C   0  0  0  0  0  2  0  0  0  0  0  0
  186.3700  177.7790  147.0800 C   0  0  0  0  0  0  0  0  0  0  0  0
  185.9030  177.9390  148.2390 O   0  0  0  0  0  0  0  0  0  0  0  0
  185.6910  178.1700  145.9020 N   0  0  0  0  0  0  0  0  0  0  0  0
  187.6880  177.1550  145.3230 N   0  0  0  0  0  0  0  0  0  0  0  0
  184.0070  179.0640  144.3940 C   0  0  0  0  0  1  0  0  0  0  0  0
  184.3340  178.6880  145.8280 C   0  0  0  0  0  2  0  0  0  0  0  0
  197.1810  174.9250  142.0350 C   0  0  0  0  0  2  0  0  0  0  0  0
  197.3540  175.5690  140.6710 C   0  0  0  0  0  1  0  0  0  0  0  0
  190.3920  173.2450  139.7890 O   0  0  0  0  0  0  0  0  0  0  0  0
  191.2340  172.1180  139.5840 C   0  0  0  0  0  2  0  0  0  0  0  0
  190.8450  170.9730  140.5010 C   0  0  0  0  0  2  0  0  0  0  0  0
  192.7890  171.1680  143.8150 C   0  0  0  0  0  3  0  0  0  0  0  0
  191.6490  171.2540  142.8770 C   0  0  0  0  0  0  0  0  0  0  0  0
  192.2470  173.2070  145.1690 C   0  0  0  0  0  3  0  0  0  0  0  0
  190.4820  171.7160  143.2270 N   0  0  0  0  0  0  0  0  0  0  0  0
  193.0520  172.0200  144.8160 C   0  0  0  0  0  3  0  0  0  0  0  0
  190.1060  172.1270  144.5730 C   0  0  0  0  0  2  0  0  0  0  0  0
  191.8490  170.7850  141.5410 N   0  0  0  0  0  2  0  0  0  0  0  0
  190.9260  173.2870  145.0250 C   0  0  0  0  0  3  0  0  0  0  0  0
  1 13  1  0  0  0  0
  2 11  1  0  0  0  0
  3 15  1  0  0  0  0
  4  1  2  0  0  0  0
  6  3  2  0  0  0  0
  7  6  1  0  0  0  0
  7 13  2  0  0  0  0
  8 16  2  0  0  0  0
  8  5  1  0  0  0  0
  9  4  1  0  0  0  0
  9  2  2  0  0  0  0
 10  5  2  0  0  0  0
 10 23  1  0  0  0  0
 11 12  1  0  0  0  0
 11 17  2  0  0  0  0
 12  1  1  1  0  0  0
 12  8  1  0  0  0  0
 13 14  1  0  0  0  0
 14 15  2  0  0  0  0
 14 16  1  0  0  0  0
 17 10  1  0  0  0  0
 18 20  1  0  0  0  0
 19 23  1  0  0  0  0
 19 22  1  0  0  0  0
 20 21  2  0  0  0  0
 22 20  1  0  0  0  0
 23 18  1  0  0  0  0
 24 25  1  0  0  0  0
 25 22  1  0  0  0  0
 26  6  1  0  0  0  0
 27 26  1  0  0  0  0
 28  9  1  0  0  0  0
 29 28  1  0  0  0  0
 29 30  1  0  0  0  0
 30 37  1  0  0  0  0
 31 35  2  0  0  0  0
 32 34  2  0  0  0  0
 32 31  1  0  0  0  0
 34 36  1  0  0  0  0
 35 33  1  0  0  0  0
 36 38  1  0  0  0  0
 37 32  1  0  0  0  0
 38 33  2  0  0  0  0
M  END
>  <MODEL>
2

>  <REMARK>
 VINA RESULT:      -7.8      2.393      8.175
  Name = 
  7 active torsions:
  status: ('A' for Active; 'I' for Inactive)
    1  A    between atoms: C_6  and  C_11
    2  A    between atoms: C_9  and  N_21
    3  A    between atoms: C_9  and  C_24
    4  A    between atoms: O_14  and  C_24
    5  A    between atoms: O_14  and  C_25
    6  A    between atoms: N_19  and  C_38
    7  A    between atoms: C_26  and  N_29
                            x       y       z     vdW  Elec       q    Type
                         _______ _______ _______ _____ _____    ______ ____

>  <TORSDO>
F 7

$$$$
=
 OpenBabel11042417103D

 38 43  0  0  1  0  0  0  0  0999 V2000
  188.2330  175.9840  144.4450 C   0  0  0  0  0  0  0  0  0  0  0  0
  190.6030  174.3740  144.6960 C   0  0  0  0  0  3  0  0  0  0  0  0
  184.5790  178.0880  143.9780 N   0  0  0  0  0  0  0  0  0  0  0  0
  188.7530  175.6760  145.6420 C   0  0  0  0  0  3  0  0  0  0  0  0
  188.6070  174.6280  140.8630 C   0  0  0  0  0  3  0  0  0  0  0  0
  185.1690  178.0730  145.2070 C   0  0  0  0  0  0  0  0  0  0  0  0
  186.3710  177.3870  145.3950 C   0  0  0  0  0  3  0  0  0  0  0  0
  188.0960  175.4340  141.9840 C   0  0  0  0  0  0  0  0  0  0  0  0
  190.0170  174.9060  145.7740 C   0  0  0  0  0  0  0  0  0  0  0  0
  189.7080  173.8730  141.0140 C   0  0  0  0  0  0  0  0  0  0  0  0
  190.0080  174.5610  143.3650 C   0  0  0  0  0  0  0  0  0  0  0  0
  188.9950  175.6620  143.1780 C   0  0  2  0  0  3  0  0  0  0  0  0
  186.9620  176.7260  144.3080 C   0  0  0  0  0  0  0  0  0  0  0  0
  186.3300  176.7610  143.0500 C   0  0  0  0  0  0  0  0  0  0  0  0
  185.1240  177.4470  142.9110 C   0  0  0  0  0  3  0  0  0  0  0  0
  186.8940  176.0120  141.9060 C   0  0  0  0  0  3  0  0  0  0  0  0
  190.3800  173.7900  142.3400 C   0  0  0  0  0  3  0  0  0  0  0  0
  190.6070  171.6780  140.0750 C   0  0  0  0  0  2  0  0  0  0  0  0
  190.1030  173.4700  138.5170 C   0  0  0  0  0  2  0  0  0  0  0  0
  190.8050  171.2590  138.6750 C   0  0  0  0  0  0  0  0  0  0  0  0
  191.2310  170.1270  138.3230 O   0  0  0  0  0  0  0  0  0  0  0  0
  190.4670  172.2870  137.7640 N   0  0  0  0  0  0  0  0  0  0  0  0
  190.1830  173.0670  139.9240 N   0  0  0  0  0  0  0  0  0  0  0  0
  189.4760  171.5930  135.6550 C   0  0  0  0  0  1  0  0  0  0  0  0
  190.6690  172.2540  136.3250 C   0  0  0  0  0  2  0  0  0  0  0  0
  184.5220  178.7630  146.3590 C   0  0  0  0  0  2  0  0  0  0  0  0
  185.4340  178.7120  147.5720 C   0  0  0  0  0  1  0  0  0  0  0  0
  190.5960  174.6850  147.0250 O   0  0  0  0  0  0  0  0  0  0  0  0
  191.0430  175.7520  147.8510 C   0  0  0  0  0  2  0  0  0  0  0  0
  191.9910  176.6650  147.0950 C   0  0  0  0  0  2  0  0  0  0  0  0
  195.2500  175.0420  145.8490 C   0  0  0  0  0  3  0  0  0  0  0  0
  193.9700  175.7820  145.8000 C   0  0  0  0  0  0  0  0  0  0  0  0
  194.9760  173.7810  143.7000 C   0  0  0  0  0  3  0  0  0  0  0  0
  193.4280  176.1790  144.6830 N   0  0  0  0  0  0  0  0  0  0  0  0
  195.6900  174.1680  144.9330 C   0  0  0  0  0  3  0  0  0  0  0  0
  194.0200  176.0350  143.3600 C   0  0  0  0  0  2  0  0  0  0  0  0
  193.3280  176.0850  147.0410 N   0  0  0  0  0  2  0  0  0  0  0  0
  194.1860  174.5970  143.0040 C   0  0  0  0  0  3  0  0  0  0  0  0
  1  4  2  0  0  0  0
  2  9  2  0  0  0  0
  3  6  1  0  0  0  0
  4  9  1  0  0  0  0
  5 10  2  0  0  0  0
  5  8  1  0  0  0  0
  6  7  2  0  0  0  0
  6 26  1  0  0  0  0
  9 28  1  0  0  0  0
 10 17  1  0  0  0  0
 11  2  1  0  0  0  0
 12  8  1  6  0  0  0
 12 11  1  0  0  0  0
 12  1  1  0  0  0  0
 13  1  1  0  0  0  0
 13  7  1  0  0  0  0
 14 13  2  0  0  0  0
 15 14  1  0  0  0  0
 15  3  2  0  0  0  0
 16  8  2  0  0  0  0
 16 14  1  0  0  0  0
 17 11  2  0  0  0  0
 19 23  1  0  0  0  0
 20 18  1  0  0  0  0
 21 20  2  0  0  0  0
 22 19  1  0  0  0  0
 22 20  1  0  0  0  0
 23 18  1  0  0  0  0
 23 10  1  0  0  0  0
 24 25  1  0  0  0  0
 25 22  1  0  0  0  0
 26 27  1  0  0  0  0
 28 29  1  0  0  0  0
 30 29  1  0  0  0  0
 32 31  1  0  0  0  0
 32 37  1  0  0  0  0
 33 35  1  0  0  0  0
 34 32  2  0  0  0  0
 35 31  2  0  0  0  0
 36 34  1  0  0  0  0
 37 30  1  0  0  0  0
 38 36  1  0  0  0  0
 38 33  2  0  0  0  0
M  END
>  <MODEL>
3

>  <REMARK>
 VINA RESULT:      -7.6      1.488      1.775
  Name = 
  7 active torsions:
  status: ('A' for Active; 'I' for Inactive)
    1  A    between atoms: C_6  and  C_11
    2  A    between atoms: C_9  and  N_21
    3  A    between atoms: C_9  and  C_24
    4  A    between atoms: O_14  and  C_24
    5  A    between atoms: O_14  and  C_25
    6  A    between atoms: N_19  and  C_38
    7  A    between atoms: C_26  and  N_29
                            x       y       z     vdW  Elec       q    Type
                         _______ _______ _______ _____ _____    ______ ____

>  <TORSDO>
F 7

$$$$
=
 OpenBabel11042417103D

 38 43  0  0  1  0  0  0  0  0999 V2000
  186.3370  177.8080  143.5020 C   0  0  0  0  0  0  0  0  0  0  0  0
  185.7570  177.2970  140.7310 C   0  0  0  0  0  3  0  0  0  0  0  0
  186.9450  178.3580  147.6640 N   0  0  0  0  0  0  0  0  0  0  0  0
  187.1610  177.0840  142.7300 C   0  0  0  0  0  3  0  0  0  0  0  0
  182.6700  178.9520  143.2750 C   0  0  0  0  0  3  0  0  0  0  0  0
  187.9710  177.8590  146.9170 C   0  0  0  0  0  0  0  0  0  0  0  0
  187.8020  177.6640  145.5430 C   0  0  0  0  0  3  0  0  0  0  0  0
  184.0130  178.7400  143.8360 C   0  0  0  0  0  0  0  0  0  0  0  0
  186.9010  176.8790  141.2820 C   0  0  0  0  0  0  0  0  0  0  0  0
  182.4240  178.6900  141.9800 C   0  0  0  0  0  0  0  0  0  0  0  0
  184.7490  177.9800  141.5550 C   0  0  0  0  0  0  0  0  0  0  0  0
  185.1730  178.5510  142.8840 C   0  0  2  0  0  3  0  0  0  0  0  0
  186.5750  177.9920  144.9480 C   0  0  0  0  0  0  0  0  0  0  0  0
  185.5350  178.5070  145.7460 C   0  0  0  0  0  0  0  0  0  0  0  0
  185.7440  178.6740  147.1150 C   0  0  0  0  0  3  0  0  0  0  0  0
  184.2090  178.7930  145.1570 C   0  0  0  0  0  3  0  0  0  0  0  0
  183.4930  178.1150  141.1190 C   0  0  0  0  0  3  0  0  0  0  0  0
  180.0170  177.9140  141.6430 C   0  0  0  0  0  2  0  0  0  0  0  0
  180.6350  180.1170  140.8320 C   0  0  0  0  0  2  0  0  0  0  0  0
  178.8590  178.6380  141.0880 C   0  0  0  0  0  0  0  0  0  0  0  0
  177.6970  178.1620  140.9960 O   0  0  0  0  0  0  0  0  0  0  0  0
  179.2080  179.9400  140.6580 N   0  0  0  0  0  0  0  0  0  0  0  0
  181.1020  178.8710  141.4480 N   0  0  0  0  0  0  0  0  0  0  0  0
  179.1840  181.8420  139.1430 C   0  0  0  0  0  1  0  0  0  0  0  0
  178.3420  180.8670  139.9470 C   0  0  0  0  0  2  0  0  0  0  0  0
  189.2640  177.4950  147.5630 C   0  0  0  0  0  2  0  0  0  0  0  0
  189.7780  178.6620  148.3880 C   0  0  0  0  0  1  0  0  0  0  0  0
  187.8250  176.2100  140.4740 O   0  0  0  0  0  0  0  0  0  0  0  0
  188.1900  174.8550  140.7060 C   0  0  0  0  0  2  0  0  0  0  0  0
  189.5910  174.7590  141.2810 C   0  0  0  0  0  2  0  0  0  0  0  0
  190.2210  174.7010  145.0760 C   0  0  0  0  0  3  0  0  0  0  0  0
  190.1820  175.2200  143.6910 C   0  0  0  0  0  0  0  0  0  0  0  0
  192.4180  175.7120  145.7360 C   0  0  0  0  0  3  0  0  0  0  0  0
  190.6830  176.3760  143.3570 N   0  0  0  0  0  0  0  0  0  0  0  0
  191.1970  174.9150  145.9700 C   0  0  0  0  0  3  0  0  0  0  0  0
  191.2650  177.3420  144.2790 C   0  0  0  0  0  2  0  0  0  0  0  0
  189.5430  174.4160  142.6970 N   0  0  0  0  0  2  0  0  0  0  0  0
  192.4760  176.7810  144.9440 C   0  0  0  0  0  3  0  0  0  0  0  0
  1 13  1  0  0  0  0
  2  9  2  0  0  0  0
  2 11  1  0  0  0  0
  4  1  2  0  0  0  0
  5  8  1  0  0  0  0
  6 26  1  0  0  0  0
  6  3  2  0  0  0  0
  7  6  1  0  0  0  0
  8 16  2  0  0  0  0
  9  4  1  0  0  0  0
 10  5  2  0  0  0  0
 12 11  1  6  0  0  0
 12  1  1  0  0  0  0
 12  8  1  0  0  0  0
 13  7  2  0  0  0  0
 13 14  1  0  0  0  0
 14 15  2  0  0  0  0
 15  3  1  0  0  0  0
 16 14  1  0  0  0  0
 17 11  2  0  0  0  0
 17 10  1  0  0  0  0
 19 23  1  0  0  0  0
 20 18  1  0  0  0  0
 21 20  2  0  0  0  0
 22 19  1  0  0  0  0
 22 20  1  0  0  0  0
 23 18  1  0  0  0  0
 23 10  1  0  0  0  0
 24 25  1  0  0  0  0
 25 22  1  0  0  0  0
 26 27  1  0  0  0  0
 28 29  1  0  0  0  0
 28  9  1  0  0  0  0
 29 30  1  0  0  0  0
 30 37  1  0  0  0  0
 31 35  2  0  0  0  0
 32 31  1  0  0  0  0
 33 35  1  0  0  0  0
 34 32  2  0  0  0  0
 34 36  1  0  0  0  0
 36 38  1  0  0  0  0
 37 32  1  0  0  0  0
 38 33  2  0  0  0  0
M  END
>  <MODEL>
4

>  <REMARK>
 VINA RESULT:      -7.6      4.356      8.470
  Name = 
  7 active torsions:
  status: ('A' for Active; 'I' for Inactive)
    1  A    between atoms: C_6  and  C_11
    2  A    between atoms: C_9  and  N_21
    3  A    between atoms: C_9  and  C_24
    4  A    between atoms: O_14  and  C_24
    5  A    between atoms: O_14  and  C_25
    6  A    between atoms: N_19  and  C_38
    7  A    between atoms: C_26  and  N_29
                            x       y       z     vdW  Elec       q    Type
                         _______ _______ _______ _____ _____    ______ ____

>  <TORSDO>
F 7

$$$$
=
 OpenBabel11042417103D

 38 43  0  0  1  0  0  0  0  0999 V2000
  189.0730  176.1800  144.0720 C   0  0  0  0  0  0  0  0  0  0  0  0
  187.8110  176.2430  141.4870 C   0  0  0  0  0  3  0  0  0  0  0  0
  191.2220  176.0600  147.7270 N   0  0  0  0  0  0  0  0  0  0  0  0
  188.5170  177.2990  143.5850 C   0  0  0  0  0  3  0  0  0  0  0  0
  190.2300  172.8250  142.5840 C   0  0  0  0  0  3  0  0  0  0  0  0
  190.4560  177.1560  147.4580 C   0  0  0  0  0  0  0  0  0  0  0  0
  189.7380  177.2270  146.2610 C   0  0  0  0  0  3  0  0  0  0  0  0
  190.0130  173.8880  143.5790 C   0  0  0  0  0  0  0  0  0  0  0  0
  187.8020  177.3170  142.2830 C   0  0  0  0  0  0  0  0  0  0  0  0
  189.6400  172.8880  141.3800 C   0  0  0  0  0  0  0  0  0  0  0  0
  188.5210  175.0240  141.9040 C   0  0  0  0  0  0  0  0  0  0  0  0
  188.8750  174.8600  143.3600 C   0  0  2  0  0  3  0  0  0  0  0  0
  189.8100  176.1620  145.3520 C   0  0  0  0  0  0  0  0  0  0  0  0
  190.6080  175.0430  145.6590 C   0  0  0  0  0  0  0  0  0  0  0  0
  191.3180  175.0190  146.8600 C   0  0  0  0  0  3  0  0  0  0  0  0
  190.7580  173.9390  144.6870 C   0  0  0  0  0  3  0  0  0  0  0  0
  188.8170  174.0730  141.0130 C   0  0  0  0  0  3  0  0  0  0  0  0
  189.3820  171.9180  139.0340 C   0  0  0  0  0  2  0  0  0  0  0  0
  190.8180  170.7510  140.6050 C   0  0  0  0  0  2  0  0  0  0  0  0
  190.0500  170.7620  138.4100 C   0  0  0  0  0  0  0  0  0  0  0  0
  189.8670  170.3880  137.2220 O   0  0  0  0  0  0  0  0  0  0  0  0
  190.9240  170.1080  139.3110 N   0  0  0  0  0  0  0  0  0  0  0  0
  189.8820  171.8610  140.4050 N   0  0  0  0  0  0  0  0  0  0  0  0
  193.0300  169.1650  138.5470 C   0  0  0  0  0  1  0  0  0  0  0  0
  191.6340  168.8640  139.0630 C   0  0  0  0  0  2  0  0  0  0  0  0
  190.4020  178.2910  148.4230 C   0  0  0  0  0  2  0  0  0  0  0  0
  191.4400  178.0940  149.5130 C   0  0  0  0  0  1  0  0  0  0  0  0
  187.1410  178.4670  141.8430 O   0  0  0  0  0  0  0  0  0  0  0  0
  186.0580  179.0410  142.5650 C   0  0  0  0  0  2  0  0  0  0  0  0
  184.9240  178.0450  142.7270 C   0  0  0  0  0  2  0  0  0  0  0  0
  185.6840  176.4400  146.1410 C   0  0  0  0  0  3  0  0  0  0  0  0
  185.1920  177.4340  145.1620 C   0  0  0  0  0  0  0  0  0  0  0  0
  186.5780  178.0650  147.8280 C   0  0  0  0  0  3  0  0  0  0  0  0
  184.7110  178.5930  145.5160 N   0  0  0  0  0  0  0  0  0  0  0  0
  186.2890  176.7140  147.3050 C   0  0  0  0  0  3  0  0  0  0  0  0
  184.5110  179.0410  146.8870 C   0  0  0  0  0  2  0  0  0  0  0  0
  185.2330  177.0810  143.7770 N   0  0  0  0  0  2  0  0  0  0  0  0
  185.8100  179.1320  147.6120 C   0  0  0  0  0  3  0  0  0  0  0  0
  1 13  1  0  0  0  0
  2 11  1  0  0  0  0
  2  9  2  0  0  0  0
  4  1  2  0  0  0  0
  5  8  1  0  0  0  0
  6  3  1  0  0  0  0
  6 26  1  0  0  0  0
  7  6  2  0  0  0  0
  8 16  2  0  0  0  0
  9  4  1  0  0  0  0
 10  5  2  0  0  0  0
 12 11  1  6  0  0  0
 12  8  1  0  0  0  0
 12  1  1  0  0  0  0
 13 14  2  0  0  0  0
 13  7  1  0  0  0  0
 14 15  1  0  0  0  0
 15  3  2  0  0  0  0
 16 14  1  0  0  0  0
 17 10  1  0  0  0  0
 17 11  2  0  0  0  0
 18 23  1  0  0  0  0
 20 18  1  0  0  0  0
 20 22  1  0  0  0  0
 21 20  2  0  0  0  0
 22 19  1  0  0  0  0
 23 19  1  0  0  0  0
 23 10  1  0  0  0  0
 24 25  1  0  0  0  0
 25 22  1  0  0  0  0
 26 27  1  0  0  0  0
 28  9  1  0  0  0  0
 28 29  1  0  0  0  0
 29 30  1  0  0  0  0
 30 37  1  0  0  0  0
 31 35  2  0  0  0  0
 32 34  2  0  0  0  0
 32 31  1  0  0  0  0
 34 36  1  0  0  0  0
 35 33  1  0  0  0  0
 36 38  1  0  0  0  0
 37 32  1  0  0  0  0
 38 33  2  0  0  0  0
M  END
>  <MODEL>
5

>  <REMARK>
 VINA RESULT:      -7.5      2.319      5.739
  Name = 
  7 active torsions:
  status: ('A' for Active; 'I' for Inactive)
    1  A    between atoms: C_6  and  C_11
    2  A    between atoms: C_9  and  N_21
    3  A    between atoms: C_9  and  C_24
    4  A    between atoms: O_14  and  C_24
    5  A    between atoms: O_14  and  C_25
    6  A    between atoms: N_19  and  C_38
    7  A    between atoms: C_26  and  N_29
                            x       y       z     vdW  Elec       q    Type
                         _______ _______ _______ _____ _____    ______ ____

>  <TORSDO>
F 7

$$$$
=
 OpenBabel11042417103D

 38 43  0  0  1  0  0  0  0  0999 V2000
  188.5220  175.9730  143.9330 C   0  0  0  0  0  0  0  0  0  0  0  0
  189.8380  174.8410  141.6390 C   0  0  0  0  0  3  0  0  0  0  0  0
  186.7680  177.9090  147.2750 N   0  0  0  0  0  0  0  0  0  0  0  0
  187.8870  175.8130  142.7620 C   0  0  0  0  0  3  0  0  0  0  0  0
  192.1970  176.0160  145.0730 C   0  0  0  0  0  3  0  0  0  0  0  0
  185.9610  177.5390  146.2400 C   0  0  0  0  0  0  0  0  0  0  0  0
  186.5080  176.9020  145.1230 C   0  0  0  0  0  3  0  0  0  0  0  0
  190.7320  176.1350  145.1450 C   0  0  0  0  0  0  0  0  0  0  0  0
  188.5410  175.1630  141.5970 C   0  0  0  0  0  0  0  0  0  0  0  0
  192.7850  175.4980  143.9830 C   0  0  0  0  0  0  0  0  0  0  0  0
  190.6270  175.1150  142.8490 C   0  0  0  0  0  0  0  0  0  0  0  0
  189.8950  175.3730  144.1420 C   0  0  2  0  0  3  0  0  0  0  0  0
  187.8860  176.6430  145.0860 C   0  0  0  0  0  0  0  0  0  0  0  0
  188.6930  177.0350  146.1710 C   0  0  0  0  0  0  0  0  0  0  0  0
  188.1070  177.6800  147.2610 C   0  0  0  0  0  3  0  0  0  0  0  0
  190.1590  176.8390  146.1260 C   0  0  0  0  0  3  0  0  0  0  0  0
  191.9620  175.1040  142.8060 C   0  0  0  0  0  3  0  0  0  0  0  0
  195.0450  176.3760  143.1890 C   0  0  0  0  0  2  0  0  0  0  0  0
  195.0210  174.4840  144.7090 C   0  0  0  0  0  2  0  0  0  0  0  0
  196.4080  175.9670  143.5760 C   0  0  0  0  0  0  0  0  0  0  0  0
  197.4630  176.4970  143.1380 O   0  0  0  0  0  0  0  0  0  0  0  0
  196.3940  174.8950  144.4980 N   0  0  0  0  0  0  0  0  0  0  0  0
  194.2170  175.4130  143.9090 N   0  0  0  0  0  0  0  0  0  0  0  0
  197.1550  173.2670  146.1360 C   0  0  0  0  0  1  0  0  0  0  0  0
  197.5570  174.1670  144.9810 C   0  0  0  0  0  2  0  0  0  0  0  0
  184.5010  177.8360  146.2820 C   0  0  0  0  0  2  0  0  0  0  0  0
  184.1730  178.9610  145.3150 C   0  0  0  0  0  1  0  0  0  0  0  0
  187.8290  174.9140  140.4210 O   0  0  0  0  0  0  0  0  0  0  0  0
  188.4210  174.2650  139.3020 C   0  0  0  0  0  2  0  0  0  0  0  0
  188.1950  172.7660  139.3590 C   0  0  0  0  0  2  0  0  0  0  0  0
  191.5590  170.9380  139.7460 C   0  0  0  0  0  3  0  0  0  0  0  0
  190.2410  171.4970  140.1180 C   0  0  0  0  0  0  0  0  0  0  0  0
  192.7620  171.5060  141.8700 C   0  0  0  0  0  3  0  0  0  0  0  0
  189.7910  171.4840  141.3420 N   0  0  0  0  0  0  0  0  0  0  0  0
  192.6600  170.9410  140.5090 C   0  0  0  0  0  3  0  0  0  0  0  0
  190.4550  170.8630  142.4790 C   0  0  0  0  0  2  0  0  0  0  0  0
  189.4320  172.0490  139.0760 N   0  0  0  0  0  2  0  0  0  0  0  0
  191.7660  171.5180  142.7530 C   0  0  0  0  0  3  0  0  0  0  0  0
  1 12  1  0  0  0  0
  1 13  1  0  0  0  0
  2 11  1  0  0  0  0
  4  1  2  0  0  0  0
  5  8  1  0  0  0  0
  6 26  1  0  0  0  0
  6  3  2  0  0  0  0
  7  6  1  0  0  0  0
  8 16  2  0  0  0  0
  9  2  2  0  0  0  0
  9  4  1  0  0  0  0
 10  5  2  0  0  0  0
 12 11  1  6  0  0  0
 12  8  1  0  0  0  0
 13  7  2  0  0  0  0
 13 14  1  0  0  0  0
 14 15  2  0  0  0  0
 15  3  1  0  0  0  0
 16 14  1  0  0  0  0
 17 11  2  0  0  0  0
 17 10  1  0  0  0  0
 18 20  1  0  0  0  0
 18 23  1  0  0  0  0
 20 22  1  0  0  0  0
 21 20  2  0  0  0  0
 22 19  1  0  0  0  0
 22 25  1  0  0  0  0
 23 10  1  0  0  0  0
 23 19  1  0  0  0  0
 25 24  1  0  0  0  0
 27 26  1  0  0  0  0
 28  9  1  0  0  0  0
 29 30  1  0  0  0  0
 29 28  1  0  0  0  0
 31 32  1  0  0  0  0
 31 35  2  0  0  0  0
 32 34  2  0  0  0  0
 33 38  2  0  0  0  0
 34 36  1  0  0  0  0
 35 33  1  0  0  0  0
 36 38  1  0  0  0  0
 37 30  1  0  0  0  0
 37 32  1  0  0  0  0
M  END
>  <MODEL>
6

>  <REMARK>
 VINA RESULT:      -7.4      2.797      6.452
  Name = 
  7 active torsions:
  status: ('A' for Active; 'I' for Inactive)
    1  A    between atoms: C_6  and  C_11
    2  A    between atoms: C_9  and  N_21
    3  A    between atoms: C_9  and  C_24
    4  A    between atoms: O_14  and  C_24
    5  A    between atoms: O_14  and  C_25
    6  A    between atoms: N_19  and  C_38
    7  A    between atoms: C_26  and  N_29
                            x       y       z     vdW  Elec       q    Type
                         _______ _______ _______ _____ _____    ______ ____

>  <TORSDO>
F 7

$$$$
=
 OpenBabel11042417103D

 38 43  0  0  1  0  0  0  0  0999 V2000
  187.7380  177.2820  143.8770 C   0  0  0  0  0  0  0  0  0  0  0  0
  187.0560  176.5980  141.1670 C   0  0  0  0  0  3  0  0  0  0  0  0
  188.4890  178.1070  147.9690 N   0  0  0  0  0  0  0  0  0  0  0  0
  188.5030  176.4620  143.1420 C   0  0  0  0  0  3  0  0  0  0  0  0
  184.1260  178.5930  143.6530 C   0  0  0  0  0  3  0  0  0  0  0  0
  189.4680  177.5020  147.2370 C   0  0  0  0  0  0  0  0  0  0  0  0
  189.2500  177.2140  145.8870 C   0  0  0  0  0  3  0  0  0  0  0  0
  185.4730  178.3550  144.1960 C   0  0  0  0  0  0  0  0  0  0  0  0
  188.1930  176.1640  141.7200 C   0  0  0  0  0  0  0  0  0  0  0  0
  183.8320  178.2490  142.3880 C   0  0  0  0  0  0  0  0  0  0  0  0
  186.1060  177.3910  141.9620 C   0  0  0  0  0  0  0  0  0  0  0  0
  186.5950  178.0370  143.2330 C   0  0  2  0  0  3  0  0  0  0  0  0
  188.0250  177.5600  145.2990 C   0  0  0  0  0  0  0  0  0  0  0  0
  187.0350  178.1860  146.0800 C   0  0  0  0  0  0  0  0  0  0  0  0
  187.2900  178.4430  147.4280 C   0  0  0  0  0  3  0  0  0  0  0  0
  185.7080  178.4960  145.5040 C   0  0  0  0  0  3  0  0  0  0  0  0
  184.8470  177.5580  141.5470 C   0  0  0  0  0  3  0  0  0  0  0  0
  182.0720  178.0050  140.5570 C   0  0  0  0  0  2  0  0  0  0  0  0
  181.3890  178.9590  142.6830 C   0  0  0  0  0  2  0  0  0  0  0  0
  180.6240  178.2790  140.5950 C   0  0  0  0  0  0  0  0  0  0  0  0
  179.8380  178.0920  139.6300 O   0  0  0  0  0  0  0  0  0  0  0  0
  180.2170  178.7910  141.8490 N   0  0  0  0  0  0  0  0  0  0  0  0
  182.5060  178.4590  141.8760 N   0  0  0  0  0  0  0  0  0  0  0  0
  178.1160  178.2180  142.9310 C   0  0  0  0  0  1  0  0  0  0  0  0
  178.8910  179.2870  142.1810 C   0  0  0  0  0  2  0  0  0  0  0  0
  190.7590  177.1210  147.8770 C   0  0  0  0  0  2  0  0  0  0  0  0
  190.9720  175.6220  147.7620 C   0  0  0  0  0  1  0  0  0  0  0  0
  189.0590  175.3900  140.9430 O   0  0  0  0  0  0  0  0  0  0  0  0
  189.7410  174.2590  141.4700 C   0  0  0  0  0  2  0  0  0  0  0  0
  191.1960  174.5840  141.7530 C   0  0  0  0  0  2  0  0  0  0  0  0
  192.8480  173.9340  145.1680 C   0  0  0  0  0  3  0  0  0  0  0  0
  192.2970  174.6920  144.0230 C   0  0  0  0  0  0  0  0  0  0  0  0
  194.8150  175.4200  145.6210 C   0  0  0  0  0  3  0  0  0  0  0  0
  192.3800  175.9900  143.9310 N   0  0  0  0  0  0  0  0  0  0  0  0
  193.9470  174.2510  145.8660 C   0  0  0  0  0  3  0  0  0  0  0  0
  192.9330  176.8740  144.9480 C   0  0  0  0  0  2  0  0  0  0  0  0
  191.6300  173.9550  142.9950 N   0  0  0  0  0  2  0  0  0  0  0  0
  194.3810  176.5940  145.1660 C   0  0  0  0  0  3  0  0  0  0  0  0
  1 13  1  0  0  0  0
  2  9  2  0  0  0  0
  2 11  1  0  0  0  0
  4  1  2  0  0  0  0
  5  8  1  0  0  0  0
  6 26  1  0  0  0  0
  6  3  2  0  0  0  0
  7  6  1  0  0  0  0
  8 16  2  0  0  0  0
  9  4  1  0  0  0  0
 10  5  2  0  0  0  0
 12 11  1  6  0  0  0
 12  1  1  0  0  0  0
 12  8  1  0  0  0  0
 13  7  2  0  0  0  0
 13 14  1  0  0  0  0
 14 15  2  0  0  0  0
 15  3  1  0  0  0  0
 16 14  1  0  0  0  0
 17 11  2  0  0  0  0
 17 10  1  0  0  0  0
 18 20  1  0  0  0  0
 18 23  1  0  0  0  0
 20 22  1  0  0  0  0
 21 20  2  0  0  0  0
 22 25  1  0  0  0  0
 22 19  1  0  0  0  0
 23 10  1  0  0  0  0
 23 19  1  0  0  0  0
 25 24  1  0  0  0  0
 27 26  1  0  0  0  0
 28 29  1  0  0  0  0
 28  9  1  0  0  0  0
 29 30  1  0  0  0  0
 30 37  1  0  0  0  0
 31 35  2  0  0  0  0
 32 31  1  0  0  0  0
 33 35  1  0  0  0  0
 34 32  2  0  0  0  0
 34 36  1  0  0  0  0
 36 38  1  0  0  0  0
 37 32  1  0  0  0  0
 38 33  2  0  0  0  0
M  END
>  <MODEL>
7

>  <REMARK>
 VINA RESULT:      -7.4      3.746      7.750
  Name = 
  7 active torsions:
  status: ('A' for Active; 'I' for Inactive)
    1  A    between atoms: C_6  and  C_11
    2  A    between atoms: C_9  and  N_21
    3  A    between atoms: C_9  and  C_24
    4  A    between atoms: O_14  and  C_24
    5  A    between atoms: O_14  and  C_25
    6  A    between atoms: N_19  and  C_38
    7  A    between atoms: C_26  and  N_29
                            x       y       z     vdW  Elec       q    Type
                         _______ _______ _______ _____ _____    ______ ____

>  <TORSDO>
F 7

$$$$
=
 OpenBabel11042417103D

 38 43  0  0  1  0  0  0  0  0999 V2000
  189.2880  176.7300  143.8320 C   0  0  0  0  0  0  0  0  0  0  0  0
  192.0260  175.8780  143.6020 C   0  0  0  0  0  3  0  0  0  0  0  0
  185.1710  177.6740  144.2270 N   0  0  0  0  0  0  0  0  0  0  0  0
  190.2030  177.0350  144.7640 C   0  0  0  0  0  3  0  0  0  0  0  0
  189.0460  174.1770  140.9620 C   0  0  0  0  0  3  0  0  0  0  0  0
  186.0590  178.2690  145.0740 C   0  0  0  0  0  0  0  0  0  0  0  0
  187.4220  177.9770  144.9710 C   0  0  0  0  0  3  0  0  0  0  0  0
  188.6410  175.2360  141.9010 C   0  0  0  0  0  0  0  0  0  0  0  0
  191.6320  176.6590  144.6130 C   0  0  0  0  0  0  0  0  0  0  0  0
  190.3300  173.7890  140.8870 C   0  0  0  0  0  0  0  0  0  0  0  0
  191.0450  175.3960  142.6180 C   0  0  0  0  0  0  0  0  0  0  0  0
  189.7150  176.0990  142.5250 C   0  0  2  0  0  3  0  0  0  0  0  0
  187.8610  177.0770  143.9890 C   0  0  0  0  0  0  0  0  0  0  0  0
  186.9200  176.4810  143.1270 C   0  0  0  0  0  0  0  0  0  0  0  0
  185.5670  176.7920  143.2730 C   0  0  0  0  0  3  0  0  0  0  0  0
  187.3460  175.4750  142.1300 C   0  0  0  0  0  3  0  0  0  0  0  0
  191.3430  174.3770  141.8060 C   0  0  0  0  0  3  0  0  0  0  0  0
  191.1690  171.4220  140.4370 C   0  0  0  0  0  2  0  0  0  0  0  0
  190.4920  172.7780  138.5410 C   0  0  0  0  0  2  0  0  0  0  0  0
  191.2400  170.6680  139.1720 C   0  0  0  0  0  0  0  0  0  0  0  0
  191.6480  169.4810  139.0710 O   0  0  0  0  0  0  0  0  0  0  0  0
  190.8010  171.4420  138.0720 N   0  0  0  0  0  0  0  0  0  0  0  0
  190.7110  172.7340  139.9890 N   0  0  0  0  0  0  0  0  0  0  0  0
  189.5060  171.2470  136.0240 C   0  0  0  0  0  1  0  0  0  0  0  0
  190.8660  171.0530  136.6730 C   0  0  0  0  0  2  0  0  0  0  0  0
  185.5810  179.2080  146.1270 C   0  0  0  0  0  2  0  0  0  0  0  0
  185.5320  178.5010  147.4690 C   0  0  0  0  0  1  0  0  0  0  0  0
  192.5860  177.0750  145.5450 O   0  0  0  0  0  0  0  0  0  0  0  0
  193.0540  176.2220  146.5820 C   0  0  0  0  0  2  0  0  0  0  0  0
  194.5600  176.0470  146.5040 C   0  0  0  0  0  2  0  0  0  0  0  0
  195.5920  173.9940  143.4180 C   0  0  0  0  0  3  0  0  0  0  0  0
  195.4350  175.1660  144.3060 C   0  0  0  0  0  0  0  0  0  0  0  0
  195.1610  175.1720  141.2480 C   0  0  0  0  0  3  0  0  0  0  0  0
  195.7770  176.3720  143.9480 N   0  0  0  0  0  0  0  0  0  0  0  0
  195.4730  173.9950  142.0830 C   0  0  0  0  0  3  0  0  0  0  0  0
  196.4250  176.7280  142.6940 C   0  0  0  0  0  2  0  0  0  0  0  0
  194.9040  174.9440  145.6150 N   0  0  0  0  0  2  0  0  0  0  0  0
  195.5450  176.4150  141.5320 C   0  0  0  0  0  3  0  0  0  0  0  0
  1 13  1  0  0  0  0
  1  4  2  0  0  0  0
  2  9  2  0  0  0  0
  3  6  1  0  0  0  0
  5  8  1  0  0  0  0
  6 26  1  0  0  0  0
  7  6  2  0  0  0  0
  8 16  2  0  0  0  0
  9  4  1  0  0  0  0
  9 28  1  0  0  0  0
 10  5  2  0  0  0  0
 10 17  1  0  0  0  0
 11  2  1  0  0  0  0
 12  8  1  1  0  0  0
 12 11  1  0  0  0  0
 12  1  1  0  0  0  0
 13  7  1  0  0  0  0
 14 15  1  0  0  0  0
 14 13  2  0  0  0  0
 15  3  2  0  0  0  0
 16 14  1  0  0  0  0
 17 11  2  0  0  0  0
 19 23  1  0  0  0  0
 20 18  1  0  0  0  0
 21 20  2  0  0  0  0
 22 19  1  0  0  0  0
 22 20  1  0  0  0  0
 23 18  1  0  0  0  0
 23 10  1  0  0  0  0
 24 25  1  0  0  0  0
 25 22  1  0  0  0  0
 26 27  1  0  0  0  0
 28 29  1  0  0  0  0
 30 29  1  0  0  0  0
 31 32  1  0  0  0  0
 32 37  1  0  0  0  0
 33 38  2  0  0  0  0
 33 35  1  0  0  0  0
 34 32  2  0  0  0  0
 35 31  2  0  0  0  0
 36 34  1  0  0  0  0
 37 30  1  0  0  0  0
 38 36  1  0  0  0  0
M  END
>  <MODEL>
8

>  <REMARK>
 VINA RESULT:      -7.4      1.928      2.328
  Name = 
  7 active torsions:
  status: ('A' for Active; 'I' for Inactive)
    1  A    between atoms: C_6  and  C_11
    2  A    between atoms: C_9  and  N_21
    3  A    between atoms: C_9  and  C_24
    4  A    between atoms: O_14  and  C_24
    5  A    between atoms: O_14  and  C_25
    6  A    between atoms: N_19  and  C_38
    7  A    between atoms: C_26  and  N_29
                            x       y       z     vdW  Elec       q    Type
                         _______ _______ _______ _____ _____    ______ ____

>  <TORSDO>
F 7

$$$$
=
 OpenBabel11042417103D

 38 43  0  0  1  0  0  0  0  0999 V2000
  189.3140  176.9200  143.6800 C   0  0  0  0  0  0  0  0  0  0  0  0
  192.0770  176.3170  143.1550 C   0  0  0  0  0  3  0  0  0  0  0  0
  185.2020  177.4970  144.5500 N   0  0  0  0  0  0  0  0  0  0  0  0
  190.3010  177.4090  144.4460 C   0  0  0  0  0  3  0  0  0  0  0  0
  188.9900  174.0680  141.1170 C   0  0  0  0  0  3  0  0  0  0  0  0
  186.1200  178.2610  145.2090 C   0  0  0  0  0  0  0  0  0  0  0  0
  187.4830  178.0930  144.9470 C   0  0  0  0  0  3  0  0  0  0  0  0
  188.5940  175.1750  142.0010 C   0  0  0  0  0  0  0  0  0  0  0  0
  191.7320  177.1580  144.1350 C   0  0  0  0  0  0  0  0  0  0  0  0
  190.2890  173.7990  140.9020 C   0  0  0  0  0  0  0  0  0  0  0  0
  191.0380  175.6420  142.3630 C   0  0  0  0  0  0  0  0  0  0  0  0
  189.6370  176.1980  142.3900 C   0  0  2  0  0  3  0  0  0  0  0  0
  187.8880  177.1420  144.0000 C   0  0  0  0  0  0  0  0  0  0  0  0
  186.9170  176.3700  143.3340 C   0  0  0  0  0  0  0  0  0  0  0  0
  185.5680  176.5620  143.6360 C   0  0  0  0  0  3  0  0  0  0  0  0
  187.3210  175.3110  142.3850 C   0  0  0  0  0  3  0  0  0  0  0  0
  191.3400  174.5760  141.6150 C   0  0  0  0  0  3  0  0  0  0  0  0
  190.5920  171.3010  140.4800 C   0  0  0  0  0  2  0  0  0  0  0  0
  190.9680  172.8300  138.6320 C   0  0  0  0  0  2  0  0  0  0  0  0
  190.8900  170.5830  139.2280 C   0  0  0  0  0  0  0  0  0  0  0  0
  190.9890  169.3320  139.1300 O   0  0  0  0  0  0  0  0  0  0  0  0
  191.0640  171.4700  138.1400 N   0  0  0  0  0  0  0  0  0  0  0  0
  190.6670  172.6980  140.0610 N   0  0  0  0  0  0  0  0  0  0  0  0
  190.2830  170.7840  135.9420 C   0  0  0  0  0  1  0  0  0  0  0  0
  191.4940  171.1060  136.8000 C   0  0  0  0  0  2  0  0  0  0  0  0
  185.6790  179.2550  146.2280 C   0  0  0  0  0  2  0  0  0  0  0  0
  184.5660  178.6680  147.0770 C   0  0  0  0  0  1  0  0  0  0  0  0
  192.7450  177.7610  144.8840 O   0  0  0  0  0  0  0  0  0  0  0  0
  194.0300  177.1690  145.0340 C   0  0  0  0  0  2  0  0  0  0  0  0
  194.2340  176.6620  146.4500 C   0  0  0  0  0  2  0  0  0  0  0  0
  190.7920  175.2040  147.3660 C   0  0  0  0  0  3  0  0  0  0  0  0
  192.1500  175.2760  146.7840 C   0  0  0  0  0  0  0  0  0  0  0  0
  189.6960  173.9770  145.4740 C   0  0  0  0  0  3  0  0  0  0  0  0
  192.6420  174.3380  146.0240 N   0  0  0  0  0  0  0  0  0  0  0  0
  189.7200  174.6380  146.7950 C   0  0  0  0  0  3  0  0  0  0  0  0
  191.9850  173.0760  145.7090 C   0  0  0  0  0  2  0  0  0  0  0  0
  192.9500  176.4190  147.0980 N   0  0  0  0  0  2  0  0  0  0  0  0
  190.7220  173.3080  144.9530 C   0  0  0  0  0  3  0  0  0  0  0  0
  1 13  1  0  0  0  0
  1  4  2  0  0  0  0
  2  9  2  0  0  0  0
  3  6  1  0  0  0  0
  5  8  1  0  0  0  0
  6 26  1  0  0  0  0
  7  6  2  0  0  0  0
  8 16  2  0  0  0  0
  9  4  1  0  0  0  0
  9 28  1  0  0  0  0
 10  5  2  0  0  0  0
 10 17  1  0  0  0  0
 11 12  1  0  0  0  0
 11  2  1  0  0  0  0
 12  8  1  1  0  0  0
 12  1  1  0  0  0  0
 13  7  1  0  0  0  0
 14 15  1  0  0  0  0
 14 13  2  0  0  0  0
 15  3  2  0  0  0  0
 16 14  1  0  0  0  0
 17 11  2  0  0  0  0
 19 23  1  0  0  0  0
 20 18  1  0  0  0  0
 21 20  2  0  0  0  0
 22 19  1  0  0  0  0
 22 20  1  0  0  0  0
 23 18  1  0  0  0  0
 23 10  1  0  0  0  0
 24 25  1  0  0  0  0
 25 22  1  0  0  0  0
 26 27  1  0  0  0  0
 28 29  1  0  0  0  0
 29 30  1  0  0  0  0
 30 37  1  0  0  0  0
 32 37  1  0  0  0  0
 32 31  1  0  0  0  0
 33 35  1  0  0  0  0
 34 32  2  0  0  0  0
 35 31  2  0  0  0  0
 36 34  1  0  0  0  0
 38 33  2  0  0  0  0
 38 36  1  0  0  0  0
M  END
>  <MODEL>
9

>  <REMARK>
 VINA RESULT:      -7.4      1.695      2.800
  Name = 
  7 active torsions:
  status: ('A' for Active; 'I' for Inactive)
    1  A    between atoms: C_6  and  C_11
    2  A    between atoms: C_9  and  N_21
    3  A    between atoms: C_9  and  C_24
    4  A    between atoms: O_14  and  C_24
    5  A    between atoms: O_14  and  C_25
    6  A    between atoms: N_19  and  C_38
    7  A    between atoms: C_26  and  N_29
                            x       y       z     vdW  Elec       q    Type
                         _______ _______ _______ _____ _____    ______ ____

>  <TORSDO>
F 7

$$$$
