=
 OpenBabel11042416353D

 62 68  0  0  1  0  0  0  0  0999 V2000
  189.2990  175.6520  144.0170 C   0  0  0  0  0  0  0  0  0  0  0  0
  187.5040  177.6790  143.4080 O   0  0  0  0  0  0  0  0  0  0  0  0
  193.7100  171.6870  142.2300 C   0  0  1  0  0  3  0  0  0  0  0  0
  187.0090  177.4880  146.9850 C   0  0  0  0  0  0  0  0  0  0  0  0
  190.0600  174.3830  144.2740 C   0  0  0  0  0  2  0  0  0  0  0  0
  194.1190  170.0580  140.4940 C   0  0  0  0  0  2  0  0  0  0  0  0
  192.0020  173.0400  143.3720 C   0  0  0  0  0  0  0  0  0  0  0  0
  194.0620  170.8140  143.2530 O   0  0  0  0  0  0  0  0  0  0  0  0
  194.2440  171.5330  140.8540 C   0  0  1  0  0  3  0  0  0  0  0  0
  192.7600  172.6050  142.2690 C   0  0  0  0  0  0  0  0  0  0  0  0
  190.9740  173.9860  143.1390 C   0  0  0  0  0  0  0  0  0  0  0  0
  186.9990  178.0190  145.7530 C   0  0  0  0  0  3  0  0  0  0  0  0
  187.9640  176.4200  147.3450 C   0  0  0  0  0  3  0  0  0  0  0  0
  192.5140  173.0640  140.9940 C   0  0  0  0  0  0  0  0  0  0  0  0
  189.7920  175.4700  141.5820 O   0  0  0  0  0  0  0  0  0  0  0  0
  188.1880  177.0650  142.3470 C   0  0  0  0  0  0  0  0  0  0  0  0
  194.2820  169.4350  142.9460 C   0  0  1  0  0  3  0  0  0  0  0  0
  193.3180  172.4610  140.0990 C   0  0  1  0  0  3  0  0  0  0  0  0
  189.0820  176.0930  142.6150 C   0  0  0  0  0  0  0  0  0  0  0  0
  191.5220  174.0180  140.7510 C   0  0  0  0  0  3  0  0  0  0  0  0
  188.7550  175.8550  146.4270 C   0  0  0  0  0  3  0  0  0  0  0  0
  190.7560  174.4890  141.8270 C   0  0  0  0  0  0  0  0  0  0  0  0
  188.0340  177.6400  144.7330 C   0  0  1  0  0  3  0  0  0  0  0  0
  194.8770  169.2230  141.5390 C   0  0  0  0  0  2  0  0  0  0  0  0
  188.7000  176.3160  145.0230 C   0  0  0  0  0  0  0  0  0  0  0  0
  193.4140  172.7920  138.6110 C   0  0  2  0  0  0  0  0  0  0  0  0
  194.4910  172.0820  138.0550 O   0  0  0  0  0  1  0  0  0  0  0  0
  194.0630  174.4930  137.1100 N   0  0  0  0  0  2  0  0  0  0  0  0
  193.6090  174.2450  138.4210 N   0  0  0  0  0  0  0  0  0  0  0  0
  195.3290  175.1300  137.1600 C   0  0  0  0  0  3  0  0  0  0  0  0
  194.6670  174.6870  139.1880 O   0  0  0  0  0  0  0  0  0  0  0  0
  195.6830  175.2390  138.4250 C   0  0  0  0  0  3  0  0  0  0  0  0
  191.1820  173.4030  137.7970 O   0  0  0  0  0  1  0  0  0  0  0  0
  192.0890  172.3510  137.9400 C   0  0  2  0  0  3  0  0  0  0  0  0
  191.4750  171.2530  138.6180 O   0  0  0  0  0  0  0  0  0  0  0  0
  190.0890  171.1120  138.7090 C   0  0  0  0  0  3  0  0  0  0  0  0
  189.4870  170.1830  138.1050 O   0  0  0  0  0  0  0  0  0  0  0  0
  187.9370  177.4970  140.9260 C   0  0  0  0  0  2  0  0  0  0  0  0
  186.6670  176.9160  140.2900 C   0  0  1  0  0  3  0  0  0  0  0  0
  185.5430  177.2490  141.0480 O   0  0  0  0  0  0  0  0  0  0  0  0
  184.9800  178.3420  140.3880 C   0  0  0  0  0  1  0  0  0  0  0  0
  186.5110  177.3820  138.8460 C   0  0  0  0  0  2  0  0  0  0  0  0
  186.6620  176.2120  137.8900 C   0  0  0  0  0  1  0  0  0  0  0  0
  186.0420  177.9690  148.0120 C   0  0  0  0  0  2  0  0  0  0  0  0
  184.9230  178.6470  147.3760 N   0  0  0  0  0  2  0  0  0  0  0  0
  184.1390  177.6810  146.8470 O   0  0  0  0  0  1  0  0  0  0  0  0
  195.1080  168.7740  144.0390 C   0  0  0  0  0  2  0  0  0  0  0  0
  196.5280  169.3160  144.0660 C   0  0  0  0  0  2  0  0  0  0  0  0
  196.8600  169.8890  145.4350 C   0  0  1  0  0  3  0  0  0  0  0  0
  196.8870  172.1010  146.3110 O   0  0  0  0  0  0  0  0  0  0  0  0
  197.2300  171.3470  145.3640 C   0  0  0  0  0  0  0  0  0  0  0  0
  197.8870  171.9100  144.2640 O   0  0  0  0  0  0  0  0  0  0  0  0
  197.3070  172.9010  143.4290 C   0  0  2  0  0  3  0  0  0  0  0  0
  197.5140  172.5290  141.9740 C   0  0  0  0  0  1  0  0  0  0  0  0
  197.9150  174.1280  143.6810 O   0  0  0  0  0  1  0  0  0  0  0  0
  195.7740  169.7080  146.2960 O   0  0  0  0  0  0  0  0  0  0  0  0
  196.2820  168.9690  147.3660 C   0  0  0  0  0  2  0  0  0  0  0  0
  195.1630  168.1810  148.0160 C   0  0  0  0  0  1  0  0  0  0  0  0
  192.3040  172.5470  144.7620 C   0  0  0  0  0  2  0  0  0  0  0  0
  192.9790  173.6260  145.6000 C   0  0  0  0  0  2  0  0  0  0  0  0
  194.2030  174.1720  144.8910 C   0  0  0  0  0  2  0  0  0  0  0  0
  195.0640  174.7410  145.8280 O   0  0  0  0  0  1  0  0  0  0  0  0
  1  5  1  0  0  0  0
  1 25  2  0  0  0  0
  2 23  1  0  0  0  0
  3 10  1  6  0  0  0
  3  8  1  0  0  0  0
  4 13  1  0  0  0  0
  4 44  1  0  0  0  0
  6 24  1  0  0  0  0
  7 59  1  0  0  0  0
  9  6  1  6  0  0  0
  9  3  1  0  0  0  0
 10  7  2  0  0  0  0
 11  7  1  0  0  0  0
 11  5  1  0  0  0  0
 12  4  2  0  0  0  0
 14 10  1  0  0  0  0
 15 22  1  0  0  0  0
 15 19  1  0  0  0  0
 16 19  2  0  0  0  0
 16  2  1  0  0  0  0
 17  8  1  0  0  0  0
 17 47  1  1  0  0  0
 18 26  1  1  0  0  0
 18  9  1  0  0  0  0
 18 14  1  0  0  0  0
 19  1  1  0  0  0  0
 20 14  2  0  0  0  0
 20 22  1  0  0  0  0
 21 13  2  0  0  0  0
 22 11  2  0  0  0  0
 23 25  1  0  0  0  0
 23 12  1  1  0  0  0
 24 17  1  0  0  0  0
 25 21  1  0  0  0  0
 26 27  1  6  0  0  0
 28 30  1  0  0  0  0
 28 29  1  0  0  0  0
 29 26  1  0  0  0  0
 29 31  1  0  0  0  0
 30 32  2  0  0  0  0
 32 31  1  0  0  0  0
 34 33  1  1  0  0  0
 34 26  1  0  0  0  0
 34 35  1  0  0  0  0
 35 36  1  0  0  0  0
 37 36  2  0  0  0  0
 38 16  1  0  0  0  0
 39 42  1  6  0  0  0
 39 38  1  0  0  0  0
 39 40  1  0  0  0  0
 41 40  1  0  0  0  0
 43 42  1  0  0  0  0
 45 44  1  0  0  0  0
 46 45  1  0  0  0  0
 47 48  1  0  0  0  0
 49 48  1  6  0  0  0
 49 56  1  0  0  0  0
 51 49  1  0  0  0  0
 51 50  2  0  0  0  0
 52 51  1  0  0  0  0
 53 54  1  6  0  0  0
 53 55  1  0  0  0  0
 53 52  1  0  0  0  0
 56 57  1  0  0  0  0
 57 58  1  0  0  0  0
 59 60  1  0  0  0  0
 61 60  1  0  0  0  0
 61 62  1  0  0  0  0
M  END
>  <MODEL>
1

>  <REMARK>
 VINA RESULT:      -5.6      0.000      0.000
  Name = 
  22 active torsions:
  status: ('A' for Active; 'I' for Inactive)
    1  A    between atoms: C_1  and  C_12
    2  A    between atoms: C_1  and  C_19
    3  A    between atoms: C_2  and  C_36
    4  A    between atoms: C_2  and  C_49
    5  A    between atoms: N_4  and  C_23
    6  A    between atoms: O_5  and  C_53
    7  A    between atoms: C_8  and  C_12
    8  A    between atoms: C_11  and  O_62
    9  A    between atoms: O_13  and  C_41
   10  A    between atoms: O_13  and  C_54
   11  A    between atoms: N_14  and  C_24
   12  A    between atoms: C_15  and  C_23
   13  A    between atoms: C_24  and  C_38
   14  A    between atoms: C_24  and  C_54
   15  A    between atoms: C_34  and  C_58
   16  A    between atoms: C_35  and  O_50
   17  A    between atoms: C_36  and  C_48
   18  A    between atoms: C_36  and  O_50
   19  A    between atoms: C_37  and  C_49
   20  A    between atoms: C_39  and  C_53
   21  A    between atoms: C_48  and  O_62
   22  A    between atoms: C_53  and  C_58
                            x       y       z     vdW  Elec       q    Type
                         _______ _______ _______ _____ _____    ______ ____

>  <TORSDO>
F 22

$$$$
=
 OpenBabel11042416353D

 62 68  0  0  1  0  0  0  0  0999 V2000
  191.2210  172.8940  138.7120 C   0  0  0  0  0  0  0  0  0  0  0  0
  190.2300  172.3870  136.1710 O   0  0  0  0  0  0  0  0  0  0  0  0
  190.4690  175.2830  144.3780 C   0  0  1  0  0  3  0  0  0  0  0  0
  193.3900  170.6430  135.9460 C   0  0  0  0  0  0  0  0  0  0  0  0
  191.8460  173.4110  139.9770 C   0  0  0  0  0  2  0  0  0  0  0  0
  189.7460  177.3370  145.4230 C   0  0  0  0  0  2  0  0  0  0  0  0
  191.2200  174.2320  142.2840 C   0  0  0  0  0  0  0  0  0  0  0  0
  191.6390  175.2120  145.1260 O   0  0  0  0  0  0  0  0  0  0  0  0
  189.2670  175.9990  144.8750 C   0  0  1  0  0  3  0  0  0  0  0  0
  190.3170  174.9200  143.1170 C   0  0  0  0  0  0  0  0  0  0  0  0
  190.8530  174.0340  140.9300 C   0  0  0  0  0  0  0  0  0  0  0  0
  192.1220  170.9650  135.6510 C   0  0  0  0  0  3  0  0  0  0  0  0
  193.9420  170.8850  137.2950 C   0  0  0  0  0  3  0  0  0  0  0  0
  189.1170  175.4030  142.6430 C   0  0  0  0  0  0  0  0  0  0  0  0
  189.1820  174.2560  139.1470 O   0  0  0  0  0  0  0  0  0  0  0  0
  189.4730  173.2080  137.0210 C   0  0  0  0  0  0  0  0  0  0  0  0
  192.0140  176.3270  145.9390 C   0  0  1  0  0  3  0  0  0  0  0  0
  188.4550  176.0780  143.6020 C   0  0  1  0  0  3  0  0  0  0  0  0
  189.9190  173.4530  138.2690 C   0  0  0  0  0  0  0  0  0  0  0  0
  188.7290  175.1920  141.3170 C   0  0  0  0  0  3  0  0  0  0  0  0
  193.2460  171.5490  138.2220 C   0  0  0  0  0  3  0  0  0  0  0  0
  189.5930  174.4950  140.4600 C   0  0  0  0  0  0  0  0  0  0  0  0
  191.1790  171.4650  136.7070 C   0  0  1  0  0  3  0  0  0  0  0  0
  190.7980  177.0830  146.5140 C   0  0  0  0  0  2  0  0  0  0  0  0
  191.8850  172.0380  137.9140 C   0  0  0  0  0  0  0  0  0  0  0  0
  187.0460  176.6570  143.4820 C   0  0  2  0  0  0  0  0  0  0  0  0
  186.2000  175.6810  142.9300 O   0  0  0  0  0  1  0  0  0  0  0  0
  185.7400  178.3190  142.4360 N   0  0  0  0  0  2  0  0  0  0  0  0
  187.0590  177.8640  142.6300 N   0  0  0  0  0  0  0  0  0  0  0  0
  185.4330  178.3070  141.0510 C   0  0  0  0  0  3  0  0  0  0  0  0
  187.4490  177.5360  141.3470 O   0  0  0  0  0  0  0  0  0  0  0  0
  186.4770  177.8290  140.4040 C   0  0  0  0  0  3  0  0  0  0  0  0
  185.4060  176.3400  145.2790 O   0  0  0  0  0  1  0  0  0  0  0  0
  186.5630  177.0280  144.9070 C   0  0  2  0  0  3  0  0  0  0  0  0
  186.3780  178.4360  145.0690 O   0  0  0  0  0  0  0  0  0  0  0  0
  185.5860  178.9730  146.0860 C   0  0  0  0  0  3  0  0  0  0  0  0
  184.3940  179.3230  145.8670 O   0  0  0  0  0  0  0  0  0  0  0  0
  188.1690  173.7970  136.5500 C   0  0  0  0  0  2  0  0  0  0  0  0
  188.2860  175.1770  135.8910 C   0  0  1  0  0  3  0  0  0  0  0  0
  188.8480  175.0670  134.6180 O   0  0  0  0  0  0  0  0  0  0  0  0
  189.7180  176.1520  134.5180 C   0  0  0  0  0  1  0  0  0  0  0  0
  186.9310  175.8760  135.8320 C   0  0  0  0  0  2  0  0  0  0  0  0
  186.3730  176.0760  137.2300 C   0  0  0  0  0  1  0  0  0  0  0  0
  194.2690  170.0400  134.9030 C   0  0  0  0  0  2  0  0  0  0  0  0
  195.6070  170.6050  134.9800 N   0  0  0  0  0  2  0  0  0  0  0  0
  196.4580  169.5620  135.0980 O   0  0  0  0  0  1  0  0  0  0  0  0
  192.9980  175.8920  147.0140 C   0  0  0  0  0  2  0  0  0  0  0  0
  194.4240  176.2700  146.6470 C   0  0  0  0  0  2  0  0  0  0  0  0
  194.9300  175.4120  145.4970 C   0  0  1  0  0  3  0  0  0  0  0  0
  196.1430  177.1740  144.4580 O   0  0  0  0  0  0  0  0  0  0  0  0
  195.3170  176.2390  144.3000 C   0  0  0  0  0  0  0  0  0  0  0  0
  194.7530  176.0490  143.0340 O   0  0  0  0  0  0  0  0  0  0  0  0
  195.5150  176.0070  141.8360 C   0  0  2  0  0  3  0  0  0  0  0  0
  194.5950  175.7730  140.6530 C   0  0  0  0  0  1  0  0  0  0  0  0
  196.4380  174.9680  141.9140 O   0  0  0  0  0  1  0  0  0  0  0  0
  196.0170  174.6460  145.9270 O   0  0  0  0  0  0  0  0  0  0  0  0
  195.8690  173.4160  145.2810 C   0  0  0  0  0  2  0  0  0  0  0  0
  196.8400  172.4140  145.8730 C   0  0  0  0  0  1  0  0  0  0  0  0
  192.5140  173.6880  142.8270 C   0  0  0  0  0  2  0  0  0  0  0  0
  192.4690  172.1710  142.9530 C   0  0  0  0  0  2  0  0  0  0  0  0
  192.1390  171.7570  144.3750 C   0  0  0  0  0  2  0  0  0  0  0  0
  190.7560  171.7360  144.5400 O   0  0  0  0  0  1  0  0  0  0  0  0
  1  5  1  0  0  0  0
  2 23  1  0  0  0  0
  2 16  1  0  0  0  0
  3 10  1  6  0  0  0
  3  9  1  0  0  0  0
  3  8  1  0  0  0  0
  4 13  1  0  0  0  0
  5 11  1  0  0  0  0
  6 24  1  0  0  0  0
  7 59  1  0  0  0  0
  7 10  1  0  0  0  0
  8 17  1  0  0  0  0
  9  6  1  6  0  0  0
 11  7  2  0  0  0  0
 12  4  2  0  0  0  0
 13 21  2  0  0  0  0
 14 10  2  0  0  0  0
 14 18  1  0  0  0  0
 15 22  1  0  0  0  0
 16 19  2  0  0  0  0
 17 24  1  0  0  0  0
 17 47  1  1  0  0  0
 18 26  1  1  0  0  0
 18  9  1  0  0  0  0
 19  1  1  0  0  0  0
 19 15  1  0  0  0  0
 20 14  1  0  0  0  0
 22 11  1  0  0  0  0
 22 20  2  0  0  0  0
 23 12  1  6  0  0  0
 23 25  1  0  0  0  0
 25 21  1  0  0  0  0
 25  1  2  0  0  0  0
 26 27  1  6  0  0  0
 26 34  1  0  0  0  0
 28 29  1  0  0  0  0
 29 26  1  0  0  0  0
 30 28  1  0  0  0  0
 31 29  1  0  0  0  0
 32 30  2  0  0  0  0
 32 31  1  0  0  0  0
 34 35  1  0  0  0  0
 34 33  1  6  0  0  0
 35 36  1  0  0  0  0
 37 36  2  0  0  0  0
 38 16  1  0  0  0  0
 39 42  1  6  0  0  0
 39 38  1  0  0  0  0
 40 39  1  0  0  0  0
 41 40  1  0  0  0  0
 42 43  1  0  0  0  0
 44 45  1  0  0  0  0
 44  4  1  0  0  0  0
 45 46  1  0  0  0  0
 48 47  1  0  0  0  0
 49 56  1  0  0  0  0
 49 48  1  1  0  0  0
 51 50  2  0  0  0  0
 51 49  1  0  0  0  0
 52 51  1  0  0  0  0
 53 54  1  6  0  0  0
 53 55  1  0  0  0  0
 53 52  1  0  0  0  0
 57 58  1  0  0  0  0
 57 56  1  0  0  0  0
 59 60  1  0  0  0  0
 60 61  1  0  0  0  0
 61 62  1  0  0  0  0
M  END
>  <MODEL>
2

>  <REMARK>
 VINA RESULT:      -5.6      2.660      8.457
  Name = 
  22 active torsions:
  status: ('A' for Active; 'I' for Inactive)
    1  A    between atoms: C_1  and  C_12
    2  A    between atoms: C_1  and  C_19
    3  A    between atoms: C_2  and  C_36
    4  A    between atoms: C_2  and  C_49
    5  A    between atoms: N_4  and  C_23
    6  A    between atoms: O_5  and  C_53
    7  A    between atoms: C_8  and  C_12
    8  A    between atoms: C_11  and  O_62
    9  A    between atoms: O_13  and  C_41
   10  A    between atoms: O_13  and  C_54
   11  A    between atoms: N_14  and  C_24
   12  A    between atoms: C_15  and  C_23
   13  A    between atoms: C_24  and  C_38
   14  A    between atoms: C_24  and  C_54
   15  A    between atoms: C_34  and  C_58
   16  A    between atoms: C_35  and  O_50
   17  A    between atoms: C_36  and  C_48
   18  A    between atoms: C_36  and  O_50
   19  A    between atoms: C_37  and  C_49
   20  A    between atoms: C_39  and  C_53
   21  A    between atoms: C_48  and  O_62
   22  A    between atoms: C_53  and  C_58
                            x       y       z     vdW  Elec       q    Type
                         _______ _______ _______ _____ _____    ______ ____

>  <TORSDO>
F 22

$$$$
=
 OpenBabel11042416353D

 62 68  0  0  1  0  0  0  0  0999 V2000
  185.1320  177.7360  142.2120 C   0  0  0  0  0  0  0  0  0  0  0  0
  183.6750  179.4470  143.8390 O   0  0  0  0  0  0  0  0  0  0  0  0
  190.1690  174.2640  141.2380 C   0  0  1  0  0  3  0  0  0  0  0  0
  181.3230  179.0480  141.1220 C   0  0  0  0  0  0  0  0  0  0  0  0
  186.0420  177.0450  141.2360 C   0  0  0  0  0  2  0  0  0  0  0  0
  192.5740  174.4400  141.3750 C   0  0  0  0  0  2  0  0  0  0  0  0
  188.0500  175.5110  141.1690 C   0  0  0  0  0  0  0  0  0  0  0  0
  190.1940  173.7430  139.9490 O   0  0  0  0  0  0  0  0  0  0  0  0
  191.3160  174.1050  142.1660 C   0  0  1  0  0  3  0  0  0  0  0  0
  189.2680  175.0930  141.7360 C   0  0  0  0  0  0  0  0  0  0  0  0
  187.2910  176.4810  141.8710 C   0  0  0  0  0  0  0  0  0  0  0  0
  181.7600  179.3200  142.3600 C   0  0  0  0  0  3  0  0  0  0  0  0
  182.0670  178.1280  140.2380 C   0  0  0  0  0  3  0  0  0  0  0  0
  189.7300  175.6090  142.9260 C   0  0  0  0  0  0  0  0  0  0  0  0
  186.9930  177.8840  143.8620 O   0  0  0  0  0  0  0  0  0  0  0  0
  184.9750  179.1040  144.2410 C   0  0  0  0  0  0  0  0  0  0  0  0
  191.4290  173.7250  139.2290 C   0  0  1  0  0  3  0  0  0  0  0  0
  190.9400  175.1070  143.2340 C   0  0  1  0  0  3  0  0  0  0  0  0
  185.6980  178.2570  143.4820 C   0  0  0  0  0  0  0  0  0  0  0  0
  188.9810  176.5460  143.6430 C   0  0  0  0  0  3  0  0  0  0  0  0
  183.2610  177.6420  140.5860 C   0  0  0  0  0  3  0  0  0  0  0  0
  187.7520  176.9750  143.1210 C   0  0  0  0  0  0  0  0  0  0  0  0
  182.9480  178.6090  142.9410 C   0  0  1  0  0  3  0  0  0  0  0  0
  192.6520  173.5200  140.1460 C   0  0  0  0  0  2  0  0  0  0  0  0
  183.8530  178.0060  141.8920 C   0  0  0  0  0  0  0  0  0  0  0  0
  191.7140  175.3590  144.5270 C   0  0  2  0  0  0  0  0  0  0  0  0
  192.3860  174.1800  144.8910 O   0  0  0  0  0  1  0  0  0  0  0  0
  191.3450  176.8630  146.3060 N   0  0  0  0  0  0  0  0  0  0  0  0
  190.7920  175.7740  145.6040 N   0  0  0  0  0  0  0  0  0  0  0  0
  191.5170  176.5100  147.6690 C   0  0  0  0  0  3  0  0  0  0  0  0
  190.7270  174.7970  146.5770 O   0  0  0  0  0  0  0  0  0  0  0  0
  191.1410  175.2550  147.8180 C   0  0  0  0  0  2  0  0  0  0  0  0
  192.3620  177.3140  143.1950 O   0  0  0  0  0  1  0  0  0  0  0  0
  192.7410  176.4870  144.2550 C   0  0  2  0  0  3  0  0  0  0  0  0
  194.0610  175.9820  144.0450 O   0  0  0  0  0  0  0  0  0  0  0  0
  195.1890  176.5840  144.6070 C   0  0  0  0  0  3  0  0  0  0  0  0
  196.1910  176.8790  143.9000 O   0  0  0  0  0  0  0  0  0  0  0  0
  185.5520  179.6640  145.5150 C   0  0  0  0  0  2  0  0  0  0  0  0
  185.2230  178.8610  146.7800 C   0  0  1  0  0  3  0  0  0  0  0  0
  184.3140  177.8410  146.4900 O   0  0  0  0  0  0  0  0  0  0  0  0
  185.0270  176.6600  146.6960 C   0  0  0  0  0  1  0  0  0  0  0  0
  186.4880  178.3010  147.4220 C   0  0  0  0  0  2  0  0  0  0  0  0
  187.0150  179.2530  148.4800 C   0  0  0  0  0  1  0  0  0  0  0  0
  180.0720  179.6840  140.6160 C   0  0  0  0  0  2  0  0  0  0  0  0
  178.9220  179.2110  141.3710 N   0  0  0  0  0  2  0  0  0  0  0  0
  177.9490  180.1350  141.2080 O   0  0  0  0  0  1  0  0  0  0  0  0
  191.3670  172.7110  138.0960 C   0  0  0  0  0  2  0  0  0  0  0  0
  191.8240  173.3200  136.7810 C   0  0  0  0  0  2  0  0  0  0  0  0
  192.8020  172.3970  136.0710 C   0  0  1  0  0  3  0  0  0  0  0  0
  195.1220  172.3010  135.5490 O   0  0  0  0  0  0  0  0  0  0  0  0
  194.2310  172.8290  136.2650 C   0  0  0  0  0  0  0  0  0  0  0  0
  194.6180  173.7490  137.2460 O   0  0  0  0  0  0  0  0  0  0  0  0
  195.9690  173.9650  137.6270 C   0  0  2  0  0  3  0  0  0  0  0  0
  196.2090  173.3830  139.0060 C   0  0  0  0  0  1  0  0  0  0  0  0
  196.2270  175.3320  137.6530 O   0  0  0  0  0  1  0  0  0  0  0  0
  192.6270  171.0880  136.5270 O   0  0  0  0  0  0  0  0  0  0  0  0
  192.1670  170.3770  135.4160 C   0  0  0  0  0  2  0  0  0  0  0  0
  193.1680  169.2990  135.0530 C   0  0  0  0  0  1  0  0  0  0  0  0
  187.5490  174.9140  139.8810 C   0  0  0  0  0  2  0  0  0  0  0  0
  187.5340  175.9460  138.7600 C   0  0  0  0  0  2  0  0  0  0  0  0
  187.3410  175.2770  137.4140 C   0  0  0  0  0  2  0  0  0  0  0  0
  186.3220  175.9260  136.7180 O   0  0  0  0  0  1  0  0  0  0  0  0
  1 19  1  0  0  0  0
  2 16  1  0  0  0  0
  3  8  1  6  0  0  0
  3 10  1  0  0  0  0
  3  9  1  0  0  0  0
  4 12  2  0  0  0  0
  5 11  1  0  0  0  0
  5  1  1  0  0  0  0
  7 10  2  0  0  0  0
  7 11  1  0  0  0  0
  9  6  1  6  0  0  0
  9 18  1  0  0  0  0
 10 14  1  0  0  0  0
 11 22  2  0  0  0  0
 13 21  2  0  0  0  0
 13  4  1  0  0  0  0
 14 18  1  0  0  0  0
 14 20  2  0  0  0  0
 16 38  1  0  0  0  0
 17 47  1  6  0  0  0
 17  8  1  0  0  0  0
 17 24  1  0  0  0  0
 18 26  1  1  0  0  0
 19 15  1  0  0  0  0
 19 16  2  0  0  0  0
 21 25  1  0  0  0  0
 22 20  1  0  0  0  0
 22 15  1  0  0  0  0
 23 12  1  6  0  0  0
 23  2  1  0  0  0  0
 24  6  1  0  0  0  0
 25  1  2  0  0  0  0
 25 23  1  0  0  0  0
 26 27  1  1  0  0  0
 26 29  1  0  0  0  0
 28 30  2  0  0  0  0
 29 28  1  0  0  0  0
 29 31  1  0  0  0  0
 30 32  1  0  0  0  0
 31 32  1  0  0  0  0
 34 33  1  6  0  0  0
 34 26  1  0  0  0  0
 35 34  1  0  0  0  0
 35 36  1  0  0  0  0
 37 36  2  0  0  0  0
 39 38  1  6  0  0  0
 39 42  1  0  0  0  0
 40 41  1  0  0  0  0
 40 39  1  0  0  0  0
 42 43  1  0  0  0  0
 44  4  1  0  0  0  0
 44 45  1  0  0  0  0
 46 45  1  0  0  0  0
 48 47  1  0  0  0  0
 49 51  1  0  0  0  0
 49 56  1  0  0  0  0
 49 48  1  1  0  0  0
 50 51  2  0  0  0  0
 51 52  1  0  0  0  0
 52 53  1  0  0  0  0
 53 55  1  0  0  0  0
 53 54  1  1  0  0  0
 57 56  1  0  0  0  0
 58 57  1  0  0  0  0
 59  7  1  0  0  0  0
 60 59  1  0  0  0  0
 61 60  1  0  0  0  0
 62 61  1  0  0  0  0
M  END
>  <MODEL>
3

>  <REMARK>
 VINA RESULT:      -5.6      3.729      7.798
  Name = 
  22 active torsions:
  status: ('A' for Active; 'I' for Inactive)
    1  A    between atoms: C_1  and  C_12
    2  A    between atoms: C_1  and  C_19
    3  A    between atoms: C_2  and  C_36
    4  A    between atoms: C_2  and  C_49
    5  A    between atoms: N_4  and  C_23
    6  A    between atoms: O_5  and  C_53
    7  A    between atoms: C_8  and  C_12
    8  A    between atoms: C_11  and  O_62
    9  A    between atoms: O_13  and  C_41
   10  A    between atoms: O_13  and  C_54
   11  A    between atoms: N_14  and  C_24
   12  A    between atoms: C_15  and  C_23
   13  A    between atoms: C_24  and  C_38
   14  A    between atoms: C_24  and  C_54
   15  A    between atoms: C_34  and  C_58
   16  A    between atoms: C_35  and  O_50
   17  A    between atoms: C_36  and  C_48
   18  A    between atoms: C_36  and  O_50
   19  A    between atoms: C_37  and  C_49
   20  A    between atoms: C_39  and  C_53
   21  A    between atoms: C_48  and  O_62
   22  A    between atoms: C_53  and  C_58
                            x       y       z     vdW  Elec       q    Type
                         _______ _______ _______ _____ _____    ______ ____

>  <TORSDO>
F 22

$$$$
=
 OpenBabel11042416353D

 62 68  0  0  1  0  0  0  0  0999 V2000
  188.8200  175.6720  143.6800 C   0  0  0  0  0  0  0  0  0  0  0  0
  187.0570  177.7000  142.9880 O   0  0  0  0  0  0  0  0  0  0  0  0
  193.0190  171.4280  142.0260 C   0  0  1  0  0  3  0  0  0  0  0  0
  186.7380  177.8230  146.5880 C   0  0  0  0  0  0  0  0  0  0  0  0
  189.5570  174.4040  144.0070 C   0  0  0  0  0  2  0  0  0  0  0  0
  193.2930  169.6480  140.4170 C   0  0  0  0  0  2  0  0  0  0  0  0
  191.4110  172.9270  143.1310 C   0  0  0  0  0  0  0  0  0  0  0  0
  193.3970  170.6320  143.1020 O   0  0  0  0  0  0  0  0  0  0  0  0
  193.4790  171.1420  140.6440 C   0  0  1  0  0  3  0  0  0  0  0  0
  192.0990  172.3770  142.0330 C   0  0  0  0  0  0  0  0  0  0  0  0
  190.4000  173.8840  142.8670 C   0  0  0  0  0  0  0  0  0  0  0  0
  186.6810  178.2490  145.3180 C   0  0  0  0  0  3  0  0  0  0  0  0
  187.6780  176.7570  146.9910 C   0  0  0  0  0  3  0  0  0  0  0  0
  191.8020  172.7360  140.7370 C   0  0  0  0  0  0  0  0  0  0  0  0
  189.1840  175.2710  141.2480 O   0  0  0  0  0  0  0  0  0  0  0  0
  187.6680  176.9770  141.9520 C   0  0  0  0  0  0  0  0  0  0  0  0
  193.5610  169.2250  142.9030 C   0  0  1  0  0  3  0  0  0  0  0  0
  192.5430  172.0340  139.8590 C   0  0  1  0  0  3  0  0  0  0  0  0
  188.5460  176.0010  142.2580 C   0  0  0  0  0  0  0  0  0  0  0  0
  190.8270  173.6990  140.4620 C   0  0  0  0  0  3  0  0  0  0  0  0
  188.4050  176.0930  146.0880 C   0  0  0  0  0  3  0  0  0  0  0  0
  190.1310  174.2830  141.5300 C   0  0  0  0  0  0  0  0  0  0  0  0
  187.6510  177.7530  144.2850 C   0  0  1  0  0  3  0  0  0  0  0  0
  194.0780  168.8780  141.4910 C   0  0  0  0  0  2  0  0  0  0  0  0
  188.2930  176.4360  144.6540 C   0  0  0  0  0  0  0  0  0  0  0  0
  192.5730  172.2370  138.3450 C   0  0  2  0  0  0  0  0  0  0  0  0
  192.2500  173.5740  138.0590 O   0  0  0  0  0  1  0  0  0  0  0  0
  190.7930  172.0630  136.8070 N   0  0  0  0  0  0  0  0  0  0  0  0
  191.6120  171.3280  137.6870 N   0  0  0  0  0  0  0  0  0  0  0  0
  189.4370  171.9330  137.2010 C   0  0  0  0  0  3  0  0  0  0  0  0
  190.7010  170.8520  138.6080 O   0  0  0  0  0  0  0  0  0  0  0  0
  189.3970  171.1990  138.2950 C   0  0  0  0  0  2  0  0  0  0  0  0
  194.8470  173.0410  137.8990 O   0  0  0  0  0  1  0  0  0  0  0  0
  194.0090  171.9250  137.8520 C   0  0  2  0  0  3  0  0  0  0  0  0
  194.0210  171.3470  136.5450 O   0  0  0  0  0  0  0  0  0  0  0  0
  195.0960  170.5890  136.0750 C   0  0  0  0  0  3  0  0  0  0  0  0
  195.8900  171.0510  135.2100 O   0  0  0  0  0  0  0  0  0  0  0  0
  187.3590  177.2970  140.5130 C   0  0  0  0  0  2  0  0  0  0  0  0
  185.8660  177.2990  140.1590 C   0  0  1  0  0  3  0  0  0  0  0  0
  185.3130  178.5640  140.3750 O   0  0  0  0  0  0  0  0  0  0  0  0
  183.9430  178.3350  140.5100 C   0  0  0  0  0  1  0  0  0  0  0  0
  185.6390  176.8410  138.7230 C   0  0  0  0  0  2  0  0  0  0  0  0
  186.9650  176.6400  138.0110 C   0  0  0  0  0  1  0  0  0  0  0  0
  185.8380  178.4200  147.6160 C   0  0  0  0  0  2  0  0  0  0  0  0
  184.5060  178.6240  147.0660 N   0  0  0  0  0  2  0  0  0  0  0  0
  183.9990  177.3950  146.8230 O   0  0  0  0  0  1  0  0  0  0  0  0
  194.4210  168.6310  144.0070 C   0  0  0  0  0  2  0  0  0  0  0  0
  195.8270  169.2080  143.9860 C   0  0  0  0  0  2  0  0  0  0  0  0
  196.1270  169.9440  145.2830 C   0  0  1  0  0  3  0  0  0  0  0  0
  196.6040  172.1460  146.0480 O   0  0  0  0  0  0  0  0  0  0  0  0
  196.4390  171.3980  145.0500 C   0  0  0  0  0  0  0  0  0  0  0  0
  196.4970  171.9650  143.7720 O   0  0  0  0  0  0  0  0  0  0  0  0
  196.6750  173.3540  143.5390 C   0  0  2  0  0  3  0  0  0  0  0  0
  195.6240  173.8480  142.5640 C   0  0  0  0  0  1  0  0  0  0  0  0
  197.9400  173.5720  143.0000 O   0  0  0  0  0  1  0  0  0  0  0  0
  195.0420  169.8170  146.1560 O   0  0  0  0  0  0  0  0  0  0  0  0
  195.5300  169.0710  147.2310 C   0  0  0  0  0  2  0  0  0  0  0  0
  197.0170  168.8420  147.0570 C   0  0  0  0  0  1  0  0  0  0  0  0
  191.7680  172.5410  144.5410 C   0  0  0  0  0  2  0  0  0  0  0  0
  192.1130  173.7650  145.3810 C   0  0  0  0  0  2  0  0  0  0  0  0
  193.6090  173.8660  145.5990 C   0  0  0  0  0  2  0  0  0  0  0  0
  193.8860  174.9760  146.3960 O   0  0  0  0  0  1  0  0  0  0  0  0
  1  5  1  0  0  0  0
  1 25  2  0  0  0  0
  2 23  1  0  0  0  0
  3 10  1  6  0  0  0
  3  8  1  0  0  0  0
  4 13  1  0  0  0  0
  4 44  1  0  0  0  0
  6 24  1  0  0  0  0
  7 59  1  0  0  0  0
  9  6  1  6  0  0  0
  9  3  1  0  0  0  0
 10  7  2  0  0  0  0
 11  7  1  0  0  0  0
 11  5  1  0  0  0  0
 12  4  2  0  0  0  0
 14 10  1  0  0  0  0
 15 22  1  0  0  0  0
 15 19  1  0  0  0  0
 16 19  2  0  0  0  0
 16  2  1  0  0  0  0
 17  8  1  0  0  0  0
 17 47  1  1  0  0  0
 18 26  1  1  0  0  0
 18  9  1  0  0  0  0
 18 14  1  0  0  0  0
 19  1  1  0  0  0  0
 20 14  2  0  0  0  0
 20 22  1  0  0  0  0
 21 13  2  0  0  0  0
 22 11  2  0  0  0  0
 23 25  1  0  0  0  0
 23 12  1  1  0  0  0
 24 17  1  0  0  0  0
 25 21  1  0  0  0  0
 26 27  1  6  0  0  0
 28 30  2  0  0  0  0
 28 29  1  0  0  0  0
 29 26  1  0  0  0  0
 29 31  1  0  0  0  0
 30 32  1  0  0  0  0
 32 31  1  0  0  0  0
 34 33  1  6  0  0  0
 34 26  1  0  0  0  0
 35 34  1  0  0  0  0
 36 35  1  0  0  0  0
 37 36  2  0  0  0  0
 38 16  1  0  0  0  0
 39 42  1  6  0  0  0
 39 40  1  0  0  0  0
 39 38  1  0  0  0  0
 40 41  1  0  0  0  0
 43 42  1  0  0  0  0
 45 44  1  0  0  0  0
 46 45  1  0  0  0  0
 48 47  1  0  0  0  0
 49 48  1  6  0  0  0
 49 56  1  0  0  0  0
 51 49  1  0  0  0  0
 51 50  2  0  0  0  0
 52 51  1  0  0  0  0
 53 54  1  6  0  0  0
 53 52  1  0  0  0  0
 55 53  1  0  0  0  0
 56 57  1  0  0  0  0
 58 57  1  0  0  0  0
 59 60  1  0  0  0  0
 60 61  1  0  0  0  0
 61 62  1  0  0  0  0
M  END
>  <MODEL>
4

>  <REMARK>
 VINA RESULT:      -5.3      1.289      2.276
  Name = 
  22 active torsions:
  status: ('A' for Active; 'I' for Inactive)
    1  A    between atoms: C_1  and  C_12
    2  A    between atoms: C_1  and  C_19
    3  A    between atoms: C_2  and  C_36
    4  A    between atoms: C_2  and  C_49
    5  A    between atoms: N_4  and  C_23
    6  A    between atoms: O_5  and  C_53
    7  A    between atoms: C_8  and  C_12
    8  A    between atoms: C_11  and  O_62
    9  A    between atoms: O_13  and  C_41
   10  A    between atoms: O_13  and  C_54
   11  A    between atoms: N_14  and  C_24
   12  A    between atoms: C_15  and  C_23
   13  A    between atoms: C_24  and  C_38
   14  A    between atoms: C_24  and  C_54
   15  A    between atoms: C_34  and  C_58
   16  A    between atoms: C_35  and  O_50
   17  A    between atoms: C_36  and  C_48
   18  A    between atoms: C_36  and  O_50
   19  A    between atoms: C_37  and  C_49
   20  A    between atoms: C_39  and  C_53
   21  A    between atoms: C_48  and  O_62
   22  A    between atoms: C_53  and  C_58
                            x       y       z     vdW  Elec       q    Type
                         _______ _______ _______ _____ _____    ______ ____

>  <TORSDO>
F 22

$$$$
=
 OpenBabel11042416353D

 62 68  0  0  1  0  0  0  0  0999 V2000
  188.3820  175.0410  140.9250 C   0  0  0  0  0  0  0  0  0  0  0  0
  186.6510  176.3790  139.2190 O   0  0  0  0  0  0  0  0  0  0  0  0
  193.1770  171.2120  141.7690 C   0  0  1  0  0  3  0  0  0  0  0  0
  185.5420  177.7290  142.3850 C   0  0  0  0  0  0  0  0  0  0  0  0
  189.1310  174.1090  141.8340 C   0  0  0  0  0  2  0  0  0  0  0  0
  193.9440  169.0420  141.0350 C   0  0  0  0  0  2  0  0  0  0  0  0
  191.2480  172.7310  141.9220 C   0  0  0  0  0  0  0  0  0  0  0  0
  193.3760  170.9240  143.1150 O   0  0  0  0  0  0  0  0  0  0  0  0
  193.9510  170.5280  140.7020 C   0  0  1  0  0  3  0  0  0  0  0  0
  192.2030  171.9410  141.2540 C   0  0  0  0  0  0  0  0  0  0  0  0
  190.2440  173.3570  141.1430 C   0  0  0  0  0  0  0  0  0  0  0  0
  185.7290  177.6590  141.0590 C   0  0  0  0  0  3  0  0  0  0  0  0
  186.4560  177.0420  143.3200 C   0  0  0  0  0  3  0  0  0  0  0  0
  192.1690  171.7610  139.8890 C   0  0  0  0  0  0  0  0  0  0  0  0
  189.3010  173.8610  138.9340 O   0  0  0  0  0  0  0  0  0  0  0  0
  187.5320  175.4410  138.6600 C   0  0  0  0  0  0  0  0  0  0  0  0
  193.6950  169.5840  143.5000 C   0  0  1  0  0  3  0  0  0  0  0  0
  193.1390  170.9200  139.4880 C   0  0  1  0  0  3  0  0  0  0  0  0
  188.3990  174.7920  139.4610 C   0  0  0  0  0  0  0  0  0  0  0  0
  191.2010  172.3940  139.1030 C   0  0  0  0  0  3  0  0  0  0  0  0
  187.4150  176.2230  142.8790 C   0  0  0  0  0  3  0  0  0  0  0  0
  190.2420  173.2030  139.7300 C   0  0  0  0  0  0  0  0  0  0  0  0
  186.9400  176.9870  140.4770 C   0  0  1  0  0  3  0  0  0  0  0  0
  194.5360  168.8420  142.4400 C   0  0  0  0  0  2  0  0  0  0  0  0
  187.5920  176.0090  141.4260 C   0  0  0  0  0  0  0  0  0  0  0  0
  193.4830  170.5700  138.0400 C   0  0  2  0  0  0  0  0  0  0  0  0
  193.1110  171.6430  137.2130 O   0  0  0  0  0  1  0  0  0  0  0  0
  191.9580  169.6140  136.5160 N   0  0  0  0  0  0  0  0  0  0  0  0
  192.7760  169.3390  137.6290 N   0  0  0  0  0  0  0  0  0  0  0  0
  190.6050  169.3380  136.8410 C   0  0  0  0  0  3  0  0  0  0  0  0
  191.8540  168.9770  138.5900 O   0  0  0  0  0  0  0  0  0  0  0  0
  190.5580  168.9550  138.1020 C   0  0  0  0  0  2  0  0  0  0  0  0
  195.6450  171.2550  137.1040 O   0  0  0  0  0  1  0  0  0  0  0  0
  195.0140  170.3460  137.9570 C   0  0  2  0  0  3  0  0  0  0  0  0
  195.3480  169.0050  137.5910 O   0  0  0  0  0  0  0  0  0  0  0  0
  196.5570  168.6800  136.9710 C   0  0  0  0  0  3  0  0  0  0  0  0
  197.6210  168.5640  137.6380 O   0  0  0  0  0  0  0  0  0  0  0  0
  187.5190  175.1720  137.1780 C   0  0  0  0  0  2  0  0  0  0  0  0
  186.8290  176.2500  136.3320 C   0  0  1  0  0  3  0  0  0  0  0  0
  187.4280  176.3440  135.0740 O   0  0  0  0  0  0  0  0  0  0  0  0
  188.7180  175.8440  135.2550 C   0  0  0  0  0  1  0  0  0  0  0  0
  185.3340  175.9790  136.2070 C   0  0  0  0  0  2  0  0  0  0  0  0
  184.8660  176.2170  134.7820 C   0  0  0  0  0  1  0  0  0  0  0  0
  184.3920  178.5030  142.9350 C   0  0  0  0  0  2  0  0  0  0  0  0
  184.7990  179.2390  144.1220 N   0  0  0  0  0  2  0  0  0  0  0  0
  183.8930  178.9510  145.0830 O   0  0  0  0  0  1  0  0  0  0  0  0
  194.3390  169.5690  144.8780 C   0  0  0  0  0  2  0  0  0  0  0  0
  195.4730  168.5600  144.9490 C   0  0  0  0  0  2  0  0  0  0  0  0
  196.6950  169.1680  145.6200 C   0  0  1  0  0  3  0  0  0  0  0  0
  197.4880  170.2480  143.6540 O   0  0  0  0  0  0  0  0  0  0  0  0
  197.2100  170.3710  144.8750 C   0  0  0  0  0  0  0  0  0  0  0  0
  197.4470  171.6020  145.4950 O   0  0  0  0  0  0  0  0  0  0  0  0
  196.4190  172.5240  145.8250 C   0  0  2  0  0  3  0  0  0  0  0  0
  195.7440  173.0110  144.5570 C   0  0  0  0  0  1  0  0  0  0  0  0
  196.9710  173.6100  146.4980 O   0  0  0  0  0  1  0  0  0  0  0  0
  196.3830  169.5140  146.9370 O   0  0  0  0  0  0  0  0  0  0  0  0
  196.1750  168.2970  147.5900 C   0  0  0  0  0  2  0  0  0  0  0  0
  197.1510  168.1660  148.7420 C   0  0  0  0  0  1  0  0  0  0  0  0
  191.3190  172.9370  143.4110 C   0  0  0  0  0  2  0  0  0  0  0  0
  192.2170  174.1150  143.7660 C   0  0  0  0  0  2  0  0  0  0  0  0
  191.7210  174.8140  145.0170 C   0  0  0  0  0  2  0  0  0  0  0  0
  192.7320  175.6290  145.5220 O   0  0  0  0  0  1  0  0  0  0  0  0
  1 25  2  0  0  0  0
  1  5  1  0  0  0  0
  2 23  1  0  0  0  0
  3 10  1  6  0  0  0
  3  8  1  0  0  0  0
  4 44  1  0  0  0  0
  4 13  1  0  0  0  0
  6 24  1  0  0  0  0
  7 59  1  0  0  0  0
  8 17  1  0  0  0  0
  9  6  1  1  0  0  0
  9  3  1  0  0  0  0
 10  7  1  0  0  0  0
 11  5  1  0  0  0  0
 11  7  2  0  0  0  0
 12  4  2  0  0  0  0
 14 10  2  0  0  0  0
 15 19  1  0  0  0  0
 15 22  1  0  0  0  0
 16  2  1  0  0  0  0
 16 19  2  0  0  0  0
 17 47  1  1  0  0  0
 18 26  1  6  0  0  0
 18 14  1  0  0  0  0
 18  9  1  0  0  0  0
 19  1  1  0  0  0  0
 20 22  2  0  0  0  0
 20 14  1  0  0  0  0
 21 13  2  0  0  0  0
 22 11  1  0  0  0  0
 23 12  1  1  0  0  0
 23 25  1  0  0  0  0
 24 17  1  0  0  0  0
 25 21  1  0  0  0  0
 26 27  1  6  0  0  0
 28 30  2  0  0  0  0
 28 29  1  0  0  0  0
 29 26  1  0  0  0  0
 29 31  1  0  0  0  0
 30 32  1  0  0  0  0
 32 31  1  0  0  0  0
 34 33  1  6  0  0  0
 34 26  1  0  0  0  0
 35 34  1  0  0  0  0
 36 35  1  0  0  0  0
 36 37  2  0  0  0  0
 38 16  1  0  0  0  0
 39 42  1  6  0  0  0
 39 38  1  0  0  0  0
 40 41  1  0  0  0  0
 40 39  1  0  0  0  0
 43 42  1  0  0  0  0
 44 45  1  0  0  0  0
 45 46  1  0  0  0  0
 47 48  1  0  0  0  0
 49 48  1  6  0  0  0
 49 56  1  0  0  0  0
 50 51  2  0  0  0  0
 51 52  1  0  0  0  0
 51 49  1  0  0  0  0
 52 53  1  0  0  0  0
 53 54  1  6  0  0  0
 53 55  1  0  0  0  0
 56 57  1  0  0  0  0
 57 58  1  0  0  0  0
 59 60  1  0  0  0  0
 60 61  1  0  0  0  0
 61 62  1  0  0  0  0
M  END
>  <MODEL>
5

>  <REMARK>
 VINA RESULT:      -5.1      2.433      3.783
  Name = 
  22 active torsions:
  status: ('A' for Active; 'I' for Inactive)
    1  A    between atoms: C_1  and  C_12
    2  A    between atoms: C_1  and  C_19
    3  A    between atoms: C_2  and  C_36
    4  A    between atoms: C_2  and  C_49
    5  A    between atoms: N_4  and  C_23
    6  A    between atoms: O_5  and  C_53
    7  A    between atoms: C_8  and  C_12
    8  A    between atoms: C_11  and  O_62
    9  A    between atoms: O_13  and  C_41
   10  A    between atoms: O_13  and  C_54
   11  A    between atoms: N_14  and  C_24
   12  A    between atoms: C_15  and  C_23
   13  A    between atoms: C_24  and  C_38
   14  A    between atoms: C_24  and  C_54
   15  A    between atoms: C_34  and  C_58
   16  A    between atoms: C_35  and  O_50
   17  A    between atoms: C_36  and  C_48
   18  A    between atoms: C_36  and  O_50
   19  A    between atoms: C_37  and  C_49
   20  A    between atoms: C_39  and  C_53
   21  A    between atoms: C_48  and  O_62
   22  A    between atoms: C_53  and  C_58
                            x       y       z     vdW  Elec       q    Type
                         _______ _______ _______ _____ _____    ______ ____

>  <TORSDO>
F 22

$$$$
=
 OpenBabel11042416353D

 62 68  0  0  1  0  0  0  0  0999 V2000
  188.4040  174.9290  140.9700 C   0  0  0  0  0  0  0  0  0  0  0  0
  186.7300  176.2570  139.2000 O   0  0  0  0  0  0  0  0  0  0  0  0
  192.9900  170.8960  142.0050 C   0  0  1  0  0  3  0  0  0  0  0  0
  185.7330  177.8530  142.2880 C   0  0  0  0  0  0  0  0  0  0  0  0
  189.1110  174.0120  141.9270 C   0  0  0  0  0  2  0  0  0  0  0  0
  193.6280  168.6460  141.3980 C   0  0  0  0  0  2  0  0  0  0  0  0
  191.1500  172.5260  142.0820 C   0  0  0  0  0  0  0  0  0  0  0  0
  193.1870  170.6780  143.3640 O   0  0  0  0  0  0  0  0  0  0  0  0
  193.7130  170.1080  140.9760 C   0  0  1  0  0  3  0  0  0  0  0  0
  192.0520  171.6460  141.4550 C   0  0  0  0  0  0  0  0  0  0  0  0
  190.1730  173.1590  141.2740 C   0  0  0  0  0  0  0  0  0  0  0  0
  185.9010  177.6930  140.9670 C   0  0  0  0  0  3  0  0  0  0  0  0
  186.6180  177.1730  143.2550 C   0  0  0  0  0  3  0  0  0  0  0  0
  191.9930  171.3870  140.1040 C   0  0  0  0  0  0  0  0  0  0  0  0
  189.2350  173.5820  139.0460 O   0  0  0  0  0  0  0  0  0  0  0  0
  187.5520  175.2400  138.6910 C   0  0  0  0  0  0  0  0  0  0  0  0
  193.4370  169.3480  143.8270 C   0  0  1  0  0  3  0  0  0  0  0  0
  192.9110  170.4700  139.7460 C   0  0  1  0  0  3  0  0  0  0  0  0
  188.3910  174.5920  139.5240 C   0  0  0  0  0  0  0  0  0  0  0  0
  191.0530  172.0250  139.2890 C   0  0  0  0  0  3  0  0  0  0  0  0
  187.5260  176.2770  142.8570 C   0  0  0  0  0  3  0  0  0  0  0  0
  190.1470  172.9220  139.8730 C   0  0  0  0  0  0  0  0  0  0  0  0
  187.0670  176.9210  140.4170 C   0  0  1  0  0  3  0  0  0  0  0  0
  194.2230  168.4980  142.8070 C   0  0  0  0  0  2  0  0  0  0  0  0
  187.6740  175.9670  141.4180 C   0  0  0  0  0  0  0  0  0  0  0  0
  193.2190  170.0160  138.3200 C   0  0  2  0  0  0  0  0  0  0  0  0
  193.8320  168.7540  138.3680 O   0  0  0  0  0  1  0  0  0  0  0  0
  195.4240  170.4890  137.6280 N   0  0  0  0  0  0  0  0  0  0  0  0
  194.1070  170.9910  137.6530 N   0  0  0  0  0  0  0  0  0  0  0  0
  196.2830  171.3760  138.3260 C   0  0  0  0  0  3  0  0  0  0  0  0
  194.2390  172.1240  138.4300 O   0  0  0  0  0  0  0  0  0  0  0  0
  195.5510  172.3600  138.8080 C   0  0  0  0  0  2  0  0  0  0  0  0
  191.3220  168.6410  137.5940 O   0  0  0  0  0  1  0  0  0  0  0  0
  191.8770  169.9220  137.5510 C   0  0  2  0  0  3  0  0  0  0  0  0
  191.9920  170.3710  136.1990 O   0  0  0  0  0  0  0  0  0  0  0  0
  190.8760  170.5990  135.3910 C   0  0  0  0  0  3  0  0  0  0  0  0
  190.7390  171.6840  134.7610 O   0  0  0  0  0  0  0  0  0  0  0  0
  187.5080  174.8840  137.2280 C   0  0  0  0  0  2  0  0  0  0  0  0
  188.3270  175.8050  136.3150 C   0  0  1  0  0  3  0  0  0  0  0  0
  188.9670  175.0660  135.3180 O   0  0  0  0  0  0  0  0  0  0  0  0
  189.9730  175.9060  134.8420 C   0  0  0  0  0  1  0  0  0  0  0  0
  187.4530  176.8990  135.7090 C   0  0  0  0  0  2  0  0  0  0  0  0
  186.1080  176.3340  135.2890 C   0  0  0  0  0  1  0  0  0  0  0  0
  184.6330  178.7210  142.7990 C   0  0  0  0  0  2  0  0  0  0  0  0
  184.4230  178.4860  144.2200 N   0  0  0  0  0  2  0  0  0  0  0  0
  183.4850  179.3730  144.6210 O   0  0  0  0  0  1  0  0  0  0  0  0
  194.0940  169.3790  145.1980 C   0  0  0  0  0  2  0  0  0  0  0  0
  194.6610  170.7540  145.5110 C   0  0  0  0  0  2  0  0  0  0  0  0
  196.1580  170.7930  145.2460 C   0  0  1  0  0  3  0  0  0  0  0  0
  196.8210  172.7070  146.4950 O   0  0  0  0  0  0  0  0  0  0  0  0
  196.7160  172.1880  145.3530 C   0  0  0  0  0  0  0  0  0  0  0  0
  197.0690  172.9510  144.2350 O   0  0  0  0  0  0  0  0  0  0  0  0
  196.2800  174.0220  143.7370 C   0  0  2  0  0  3  0  0  0  0  0  0
  195.4810  173.5530  142.5370 C   0  0  0  0  0  1  0  0  0  0  0  0
  197.1140  175.0690  143.3550 O   0  0  0  0  0  1  0  0  0  0  0  0
  196.8150  169.9410  146.1380 O   0  0  0  0  0  0  0  0  0  0  0  0
  197.9170  169.4570  145.4290 C   0  0  0  0  0  2  0  0  0  0  0  0
  197.5370  168.1790  144.7100 C   0  0  0  0  0  1  0  0  0  0  0  0
  191.2480  172.8160  143.5550 C   0  0  0  0  0  2  0  0  0  0  0  0
  192.0340  174.0950  143.8180 C   0  0  0  0  0  2  0  0  0  0  0  0
  191.5270  174.7940  145.0640 C   0  0  0  0  0  2  0  0  0  0  0  0
  190.3360  174.1970  145.4750 O   0  0  0  0  0  1  0  0  0  0  0  0
  1 25  2  0  0  0  0
  1  5  1  0  0  0  0
  2 23  1  0  0  0  0
  3 10  1  6  0  0  0
  3  8  1  0  0  0  0
  4 44  1  0  0  0  0
  4 13  1  0  0  0  0
  6 24  1  0  0  0  0
  7 59  1  0  0  0  0
  8 17  1  0  0  0  0
  9  6  1  1  0  0  0
  9  3  1  0  0  0  0
 10  7  1  0  0  0  0
 11  5  1  0  0  0  0
 11  7  2  0  0  0  0
 12  4  2  0  0  0  0
 14 10  2  0  0  0  0
 15 19  1  0  0  0  0
 15 22  1  0  0  0  0
 16  2  1  0  0  0  0
 16 19  2  0  0  0  0
 17 47  1  1  0  0  0
 18 26  1  6  0  0  0
 18 14  1  0  0  0  0
 18  9  1  0  0  0  0
 19  1  1  0  0  0  0
 20 22  2  0  0  0  0
 20 14  1  0  0  0  0
 21 13  2  0  0  0  0
 22 11  1  0  0  0  0
 23 12  1  1  0  0  0
 23 25  1  0  0  0  0
 24 17  1  0  0  0  0
 25 21  1  0  0  0  0
 26 27  1  1  0  0  0
 28 29  1  0  0  0  0
 28 30  2  0  0  0  0
 29 26  1  0  0  0  0
 29 31  1  0  0  0  0
 30 32  1  0  0  0  0
 31 32  1  0  0  0  0
 34 33  1  6  0  0  0
 34 26  1  0  0  0  0
 35 34  1  0  0  0  0
 36 35  1  0  0  0  0
 37 36  2  0  0  0  0
 38 16  1  0  0  0  0
 39 42  1  6  0  0  0
 39 38  1  0  0  0  0
 40 39  1  0  0  0  0
 41 40  1  0  0  0  0
 43 42  1  0  0  0  0
 44 45  1  0  0  0  0
 45 46  1  0  0  0  0
 47 48  1  0  0  0  0
 49 51  1  0  0  0  0
 49 48  1  1  0  0  0
 49 56  1  0  0  0  0
 51 50  2  0  0  0  0
 52 51  1  0  0  0  0
 53 54  1  6  0  0  0
 53 52  1  0  0  0  0
 55 53  1  0  0  0  0
 57 56  1  0  0  0  0
 58 57  1  0  0  0  0
 59 60  1  0  0  0  0
 60 61  1  0  0  0  0
 61 62  1  0  0  0  0
M  END
>  <MODEL>
6

>  <REMARK>
 VINA RESULT:      -4.9      2.266      3.318
  Name = 
  22 active torsions:
  status: ('A' for Active; 'I' for Inactive)
    1  A    between atoms: C_1  and  C_12
    2  A    between atoms: C_1  and  C_19
    3  A    between atoms: C_2  and  C_36
    4  A    between atoms: C_2  and  C_49
    5  A    between atoms: N_4  and  C_23
    6  A    between atoms: O_5  and  C_53
    7  A    between atoms: C_8  and  C_12
    8  A    between atoms: C_11  and  O_62
    9  A    between atoms: O_13  and  C_41
   10  A    between atoms: O_13  and  C_54
   11  A    between atoms: N_14  and  C_24
   12  A    between atoms: C_15  and  C_23
   13  A    between atoms: C_24  and  C_38
   14  A    between atoms: C_24  and  C_54
   15  A    between atoms: C_34  and  C_58
   16  A    between atoms: C_35  and  O_50
   17  A    between atoms: C_36  and  C_48
   18  A    between atoms: C_36  and  O_50
   19  A    between atoms: C_37  and  C_49
   20  A    between atoms: C_39  and  C_53
   21  A    between atoms: C_48  and  O_62
   22  A    between atoms: C_53  and  C_58
                            x       y       z     vdW  Elec       q    Type
                         _______ _______ _______ _____ _____    ______ ____

>  <TORSDO>
F 22

$$$$
=
 OpenBabel11042416353D

 62 68  0  0  1  0  0  0  0  0999 V2000
  189.3470  175.4060  143.6250 C   0  0  0  0  0  0  0  0  0  0  0  0
  187.0480  176.8960  143.1810 O   0  0  0  0  0  0  0  0  0  0  0  0
  194.0820  172.0770  141.4180 C   0  0  1  0  0  3  0  0  0  0  0  0
  187.3620  177.3190  146.7590 C   0  0  0  0  0  0  0  0  0  0  0  0
  190.4150  174.3790  143.8720 C   0  0  0  0  0  2  0  0  0  0  0  0
  194.4870  170.2480  139.8930 C   0  0  0  0  0  2  0  0  0  0  0  0
  192.3840  173.2790  142.7310 C   0  0  0  0  0  0  0  0  0  0  0  0
  194.8300  171.5050  142.4410 O   0  0  0  0  0  0  0  0  0  0  0  0
  194.3410  171.7610  139.9910 C   0  0  1  0  0  3  0  0  0  0  0  0
  192.9760  172.7880  141.5520 C   0  0  0  0  0  0  0  0  0  0  0  0
  191.1410  173.9490  142.6190 C   0  0  0  0  0  0  0  0  0  0  0  0
  186.9760  177.5860  145.5030 C   0  0  0  0  0  3  0  0  0  0  0  0
  188.5900  176.5430  147.0280 C   0  0  0  0  0  3  0  0  0  0  0  0
  192.3730  172.9330  140.3230 C   0  0  0  0  0  0  0  0  0  0  0  0
  189.3530  174.8460  141.1970 O   0  0  0  0  0  0  0  0  0  0  0  0
  187.6200  176.2270  142.0880 C   0  0  0  0  0  0  0  0  0  0  0  0
  195.2920  170.1590  142.2960 C   0  0  1  0  0  3  0  0  0  0  0  0
  193.0910  172.3300  139.3580 C   0  0  1  0  0  3  0  0  0  0  0  0
  188.7490  175.5130  142.2690 C   0  0  0  0  0  0  0  0  0  0  0  0
  191.1600  173.6150  140.1920 C   0  0  0  0  0  3  0  0  0  0  0  0
  189.2820  175.9700  146.0380 C   0  0  0  0  0  3  0  0  0  0  0  0
  190.5460  174.1340  141.3410 C   0  0  0  0  0  0  0  0  0  0  0  0
  187.8350  177.2180  144.3270 C   0  0  1  0  0  3  0  0  0  0  0  0
  195.6150  169.7930  140.8330 C   0  0  0  0  0  2  0  0  0  0  0  0
  188.8330  176.1270  144.6370 C   0  0  0  0  0  0  0  0  0  0  0  0
  192.7980  172.3750  137.8590 C   0  0  2  0  0  0  0  0  0  0  0  0
  191.7210  173.2490  137.6330 O   0  0  0  0  0  1  0  0  0  0  0  0
  191.7580  171.1260  136.1490 N   0  0  0  0  0  2  0  0  0  0  0  0
  192.4720  171.0230  137.3590 N   0  0  0  0  0  0  0  0  0  0  0  0
  190.4850  170.5200  136.2950 C   0  0  0  0  0  3  0  0  0  0  0  0
  191.5520  170.4180  138.1920 O   0  0  0  0  0  0  0  0  0  0  0  0
  190.3730  170.0980  137.5390 C   0  0  0  0  0  3  0  0  0  0  0  0
  194.9780  171.8900  136.8440 O   0  0  0  0  0  1  0  0  0  0  0  0
  194.0660  172.9050  137.1420 C   0  0  2  0  0  3  0  0  0  0  0  0
  194.7070  173.9510  137.8740 O   0  0  0  0  0  0  0  0  0  0  0  0
  194.6330  175.2900  137.4820 C   0  0  0  0  0  3  0  0  0  0  0  0
  194.7640  175.6230  136.2720 O   0  0  0  0  0  0  0  0  0  0  0  0
  186.9880  176.3160  140.7240 C   0  0  0  0  0  2  0  0  0  0  0  0
  186.3670  177.6780  140.3880 C   0  0  1  0  0  3  0  0  0  0  0  0
  186.4630  177.9370  139.0190 O   0  0  0  0  0  0  0  0  0  0  0  0
  186.9580  176.7550  138.4670 C   0  0  0  0  0  1  0  0  0  0  0  0
  184.9180  177.7530  140.8590 C   0  0  0  0  0  2  0  0  0  0  0  0
  184.7990  178.6480  142.0790 C   0  0  0  0  0  1  0  0  0  0  0  0
  186.5440  177.8000  147.9090 C   0  0  0  0  0  2  0  0  0  0  0  0
  185.5500  178.7600  147.4570 N   0  0  0  0  0  2  0  0  0  0  0  0
  185.9850  179.9780  147.8500 O   0  0  0  0  0  1  0  0  0  0  0  0
  196.4560  169.8950  143.2390 C   0  0  0  0  0  2  0  0  0  0  0  0
  197.5240  170.9680  143.1170 C   0  0  0  0  0  2  0  0  0  0  0  0
  197.5740  171.8240  144.3730 C   0  0  1  0  0  3  0  0  0  0  0  0
  197.9410  174.0870  145.0110 O   0  0  0  0  0  0  0  0  0  0  0  0
  197.7820  173.2820  144.0580 C   0  0  0  0  0  0  0  0  0  0  0  0
  197.7480  173.7870  142.7530 O   0  0  0  0  0  0  0  0  0  0  0  0
  197.1010  175.0000  142.3990 C   0  0  2  0  0  3  0  0  0  0  0  0
  196.9340  175.0700  140.8940 C   0  0  0  0  0  1  0  0  0  0  0  0
  197.8730  176.0760  142.8270 O   0  0  0  0  0  1  0  0  0  0  0  0
  196.3960  171.6530  145.1050 O   0  0  0  0  0  0  0  0  0  0  0  0
  196.8120  171.1880  146.3550 C   0  0  0  0  0  2  0  0  0  0  0  0
  196.3600  169.7540  146.5390 C   0  0  0  0  0  1  0  0  0  0  0  0
  193.0730  173.1340  144.0620 C   0  0  0  0  0  2  0  0  0  0  0  0
  194.0960  174.2420  144.2810 C   0  0  0  0  0  2  0  0  0  0  0  0
  193.7540  175.0550  145.5140 C   0  0  0  0  0  2  0  0  0  0  0  0
  194.9310  175.4820  146.1260 O   0  0  0  0  0  1  0  0  0  0  0  0
  1  5  1  0  0  0  0
  1 25  2  0  0  0  0
  2 23  1  0  0  0  0
  3 10  1  1  0  0  0
  3  8  1  0  0  0  0
  4 13  1  0  0  0  0
  4 44  1  0  0  0  0
  6 24  1  0  0  0  0
  7 59  1  0  0  0  0
  9  6  1  1  0  0  0
  9  3  1  0  0  0  0
 10  7  2  0  0  0  0
 11  7  1  0  0  0  0
 11  5  1  0  0  0  0
 12  4  2  0  0  0  0
 14 10  1  0  0  0  0
 15 22  1  0  0  0  0
 15 19  1  0  0  0  0
 16 19  2  0  0  0  0
 16  2  1  0  0  0  0
 17  8  1  0  0  0  0
 17 47  1  1  0  0  0
 18 26  1  6  0  0  0
 18  9  1  0  0  0  0
 18 14  1  0  0  0  0
 19  1  1  0  0  0  0
 20 14  2  0  0  0  0
 20 22  1  0  0  0  0
 21 13  2  0  0  0  0
 22 11  2  0  0  0  0
 23 25  1  0  0  0  0
 23 12  1  1  0  0  0
 24 17  1  0  0  0  0
 25 21  1  0  0  0  0
 26 27  1  6  0  0  0
 28 30  1  0  0  0  0
 28 29  1  0  0  0  0
 29 26  1  0  0  0  0
 29 31  1  0  0  0  0
 30 32  2  0  0  0  0
 32 31  1  0  0  0  0
 34 33  1  1  0  0  0
 34 26  1  0  0  0  0
 34 35  1  0  0  0  0
 36 35  1  0  0  0  0
 37 36  2  0  0  0  0
 38 16  1  0  0  0  0
 39 38  1  6  0  0  0
 39 42  1  0  0  0  0
 40 39  1  0  0  0  0
 41 40  1  0  0  0  0
 42 43  1  0  0  0  0
 45 46  1  0  0  0  0
 45 44  1  0  0  0  0
 48 47  1  0  0  0  0
 49 48  1  6  0  0  0
 49 56  1  0  0  0  0
 51 49  1  0  0  0  0
 51 50  2  0  0  0  0
 52 51  1  0  0  0  0
 53 54  1  6  0  0  0
 53 52  1  0  0  0  0
 53 55  1  0  0  0  0
 56 57  1  0  0  0  0
 57 58  1  0  0  0  0
 59 60  1  0  0  0  0
 60 61  1  0  0  0  0
 61 62  1  0  0  0  0
M  END
>  <MODEL>
7

>  <REMARK>
 VINA RESULT:      -4.8      1.451      2.741
  Name = 
  22 active torsions:
  status: ('A' for Active; 'I' for Inactive)
    1  A    between atoms: C_1  and  C_12
    2  A    between atoms: C_1  and  C_19
    3  A    between atoms: C_2  and  C_36
    4  A    between atoms: C_2  and  C_49
    5  A    between atoms: N_4  and  C_23
    6  A    between atoms: O_5  and  C_53
    7  A    between atoms: C_8  and  C_12
    8  A    between atoms: C_11  and  O_62
    9  A    between atoms: O_13  and  C_41
   10  A    between atoms: O_13  and  C_54
   11  A    between atoms: N_14  and  C_24
   12  A    between atoms: C_15  and  C_23
   13  A    between atoms: C_24  and  C_38
   14  A    between atoms: C_24  and  C_54
   15  A    between atoms: C_34  and  C_58
   16  A    between atoms: C_35  and  O_50
   17  A    between atoms: C_36  and  C_48
   18  A    between atoms: C_36  and  O_50
   19  A    between atoms: C_37  and  C_49
   20  A    between atoms: C_39  and  C_53
   21  A    between atoms: C_48  and  O_62
   22  A    between atoms: C_53  and  C_58
                            x       y       z     vdW  Elec       q    Type
                         _______ _______ _______ _____ _____    ______ ____

>  <TORSDO>
F 22

$$$$
=
 OpenBabel11042416353D

 62 68  0  0  1  0  0  0  0  0999 V2000
  188.8220  175.5490  143.5600 C   0  0  0  0  0  0  0  0  0  0  0  0
  187.0350  177.6170  143.0800 O   0  0  0  0  0  0  0  0  0  0  0  0
  192.8560  171.3540  141.4390 C   0  0  1  0  0  3  0  0  0  0  0  0
  186.9630  177.5840  146.6950 C   0  0  0  0  0  0  0  0  0  0  0  0
  189.5660  174.2640  143.7800 C   0  0  0  0  0  2  0  0  0  0  0  0
  193.0020  169.6450  139.7380 C   0  0  0  0  0  2  0  0  0  0  0  0
  191.3420  172.8140  142.7160 C   0  0  0  0  0  0  0  0  0  0  0  0
  193.2990  170.5090  142.4500 O   0  0  0  0  0  0  0  0  0  0  0  0
  193.2170  171.1270  140.0180 C   0  0  1  0  0  3  0  0  0  0  0  0
  191.9480  172.3080  141.5500 C   0  0  0  0  0  0  0  0  0  0  0  0
  190.3250  173.7890  142.5640 C   0  0  0  0  0  0  0  0  0  0  0  0
  186.8240  178.0660  145.4520 C   0  0  0  0  0  3  0  0  0  0  0  0
  187.9180  176.4950  146.9860 C   0  0  0  0  0  3  0  0  0  0  0  0
  191.5670  172.7260  140.2950 C   0  0  0  0  0  0  0  0  0  0  0  0
  189.0150  175.2540  141.0940 O   0  0  0  0  0  0  0  0  0  0  0  0
  187.5670  176.9370  141.9740 C   0  0  0  0  0  0  0  0  0  0  0  0
  193.4350  169.1120  142.1790 C   0  0  1  0  0  3  0  0  0  0  0  0
  192.2390  172.0590  139.3380 C   0  0  1  0  0  3  0  0  0  0  0  0
  188.4540  175.9430  142.1760 C   0  0  0  0  0  0  0  0  0  0  0  0
  190.5850  173.7070  140.1290 C   0  0  0  0  0  3  0  0  0  0  0  0
  188.5750  175.8660  146.0070 C   0  0  0  0  0  3  0  0  0  0  0  0
  189.9690  174.2480  141.2670 C   0  0  0  0  0  0  0  0  0  0  0  0
  187.7170  177.6100  144.3340 C   0  0  1  0  0  3  0  0  0  0  0  0
  193.8510  168.8230  140.7220 C   0  0  0  0  0  2  0  0  0  0  0  0
  188.3690  176.2730  144.6000 C   0  0  0  0  0  0  0  0  0  0  0  0
  192.1680  172.3290  137.8360 C   0  0  2  0  0  0  0  0  0  0  0  0
  193.1570  171.5690  137.1900 O   0  0  0  0  0  1  0  0  0  0  0  0
  192.7380  173.9450  136.2150 N   0  0  0  0  0  0  0  0  0  0  0  0
  192.3700  173.7670  137.5630 N   0  0  0  0  0  0  0  0  0  0  0  0
  194.0130  174.5620  136.1490 C   0  0  0  0  0  3  0  0  0  0  0  0
  193.4840  174.2260  138.2360 O   0  0  0  0  0  0  0  0  0  0  0  0
  194.4540  174.7240  137.3800 C   0  0  0  0  0  2  0  0  0  0  0  0
  190.8220  170.8920  136.3720 O   0  0  0  0  0  1  0  0  0  0  0  0
  190.7640  171.8950  137.3420 C   0  0  2  0  0  3  0  0  0  0  0  0
  189.9890  173.0000  136.8700 O   0  0  0  0  0  0  0  0  0  0  0  0
  188.7050  173.2680  137.3480 C   0  0  0  0  0  3  0  0  0  0  0  0
  188.3010  174.4530  137.5030 O   0  0  0  0  0  0  0  0  0  0  0  0
  187.1630  177.3230  140.5750 C   0  0  0  0  0  2  0  0  0  0  0  0
  185.8200  178.0570  140.4700 C   0  0  1  0  0  3  0  0  0  0  0  0
  185.0560  177.5360  139.4240 O   0  0  0  0  0  0  0  0  0  0  0  0
  185.9720  176.8640  138.6140 C   0  0  0  0  0  1  0  0  0  0  0  0
  185.0560  177.9980  141.7890 C   0  0  0  0  0  2  0  0  0  0  0  0
  183.5620  177.9050  141.5350 C   0  0  0  0  0  1  0  0  0  0  0  0
  186.1410  178.1410  147.8080 C   0  0  0  0  0  2  0  0  0  0  0  0
  185.0650  178.9640  147.2790 N   0  0  0  0  0  2  0  0  0  0  0  0
  184.0360  178.1290  147.0130 O   0  0  0  0  0  1  0  0  0  0  0  0
  194.3630  168.4630  143.1950 C   0  0  0  0  0  2  0  0  0  0  0  0
  195.7420  168.2150  142.6070 C   0  0  0  0  0  2  0  0  0  0  0  0
  196.6850  169.3610  142.9430 C   0  0  1  0  0  3  0  0  0  0  0  0
  197.1720  168.2490  144.9890 O   0  0  0  0  0  0  0  0  0  0  0  0
  197.0930  169.3530  144.3920 C   0  0  0  0  0  0  0  0  0  0  0  0
  197.3310  170.5260  145.1180 O   0  0  0  0  0  0  0  0  0  0  0  0
  196.3810  171.5740  145.2470 C   0  0  2  0  0  3  0  0  0  0  0  0
  196.9170  172.6360  146.1870 C   0  0  0  0  0  1  0  0  0  0  0  0
  195.1950  171.0590  145.7620 O   0  0  0  0  0  1  0  0  0  0  0  0
  197.8150  169.2940  142.1240 O   0  0  0  0  0  0  0  0  0  0  0  0
  197.8370  170.5110  141.4380 C   0  0  0  0  0  2  0  0  0  0  0  0
  197.5590  170.2700  139.9680 C   0  0  0  0  0  1  0  0  0  0  0  0
  191.7910  172.3640  144.0800 C   0  0  0  0  0  2  0  0  0  0  0  0
  193.0370  173.1170  144.5300 C   0  0  0  0  0  2  0  0  0  0  0  0
  193.1490  174.4490  143.8160 C   0  0  0  0  0  2  0  0  0  0  0  0
  192.8260  175.4760  144.7010 O   0  0  0  0  0  1  0  0  0  0  0  0
  1  5  1  0  0  0  0
  1 25  2  0  0  0  0
  2 23  1  0  0  0  0
  3 10  1  6  0  0  0
  3  8  1  0  0  0  0
  4 13  1  0  0  0  0
  4 44  1  0  0  0  0
  6 24  1  0  0  0  0
  7 59  1  0  0  0  0
  9  6  1  6  0  0  0
  9  3  1  0  0  0  0
 10  7  2  0  0  0  0
 11  7  1  0  0  0  0
 11  5  1  0  0  0  0
 12  4  2  0  0  0  0
 14 10  1  0  0  0  0
 15 22  1  0  0  0  0
 15 19  1  0  0  0  0
 16 19  2  0  0  0  0
 16  2  1  0  0  0  0
 17  8  1  0  0  0  0
 17 47  1  1  0  0  0
 18 26  1  6  0  0  0
 18  9  1  0  0  0  0
 18 14  1  0  0  0  0
 19  1  1  0  0  0  0
 20 14  2  0  0  0  0
 20 22  1  0  0  0  0
 21 13  2  0  0  0  0
 22 11  2  0  0  0  0
 23 25  1  0  0  0  0
 23 12  1  1  0  0  0
 24 17  1  0  0  0  0
 25 21  1  0  0  0  0
 26 27  1  6  0  0  0
 28 29  1  0  0  0  0
 29 26  1  0  0  0  0
 29 31  1  0  0  0  0
 30 28  2  0  0  0  0
 30 32  1  0  0  0  0
 32 31  1  0  0  0  0
 34 33  1  6  0  0  0
 34 26  1  0  0  0  0
 35 34  1  0  0  0  0
 35 36  1  0  0  0  0
 36 37  2  0  0  0  0
 38 16  1  0  0  0  0
 39 38  1  1  0  0  0
 39 42  1  0  0  0  0
 40 39  1  0  0  0  0
 41 40  1  0  0  0  0
 43 42  1  0  0  0  0
 45 44  1  0  0  0  0
 46 45  1  0  0  0  0
 48 47  1  0  0  0  0
 49 48  1  1  0  0  0
 49 51  1  0  0  0  0
 51 50  2  0  0  0  0
 51 52  1  0  0  0  0
 52 53  1  0  0  0  0
 53 55  1  0  0  0  0
 53 54  1  1  0  0  0
 56 49  1  0  0  0  0
 57 56  1  0  0  0  0
 58 57  1  0  0  0  0
 59 60  1  0  0  0  0
 61 60  1  0  0  0  0
 61 62  1  0  0  0  0
M  END
>  <MODEL>
8

>  <REMARK>
 VINA RESULT:      -4.8      1.505      2.438
  Name = 
  22 active torsions:
  status: ('A' for Active; 'I' for Inactive)
    1  A    between atoms: C_1  and  C_12
    2  A    between atoms: C_1  and  C_19
    3  A    between atoms: C_2  and  C_36
    4  A    between atoms: C_2  and  C_49
    5  A    between atoms: N_4  and  C_23
    6  A    between atoms: O_5  and  C_53
    7  A    between atoms: C_8  and  C_12
    8  A    between atoms: C_11  and  O_62
    9  A    between atoms: O_13  and  C_41
   10  A    between atoms: O_13  and  C_54
   11  A    between atoms: N_14  and  C_24
   12  A    between atoms: C_15  and  C_23
   13  A    between atoms: C_24  and  C_38
   14  A    between atoms: C_24  and  C_54
   15  A    between atoms: C_34  and  C_58
   16  A    between atoms: C_35  and  O_50
   17  A    between atoms: C_36  and  C_48
   18  A    between atoms: C_36  and  O_50
   19  A    between atoms: C_37  and  C_49
   20  A    between atoms: C_39  and  C_53
   21  A    between atoms: C_48  and  O_62
   22  A    between atoms: C_53  and  C_58
                            x       y       z     vdW  Elec       q    Type
                         _______ _______ _______ _____ _____    ______ ____

>  <TORSDO>
F 22

$$$$
=
 OpenBabel11042416353D

 62 68  0  0  1  0  0  0  0  0999 V2000
  188.5000  175.4310  143.6530 C   0  0  0  0  0  0  0  0  0  0  0  0
  186.3480  177.1260  143.2120 O   0  0  0  0  0  0  0  0  0  0  0  0
  192.8410  171.6000  141.4510 C   0  0  1  0  0  3  0  0  0  0  0  0
  186.7800  177.6120  146.7690 C   0  0  0  0  0  0  0  0  0  0  0  0
  189.4700  174.3130  143.9090 C   0  0  0  0  0  2  0  0  0  0  0  0
  193.0330  169.6990  139.9730 C   0  0  0  0  0  2  0  0  0  0  0  0
  191.2970  172.9960  142.7630 C   0  0  0  0  0  0  0  0  0  0  0  0
  193.5530  170.9850  142.4760 O   0  0  0  0  0  0  0  0  0  0  0  0
  193.0370  171.2220  140.0300 C   0  0  1  0  0  3  0  0  0  0  0  0
  191.8120  172.4180  141.5870 C   0  0  0  0  0  0  0  0  0  0  0  0
  190.1220  173.7800  142.6550 C   0  0  0  0  0  0  0  0  0  0  0  0
  186.3940  177.8820  145.5140 C   0  0  0  0  0  3  0  0  0  0  0  0
  187.9330  176.7280  147.0360 C   0  0  0  0  0  3  0  0  0  0  0  0
  191.1990  172.5880  140.3660 C   0  0  0  0  0  0  0  0  0  0  0  0
  188.3990  174.8090  141.2430 O   0  0  0  0  0  0  0  0  0  0  0  0
  186.8280  176.3750  142.1280 C   0  0  0  0  0  0  0  0  0  0  0  0
  193.8790  169.5970  142.3610 C   0  0  1  0  0  3  0  0  0  0  0  0
  191.8340  171.8920  139.4050 C   0  0  1  0  0  3  0  0  0  0  0  0
  187.8860  175.5600  142.3070 C   0  0  0  0  0  0  0  0  0  0  0  0
  190.0550  173.3810  140.2390 C   0  0  0  0  0  3  0  0  0  0  0  0
  188.5440  176.0640  146.0510 C   0  0  0  0  0  3  0  0  0  0  0  0
  189.5200  173.9880  141.3850 C   0  0  0  0  0  0  0  0  0  0  0  0
  187.1870  177.4010  144.3330 C   0  0  1  0  0  3  0  0  0  0  0  0
  194.1330  169.1620  140.9030 C   0  0  0  0  0  2  0  0  0  0  0  0
  188.0820  176.2260  144.6550 C   0  0  0  0  0  0  0  0  0  0  0  0
  191.5130  171.9260  137.9110 C   0  0  2  0  0  0  0  0  0  0  0  0
  190.1200  171.8630  137.7440 O   0  0  0  0  0  1  0  0  0  0  0  0
  192.7000  171.2280  135.9960 N   0  0  0  0  0  2  0  0  0  0  0  0
  192.1610  170.7910  137.2220 N   0  0  0  0  0  0  0  0  0  0  0  0
  192.1010  170.5080  134.9310 C   0  0  0  0  0  3  0  0  0  0  0  0
  191.2110  169.8750  136.8170 O   0  0  0  0  0  0  0  0  0  0  0  0
  191.1990  169.6940  135.4430 C   0  0  0  0  0  3  0  0  0  0  0  0
  192.9900  173.8660  138.1790 O   0  0  0  0  0  1  0  0  0  0  0  0
  192.0530  173.2610  137.3390 C   0  0  2  0  0  3  0  0  0  0  0  0
  191.0050  174.1780  137.0190 O   0  0  0  0  0  0  0  0  0  0  0  0
  190.7920  174.6440  135.7190 C   0  0  0  0  0  3  0  0  0  0  0  0
  191.4810  175.5880  135.2440 O   0  0  0  0  0  0  0  0  0  0  0  0
  186.1770  176.4890  140.7740 C   0  0  0  0  0  2  0  0  0  0  0  0
  186.2140  177.8920  140.1560 C   0  0  1  0  0  3  0  0  0  0  0  0
  186.3680  177.8140  138.7700 O   0  0  0  0  0  0  0  0  0  0  0  0
  186.6870  176.4780  138.5220 C   0  0  0  0  0  1  0  0  0  0  0  0
  184.9670  178.6900  140.5230 C   0  0  0  0  0  2  0  0  0  0  0  0
  183.7140  177.8840  140.2340 C   0  0  0  0  0  1  0  0  0  0  0  0
  186.0390  178.2010  147.9210 C   0  0  0  0  0  2  0  0  0  0  0  0
  185.9190  179.6420  147.7620 N   0  0  0  0  0  2  0  0  0  0  0  0
  186.7260  180.2000  148.6910 O   0  0  0  0  0  1  0  0  0  0  0  0
  195.0320  169.2460  143.2880 C   0  0  0  0  0  2  0  0  0  0  0  0
  196.1700  170.2460  143.1630 C   0  0  0  0  0  2  0  0  0  0  0  0
  196.4460  170.9180  144.4990 C   0  0  1  0  0  3  0  0  0  0  0  0
  197.9350  169.2310  145.2720 O   0  0  0  0  0  0  0  0  0  0  0  0
  196.9300  169.9390  145.5360 C   0  0  0  0  0  0  0  0  0  0  0  0
  196.2750  169.7430  146.7570 O   0  0  0  0  0  0  0  0  0  0  0  0
  195.9380  168.4620  147.2680 C   0  0  2  0  0  3  0  0  0  0  0  0
  194.4780  168.4420  147.6770 C   0  0  0  0  0  1  0  0  0  0  0  0
  196.7310  168.1870  148.3790 O   0  0  0  0  0  1  0  0  0  0  0  0
  197.3840  171.9390  144.3250 O   0  0  0  0  0  0  0  0  0  0  0  0
  196.9960  172.9420  145.2170 C   0  0  0  0  0  2  0  0  0  0  0  0
  197.8450  174.1760  144.9940 C   0  0  0  0  0  1  0  0  0  0  0  0
  191.9980  172.8210  144.0830 C   0  0  0  0  0  2  0  0  0  0  0  0
  192.0640  174.1330  144.8550 C   0  0  0  0  0  2  0  0  0  0  0  0
  193.5030  174.5460  145.0920 C   0  0  0  0  0  2  0  0  0  0  0  0
  194.2320  174.3800  143.9150 O   0  0  0  0  0  1  0  0  0  0  0  0
  1  5  1  0  0  0  0
  1 25  2  0  0  0  0
  2 23  1  0  0  0  0
  3 10  1  1  0  0  0
  3  8  1  0  0  0  0
  4 13  1  0  0  0  0
  4 44  1  0  0  0  0
  6 24  1  0  0  0  0
  7 59  1  0  0  0  0
  9  6  1  1  0  0  0
  9  3  1  0  0  0  0
 10  7  2  0  0  0  0
 11  7  1  0  0  0  0
 11  5  1  0  0  0  0
 12  4  2  0  0  0  0
 14 10  1  0  0  0  0
 15 22  1  0  0  0  0
 15 19  1  0  0  0  0
 16 19  2  0  0  0  0
 16  2  1  0  0  0  0
 17  8  1  0  0  0  0
 17 47  1  1  0  0  0
 18 26  1  6  0  0  0
 18  9  1  0  0  0  0
 18 14  1  0  0  0  0
 19  1  1  0  0  0  0
 20 14  2  0  0  0  0
 20 22  1  0  0  0  0
 21 13  2  0  0  0  0
 22 11  2  0  0  0  0
 23 25  1  0  0  0  0
 23 12  1  1  0  0  0
 24 17  1  0  0  0  0
 25 21  1  0  0  0  0
 26 27  1  6  0  0  0
 28 29  1  0  0  0  0
 29 26  1  0  0  0  0
 30 32  2  0  0  0  0
 30 28  1  0  0  0  0
 31 29  1  0  0  0  0
 32 31  1  0  0  0  0
 34 26  1  0  0  0  0
 34 33  1  1  0  0  0
 35 34  1  0  0  0  0
 36 35  1  0  0  0  0
 37 36  2  0  0  0  0
 38 16  1  0  0  0  0
 39 42  1  6  0  0  0
 39 38  1  0  0  0  0
 40 39  1  0  0  0  0
 41 40  1  0  0  0  0
 43 42  1  0  0  0  0
 45 44  1  0  0  0  0
 45 46  1  0  0  0  0
 48 47  1  0  0  0  0
 49 48  1  6  0  0  0
 49 51  1  0  0  0  0
 50 51  2  0  0  0  0
 51 52  1  0  0  0  0
 52 53  1  0  0  0  0
 53 54  1  1  0  0  0
 53 55  1  0  0  0  0
 56 49  1  0  0  0  0
 56 57  1  0  0  0  0
 58 57  1  0  0  0  0
 59 60  1  0  0  0  0
 60 61  1  0  0  0  0
 62 61  1  0  0  0  0
M  END
>  <MODEL>
9

>  <REMARK>
 VINA RESULT:      -4.8      1.740      3.221
  Name = 
  22 active torsions:
  status: ('A' for Active; 'I' for Inactive)
    1  A    between atoms: C_1  and  C_12
    2  A    between atoms: C_1  and  C_19
    3  A    between atoms: C_2  and  C_36
    4  A    between atoms: C_2  and  C_49
    5  A    between atoms: N_4  and  C_23
    6  A    between atoms: O_5  and  C_53
    7  A    between atoms: C_8  and  C_12
    8  A    between atoms: C_11  and  O_62
    9  A    between atoms: O_13  and  C_41
   10  A    between atoms: O_13  and  C_54
   11  A    between atoms: N_14  and  C_24
   12  A    between atoms: C_15  and  C_23
   13  A    between atoms: C_24  and  C_38
   14  A    between atoms: C_24  and  C_54
   15  A    between atoms: C_34  and  C_58
   16  A    between atoms: C_35  and  O_50
   17  A    between atoms: C_36  and  C_48
   18  A    between atoms: C_36  and  O_50
   19  A    between atoms: C_37  and  C_49
   20  A    between atoms: C_39  and  C_53
   21  A    between atoms: C_48  and  O_62
   22  A    between atoms: C_53  and  C_58
                            x       y       z     vdW  Elec       q    Type
                         _______ _______ _______ _____ _____    ______ ____

>  <TORSDO>
F 22

$$$$
