=
 OpenBabel11042414013D

 31 35  0  0  1  0  0  0  0  0999 V2000
  191.8630  177.3050  144.7050 C   0  0  0  0  0  2  0  0  0  0  0  0
  188.2730  174.9580  143.5330 C   0  0  0  0  0  3  0  0  0  0  0  0
  187.6820  175.9040  142.6950 C   0  0  0  0  0  0  0  0  0  0  0  0
  188.5910  174.4650  139.4260 N   0  0  0  0  0  0  0  0  0  0  0  0
  186.6200  177.3130  144.6190 C   0  0  1  0  0  3  0  0  0  0  0  0
  191.0300  176.0400  144.8080 C   0  0  2  0  0  0  0  0  0  0  0  0
  187.0180  176.9510  147.0300 N   0  0  0  0  0  1  0  0  0  0  0  0
  187.0890  177.0920  143.2440 N   0  0  0  0  0  2  0  0  0  0  0  0
  189.0040  173.8880  143.0340 C   0  0  0  0  0  0  0  0  0  0  0  0
  187.7960  175.7500  141.3010 C   0  0  0  0  0  0  0  0  0  0  0  0
  189.2720  173.4130  138.9050 C   0  0  0  0  0  0  0  0  0  0  0  0
  187.1880  176.7640  140.3850 C   0  0  0  0  0  1  0  0  0  0  0  0
  189.3660  173.2570  137.4940 N   0  0  0  0  0  1  0  0  0  0  0  0
  188.4820  174.6380  140.7730 C   0  0  0  0  0  0  0  0  0  0  0  0
  189.7940  172.6380  141.0760 C   0  0  0  0  0  3  0  0  0  0  0  0
  187.5520  176.7300  145.6950 C   0  0  2  0  0  3  0  0  0  0  0  0
  189.0910  173.7060  141.6430 C   0  0  0  0  0  0  0  0  0  0  0  0
  189.8690  172.5100  139.7270 N   0  0  0  0  0  0  0  0  0  0  0  0
  189.8900  176.0600  145.7530 N   0  0  0  0  0  0  0  0  0  0  0  0
  191.7320  176.1960  142.4860 C   0  0  0  0  0  2  0  0  0  0  0  0
  191.6840  174.7120  144.4340 C   0  0  2  0  0  3  0  0  0  0  0  0
  189.3390  171.8600  144.1870 O   0  0  0  0  0  0  0  0  0  0  0  0
  188.9930  177.2140  145.6120 C   0  0  0  0  0  2  0  0  0  0  0  0
  192.0280  174.7790  142.9560 C   0  0  0  0  0  2  0  0  0  0  0  0
  190.8620  173.5330  144.7360 N   0  0  0  0  0  2  0  0  0  0  0  0
  190.9310  176.9080  143.5660 C   0  0  2  0  0  3  0  0  0  0  0  0
  189.7290  173.0410  143.9970 C   0  0  0  0  0  0  0  0  0  0  0  0
  185.6920  179.4070  143.6310 C   0  0  0  0  0  1  0  0  0  0  0  0
  186.3710  178.7990  144.8420 C   0  0  0  0  0  2  0  0  0  0  0  0
  190.3620  175.9560  147.1380 C   0  0  0  0  0  2  0  0  0  0  0  0
  189.8310  174.8300  147.7760 O   0  0  0  0  0  1  0  0  0  0  0  0
  3  8  1  0  0  0  0
  3  2  2  0  0  0  0
  4 14  1  0  0  0  0
  5 29  1  1  0  0  0
  5 16  1  0  0  0  0
  6  1  1  1  0  0  0
  6 19  1  0  0  0  0
  8  5  1  0  0  0  0
  9  2  1  0  0  0  0
  9 27  1  0  0  0  0
 10  3  1  0  0  0  0
 11  4  2  0  0  0  0
 11 18  1  0  0  0  0
 12 10  1  0  0  0  0
 13 11  1  0  0  0  0
 14 10  2  0  0  0  0
 14 17  1  0  0  0  0
 15 17  1  0  0  0  0
 16  7  1  1  0  0  0
 17  9  2  0  0  0  0
 18 15  2  0  0  0  0
 19 30  1  0  0  0  0
 20 24  1  0  0  0  0
 21 24  1  6  0  0  0
 21 25  1  0  0  0  0
 21  6  1  0  0  0  0
 23 16  1  0  0  0  0
 23 19  1  0  0  0  0
 26 20  1  6  0  0  0
 26  1  1  0  0  0  0
 26  6  1  0  0  0  0
 27 22  2  0  0  0  0
 27 25  1  0  0  0  0
 28 29  1  0  0  0  0
 30 31  1  0  0  0  0
M  END
>  <MODEL>
1

>  <REMARK>
 VINA RESULT:      -7.5      0.000      0.000
  Name = 
  2 active torsions:
  status: ('A' for Active; 'I' for Inactive)
    1  A    between atoms: C_5  and  C_23
    2  A    between atoms: N_20  and  C_27
                            x       y       z     vdW  Elec       q    Type
                         _______ _______ _______ _____ _____    ______ ____

>  <TORSDO>
F 2

$$$$
=
 OpenBabel11042414013D

 31 35  0  0  1  0  0  0  0  0999 V2000
  191.9210  177.1820  143.7090 C   0  0  0  0  0  2  0  0  0  0  0  0
  188.6480  174.2670  142.9610 C   0  0  0  0  0  3  0  0  0  0  0  0
  188.3300  174.6550  141.6580 C   0  0  0  0  0  0  0  0  0  0  0  0
  189.9750  171.9310  139.8000 N   0  0  0  0  0  0  0  0  0  0  0  0
  186.8770  176.7080  142.3570 C   0  0  1  0  0  3  0  0  0  0  0  0
  191.0350  176.0490  144.1940 C   0  0  2  0  0  0  0  0  0  0  0  0
  186.6340  177.5560  144.6640 N   0  0  0  0  0  1  0  0  0  0  0  0
  187.6690  175.9070  141.4140 N   0  0  0  0  0  2  0  0  0  0  0  0
  189.4340  173.1540  143.2250 C   0  0  0  0  0  0  0  0  0  0  0  0
  188.7870  173.8740  140.5810 C   0  0  0  0  0  0  0  0  0  0  0  0
  190.7200  170.8180  140.0250 C   0  0  0  0  0  0  0  0  0  0  0  0
  188.4750  174.2830  139.1770 C   0  0  0  0  0  1  0  0  0  0  0  0
  191.1610  170.0260  138.9290 N   0  0  0  0  0  1  0  0  0  0  0  0
  189.5360  172.7060  140.8300 C   0  0  0  0  0  0  0  0  0  0  0  0
  190.6400  171.2020  142.3570 C   0  0  0  0  0  3  0  0  0  0  0  0
  187.4790  176.7790  143.7710 C   0  0  2  0  0  3  0  0  0  0  0  0
  189.8630  172.3470  142.1570 C   0  0  0  0  0  0  0  0  0  0  0  0
  191.0490  170.4620  141.2950 N   0  0  0  0  0  0  0  0  0  0  0  0
  189.6940  176.4140  144.7070 N   0  0  0  0  0  0  0  0  0  0  0  0
  192.3090  175.1540  142.3280 C   0  0  0  0  0  2  0  0  0  0  0  0
  191.7040  174.7610  144.6690 C   0  0  2  0  0  3  0  0  0  0  0  0
  189.3770  171.9420  145.2460 O   0  0  0  0  0  0  0  0  0  0  0  0
  188.9130  177.2870  143.8200 C   0  0  0  0  0  2  0  0  0  0  0  0
  192.4140  174.1540  143.4710 C   0  0  0  0  0  2  0  0  0  0  0  0
  190.7830  173.7980  145.2850 N   0  0  0  0  0  2  0  0  0  0  0  0
  191.2920  176.2190  142.7080 C   0  0  2  0  0  3  0  0  0  0  0  0
  189.8540  172.9230  144.6180 C   0  0  0  0  0  0  0  0  0  0  0  0
  185.5650  178.0510  140.7140 C   0  0  0  0  0  1  0  0  0  0  0  0
  186.6430  178.0980  141.7780 C   0  0  0  0  0  2  0  0  0  0  0  0
  189.7950  177.0140  146.0420 C   0  0  0  0  0  2  0  0  0  0  0  0
  189.0560  176.2910  146.9840 O   0  0  0  0  0  1  0  0  0  0  0  0
  2  9  1  0  0  0  0
  3  2  2  0  0  0  0
  4 11  2  0  0  0  0
  4 14  1  0  0  0  0
  5 29  1  6  0  0  0
  5 16  1  0  0  0  0
  6  1  1  1  0  0  0
  6 21  1  0  0  0  0
  6 19  1  0  0  0  0
  8  3  1  0  0  0  0
  8  5  1  0  0  0  0
  9 27  1  0  0  0  0
 10 14  2  0  0  0  0
 10  3  1  0  0  0  0
 11 18  1  0  0  0  0
 12 10  1  0  0  0  0
 13 11  1  0  0  0  0
 14 17  1  0  0  0  0
 16 23  1  0  0  0  0
 16  7  1  1  0  0  0
 17 15  1  0  0  0  0
 17  9  2  0  0  0  0
 18 15  2  0  0  0  0
 19 30  1  0  0  0  0
 20 24  1  0  0  0  0
 21 24  1  6  0  0  0
 21 25  1  0  0  0  0
 23 19  1  0  0  0  0
 26 20  1  1  0  0  0
 26  1  1  0  0  0  0
 26  6  1  0  0  0  0
 27 22  2  0  0  0  0
 27 25  1  0  0  0  0
 28 29  1  0  0  0  0
 30 31  1  0  0  0  0
M  END
>  <MODEL>
2

>  <REMARK>
 VINA RESULT:      -7.2      1.464      2.060
  Name = 
  2 active torsions:
  status: ('A' for Active; 'I' for Inactive)
    1  A    between atoms: C_5  and  C_23
    2  A    between atoms: N_20  and  C_27
                            x       y       z     vdW  Elec       q    Type
                         _______ _______ _______ _____ _____    ______ ____

>  <TORSDO>
F 2

$$$$
=
 OpenBabel11042414013D

 31 35  0  0  1  0  0  0  0  0999 V2000
  189.5960  174.7900  147.2630 C   0  0  0  0  0  2  0  0  0  0  0  0
  190.7170  175.7740  143.0740 C   0  0  0  0  0  3  0  0  0  0  0  0
  190.1000  174.6920  142.4440 C   0  0  0  0  0  0  0  0  0  0  0  0
  187.1190  176.3940  141.1040 N   0  0  0  0  0  0  0  0  0  0  0  0
  192.0010  172.9810  142.9690 C   0  0  1  0  0  3  0  0  0  0  0  0
  190.3110  175.6890  146.2710 C   0  0  2  0  0  0  0  0  0  0  0  0
  193.9560  173.4290  144.4090 N   0  0  0  0  0  1  0  0  0  0  0  0
  190.6350  173.3660  142.5870 N   0  0  0  0  0  2  0  0  0  0  0  0
  190.1380  177.0360  143.1030 C   0  0  0  0  0  0  0  0  0  0  0  0
  188.8740  174.8930  141.7840 C   0  0  0  0  0  0  0  0  0  0  0  0
  186.5410  177.6230  141.0860 C   0  0  0  0  0  0  0  0  0  0  0  0
  188.1860  173.7420  141.1200 C   0  0  0  0  0  1  0  0  0  0  0  0
  185.3100  177.8180  140.4010 N   0  0  0  0  0  1  0  0  0  0  0  0
  188.2990  176.1790  141.7500 C   0  0  0  0  0  0  0  0  0  0  0  0
  188.3080  178.5040  142.3870 C   0  0  0  0  0  3  0  0  0  0  0  0
  192.5950  173.8370  144.1010 C   0  0  2  0  0  3  0  0  0  0  0  0
  188.9320  177.2530  142.4140 C   0  0  0  0  0  0  0  0  0  0  0  0
  187.1330  178.6660  141.7250 N   0  0  0  0  0  0  0  0  0  0  0  0
  191.6610  175.2680  145.8320 N   0  0  0  0  0  0  0  0  0  0  0  0
  187.9500  175.8120  145.7080 C   0  0  0  0  0  2  0  0  0  0  0  0
  189.9240  177.1660  146.2260 C   0  0  2  0  0  3  0  0  0  0  0  0
  191.3460  179.0410  143.3700 O   0  0  0  0  0  0  0  0  0  0  0  0
  191.7520  173.8770  145.3680 C   0  0  0  0  0  2  0  0  0  0  0  0
  188.4760  177.2390  145.7740 C   0  0  0  0  0  2  0  0  0  0  0  0
  190.7900  177.9870  145.3710 N   0  0  0  0  0  2  0  0  0  0  0  0
  189.1290  174.8560  145.8130 C   0  0  2  0  0  3  0  0  0  0  0  0
  190.7800  178.0680  143.9340 C   0  0  0  0  0  0  0  0  0  0  0  0
  191.0870  170.7260  142.4160 C   0  0  0  0  0  1  0  0  0  0  0  0
  192.0370  171.4970  143.3110 C   0  0  0  0  0  2  0  0  0  0  0  0
  192.6500  175.5110  146.8880 C   0  0  0  0  0  2  0  0  0  0  0  0
  193.6510  176.3890  146.4590 O   0  0  0  0  0  1  0  0  0  0  0  0
  2  9  1  0  0  0  0
  3  8  1  0  0  0  0
  3  2  2  0  0  0  0
  4 14  1  0  0  0  0
  5 29  1  1  0  0  0
  5 16  1  0  0  0  0
  6  1  1  1  0  0  0
  8  5  1  0  0  0  0
  9 27  1  0  0  0  0
 10  3  1  0  0  0  0
 11  4  2  0  0  0  0
 11 18  1  0  0  0  0
 12 10  1  0  0  0  0
 13 11  1  0  0  0  0
 14 10  2  0  0  0  0
 14 17  1  0  0  0  0
 15 17  1  0  0  0  0
 16  7  1  1  0  0  0
 16 23  1  0  0  0  0
 17  9  2  0  0  0  0
 18 15  2  0  0  0  0
 19  6  1  0  0  0  0
 19 30  1  0  0  0  0
 20 24  1  0  0  0  0
 21 24  1  6  0  0  0
 21  6  1  0  0  0  0
 22 27  2  0  0  0  0
 23 19  1  0  0  0  0
 25 21  1  0  0  0  0
 26 20  1  1  0  0  0
 26  6  1  0  0  0  0
 26  1  1  0  0  0  0
 27 25  1  0  0  0  0
 28 29  1  0  0  0  0
 31 30  1  0  0  0  0
M  END
>  <MODEL>
3

>  <REMARK>
 VINA RESULT:      -6.9      2.554      5.231
  Name = 
  2 active torsions:
  status: ('A' for Active; 'I' for Inactive)
    1  A    between atoms: C_5  and  C_23
    2  A    between atoms: N_20  and  C_27
                            x       y       z     vdW  Elec       q    Type
                         _______ _______ _______ _____ _____    ______ ____

>  <TORSDO>
F 2

$$$$
=
 OpenBabel11042414013D

 31 35  0  0  1  0  0  0  0  0999 V2000
  188.9470  172.1830  143.4120 C   0  0  0  0  0  2  0  0  0  0  0  0
  191.6780  175.6850  143.1900 C   0  0  0  0  0  3  0  0  0  0  0  0
  191.5970  176.0860  144.5240 C   0  0  0  0  0  0  0  0  0  0  0  0
  194.8190  174.7780  145.7440 N   0  0  0  0  0  0  0  0  0  0  0  0
  189.3230  177.3430  144.2690 C   0  0  1  0  0  3  0  0  0  0  0  0
  189.8500  173.0960  142.6020 C   0  0  2  0  0  0  0  0  0  0  0  0
  187.9180  177.3380  142.2380 N   0  0  0  0  0  1  0  0  0  0  0  0
  190.3930  176.6840  145.0320 N   0  0  0  0  0  2  0  0  0  0  0  0
  192.7530  174.9510  142.7070 C   0  0  0  0  0  0  0  0  0  0  0  0
  192.6530  175.7710  145.3990 C   0  0  0  0  0  0  0  0  0  0  0  0
  195.8990  174.0880  145.2960 C   0  0  0  0  0  0  0  0  0  0  0  0
  192.5760  176.1720  146.8380 C   0  0  0  0  0  1  0  0  0  0  0  0
  196.9690  173.7910  146.1850 N   0  0  0  0  0  1  0  0  0  0  0  0
  193.7810  175.0790  144.9150 C   0  0  0  0  0  0  0  0  0  0  0  0
  194.9500  173.9480  143.1350 C   0  0  0  0  0  3  0  0  0  0  0  0
  188.9560  176.6210  142.9610 C   0  0  2  0  0  3  0  0  0  0  0  0
  193.8290  174.6650  143.5640 C   0  0  0  0  0  0  0  0  0  0  0  0
  195.9590  173.6770  144.0020 N   0  0  0  0  0  0  0  0  0  0  0  0
  189.2610  174.3630  142.1100 N   0  0  0  0  0  0  0  0  0  0  0  0
  191.2770  172.0410  144.2630 C   0  0  0  0  0  2  0  0  0  0  0  0
  191.0320  172.4720  141.8640 C   0  0  2  0  0  3  0  0  0  0  0  0
  193.4230  174.9160  140.4480 O   0  0  0  0  0  0  0  0  0  0  0  0
  188.5720  175.1590  143.1350 C   0  0  0  0  0  2  0  0  0  0  0  0
  191.9710  171.9040  142.9150 C   0  0  0  0  0  2  0  0  0  0  0  0
  191.7360  173.3980  140.9680 N   0  0  0  0  0  2  0  0  0  0  0  0
  190.0710  172.9540  144.0960 C   0  0  2  0  0  3  0  0  0  0  0  0
  192.6680  174.4320  141.3310 C   0  0  0  0  0  0  0  0  0  0  0  0
  188.3230  176.8690  146.5060 C   0  0  0  0  0  1  0  0  0  0  0  0
  188.1030  177.5360  145.1620 C   0  0  0  0  0  2  0  0  0  0  0  0
  188.3630  174.1130  140.9780 C   0  0  0  0  0  2  0  0  0  0  0  0
  188.9300  174.5410  139.7720 O   0  0  0  0  0  1  0  0  0  0  0  0
  2  3  1  0  0  0  0
  3  8  1  0  0  0  0
  3 10  2  0  0  0  0
  5  8  1  0  0  0  0
  5 29  1  1  0  0  0
  6  1  1  6  0  0  0
  6 26  1  0  0  0  0
  9  2  2  0  0  0  0
  9 17  1  0  0  0  0
 10 12  1  0  0  0  0
 11  4  2  0  0  0  0
 11 13  1  0  0  0  0
 14 10  1  0  0  0  0
 14  4  1  0  0  0  0
 15 17  1  0  0  0  0
 15 18  2  0  0  0  0
 16  7  1  1  0  0  0
 16 23  1  0  0  0  0
 16  5  1  0  0  0  0
 17 14  2  0  0  0  0
 18 11  1  0  0  0  0
 19  6  1  0  0  0  0
 19 23  1  0  0  0  0
 21  6  1  0  0  0  0
 21 24  1  1  0  0  0
 22 27  2  0  0  0  0
 24 20  1  0  0  0  0
 25 27  1  0  0  0  0
 25 21  1  0  0  0  0
 26  1  1  1  0  0  0
 26 20  1  0  0  0  0
 27  9  1  0  0  0  0
 29 28  1  0  0  0  0
 30 19  1  0  0  0  0
 31 30  1  0  0  0  0
M  END
>  <MODEL>
4

>  <REMARK>
 VINA RESULT:      -6.8      2.786      5.729
  Name = 
  2 active torsions:
  status: ('A' for Active; 'I' for Inactive)
    1  A    between atoms: C_5  and  C_23
    2  A    between atoms: N_20  and  C_27
                            x       y       z     vdW  Elec       q    Type
                         _______ _______ _______ _____ _____    ______ ____

>  <TORSDO>
F 2

$$$$
=
 OpenBabel11042414013D

 31 35  0  0  1  0  0  0  0  0999 V2000
  193.0900  173.3620  145.4380 C   0  0  0  0  0  2  0  0  0  0  0  0
  190.9560  175.8540  142.4380 C   0  0  0  0  0  3  0  0  0  0  0  0
  190.0670  174.8850  141.9700 C   0  0  0  0  0  0  0  0  0  0  0  0
  187.0140  175.9690  143.7270 N   0  0  0  0  0  0  0  0  0  0  0  0
  191.7780  173.7270  140.3740 C   0  0  1  0  0  3  0  0  0  0  0  0
  192.9100  174.6880  144.7210 C   0  0  2  0  0  0  0  0  0  0  0  0
  194.1850  174.2640  140.2430 N   0  0  0  0  0  1  0  0  0  0  0  0
  190.5390  173.7940  141.1630 N   0  0  0  0  0  2  0  0  0  0  0  0
  190.5720  176.8220  143.3570 C   0  0  0  0  0  0  0  0  0  0  0  0
  188.7310  174.9110  142.4130 C   0  0  0  0  0  0  0  0  0  0  0  0
  186.5980  176.9210  144.6020 C   0  0  0  0  0  0  0  0  0  0  0  0
  187.7680  173.8690  141.9400 C   0  0  0  0  0  1  0  0  0  0  0  0
  185.2420  176.9480  145.0290 N   0  0  0  0  0  1  0  0  0  0  0  0
  188.3060  175.9210  143.2990 C   0  0  0  0  0  0  0  0  0  0  0  0
  188.7750  177.8390  144.6830 C   0  0  0  0  0  3  0  0  0  0  0  0
  193.0010  174.3310  141.0850 C   0  0  2  0  0  3  0  0  0  0  0  0
  189.2310  176.8780  143.7750 C   0  0  0  0  0  0  0  0  0  0  0  0
  187.4760  177.8450  145.0740 N   0  0  0  0  0  0  0  0  0  0  0  0
  193.5610  174.8320  143.3990 N   0  0  0  0  0  0  0  0  0  0  0  0
  190.8330  174.2830  145.9170 C   0  0  0  0  0  2  0  0  0  0  0  0
  192.6130  175.9280  145.5600 C   0  0  2  0  0  3  0  0  0  0  0  0
  191.6340  178.9110  143.6020 O   0  0  0  0  0  0  0  0  0  0  0  0
  193.2900  173.7380  142.4570 C   0  0  0  0  0  2  0  0  0  0  0  0
  191.2640  175.7100  146.2250 C   0  0  0  0  0  2  0  0  0  0  0  0
  192.6340  177.1850  144.8020 N   0  0  0  0  0  2  0  0  0  0  0  0
  191.7400  173.7270  144.8300 C   0  0  2  0  0  3  0  0  0  0  0  0
  191.6190  177.6930  143.9170 C   0  0  0  0  0  0  0  0  0  0  0  0
  190.9680  171.3710  140.5160 C   0  0  0  0  0  1  0  0  0  0  0  0
  192.0340  172.2870  139.9470 C   0  0  0  0  0  2  0  0  0  0  0  0
  195.0070  175.0190  143.5500 C   0  0  0  0  0  2  0  0  0  0  0  0
  195.4250  176.2390  143.0060 O   0  0  0  0  0  1  0  0  0  0  0  0
  2  9  1  0  0  0  0
  3 10  1  0  0  0  0
  3  2  2  0  0  0  0
  4 11  2  0  0  0  0
  5 29  1  1  0  0  0
  5 16  1  0  0  0  0
  5  8  1  0  0  0  0
  6 26  1  0  0  0  0
  6  1  1  1  0  0  0
  6 21  1  0  0  0  0
  8  3  1  0  0  0  0
  9 17  2  0  0  0  0
  9 27  1  0  0  0  0
 10 14  2  0  0  0  0
 11 13  1  0  0  0  0
 11 18  1  0  0  0  0
 12 10  1  0  0  0  0
 14  4  1  0  0  0  0
 14 17  1  0  0  0  0
 15 18  2  0  0  0  0
 16  7  1  6  0  0  0
 16 23  1  0  0  0  0
 17 15  1  0  0  0  0
 19 30  1  0  0  0  0
 19  6  1  0  0  0  0
 20 24  1  0  0  0  0
 21 24  1  6  0  0  0
 22 27  2  0  0  0  0
 23 19  1  0  0  0  0
 25 21  1  0  0  0  0
 26  1  1  1  0  0  0
 26 20  1  0  0  0  0
 27 25  1  0  0  0  0
 29 28  1  0  0  0  0
 31 30  1  0  0  0  0
M  END
>  <MODEL>
5

>  <REMARK>
 VINA RESULT:      -6.5      2.618      5.940
  Name = 
  2 active torsions:
  status: ('A' for Active; 'I' for Inactive)
    1  A    between atoms: C_5  and  C_23
    2  A    between atoms: N_20  and  C_27
                            x       y       z     vdW  Elec       q    Type
                         _______ _______ _______ _____ _____    ______ ____

>  <TORSDO>
F 2

$$$$
=
 OpenBabel11042414013D

 31 35  0  0  1  0  0  0  0  0999 V2000
  188.4450  178.1800  142.4830 C   0  0  0  0  0  2  0  0  0  0  0  0
  190.9360  174.5960  143.3320 C   0  0  0  0  0  3  0  0  0  0  0  0
  191.4970  174.4390  142.0640 C   0  0  0  0  0  0  0  0  0  0  0  0
  194.8510  175.8220  142.7130 N   0  0  0  0  0  0  0  0  0  0  0  0
  189.4250  173.2400  141.0220 C   0  0  1  0  0  3  0  0  0  0  0  0
  188.9180  177.1070  143.4480 C   0  0  2  0  0  0  0  0  0  0  0  0
  187.2460  172.9410  142.1440 N   0  0  0  0  0  1  0  0  0  0  0  0
  190.6920  173.9830  140.9650 N   0  0  0  0  0  2  0  0  0  0  0  0
  191.6320  175.1950  144.3750 C   0  0  0  0  0  0  0  0  0  0  0  0
  192.8200  174.8640  141.8440 C   0  0  0  0  0  0  0  0  0  0  0  0
  195.5690  176.3830  143.7190 C   0  0  0  0  0  0  0  0  0  0  0  0
  193.4330  174.7240  140.4870 C   0  0  0  0  0  1  0  0  0  0  0  0
  196.9120  176.7920  143.4900 N   0  0  0  0  0  1  0  0  0  0  0  0
  193.5640  175.4190  142.9040 C   0  0  0  0  0  0  0  0  0  0  0  0
  193.7280  176.1770  145.1870 C   0  0  0  0  0  3  0  0  0  0  0  0
  188.4640  173.7350  142.1170 C   0  0  2  0  0  3  0  0  0  0  0  0
  192.9660  175.5870  144.1740 C   0  0  0  0  0  0  0  0  0  0  0  0
  195.0080  176.5580  144.9440 N   0  0  0  0  0  0  0  0  0  0  0  0
  188.2320  175.7960  143.3870 N   0  0  0  0  0  0  0  0  0  0  0  0
  190.8950  178.3840  142.8410 C   0  0  0  0  0  2  0  0  0  0  0  0
  189.5970  177.5490  144.7430 C   0  0  2  0  0  3  0  0  0  0  0  0
  191.1860  174.8090  146.6560 O   0  0  0  0  0  0  0  0  0  0  0  0
  188.1310  175.2180  142.0400 C   0  0  0  0  0  2  0  0  0  0  0  0
  190.8840  178.2580  144.3570 C   0  0  0  0  0  2  0  0  0  0  0  0
  189.8540  176.4550  145.6880 N   0  0  0  0  0  2  0  0  0  0  0  0
  189.7940  177.5010  142.2730 C   0  0  2  0  0  3  0  0  0  0  0  0
  190.8990  175.4670  145.6230 C   0  0  0  0  0  0  0  0  0  0  0  0
  189.7800  173.5900  138.5770 C   0  0  0  0  0  1  0  0  0  0  0  0
  188.7630  173.2520  139.6500 C   0  0  0  0  0  2  0  0  0  0  0  0
  186.9030  175.8760  144.0010 C   0  0  0  0  0  2  0  0  0  0  0  0
  185.9100  176.1130  143.0440 O   0  0  0  0  0  1  0  0  0  0  0  0
  2  9  1  0  0  0  0
  3  2  2  0  0  0  0
  4 14  1  0  0  0  0
  4 11  2  0  0  0  0
  5 29  1  6  0  0  0
  5 16  1  0  0  0  0
  6  1  1  6  0  0  0
  6 21  1  0  0  0  0
  8  5  1  0  0  0  0
  8  3  1  0  0  0  0
  9 27  1  0  0  0  0
 10  3  1  0  0  0  0
 10 14  2  0  0  0  0
 11 18  1  0  0  0  0
 12 10  1  0  0  0  0
 13 11  1  0  0  0  0
 14 17  1  0  0  0  0
 16  7  1  6  0  0  0
 17  9  2  0  0  0  0
 17 15  1  0  0  0  0
 18 15  2  0  0  0  0
 19  6  1  0  0  0  0
 19 30  1  0  0  0  0
 20 24  1  0  0  0  0
 21 24  1  6  0  0  0
 21 25  1  0  0  0  0
 23 16  1  0  0  0  0
 23 19  1  0  0  0  0
 26  1  1  6  0  0  0
 26 20  1  0  0  0  0
 26  6  1  0  0  0  0
 27 25  1  0  0  0  0
 27 22  2  0  0  0  0
 28 29  1  0  0  0  0
 31 30  1  0  0  0  0
M  END
>  <MODEL>
6

>  <REMARK>
 VINA RESULT:      -6.4      2.649      5.561
  Name = 
  2 active torsions:
  status: ('A' for Active; 'I' for Inactive)
    1  A    between atoms: C_5  and  C_23
    2  A    between atoms: N_20  and  C_27
                            x       y       z     vdW  Elec       q    Type
                         _______ _______ _______ _____ _____    ______ ____

>  <TORSDO>
F 2

$$$$
=
 OpenBabel11042414013D

 31 35  0  0  1  0  0  0  0  0999 V2000
  193.9780  176.5880  143.5560 C   0  0  0  0  0  2  0  0  0  0  0  0
  191.0170  173.3780  144.3910 C   0  0  0  0  0  3  0  0  0  0  0  0
  189.8840  174.0160  143.8850 C   0  0  0  0  0  0  0  0  0  0  0  0
  189.5760  172.2350  140.6730 N   0  0  0  0  0  0  0  0  0  0  0  0
  189.4670  175.4960  145.9950 C   0  0  1  0  0  3  0  0  0  0  0  0
  193.6510  175.2170  144.1210 C   0  0  2  0  0  0  0  0  0  0  0  0
  190.9840  175.6610  147.9360 N   0  0  0  0  0  1  0  0  0  0  0  0
  189.3080  175.1340  144.5790 N   0  0  0  0  0  2  0  0  0  0  0  0
  191.7020  172.4110  143.6670 C   0  0  0  0  0  0  0  0  0  0  0  0
  189.3970  173.6420  142.6190 C   0  0  0  0  0  0  0  0  0  0  0  0
  190.2030  171.2710  139.9530 C   0  0  0  0  0  0  0  0  0  0  0  0
  188.1960  174.3280  142.0480 C   0  0  0  0  0  1  0  0  0  0  0  0
  189.6910  170.8880  138.6820 N   0  0  0  0  0  1  0  0  0  0  0  0
  190.0420  172.6200  141.8940 C   0  0  0  0  0  0  0  0  0  0  0  0
  191.8300  171.0220  141.6490 C   0  0  0  0  0  3  0  0  0  0  0  0
  190.9000  175.3200  146.5250 C   0  0  2  0  0  3  0  0  0  0  0  0
  191.2000  172.0050  142.4190 C   0  0  0  0  0  0  0  0  0  0  0  0
  191.3220  170.6730  140.4400 N   0  0  0  0  0  0  0  0  0  0  0  0
  193.0980  175.1690  145.4940 N   0  0  0  0  0  0  0  0  0  0  0  0
  193.1660  175.0980  141.7420 C   0  0  0  0  0  2  0  0  0  0  0  0
  194.3950  174.0080  143.5590 C   0  0  2  0  0  3  0  0  0  0  0  0
  193.0460  170.7360  144.6380 O   0  0  0  0  0  0  0  0  0  0  0  0
  191.9610  176.0690  145.7320 C   0  0  0  0  0  2  0  0  0  0  0  0
  194.0070  173.8800  142.0960 C   0  0  0  0  0  2  0  0  0  0  0  0
  194.1450  172.7580  144.2880 N   0  0  0  0  0  2  0  0  0  0  0  0
  192.7780  175.8090  143.0300 C   0  0  2  0  0  3  0  0  0  0  0  0
  192.9780  171.9190  144.2140 C   0  0  0  0  0  0  0  0  0  0  0  0
  188.5420  177.5410  144.9040 C   0  0  0  0  0  1  0  0  0  0  0  0
  188.9570  176.9130  146.2210 C   0  0  0  0  0  2  0  0  0  0  0  0
  194.1500  175.4150  146.4860 C   0  0  0  0  0  2  0  0  0  0  0  0
  194.1710  176.7550  146.8880 O   0  0  0  0  0  1  0  0  0  0  0  0
  3  2  1  0  0  0  0
  3  8  1  0  0  0  0
  4 14  1  0  0  0  0
  5 29  1  6  0  0  0
  5 16  1  0  0  0  0
  6  1  1  1  0  0  0
  6 19  1  0  0  0  0
  8  5  1  0  0  0  0
  9 27  1  0  0  0  0
  9  2  2  0  0  0  0
 10  3  2  0  0  0  0
 11 18  1  0  0  0  0
 11  4  2  0  0  0  0
 12 10  1  0  0  0  0
 13 11  1  0  0  0  0
 14 17  2  0  0  0  0
 14 10  1  0  0  0  0
 15 17  1  0  0  0  0
 16  7  1  1  0  0  0
 17  9  1  0  0  0  0
 18 15  2  0  0  0  0
 19 23  1  0  0  0  0
 19 30  1  0  0  0  0
 20 24  1  0  0  0  0
 21 24  1  6  0  0  0
 21  6  1  0  0  0  0
 21 25  1  0  0  0  0
 23 16  1  0  0  0  0
 26 20  1  6  0  0  0
 26  1  1  0  0  0  0
 26  6  1  0  0  0  0
 27 25  1  0  0  0  0
 27 22  2  0  0  0  0
 28 29  1  0  0  0  0
 30 31  1  0  0  0  0
M  END
>  <MODEL>
7

>  <REMARK>
 VINA RESULT:      -6.3      2.261      3.191
  Name = 
  2 active torsions:
  status: ('A' for Active; 'I' for Inactive)
    1  A    between atoms: C_5  and  C_23
    2  A    between atoms: N_20  and  C_27
                            x       y       z     vdW  Elec       q    Type
                         _______ _______ _______ _____ _____    ______ ____

>  <TORSDO>
F 2

$$$$
=
 OpenBabel11042414013D

 31 35  0  0  1  0  0  0  0  0999 V2000
  194.0280  172.9820  145.7570 C   0  0  0  0  0  2  0  0  0  0  0  0
  193.0070  175.6250  142.3310 C   0  0  0  0  0  3  0  0  0  0  0  0
  193.5330  174.8350  141.3070 C   0  0  0  0  0  0  0  0  0  0  0  0
  190.4060  173.4040  139.9830 N   0  0  0  0  0  0  0  0  0  0  0  0
  196.0080  175.5870  141.6600 C   0  0  1  0  0  3  0  0  0  0  0  0
  193.4300  174.2720  145.2260 C   0  0  2  0  0  0  0  0  0  0  0  0
  196.8100  177.0100  143.5120 N   0  0  0  0  0  1  0  0  0  0  0  0
  194.9550  174.6940  141.1550 N   0  0  0  0  0  2  0  0  0  0  0  0
  191.6480  175.6490  142.6160 C   0  0  0  0  0  0  0  0  0  0  0  0
  192.6580  174.0700  140.5140 C   0  0  0  0  0  0  0  0  0  0  0  0
  189.0690  173.4290  140.2150 C   0  0  0  0  0  0  0  0  0  0  0  0
  193.2030  173.2010  139.4260 C   0  0  0  0  0  1  0  0  0  0  0  0
  188.1910  172.6650  139.3970 N   0  0  0  0  0  1  0  0  0  0  0  0
  191.2690  174.1270  140.7490 C   0  0  0  0  0  0  0  0  0  0  0  0
  189.3830  174.9140  142.0270 C   0  0  0  0  0  3  0  0  0  0  0  0
  195.7510  176.1090  143.0840 C   0  0  2  0  0  3  0  0  0  0  0  0
  190.7630  174.9170  141.8060 C   0  0  0  0  0  0  0  0  0  0  0  0
  188.5660  174.1780  141.2320 N   0  0  0  0  0  0  0  0  0  0  0  0
  194.3670  175.3840  144.9470 N   0  0  0  0  0  0  0  0  0  0  0  0
  192.0920  172.4730  144.2860 C   0  0  0  0  0  2  0  0  0  0  0  0
  191.9660  174.5720  145.5420 C   0  0  2  0  0  3  0  0  0  0  0  0
  190.5510  177.4410  143.6820 O   0  0  0  0  0  0  0  0  0  0  0  0
  195.5270  175.0200  144.1230 C   0  0  0  0  0  2  0  0  0  0  0  0
  191.1300  173.5000  144.8650 C   0  0  0  0  0  2  0  0  0  0  0  0
  191.5310  175.9170  145.1440 N   0  0  0  0  0  2  0  0  0  0  0  0
  193.4990  173.0500  144.3280 C   0  0  2  0  0  3  0  0  0  0  0  0
  191.2110  176.3790  143.8190 C   0  0  0  0  0  0  0  0  0  0  0  0
  197.1800  173.4490  141.1260 C   0  0  0  0  0  1  0  0  0  0  0  0
  197.3600  174.8920  141.5540 C   0  0  0  0  0  2  0  0  0  0  0  0
  194.8130  176.0120  146.1950 C   0  0  0  0  0  2  0  0  0  0  0  0
  194.5670  177.3890  146.1920 O   0  0  0  0  0  1  0  0  0  0  0  0
  2  9  1  0  0  0  0
  3  2  2  0  0  0  0
  4 11  2  0  0  0  0
  4 14  1  0  0  0  0
  5 29  1  1  0  0  0
  5 16  1  0  0  0  0
  6 21  1  0  0  0  0
  6  1  1  1  0  0  0
  8  3  1  0  0  0  0
  8  5  1  0  0  0  0
  9 27  1  0  0  0  0
 10 14  2  0  0  0  0
 10  3  1  0  0  0  0
 11 18  1  0  0  0  0
 12 10  1  0  0  0  0
 13 11  1  0  0  0  0
 14 17  1  0  0  0  0
 16  7  1  1  0  0  0
 16 23  1  0  0  0  0
 17 15  1  0  0  0  0
 17  9  2  0  0  0  0
 18 15  2  0  0  0  0
 19  6  1  0  0  0  0
 19 30  1  0  0  0  0
 20 24  1  0  0  0  0
 21 24  1  6  0  0  0
 22 27  2  0  0  0  0
 23 19  1  0  0  0  0
 25 21  1  0  0  0  0
 26 20  1  1  0  0  0
 26  6  1  0  0  0  0
 26  1  1  0  0  0  0
 27 25  1  0  0  0  0
 28 29  1  0  0  0  0
 31 30  1  0  0  0  0
M  END
>  <MODEL>
8

>  <REMARK>
 VINA RESULT:      -6.3      3.373      6.002
  Name = 
  2 active torsions:
  status: ('A' for Active; 'I' for Inactive)
    1  A    between atoms: C_5  and  C_23
    2  A    between atoms: N_20  and  C_27
                            x       y       z     vdW  Elec       q    Type
                         _______ _______ _______ _____ _____    ______ ____

>  <TORSDO>
F 2

$$$$
=
 OpenBabel11042414013D

 31 35  0  0  1  0  0  0  0  0999 V2000
  189.3140  172.5220  143.1910 C   0  0  0  0  0  2  0  0  0  0  0  0
  192.5640  175.5250  142.7530 C   0  0  0  0  0  3  0  0  0  0  0  0
  192.7330  175.8340  144.1030 C   0  0  0  0  0  0  0  0  0  0  0  0
  195.8080  173.9200  144.7800 N   0  0  0  0  0  0  0  0  0  0  0  0
  190.7010  177.4680  144.2410 C   0  0  1  0  0  3  0  0  0  0  0  0
  190.2480  173.3280  142.3050 C   0  0  2  0  0  0  0  0  0  0  0  0
  189.0600  177.8480  142.4350 N   0  0  0  0  0  1  0  0  0  0  0  0
  191.7310  176.5860  144.8080 N   0  0  0  0  0  2  0  0  0  0  0  0
  193.4200  174.6590  142.0840 C   0  0  0  0  0  0  0  0  0  0  0  0
  193.8240  175.2830  144.8010 C   0  0  0  0  0  0  0  0  0  0  0  0
  196.6810  173.0950  144.1480 C   0  0  0  0  0  0  0  0  0  0  0  0
  194.0100  175.5850  146.2530 C   0  0  0  0  0  1  0  0  0  0  0  0
  197.7910  172.5580  144.8580 N   0  0  0  0  0  1  0  0  0  0  0  0
  194.7380  174.4500  144.1250 C   0  0  0  0  0  0  0  0  0  0  0  0
  195.4430  173.2750  142.1420 C   0  0  0  0  0  3  0  0  0  0  0  0
  190.0430  176.9160  142.9640 C   0  0  2  0  0  3  0  0  0  0  0  0
  194.5330  174.1350  142.7630 C   0  0  0  0  0  0  0  0  0  0  0  0
  196.4950  172.7760  142.8400 N   0  0  0  0  0  0  0  0  0  0  0  0
  189.8310  174.7080  141.9670 N   0  0  0  0  0  0  0  0  0  0  0  0
  191.6750  171.9300  143.6900 C   0  0  0  0  0  2  0  0  0  0  0  0
  191.1930  172.5710  141.3750 C   0  0  2  0  0  3  0  0  0  0  0  0
  193.7670  174.6790  139.7540 O   0  0  0  0  0  0  0  0  0  0  0  0
  189.4340  175.5300  143.1180 C   0  0  0  0  0  2  0  0  0  0  0  0
  192.1490  171.7790  142.2510 C   0  0  0  0  0  2  0  0  0  0  0  0
  191.9230  173.4300  140.4340 N   0  0  0  0  0  2  0  0  0  0  0  0
  190.6370  173.0410  143.7440 C   0  0  2  0  0  3  0  0  0  0  0  0
  193.0630  174.2650  140.7110 C   0  0  0  0  0  0  0  0  0  0  0  0
  190.0640  177.1850  146.6360 C   0  0  0  0  0  1  0  0  0  0  0  0
  189.6640  177.7960  145.3080 C   0  0  0  0  0  2  0  0  0  0  0  0
  188.7600  174.6960  140.9650 C   0  0  0  0  0  2  0  0  0  0  0  0
  187.5310  175.0580  141.5260 O   0  0  0  0  0  1  0  0  0  0  0  0
  2  3  1  0  0  0  0
  3 10  2  0  0  0  0
  3  8  1  0  0  0  0
  5  8  1  0  0  0  0
  5 29  1  1  0  0  0
  6  1  1  6  0  0  0
  6 26  1  0  0  0  0
  9  2  2  0  0  0  0
  9 17  1  0  0  0  0
 10 12  1  0  0  0  0
 11  4  2  0  0  0  0
 11 13  1  0  0  0  0
 14  4  1  0  0  0  0
 14 10  1  0  0  0  0
 15 17  1  0  0  0  0
 15 18  2  0  0  0  0
 16  7  1  1  0  0  0
 16 23  1  0  0  0  0
 16  5  1  0  0  0  0
 17 14  2  0  0  0  0
 18 11  1  0  0  0  0
 19  6  1  0  0  0  0
 19 23  1  0  0  0  0
 20 26  1  0  0  0  0
 21 24  1  1  0  0  0
 21  6  1  0  0  0  0
 22 27  2  0  0  0  0
 24 20  1  0  0  0  0
 25 27  1  0  0  0  0
 25 21  1  0  0  0  0
 26  1  1  1  0  0  0
 27  9  1  0  0  0  0
 29 28  1  0  0  0  0
 30 31  1  0  0  0  0
 30 19  1  0  0  0  0
M  END
>  <MODEL>
9

>  <REMARK>
 VINA RESULT:      -6.2      3.157      5.928
  Name = 
  2 active torsions:
  status: ('A' for Active; 'I' for Inactive)
    1  A    between atoms: C_5  and  C_23
    2  A    between atoms: N_20  and  C_27
                            x       y       z     vdW  Elec       q    Type
                         _______ _______ _______ _____ _____    ______ ____

>  <TORSDO>
F 2

$$$$
