=
 OpenBabel11042419123D

 58 65  0  0  1  0  0  0  0  0999 V2000
  190.2570  174.5150  146.1670 C   0  0  0  0  0  0  0  0  0  0  0  0
  192.1930  173.1150  144.1360 C   0  0  0  0  0  0  0  0  0  0  0  0
  190.8690  172.9120  144.2920 C   0  0  0  0  0  0  0  0  0  0  0  0
  192.7380  174.8650  145.9090 C   0  0  0  0  0  0  0  0  0  0  0  0
  190.0250  173.5090  145.3300 C   0  0  0  0  0  3  0  0  0  0  0  0
  193.0420  173.9500  144.9950 C   0  0  0  0  0  3  0  0  0  0  0  0
  191.4370  175.2530  146.2490 O   0  0  0  0  0  0  0  0  0  0  0  0
  194.0390  169.2350  144.7240 C   0  0  0  0  0  3  0  0  0  0  0  0
  193.5250  171.1230  143.2940 C   0  0  0  0  0  0  0  0  0  0  0  0
  193.3980  170.4560  144.5200 C   0  0  0  0  0  3  0  0  0  0  0  0
  194.4820  171.1740  141.0280 C   0  0  0  0  0  0  0  0  0  0  0  0
  193.8910  173.3280  139.7250 C   0  0  1  0  0  3  0  0  0  0  0  0
  195.3170  173.3510  139.2150 C   0  0  0  0  0  2  0  0  0  0  0  0
  193.1350  172.9860  141.8290 C   0  0  0  0  0  0  0  0  0  0  0  0
  194.3180  170.5210  142.2700 C   0  0  0  0  0  0  0  0  0  0  0  0
  193.8120  172.3790  140.8470 C   0  0  0  0  0  0  0  0  0  0  0  0
  194.8130  168.6860  143.7010 C   0  0  0  0  0  3  0  0  0  0  0  0
  192.8580  174.3060  141.4260 N   0  0  0  0  0  2  0  0  0  0  0  0
  192.9330  172.3950  143.0780 C   0  0  0  0  0  0  0  0  0  0  0  0
  194.9380  169.3320  142.5110 N   0  0  0  0  0  0  0  0  0  0  0  0
  195.6900  170.5990  139.8060 S   0  0  0  0  0  0  0  0  0  0  0  0
  193.4780  174.5940  140.2380 O   0  0  0  0  0  0  0  0  0  0  0  0
  195.6200  171.9910  138.5890 C   0  0  2  0  0  3  0  0  0  0  0  0
  196.9240  172.0730  137.8110 C   0  0  0  0  0  2  0  0  0  0  0  0
  196.6750  172.3700  136.3410 C   0  0  0  0  0  2  0  0  0  0  0  0
  195.4420  171.7350  135.9040 N   0  0  0  0  0  1  0  0  0  0  0  0
  193.8220  175.4980  146.5280 O   0  0  0  0  0  0  0  0  0  0  0  0
  194.8870  176.7180  144.7120 O   0  0  0  0  0  0  0  0  0  0  0  0
  194.6770  177.6070  146.8050 O   0  0  0  0  0  1  0  0  0  0  0  0
  194.4740  176.6340  146.0350 C   0  0  0  0  0  0  0  0  0  0  0  0
  190.1310  171.9730  143.3760 C   0  0  0  0  0  2  0  0  0  0  0  0
  189.5910  172.6810  142.1740 C   0  0  0  0  0  0  0  0  0  0  0  0
  189.9310  172.2430  140.9530 C   0  0  0  0  0  3  0  0  0  0  0  0
  190.0890  174.3860  136.7340 O   0  0  0  0  0  0  0  0  0  0  0  0
  188.3470  173.2260  137.7710 O   0  0  0  0  0  0  0  0  0  0  0  0
  189.4790  172.8100  139.7130 N   0  0  0  0  0  0  0  0  0  0  0  0
  190.3190  173.4940  138.8720 O   0  0  0  0  0  0  0  0  0  0  0  0
  189.6260  173.7500  137.7150 C   0  0  0  0  0  0  0  0  0  0  0  0
  188.1960  172.5860  139.0400 C   0  0  0  0  0  2  0  0  0  0  0  0
  188.1610  174.8170  142.5570 N   0  0  0  0  0  0  0  0  0  0  0  0
  188.8010  173.8670  142.3890 C   0  0  0  0  0  0  0  0  0  0  0  0
  188.9190  174.9880  147.2550 S   0  0  0  0  0  0  0  0  0  0  0  0
  189.1930  176.7650  146.9770 C   0  0  0  0  0  2  0  0  0  0  0  0
  188.6440  177.1720  145.6220 C   0  0  0  0  0  2  0  0  0  0  0  0
  183.3590  179.0750  146.1990 F   0  0  0  0  0  0  0  0  0  0  0  0
  187.2500  177.6780  145.7660 C   0  0  0  0  0  0  0  0  0  0  0  0
  185.3080  178.1210  147.1410 C   0  0  0  0  0  3  0  0  0  0  0  0
  185.2630  178.6600  144.7660 C   0  0  0  0  0  0  0  0  0  0  0  0
  184.6280  178.6290  146.0290 C   0  0  0  0  0  0  0  0  0  0  0  0
  186.5740  178.1810  144.6530 C   0  0  0  0  0  3  0  0  0  0  0  0
  186.6140  177.6460  147.0120 C   0  0  0  0  0  3  0  0  0  0  0  0
  184.6440  179.1400  143.6050 O   0  0  0  0  0  0  0  0  0  0  0  0
  183.5120  178.5350  142.9940 C   0  0  0  0  0  2  0  0  0  0  0  0
  183.7940  178.2860  141.5230 C   0  0  0  0  0  2  0  0  0  0  0  0
  185.0830  177.4960  141.3540 C   0  0  0  0  0  2  0  0  0  0  0  0
  185.9810  178.1930  140.4480 N   0  0  0  0  0  0  0  0  0  0  0  0
  187.3470  177.8990  140.9080 C   0  0  0  0  0  2  0  0  0  0  0  0
  186.7940  177.1650  139.7780 C   0  0  0  0  0  2  0  0  0  0  0  0
  1  7  1  0  0  0  0
  1 42  1  0  0  0  0
  2  3  2  0  0  0  0
  2  6  1  0  0  0  0
  3  5  1  0  0  0  0
  4  7  1  0  0  0  0
  4 27  1  0  0  0  0
  5  1  2  0  0  0  0
  6  4  2  0  0  0  0
  9 10  2  0  0  0  0
 10  8  1  0  0  0  0
 11 15  1  0  0  0  0
 12 13  1  1  0  0  0
 12 22  1  0  0  0  0
 12 16  1  0  0  0  0
 14 19  2  0  0  0  0
 15 20  2  0  0  0  0
 15  9  1  0  0  0  0
 16 11  2  0  0  0  0
 16 14  1  0  0  0  0
 17  8  2  0  0  0  0
 18 14  1  0  0  0  0
 19  9  1  0  0  0  0
 19  2  1  0  0  0  0
 20 17  1  0  0  0  0
 21 11  1  0  0  0  0
 22 18  1  0  0  0  0
 23 24  1  1  0  0  0
 23 13  1  0  0  0  0
 23 21  1  0  0  0  0
 25 24  1  0  0  0  0
 26 25  1  0  0  0  0
 28 30  2  0  0  0  0
 30 27  1  0  0  0  0
 30 29  1  0  0  0  0
 31  3  1  0  0  0  0
 32 41  1  0  0  0  0
 32 31  1  0  0  0  0
 33 32  2  0  0  0  0
 34 38  2  0  0  0  0
 35 39  1  0  0  0  0
 36 33  1  0  0  0  0
 37 36  1  0  0  0  0
 38 35  1  0  0  0  0
 38 37  1  0  0  0  0
 39 36  1  0  0  0  0
 41 40  3  0  0  0  0
 43 42  1  0  0  0  0
 44 46  1  0  0  0  0
 44 43  1  0  0  0  0
 46 51  1  0  0  0  0
 48 49  2  0  0  0  0
 49 45  1  0  0  0  0
 49 47  1  0  0  0  0
 50 48  1  0  0  0  0
 50 46  2  0  0  0  0
 51 47  2  0  0  0  0
 52 48  1  0  0  0  0
 53 52  1  0  0  0  0
 54 53  1  0  0  0  0
 55 54  1  0  0  0  0
 56 57  1  0  0  0  0
 56 55  1  0  0  0  0
 58 56  1  0  0  0  0
 58 57  1  0  0  0  0
M  END
>  <MODEL>
1

>  <REMARK>
 VINA RESULT:      -6.1      0.000      0.000
  Name = 
  18 active torsions:
  status: ('A' for Active; 'I' for Inactive)
    1  A    between atoms: C_2  and  C_26
    2  A    between atoms: C_2  and  O_36
    3  A    between atoms: N_3  and  C_8
    4  A    between atoms: C_7  and  S_31
    5  A    between atoms: C_8  and  C_26
    6  A    between atoms: C_10  and  C_32
    7  A    between atoms: C_10  and  C_37
    8  A    between atoms: C_11  and  C_54
    9  A    between atoms: C_13  and  N_44
   10  A    between atoms: C_19  and  C_29
   11  A    between atoms: C_22  and  C_29
   12  A    between atoms: C_22  and  S_31
   13  A    between atoms: C_23  and  O_47
   14  A    between atoms: C_27  and  C_43
   15  A    between atoms: C_32  and  C_35
   16  A    between atoms: C_33  and  O_36
   17  A    between atoms: C_38  and  O_47
   18  A    between atoms: C_54  and  C_58
                            x       y       z     vdW  Elec       q    Type
                         _______ _______ _______ _____ _____    ______ ____

>  <TORSDO>
F 18

$$$$
=
 OpenBabel11042419123D

 58 65  0  0  1  0  0  0  0  0999 V2000
  193.2500  173.5330  142.2020 C   0  0  0  0  0  0  0  0  0  0  0  0
  190.9800  175.3260  143.4130 C   0  0  0  0  0  0  0  0  0  0  0  0
  190.8450  174.2160  142.6580 C   0  0  0  0  0  0  0  0  0  0  0  0
  193.5070  175.6290  143.5750 C   0  0  0  0  0  0  0  0  0  0  0  0
  191.9350  173.4730  142.0210 C   0  0  0  0  0  3  0  0  0  0  0  0
  192.2420  176.0130  143.7130 C   0  0  0  0  0  3  0  0  0  0  0  0
  193.9140  174.3830  143.0850 O   0  0  0  0  0  0  0  0  0  0  0  0
  189.2950  174.5110  147.3240 C   0  0  0  0  0  3  0  0  0  0  0  0
  189.2530  175.7300  145.2310 C   0  0  0  0  0  0  0  0  0  0  0  0
  189.8700  174.8120  146.0900 C   0  0  0  0  0  3  0  0  0  0  0  0
  187.3760  177.2620  144.8020 C   0  0  0  0  0  0  0  0  0  0  0  0
  187.4820  178.3680  142.4670 C   0  0  1  0  0  3  0  0  0  0  0  0
  185.9870  178.1510  142.3510 C   0  0  0  0  0  2  0  0  0  0  0  0
  189.0830  176.9260  143.1540 C   0  0  0  0  0  0  0  0  0  0  0  0
  188.0340  176.3450  145.6510 C   0  0  0  0  0  0  0  0  0  0  0  0
  187.9860  177.5580  143.5880 C   0  0  0  0  0  0  0  0  0  0  0  0
  188.0980  175.1250  147.6930 C   0  0  0  0  0  3  0  0  0  0  0  0
  189.2520  177.2190  141.7880 N   0  0  0  0  0  2  0  0  0  0  0  0
  189.7820  176.0110  143.9440 C   0  0  0  0  0  0  0  0  0  0  0  0
  187.4970  176.0160  146.8590 N   0  0  0  0  0  0  0  0  0  0  0  0
  185.7020  177.8540  145.1610 S   0  0  0  0  0  0  0  0  0  0  0  0
  188.1850  177.9300  141.3050 O   0  0  0  0  0  0  0  0  0  0  0  0
  185.3220  178.7530  143.5880 C   0  0  2  0  0  3  0  0  0  0  0  0
  183.8190  178.8180  143.3710 C   0  0  0  0  0  2  0  0  0  0  0  0
  183.4250  178.2120  142.0330 C   0  0  0  0  0  2  0  0  0  0  0  0
  182.0240  178.4830  141.7530 N   0  0  0  0  0  1  0  0  0  0  0  0
  194.4760  176.5450  143.9970 O   0  0  0  0  0  0  0  0  0  0  0  0
  195.0040  177.9980  145.8770 O   0  0  0  0  0  0  0  0  0  0  0  0
  195.1220  175.7230  146.0370 O   0  0  0  0  0  1  0  0  0  0  0  0
  194.8800  176.7300  145.3240 C   0  0  0  0  0  0  0  0  0  0  0  0
  189.4780  173.6530  142.3720 C   0  0  0  0  0  2  0  0  0  0  0  0
  189.2190  173.5460  140.9030 C   0  0  0  0  0  0  0  0  0  0  0  0
  188.5760  174.5440  140.2800 C   0  0  0  0  0  3  0  0  0  0  0  0
  186.5320  175.8700  136.2200 O   0  0  0  0  0  0  0  0  0  0  0  0
  188.4140  174.5380  136.5960 O   0  0  0  0  0  0  0  0  0  0  0  0
  188.2720  174.5880  138.8770 N   0  0  0  0  0  0  0  0  0  0  0  0
  187.2480  175.3480  138.3730 O   0  0  0  0  0  0  0  0  0  0  0  0
  187.3350  175.3010  137.0040 C   0  0  0  0  0  0  0  0  0  0  0  0
  189.0750  174.0610  137.7690 C   0  0  0  0  0  2  0  0  0  0  0  0
  189.8980  171.3380  139.7120 N   0  0  0  0  0  0  0  0  0  0  0  0
  189.5920  172.3210  140.2410 C   0  0  0  0  0  0  0  0  0  0  0  0
  194.2500  172.3900  141.2580 S   0  0  0  0  0  0  0  0  0  0  0  0
  195.3440  173.7070  140.6410 C   0  0  0  0  0  2  0  0  0  0  0  0
  196.1840  173.1890  139.4870 C   0  0  0  0  0  2  0  0  0  0  0  0
  195.7680  176.6590  135.0530 F   0  0  0  0  0  0  0  0  0  0  0  0
  196.0660  174.1040  138.3170 C   0  0  0  0  0  0  0  0  0  0  0  0
  197.0780  175.2870  136.4650 C   0  0  0  0  0  3  0  0  0  0  0  0
  194.6900  175.5060  136.8850 C   0  0  0  0  0  0  0  0  0  0  0  0
  195.8350  175.8260  136.1210 C   0  0  0  0  0  0  0  0  0  0  0  0
  194.8230  174.6430  137.9800 C   0  0  0  0  0  3  0  0  0  0  0  0
  197.1960  174.4280  137.5600 C   0  0  0  0  0  3  0  0  0  0  0  0
  193.4140  176.0180  136.6120 O   0  0  0  0  0  0  0  0  0  0  0  0
  192.2590  175.2160  136.4030 C   0  0  0  0  0  2  0  0  0  0  0  0
  192.3090  174.5940  135.0190 C   0  0  0  0  0  2  0  0  0  0  0  0
  192.1030  173.0890  135.1030 C   0  0  0  0  0  2  0  0  0  0  0  0
  192.2300  172.6440  136.4810 N   0  0  0  0  0  0  0  0  0  0  0  0
  191.8310  171.2290  136.5000 C   0  0  0  0  0  2  0  0  0  0  0  0
  193.2450  171.5770  136.4930 C   0  0  0  0  0  2  0  0  0  0  0  0
  1  7  1  0  0  0  0
  2  6  1  0  0  0  0
  2 19  1  0  0  0  0
  3  2  2  0  0  0  0
  4  6  2  0  0  0  0
  4 27  1  0  0  0  0
  5  1  2  0  0  0  0
  5  3  1  0  0  0  0
  7  4  1  0  0  0  0
  8 17  1  0  0  0  0
  9 15  1  0  0  0  0
  9 10  1  0  0  0  0
 10  8  2  0  0  0  0
 11 21  1  0  0  0  0
 11 15  2  0  0  0  0
 12 13  1  6  0  0  0
 12 16  1  0  0  0  0
 13 23  1  0  0  0  0
 14 16  2  0  0  0  0
 14 19  1  0  0  0  0
 15 20  1  0  0  0  0
 16 11  1  0  0  0  0
 18 14  1  0  0  0  0
 19  9  2  0  0  0  0
 20 17  2  0  0  0  0
 22 18  1  0  0  0  0
 22 12  1  0  0  0  0
 23 24  1  6  0  0  0
 23 21  1  0  0  0  0
 25 24  1  0  0  0  0
 26 25  1  0  0  0  0
 27 30  1  0  0  0  0
 30 28  2  0  0  0  0
 30 29  1  0  0  0  0
 31  3  1  0  0  0  0
 32 31  1  0  0  0  0
 33 32  2  0  0  0  0
 34 38  2  0  0  0  0
 35 38  1  0  0  0  0
 35 39  1  0  0  0  0
 36 33  1  0  0  0  0
 37 36  1  0  0  0  0
 38 37  1  0  0  0  0
 39 36  1  0  0  0  0
 40 41  3  0  0  0  0
 41 32  1  0  0  0  0
 42  1  1  0  0  0  0
 43 42  1  0  0  0  0
 44 43  1  0  0  0  0
 45 49  1  0  0  0  0
 46 44  1  0  0  0  0
 47 51  1  0  0  0  0
 48 50  2  0  0  0  0
 49 47  2  0  0  0  0
 49 48  1  0  0  0  0
 50 46  1  0  0  0  0
 51 46  2  0  0  0  0
 52 48  1  0  0  0  0
 53 52  1  0  0  0  0
 54 55  1  0  0  0  0
 54 53  1  0  0  0  0
 55 56  1  0  0  0  0
 56 58  1  0  0  0  0
 56 57  1  0  0  0  0
 58 57  1  0  0  0  0
M  END
>  <MODEL>
2

>  <REMARK>
 VINA RESULT:      -5.4      3.381      8.972
  Name = 
  18 active torsions:
  status: ('A' for Active; 'I' for Inactive)
    1  A    between atoms: C_2  and  C_26
    2  A    between atoms: C_2  and  O_36
    3  A    between atoms: N_3  and  C_8
    4  A    between atoms: C_7  and  S_31
    5  A    between atoms: C_8  and  C_26
    6  A    between atoms: C_10  and  C_32
    7  A    between atoms: C_10  and  C_37
    8  A    between atoms: C_11  and  C_54
    9  A    between atoms: C_13  and  N_44
   10  A    between atoms: C_19  and  C_29
   11  A    between atoms: C_22  and  C_29
   12  A    between atoms: C_22  and  S_31
   13  A    between atoms: C_23  and  O_47
   14  A    between atoms: C_27  and  C_43
   15  A    between atoms: C_32  and  C_35
   16  A    between atoms: C_33  and  O_36
   17  A    between atoms: C_38  and  O_47
   18  A    between atoms: C_54  and  C_58
                            x       y       z     vdW  Elec       q    Type
                         _______ _______ _______ _____ _____    ______ ____

>  <TORSDO>
F 18

$$$$
=
 OpenBabel11042419123D

 58 65  0  0  1  0  0  0  0  0999 V2000
  192.0410  176.0260  144.4410 C   0  0  0  0  0  0  0  0  0  0  0  0
  193.5930  173.4920  143.4390 C   0  0  0  0  0  0  0  0  0  0  0  0
  192.2820  173.5950  143.7400 C   0  0  0  0  0  0  0  0  0  0  0  0
  194.4980  175.8270  143.9210 C   0  0  0  0  0  0  0  0  0  0  0  0
  191.6220  174.7710  144.3120 C   0  0  0  0  0  3  0  0  0  0  0  0
  194.6090  174.5300  143.6540 C   0  0  0  0  0  3  0  0  0  0  0  0
  193.2870  176.5150  144.0480 O   0  0  0  0  0  0  0  0  0  0  0  0
  194.9280  170.2530  145.9950 C   0  0  0  0  0  3  0  0  0  0  0  0
  194.5630  171.1700  143.7820 C   0  0  0  0  0  0  0  0  0  0  0  0
  194.4470  171.2720  145.1740 C   0  0  0  0  0  3  0  0  0  0  0  0
  195.3280  169.8750  141.8340 C   0  0  0  0  0  0  0  0  0  0  0  0
  194.9340  171.0940  139.5870 C   0  0  1  0  0  3  0  0  0  0  0  0
  196.3030  170.6170  139.1460 C   0  0  0  0  0  2  0  0  0  0  0  0
  194.3150  172.0280  141.5510 C   0  0  0  0  0  0  0  0  0  0  0  0
  195.1780  170.0030  143.2330 C   0  0  0  0  0  0  0  0  0  0  0  0
  194.8180  170.8980  141.0420 C   0  0  0  0  0  0  0  0  0  0  0  0
  195.5320  169.1350  145.4190 C   0  0  0  0  0  3  0  0  0  0  0  0
  194.1900  172.9670  140.5110 N   0  0  0  0  0  2  0  0  0  0  0  0
  194.1370  172.2170  142.9240 C   0  0  0  0  0  0  0  0  0  0  0  0
  195.6460  169.0340  144.0680 N   0  0  0  0  0  0  0  0  0  0  0  0
  196.3400  168.5610  141.1050 S   0  0  0  0  0  0  0  0  0  0  0  0
  194.7430  172.4880  139.3520 O   0  0  0  0  0  0  0  0  0  0  0  0
  196.3630  169.1030  139.3350 C   0  0  2  0  0  3  0  0  0  0  0  0
  197.5970  168.5550  138.6350 C   0  0  0  0  0  2  0  0  0  0  0  0
  197.3700  168.4200  137.1370 C   0  0  0  0  0  2  0  0  0  0  0  0
  195.9650  168.1660  136.8640 N   0  0  0  0  0  1  0  0  0  0  0  0
  195.6990  176.5350  144.0380 O   0  0  0  0  0  0  0  0  0  0  0  0
  196.1530  176.9760  141.6880 O   0  0  0  0  0  0  0  0  0  0  0  0
  197.8280  176.8120  143.2330 O   0  0  0  0  0  1  0  0  0  0  0  0
  196.5950  176.7700  142.9890 C   0  0  0  0  0  0  0  0  0  0  0  0
  191.3600  172.4240  143.5310 C   0  0  0  0  0  2  0  0  0  0  0  0
  190.9040  172.3250  142.1090 C   0  0  0  0  0  0  0  0  0  0  0  0
  190.5750  173.4450  141.4510 C   0  0  0  0  0  3  0  0  0  0  0  0
  187.8180  174.3530  137.7100 O   0  0  0  0  0  0  0  0  0  0  0  0
  190.0630  173.7130  137.8090 O   0  0  0  0  0  0  0  0  0  0  0  0
  190.1380  173.5080  140.0850 N   0  0  0  0  0  0  0  0  0  0  0  0
  188.8750  173.9160  139.7380 O   0  0  0  0  0  0  0  0  0  0  0  0
  188.8370  174.0230  138.3700 C   0  0  0  0  0  0  0  0  0  0  0  0
  190.9570  173.3860  138.8750 C   0  0  0  0  0  2  0  0  0  0  0  0
  190.6160  169.9540  141.0860 N   0  0  0  0  0  0  0  0  0  0  0  0
  190.7480  171.0090  141.5420 C   0  0  0  0  0  0  0  0  0  0  0  0
  190.8870  177.1970  145.1450 S   0  0  0  0  0  0  0  0  0  0  0  0
  189.9500  175.9000  146.0110 C   0  0  0  0  0  2  0  0  0  0  0  0
  188.6810  175.5730  145.2450 C   0  0  0  0  0  2  0  0  0  0  0  0
  184.3610  178.5560  147.3230 F   0  0  0  0  0  0  0  0  0  0  0  0
  187.5390  176.3620  145.7850 C   0  0  0  0  0  0  0  0  0  0  0  0
  186.3860  177.3790  147.6540 C   0  0  0  0  0  3  0  0  0  0  0  0
  185.4600  177.5650  145.4100 C   0  0  0  0  0  0  0  0  0  0  0  0
  185.3880  177.8450  146.7930 C   0  0  0  0  0  0  0  0  0  0  0  0
  186.5420  176.8230  144.9220 C   0  0  0  0  0  3  0  0  0  0  0  0
  187.4600  176.6390  147.1540 C   0  0  0  0  0  3  0  0  0  0  0  0
  184.4920  177.9850  144.4880 O   0  0  0  0  0  0  0  0  0  0  0  0
  184.5980  179.1620  143.6980 C   0  0  0  0  0  2  0  0  0  0  0  0
  185.8020  179.0560  142.7790 C   0  0  0  0  0  2  0  0  0  0  0  0
  185.4900  178.1580  141.5920 C   0  0  0  0  0  2  0  0  0  0  0  0
  186.6740  177.9950  140.7630 N   0  0  0  0  0  0  0  0  0  0  0  0
  187.8150  177.8840  141.6850 C   0  0  0  0  0  2  0  0  0  0  0  0
  187.2480  176.6800  141.0930 C   0  0  0  0  0  2  0  0  0  0  0  0
  1 42  1  0  0  0  0
  2  6  1  0  0  0  0
  2  3  2  0  0  0  0
  3  5  1  0  0  0  0
  4 27  1  0  0  0  0
  4  7  1  0  0  0  0
  5  1  2  0  0  0  0
  6  4  2  0  0  0  0
  7  1  1  0  0  0  0
  9 10  1  0  0  0  0
 10  8  2  0  0  0  0
 11 15  2  0  0  0  0
 12 13  1  1  0  0  0
 12 16  1  0  0  0  0
 13 23  1  0  0  0  0
 14 19  1  0  0  0  0
 15  9  1  0  0  0  0
 15 20  1  0  0  0  0
 16 14  2  0  0  0  0
 16 11  1  0  0  0  0
 17  8  1  0  0  0  0
 18 14  1  0  0  0  0
 19  2  1  0  0  0  0
 19  9  2  0  0  0  0
 20 17  2  0  0  0  0
 21 11  1  0  0  0  0
 22 12  1  0  0  0  0
 22 18  1  0  0  0  0
 23 24  1  1  0  0  0
 23 21  1  0  0  0  0
 25 24  1  0  0  0  0
 26 25  1  0  0  0  0
 28 30  2  0  0  0  0
 30 29  1  0  0  0  0
 30 27  1  0  0  0  0
 31  3  1  0  0  0  0
 32 31  1  0  0  0  0
 33 32  2  0  0  0  0
 34 38  2  0  0  0  0
 35 38  1  0  0  0  0
 35 39  1  0  0  0  0
 36 33  1  0  0  0  0
 37 36  1  0  0  0  0
 38 37  1  0  0  0  0
 39 36  1  0  0  0  0
 40 41  3  0  0  0  0
 41 32  1  0  0  0  0
 42 43  1  0  0  0  0
 44 46  1  0  0  0  0
 44 43  1  0  0  0  0
 46 51  1  0  0  0  0
 48 49  2  0  0  0  0
 49 45  1  0  0  0  0
 49 47  1  0  0  0  0
 50 48  1  0  0  0  0
 50 46  2  0  0  0  0
 51 47  2  0  0  0  0
 52 48  1  0  0  0  0
 53 52  1  0  0  0  0
 54 53  1  0  0  0  0
 55 54  1  0  0  0  0
 56 58  1  0  0  0  0
 56 55  1  0  0  0  0
 56 57  1  0  0  0  0
 58 57  1  0  0  0  0
M  END
>  <MODEL>
3

>  <REMARK>
 VINA RESULT:      -5.4      1.953      2.388
  Name = 
  18 active torsions:
  status: ('A' for Active; 'I' for Inactive)
    1  A    between atoms: C_2  and  C_26
    2  A    between atoms: C_2  and  O_36
    3  A    between atoms: N_3  and  C_8
    4  A    between atoms: C_7  and  S_31
    5  A    between atoms: C_8  and  C_26
    6  A    between atoms: C_10  and  C_32
    7  A    between atoms: C_10  and  C_37
    8  A    between atoms: C_11  and  C_54
    9  A    between atoms: C_13  and  N_44
   10  A    between atoms: C_19  and  C_29
   11  A    between atoms: C_22  and  C_29
   12  A    between atoms: C_22  and  S_31
   13  A    between atoms: C_23  and  O_47
   14  A    between atoms: C_27  and  C_43
   15  A    between atoms: C_32  and  C_35
   16  A    between atoms: C_33  and  O_36
   17  A    between atoms: C_38  and  O_47
   18  A    between atoms: C_54  and  C_58
                            x       y       z     vdW  Elec       q    Type
                         _______ _______ _______ _____ _____    ______ ____

>  <TORSDO>
F 18

$$$$
=
 OpenBabel11042419123D

 58 65  0  0  1  0  0  0  0  0999 V2000
  189.1430  175.1660  142.7780 C   0  0  0  0  0  0  0  0  0  0  0  0
  192.0890  174.1930  143.2370 C   0  0  0  0  0  0  0  0  0  0  0  0
  191.2300  173.8060  142.2720 C   0  0  0  0  0  0  0  0  0  0  0  0
  190.7300  175.8590  144.6080 C   0  0  0  0  0  0  0  0  0  0  0  0
  189.8240  174.2050  142.1620 C   0  0  0  0  0  3  0  0  0  0  0  0
  191.7690  175.0640  144.3740 C   0  0  0  0  0  3  0  0  0  0  0  0
  189.6540  176.0450  143.7330 O   0  0  0  0  0  0  0  0  0  0  0  0
  195.4260  176.1100  141.2390 C   0  0  0  0  0  3  0  0  0  0  0  0
  194.5450  174.3090  142.6000 C   0  0  0  0  0  0  0  0  0  0  0  0
  194.3640  175.5250  141.9270 C   0  0  0  0  0  3  0  0  0  0  0  0
  196.0470  172.4620  143.2190 C   0  0  0  0  0  0  0  0  0  0  0  0
  194.8660  170.6040  144.5760 C   0  0  1  0  0  3  0  0  0  0  0  0
  195.6320  169.5870  143.7550 C   0  0  0  0  0  2  0  0  0  0  0  0
  193.7460  172.4420  143.8840 C   0  0  0  0  0  0  0  0  0  0  0  0
  195.8350  173.6960  142.5660 C   0  0  0  0  0  0  0  0  0  0  0  0
  194.9750  171.9140  143.9140 C   0  0  0  0  0  0  0  0  0  0  0  0
  196.6670  175.4730  141.2210 C   0  0  0  0  0  3  0  0  0  0  0  0
  192.8440  171.4970  144.4080 N   0  0  0  0  0  2  0  0  0  0  0  0
  193.4680  173.6600  143.2590 C   0  0  0  0  0  0  0  0  0  0  0  0
  196.8440  174.2920  141.8730 N   0  0  0  0  0  0  0  0  0  0  0  0
  197.5700  171.5100  142.9760 S   0  0  0  0  0  0  0  0  0  0  0  0
  193.4730  170.3040  144.6500 O   0  0  0  0  0  0  0  0  0  0  0  0
  197.1170  169.9330  143.8330 C   0  0  2  0  0  3  0  0  0  0  0  0
  197.9350  168.7790  143.2750 C   0  0  0  0  0  2  0  0  0  0  0  0
  197.2710  168.1710  142.0500 C   0  0  0  0  0  2  0  0  0  0  0  0
  197.7980  168.7810  140.8400 N   0  0  0  0  0  1  0  0  0  0  0  0
  190.7660  176.5800  145.8060 O   0  0  0  0  0  0  0  0  0  0  0  0
  192.8170  176.6230  147.1150 O   0  0  0  0  0  0  0  0  0  0  0  0
  190.9530  175.5120  147.8260 O   0  0  0  0  0  1  0  0  0  0  0  0
  191.5010  176.2150  146.9390 C   0  0  0  0  0  0  0  0  0  0  0  0
  191.6740  172.8500  141.1970 C   0  0  0  0  0  2  0  0  0  0  0  0
  191.4550  173.4140  139.8280 C   0  0  0  0  0  0  0  0  0  0  0  0
  192.5100  173.8510  139.1270 C   0  0  0  0  0  3  0  0  0  0  0  0
  190.8660  174.8530  134.8010 O   0  0  0  0  0  0  0  0  0  0  0  0
  192.6710  175.7590  135.9750 O   0  0  0  0  0  0  0  0  0  0  0  0
  192.4560  174.4000  137.8010 N   0  0  0  0  0  0  0  0  0  0  0  0
  191.4570  174.0820  136.9170 O   0  0  0  0  0  0  0  0  0  0  0  0
  191.6020  174.8940  135.8200 C   0  0  0  0  0  0  0  0  0  0  0  0
  193.2570  175.4990  137.2530 C   0  0  0  0  0  2  0  0  0  0  0  0
  189.0080  173.6570  138.9860 N   0  0  0  0  0  0  0  0  0  0  0  0
  190.0970  173.5470  139.3640 C   0  0  0  0  0  0  0  0  0  0  0  0
  187.4310  175.3750  142.3070 S   0  0  0  0  0  0  0  0  0  0  0  0
  187.8380  176.5470  140.9770 C   0  0  0  0  0  2  0  0  0  0  0  0
  187.5240  177.9660  141.4180 C   0  0  0  0  0  2  0  0  0  0  0  0
  181.9520  178.5950  142.0760 F   0  0  0  0  0  0  0  0  0  0  0  0
  186.0550  178.1310  141.6010 C   0  0  0  0  0  0  0  0  0  0  0  0
  183.8160  178.1750  140.6830 C   0  0  0  0  0  3  0  0  0  0  0  0
  184.1610  178.5660  143.0610 C   0  0  0  0  0  0  0  0  0  0  0  0
  183.2940  178.4460  141.9510 C   0  0  0  0  0  0  0  0  0  0  0  0
  185.5380  178.4060  142.8680 C   0  0  0  0  0  3  0  0  0  0  0  0
  185.1930  178.0180  140.5050 C   0  0  0  0  0  3  0  0  0  0  0  0
  183.7150  178.8500  144.3590 O   0  0  0  0  0  0  0  0  0  0  0  0
  184.4950  179.5130  145.3450 C   0  0  0  0  0  2  0  0  0  0  0  0
  184.5150  178.6900  146.6220 C   0  0  0  0  0  2  0  0  0  0  0  0
  185.9460  178.3690  147.0260 C   0  0  0  0  0  2  0  0  0  0  0  0
  186.1470  176.9300  147.0520 N   0  0  0  0  0  0  0  0  0  0  0  0
  186.7830  176.5760  145.7730 C   0  0  0  0  0  2  0  0  0  0  0  0
  187.5990  176.7010  146.9730 C   0  0  0  0  0  2  0  0  0  0  0  0
  1  7  1  0  0  0  0
  2 19  1  0  0  0  0
  2  6  1  0  0  0  0
  3  2  2  0  0  0  0
  4 27  1  0  0  0  0
  5  3  1  0  0  0  0
  5  1  2  0  0  0  0
  6  4  2  0  0  0  0
  7  4  1  0  0  0  0
  8 10  1  0  0  0  0
  9 19  1  0  0  0  0
 10  9  2  0  0  0  0
 11 16  2  0  0  0  0
 12 13  1  6  0  0  0
 12 22  1  0  0  0  0
 13 23  1  0  0  0  0
 14 16  1  0  0  0  0
 14 18  1  0  0  0  0
 15  9  1  0  0  0  0
 15 11  1  0  0  0  0
 16 12  1  0  0  0  0
 17  8  2  0  0  0  0
 17 20  1  0  0  0  0
 18 22  1  0  0  0  0
 19 14  2  0  0  0  0
 20 15  2  0  0  0  0
 21 11  1  0  0  0  0
 21 23  1  0  0  0  0
 23 24  1  6  0  0  0
 25 24  1  0  0  0  0
 26 25  1  0  0  0  0
 27 30  1  0  0  0  0
 30 28  2  0  0  0  0
 30 29  1  0  0  0  0
 31  3  1  0  0  0  0
 32 31  1  0  0  0  0
 33 32  2  0  0  0  0
 34 38  2  0  0  0  0
 35 39  1  0  0  0  0
 36 33  1  0  0  0  0
 37 36  1  0  0  0  0
 38 35  1  0  0  0  0
 38 37  1  0  0  0  0
 39 36  1  0  0  0  0
 40 41  3  0  0  0  0
 41 32  1  0  0  0  0
 42  1  1  0  0  0  0
 43 44  1  0  0  0  0
 43 42  1  0  0  0  0
 44 46  1  0  0  0  0
 46 50  1  0  0  0  0
 47 49  2  0  0  0  0
 48 52  1  0  0  0  0
 49 45  1  0  0  0  0
 49 48  1  0  0  0  0
 50 48  2  0  0  0  0
 51 47  1  0  0  0  0
 51 46  2  0  0  0  0
 52 53  1  0  0  0  0
 53 54  1  0  0  0  0
 54 55  1  0  0  0  0
 55 56  1  0  0  0  0
 57 58  1  0  0  0  0
 57 56  1  0  0  0  0
 58 56  1  0  0  0  0
M  END
>  <MODEL>
4

>  <REMARK>
 VINA RESULT:      -5.2      2.566      4.582
  Name = 
  18 active torsions:
  status: ('A' for Active; 'I' for Inactive)
    1  A    between atoms: C_2  and  C_26
    2  A    between atoms: C_2  and  O_36
    3  A    between atoms: N_3  and  C_8
    4  A    between atoms: C_7  and  S_31
    5  A    between atoms: C_8  and  C_26
    6  A    between atoms: C_10  and  C_32
    7  A    between atoms: C_10  and  C_37
    8  A    between atoms: C_11  and  C_54
    9  A    between atoms: C_13  and  N_44
   10  A    between atoms: C_19  and  C_29
   11  A    between atoms: C_22  and  C_29
   12  A    between atoms: C_22  and  S_31
   13  A    between atoms: C_23  and  O_47
   14  A    between atoms: C_27  and  C_43
   15  A    between atoms: C_32  and  C_35
   16  A    between atoms: C_33  and  O_36
   17  A    between atoms: C_38  and  O_47
   18  A    between atoms: C_54  and  C_58
                            x       y       z     vdW  Elec       q    Type
                         _______ _______ _______ _____ _____    ______ ____

>  <TORSDO>
F 18

$$$$
=
 OpenBabel11042419123D

 58 65  0  0  1  0  0  0  0  0999 V2000
  195.3100  171.6650  143.7920 C   0  0  0  0  0  0  0  0  0  0  0  0
  193.1230  173.9090  143.9160 C   0  0  0  0  0  0  0  0  0  0  0  0
  192.9650  172.5870  144.1290 C   0  0  0  0  0  0  0  0  0  0  0  0
  195.6000  174.1280  143.3510 C   0  0  0  0  0  0  0  0  0  0  0  0
  193.9950  171.5600  143.9510 C   0  0  0  0  0  3  0  0  0  0  0  0
  194.3470  174.5640  143.4390 C   0  0  0  0  0  3  0  0  0  0  0  0
  196.0330  172.8570  143.7420 O   0  0  0  0  0  0  0  0  0  0  0  0
  192.1700  175.9210  147.6370 C   0  0  0  0  0  3  0  0  0  0  0  0
  191.6870  175.4780  145.3050 C   0  0  0  0  0  0  0  0  0  0  0  0
  192.5090  175.3180  146.4270 C   0  0  0  0  0  3  0  0  0  0  0  0
  189.6450  176.4400  144.3250 C   0  0  0  0  0  0  0  0  0  0  0  0
  189.2780  175.7470  141.8610 C   0  0  1  0  0  3  0  0  0  0  0  0
  187.8070  175.5740  142.1810 C   0  0  0  0  0  2  0  0  0  0  0  0
  191.0830  175.0350  143.0220 C   0  0  0  0  0  0  0  0  0  0  0  0
  190.5060  176.2720  145.4320 C   0  0  0  0  0  0  0  0  0  0  0  0
  190.0220  175.8440  143.1270 C   0  0  0  0  0  0  0  0  0  0  0  0
  191.0020  176.6800  147.7230 C   0  0  0  0  0  3  0  0  0  0  0  0
  191.0030  174.3570  141.7910 N   0  0  0  0  0  2  0  0  0  0  0  0
  191.9750  174.8280  144.0760 C   0  0  0  0  0  0  0  0  0  0  0  0
  190.2020  176.8360  146.6340 N   0  0  0  0  0  0  0  0  0  0  0  0
  188.0090  177.1970  144.5030 S   0  0  0  0  0  0  0  0  0  0  0  0
  189.8170  174.6260  141.1610 O   0  0  0  0  0  0  0  0  0  0  0  0
  187.3050  176.8660  142.8230 C   0  0  2  0  0  3  0  0  0  0  0  0
  185.7860  176.8400  142.8860 C   0  0  0  0  0  2  0  0  0  0  0  0
  185.1780  177.9690  142.0680 C   0  0  0  0  0  2  0  0  0  0  0  0
  186.0380  178.2910  140.9410 N   0  0  0  0  0  1  0  0  0  0  0  0
  196.5370  175.0480  142.8660 O   0  0  0  0  0  0  0  0  0  0  0  0
  195.8230  176.9620  141.5440 O   0  0  0  0  0  0  0  0  0  0  0  0
  196.5430  177.1830  143.7000 O   0  0  0  0  0  1  0  0  0  0  0  0
  196.3120  176.4210  142.7260 C   0  0  0  0  0  0  0  0  0  0  0  0
  191.6290  172.0400  144.5550 C   0  0  0  0  0  2  0  0  0  0  0  0
  190.9140  171.3770  143.4200 C   0  0  0  0  0  0  0  0  0  0  0  0
  191.5860  170.5240  142.6350 C   0  0  0  0  0  3  0  0  0  0  0  0
  190.1570  169.5920  138.2180 O   0  0  0  0  0  0  0  0  0  0  0  0
  190.4240  168.1660  140.0490 O   0  0  0  0  0  0  0  0  0  0  0  0
  191.0300  169.8050  141.5240 N   0  0  0  0  0  0  0  0  0  0  0  0
  190.8250  170.3910  140.3010 O   0  0  0  0  0  0  0  0  0  0  0  0
  190.4490  169.4010  139.4260 C   0  0  0  0  0  0  0  0  0  0  0  0
  190.8100  168.3590  141.4110 C   0  0  0  0  0  2  0  0  0  0  0  0
  188.4540  172.0780  142.9570 N   0  0  0  0  0  0  0  0  0  0  0  0
  189.5490  171.7650  143.1670 C   0  0  0  0  0  0  0  0  0  0  0  0
  196.2370  170.1410  143.6730 S   0  0  0  0  0  0  0  0  0  0  0  0
  197.5010  170.8810  142.5940 C   0  0  0  0  0  2  0  0  0  0  0  0
  197.6050  170.0970  141.2980 C   0  0  0  0  0  2  0  0  0  0  0  0
  196.4470  173.4290  136.8890 F   0  0  0  0  0  0  0  0  0  0  0  0
  197.2940  170.9810  140.1400 C   0  0  0  0  0  0  0  0  0  0  0  0
  197.3270  171.4130  137.7590 C   0  0  0  0  0  3  0  0  0  0  0  0
  196.3810  173.0640  139.2790 C   0  0  0  0  0  0  0  0  0  0  0  0
  196.7090  172.6500  137.9670 C   0  0  0  0  0  0  0  0  0  0  0  0
  196.6800  172.2170  140.3530 C   0  0  0  0  0  3  0  0  0  0  0  0
  197.6200  170.5800  138.8400 C   0  0  0  0  0  3  0  0  0  0  0  0
  195.7750  174.2930  139.5690 O   0  0  0  0  0  0  0  0  0  0  0  0
  194.3740  174.5280  139.5060 C   0  0  0  0  0  2  0  0  0  0  0  0
  193.6240  173.2740  139.9170 C   0  0  0  0  0  2  0  0  0  0  0  0
  192.5530  172.9330  138.8920 C   0  0  0  0  0  2  0  0  0  0  0  0
  193.1400  172.8530  137.5650 N   0  0  0  0  0  0  0  0  0  0  0  0
  193.1500  171.4280  137.2000 C   0  0  0  0  0  2  0  0  0  0  0  0
  192.1070  172.2980  136.6750 C   0  0  0  0  0  2  0  0  0  0  0  0
  1  5  2  0  0  0  0
  2 19  1  0  0  0  0
  2  3  2  0  0  0  0
  3 31  1  0  0  0  0
  4  6  2  0  0  0  0
  4  7  1  0  0  0  0
  5  3  1  0  0  0  0
  6  2  1  0  0  0  0
  7  1  1  0  0  0  0
  8 17  1  0  0  0  0
  9 15  1  0  0  0  0
  9 10  1  0  0  0  0
 10  8  2  0  0  0  0
 11 21  1  0  0  0  0
 11 15  2  0  0  0  0
 12 13  1  1  0  0  0
 12 16  1  0  0  0  0
 13 23  1  0  0  0  0
 14 16  2  0  0  0  0
 14 19  1  0  0  0  0
 15 20  1  0  0  0  0
 16 11  1  0  0  0  0
 18 14  1  0  0  0  0
 19  9  2  0  0  0  0
 20 17  2  0  0  0  0
 22 18  1  0  0  0  0
 22 12  1  0  0  0  0
 23 24  1  1  0  0  0
 23 21  1  0  0  0  0
 25 24  1  0  0  0  0
 26 25  1  0  0  0  0
 27  4  1  0  0  0  0
 28 30  2  0  0  0  0
 30 27  1  0  0  0  0
 30 29  1  0  0  0  0
 32 31  1  0  0  0  0
 33 32  2  0  0  0  0
 34 38  2  0  0  0  0
 35 39  1  0  0  0  0
 36 33  1  0  0  0  0
 37 36  1  0  0  0  0
 38 35  1  0  0  0  0
 38 37  1  0  0  0  0
 39 36  1  0  0  0  0
 40 41  3  0  0  0  0
 41 32  1  0  0  0  0
 42  1  1  0  0  0  0
 43 42  1  0  0  0  0
 44 43  1  0  0  0  0
 45 49  1  0  0  0  0
 46 50  1  0  0  0  0
 46 44  1  0  0  0  0
 47 49  2  0  0  0  0
 47 51  1  0  0  0  0
 48 52  1  0  0  0  0
 48 50  2  0  0  0  0
 49 48  1  0  0  0  0
 51 46  2  0  0  0  0
 53 52  1  0  0  0  0
 53 54  1  0  0  0  0
 55 54  1  0  0  0  0
 56 55  1  0  0  0  0
 57 56  1  0  0  0  0
 58 57  1  0  0  0  0
 58 56  1  0  0  0  0
M  END
>  <MODEL>
5

>  <REMARK>
 VINA RESULT:      -5.1      3.544      8.699
  Name = 
  18 active torsions:
  status: ('A' for Active; 'I' for Inactive)
    1  A    between atoms: C_2  and  C_26
    2  A    between atoms: C_2  and  O_36
    3  A    between atoms: N_3  and  C_8
    4  A    between atoms: C_7  and  S_31
    5  A    between atoms: C_8  and  C_26
    6  A    between atoms: C_10  and  C_32
    7  A    between atoms: C_10  and  C_37
    8  A    between atoms: C_11  and  C_54
    9  A    between atoms: C_13  and  N_44
   10  A    between atoms: C_19  and  C_29
   11  A    between atoms: C_22  and  C_29
   12  A    between atoms: C_22  and  S_31
   13  A    between atoms: C_23  and  O_47
   14  A    between atoms: C_27  and  C_43
   15  A    between atoms: C_32  and  C_35
   16  A    between atoms: C_33  and  O_36
   17  A    between atoms: C_38  and  O_47
   18  A    between atoms: C_54  and  C_58
                            x       y       z     vdW  Elec       q    Type
                         _______ _______ _______ _____ _____    ______ ____

>  <TORSDO>
F 18

$$$$
=
 OpenBabel11042419123D

 58 65  0  0  1  0  0  0  0  0999 V2000
  195.1340  172.2690  145.2590 C   0  0  0  0  0  0  0  0  0  0  0  0
  192.4160  173.7310  144.7050 C   0  0  0  0  0  0  0  0  0  0  0  0
  192.6710  172.4080  144.6490 C   0  0  0  0  0  0  0  0  0  0  0  0
  194.6730  174.7450  145.3240 C   0  0  0  0  0  0  0  0  0  0  0  0
  193.9850  171.7790  144.8070 C   0  0  0  0  0  3  0  0  0  0  0  0
  193.4110  174.7910  144.9080 C   0  0  0  0  0  3  0  0  0  0  0  0
  195.3500  173.5770  145.6920 O   0  0  0  0  0  0  0  0  0  0  0  0
  190.6170  173.9800  140.7670 C   0  0  0  0  0  3  0  0  0  0  0  0
  190.4780  174.3000  143.1650 C   0  0  0  0  0  0  0  0  0  0  0  0
  191.1750  173.8470  142.0380 C   0  0  0  0  0  3  0  0  0  0  0  0
  188.4670  175.3730  144.0910 C   0  0  0  0  0  0  0  0  0  0  0  0
  188.5840  175.7100  146.6530 C   0  0  1  0  0  3  0  0  0  0  0  0
  187.9680  177.0790  146.4510 C   0  0  0  0  0  2  0  0  0  0  0  0
  190.2780  174.7280  145.5210 C   0  0  0  0  0  0  0  0  0  0  0  0
  189.1900  174.8900  142.9790 C   0  0  0  0  0  0  0  0  0  0  0  0
  189.0410  175.2070  145.3470 C   0  0  0  0  0  0  0  0  0  0  0  0
  189.3620  174.5720  140.6270 C   0  0  0  0  0  3  0  0  0  0  0  0
  190.6700  174.9840  146.8480 N   0  0  0  0  0  2  0  0  0  0  0  0
  191.0460  174.2320  144.4640 C   0  0  0  0  0  0  0  0  0  0  0  0
  188.6830  175.0130  141.7200 N   0  0  0  0  0  0  0  0  0  0  0  0
  186.9700  176.3730  143.8880 S   0  0  0  0  0  0  0  0  0  0  0  0
  189.7370  175.7520  147.4940 O   0  0  0  0  0  0  0  0  0  0  0  0
  186.6870  176.9080  145.6370 C   0  0  2  0  0  3  0  0  0  0  0  0
  185.8940  178.2050  145.6670 C   0  0  0  0  0  2  0  0  0  0  0  0
  185.8630  178.8690  144.3000 C   0  0  0  0  0  2  0  0  0  0  0  0
  184.6040  179.5710  144.1120 N   0  0  0  0  0  1  0  0  0  0  0  0
  195.3300  175.9760  145.4280 O   0  0  0  0  0  0  0  0  0  0  0  0
  195.0690  178.3950  145.4310 O   0  0  0  0  0  0  0  0  0  0  0  0
  193.9480  177.0570  146.9030 O   0  0  0  0  0  1  0  0  0  0  0  0
  194.7640  177.1440  145.9500 C   0  0  0  0  0  0  0  0  0  0  0  0
  191.5610  171.4310  144.3660 C   0  0  0  0  0  2  0  0  0  0  0  0
  191.9420  170.4530  143.3000 C   0  0  0  0  0  0  0  0  0  0  0  0
  191.4930  170.6420  142.0510 C   0  0  0  0  0  3  0  0  0  0  0  0
  194.0140  168.1730  138.8940 O   0  0  0  0  0  0  0  0  0  0  0  0
  191.7170  168.1700  139.3240 O   0  0  0  0  0  0  0  0  0  0  0  0
  191.7870  169.7990  140.9260 N   0  0  0  0  0  0  0  0  0  0  0  0
  193.0700  169.5740  140.4950 O   0  0  0  0  0  0  0  0  0  0  0  0
  193.0150  168.6050  139.5250 C   0  0  0  0  0  0  0  0  0  0  0  0
  190.8730  168.8970  140.2190 C   0  0  0  0  0  2  0  0  0  0  0  0
  193.3090  168.3600  144.0110 N   0  0  0  0  0  0  0  0  0  0  0  0
  192.7020  169.2920  143.6910 C   0  0  0  0  0  0  0  0  0  0  0  0
  196.5150  171.1370  145.3580 S   0  0  0  0  0  0  0  0  0  0  0  0
  197.6050  172.2300  144.3950 C   0  0  0  0  0  2  0  0  0  0  0  0
  197.1790  172.2390  142.9380 C   0  0  0  0  0  2  0  0  0  0  0  0
  196.2890  177.5510  141.2440 F   0  0  0  0  0  0  0  0  0  0  0  0
  196.9400  173.6380  142.4840 C   0  0  0  0  0  0  0  0  0  0  0  0
  197.3880  176.0100  142.6620 C   0  0  0  0  0  3  0  0  0  0  0  0
  195.7930  175.1950  141.0110 C   0  0  0  0  0  0  0  0  0  0  0  0
  196.4840  176.2650  141.6260 C   0  0  0  0  0  0  0  0  0  0  0  0
  196.0330  173.8890  141.4520 C   0  0  0  0  0  3  0  0  0  0  0  0
  197.6170  174.7010  143.0910 C   0  0  0  0  0  3  0  0  0  0  0  0
  194.8630  175.3720  139.9790 O   0  0  0  0  0  0  0  0  0  0  0  0
  194.7950  174.5600  138.8150 C   0  0  0  0  0  2  0  0  0  0  0  0
  193.3830  174.5760  138.2580 C   0  0  0  0  0  2  0  0  0  0  0  0
  193.3840  175.0540  136.8140 C   0  0  0  0  0  2  0  0  0  0  0  0
  194.6900  175.5900  136.4670 N   0  0  0  0  0  0  0  0  0  0  0  0
  195.1880  174.7800  135.3450 C   0  0  0  0  0  2  0  0  0  0  0  0
  194.5940  176.0840  135.0830 C   0  0  0  0  0  2  0  0  0  0  0  0
  1 42  1  0  0  0  0
  1  7  1  0  0  0  0
  2  6  1  0  0  0  0
  3  2  2  0  0  0  0
  3  5  1  0  0  0  0
  4 27  1  0  0  0  0
  4  7  1  0  0  0  0
  5  1  2  0  0  0  0
  6  4  2  0  0  0  0
  8 10  1  0  0  0  0
  9 19  1  0  0  0  0
 10  9  2  0  0  0  0
 11 16  2  0  0  0  0
 12 13  1  6  0  0  0
 12 22  1  0  0  0  0
 14 18  1  0  0  0  0
 15  9  1  0  0  0  0
 15 11  1  0  0  0  0
 16 14  1  0  0  0  0
 16 12  1  0  0  0  0
 17  8  2  0  0  0  0
 17 20  1  0  0  0  0
 18 22  1  0  0  0  0
 19  2  1  0  0  0  0
 19 14  2  0  0  0  0
 20 15  2  0  0  0  0
 21 11  1  0  0  0  0
 21 23  1  0  0  0  0
 23 24  1  6  0  0  0
 23 13  1  0  0  0  0
 25 24  1  0  0  0  0
 26 25  1  0  0  0  0
 27 30  1  0  0  0  0
 28 30  2  0  0  0  0
 30 29  1  0  0  0  0
 31  3  1  0  0  0  0
 32 41  1  0  0  0  0
 32 31  1  0  0  0  0
 33 32  2  0  0  0  0
 34 38  2  0  0  0  0
 35 38  1  0  0  0  0
 35 39  1  0  0  0  0
 36 33  1  0  0  0  0
 37 36  1  0  0  0  0
 38 37  1  0  0  0  0
 39 36  1  0  0  0  0
 41 40  3  0  0  0  0
 43 42  1  0  0  0  0
 44 43  1  0  0  0  0
 45 49  1  0  0  0  0
 46 44  1  0  0  0  0
 46 51  1  0  0  0  0
 47 51  2  0  0  0  0
 48 50  1  0  0  0  0
 48 49  2  0  0  0  0
 49 47  1  0  0  0  0
 50 46  2  0  0  0  0
 52 48  1  0  0  0  0
 53 52  1  0  0  0  0
 54 53  1  0  0  0  0
 55 54  1  0  0  0  0
 56 55  1  0  0  0  0
 57 56  1  0  0  0  0
 58 57  1  0  0  0  0
 58 56  1  0  0  0  0
M  END
>  <MODEL>
6

>  <REMARK>
 VINA RESULT:      -5.1      3.428      8.551
  Name = 
  18 active torsions:
  status: ('A' for Active; 'I' for Inactive)
    1  A    between atoms: C_2  and  C_26
    2  A    between atoms: C_2  and  O_36
    3  A    between atoms: N_3  and  C_8
    4  A    between atoms: C_7  and  S_31
    5  A    between atoms: C_8  and  C_26
    6  A    between atoms: C_10  and  C_32
    7  A    between atoms: C_10  and  C_37
    8  A    between atoms: C_11  and  C_54
    9  A    between atoms: C_13  and  N_44
   10  A    between atoms: C_19  and  C_29
   11  A    between atoms: C_22  and  C_29
   12  A    between atoms: C_22  and  S_31
   13  A    between atoms: C_23  and  O_47
   14  A    between atoms: C_27  and  C_43
   15  A    between atoms: C_32  and  C_35
   16  A    between atoms: C_33  and  O_36
   17  A    between atoms: C_38  and  O_47
   18  A    between atoms: C_54  and  C_58
                            x       y       z     vdW  Elec       q    Type
                         _______ _______ _______ _____ _____    ______ ____

>  <TORSDO>
F 18

$$$$
=
 OpenBabel11042419123D

 58 65  0  0  1  0  0  0  0  0999 V2000
  191.2150  170.0460  140.7730 C   0  0  0  0  0  0  0  0  0  0  0  0
  192.0560  172.2850  142.8000 C   0  0  0  0  0  0  0  0  0  0  0  0
  191.5590  172.4390  141.5560 C   0  0  0  0  0  0  0  0  0  0  0  0
  192.1830  169.7530  143.0800 C   0  0  0  0  0  0  0  0  0  0  0  0
  191.2840  171.3620  140.6020 C   0  0  0  0  0  3  0  0  0  0  0  0
  192.4410  171.0120  143.4210 C   0  0  0  0  0  3  0  0  0  0  0  0
  191.4190  169.3670  141.9740 O   0  0  0  0  0  0  0  0  0  0  0  0
  195.8650  174.3580  142.7810 C   0  0  0  0  0  3  0  0  0  0  0  0
  193.5980  174.1350  143.6070 C   0  0  0  0  0  0  0  0  0  0  0  0
  194.6230  173.7250  142.7450 C   0  0  0  0  0  3  0  0  0  0  0  0
  192.8510  175.6380  145.4060 C   0  0  0  0  0  0  0  0  0  0  0  0
  190.4400  175.1490  146.2030 C   0  0  1  0  0  3  0  0  0  0  0  0
  190.9190  175.3640  147.6240 C   0  0  0  0  0  2  0  0  0  0  0  0
  191.3940  173.9430  144.5440 C   0  0  0  0  0  0  0  0  0  0  0  0
  193.8570  175.2110  144.5110 C   0  0  0  0  0  0  0  0  0  0  0  0
  191.6170  175.0020  145.3310 C   0  0  0  0  0  0  0  0  0  0  0  0
  196.0810  175.3970  143.6860 C   0  0  0  0  0  3  0  0  0  0  0  0
  190.1780  173.3510  144.9320 N   0  0  0  0  0  2  0  0  0  0  0  0
  192.3440  173.4710  143.6350 C   0  0  0  0  0  0  0  0  0  0  0  0
  195.0860  175.7960  144.5240 N   0  0  0  0  0  0  0  0  0  0  0  0
  193.2100  176.7980  146.7510 S   0  0  0  0  0  0  0  0  0  0  0  0
  189.6820  173.9480  146.0610 O   0  0  0  0  0  0  0  0  0  0  0  0
  191.6160  176.7210  147.6900 C   0  0  2  0  0  3  0  0  0  0  0  0
  191.8450  177.1000  149.1450 C   0  0  0  0  0  2  0  0  0  0  0  0
  190.9890  178.2890  149.5500 C   0  0  0  0  0  2  0  0  0  0  0  0
  190.0590  178.6230  148.4830 N   0  0  0  0  0  1  0  0  0  0  0  0
  192.6940  168.7690  143.9330 O   0  0  0  0  0  0  0  0  0  0  0  0
  194.2590  169.0370  145.7780 O   0  0  0  0  0  1  0  0  0  0  0  0
  194.9500  168.4500  143.6820 O   0  0  0  0  0  0  0  0  0  0  0  0
  193.9960  168.7500  144.4440 C   0  0  0  0  0  0  0  0  0  0  0  0
  191.2700  173.8150  141.0170 C   0  0  0  0  0  2  0  0  0  0  0  0
  189.8790  174.2570  141.3440 C   0  0  0  0  0  0  0  0  0  0  0  0
  189.6980  175.4250  141.9740 C   0  0  0  0  0  3  0  0  0  0  0  0
  186.0110  176.7000  144.6580 O   0  0  0  0  0  0  0  0  0  0  0  0
  186.5650  177.3070  142.4720 O   0  0  0  0  0  0  0  0  0  0  0  0
  188.4260  175.9850  142.3360 N   0  0  0  0  0  0  0  0  0  0  0  0
  187.8880  175.8320  143.5890 O   0  0  0  0  0  0  0  0  0  0  0  0
  186.7650  176.6190  143.6550 C   0  0  0  0  0  0  0  0  0  0  0  0
  187.6230  176.9500  141.5790 C   0  0  0  0  0  2  0  0  0  0  0  0
  187.9240  172.6310  140.8060 N   0  0  0  0  0  0  0  0  0  0  0  0
  188.7970  173.3520  141.0450 C   0  0  0  0  0  0  0  0  0  0  0  0
  190.7820  169.0640  139.3420 S   0  0  0  0  0  0  0  0  0  0  0  0
  192.2110  169.6550  138.3830 C   0  0  0  0  0  2  0  0  0  0  0  0
  193.5020  169.1930  139.0340 C   0  0  0  0  0  2  0  0  0  0  0  0
  197.0170  173.5550  139.7390 F   0  0  0  0  0  0  0  0  0  0  0  0
  194.4270  170.3470  139.2120 C   0  0  0  0  0  0  0  0  0  0  0  0
  196.3170  171.3720  140.3220 C   0  0  0  0  0  3  0  0  0  0  0  0
  195.1200  172.5920  138.5880 C   0  0  0  0  0  0  0  0  0  0  0  0
  196.1600  172.5230  139.5430 C   0  0  0  0  0  0  0  0  0  0  0  0
  194.2630  171.4950  138.4350 C   0  0  0  0  0  3  0  0  0  0  0  0
  195.4540  170.2870  140.1600 C   0  0  0  0  0  3  0  0  0  0  0  0
  194.8900  173.7140  137.7810 O   0  0  0  0  0  0  0  0  0  0  0  0
  193.8560  173.8020  136.8090 C   0  0  0  0  0  2  0  0  0  0  0  0
  192.6140  174.4120  137.4340 C   0  0  0  0  0  2  0  0  0  0  0  0
  191.3590  173.8470  136.7870 C   0  0  0  0  0  2  0  0  0  0  0  0
  190.2720  173.8130  137.7510 N   0  0  0  0  0  0  0  0  0  0  0  0
  189.0300  173.9930  136.9840 C   0  0  0  0  0  2  0  0  0  0  0  0
  189.4300  172.6560  137.4030 C   0  0  0  0  0  2  0  0  0  0  0  0
  1  7  1  0  0  0  0
  2  6  1  0  0  0  0
  2 19  1  0  0  0  0
  3  2  2  0  0  0  0
  4  6  2  0  0  0  0
  4 27  1  0  0  0  0
  5  1  2  0  0  0  0
  5  3  1  0  0  0  0
  7  4  1  0  0  0  0
  8 17  1  0  0  0  0
  9 19  2  0  0  0  0
  9 15  1  0  0  0  0
 10  8  2  0  0  0  0
 10  9  1  0  0  0  0
 11 21  1  0  0  0  0
 12 13  1  1  0  0  0
 13 23  1  0  0  0  0
 14 18  1  0  0  0  0
 14 16  2  0  0  0  0
 15 20  1  0  0  0  0
 15 11  2  0  0  0  0
 16 11  1  0  0  0  0
 16 12  1  0  0  0  0
 17 20  2  0  0  0  0
 18 22  1  0  0  0  0
 19 14  1  0  0  0  0
 21 23  1  0  0  0  0
 22 12  1  0  0  0  0
 23 24  1  1  0  0  0
 24 25  1  0  0  0  0
 26 25  1  0  0  0  0
 27 30  1  0  0  0  0
 29 30  2  0  0  0  0
 30 28  1  0  0  0  0
 31 32  1  0  0  0  0
 31  3  1  0  0  0  0
 32 33  2  0  0  0  0
 33 36  1  0  0  0  0
 35 38  1  0  0  0  0
 36 37  1  0  0  0  0
 37 38  1  0  0  0  0
 38 34  2  0  0  0  0
 39 36  1  0  0  0  0
 39 35  1  0  0  0  0
 40 41  3  0  0  0  0
 41 32  1  0  0  0  0
 42  1  1  0  0  0  0
 43 44  1  0  0  0  0
 43 42  1  0  0  0  0
 44 46  1  0  0  0  0
 46 51  1  0  0  0  0
 48 49  2  0  0  0  0
 49 45  1  0  0  0  0
 49 47  1  0  0  0  0
 50 48  1  0  0  0  0
 50 46  2  0  0  0  0
 51 47  2  0  0  0  0
 52 48  1  0  0  0  0
 53 54  1  0  0  0  0
 53 52  1  0  0  0  0
 55 54  1  0  0  0  0
 55 56  1  0  0  0  0
 57 58  1  0  0  0  0
 57 56  1  0  0  0  0
 58 56  1  0  0  0  0
M  END
>  <MODEL>
7

>  <REMARK>
 VINA RESULT:      -5.0      3.736      8.738
  Name = 
  18 active torsions:
  status: ('A' for Active; 'I' for Inactive)
    1  A    between atoms: C_2  and  C_26
    2  A    between atoms: C_2  and  O_36
    3  A    between atoms: N_3  and  C_8
    4  A    between atoms: C_7  and  S_31
    5  A    between atoms: C_8  and  C_26
    6  A    between atoms: C_10  and  C_32
    7  A    between atoms: C_10  and  C_37
    8  A    between atoms: C_11  and  C_54
    9  A    between atoms: C_13  and  N_44
   10  A    between atoms: C_19  and  C_29
   11  A    between atoms: C_22  and  C_29
   12  A    between atoms: C_22  and  S_31
   13  A    between atoms: C_23  and  O_47
   14  A    between atoms: C_27  and  C_43
   15  A    between atoms: C_32  and  C_35
   16  A    between atoms: C_33  and  O_36
   17  A    between atoms: C_38  and  O_47
   18  A    between atoms: C_54  and  C_58
                            x       y       z     vdW  Elec       q    Type
                         _______ _______ _______ _____ _____    ______ ____

>  <TORSDO>
F 18

$$$$
=
 OpenBabel11042419123D

 58 65  0  0  1  0  0  0  0  0999 V2000
  193.0910  174.3260  140.5920 C   0  0  0  0  0  0  0  0  0  0  0  0
  190.7520  175.3700  142.4000 C   0  0  0  0  0  0  0  0  0  0  0  0
  192.0560  175.7070  142.4570 C   0  0  0  0  0  0  0  0  0  0  0  0
  190.6630  173.6600  140.5100 C   0  0  0  0  0  0  0  0  0  0  0  0
  193.1330  175.1100  141.6640 C   0  0  0  0  0  3  0  0  0  0  0  0
  190.1710  174.3210  141.5530 C   0  0  0  0  0  3  0  0  0  0  0  0
  191.9350  173.8630  139.9640 O   0  0  0  0  0  0  0  0  0  0  0  0
  190.0860  174.0980  146.4920 C   0  0  0  0  0  3  0  0  0  0  0  0
  189.5830  175.5830  144.6450 C   0  0  0  0  0  0  0  0  0  0  0  0
  190.3410  174.5410  145.1950 C   0  0  0  0  0  3  0  0  0  0  0  0
  187.7610  177.2150  144.9140 C   0  0  0  0  0  0  0  0  0  0  0  0
  187.3300  178.6160  142.7830 C   0  0  1  0  0  3  0  0  0  0  0  0
  185.8450  178.4610  143.0420 C   0  0  0  0  0  2  0  0  0  0  0  0
  188.9590  177.0480  142.8450 C   0  0  0  0  0  0  0  0  0  0  0  0
  188.5550  176.1740  145.4430 C   0  0  0  0  0  0  0  0  0  0  0  0
  188.0530  177.6500  143.6260 C   0  0  0  0  0  0  0  0  0  0  0  0
  189.0670  174.6940  147.2340 C   0  0  0  0  0  3  0  0  0  0  0  0
  188.7880  177.5130  141.5280 N   0  0  0  0  0  2  0  0  0  0  0  0
  189.7790  176.0160  143.3070 C   0  0  0  0  0  0  0  0  0  0  0  0
  188.3290  175.7060  146.7020 N   0  0  0  0  0  0  0  0  0  0  0  0
  186.2780  177.8050  145.7700 S   0  0  0  0  0  0  0  0  0  0  0  0
  187.6800  178.3140  141.4330 O   0  0  0  0  0  0  0  0  0  0  0  0
  185.5630  178.9140  144.4730 C   0  0  2  0  0  3  0  0  0  0  0  0
  184.0610  179.0540  144.6700 C   0  0  0  0  0  2  0  0  0  0  0  0
  183.3090  178.8450  143.3660 C   0  0  0  0  0  2  0  0  0  0  0  0
  181.8870  179.0770  143.5650 N   0  0  0  0  0  1  0  0  0  0  0  0
  189.8060  172.7300  139.9130 O   0  0  0  0  0  0  0  0  0  0  0  0
  188.5390  174.0150  138.2800 O   0  0  0  0  0  0  0  0  0  0  0  0
  187.5560  172.4250  139.5930 O   0  0  0  0  0  1  0  0  0  0  0  0
  188.6030  173.0450  139.2730 C   0  0  0  0  0  0  0  0  0  0  0  0
  192.5270  176.7600  143.4250 C   0  0  0  0  0  2  0  0  0  0  0  0
  193.7140  176.2990  144.2110 C   0  0  0  0  0  0  0  0  0  0  0  0
  194.2340  175.0900  143.9580 C   0  0  0  0  0  3  0  0  0  0  0  0
  196.8450  172.0630  146.4950 O   0  0  0  0  0  0  0  0  0  0  0  0
  197.4970  173.8680  145.1640 O   0  0  0  0  0  0  0  0  0  0  0  0
  195.3760  174.5220  144.6180 N   0  0  0  0  0  0  0  0  0  0  0  0
  195.2830  173.4110  145.4160 O   0  0  0  0  0  0  0  0  0  0  0  0
  196.5610  173.0340  145.7490 C   0  0  0  0  0  0  0  0  0  0  0  0
  196.7890  174.8460  144.4000 C   0  0  0  0  0  2  0  0  0  0  0  0
  194.5690  177.8230  146.1350 N   0  0  0  0  0  0  0  0  0  0  0  0
  194.1860  177.1470  145.2770 C   0  0  0  0  0  0  0  0  0  0  0  0
  194.6580  173.8570  139.8690 S   0  0  0  0  0  0  0  0  0  0  0  0
  194.0190  173.9770  138.1690 C   0  0  0  0  0  2  0  0  0  0  0  0
  194.2070  172.6540  137.4470 C   0  0  0  0  0  2  0  0  0  0  0  0
  189.2380  170.0290  136.9090 F   0  0  0  0  0  0  0  0  0  0  0  0
  192.8990  171.9550  137.3110 C   0  0  0  0  0  0  0  0  0  0  0  0
  190.7940  171.6440  136.1580 C   0  0  0  0  0  3  0  0  0  0  0  0
  191.3220  170.2860  138.1090 C   0  0  0  0  0  0  0  0  0  0  0  0
  190.4400  170.6380  137.0620 C   0  0  0  0  0  0  0  0  0  0  0  0
  192.5470  170.9550  138.2190 C   0  0  0  0  0  3  0  0  0  0  0  0
  192.0200  172.3020  136.2800 C   0  0  0  0  0  3  0  0  0  0  0  0
  191.0310  169.3010  139.0620 O   0  0  0  0  0  0  0  0  0  0  0  0
  191.7330  169.1430  140.2880 C   0  0  0  0  0  2  0  0  0  0  0  0
  190.8600  169.6040  141.4420 C   0  0  0  0  0  2  0  0  0  0  0  0
  191.7090  169.8850  142.6730 C   0  0  0  0  0  2  0  0  0  0  0  0
  191.6850  171.3050  142.9820 N   0  0  0  0  0  0  0  0  0  0  0  0
  192.3850  171.4630  144.2660 C   0  0  0  0  0  2  0  0  0  0  0  0
  193.0870  171.7550  143.0240 C   0  0  0  0  0  2  0  0  0  0  0  0
  1  5  2  0  0  0  0
  2  3  2  0  0  0  0
  2 19  1  0  0  0  0
  3 31  1  0  0  0  0
  4  6  2  0  0  0  0
  5  3  1  0  0  0  0
  6  2  1  0  0  0  0
  7  4  1  0  0  0  0
  7  1  1  0  0  0  0
  8 17  1  0  0  0  0
  9 10  1  0  0  0  0
  9 15  1  0  0  0  0
 10  8  2  0  0  0  0
 11 15  2  0  0  0  0
 11 21  1  0  0  0  0
 12 13  1  6  0  0  0
 12 16  1  0  0  0  0
 13 23  1  0  0  0  0
 14 19  1  0  0  0  0
 14 16  2  0  0  0  0
 15 20  1  0  0  0  0
 16 11  1  0  0  0  0
 18 14  1  0  0  0  0
 19  9  2  0  0  0  0
 20 17  2  0  0  0  0
 22 18  1  0  0  0  0
 22 12  1  0  0  0  0
 23 24  1  1  0  0  0
 23 21  1  0  0  0  0
 25 26  1  0  0  0  0
 25 24  1  0  0  0  0
 27  4  1  0  0  0  0
 28 30  2  0  0  0  0
 30 29  1  0  0  0  0
 30 27  1  0  0  0  0
 31 32  1  0  0  0  0
 32 41  1  0  0  0  0
 33 32  2  0  0  0  0
 33 36  1  0  0  0  0
 35 38  1  0  0  0  0
 36 37  1  0  0  0  0
 37 38  1  0  0  0  0
 38 34  2  0  0  0  0
 39 36  1  0  0  0  0
 39 35  1  0  0  0  0
 41 40  3  0  0  0  0
 42  1  1  0  0  0  0
 43 42  1  0  0  0  0
 44 43  1  0  0  0  0
 45 49  1  0  0  0  0
 46 44  1  0  0  0  0
 46 50  1  0  0  0  0
 47 51  1  0  0  0  0
 47 49  2  0  0  0  0
 48 50  2  0  0  0  0
 48 52  1  0  0  0  0
 49 48  1  0  0  0  0
 51 46  2  0  0  0  0
 52 53  1  0  0  0  0
 53 54  1  0  0  0  0
 54 55  1  0  0  0  0
 55 56  1  0  0  0  0
 56 58  1  0  0  0  0
 56 57  1  0  0  0  0
 58 57  1  0  0  0  0
M  END
>  <MODEL>
8

>  <REMARK>
 VINA RESULT:      -5.0      3.329      9.951
  Name = 
  18 active torsions:
  status: ('A' for Active; 'I' for Inactive)
    1  A    between atoms: C_2  and  C_26
    2  A    between atoms: C_2  and  O_36
    3  A    between atoms: N_3  and  C_8
    4  A    between atoms: C_7  and  S_31
    5  A    between atoms: C_8  and  C_26
    6  A    between atoms: C_10  and  C_32
    7  A    between atoms: C_10  and  C_37
    8  A    between atoms: C_11  and  C_54
    9  A    between atoms: C_13  and  N_44
   10  A    between atoms: C_19  and  C_29
   11  A    between atoms: C_22  and  C_29
   12  A    between atoms: C_22  and  S_31
   13  A    between atoms: C_23  and  O_47
   14  A    between atoms: C_27  and  C_43
   15  A    between atoms: C_32  and  C_35
   16  A    between atoms: C_33  and  O_36
   17  A    between atoms: C_38  and  O_47
   18  A    between atoms: C_54  and  C_58
                            x       y       z     vdW  Elec       q    Type
                         _______ _______ _______ _____ _____    ______ ____

>  <TORSDO>
F 18

$$$$
=
 OpenBabel11042419123D

 58 65  0  0  1  0  0  0  0  0999 V2000
  190.6980  170.5830  140.3100 C   0  0  0  0  0  0  0  0  0  0  0  0
  191.6450  172.7070  142.4140 C   0  0  0  0  0  0  0  0  0  0  0  0
  190.9790  172.9230  141.2610 C   0  0  0  0  0  0  0  0  0  0  0  0
  191.9800  170.1790  142.4400 C   0  0  0  0  0  0  0  0  0  0  0  0
  190.6550  171.9100  140.2540 C   0  0  0  0  0  3  0  0  0  0  0  0
  192.1940  171.4210  142.8620 C   0  0  0  0  0  3  0  0  0  0  0  0
  191.1040  169.8260  141.4080 O   0  0  0  0  0  0  0  0  0  0  0  0
  195.3200  174.9970  142.1830 C   0  0  0  0  0  3  0  0  0  0  0  0
  193.1670  174.5760  143.2140 C   0  0  0  0  0  0  0  0  0  0  0  0
  194.1150  174.2960  142.2200 C   0  0  0  0  0  3  0  0  0  0  0  0
  192.5400  175.8860  145.1990 C   0  0  0  0  0  0  0  0  0  0  0  0
  190.2550  175.1930  146.1920 C   0  0  1  0  0  3  0  0  0  0  0  0
  190.8700  175.3240  147.5700 C   0  0  0  0  0  2  0  0  0  0  0  0
  191.0880  174.1800  144.3500 C   0  0  0  0  0  0  0  0  0  0  0  0
  193.4650  175.5910  144.1740 C   0  0  0  0  0  0  0  0  0  0  0  0
  191.3390  175.1860  145.1960 C   0  0  0  0  0  0  0  0  0  0  0  0
  195.5770  175.9730  143.1470 C   0  0  0  0  0  3  0  0  0  0  0  0
  189.9510  173.4880  144.8070 N   0  0  0  0  0  2  0  0  0  0  0  0
  191.9580  173.8380  143.3130 C   0  0  0  0  0  0  0  0  0  0  0  0
  194.6580  176.2450  144.1120 N   0  0  0  0  0  0  0  0  0  0  0  0
  192.9790  176.9560  146.5940 S   0  0  0  0  0  0  0  0  0  0  0  0
  189.5480  173.9640  146.0280 O   0  0  0  0  0  0  0  0  0  0  0  0
  191.5000  176.7110  147.6800 C   0  0  2  0  0  3  0  0  0  0  0  0
  191.8630  176.9870  149.1310 C   0  0  0  0  0  2  0  0  0  0  0  0
  191.2340  178.2810  149.6230 C   0  0  0  0  0  2  0  0  0  0  0  0
  190.1430  178.6730  148.7450 N   0  0  0  0  0  1  0  0  0  0  0  0
  192.6650  169.1710  143.1280 O   0  0  0  0  0  0  0  0  0  0  0  0
  194.6570  168.7000  144.4430 O   0  0  0  0  0  0  0  0  0  0  0  0
  193.0730  170.1900  145.1400 O   0  0  0  0  0  1  0  0  0  0  0  0
  193.4540  169.3710  144.2650 C   0  0  0  0  0  0  0  0  0  0  0  0
  190.5290  174.3110  140.8930 C   0  0  0  0  0  2  0  0  0  0  0  0
  189.2400  174.6720  141.5620 C   0  0  0  0  0  0  0  0  0  0  0  0
  189.0710  175.9190  142.0220 C   0  0  0  0  0  3  0  0  0  0  0  0
  184.6690  177.5790  142.5560 O   0  0  0  0  0  0  0  0  0  0  0  0
  186.1820  176.7810  144.1460 O   0  0  0  0  0  0  0  0  0  0  0  0
  187.8880  176.4130  142.6680 N   0  0  0  0  0  0  0  0  0  0  0  0
  186.8110  176.8860  141.9630 O   0  0  0  0  0  0  0  0  0  0  0  0
  185.7980  177.1160  142.8600 C   0  0  0  0  0  0  0  0  0  0  0  0
  187.5270  176.3000  144.0850 C   0  0  0  0  0  2  0  0  0  0  0  0
  187.4960  172.7800  141.9300 N   0  0  0  0  0  0  0  0  0  0  0  0
  188.2700  173.6250  141.7640 C   0  0  0  0  0  0  0  0  0  0  0  0
  190.1480  169.6930  138.8600 S   0  0  0  0  0  0  0  0  0  0  0  0
  191.4950  170.3470  137.8270 C   0  0  0  0  0  2  0  0  0  0  0  0
  192.8280  169.7900  138.2940 C   0  0  0  0  0  2  0  0  0  0  0  0
  196.4600  174.0150  139.2090 F   0  0  0  0  0  0  0  0  0  0  0  0
  193.7880  170.9010  138.5440 C   0  0  0  0  0  0  0  0  0  0  0  0
  194.7120  173.0550  137.9380 C   0  0  0  0  0  3  0  0  0  0  0  0
  195.5840  171.8600  139.8720 C   0  0  0  0  0  0  0  0  0  0  0  0
  195.5970  172.9860  139.0180 C   0  0  0  0  0  0  0  0  0  0  0  0
  194.6740  170.8270  139.6210 C   0  0  0  0  0  3  0  0  0  0  0  0
  193.8090  172.0160  137.6990 C   0  0  0  0  0  3  0  0  0  0  0  0
  196.4490  171.7120  140.9640 O   0  0  0  0  0  0  0  0  0  0  0  0
  196.0820  171.1130  142.2000 C   0  0  0  0  0  2  0  0  0  0  0  0
  197.2460  171.1890  143.1730 C   0  0  0  0  0  2  0  0  0  0  0  0
  197.2490  172.5270  143.8960 C   0  0  0  0  0  2  0  0  0  0  0  0
  196.9710  172.3310  145.3100 N   0  0  0  0  0  0  0  0  0  0  0  0
  196.8190  173.6730  145.8930 C   0  0  0  0  0  2  0  0  0  0  0  0
  195.6340  172.8930  145.5630 C   0  0  0  0  0  2  0  0  0  0  0  0
  1  7  1  0  0  0  0
  2  6  1  0  0  0  0
  2 19  1  0  0  0  0
  3  2  2  0  0  0  0
  4  6  2  0  0  0  0
  4 27  1  0  0  0  0
  5  1  2  0  0  0  0
  5  3  1  0  0  0  0
  7  4  1  0  0  0  0
  8 10  2  0  0  0  0
  8 17  1  0  0  0  0
  9 19  2  0  0  0  0
  9 15  1  0  0  0  0
 10  9  1  0  0  0  0
 11 21  1  0  0  0  0
 12 13  1  1  0  0  0
 13 23  1  0  0  0  0
 14 18  1  0  0  0  0
 14 16  2  0  0  0  0
 15 11  2  0  0  0  0
 16 11  1  0  0  0  0
 16 12  1  0  0  0  0
 17 20  2  0  0  0  0
 18 22  1  0  0  0  0
 19 14  1  0  0  0  0
 20 15  1  0  0  0  0
 21 23  1  0  0  0  0
 22 12  1  0  0  0  0
 23 24  1  1  0  0  0
 24 25  1  0  0  0  0
 26 25  1  0  0  0  0
 27 30  1  0  0  0  0
 30 28  2  0  0  0  0
 30 29  1  0  0  0  0
 31  3  1  0  0  0  0
 31 32  1  0  0  0  0
 32 41  1  0  0  0  0
 32 33  2  0  0  0  0
 33 36  1  0  0  0  0
 34 38  2  0  0  0  0
 36 39  1  0  0  0  0
 37 36  1  0  0  0  0
 37 38  1  0  0  0  0
 38 35  1  0  0  0  0
 39 35  1  0  0  0  0
 41 40  3  0  0  0  0
 42  1  1  0  0  0  0
 43 44  1  0  0  0  0
 43 42  1  0  0  0  0
 44 46  1  0  0  0  0
 46 50  1  0  0  0  0
 47 49  2  0  0  0  0
 48 52  1  0  0  0  0
 49 45  1  0  0  0  0
 49 48  1  0  0  0  0
 50 48  2  0  0  0  0
 51 47  1  0  0  0  0
 51 46  2  0  0  0  0
 52 53  1  0  0  0  0
 53 54  1  0  0  0  0
 54 55  1  0  0  0  0
 55 56  1  0  0  0  0
 56 58  1  0  0  0  0
 56 57  1  0  0  0  0
 58 57  1  0  0  0  0
M  END
>  <MODEL>
9

>  <REMARK>
 VINA RESULT:      -5.0      3.827      9.327
  Name = 
  18 active torsions:
  status: ('A' for Active; 'I' for Inactive)
    1  A    between atoms: C_2  and  C_26
    2  A    between atoms: C_2  and  O_36
    3  A    between atoms: N_3  and  C_8
    4  A    between atoms: C_7  and  S_31
    5  A    between atoms: C_8  and  C_26
    6  A    between atoms: C_10  and  C_32
    7  A    between atoms: C_10  and  C_37
    8  A    between atoms: C_11  and  C_54
    9  A    between atoms: C_13  and  N_44
   10  A    between atoms: C_19  and  C_29
   11  A    between atoms: C_22  and  C_29
   12  A    between atoms: C_22  and  S_31
   13  A    between atoms: C_23  and  O_47
   14  A    between atoms: C_27  and  C_43
   15  A    between atoms: C_32  and  C_35
   16  A    between atoms: C_33  and  O_36
   17  A    between atoms: C_38  and  O_47
   18  A    between atoms: C_54  and  C_58
                            x       y       z     vdW  Elec       q    Type
                         _______ _______ _______ _____ _____    ______ ____

>  <TORSDO>
F 18

$$$$
