=
 OpenBabel11042417163D

 31 36  0  0  1  0  0  0  0  0999 V2000
  188.4450  176.8910  142.1850 N   0  0  0  0  0  0  0  0  0  0  0  0
  189.2920  175.9230  142.2590 C   0  0  0  0  0  3  0  0  0  0  0  0
  185.7290  178.3610  145.2230 C   0  0  0  0  0  0  0  0  0  0  0  0
  186.4250  177.4880  144.4420 C   0  0  0  0  0  0  0  0  0  0  0  0
  186.9510  177.0270  146.7140 C   0  0  1  0  0  3  0  0  0  0  0  0
  183.9680  178.3490  140.5940 C   0  0  0  0  0  1  0  0  0  0  0  0
  186.4380  177.1900  140.4150 S   0  0  0  0  0  0  0  0  0  0  0  0
  187.2090  176.5470  145.2690 C   0  0  0  0  0  2  0  0  0  0  0  0
  185.9730  178.1620  146.6690 C   0  0  2  0  0  3  0  0  0  0  0  0
  185.5910  176.8580  147.0460 O   0  0  0  0  0  0  0  0  0  0  0  0
  184.9380  179.3160  144.6670 N   0  0  0  0  0  0  0  0  0  0  0  0
  184.8200  179.3980  143.3340 N   0  0  0  0  0  0  0  0  0  0  0  0
  185.4900  178.5300  142.5180 C   0  0  0  0  0  0  0  0  0  0  0  0
  186.3170  177.5640  143.0560 C   0  0  0  0  0  0  0  0  0  0  0  0
  185.4020  178.5640  141.0400 C   0  0  2  0  0  3  0  0  0  0  0  0
  187.0170  176.6890  142.0830 C   0  0  2  0  0  3  0  0  0  0  0  0
  188.8810  174.4830  142.2620 C   0  0  0  0  0  2  0  0  0  0  0  0
  190.0510  173.6240  142.6970 C   0  0  0  0  0  2  0  0  0  0  0  0
  189.5540  172.2110  144.5150 O   0  0  0  0  0  0  0  0  0  0  0  0
  189.9440  173.3110  144.1590 C   0  0  0  0  0  0  0  0  0  0  0  0
  189.5820  174.0380  146.5070 C   0  0  0  0  0  2  0  0  0  0  0  0
  189.8970  175.1200  147.4860 C   0  0  0  0  0  3  0  0  0  0  0  0
  192.2610  175.1230  146.7000 C   0  0  1  0  0  3  0  0  0  0  0  0
  192.3610  175.8380  145.3600 C   0  0  1  0  0  0  0  0  0  0  0  0
  191.1300  175.6190  147.5780 C   0  0  0  0  0  0  0  0  0  0  0  0
  193.7160  175.9150  144.8430 N   0  0  0  0  0  1  0  0  0  0  0  0
  190.2910  174.3380  145.1910 C   0  0  1  0  0  3  0  0  0  0  0  0
  191.3860  176.6200  148.5050 O   0  0  0  0  0  1  0  0  0  0  0  0
  191.8160  174.4150  145.3900 C   0  0  2  0  0  3  0  0  0  0  0  0
  191.8910  177.6600  143.8750 O   0  0  0  0  0  1  0  0  0  0  0  0
  191.4280  177.0010  145.0140 C   0  0  0  0  0  2  0  0  0  0  0  0
  1  2  2  0  0  0  0
  2 17  1  0  0  0  0
  4  3  2  0  0  0  0
  4  8  1  0  0  0  0
  5  8  1  6  0  0  0
  5 10  1  0  0  0  0
  7 15  1  0  0  0  0
  7 16  1  0  0  0  0
  9  3  1  6  0  0  0
  9  5  1  0  0  0  0
  9 10  1  0  0  0  0
 11  3  1  0  0  0  0
 12 11  2  0  0  0  0
 13 14  2  0  0  0  0
 13 12  1  0  0  0  0
 14  4  1  0  0  0  0
 15  6  1  1  0  0  0
 15 13  1  0  0  0  0
 16  1  1  6  0  0  0
 16 14  1  0  0  0  0
 17 18  1  0  0  0  0
 18 20  1  0  0  0  0
 20 19  2  0  0  0  0
 21 22  1  0  0  0  0
 22 25  2  0  0  0  0
 23 25  1  1  0  0  0
 24 26  1  6  0  0  0
 24 29  1  0  0  0  0
 24 23  1  0  0  0  0
 25 28  1  0  0  0  0
 27 20  1  6  0  0  0
 27 29  1  0  0  0  0
 27 21  1  0  0  0  0
 29 23  1  0  0  0  0
 30 31  1  0  0  0  0
 31 24  1  0  0  0  0
M  END
>  <MODEL>
1

>  <REMARK>
 VINA RESULT:      -7.7      0.000      0.000
  Name = 
  6 active torsions:
  status: ('A' for Active; 'I' for Inactive)
    1  A    between atoms: C_2  and  C_5
    2  A    between atoms: C_2  and  C_10
    3  A    between atoms: N_3  and  C_31
    4  A    between atoms: C_5  and  C_14
    5  A    between atoms: C_10  and  C_25
    6  A    between atoms: C_18  and  C_19
                            x       y       z     vdW  Elec       q    Type
                         _______ _______ _______ _____ _____    ______ ____

>  <TORSDO>
F 6

$$$$
=
 OpenBabel11042417163D

 31 36  0  0  1  0  0  0  0  0999 V2000
  189.3550  177.6530  144.8570 N   0  0  0  0  0  0  0  0  0  0  0  0
  189.8950  177.0990  145.8870 C   0  0  0  0  0  3  0  0  0  0  0  0
  185.1570  178.7210  144.8780 C   0  0  0  0  0  0  0  0  0  0  0  0
  186.2920  177.9880  145.0500 C   0  0  0  0  0  0  0  0  0  0  0  0
  185.2080  178.1760  147.1570 C   0  0  1  0  0  3  0  0  0  0  0  0
  186.9710  177.2330  140.5170 C   0  0  0  0  0  1  0  0  0  0  0  0
  189.0360  176.9300  142.2830 S   0  0  0  0  0  0  0  0  0  0  0  0
  186.4220  177.5340  146.4500 C   0  0  0  0  0  2  0  0  0  0  0  0
  184.3890  178.8990  146.1310 C   0  0  2  0  0  3  0  0  0  0  0  0
  184.0080  177.6420  146.6430 O   0  0  0  0  0  0  0  0  0  0  0  0
  184.8380  179.2390  143.6620 N   0  0  0  0  0  0  0  0  0  0  0  0
  185.6360  179.0160  142.6080 N   0  0  0  0  0  0  0  0  0  0  0  0
  186.7750  178.2720  142.7380 C   0  0  0  0  0  0  0  0  0  0  0  0
  187.1330  177.7520  143.9660 C   0  0  0  0  0  0  0  0  0  0  0  0
  187.6980  177.9860  141.6150 C   0  0  2  0  0  3  0  0  0  0  0  0
  188.4000  176.9820  144.0040 C   0  0  2  0  0  3  0  0  0  0  0  0
  189.5760  175.7000  146.3160 C   0  0  0  0  0  2  0  0  0  0  0  0
  190.4350  175.3290  147.5080 C   0  0  0  0  0  2  0  0  0  0  0  0
  191.8690  176.9770  148.3890 O   0  0  0  0  0  0  0  0  0  0  0  0
  191.6900  176.1470  147.5130 C   0  0  0  0  0  0  0  0  0  0  0  0
  193.9240  176.8760  146.7050 C   0  0  0  0  0  2  0  0  0  0  0  0
  194.8970  176.7270  145.5830 C   0  0  0  0  0  3  0  0  0  0  0  0
  194.4870  174.2700  145.5730 C   0  0  1  0  0  3  0  0  0  0  0  0
  193.1510  173.9690  144.9060 C   0  0  1  0  0  0  0  0  0  0  0  0
  195.1590  175.5280  145.0620 C   0  0  0  0  0  0  0  0  0  0  0  0
  192.8480  172.5510  144.8280 N   0  0  0  0  0  1  0  0  0  0  0  0
  192.7230  175.9740  146.4430 C   0  0  1  0  0  3  0  0  0  0  0  0
  196.0750  175.4280  144.0230 O   0  0  0  0  0  1  0  0  0  0  0  0
  193.1530  174.4990  146.3350 C   0  0  2  0  0  3  0  0  0  0  0  0
  191.3140  174.4760  143.4530 O   0  0  0  0  0  1  0  0  0  0  0  0
  192.6200  174.8490  143.7710 C   0  0  0  0  0  2  0  0  0  0  0  0
  1  2  2  0  0  0  0
  2 17  1  0  0  0  0
  3  4  1  0  0  0  0
  4  8  1  0  0  0  0
  5  8  1  6  0  0  0
  7 16  1  0  0  0  0
  9  3  1  6  0  0  0
  9 10  1  0  0  0  0
  9  5  1  0  0  0  0
 10  5  1  0  0  0  0
 11  3  2  0  0  0  0
 12 13  2  0  0  0  0
 12 11  1  0  0  0  0
 13 14  1  0  0  0  0
 14 16  1  0  0  0  0
 14  4  2  0  0  0  0
 15  6  1  6  0  0  0
 15  7  1  0  0  0  0
 15 13  1  0  0  0  0
 16  1  1  1  0  0  0
 17 18  1  0  0  0  0
 18 20  1  0  0  0  0
 20 19  2  0  0  0  0
 22 21  1  0  0  0  0
 23 25  1  6  0  0  0
 23 29  1  0  0  0  0
 24 26  1  6  0  0  0
 24 23  1  0  0  0  0
 24 29  1  0  0  0  0
 25 22  2  0  0  0  0
 27 21  1  0  0  0  0
 27 20  1  1  0  0  0
 28 25  1  0  0  0  0
 29 27  1  0  0  0  0
 30 31  1  0  0  0  0
 31 24  1  0  0  0  0
M  END
>  <MODEL>
2

>  <REMARK>
 VINA RESULT:      -7.6      2.041      3.433
  Name = 
  6 active torsions:
  status: ('A' for Active; 'I' for Inactive)
    1  A    between atoms: C_2  and  C_5
    2  A    between atoms: C_2  and  C_10
    3  A    between atoms: N_3  and  C_31
    4  A    between atoms: C_5  and  C_14
    5  A    between atoms: C_10  and  C_25
    6  A    between atoms: C_18  and  C_19
                            x       y       z     vdW  Elec       q    Type
                         _______ _______ _______ _____ _____    ______ ____

>  <TORSDO>
F 6

$$$$
=
 OpenBabel11042417163D

 31 36  0  0  1  0  0  0  0  0999 V2000
  189.4810  177.7300  145.3210 N   0  0  0  0  0  0  0  0  0  0  0  0
  190.0390  177.3450  146.4160 C   0  0  0  0  0  3  0  0  0  0  0  0
  185.3060  178.6650  144.6380 C   0  0  0  0  0  0  0  0  0  0  0  0
  186.4160  178.0120  145.0850 C   0  0  0  0  0  0  0  0  0  0  0  0
  185.0880  178.5900  146.9700 C   0  0  1  0  0  3  0  0  0  0  0  0
  187.6320  176.3830  140.9080 C   0  0  0  0  0  1  0  0  0  0  0  0
  189.4740  176.4970  142.9260 S   0  0  0  0  0  0  0  0  0  0  0  0
  186.3800  177.8530  146.5540 C   0  0  0  0  0  2  0  0  0  0  0  0
  184.3940  179.0690  145.7310 C   0  0  2  0  0  3  0  0  0  0  0  0
  183.9600  177.9300  146.4400 O   0  0  0  0  0  0  0  0  0  0  0  0
  185.1330  178.9190  143.3130 N   0  0  0  0  0  0  0  0  0  0  0  0
  186.0520  178.5110  142.4270 N   0  0  0  0  0  0  0  0  0  0  0  0
  187.1700  177.8400  142.8350 C   0  0  0  0  0  0  0  0  0  0  0  0
  187.3810  177.5870  144.1760 C   0  0  0  0  0  0  0  0  0  0  0  0
  188.2210  177.3600  141.9080 C   0  0  2  0  0  3  0  0  0  0  0  0
  188.6370  176.8750  144.5160 C   0  0  2  0  0  3  0  0  0  0  0  0
  189.8580  175.9680  146.9780 C   0  0  0  0  0  2  0  0  0  0  0  0
  191.2000  175.2670  147.0390 C   0  0  0  0  0  2  0  0  0  0  0  0
  190.9890  173.9680  145.0860 O   0  0  0  0  0  0  0  0  0  0  0  0
  191.6200  174.8360  145.6670 C   0  0  0  0  0  0  0  0  0  0  0  0
  193.6220  176.2700  146.0000 C   0  0  0  0  0  2  0  0  0  0  0  0
  194.7650  176.9130  145.2870 C   0  0  0  0  0  3  0  0  0  0  0  0
  195.1380  174.8040  144.0150 C   0  0  1  0  0  3  0  0  0  0  0  0
  194.0890  174.6650  142.9200 C   0  0  1  0  0  0  0  0  0  0  0  0
  195.4650  176.2390  144.3750 C   0  0  0  0  0  0  0  0  0  0  0  0
  194.2540  173.4740  142.1060 N   0  0  0  0  0  1  0  0  0  0  0  0
  192.8170  175.4430  145.0040 C   0  0  1  0  0  3  0  0  0  0  0  0
  196.5250  176.8680  143.7360 O   0  0  0  0  0  1  0  0  0  0  0  0
  193.6920  174.3520  144.3580 C   0  0  2  0  0  3  0  0  0  0  0  0
  194.3230  176.2660  141.1520 O   0  0  0  0  0  1  0  0  0  0  0  0
  193.5080  175.8980  142.2230 C   0  0  0  0  0  2  0  0  0  0  0  0
  1  2  2  0  0  0  0
  2 17  1  0  0  0  0
  3  4  1  0  0  0  0
  4  8  1  0  0  0  0
  5  8  1  6  0  0  0
  7 16  1  0  0  0  0
  9  3  1  6  0  0  0
  9 10  1  0  0  0  0
  9  5  1  0  0  0  0
 10  5  1  0  0  0  0
 11  3  2  0  0  0  0
 12 13  2  0  0  0  0
 12 11  1  0  0  0  0
 13 14  1  0  0  0  0
 14 16  1  0  0  0  0
 14  4  2  0  0  0  0
 15  6  1  6  0  0  0
 15 13  1  0  0  0  0
 15  7  1  0  0  0  0
 16  1  1  1  0  0  0
 17 18  1  0  0  0  0
 19 20  2  0  0  0  0
 20 18  1  0  0  0  0
 22 21  1  0  0  0  0
 23 29  1  0  0  0  0
 23 25  1  1  0  0  0
 24 26  1  6  0  0  0
 24 23  1  0  0  0  0
 24 29  1  0  0  0  0
 25 22  2  0  0  0  0
 27 20  1  1  0  0  0
 27 21  1  0  0  0  0
 28 25  1  0  0  0  0
 29 27  1  0  0  0  0
 30 31  1  0  0  0  0
 31 24  1  0  0  0  0
M  END
>  <MODEL>
3

>  <REMARK>
 VINA RESULT:      -7.5      2.328      3.537
  Name = 
  6 active torsions:
  status: ('A' for Active; 'I' for Inactive)
    1  A    between atoms: C_2  and  C_5
    2  A    between atoms: C_2  and  C_10
    3  A    between atoms: N_3  and  C_31
    4  A    between atoms: C_5  and  C_14
    5  A    between atoms: C_10  and  C_25
    6  A    between atoms: C_18  and  C_19
                            x       y       z     vdW  Elec       q    Type
                         _______ _______ _______ _____ _____    ______ ____

>  <TORSDO>
F 6

$$$$
=
 OpenBabel11042417163D

 31 36  0  0  1  0  0  0  0  0999 V2000
  188.1060  175.7680  146.5990 N   0  0  0  0  0  0  0  0  0  0  0  0
  189.3410  175.5850  146.9180 C   0  0  0  0  0  3  0  0  0  0  0  0
  187.0550  177.4180  142.7330 C   0  0  0  0  0  0  0  0  0  0  0  0
  187.6910  177.2600  143.9280 C   0  0  0  0  0  0  0  0  0  0  0  0
  189.3250  177.1680  142.2040 C   0  0  1  0  0  3  0  0  0  0  0  0
  184.0910  178.6950  146.4890 C   0  0  0  0  0  1  0  0  0  0  0  0
  186.0880  177.2200  147.6340 S   0  0  0  0  0  0  0  0  0  0  0  0
  189.1520  177.1390  143.7380 C   0  0  0  0  0  2  0  0  0  0  0  0
  187.9800  177.3850  141.5780 C   0  0  2  0  0  3  0  0  0  0  0  0
  188.9300  178.4220  141.6940 O   0  0  0  0  0  0  0  0  0  0  0  0
  185.7040  177.5500  142.6740 N   0  0  0  0  0  0  0  0  0  0  0  0
  184.9800  177.5440  143.8020 N   0  0  0  0  0  0  0  0  0  0  0  0
  185.5830  177.4030  145.0210 C   0  0  0  0  0  0  0  0  0  0  0  0
  186.9520  177.2460  145.1070 C   0  0  0  0  0  0  0  0  0  0  0  0
  184.8420  177.3900  146.3030 C   0  0  2  0  0  3  0  0  0  0  0  0
  187.5040  177.0760  146.4740 C   0  0  2  0  0  3  0  0  0  0  0  0
  190.2870  176.7160  147.1790 C   0  0  0  0  0  2  0  0  0  0  0  0
  191.5680  176.1740  147.7800 C   0  0  0  0  0  2  0  0  0  0  0  0
  193.6980  176.9580  147.1490 O   0  0  0  0  0  0  0  0  0  0  0  0
  192.7010  176.3390  146.8130 C   0  0  0  0  0  0  0  0  0  0  0  0
  192.9150  176.8470  144.3900 C   0  0  0  0  0  2  0  0  0  0  0  0
  192.7550  176.2610  143.0270 C   0  0  0  0  0  3  0  0  0  0  0  0
  193.8800  174.1800  143.8050 C   0  0  1  0  0  3  0  0  0  0  0  0
  192.9180  173.3520  144.6450 C   0  0  1  0  0  0  0  0  0  0  0  0
  193.2000  175.0350  142.7550 C   0  0  0  0  0  0  0  0  0  0  0  0
  193.4840  172.1000  145.1140 N   0  0  0  0  0  1  0  0  0  0  0  0
  192.6180  175.7730  145.4300 C   0  0  1  0  0  3  0  0  0  0  0  0
  193.0380  174.5260  141.4730 O   0  0  0  0  0  1  0  0  0  0  0  0
  193.5740  174.5740  145.2760 C   0  0  2  0  0  3  0  0  0  0  0  0
  190.8810  172.0900  144.5830 O   0  0  0  0  0  1  0  0  0  0  0  0
  191.4130  173.3600  144.3600 C   0  0  0  0  0  2  0  0  0  0  0  0
  1  2  2  0  0  0  0
  2 17  1  0  0  0  0
  3  4  1  0  0  0  0
  4 14  2  0  0  0  0
  5  8  1  1  0  0  0
  8  4  1  0  0  0  0
  9 10  1  1  0  0  0
  9  5  1  0  0  0  0
  9  3  1  0  0  0  0
 10  5  1  0  0  0  0
 11  3  2  0  0  0  0
 11 12  1  0  0  0  0
 12 13  2  0  0  0  0
 13 14  1  0  0  0  0
 13 15  1  0  0  0  0
 14 16  1  0  0  0  0
 15  6  1  1  0  0  0
 15  7  1  0  0  0  0
 16  1  1  6  0  0  0
 16  7  1  0  0  0  0
 17 18  1  0  0  0  0
 20 19  2  0  0  0  0
 20 18  1  0  0  0  0
 21 27  1  0  0  0  0
 22 21  1  0  0  0  0
 23 25  1  6  0  0  0
 23 24  1  0  0  0  0
 23 29  1  0  0  0  0
 24 26  1  1  0  0  0
 24 29  1  0  0  0  0
 25 22  2  0  0  0  0
 27 20  1  1  0  0  0
 28 25  1  0  0  0  0
 29 27  1  0  0  0  0
 31 30  1  0  0  0  0
 31 24  1  0  0  0  0
M  END
>  <MODEL>
4

>  <REMARK>
 VINA RESULT:      -7.4      2.600      4.692
  Name = 
  6 active torsions:
  status: ('A' for Active; 'I' for Inactive)
    1  A    between atoms: C_2  and  C_5
    2  A    between atoms: C_2  and  C_10
    3  A    between atoms: N_3  and  C_31
    4  A    between atoms: C_5  and  C_14
    5  A    between atoms: C_10  and  C_25
    6  A    between atoms: C_18  and  C_19
                            x       y       z     vdW  Elec       q    Type
                         _______ _______ _______ _____ _____    ______ ____

>  <TORSDO>
F 6

$$$$
=
 OpenBabel11042417163D

 31 36  0  0  1  0  0  0  0  0999 V2000
  189.8820  174.1050  146.4190 N   0  0  0  0  0  0  0  0  0  0  0  0
  189.0170  174.9930  146.7690 C   0  0  0  0  0  3  0  0  0  0  0  0
  194.1170  174.5440  145.6170 C   0  0  0  0  0  0  0  0  0  0  0  0
  192.7800  174.8070  145.6180 C   0  0  0  0  0  0  0  0  0  0  0  0
  193.9000  176.6720  146.5770 C   0  0  1  0  0  3  0  0  0  0  0  0
  191.6950  171.3740  142.6820 C   0  0  0  0  0  1  0  0  0  0  0  0
  189.7670  172.4790  144.2750 S   0  0  0  0  0  0  0  0  0  0  0  0
  192.5070  176.1550  146.1600 C   0  0  0  0  0  2  0  0  0  0  0  0
  194.9230  175.6470  146.1870 C   0  0  2  0  0  3  0  0  0  0  0  0
  194.7220  176.8250  145.4400 O   0  0  0  0  0  0  0  0  0  0  0  0
  194.5940  173.3570  145.1580 N   0  0  0  0  0  0  0  0  0  0  0  0
  193.7480  172.4330  144.6820 N   0  0  0  0  0  0  0  0  0  0  0  0
  192.4010  172.6660  144.6530 C   0  0  0  0  0  0  0  0  0  0  0  0
  191.8880  173.8550  145.1320 C   0  0  0  0  0  0  0  0  0  0  0  0
  191.4130  171.6900  144.1390 C   0  0  2  0  0  3  0  0  0  0  0  0
  190.4130  173.9980  145.0780 C   0  0  2  0  0  3  0  0  0  0  0  0
  188.4810  176.0200  145.8200 C   0  0  0  0  0  2  0  0  0  0  0  0
  188.2130  177.3090  146.5710 C   0  0  0  0  0  2  0  0  0  0  0  0
  186.1210  177.9950  147.4080 O   0  0  0  0  0  0  0  0  0  0  0  0
  186.7750  177.7030  146.4210 C   0  0  0  0  0  0  0  0  0  0  0  0
  184.7830  178.4500  145.1370 C   0  0  0  0  0  2  0  0  0  0  0  0
  184.1330  178.3890  143.7950 C   0  0  0  0  0  3  0  0  0  0  0  0
  186.3400  178.8210  142.7230 C   0  0  1  0  0  3  0  0  0  0  0  0
  187.1860  177.5550  142.7490 C   0  0  1  0  0  0  0  0  0  0  0  0
  184.8470  178.5620  142.6830 C   0  0  0  0  0  0  0  0  0  0  0  0
  188.4810  177.7100  142.1110 N   0  0  0  0  0  1  0  0  0  0  0  0
  186.1220  177.7250  145.0740 C   0  0  1  0  0  3  0  0  0  0  0  0
  184.2070  178.5040  141.4530 O   0  0  0  0  0  1  0  0  0  0  0  0
  187.0510  178.3710  144.0290 C   0  0  2  0  0  3  0  0  0  0  0  0
  187.5240  175.1920  142.5390 O   0  0  0  0  0  1  0  0  0  0  0  0
  186.5370  176.1710  142.6590 C   0  0  0  0  0  2  0  0  0  0  0  0
  1  2  2  0  0  0  0
  3  4  1  0  0  0  0
  3  9  1  0  0  0  0
  4  8  1  0  0  0  0
  5  8  1  6  0  0  0
  7 16  1  0  0  0  0
  9 10  1  6  0  0  0
  9  5  1  0  0  0  0
 10  5  1  0  0  0  0
 11  3  2  0  0  0  0
 12 11  1  0  0  0  0
 13 12  2  0  0  0  0
 13 14  1  0  0  0  0
 14  4  2  0  0  0  0
 15  6  1  6  0  0  0
 15  7  1  0  0  0  0
 15 13  1  0  0  0  0
 16 14  1  0  0  0  0
 16  1  1  1  0  0  0
 17 18  1  0  0  0  0
 17  2  1  0  0  0  0
 20 18  1  0  0  0  0
 20 19  2  0  0  0  0
 22 21  1  0  0  0  0
 23 25  1  1  0  0  0
 23 24  1  0  0  0  0
 23 29  1  0  0  0  0
 24 26  1  6  0  0  0
 24 29  1  0  0  0  0
 25 22  2  0  0  0  0
 27 21  1  0  0  0  0
 27 20  1  1  0  0  0
 28 25  1  0  0  0  0
 29 27  1  0  0  0  0
 30 31  1  0  0  0  0
 31 24  1  0  0  0  0
M  END
>  <MODEL>
5

>  <REMARK>
 VINA RESULT:      -7.4      2.572      7.597
  Name = 
  6 active torsions:
  status: ('A' for Active; 'I' for Inactive)
    1  A    between atoms: C_2  and  C_5
    2  A    between atoms: C_2  and  C_10
    3  A    between atoms: N_3  and  C_31
    4  A    between atoms: C_5  and  C_14
    5  A    between atoms: C_10  and  C_25
    6  A    between atoms: C_18  and  C_19
                            x       y       z     vdW  Elec       q    Type
                         _______ _______ _______ _____ _____    ______ ____

>  <TORSDO>
F 6

$$$$
=
 OpenBabel11042417163D

 31 36  0  0  1  0  0  0  0  0999 V2000
  189.5080  177.7200  145.2940 N   0  0  0  0  0  0  0  0  0  0  0  0
  190.0150  177.2930  146.3980 C   0  0  0  0  0  3  0  0  0  0  0  0
  185.3230  178.7070  144.7660 C   0  0  0  0  0  0  0  0  0  0  0  0
  186.4400  178.0250  145.1460 C   0  0  0  0  0  0  0  0  0  0  0  0
  185.1570  178.4850  147.0930 C   0  0  1  0  0  3  0  0  0  0  0  0
  187.5550  176.6600  140.8480 C   0  0  0  0  0  1  0  0  0  0  0  0
  189.4420  176.6410  142.8270 S   0  0  0  0  0  0  0  0  0  0  0  0
  186.4360  177.7730  146.6020 C   0  0  0  0  0  2  0  0  0  0  0  0
  184.4370  179.0440  145.9020 C   0  0  2  0  0  3  0  0  0  0  0  0
  184.0140  177.8640  146.5480 O   0  0  0  0  0  0  0  0  0  0  0  0
  185.1210  179.0450  143.4640 N   0  0  0  0  0  0  0  0  0  0  0  0
  186.0180  178.6920  142.5330 N   0  0  0  0  0  0  0  0  0  0  0  0
  187.1420  177.9930  142.8730 C   0  0  0  0  0  0  0  0  0  0  0  0
  187.3820  177.6550  144.1900 C   0  0  0  0  0  0  0  0  0  0  0  0
  188.1700  177.5700  141.8940 C   0  0  2  0  0  3  0  0  0  0  0  0
  188.6430  176.9200  144.4560 C   0  0  2  0  0  3  0  0  0  0  0  0
  189.7480  175.9220  146.9370 C   0  0  0  0  0  2  0  0  0  0  0  0
  191.0090  175.0870  146.8420 C   0  0  0  0  0  2  0  0  0  0  0  0
  190.0740  173.7420  145.1490 O   0  0  0  0  0  0  0  0  0  0  0  0
  191.0510  174.3660  145.5290 C   0  0  0  0  0  0  0  0  0  0  0  0
  192.0020  173.8040  143.3040 C   0  0  0  0  0  2  0  0  0  0  0  0
  193.2700  173.7740  142.5170 C   0  0  0  0  0  3  0  0  0  0  0  0
  193.8610  176.0210  143.4150 C   0  0  1  0  0  3  0  0  0  0  0  0
  194.3490  175.8950  144.8520 C   0  0  1  0  0  0  0  0  0  0  0  0
  194.1270  174.7940  142.5660 C   0  0  0  0  0  0  0  0  0  0  0  0
  194.7480  177.1600  145.4430 N   0  0  0  0  0  1  0  0  0  0  0  0
  192.2870  174.3830  144.6840 C   0  0  1  0  0  3  0  0  0  0  0  0
  195.2930  174.7330  141.8160 O   0  0  0  0  0  1  0  0  0  0  0  0
  192.8520  175.8120  144.5770 C   0  0  2  0  0  3  0  0  0  0  0  0
  196.4760  174.8270  145.1370 O   0  0  0  0  0  1  0  0  0  0  0  0
  195.1050  174.6490  145.3220 C   0  0  0  0  0  2  0  0  0  0  0  0
  1  2  2  0  0  0  0
  2 17  1  0  0  0  0
  3  4  1  0  0  0  0
  4  8  1  0  0  0  0
  5  8  1  6  0  0  0
  7 16  1  0  0  0  0
  9  3  1  6  0  0  0
  9 10  1  0  0  0  0
  9  5  1  0  0  0  0
 10  5  1  0  0  0  0
 11  3  2  0  0  0  0
 12 13  2  0  0  0  0
 12 11  1  0  0  0  0
 13 14  1  0  0  0  0
 14 16  1  0  0  0  0
 14  4  2  0  0  0  0
 15  6  1  6  0  0  0
 15  7  1  0  0  0  0
 15 13  1  0  0  0  0
 16  1  1  1  0  0  0
 18 17  1  0  0  0  0
 19 20  2  0  0  0  0
 20 18  1  0  0  0  0
 21 27  1  0  0  0  0
 22 25  2  0  0  0  0
 22 21  1  0  0  0  0
 23 25  1  6  0  0  0
 23 29  1  0  0  0  0
 23 24  1  0  0  0  0
 24 31  1  0  0  0  0
 24 26  1  1  0  0  0
 27 20  1  1  0  0  0
 28 25  1  0  0  0  0
 29 27  1  0  0  0  0
 29 24  1  0  0  0  0
 30 31  1  0  0  0  0
M  END
>  <MODEL>
6

>  <REMARK>
 VINA RESULT:      -7.3      2.284      3.552
  Name = 
  6 active torsions:
  status: ('A' for Active; 'I' for Inactive)
    1  A    between atoms: C_2  and  C_5
    2  A    between atoms: C_2  and  C_10
    3  A    between atoms: N_3  and  C_31
    4  A    between atoms: C_5  and  C_14
    5  A    between atoms: C_10  and  C_25
    6  A    between atoms: C_18  and  C_19
                            x       y       z     vdW  Elec       q    Type
                         _______ _______ _______ _____ _____    ______ ____

>  <TORSDO>
F 6

$$$$
=
 OpenBabel11042417163D

 31 36  0  0  1  0  0  0  0  0999 V2000
  189.5400  177.7360  145.2890 N   0  0  0  0  0  0  0  0  0  0  0  0
  190.0800  177.3150  146.3810 C   0  0  0  0  0  3  0  0  0  0  0  0
  185.3460  178.6960  144.7810 C   0  0  0  0  0  0  0  0  0  0  0  0
  186.4690  178.0230  145.1610 C   0  0  0  0  0  0  0  0  0  0  0  0
  185.1990  178.5010  147.1120 C   0  0  1  0  0  3  0  0  0  0  0  0
  187.5600  176.6130  140.8710 C   0  0  0  0  0  1  0  0  0  0  0  0
  189.4610  176.6270  142.8360 S   0  0  0  0  0  0  0  0  0  0  0  0
  186.4770  177.7890  146.6200 C   0  0  0  0  0  2  0  0  0  0  0  0
  184.4670  179.0420  145.9200 C   0  0  2  0  0  3  0  0  0  0  0  0
  184.0550  177.8670  146.5830 O   0  0  0  0  0  0  0  0  0  0  0  0
  185.1330  179.0170  143.4770 N   0  0  0  0  0  0  0  0  0  0  0  0
  186.0250  178.6570  142.5440 N   0  0  0  0  0  0  0  0  0  0  0  0
  187.1550  177.9680  142.8830 C   0  0  0  0  0  0  0  0  0  0  0  0
  187.4060  177.6470  144.2030 C   0  0  0  0  0  0  0  0  0  0  0  0
  188.1780  177.5390  141.9010 C   0  0  2  0  0  3  0  0  0  0  0  0
  188.6730  176.9220  144.4680 C   0  0  2  0  0  3  0  0  0  0  0  0
  189.8510  175.9370  146.9210 C   0  0  0  0  0  2  0  0  0  0  0  0
  191.1680  175.1910  146.9750 C   0  0  0  0  0  2  0  0  0  0  0  0
  190.6420  173.9650  145.0330 O   0  0  0  0  0  0  0  0  0  0  0  0
  191.4870  174.6110  145.6310 C   0  0  0  0  0  0  0  0  0  0  0  0
  193.2200  176.2720  144.9870 C   0  0  0  0  0  2  0  0  0  0  0  0
  194.5390  176.4210  144.3060 C   0  0  0  0  0  3  0  0  0  0  0  0
  195.3660  174.3950  145.4960 C   0  0  1  0  0  3  0  0  0  0  0  0
  194.7900  173.1420  144.8510 C   0  0  1  0  0  0  0  0  0  0  0  0
  195.5290  175.5600  144.5400 C   0  0  0  0  0  0  0  0  0  0  0  0
  195.2490  171.9090  145.4650 N   0  0  0  0  0  1  0  0  0  0  0  0
  192.8400  174.7960  145.0160 C   0  0  1  0  0  3  0  0  0  0  0  0
  196.7440  175.7340  143.8930 O   0  0  0  0  0  1  0  0  0  0  0  0
  193.8980  173.9680  145.7700 C   0  0  2  0  0  3  0  0  0  0  0  0
  195.3120  172.1430  142.7360 O   0  0  0  0  0  1  0  0  0  0  0  0
  194.4950  173.0930  143.3490 C   0  0  0  0  0  2  0  0  0  0  0  0
  1  2  2  0  0  0  0
  2 17  1  0  0  0  0
  3  4  1  0  0  0  0
  4  8  1  0  0  0  0
  5  8  1  6  0  0  0
  7 16  1  0  0  0  0
  9  3  1  6  0  0  0
  9 10  1  0  0  0  0
  9  5  1  0  0  0  0
 10  5  1  0  0  0  0
 11  3  2  0  0  0  0
 12 13  2  0  0  0  0
 12 11  1  0  0  0  0
 13 14  1  0  0  0  0
 14 16  1  0  0  0  0
 14  4  2  0  0  0  0
 15  6  1  6  0  0  0
 15  7  1  0  0  0  0
 15 13  1  0  0  0  0
 16  1  1  1  0  0  0
 17 18  1  0  0  0  0
 19 20  2  0  0  0  0
 20 18  1  0  0  0  0
 21 27  1  0  0  0  0
 22 25  2  0  0  0  0
 22 21  1  0  0  0  0
 23 25  1  6  0  0  0
 23 29  1  0  0  0  0
 24 26  1  1  0  0  0
 24 23  1  0  0  0  0
 24 29  1  0  0  0  0
 27 20  1  1  0  0  0
 27 29  1  0  0  0  0
 28 25  1  0  0  0  0
 30 31  1  0  0  0  0
 31 24  1  0  0  0  0
M  END
>  <MODEL>
7

>  <REMARK>
 VINA RESULT:      -7.3      2.530      3.702
  Name = 
  6 active torsions:
  status: ('A' for Active; 'I' for Inactive)
    1  A    between atoms: C_2  and  C_5
    2  A    between atoms: C_2  and  C_10
    3  A    between atoms: N_3  and  C_31
    4  A    between atoms: C_5  and  C_14
    5  A    between atoms: C_10  and  C_25
    6  A    between atoms: C_18  and  C_19
                            x       y       z     vdW  Elec       q    Type
                         _______ _______ _______ _____ _____    ______ ____

>  <TORSDO>
F 6

$$$$
=
 OpenBabel11042417163D

 31 36  0  0  1  0  0  0  0  0999 V2000
  188.1880  175.6890  146.5920 N   0  0  0  0  0  0  0  0  0  0  0  0
  189.4260  175.5170  146.9050 C   0  0  0  0  0  3  0  0  0  0  0  0
  187.0630  177.3410  142.7480 C   0  0  0  0  0  0  0  0  0  0  0  0
  187.7180  177.1850  143.9330 C   0  0  0  0  0  0  0  0  0  0  0  0
  189.3270  177.1160  142.1840 C   0  0  1  0  0  3  0  0  0  0  0  0
  184.1420  178.5740  146.5520 C   0  0  0  0  0  1  0  0  0  0  0  0
  186.1710  177.1160  147.6620 S   0  0  0  0  0  0  0  0  0  0  0  0
  189.1770  177.0800  143.7210 C   0  0  0  0  0  2  0  0  0  0  0  0
  187.9710  177.3220  141.5800 C   0  0  2  0  0  3  0  0  0  0  0  0
  188.9110  178.3670  141.6850 O   0  0  0  0  0  0  0  0  0  0  0  0
  185.7090  177.4590  142.7100 N   0  0  0  0  0  0  0  0  0  0  0  0
  185.0020  177.4420  143.8490 N   0  0  0  0  0  0  0  0  0  0  0  0
  185.6250  177.3030  145.0570 C   0  0  0  0  0  0  0  0  0  0  0  0
  186.9970  177.1600  145.1230 C   0  0  0  0  0  0  0  0  0  0  0  0
  184.9040  177.2780  146.3510 C   0  0  2  0  0  3  0  0  0  0  0  0
  187.5710  176.9910  146.4810 C   0  0  2  0  0  3  0  0  0  0  0  0
  190.3600  176.6560  147.1740 C   0  0  0  0  0  2  0  0  0  0  0  0
  191.7800  176.1350  147.2640 C   0  0  0  0  0  2  0  0  0  0  0  0
  192.1630  177.1900  145.1930 O   0  0  0  0  0  0  0  0  0  0  0  0
  192.4620  176.2700  145.9370 C   0  0  0  0  0  0  0  0  0  0  0  0
  194.8010  175.4940  146.2550 C   0  0  0  0  0  2  0  0  0  0  0  0
  195.8230  174.5340  145.7430 C   0  0  0  0  0  3  0  0  0  0  0  0
  194.0870  172.7490  145.6680 C   0  0  1  0  0  3  0  0  0  0  0  0
  193.1810  172.9560  144.4630 C   0  0  1  0  0  0  0  0  0  0  0  0
  195.4970  173.2700  145.4740 C   0  0  0  0  0  0  0  0  0  0  0  0
  192.1570  171.9360  144.3240 N   0  0  0  0  0  1  0  0  0  0  0  0
  193.4950  175.2780  145.5000 C   0  0  1  0  0  3  0  0  0  0  0  0
  196.4760  172.4040  145.0050 O   0  0  0  0  0  1  0  0  0  0  0  0
  192.9800  173.8380  145.6890 C   0  0  2  0  0  3  0  0  0  0  0  0
  193.9580  172.5630  142.2290 O   0  0  0  0  0  1  0  0  0  0  0  0
  193.7200  173.5680  143.1670 C   0  0  0  0  0  2  0  0  0  0  0  0
  1  2  2  0  0  0  0
  2 17  1  0  0  0  0
  3  4  1  0  0  0  0
  4 14  2  0  0  0  0
  5  8  1  1  0  0  0
  8  4  1  0  0  0  0
  9 10  1  1  0  0  0
  9  5  1  0  0  0  0
  9  3  1  0  0  0  0
 10  5  1  0  0  0  0
 11  3  2  0  0  0  0
 11 12  1  0  0  0  0
 12 13  2  0  0  0  0
 13 14  1  0  0  0  0
 13 15  1  0  0  0  0
 14 16  1  0  0  0  0
 15  6  1  1  0  0  0
 15  7  1  0  0  0  0
 16  1  1  6  0  0  0
 16  7  1  0  0  0  0
 17 18  1  0  0  0  0
 19 20  2  0  0  0  0
 20 18  1  0  0  0  0
 22 21  1  0  0  0  0
 23 25  1  6  0  0  0
 23 29  1  0  0  0  0
 24 26  1  6  0  0  0
 24 23  1  0  0  0  0
 24 29  1  0  0  0  0
 25 22  2  0  0  0  0
 27 29  1  0  0  0  0
 27 20  1  1  0  0  0
 27 21  1  0  0  0  0
 28 25  1  0  0  0  0
 30 31  1  0  0  0  0
 31 24  1  0  0  0  0
M  END
>  <MODEL>
8

>  <REMARK>
 VINA RESULT:      -7.3      2.961      4.722
  Name = 
  6 active torsions:
  status: ('A' for Active; 'I' for Inactive)
    1  A    between atoms: C_2  and  C_5
    2  A    between atoms: C_2  and  C_10
    3  A    between atoms: N_3  and  C_31
    4  A    between atoms: C_5  and  C_14
    5  A    between atoms: C_10  and  C_25
    6  A    between atoms: C_18  and  C_19
                            x       y       z     vdW  Elec       q    Type
                         _______ _______ _______ _____ _____    ______ ____

>  <TORSDO>
F 6

$$$$
=
 OpenBabel11042417163D

 31 36  0  0  1  0  0  0  0  0999 V2000
  191.0190  176.8680  144.8340 N   0  0  0  0  0  0  0  0  0  0  0  0
  190.0160  177.3170  145.5060 C   0  0  0  0  0  3  0  0  0  0  0  0
  191.4690  173.2790  142.4490 C   0  0  0  0  0  0  0  0  0  0  0  0
  191.1100  174.0950  143.4800 C   0  0  0  0  0  0  0  0  0  0  0  0
  189.1390  173.0850  142.6150 C   0  0  1  0  0  3  0  0  0  0  0  0
  195.4280  174.5920  145.1200 C   0  0  0  0  0  1  0  0  0  0  0  0
  193.4840  176.3880  145.8060 S   0  0  0  0  0  0  0  0  0  0  0  0
  189.6540  174.0280  143.7250 C   0  0  0  0  0  2  0  0  0  0  0  0
  190.3170  172.5850  141.8330 C   0  0  2  0  0  3  0  0  0  0  0  0
  189.6640  171.7890  142.7970 O   0  0  0  0  0  0  0  0  0  0  0  0
  192.7670  173.1850  142.0540 N   0  0  0  0  0  0  0  0  0  0  0  0
  193.7150  173.8860  142.6910 N   0  0  0  0  0  0  0  0  0  0  0  0
  193.3950  174.7030  143.7390 C   0  0  0  0  0  0  0  0  0  0  0  0
  192.0830  174.8330  144.1480 C   0  0  0  0  0  0  0  0  0  0  0  0
  194.3940  175.5030  144.4870 C   0  0  2  0  0  3  0  0  0  0  0  0
  191.8400  175.7640  145.2770 C   0  0  2  0  0  3  0  0  0  0  0  0
  189.5880  176.7300  146.8150 C   0  0  0  0  0  2  0  0  0  0  0  0
  188.1300  176.3260  146.7360 C   0  0  0  0  0  2  0  0  0  0  0  0
  187.4280  178.2990  147.8140 O   0  0  0  0  0  0  0  0  0  0  0  0
  187.2520  177.5320  146.8810 C   0  0  0  0  0  0  0  0  0  0  0  0
  184.9610  178.4520  146.6070 C   0  0  0  0  0  2  0  0  0  0  0  0
  183.8560  178.6380  145.6200 C   0  0  0  0  0  3  0  0  0  0  0  0
  185.5240  179.3490  143.9120 C   0  0  1  0  0  3  0  0  0  0  0  0
  186.2630  178.1330  143.3700 C   0  0  1  0  0  0  0  0  0  0  0  0
  184.1130  179.0530  144.3790 C   0  0  0  0  0  0  0  0  0  0  0  0
  187.2350  178.4550  142.3400 N   0  0  0  0  0  1  0  0  0  0  0  0
  186.1470  177.8000  145.9080 C   0  0  1  0  0  3  0  0  0  0  0  0
  183.0600  179.2200  143.4910 O   0  0  0  0  0  1  0  0  0  0  0  0
  186.6490  178.6720  144.7420 C   0  0  2  0  0  3  0  0  0  0  0  0
  186.4680  175.8190  142.7810 O   0  0  0  0  0  1  0  0  0  0  0  0
  185.5680  176.7730  143.2560 C   0  0  0  0  0  2  0  0  0  0  0  0
  1  2  2  0  0  0  0
  2 17  1  0  0  0  0
  3  4  1  0  0  0  0
  4  8  1  0  0  0  0
  4 14  2  0  0  0  0
  5 10  1  0  0  0  0
  5  8  1  1  0  0  0
  9  3  1  1  0  0  0
  9  5  1  0  0  0  0
  9 10  1  0  0  0  0
 11  3  2  0  0  0  0
 11 12  1  0  0  0  0
 12 13  2  0  0  0  0
 13 14  1  0  0  0  0
 13 15  1  0  0  0  0
 14 16  1  0  0  0  0
 15  6  1  1  0  0  0
 15  7  1  0  0  0  0
 16  1  1  6  0  0  0
 16  7  1  0  0  0  0
 18 17  1  0  0  0  0
 18 20  1  0  0  0  0
 20 19  2  0  0  0  0
 22 21  1  0  0  0  0
 23 25  1  1  0  0  0
 23 29  1  0  0  0  0
 24 26  1  6  0  0  0
 24 23  1  0  0  0  0
 24 29  1  0  0  0  0
 25 22  2  0  0  0  0
 27 21  1  0  0  0  0
 27 20  1  1  0  0  0
 28 25  1  0  0  0  0
 29 27  1  0  0  0  0
 30 31  1  0  0  0  0
 31 24  1  0  0  0  0
M  END
>  <MODEL>
9

>  <REMARK>
 VINA RESULT:      -7.2      2.765      7.521
  Name = 
  6 active torsions:
  status: ('A' for Active; 'I' for Inactive)
    1  A    between atoms: C_2  and  C_5
    2  A    between atoms: C_2  and  C_10
    3  A    between atoms: N_3  and  C_31
    4  A    between atoms: C_5  and  C_14
    5  A    between atoms: C_10  and  C_25
    6  A    between atoms: C_18  and  C_19
                            x       y       z     vdW  Elec       q    Type
                         _______ _______ _______ _____ _____    ______ ____

>  <TORSDO>
F 6

$$$$
