=
 OpenBabel11042414013D

 31 34  0  0  0  0  0  0  0  0999 V2000
  187.7570  177.2840  143.8410 C   0  0  0  0  0  3  0  0  0  0  0  0
  182.0240  178.1050  141.7770 O   0  0  0  0  0  0  0  0  0  0  0  0
  185.3920  177.8490  140.8920 C   0  0  0  0  0  0  0  0  0  0  0  0
  186.9820  177.7090  144.9210 C   0  0  0  0  0  0  0  0  0  0  0  0
  184.0470  178.4470  140.6260 C   0  0  0  0  0  2  0  0  0  0  0  0
  185.9670  177.8110  142.2750 C   0  0  0  0  0  0  0  0  0  0  0  0
  187.2740  177.3250  142.5340 C   0  0  0  0  0  0  0  0  0  0  0  0
  183.7910  178.8200  143.1570 C   0  0  0  0  0  2  0  0  0  0  0  0
  185.6830  178.1840  144.6860 C   0  0  0  0  0  0  0  0  0  0  0  0
  183.2030  178.4050  141.8510 C   0  0  0  0  0  0  0  0  0  0  0  0
  186.0320  177.3970  139.9060 O   0  0  0  0  0  0  0  0  0  0  0  0
  185.1700  178.2410  143.3710 C   0  0  0  0  0  0  0  0  0  0  0  0
  184.8580  178.6660  145.8440 C   0  0  0  0  0  2  0  0  0  0  0  0
  184.1990  177.5880  146.4330 O   0  0  0  0  0  1  0  0  0  0  0  0
  187.4870  177.6580  146.2690 N   0  0  0  0  0  2  0  0  0  0  0  0
  188.4600  175.5120  146.8880 C   0  0  0  0  0  3  0  0  0  0  0  0
  189.5070  174.7360  147.3960 C   0  0  0  0  0  3  0  0  0  0  0  0
  190.6940  175.3470  147.8070 C   0  0  0  0  0  3  0  0  0  0  0  0
  189.7860  177.5080  147.2060 C   0  0  0  0  0  3  0  0  0  0  0  0
  190.8340  176.7330  147.7120 C   0  0  0  0  0  0  0  0  0  0  0  0
  191.9830  177.3290  148.1120 F   0  0  0  0  0  0  0  0  0  0  0  0
  188.5920  176.9010  146.7860 C   0  0  0  0  0  0  0  0  0  0  0  0
  188.2100  176.8760  141.4580 C   0  0  0  0  0  2  0  0  0  0  0  0
  188.7360  175.4880  141.7710 C   0  0  0  0  0  2  0  0  0  0  0  0
  190.0370  175.6020  142.4800 C   0  0  0  0  0  3  0  0  0  0  0  0
  190.2840  174.8410  143.5360 C   0  0  0  0  0  3  0  0  0  0  0  0
  192.3130  176.0730  144.3930 C   0  0  0  0  0  3  0  0  0  0  0  0
  193.3980  175.6390  145.1380 C   0  0  0  0  0  3  0  0  0  0  0  0
  193.2590  174.3240  145.4040 N   0  0  0  0  0  0  0  0  0  0  0  0
  192.1470  173.9330  144.8600 O   0  0  0  0  0  0  0  0  0  0  0  0
  191.5560  174.9300  144.2540 C   0  0  0  0  0  0  0  0  0  0  0  0
  1  4  1  0  0  0  0
  2 10  2  0  0  0  0
  3  6  1  0  0  0  0
  4 15  1  0  0  0  0
  5  3  1  0  0  0  0
  5 10  1  0  0  0  0
  6  7  1  0  0  0  0
  6 12  2  0  0  0  0
  7  1  2  0  0  0  0
  8 12  1  0  0  0  0
  9  4  2  0  0  0  0
  9 13  1  0  0  0  0
 10  8  1  0  0  0  0
 11  3  2  0  0  0  0
 12  9  1  0  0  0  0
 13 14  1  0  0  0  0
 15 22  1  0  0  0  0
 16 17  1  0  0  0  0
 17 18  2  0  0  0  0
 19 20  2  0  0  0  0
 20 18  1  0  0  0  0
 20 21  1  0  0  0  0
 22 16  2  0  0  0  0
 22 19  1  0  0  0  0
 23 24  1  0  0  0  0
 23  7  1  0  0  0  0
 24 25  1  0  0  0  0
 25 26  2  0  0  0  0
 26 31  1  0  0  0  0
 27 28  1  0  0  0  0
 28 29  2  0  0  0  0
 30 29  1  0  0  0  0
 31 27  2  0  0  0  0
 31 30  1  0  0  0  0
M  END
>  <MODEL>
1

>  <REMARK>
 VINA RESULT:      -7.8      0.000      0.000
  Name = 
  7 active torsions:
  status: ('A' for Active; 'I' for Inactive)
    1  A    between atoms: N_4  and  C_8
    2  A    between atoms: N_4  and  C_30
    3  A    between atoms: C_12  and  C_20
    4  A    between atoms: C_12  and  C_28
    5  A    between atoms: C_14  and  C_28
    6  A    between atoms: C_16  and  C_22
    7  A    between atoms: C_19  and  C_24
                            x       y       z     vdW  Elec       q    Type
                         _______ _______ _______ _____ _____    ______ ____

>  <TORSDO>
F 7

$$$$
=
 OpenBabel11042414013D

 31 34  0  0  0  0  0  0  0  0999 V2000
  189.1010  176.2680  144.7080 C   0  0  0  0  0  3  0  0  0  0  0  0
  195.1630  175.8180  145.6380 O   0  0  0  0  0  0  0  0  0  0  0  0
  192.5970  175.6940  143.2730 C   0  0  0  0  0  0  0  0  0  0  0  0
  189.2960  176.0030  146.0640 C   0  0  0  0  0  0  0  0  0  0  0  0
  193.9340  175.2020  143.7280 C   0  0  0  0  0  2  0  0  0  0  0  0
  191.4390  175.7870  144.2180 C   0  0  0  0  0  0  0  0  0  0  0  0
  190.1420  176.1700  143.7870 C   0  0  0  0  0  0  0  0  0  0  0  0
  192.9880  175.0540  146.1140 C   0  0  0  0  0  2  0  0  0  0  0  0
  190.5730  175.6310  146.5120 C   0  0  0  0  0  0  0  0  0  0  0  0
  194.1010  175.4180  145.1910 C   0  0  0  0  0  0  0  0  0  0  0  0
  192.4750  176.0060  142.0590 O   0  0  0  0  0  0  0  0  0  0  0  0
  191.6460  175.5190  145.5990 C   0  0  0  0  0  0  0  0  0  0  0  0
  190.7780  175.3190  147.9650 C   0  0  0  0  0  2  0  0  0  0  0  0
  191.2480  176.4530  148.6280 O   0  0  0  0  0  1  0  0  0  0  0  0
  188.2160  176.1120  147.0100 N   0  0  0  0  0  2  0  0  0  0  0  0
  185.9280  176.5980  146.3280 C   0  0  0  0  0  3  0  0  0  0  0  0
  184.8110  177.4380  146.2740 C   0  0  0  0  0  3  0  0  0  0  0  0
  184.8540  178.6970  146.8810 C   0  0  0  0  0  3  0  0  0  0  0  0
  187.1280  178.2720  147.5930 C   0  0  0  0  0  3  0  0  0  0  0  0
  186.0130  179.1130  147.5410 C   0  0  0  0  0  0  0  0  0  0  0  0
  186.0590  180.3330  148.1280 F   0  0  0  0  0  0  0  0  0  0  0  0
  187.0910  177.0050  146.9890 C   0  0  0  0  0  0  0  0  0  0  0  0
  189.8030  176.4450  142.3570 C   0  0  0  0  0  2  0  0  0  0  0  0
  189.3380  177.8810  142.1990 C   0  0  0  0  0  2  0  0  0  0  0  0
  187.9670  177.8950  141.6280 C   0  0  0  0  0  3  0  0  0  0  0  0
  186.9340  178.2210  142.3920 C   0  0  0  0  0  3  0  0  0  0  0  0
  184.4220  178.1160  142.6030 C   0  0  0  0  0  3  0  0  0  0  0  0
  183.4210  178.2020  141.6480 C   0  0  0  0  0  3  0  0  0  0  0  0
  183.9780  178.3700  140.4310 N   0  0  0  0  0  0  0  0  0  0  0  0
  185.2660  178.3910  140.5930 O   0  0  0  0  0  0  0  0  0  0  0  0
  185.5730  178.2450  141.8570 C   0  0  0  0  0  0  0  0  0  0  0  0
  1  4  1  0  0  0  0
  3  5  1  0  0  0  0
  3  6  1  0  0  0  0
  4  9  2  0  0  0  0
  4 15  1  0  0  0  0
  5 10  1  0  0  0  0
  6 12  2  0  0  0  0
  7  6  1  0  0  0  0
  7  1  2  0  0  0  0
  9 13  1  0  0  0  0
 10  2  2  0  0  0  0
 10  8  1  0  0  0  0
 11  3  2  0  0  0  0
 12  8  1  0  0  0  0
 12  9  1  0  0  0  0
 13 14  1  0  0  0  0
 16 22  1  0  0  0  0
 17 16  2  0  0  0  0
 17 18  1  0  0  0  0
 18 20  2  0  0  0  0
 20 19  1  0  0  0  0
 20 21  1  0  0  0  0
 22 15  1  0  0  0  0
 22 19  2  0  0  0  0
 23  7  1  0  0  0  0
 24 23  1  0  0  0  0
 25 24  1  0  0  0  0
 25 26  2  0  0  0  0
 28 27  1  0  0  0  0
 29 30  1  0  0  0  0
 29 28  2  0  0  0  0
 30 31  1  0  0  0  0
 31 26  1  0  0  0  0
 31 27  2  0  0  0  0
M  END
>  <MODEL>
2

>  <REMARK>
 VINA RESULT:      -7.8      2.457      7.168
  Name = 
  7 active torsions:
  status: ('A' for Active; 'I' for Inactive)
    1  A    between atoms: N_4  and  C_8
    2  A    between atoms: N_4  and  C_30
    3  A    between atoms: C_12  and  C_20
    4  A    between atoms: C_12  and  C_28
    5  A    between atoms: C_14  and  C_28
    6  A    between atoms: C_16  and  C_22
    7  A    between atoms: C_19  and  C_24
                            x       y       z     vdW  Elec       q    Type
                         _______ _______ _______ _____ _____    ______ ____

>  <TORSDO>
F 7

$$$$
=
 OpenBabel11042414013D

 31 34  0  0  0  0  0  0  0  0999 V2000
  188.7930  176.1530  145.2880 C   0  0  0  0  0  3  0  0  0  0  0  0
  189.2840  172.2620  140.5530 O   0  0  0  0  0  0  0  0  0  0  0  0
  190.3390  172.9900  143.8020 C   0  0  0  0  0  0  0  0  0  0  0  0
  188.3570  176.8280  144.1480 C   0  0  0  0  0  0  0  0  0  0  0  0
  190.6580  172.4170  142.4570 C   0  0  0  0  0  2  0  0  0  0  0  0
  189.6730  174.3240  143.9410 C   0  0  0  0  0  0  0  0  0  0  0  0
  189.4390  174.9210  145.2070 C   0  0  0  0  0  0  0  0  0  0  0  0
  189.4950  174.4500  141.3940 C   0  0  0  0  0  2  0  0  0  0  0  0
  188.5710  176.2500  142.8870 C   0  0  0  0  0  0  0  0  0  0  0  0
  189.7530  172.9810  141.4190 C   0  0  0  0  0  0  0  0  0  0  0  0
  190.6690  172.3160  144.8130 O   0  0  0  0  0  0  0  0  0  0  0  0
  189.2280  175.0050  142.7740 C   0  0  0  0  0  0  0  0  0  0  0  0
  188.1270  176.9870  141.6570 C   0  0  0  0  0  2  0  0  0  0  0  0
  186.8080  176.6470  141.3550 O   0  0  0  0  0  1  0  0  0  0  0  0
  187.6850  178.0980  144.2410 N   0  0  0  0  0  2  0  0  0  0  0  0
  185.3800  178.7650  143.8170 C   0  0  0  0  0  3  0  0  0  0  0  0
  184.0840  179.0600  144.2520 C   0  0  0  0  0  3  0  0  0  0  0  0
  183.7660  178.9760  145.6100 C   0  0  0  0  0  3  0  0  0  0  0  0
  186.0400  178.3040  146.0960 C   0  0  0  0  0  3  0  0  0  0  0  0
  184.7450  178.5980  146.5330 C   0  0  0  0  0  0  0  0  0  0  0  0
  184.4410  178.5170  147.8500 F   0  0  0  0  0  0  0  0  0  0  0  0
  186.3650  178.3820  144.7330 C   0  0  0  0  0  0  0  0  0  0  0  0
  189.8890  174.3120  146.4950 C   0  0  0  0  0  2  0  0  0  0  0  0
  190.8840  175.2270  147.1850 C   0  0  0  0  0  2  0  0  0  0  0  0
  192.2370  175.0030  146.6160 C   0  0  0  0  0  3  0  0  0  0  0  0
  192.8500  175.9780  145.9600 C   0  0  0  0  0  3  0  0  0  0  0  0
  195.0520  174.7690  145.7210 C   0  0  0  0  0  3  0  0  0  0  0  0
  196.1550  175.0280  144.9210 C   0  0  0  0  0  3  0  0  0  0  0  0
  195.9190  176.1310  144.1810 N   0  0  0  0  0  0  0  0  0  0  0  0
  194.7320  176.5580  144.4870 O   0  0  0  0  0  0  0  0  0  0  0  0
  194.1840  175.7860  145.3900 C   0  0  0  0  0  0  0  0  0  0  0  0
  2 10  2  0  0  0  0
  3  6  1  0  0  0  0
  3 11  2  0  0  0  0
  4 15  1  0  0  0  0
  4  1  2  0  0  0  0
  5  3  1  0  0  0  0
  6  7  2  0  0  0  0
  7  1  1  0  0  0  0
  7 23  1  0  0  0  0
  8 10  1  0  0  0  0
  8 12  1  0  0  0  0
  9  4  1  0  0  0  0
 10  5  1  0  0  0  0
 12  9  2  0  0  0  0
 12  6  1  0  0  0  0
 13  9  1  0  0  0  0
 14 13  1  0  0  0  0
 15 22  1  0  0  0  0
 16 17  2  0  0  0  0
 16 22  1  0  0  0  0
 17 18  1  0  0  0  0
 18 20  2  0  0  0  0
 19 20  1  0  0  0  0
 20 21  1  0  0  0  0
 22 19  2  0  0  0  0
 23 24  1  0  0  0  0
 25 24  1  0  0  0  0
 26 25  2  0  0  0  0
 28 27  1  0  0  0  0
 29 30  1  0  0  0  0
 29 28  2  0  0  0  0
 30 31  1  0  0  0  0
 31 27  2  0  0  0  0
 31 26  1  0  0  0  0
M  END
>  <MODEL>
3

>  <REMARK>
 VINA RESULT:      -7.5      2.579      5.769
  Name = 
  7 active torsions:
  status: ('A' for Active; 'I' for Inactive)
    1  A    between atoms: N_4  and  C_8
    2  A    between atoms: N_4  and  C_30
    3  A    between atoms: C_12  and  C_20
    4  A    between atoms: C_12  and  C_28
    5  A    between atoms: C_14  and  C_28
    6  A    between atoms: C_16  and  C_22
    7  A    between atoms: C_19  and  C_24
                            x       y       z     vdW  Elec       q    Type
                         _______ _______ _______ _____ _____    ______ ____

>  <TORSDO>
F 7

$$$$
=
 OpenBabel11042414013D

 31 34  0  0  0  0  0  0  0  0999 V2000
  189.4930  176.6080  143.5890 C   0  0  0  0  0  3  0  0  0  0  0  0
  185.0110  177.7520  147.6400 O   0  0  0  0  0  0  0  0  0  0  0  0
  186.5470  178.7840  144.6780 C   0  0  0  0  0  0  0  0  0  0  0  0
  189.8290  175.9570  144.7760 C   0  0  0  0  0  0  0  0  0  0  0  0
  185.8240  179.1550  145.9350 C   0  0  0  0  0  2  0  0  0  0  0  0
  187.6970  177.8250  144.6960 C   0  0  0  0  0  0  0  0  0  0  0  0
  188.4480  177.5270  143.5300 C   0  0  0  0  0  0  0  0  0  0  0  0
  187.3070  177.4750  147.1970 C   0  0  0  0  0  2  0  0  0  0  0  0
  189.0930  176.2310  145.9390 C   0  0  0  0  0  0  0  0  0  0  0  0
  185.9650  178.0810  146.9560 C   0  0  0  0  0  0  0  0  0  0  0  0
  186.1650  179.3260  143.6080 O   0  0  0  0  0  0  0  0  0  0  0  0
  188.0310  177.1620  145.9090 C   0  0  0  0  0  0  0  0  0  0  0  0
  189.4700  175.5520  147.2230 C   0  0  0  0  0  2  0  0  0  0  0  0
  188.9020  174.2780  147.2660 O   0  0  0  0  0  1  0  0  0  0  0  0
  190.9080  175.0040  144.8270 N   0  0  0  0  0  2  0  0  0  0  0  0
  193.1180  174.1040  145.3220 C   0  0  0  0  0  3  0  0  0  0  0  0
  194.4530  174.2610  145.7050 C   0  0  0  0  0  3  0  0  0  0  0  0
  194.9540  175.5350  145.9870 C   0  0  0  0  0  3  0  0  0  0  0  0
  192.7840  176.4910  145.5040 C   0  0  0  0  0  3  0  0  0  0  0  0
  194.1190  176.6510  145.8860 C   0  0  0  0  0  0  0  0  0  0  0  0
  194.6000  177.8860  146.1600 F   0  0  0  0  0  0  0  0  0  0  0  0
  192.2740  175.2150  145.2140 C   0  0  0  0  0  0  0  0  0  0  0  0
  188.2060  178.1850  142.2090 C   0  0  0  0  0  2  0  0  0  0  0  0
  187.6890  177.1690  141.2080 C   0  0  0  0  0  2  0  0  0  0  0  0
  186.2060  177.1180  141.2780 C   0  0  0  0  0  3  0  0  0  0  0  0
  185.4860  178.1320  140.8190 C   0  0  0  0  0  3  0  0  0  0  0  0
  183.2650  178.3940  141.9880 C   0  0  0  0  0  3  0  0  0  0  0  0
  181.9660  178.2350  141.5290 C   0  0  0  0  0  3  0  0  0  0  0  0
  181.9940  177.8800  140.2280 N   0  0  0  0  0  0  0  0  0  0  0  0
  183.2400  177.8140  139.8690 O   0  0  0  0  0  0  0  0  0  0  0  0
  184.0240  178.1100  140.8740 C   0  0  0  0  0  0  0  0  0  0  0  0
  1  4  1  0  0  0  0
  3  6  1  0  0  0  0
  3  5  1  0  0  0  0
  4 15  1  0  0  0  0
  4  9  2  0  0  0  0
  5 10  1  0  0  0  0
  6 12  2  0  0  0  0
  7  1  2  0  0  0  0
  7  6  1  0  0  0  0
  9 13  1  0  0  0  0
 10  8  1  0  0  0  0
 10  2  2  0  0  0  0
 11  3  2  0  0  0  0
 12  9  1  0  0  0  0
 12  8  1  0  0  0  0
 13 14  1  0  0  0  0
 15 22  1  0  0  0  0
 16 17  1  0  0  0  0
 17 18  2  0  0  0  0
 19 20  2  0  0  0  0
 20 18  1  0  0  0  0
 20 21  1  0  0  0  0
 22 16  2  0  0  0  0
 22 19  1  0  0  0  0
 23  7  1  0  0  0  0
 24 25  1  0  0  0  0
 24 23  1  0  0  0  0
 26 31  1  0  0  0  0
 26 25  2  0  0  0  0
 28 27  1  0  0  0  0
 29 28  2  0  0  0  0
 30 29  1  0  0  0  0
 30 31  1  0  0  0  0
 31 27  2  0  0  0  0
M  END
>  <MODEL>
4

>  <REMARK>
 VINA RESULT:      -7.4      2.265      6.025
  Name = 
  7 active torsions:
  status: ('A' for Active; 'I' for Inactive)
    1  A    between atoms: N_4  and  C_8
    2  A    between atoms: N_4  and  C_30
    3  A    between atoms: C_12  and  C_20
    4  A    between atoms: C_12  and  C_28
    5  A    between atoms: C_14  and  C_28
    6  A    between atoms: C_16  and  C_22
    7  A    between atoms: C_19  and  C_24
                            x       y       z     vdW  Elec       q    Type
                         _______ _______ _______ _____ _____    ______ ____

>  <TORSDO>
F 7

$$$$
=
 OpenBabel11042414013D

 31 34  0  0  0  0  0  0  0  0999 V2000
  190.1600  176.5180  145.6530 C   0  0  0  0  0  3  0  0  0  0  0  0
  190.3040  171.6440  141.9070 O   0  0  0  0  0  0  0  0  0  0  0  0
  191.9850  173.3950  144.4170 C   0  0  0  0  0  0  0  0  0  0  0  0
  189.2750  176.7720  144.6040 C   0  0  0  0  0  0  0  0  0  0  0  0
  192.0590  172.5470  143.1870 C   0  0  0  0  0  2  0  0  0  0  0  0
  191.0700  174.5790  144.4920 C   0  0  0  0  0  0  0  0  0  0  0  0
  191.0470  175.4440  145.6160 C   0  0  0  0  0  0  0  0  0  0  0  0
  190.1800  173.9790  142.1720 C   0  0  0  0  0  2  0  0  0  0  0  0
  189.2760  175.9230  143.4870 C   0  0  0  0  0  0  0  0  0  0  0  0
  190.7940  172.6410  142.4080 C   0  0  0  0  0  0  0  0  0  0  0  0
  192.7360  173.0890  145.3800 O   0  0  0  0  0  0  0  0  0  0  0  0
  190.1680  174.8300  143.4210 C   0  0  0  0  0  0  0  0  0  0  0  0
  188.3440  176.2110  142.3460 C   0  0  0  0  0  2  0  0  0  0  0  0
  187.1180  175.5830  142.5700 O   0  0  0  0  0  1  0  0  0  0  0  0
  188.3580  177.8810  144.6520 N   0  0  0  0  0  2  0  0  0  0  0  0
  186.7400  177.1770  146.3330 C   0  0  0  0  0  3  0  0  0  0  0  0
  185.4530  177.1770  146.8790 C   0  0  0  0  0  3  0  0  0  0  0  0
  184.4370  177.9220  146.2730 C   0  0  0  0  0  3  0  0  0  0  0  0
  185.9970  178.6620  144.5770 C   0  0  0  0  0  3  0  0  0  0  0  0
  184.7090  178.6640  145.1210 C   0  0  0  0  0  0  0  0  0  0  0  0
  183.7270  179.3850  144.5300 F   0  0  0  0  0  0  0  0  0  0  0  0
  187.0240  177.9200  145.1820 C   0  0  0  0  0  0  0  0  0  0  0  0
  191.9690  175.2940  146.7840 C   0  0  0  0  0  2  0  0  0  0  0  0
  192.9420  176.4580  146.8320 C   0  0  0  0  0  2  0  0  0  0  0  0
  194.2250  176.0540  146.2020 C   0  0  0  0  0  3  0  0  0  0  0  0
  194.4940  176.4150  144.9560 C   0  0  0  0  0  3  0  0  0  0  0  0
  196.3700  174.8080  144.4370 C   0  0  0  0  0  3  0  0  0  0  0  0
  197.5010  174.9490  143.6480 C   0  0  0  0  0  3  0  0  0  0  0  0
  197.5160  176.1850  143.1070 N   0  0  0  0  0  0  0  0  0  0  0  0
  196.4550  176.8050  143.5240 O   0  0  0  0  0  0  0  0  0  0  0  0
  195.7500  176.0320  144.3100 C   0  0  0  0  0  0  0  0  0  0  0  0
  2 10  2  0  0  0  0
  3  6  1  0  0  0  0
  3 11  2  0  0  0  0
  4 15  1  0  0  0  0
  4  1  2  0  0  0  0
  5  3  1  0  0  0  0
  6  7  2  0  0  0  0
  7  1  1  0  0  0  0
  7 23  1  0  0  0  0
  8 10  1  0  0  0  0
  8 12  1  0  0  0  0
  9  4  1  0  0  0  0
 10  5  1  0  0  0  0
 12  9  2  0  0  0  0
 12  6  1  0  0  0  0
 13 14  1  0  0  0  0
 13  9  1  0  0  0  0
 15 22  1  0  0  0  0
 16 17  1  0  0  0  0
 18 17  2  0  0  0  0
 19 20  2  0  0  0  0
 19 22  1  0  0  0  0
 20 18  1  0  0  0  0
 21 20  1  0  0  0  0
 22 16  2  0  0  0  0
 23 24  1  0  0  0  0
 25 24  1  0  0  0  0
 26 25  2  0  0  0  0
 28 27  1  0  0  0  0
 29 30  1  0  0  0  0
 29 28  2  0  0  0  0
 30 31  1  0  0  0  0
 31 27  2  0  0  0  0
 31 26  1  0  0  0  0
M  END
>  <MODEL>
5

>  <REMARK>
 VINA RESULT:      -7.3      3.054      6.317
  Name = 
  7 active torsions:
  status: ('A' for Active; 'I' for Inactive)
    1  A    between atoms: N_4  and  C_8
    2  A    between atoms: N_4  and  C_30
    3  A    between atoms: C_12  and  C_20
    4  A    between atoms: C_12  and  C_28
    5  A    between atoms: C_14  and  C_28
    6  A    between atoms: C_16  and  C_22
    7  A    between atoms: C_19  and  C_24
                            x       y       z     vdW  Elec       q    Type
                         _______ _______ _______ _____ _____    ______ ____

>  <TORSDO>
F 7

$$$$
=
 OpenBabel11042414013D

 31 34  0  0  0  0  0  0  0  0999 V2000
  187.6900  177.5980  142.5140 C   0  0  0  0  0  3  0  0  0  0  0  0
  185.9460  177.3060  148.4030 O   0  0  0  0  0  0  0  0  0  0  0  0
  185.5450  178.9750  145.3620 C   0  0  0  0  0  0  0  0  0  0  0  0
  188.6770  176.8950  143.2060 C   0  0  0  0  0  0  0  0  0  0  0  0
  185.5630  179.0380  146.8570 C   0  0  0  0  0  2  0  0  0  0  0  0
  186.6300  178.2790  144.5990 C   0  0  0  0  0  0  0  0  0  0  0  0
  186.6760  178.2820  143.1810 C   0  0  0  0  0  0  0  0  0  0  0  0
  187.6700  177.5640  146.8220 C   0  0  0  0  0  2  0  0  0  0  0  0
  188.6440  176.8720  144.6090 C   0  0  0  0  0  0  0  0  0  0  0  0
  186.3470  177.9040  147.4190 C   0  0  0  0  0  0  0  0  0  0  0  0
  184.5940  179.5490  144.7680 O   0  0  0  0  0  0  0  0  0  0  0  0
  187.6300  177.5610  145.3110 C   0  0  0  0  0  0  0  0  0  0  0  0
  189.7200  176.1390  145.3560 C   0  0  0  0  0  2  0  0  0  0  0  0
  189.3220  174.8210  145.5810 O   0  0  0  0  0  1  0  0  0  0  0  0
  189.7180  176.1870  142.5090 N   0  0  0  0  0  2  0  0  0  0  0  0
  190.6070  173.9220  142.3730 C   0  0  0  0  0  3  0  0  0  0  0  0
  190.6120  172.6320  141.8320 C   0  0  0  0  0  3  0  0  0  0  0  0
  189.6880  172.2850  140.8430 C   0  0  0  0  0  3  0  0  0  0  0  0
  188.7570  174.5170  140.9350 C   0  0  0  0  0  3  0  0  0  0  0  0
  188.7600  173.2280  140.3950 C   0  0  0  0  0  0  0  0  0  0  0  0
  187.8640  172.8960  139.4350 F   0  0  0  0  0  0  0  0  0  0  0  0
  189.6790  174.8720  141.9330 C   0  0  0  0  0  0  0  0  0  0  0  0
  185.6960  179.0270  142.3320 C   0  0  0  0  0  2  0  0  0  0  0  0
  184.9340  178.0600  141.4450 C   0  0  0  0  0  2  0  0  0  0  0  0
  183.4770  178.2070  141.6950 C   0  0  0  0  0  3  0  0  0  0  0  0
  182.6390  178.3190  140.6750 C   0  0  0  0  0  3  0  0  0  0  0  0
  180.6140  179.1880  141.9050 C   0  0  0  0  0  3  0  0  0  0  0  0
  179.2590  179.0120  141.6730 C   0  0  0  0  0  3  0  0  0  0  0  0
  179.0900  178.2320  140.5860 N   0  0  0  0  0  0  0  0  0  0  0  0
  180.2710  177.9220  140.1430 O   0  0  0  0  0  0  0  0  0  0  0  0
  181.1980  178.4640  140.8890 C   0  0  0  0  0  0  0  0  0  0  0  0
  1  7  2  0  0  0  0
  1  4  1  0  0  0  0
  3  5  1  0  0  0  0
  4  9  2  0  0  0  0
  5 10  1  0  0  0  0
  6 12  2  0  0  0  0
  6  3  1  0  0  0  0
  7  6  1  0  0  0  0
  8 10  1  0  0  0  0
  9 12  1  0  0  0  0
  9 13  1  0  0  0  0
 10  2  2  0  0  0  0
 11  3  2  0  0  0  0
 12  8  1  0  0  0  0
 13 14  1  0  0  0  0
 15  4  1  0  0  0  0
 17 16  2  0  0  0  0
 18 17  1  0  0  0  0
 19 22  2  0  0  0  0
 20 18  2  0  0  0  0
 20 19  1  0  0  0  0
 21 20  1  0  0  0  0
 22 16  1  0  0  0  0
 22 15  1  0  0  0  0
 23  7  1  0  0  0  0
 24 25  1  0  0  0  0
 24 23  1  0  0  0  0
 26 31  1  0  0  0  0
 26 25  2  0  0  0  0
 28 27  1  0  0  0  0
 29 28  2  0  0  0  0
 30 29  1  0  0  0  0
 30 31  1  0  0  0  0
 31 27  2  0  0  0  0
M  END
>  <MODEL>
6

>  <REMARK>
 VINA RESULT:      -7.2      3.350      7.658
  Name = 
  7 active torsions:
  status: ('A' for Active; 'I' for Inactive)
    1  A    between atoms: N_4  and  C_8
    2  A    between atoms: N_4  and  C_30
    3  A    between atoms: C_12  and  C_20
    4  A    between atoms: C_12  and  C_28
    5  A    between atoms: C_14  and  C_28
    6  A    between atoms: C_16  and  C_22
    7  A    between atoms: C_19  and  C_24
                            x       y       z     vdW  Elec       q    Type
                         _______ _______ _______ _____ _____    ______ ____

>  <TORSDO>
F 7

$$$$
=
 OpenBabel11042414013D

 31 34  0  0  0  0  0  0  0  0999 V2000
  188.6210  175.7010  144.7000 C   0  0  0  0  0  3  0  0  0  0  0  0
  183.9680  179.7120  144.4430 O   0  0  0  0  0  0  0  0  0  0  0  0
  185.7190  177.4610  146.4580 C   0  0  0  0  0  0  0  0  0  0  0  0
  188.2950  175.8750  143.3540 C   0  0  0  0  0  0  0  0  0  0  0  0
  184.4180  178.1110  146.1080 C   0  0  0  0  0  2  0  0  0  0  0  0
  186.6130  176.8880  145.4000 C   0  0  0  0  0  0  0  0  0  0  0  0
  187.8080  176.1930  145.7180 C   0  0  0  0  0  0  0  0  0  0  0  0
  184.9910  177.7560  143.6260 C   0  0  0  0  0  2  0  0  0  0  0  0
  187.1210  176.5680  143.0180 C   0  0  0  0  0  0  0  0  0  0  0  0
  184.4480  178.6240  144.7110 C   0  0  0  0  0  0  0  0  0  0  0  0
  186.0260  177.3940  147.6770 O   0  0  0  0  0  0  0  0  0  0  0  0
  186.2760  177.0730  144.0310 C   0  0  0  0  0  0  0  0  0  0  0  0
  186.7560  176.7330  141.5720 C   0  0  0  0  0  2  0  0  0  0  0  0
  187.3680  177.8760  141.0600 O   0  0  0  0  0  1  0  0  0  0  0  0
  189.1440  175.3680  142.3070 N   0  0  0  0  0  2  0  0  0  0  0  0
  191.4220  174.5250  142.5030 C   0  0  0  0  0  3  0  0  0  0  0  0
  192.3480  173.4780  142.5400 C   0  0  0  0  0  3  0  0  0  0  0  0
  191.9130  172.1560  142.4190 C   0  0  0  0  0  3  0  0  0  0  0  0
  189.6280  172.9290  142.2250 C   0  0  0  0  0  3  0  0  0  0  0  0
  190.5520  171.8810  142.2620 C   0  0  0  0  0  0  0  0  0  0  0  0
  190.1270  170.6010  142.1430 F   0  0  0  0  0  0  0  0  0  0  0  0
  190.0570  174.2600  142.3500 C   0  0  0  0  0  0  0  0  0  0  0  0
  188.2450  175.9140  147.1210 C   0  0  0  0  0  2  0  0  0  0  0  0
  189.2070  174.7420  147.1430 C   0  0  0  0  0  2  0  0  0  0  0  0
  190.6030  175.2500  147.1630 C   0  0  0  0  0  3  0  0  0  0  0  0
  191.4870  174.7910  146.2880 C   0  0  0  0  0  3  0  0  0  0  0  0
  193.9530  174.5750  145.7990 C   0  0  0  0  0  3  0  0  0  0  0  0
  195.0080  175.4470  146.0200 C   0  0  0  0  0  3  0  0  0  0  0  0
  194.5410  176.5740  146.5960 N   0  0  0  0  0  0  0  0  0  0  0  0
  193.2590  176.4350  146.7390 O   0  0  0  0  0  0  0  0  0  0  0  0
  192.8680  175.2730  146.2830 C   0  0  0  0  0  0  0  0  0  0  0  0
  1  7  1  0  0  0  0
  2 10  2  0  0  0  0
  3 11  2  0  0  0  0
  4  1  2  0  0  0  0
  5  3  1  0  0  0  0
  6  7  2  0  0  0  0
  6  3  1  0  0  0  0
  7 23  1  0  0  0  0
  8 12  1  0  0  0  0
  8 10  1  0  0  0  0
  9  4  1  0  0  0  0
  9 12  2  0  0  0  0
 10  5  1  0  0  0  0
 12  6  1  0  0  0  0
 13  9  1  0  0  0  0
 14 13  1  0  0  0  0
 15 22  1  0  0  0  0
 15  4  1  0  0  0  0
 16 17  1  0  0  0  0
 18 17  2  0  0  0  0
 19 20  2  0  0  0  0
 19 22  1  0  0  0  0
 20 18  1  0  0  0  0
 21 20  1  0  0  0  0
 22 16  2  0  0  0  0
 23 24  1  0  0  0  0
 24 25  1  0  0  0  0
 26 25  2  0  0  0  0
 27 28  1  0  0  0  0
 27 31  2  0  0  0  0
 28 29  2  0  0  0  0
 29 30  1  0  0  0  0
 31 26  1  0  0  0  0
 31 30  1  0  0  0  0
M  END
>  <MODEL>
7

>  <REMARK>
 VINA RESULT:      -7.2      2.610      4.838
  Name = 
  7 active torsions:
  status: ('A' for Active; 'I' for Inactive)
    1  A    between atoms: N_4  and  C_8
    2  A    between atoms: N_4  and  C_30
    3  A    between atoms: C_12  and  C_20
    4  A    between atoms: C_12  and  C_28
    5  A    between atoms: C_14  and  C_28
    6  A    between atoms: C_16  and  C_22
    7  A    between atoms: C_19  and  C_24
                            x       y       z     vdW  Elec       q    Type
                         _______ _______ _______ _____ _____    ______ ____

>  <TORSDO>
F 7

$$$$
=
 OpenBabel11042414013D

 31 34  0  0  0  0  0  0  0  0999 V2000
  188.9600  175.6640  144.4960 C   0  0  0  0  0  3  0  0  0  0  0  0
  184.0890  179.4170  144.4690 O   0  0  0  0  0  0  0  0  0  0  0  0
  186.0100  177.2070  146.3730 C   0  0  0  0  0  0  0  0  0  0  0  0
  188.5920  175.8600  143.1640 C   0  0  0  0  0  0  0  0  0  0  0  0
  184.6670  177.7950  146.0720 C   0  0  0  0  0  2  0  0  0  0  0  0
  186.9070  176.7170  145.2780 C   0  0  0  0  0  0  0  0  0  0  0  0
  188.1460  176.0800  145.5470 C   0  0  0  0  0  0  0  0  0  0  0  0
  185.1970  177.5460  143.5680 C   0  0  0  0  0  2  0  0  0  0  0  0
  187.3740  176.4960  142.8760 C   0  0  0  0  0  0  0  0  0  0  0  0
  184.6340  178.3500  144.6920 C   0  0  0  0  0  0  0  0  0  0  0  0
  186.3480  177.1210  147.5820 O   0  0  0  0  0  0  0  0  0  0  0  0
  186.5270  176.9240  143.9230 C   0  0  0  0  0  0  0  0  0  0  0  0
  186.9650  176.6840  141.4450 C   0  0  0  0  0  2  0  0  0  0  0  0
  187.4290  177.9150  140.9800 O   0  0  0  0  0  1  0  0  0  0  0  0
  189.4420  175.4320  142.0830 N   0  0  0  0  0  2  0  0  0  0  0  0
  190.9780  173.5470  141.9300 C   0  0  0  0  0  3  0  0  0  0  0  0
  192.2630  172.9990  141.9890 C   0  0  0  0  0  3  0  0  0  0  0  0
  193.3610  173.8180  142.2660 C   0  0  0  0  0  3  0  0  0  0  0  0
  191.8870  175.7310  142.4250 C   0  0  0  0  0  3  0  0  0  0  0  0
  193.1730  175.1850  142.4840 C   0  0  0  0  0  0  0  0  0  0  0  0
  194.2340  175.9820  142.7550 F   0  0  0  0  0  0  0  0  0  0  0  0
  190.7800  174.9150  142.1430 C   0  0  0  0  0  0  0  0  0  0  0  0
  188.6310  175.7840  146.9300 C   0  0  0  0  0  2  0  0  0  0  0  0
  189.8250  176.6580  147.2620 C   0  0  0  0  0  2  0  0  0  0  0  0
  191.0730  175.8670  147.1120 C   0  0  0  0  0  3  0  0  0  0  0  0
  192.0020  176.2530  146.2490 C   0  0  0  0  0  3  0  0  0  0  0  0
  194.5130  176.0210  146.1430 C   0  0  0  0  0  3  0  0  0  0  0  0
  195.3200  174.9160  145.9220 C   0  0  0  0  0  3  0  0  0  0  0  0
  194.5450  173.8260  145.7460 N   0  0  0  0  0  0  0  0  0  0  0  0
  193.3080  174.2080  145.8470 O   0  0  0  0  0  0  0  0  0  0  0  0
  193.2420  175.4930  146.0810 C   0  0  0  0  0  0  0  0  0  0  0  0
  1  7  1  0  0  0  0
  2 10  2  0  0  0  0
  3 11  2  0  0  0  0
  4  1  2  0  0  0  0
  5  3  1  0  0  0  0
  6  7  2  0  0  0  0
  6  3  1  0  0  0  0
  7 23  1  0  0  0  0
  8 12  1  0  0  0  0
  8 10  1  0  0  0  0
  9  4  1  0  0  0  0
  9 12  2  0  0  0  0
 10  5  1  0  0  0  0
 12  6  1  0  0  0  0
 13  9  1  0  0  0  0
 14 13  1  0  0  0  0
 15 22  1  0  0  0  0
 15  4  1  0  0  0  0
 16 17  2  0  0  0  0
 16 22  1  0  0  0  0
 17 18  1  0  0  0  0
 18 20  2  0  0  0  0
 19 20  1  0  0  0  0
 20 21  1  0  0  0  0
 22 19  2  0  0  0  0
 23 24  1  0  0  0  0
 25 24  1  0  0  0  0
 26 25  2  0  0  0  0
 28 27  1  0  0  0  0
 29 30  1  0  0  0  0
 29 28  2  0  0  0  0
 30 31  1  0  0  0  0
 31 27  2  0  0  0  0
 31 26  1  0  0  0  0
M  END
>  <MODEL>
8

>  <REMARK>
 VINA RESULT:      -7.1      2.181      4.613
  Name = 
  7 active torsions:
  status: ('A' for Active; 'I' for Inactive)
    1  A    between atoms: N_4  and  C_8
    2  A    between atoms: N_4  and  C_30
    3  A    between atoms: C_12  and  C_20
    4  A    between atoms: C_12  and  C_28
    5  A    between atoms: C_14  and  C_28
    6  A    between atoms: C_16  and  C_22
    7  A    between atoms: C_19  and  C_24
                            x       y       z     vdW  Elec       q    Type
                         _______ _______ _______ _____ _____    ______ ____

>  <TORSDO>
F 7

$$$$
=
 OpenBabel11042414013D

 31 34  0  0  0  0  0  0  0  0999 V2000
  189.5030  174.2320  145.7900 C   0  0  0  0  0  3  0  0  0  0  0  0
  194.8610  177.2420  145.6220 O   0  0  0  0  0  0  0  0  0  0  0  0
  193.2210  174.2440  144.9060 C   0  0  0  0  0  0  0  0  0  0  0  0
  189.4160  175.2880  146.6970 C   0  0  0  0  0  0  0  0  0  0  0  0
  194.4770  174.9400  145.3280 C   0  0  0  0  0  2  0  0  0  0  0  0
  191.9000  174.5760  145.5290 C   0  0  0  0  0  0  0  0  0  0  0  0
  190.7140  173.8690  145.2040 C   0  0  0  0  0  0  0  0  0  0  0  0
  193.0530  176.4150  146.8800 C   0  0  0  0  0  2  0  0  0  0  0  0
  190.5760  176.0060  147.0260 C   0  0  0  0  0  0  0  0  0  0  0  0
  194.1670  176.2790  145.8980 C   0  0  0  0  0  0  0  0  0  0  0  0
  193.3200  173.3520  144.0230 O   0  0  0  0  0  0  0  0  0  0  0  0
  191.8190  175.6570  146.4510 C   0  0  0  0  0  0  0  0  0  0  0  0
  190.4890  177.1250  148.0220 C   0  0  0  0  0  2  0  0  0  0  0  0
  189.9580  178.2600  147.4100 O   0  0  0  0  0  1  0  0  0  0  0  0
  188.1590  175.6600  147.2940 N   0  0  0  0  0  2  0  0  0  0  0  0
  186.2900  177.1890  147.6170 C   0  0  0  0  0  3  0  0  0  0  0  0
  185.2460  177.9790  147.1250 C   0  0  0  0  0  3  0  0  0  0  0  0
  185.0120  178.0480  145.7490 C   0  0  0  0  0  3  0  0  0  0  0  0
  186.8610  176.5360  145.3610 C   0  0  0  0  0  3  0  0  0  0  0  0
  185.8190  177.3260  144.8670 C   0  0  0  0  0  0  0  0  0  0  0  0
  185.5930  177.3890  143.5330 F   0  0  0  0  0  0  0  0  0  0  0  0
  187.1060  176.4650  146.7420 C   0  0  0  0  0  0  0  0  0  0  0  0
  190.6870  172.6990  144.2740 C   0  0  0  0  0  2  0  0  0  0  0  0
  189.5680  172.8640  143.2620 C   0  0  0  0  0  2  0  0  0  0  0  0
  189.4540  174.2950  142.8820 C   0  0  0  0  0  3  0  0  0  0  0  0
  188.3620  174.7330  142.2700 C   0  0  0  0  0  3  0  0  0  0  0  0
  188.9950  177.1740  142.3580 C   0  0  0  0  0  3  0  0  0  0  0  0
  188.4720  178.2770  141.7010 C   0  0  0  0  0  3  0  0  0  0  0  0
  187.4590  177.8820  140.9030 N   0  0  0  0  0  0  0  0  0  0  0  0
  187.3360  176.5970  141.0380 O   0  0  0  0  0  0  0  0  0  0  0  0
  188.2200  176.1370  141.8850 C   0  0  0  0  0  0  0  0  0  0  0  0
  1  4  1  0  0  0  0
  2 10  2  0  0  0  0
  3  5  1  0  0  0  0
  3  6  1  0  0  0  0
  4  9  2  0  0  0  0
  4 15  1  0  0  0  0
  5 10  1  0  0  0  0
  6 12  2  0  0  0  0
  7  6  1  0  0  0  0
  7  1  2  0  0  0  0
  9 13  1  0  0  0  0
 10  8  1  0  0  0  0
 11  3  2  0  0  0  0
 12  8  1  0  0  0  0
 12  9  1  0  0  0  0
 14 13  1  0  0  0  0
 17 16  1  0  0  0  0
 18 17  2  0  0  0  0
 19 22  1  0  0  0  0
 20 19  2  0  0  0  0
 20 18  1  0  0  0  0
 21 20  1  0  0  0  0
 22 15  1  0  0  0  0
 22 16  2  0  0  0  0
 23  7  1  0  0  0  0
 24 23  1  0  0  0  0
 25 24  1  0  0  0  0
 26 25  2  0  0  0  0
 28 27  1  0  0  0  0
 29 30  1  0  0  0  0
 29 28  2  0  0  0  0
 30 31  1  0  0  0  0
 31 26  1  0  0  0  0
 31 27  2  0  0  0  0
M  END
>  <MODEL>
9

>  <REMARK>
 VINA RESULT:      -7.1      2.928      6.881
  Name = 
  7 active torsions:
  status: ('A' for Active; 'I' for Inactive)
    1  A    between atoms: N_4  and  C_8
    2  A    between atoms: N_4  and  C_30
    3  A    between atoms: C_12  and  C_20
    4  A    between atoms: C_12  and  C_28
    5  A    between atoms: C_14  and  C_28
    6  A    between atoms: C_16  and  C_22
    7  A    between atoms: C_19  and  C_24
                            x       y       z     vdW  Elec       q    Type
                         _______ _______ _______ _____ _____    ______ ____

>  <TORSDO>
F 7

$$$$
