=
 OpenBabel11042414053D

 31 35  0  0  1  0  0  0  0  0999 V2000
  188.2590  175.5330  147.3830 C   0  0  0  0  0  2  0  0  0  0  0  0
  189.5580  174.8360  146.9470 C   0  0  0  0  0  2  0  0  0  0  0  0
  189.8910  175.0330  145.4580 C   0  0  2  0  0  3  0  0  0  0  0  0
  187.9770  176.7740  146.5390 C   0  0  0  0  0  2  0  0  0  0  0  0
  188.6060  175.1600  144.6410 C   0  0  0  0  0  2  0  0  0  0  0  0
  187.8230  176.4200  145.0510 C   0  0  2  0  0  3  0  0  0  0  0  0
  192.8770  175.1770  144.3810 N   0  0  0  0  0  0  0  0  0  0  0  0
  190.6510  173.3810  142.2910 C   0  0  2  0  0  3  0  0  0  0  0  0
  193.5170  175.3840  143.2070 C   0  0  0  0  0  0  0  0  0  0  0  0
  189.8190  172.7900  143.8260 S   0  0  0  0  0  0  0  0  0  0  0  0
  191.7700  174.2060  142.7840 C   0  0  0  0  0  0  0  0  0  0  0  0
  192.8410  174.7870  142.1360 C   0  0  0  0  0  3  0  0  0  0  0  0
  190.7880  173.9100  144.9300 C   0  0  1  0  0  3  0  0  0  0  0  0
  191.8190  174.4550  144.0760 N   0  0  0  0  0  0  0  0  0  0  0  0
  195.3750  176.4520  144.4380 C   0  0  0  0  0  2  0  0  0  0  0  0
  195.9590  175.4020  143.5200 C   0  0  2  0  0  3  0  0  0  0  0  0
  197.1980  175.9590  142.8490 C   0  0  0  0  0  1  0  0  0  0  0  0
  194.7550  176.2110  143.0750 C   0  0  1  0  0  3  0  0  0  0  0  0
  189.4970  174.4250  141.3500 S   0  0  0  0  0  0  0  0  0  0  0  0
  188.1500  173.2180  141.4990 C   0  0  0  0  0  1  0  0  0  0  0  0
  189.3120  177.3380  143.4010 O   0  0  0  0  0  1  0  0  0  0  0  0
  188.1860  177.6300  144.1810 C   0  0  1  0  0  3  0  0  0  0  0  0
  186.9950  178.0630  143.2980 C   0  0  1  0  0  3  0  0  0  0  0  0
  185.4950  177.5380  141.4330 O   0  0  0  0  0  0  0  0  0  0  0  0
  186.7750  177.2550  140.9250 C   0  0  0  0  0  2  0  0  0  0  0  0
  186.4240  176.9930  142.3420 C   0  0  1  0  0  3  0  0  0  0  0  0
  185.7570  180.0340  144.0110 C   0  0  0  0  0  2  0  0  0  0  0  0
  185.8940  178.7130  144.0800 C   0  0  0  0  0  0  0  0  0  0  0  0
  185.0410  177.9230  144.8610 O   0  0  0  0  0  0  0  0  0  0  0  0
  184.7470  178.3940  147.1920 C   0  0  0  0  0  1  0  0  0  0  0  0
  184.1340  178.4670  145.8100 C   0  0  0  0  0  2  0  0  0  0  0  0
  2  1  1  0  0  0  0
  3  5  1  6  0  0  0
  3  2  1  0  0  0  0
  4  1  1  0  0  0  0
  5  6  1  0  0  0  0
  6 22  1  6  0  0  0
  6  4  1  0  0  0  0
  8 19  1  6  0  0  0
  8 11  1  0  0  0  0
  8 10  1  0  0  0  0
  9  7  2  0  0  0  0
 11 14  1  0  0  0  0
 12 11  2  0  0  0  0
 12  9  1  0  0  0  0
 13 10  1  6  0  0  0
 13  3  1  0  0  0  0
 14  7  1  0  0  0  0
 14 13  1  0  0  0  0
 16 17  1  6  0  0  0
 16 15  1  0  0  0  0
 18  9  1  1  0  0  0
 18 16  1  0  0  0  0
 18 15  1  0  0  0  0
 19 20  1  0  0  0  0
 22 21  1  6  0  0  0
 23 28  1  1  0  0  0
 23 22  1  0  0  0  0
 24 26  1  0  0  0  0
 25 24  1  0  0  0  0
 25 26  1  0  0  0  0
 26 23  1  1  0  0  0
 27 28  2  0  0  0  0
 28 29  1  0  0  0  0
 29 31  1  0  0  0  0
 31 30  1  0  0  0  0
M  END
>  <MODEL>
1

>  <REMARK>
 VINA RESULT:      -6.6      0.000      0.000
  Name = 
  9 active torsions:
  status: ('A' for Active; 'I' for Inactive)
    1  A    between atoms: C_4  and  S_22
    2  A    between atoms: C_10  and  C_21
    3  A    between atoms: C_13  and  C_25
    4  A    between atoms: C_16  and  C_20
    5  A    between atoms: C_16  and  C_27
    6  A    between atoms: C_17  and  C_20
    7  A    between atoms: C_17  and  O_31
    8  A    between atoms: C_20  and  C_30
    9  A    between atoms: C_29  and  O_31
                            x       y       z     vdW  Elec       q    Type
                         _______ _______ _______ _____ _____    ______ ____

>  <TORSDO>
F 9

$$$$
=
 OpenBabel11042414053D

 31 35  0  0  1  0  0  0  0  0999 V2000
  190.0210  177.5040  147.0810 C   0  0  0  0  0  2  0  0  0  0  0  0
  190.9050  176.5430  146.2700 C   0  0  0  0  0  2  0  0  0  0  0  0
  190.1110  175.4550  145.5270 C   0  0  2  0  0  3  0  0  0  0  0  0
  188.6330  177.6490  146.4600 C   0  0  0  0  0  2  0  0  0  0  0  0
  188.8500  175.0930  146.3110 C   0  0  0  0  0  2  0  0  0  0  0  0
  187.8990  176.3000  146.3990 C   0  0  2  0  0  3  0  0  0  0  0  0
  193.0610  175.2880  144.3590 N   0  0  0  0  0  0  0  0  0  0  0  0
  190.7430  173.1100  142.8010 C   0  0  2  0  0  3  0  0  0  0  0  0
  193.6640  175.2090  143.1500 C   0  0  0  0  0  0  0  0  0  0  0  0
  189.9550  172.9010  144.4540 S   0  0  0  0  0  0  0  0  0  0  0  0
  191.8890  174.0020  143.0590 C   0  0  0  0  0  0  0  0  0  0  0  0
  192.9460  174.3980  142.2650 C   0  0  0  0  0  3  0  0  0  0  0  0
  190.9750  174.2230  145.2440 C   0  0  1  0  0  3  0  0  0  0  0  0
  191.9840  174.5390  144.2580 N   0  0  0  0  0  0  0  0  0  0  0  0
  195.8020  176.1020  144.0140 C   0  0  0  0  0  2  0  0  0  0  0  0
  196.1150  175.0550  142.9680 C   0  0  2  0  0  3  0  0  0  0  0  0
  197.2340  175.5570  142.0790 C   0  0  0  0  0  1  0  0  0  0  0  0
  194.9080  175.9590  142.7960 C   0  0  1  0  0  3  0  0  0  0  0  0
  189.5730  173.9350  141.6800 S   0  0  0  0  0  0  0  0  0  0  0  0
  188.2440  172.7590  142.0650 C   0  0  0  0  0  1  0  0  0  0  0  0
  185.5780  176.4160  145.7830 O   0  0  0  0  0  1  0  0  0  0  0  0
  186.8730  176.3080  145.2600 C   0  0  1  0  0  3  0  0  0  0  0  0
  187.1620  177.4420  144.2530 C   0  0  1  0  0  3  0  0  0  0  0  0
  188.1060  178.1340  142.1000 O   0  0  0  0  0  0  0  0  0  0  0  0
  189.2350  177.8200  142.8780 C   0  0  0  0  0  2  0  0  0  0  0  0
  187.9710  177.0540  142.9950 C   0  0  1  0  0  3  0  0  0  0  0  0
  185.8020  179.4600  144.3140 C   0  0  0  0  0  2  0  0  0  0  0  0
  185.9340  178.2130  143.8730 C   0  0  0  0  0  0  0  0  0  0  0  0
  184.9600  177.6090  143.0680 O   0  0  0  0  0  0  0  0  0  0  0  0
  184.8610  178.2050  140.7490 C   0  0  0  0  0  1  0  0  0  0  0  0
  184.1980  178.3240  142.1050 C   0  0  0  0  0  2  0  0  0  0  0  0
  2  1  1  0  0  0  0
  3  2  1  1  0  0  0
  3  5  1  0  0  0  0
  4  1  1  0  0  0  0
  5  6  1  0  0  0  0
  6 22  1  6  0  0  0
  6  4  1  0  0  0  0
  8 19  1  6  0  0  0
  8 11  1  0  0  0  0
  8 10  1  0  0  0  0
  9  7  2  0  0  0  0
 11 14  1  0  0  0  0
 12 11  2  0  0  0  0
 12  9  1  0  0  0  0
 13 10  1  6  0  0  0
 13  3  1  0  0  0  0
 14  7  1  0  0  0  0
 14 13  1  0  0  0  0
 16 17  1  6  0  0  0
 16 15  1  0  0  0  0
 18 16  1  0  0  0  0
 18  9  1  1  0  0  0
 18 15  1  0  0  0  0
 19 20  1  0  0  0  0
 22 21  1  1  0  0  0
 23 28  1  6  0  0  0
 23 22  1  0  0  0  0
 24 25  1  0  0  0  0
 24 26  1  0  0  0  0
 25 26  1  0  0  0  0
 26 23  1  1  0  0  0
 28 27  2  0  0  0  0
 29 28  1  0  0  0  0
 30 31  1  0  0  0  0
 31 29  1  0  0  0  0
M  END
>  <MODEL>
2

>  <REMARK>
 VINA RESULT:      -6.3      1.249      2.040
  Name = 
  9 active torsions:
  status: ('A' for Active; 'I' for Inactive)
    1  A    between atoms: C_4  and  S_22
    2  A    between atoms: C_10  and  C_21
    3  A    between atoms: C_13  and  C_25
    4  A    between atoms: C_16  and  C_20
    5  A    between atoms: C_16  and  C_27
    6  A    between atoms: C_17  and  C_20
    7  A    between atoms: C_17  and  O_31
    8  A    between atoms: C_20  and  C_30
    9  A    between atoms: C_29  and  O_31
                            x       y       z     vdW  Elec       q    Type
                         _______ _______ _______ _____ _____    ______ ____

>  <TORSDO>
F 9

$$$$
=
 OpenBabel11042414053D

 31 35  0  0  1  0  0  0  0  0999 V2000
  191.4420  176.2260  147.9930 C   0  0  0  0  0  2  0  0  0  0  0  0
  192.3200  175.5050  146.9580 C   0  0  0  0  0  2  0  0  0  0  0  0
  191.5910  175.2020  145.6380 C   0  0  2  0  0  3  0  0  0  0  0  0
  190.3720  177.0840  147.3220 C   0  0  0  0  0  2  0  0  0  0  0  0
  190.1040  174.9620  145.8980 C   0  0  0  0  0  2  0  0  0  0  0  0
  189.4360  176.2350  146.4460 C   0  0  2  0  0  3  0  0  0  0  0  0
  193.8800  175.2120  143.4340 N   0  0  0  0  0  0  0  0  0  0  0  0
  191.0570  173.2390  142.6060 C   0  0  2  0  0  3  0  0  0  0  0  0
  193.9830  175.2970  142.0870 C   0  0  0  0  0  0  0  0  0  0  0  0
  190.9370  172.8100  144.3940 S   0  0  0  0  0  0  0  0  0  0  0  0
  192.2520  174.0990  142.5220 C   0  0  0  0  0  0  0  0  0  0  0  0
  192.9510  174.6040  141.4440 C   0  0  0  0  0  3  0  0  0  0  0  0
  192.2340  174.0240  144.9000 C   0  0  1  0  0  3  0  0  0  0  0  0
  192.8120  174.4740  143.6540 N   0  0  0  0  0  0  0  0  0  0  0  0
  196.1780  176.4060  142.3340 C   0  0  0  0  0  2  0  0  0  0  0  0
  196.3220  175.2960  141.3170 C   0  0  2  0  0  3  0  0  0  0  0  0
  197.1450  175.7940  140.1480 C   0  0  0  0  0  1  0  0  0  0  0  0
  195.0340  176.0970  141.3870 C   0  0  1  0  0  3  0  0  0  0  0  0
  189.5880  174.1950  142.1200 S   0  0  0  0  0  0  0  0  0  0  0  0
  188.4940  172.7560  142.2800 C   0  0  0  0  0  1  0  0  0  0  0  0
  189.4840  176.8290  144.1170 O   0  0  0  0  0  1  0  0  0  0  0  0
  188.8340  177.0950  145.3290 C   0  0  1  0  0  3  0  0  0  0  0  0
  187.3120  176.8680  145.2040 C   0  0  1  0  0  3  0  0  0  0  0  0
  185.1050  177.0950  146.2450 O   0  0  0  0  0  0  0  0  0  0  0  0
  185.9390  176.6960  147.3060 C   0  0  0  0  0  2  0  0  0  0  0  0
  186.4210  177.5990  146.2330 C   0  0  1  0  0  3  0  0  0  0  0  0
  186.3730  176.0410  143.1150 C   0  0  0  0  0  2  0  0  0  0  0  0
  186.8000  177.0890  143.8120 C   0  0  0  0  0  0  0  0  0  0  0  0
  186.7840  178.3850  143.2800 O   0  0  0  0  0  0  0  0  0  0  0  0
  185.3740  180.1250  144.1310 C   0  0  0  0  0  1  0  0  0  0  0  0
  185.5840  179.1060  143.0330 C   0  0  0  0  0  2  0  0  0  0  0  0
  2  1  1  0  0  0  0
  3  5  1  1  0  0  0
  3  2  1  0  0  0  0
  4  1  1  0  0  0  0
  5  6  1  0  0  0  0
  6 22  1  6  0  0  0
  6  4  1  0  0  0  0
  7 14  1  0  0  0  0
  8 19  1  1  0  0  0
  8 10  1  0  0  0  0
  9  7  2  0  0  0  0
 11  8  1  0  0  0  0
 11 14  1  0  0  0  0
 12  9  1  0  0  0  0
 12 11  2  0  0  0  0
 13 10  1  6  0  0  0
 13  3  1  0  0  0  0
 14 13  1  0  0  0  0
 16 17  1  6  0  0  0
 16 18  1  0  0  0  0
 16 15  1  0  0  0  0
 18  9  1  1  0  0  0
 18 15  1  0  0  0  0
 19 20  1  0  0  0  0
 22 21  1  6  0  0  0
 23 28  1  6  0  0  0
 23 22  1  0  0  0  0
 24 25  1  0  0  0  0
 26 23  1  6  0  0  0
 26 24  1  0  0  0  0
 26 25  1  0  0  0  0
 27 28  2  0  0  0  0
 29 28  1  0  0  0  0
 31 29  1  0  0  0  0
 31 30  1  0  0  0  0
M  END
>  <MODEL>
3

>  <REMARK>
 VINA RESULT:      -6.1      1.554      2.580
  Name = 
  9 active torsions:
  status: ('A' for Active; 'I' for Inactive)
    1  A    between atoms: C_4  and  S_22
    2  A    between atoms: C_10  and  C_21
    3  A    between atoms: C_13  and  C_25
    4  A    between atoms: C_16  and  C_20
    5  A    between atoms: C_16  and  C_27
    6  A    between atoms: C_17  and  C_20
    7  A    between atoms: C_17  and  O_31
    8  A    between atoms: C_20  and  C_30
    9  A    between atoms: C_29  and  O_31
                            x       y       z     vdW  Elec       q    Type
                         _______ _______ _______ _____ _____    ______ ____

>  <TORSDO>
F 9

$$$$
=
 OpenBabel11042414053D

 31 35  0  0  1  0  0  0  0  0999 V2000
  192.0210  176.1410  147.7390 C   0  0  0  0  0  2  0  0  0  0  0  0
  190.8860  176.7550  146.9050 C   0  0  0  0  0  2  0  0  0  0  0  0
  191.0380  176.5200  145.3920 C   0  0  2  0  0  3  0  0  0  0  0  0
  192.6130  174.9070  147.0600 C   0  0  0  0  0  2  0  0  0  0  0  0
  192.5170  176.4580  145.0130 C   0  0  0  0  0  2  0  0  0  0  0  0
  193.1990  175.2500  145.6810 C   0  0  2  0  0  3  0  0  0  0  0  0
  188.0130  177.4680  145.6180 N   0  0  0  0  0  0  0  0  0  0  0  0
  189.0840  176.7570  142.3170 C   0  0  2  0  0  3  0  0  0  0  0  0
  186.8090  177.1310  145.1000 C   0  0  0  0  0  0  0  0  0  0  0  0
  190.7290  177.4390  142.7920 S   0  0  0  0  0  0  0  0  0  0  0  0
  188.2590  176.9290  143.5270 C   0  0  0  0  0  0  0  0  0  0  0  0
  186.9080  176.7640  143.7540 C   0  0  0  0  0  3  0  0  0  0  0  0
  190.2900  177.5820  144.5810 C   0  0  1  0  0  3  0  0  0  0  0  0
  188.8670  177.3310  144.6250 N   0  0  0  0  0  0  0  0  0  0  0  0
  185.8000  177.6010  147.3080 C   0  0  0  0  0  2  0  0  0  0  0  0
  185.1420  178.5010  146.2860 C   0  0  2  0  0  3  0  0  0  0  0  0
  183.6490  178.5320  146.5360 C   0  0  0  0  0  1  0  0  0  0  0  0
  185.5470  177.0900  145.9020 C   0  0  1  0  0  3  0  0  0  0  0  0
  189.2550  174.9850  141.9480 S   0  0  0  0  0  0  0  0  0  0  0  0
  188.1500  175.0910  140.5110 C   0  0  0  0  0  1  0  0  0  0  0  0
  193.1910  174.3980  143.4330 O   0  0  0  0  0  1  0  0  0  0  0  0
  193.1850  174.0110  144.7790 C   0  0  1  0  0  3  0  0  0  0  0  0
  194.3730  173.0750  145.0920 C   0  0  1  0  0  3  0  0  0  0  0  0
  195.4920  170.9250  144.7310 O   0  0  0  0  0  0  0  0  0  0  0  0
  194.2220  170.5660  145.2160 C   0  0  0  0  0  2  0  0  0  0  0  0
  194.4130  171.7350  144.3240 C   0  0  1  0  0  3  0  0  0  0  0  0
  196.3920  173.9480  146.1340 C   0  0  0  0  0  2  0  0  0  0  0  0
  195.6990  173.7680  145.0140 C   0  0  0  0  0  0  0  0  0  0  0  0
  196.1770  174.2080  143.7730 O   0  0  0  0  0  0  0  0  0  0  0  0
  196.0850  176.5970  143.6200 C   0  0  0  0  0  1  0  0  0  0  0  0
  196.9750  175.3740  143.6190 C   0  0  0  0  0  2  0  0  0  0  0  0
  2  1  1  0  0  0  0
  3  5  1  6  0  0  0
  3  2  1  0  0  0  0
  4  1  1  0  0  0  0
  5  6  1  0  0  0  0
  6 22  1  6  0  0  0
  6  4  1  0  0  0  0
  8 19  1  1  0  0  0
  8 10  1  0  0  0  0
  8 11  1  0  0  0  0
  9  7  2  0  0  0  0
 11 12  2  0  0  0  0
 11 14  1  0  0  0  0
 12  9  1  0  0  0  0
 13 10  1  6  0  0  0
 13 14  1  0  0  0  0
 13  3  1  0  0  0  0
 14  7  1  0  0  0  0
 16 17  1  1  0  0  0
 16 15  1  0  0  0  0
 18  9  1  6  0  0  0
 18 16  1  0  0  0  0
 18 15  1  0  0  0  0
 20 19  1  0  0  0  0
 22 21  1  6  0  0  0
 22 23  1  0  0  0  0
 23 28  1  6  0  0  0
 24 25  1  0  0  0  0
 26 24  1  0  0  0  0
 26 23  1  1  0  0  0
 26 25  1  0  0  0  0
 28 27  2  0  0  0  0
 29 28  1  0  0  0  0
 31 30  1  0  0  0  0
 31 29  1  0  0  0  0
M  END
>  <MODEL>
4

>  <REMARK>
 VINA RESULT:      -6.1      3.365      8.229
  Name = 
  9 active torsions:
  status: ('A' for Active; 'I' for Inactive)
    1  A    between atoms: C_4  and  S_22
    2  A    between atoms: C_10  and  C_21
    3  A    between atoms: C_13  and  C_25
    4  A    between atoms: C_16  and  C_20
    5  A    between atoms: C_16  and  C_27
    6  A    between atoms: C_17  and  C_20
    7  A    between atoms: C_17  and  O_31
    8  A    between atoms: C_20  and  C_30
    9  A    between atoms: C_29  and  O_31
                            x       y       z     vdW  Elec       q    Type
                         _______ _______ _______ _____ _____    ______ ____

>  <TORSDO>
F 9

$$$$
=
 OpenBabel11042414053D

 31 35  0  0  1  0  0  0  0  0999 V2000
  191.9010  175.9710  147.6950 C   0  0  0  0  0  2  0  0  0  0  0  0
  190.7820  176.5390  146.8090 C   0  0  0  0  0  2  0  0  0  0  0  0
  191.1340  176.5640  145.3120 C   0  0  2  0  0  3  0  0  0  0  0  0
  192.7530  174.9520  146.9390 C   0  0  0  0  0  2  0  0  0  0  0  0
  192.6380  176.7700  145.1260 C   0  0  0  0  0  2  0  0  0  0  0  0
  193.4250  175.5830  145.7080 C   0  0  2  0  0  3  0  0  0  0  0  0
  188.0840  177.3820  145.6580 N   0  0  0  0  0  0  0  0  0  0  0  0
  189.0810  176.8270  142.3040 C   0  0  2  0  0  3  0  0  0  0  0  0
  186.8780  177.0130  145.1640 C   0  0  0  0  0  0  0  0  0  0  0  0
  190.7110  177.5580  142.7560 S   0  0  0  0  0  0  0  0  0  0  0  0
  188.2870  176.9240  143.5440 C   0  0  0  0  0  0  0  0  0  0  0  0
  186.9510  176.6970  143.8030 C   0  0  0  0  0  3  0  0  0  0  0  0
  190.3220  177.6220  144.5600 C   0  0  1  0  0  3  0  0  0  0  0  0
  188.9120  177.3130  144.6370 N   0  0  0  0  0  0  0  0  0  0  0  0
  185.9630  177.1850  147.4540 C   0  0  0  0  0  2  0  0  0  0  0  0
  185.3040  178.2460  146.6010 C   0  0  2  0  0  3  0  0  0  0  0  0
  183.8220  178.2860  146.9100 C   0  0  0  0  0  1  0  0  0  0  0  0
  185.6440  176.8950  146.0000 C   0  0  1  0  0  3  0  0  0  0  0  0
  189.3100  175.0760  141.8680 S   0  0  0  0  0  0  0  0  0  0  0  0
  188.0430  175.1460  140.5700 C   0  0  0  0  0  1  0  0  0  0  0  0
  192.9700  174.7710  143.4920 O   0  0  0  0  0  1  0  0  0  0  0  0
  193.7070  174.5070  144.6530 C   0  0  1  0  0  3  0  0  0  0  0  0
  195.2170  174.4080  144.3420 C   0  0  1  0  0  3  0  0  0  0  0  0
  197.1490  175.6900  143.5510 O   0  0  0  0  0  0  0  0  0  0  0  0
  196.0440  176.4170  143.0730 C   0  0  0  0  0  2  0  0  0  0  0  0
  196.0160  175.7300  144.3860 C   0  0  1  0  0  3  0  0  0  0  0  0
  196.6810  173.7150  146.1590 C   0  0  0  0  0  2  0  0  0  0  0  0
  195.9090  173.3460  145.1410 C   0  0  0  0  0  0  0  0  0  0  0  0
  195.7310  171.9990  144.8020 O   0  0  0  0  0  0  0  0  0  0  0  0
  196.7060  170.0470  145.7920 C   0  0  0  0  0  1  0  0  0  0  0  0
  195.5140  170.9790  145.7680 C   0  0  0  0  0  2  0  0  0  0  0  0
  2  1  1  0  0  0  0
  3  5  1  1  0  0  0
  3  2  1  0  0  0  0
  4  1  1  0  0  0  0
  5  6  1  0  0  0  0
  6 22  1  6  0  0  0
  6  4  1  0  0  0  0
  8 19  1  1  0  0  0
  8 10  1  0  0  0  0
  8 11  1  0  0  0  0
  9  7  2  0  0  0  0
 11 12  2  0  0  0  0
 11 14  1  0  0  0  0
 12  9  1  0  0  0  0
 13 10  1  6  0  0  0
 13 14  1  0  0  0  0
 13  3  1  0  0  0  0
 14  7  1  0  0  0  0
 16 17  1  1  0  0  0
 16 15  1  0  0  0  0
 18  9  1  6  0  0  0
 18 16  1  0  0  0  0
 18 15  1  0  0  0  0
 20 19  1  0  0  0  0
 22 21  1  6  0  0  0
 23 22  1  0  0  0  0
 23 28  1  1  0  0  0
 24 26  1  0  0  0  0
 25 24  1  0  0  0  0
 25 26  1  0  0  0  0
 26 23  1  6  0  0  0
 28 27  2  0  0  0  0
 29 28  1  0  0  0  0
 29 31  1  0  0  0  0
 31 30  1  0  0  0  0
M  END
>  <MODEL>
5

>  <REMARK>
 VINA RESULT:      -6.0      3.409      8.343
  Name = 
  9 active torsions:
  status: ('A' for Active; 'I' for Inactive)
    1  A    between atoms: C_4  and  S_22
    2  A    between atoms: C_10  and  C_21
    3  A    between atoms: C_13  and  C_25
    4  A    between atoms: C_16  and  C_20
    5  A    between atoms: C_16  and  C_27
    6  A    between atoms: C_17  and  C_20
    7  A    between atoms: C_17  and  O_31
    8  A    between atoms: C_20  and  C_30
    9  A    between atoms: C_29  and  O_31
                            x       y       z     vdW  Elec       q    Type
                         _______ _______ _______ _____ _____    ______ ____

>  <TORSDO>
F 9

$$$$
=
 OpenBabel11042414053D

 31 35  0  0  1  0  0  0  0  0999 V2000
  191.3680  178.0620  144.1530 C   0  0  0  0  0  2  0  0  0  0  0  0
  191.8060  176.6200  144.4560 C   0  0  0  0  0  2  0  0  0  0  0  0
  190.6420  175.6160  144.4800 C   0  0  2  0  0  3  0  0  0  0  0  0
  190.1120  178.0970  143.2850 C   0  0  0  0  0  2  0  0  0  0  0  0
  189.3630  176.3000  144.9630 C   0  0  0  0  0  2  0  0  0  0  0  0
  188.9290  177.3990  143.9760 C   0  0  2  0  0  3  0  0  0  0  0  0
  193.4690  174.2900  145.0720 N   0  0  0  0  0  0  0  0  0  0  0  0
  190.9570  172.0010  144.0720 C   0  0  2  0  0  3  0  0  0  0  0  0
  194.2780  173.3540  144.5240 C   0  0  0  0  0  0  0  0  0  0  0  0
  189.7550  173.0400  145.0070 S   0  0  0  0  0  0  0  0  0  0  0  0
  192.2560  172.6620  144.2980 C   0  0  0  0  0  0  0  0  0  0  0  0
  193.5480  172.2810  143.9990 C   0  0  0  0  0  3  0  0  0  0  0  0
  190.9790  174.3860  145.3270 C   0  0  1  0  0  3  0  0  0  0  0  0
  192.2460  173.8270  144.9120 N   0  0  0  0  0  0  0  0  0  0  0  0
  196.3390  173.8780  145.7850 C   0  0  0  0  0  2  0  0  0  0  0  0
  196.4300  172.4460  145.3050 C   0  0  2  0  0  3  0  0  0  0  0  0
  197.8250  172.1850  144.7770 C   0  0  0  0  0  1  0  0  0  0  0  0
  195.7630  173.4950  144.4340 C   0  0  1  0  0  3  0  0  0  0  0  0
  190.5480  172.0600  142.3010 S   0  0  0  0  0  0  0  0  0  0  0  0
  188.7780  172.2920  142.6300 C   0  0  0  0  0  1  0  0  0  0  0  0
  187.5990  175.5460  143.2160 O   0  0  0  0  0  1  0  0  0  0  0  0
  187.9420  176.8730  142.9280 C   0  0  1  0  0  3  0  0  0  0  0  0
  186.6840  177.7650  142.8450 C   0  0  1  0  0  3  0  0  0  0  0  0
  184.6920  178.3740  141.5540 O   0  0  0  0  0  0  0  0  0  0  0  0
  185.6630  178.1110  140.5720 C   0  0  0  0  0  2  0  0  0  0  0  0
  185.6000  177.3330  141.8320 C   0  0  1  0  0  3  0  0  0  0  0  0
  185.9650  179.3000  144.5930 C   0  0  0  0  0  2  0  0  0  0  0  0
  186.0720  178.0390  144.1860 C   0  0  0  0  0  0  0  0  0  0  0  0
  185.6310  176.9700  144.9760 O   0  0  0  0  0  0  0  0  0  0  0  0
  186.3760  176.8190  147.2480 C   0  0  0  0  0  1  0  0  0  0  0  0
  185.2150  177.1250  146.3260 C   0  0  0  0  0  2  0  0  0  0  0  0
  1  2  1  0  0  0  0
  3  2  1  1  0  0  0
  3  5  1  0  0  0  0
  3 13  1  0  0  0  0
  4  6  1  0  0  0  0
  4  1  1  0  0  0  0
  6 22  1  6  0  0  0
  6  5  1  0  0  0  0
  8 19  1  6  0  0  0
  8 11  1  0  0  0  0
  8 10  1  0  0  0  0
  9  7  2  0  0  0  0
 11 14  1  0  0  0  0
 12 11  2  0  0  0  0
 12  9  1  0  0  0  0
 13 10  1  6  0  0  0
 14  7  1  0  0  0  0
 14 13  1  0  0  0  0
 16 17  1  6  0  0  0
 16 15  1  0  0  0  0
 18  9  1  1  0  0  0
 18 16  1  0  0  0  0
 18 15  1  0  0  0  0
 19 20  1  0  0  0  0
 22 21  1  1  0  0  0
 23 22  1  0  0  0  0
 23 28  1  1  0  0  0
 24 26  1  0  0  0  0
 25 24  1  0  0  0  0
 25 26  1  0  0  0  0
 26 23  1  1  0  0  0
 28 27  2  0  0  0  0
 28 29  1  0  0  0  0
 29 31  1  0  0  0  0
 31 30  1  0  0  0  0
M  END
>  <MODEL>
6

>  <REMARK>
 VINA RESULT:      -5.9      1.972      2.417
  Name = 
  9 active torsions:
  status: ('A' for Active; 'I' for Inactive)
    1  A    between atoms: C_4  and  S_22
    2  A    between atoms: C_10  and  C_21
    3  A    between atoms: C_13  and  C_25
    4  A    between atoms: C_16  and  C_20
    5  A    between atoms: C_16  and  C_27
    6  A    between atoms: C_17  and  C_20
    7  A    between atoms: C_17  and  O_31
    8  A    between atoms: C_20  and  C_30
    9  A    between atoms: C_29  and  O_31
                            x       y       z     vdW  Elec       q    Type
                         _______ _______ _______ _____ _____    ______ ____

>  <TORSDO>
F 9

$$$$
=
 OpenBabel11042414053D

 31 35  0  0  1  0  0  0  0  0999 V2000
  191.8870  175.7120  147.6380 C   0  0  0  0  0  2  0  0  0  0  0  0
  190.7890  176.3950  146.8070 C   0  0  0  0  0  2  0  0  0  0  0  0
  191.1630  176.5790  145.3260 C   0  0  2  0  0  3  0  0  0  0  0  0
  192.7330  174.7690  146.7850 C   0  0  0  0  0  2  0  0  0  0  0  0
  192.6720  176.7780  145.1830 C   0  0  0  0  0  2  0  0  0  0  0  0
  193.4320  175.5200  145.6400 C   0  0  2  0  0  3  0  0  0  0  0  0
  188.1860  177.5380  145.8820 N   0  0  0  0  0  0  0  0  0  0  0  0
  188.9850  177.1530  142.4520 C   0  0  2  0  0  3  0  0  0  0  0  0
  186.9380  177.2710  145.4290 C   0  0  0  0  0  0  0  0  0  0  0  0
  190.6760  177.7610  142.8640 S   0  0  0  0  0  0  0  0  0  0  0  0
  188.2600  177.2120  143.7350 C   0  0  0  0  0  0  0  0  0  0  0  0
  186.9260  177.0410  144.0490 C   0  0  0  0  0  3  0  0  0  0  0  0
  190.3780  177.7270  144.6870 C   0  0  1  0  0  3  0  0  0  0  0  0
  188.9580  177.4920  144.8160 N   0  0  0  0  0  0  0  0  0  0  0  0
  185.9830  177.9110  147.6170 C   0  0  0  0  0  2  0  0  0  0  0  0
  185.1410  178.5430  146.5310 C   0  0  2  0  0  3  0  0  0  0  0  0
  183.6760  178.3900  146.8830 C   0  0  0  0  0  1  0  0  0  0  0  0
  185.7410  177.1650  146.3180 C   0  0  1  0  0  3  0  0  0  0  0  0
  189.0910  175.4260  141.8950 S   0  0  0  0  0  0  0  0  0  0  0  0
  187.8100  175.6660  140.6310 C   0  0  0  0  0  1  0  0  0  0  0  0
  195.0920  174.3800  144.3260 O   0  0  0  0  0  1  0  0  0  0  0  0
  193.7110  174.5630  144.4750 C   0  0  1  0  0  3  0  0  0  0  0  0
  192.9900  173.2110  144.6740 C   0  0  1  0  0  3  0  0  0  0  0  0
  190.9970  171.8500  144.2540 O   0  0  0  0  0  0  0  0  0  0  0  0
  190.4770  173.1080  144.6090 C   0  0  0  0  0  2  0  0  0  0  0  0
  191.7250  172.9750  143.8190 C   0  0  1  0  0  3  0  0  0  0  0  0
  194.1630  171.5110  143.3850 C   0  0  0  0  0  2  0  0  0  0  0  0
  193.9160  172.0360  144.5810 C   0  0  0  0  0  0  0  0  0  0  0  0
  194.4970  171.5200  145.7460 O   0  0  0  0  0  0  0  0  0  0  0  0
  196.8160  171.9820  146.1370 C   0  0  0  0  0  1  0  0  0  0  0  0
  195.7900  170.9310  145.7720 C   0  0  0  0  0  2  0  0  0  0  0  0
  2  1  1  0  0  0  0
  3  5  1  1  0  0  0
  3  2  1  0  0  0  0
  4  1  1  0  0  0  0
  5  6  1  0  0  0  0
  6 22  1  6  0  0  0
  6  4  1  0  0  0  0
  8 19  1  1  0  0  0
  8 10  1  0  0  0  0
  8 11  1  0  0  0  0
  9  7  2  0  0  0  0
 11 12  2  0  0  0  0
 11 14  1  0  0  0  0
 12  9  1  0  0  0  0
 13 10  1  6  0  0  0
 13 14  1  0  0  0  0
 13  3  1  0  0  0  0
 14  7  1  0  0  0  0
 16 17  1  1  0  0  0
 16 15  1  0  0  0  0
 18  9  1  6  0  0  0
 18 16  1  0  0  0  0
 18 15  1  0  0  0  0
 20 19  1  0  0  0  0
 22 21  1  1  0  0  0
 22 23  1  0  0  0  0
 23 28  1  6  0  0  0
 24 25  1  0  0  0  0
 26 24  1  0  0  0  0
 26 25  1  0  0  0  0
 26 23  1  1  0  0  0
 27 28  2  0  0  0  0
 28 29  1  0  0  0  0
 29 31  1  0  0  0  0
 31 30  1  0  0  0  0
M  END
>  <MODEL>
7

>  <REMARK>
 VINA RESULT:      -5.9      3.326      7.904
  Name = 
  9 active torsions:
  status: ('A' for Active; 'I' for Inactive)
    1  A    between atoms: C_4  and  S_22
    2  A    between atoms: C_10  and  C_21
    3  A    between atoms: C_13  and  C_25
    4  A    between atoms: C_16  and  C_20
    5  A    between atoms: C_16  and  C_27
    6  A    between atoms: C_17  and  C_20
    7  A    between atoms: C_17  and  O_31
    8  A    between atoms: C_20  and  C_30
    9  A    between atoms: C_29  and  O_31
                            x       y       z     vdW  Elec       q    Type
                         _______ _______ _______ _____ _____    ______ ____

>  <TORSDO>
F 9

$$$$
=
 OpenBabel11042414053D

 31 35  0  0  1  0  0  0  0  0999 V2000
  189.5500  172.4790  140.5560 C   0  0  0  0  0  2  0  0  0  0  0  0
  189.7060  171.8890  141.9660 C   0  0  0  0  0  2  0  0  0  0  0  0
  189.6120  172.9380  143.0870 C   0  0  2  0  0  3  0  0  0  0  0  0
  188.6750  173.7310  140.5650 C   0  0  0  0  0  2  0  0  0  0  0  0
  190.1470  174.2840  142.5970 C   0  0  0  0  0  2  0  0  0  0  0  0
  189.2750  174.8320  141.4540 C   0  0  2  0  0  3  0  0  0  0  0  0
  190.5490  174.6280  145.6090 N   0  0  0  0  0  0  0  0  0  0  0  0
  193.0240  172.4610  144.2940 C   0  0  2  0  0  3  0  0  0  0  0  0
  191.6380  175.3270  146.0070 C   0  0  0  0  0  0  0  0  0  0  0  0
  191.6660  171.2720  143.9230 S   0  0  0  0  0  0  0  0  0  0  0  0
  192.3420  173.5910  144.9520 C   0  0  0  0  0  0  0  0  0  0  0  0
  192.8270  174.7090  145.6020 C   0  0  0  0  0  3  0  0  0  0  0  0
  190.3300  172.4710  144.3560 C   0  0  1  0  0  3  0  0  0  0  0  0
  191.0250  173.5790  144.9710 N   0  0  0  0  0  0  0  0  0  0  0  0
  190.1270  176.9440  147.1080 C   0  0  0  0  0  2  0  0  0  0  0  0
  191.0830  176.4050  148.1500 C   0  0  2  0  0  3  0  0  0  0  0  0
  191.5680  177.5460  149.0200 C   0  0  0  0  0  1  0  0  0  0  0  0
  191.5630  176.6340  146.7280 C   0  0  1  0  0  3  0  0  0  0  0  0
  193.7670  173.0280  142.7340 S   0  0  0  0  0  0  0  0  0  0  0  0
  195.4150  173.1880  143.4780 C   0  0  0  0  0  1  0  0  0  0  0  0
  187.0660  174.9980  142.3890 O   0  0  0  0  0  1  0  0  0  0  0  0
  188.1660  175.7570  141.9690 C   0  0  1  0  0  3  0  0  0  0  0  0
  188.6790  176.6670  143.1070 C   0  0  1  0  0  3  0  0  0  0  0  0
  190.2070  178.4450  143.8190 O   0  0  0  0  0  0  0  0  0  0  0  0
  191.0420  177.5310  143.1530 C   0  0  0  0  0  2  0  0  0  0  0  0
  189.6540  177.7930  142.6990 C   0  0  1  0  0  3  0  0  0  0  0  0
  186.8230  178.1980  143.4830 C   0  0  0  0  0  2  0  0  0  0  0  0
  187.5740  177.2110  143.9620 C   0  0  0  0  0  0  0  0  0  0  0  0
  187.3590  176.6730  145.2370 O   0  0  0  0  0  0  0  0  0  0  0  0
  186.3740  177.2890  147.3330 C   0  0  0  0  0  1  0  0  0  0  0  0
  186.1220  176.7880  145.9280 C   0  0  0  0  0  2  0  0  0  0  0  0
  1  4  1  0  0  0  0
  1  2  1  0  0  0  0
  3  2  1  6  0  0  0
  3 13  1  0  0  0  0
  4  6  1  0  0  0  0
  5  3  1  0  0  0  0
  6 22  1  1  0  0  0
  6  5  1  0  0  0  0
  7  9  2  0  0  0  0
  8 19  1  6  0  0  0
  8 11  1  0  0  0  0
 10  8  1  0  0  0  0
 11 14  1  0  0  0  0
 11 12  2  0  0  0  0
 12  9  1  0  0  0  0
 13 10  1  6  0  0  0
 13 14  1  0  0  0  0
 14  7  1  0  0  0  0
 15 16  1  0  0  0  0
 16 17  1  1  0  0  0
 18  9  1  6  0  0  0
 18 15  1  0  0  0  0
 18 16  1  0  0  0  0
 19 20  1  0  0  0  0
 22 21  1  1  0  0  0
 22 23  1  0  0  0  0
 23 28  1  6  0  0  0
 25 24  1  0  0  0  0
 26 23  1  1  0  0  0
 26 25  1  0  0  0  0
 26 24  1  0  0  0  0
 27 28  2  0  0  0  0
 28 29  1  0  0  0  0
 29 31  1  0  0  0  0
 31 30  1  0  0  0  0
M  END
>  <MODEL>
8

>  <REMARK>
 VINA RESULT:      -5.9      2.296      4.400
  Name = 
  9 active torsions:
  status: ('A' for Active; 'I' for Inactive)
    1  A    between atoms: C_4  and  S_22
    2  A    between atoms: C_10  and  C_21
    3  A    between atoms: C_13  and  C_25
    4  A    between atoms: C_16  and  C_20
    5  A    between atoms: C_16  and  C_27
    6  A    between atoms: C_17  and  C_20
    7  A    between atoms: C_17  and  O_31
    8  A    between atoms: C_20  and  C_30
    9  A    between atoms: C_29  and  O_31
                            x       y       z     vdW  Elec       q    Type
                         _______ _______ _______ _____ _____    ______ ____

>  <TORSDO>
F 9

$$$$
=
 OpenBabel11042414053D

 31 35  0  0  1  0  0  0  0  0999 V2000
  191.8600  176.1440  147.4430 C   0  0  0  0  0  2  0  0  0  0  0  0
  192.9000  176.4150  146.3440 C   0  0  0  0  0  2  0  0  0  0  0  0
  192.2790  176.6820  144.9620 C   0  0  2  0  0  3  0  0  0  0  0  0
  190.5410  176.8570  147.1560 C   0  0  0  0  0  2  0  0  0  0  0  0
  190.9730  175.9030  144.8090 C   0  0  0  0  0  2  0  0  0  0  0  0
  189.9260  176.3930  145.8260 C   0  0  2  0  0  3  0  0  0  0  0  0
  191.7520  175.2590  142.1710 N   0  0  0  0  0  0  0  0  0  0  0  0
  194.5340  173.9910  143.9610 C   0  0  2  0  0  3  0  0  0  0  0  0
  191.7420  174.0030  141.6650 C   0  0  0  0  0  0  0  0  0  0  0  0
  194.8440  175.7140  144.5350 S   0  0  0  0  0  0  0  0  0  0  0  0
  193.3650  174.1130  143.0690 C   0  0  0  0  0  0  0  0  0  0  0  0
  192.7580  173.2140  142.2170 C   0  0  0  0  0  3  0  0  0  0  0  0
  193.2640  176.3640  143.8330 C   0  0  1  0  0  3  0  0  0  0  0  0
  192.7570  175.2810  143.0220 N   0  0  0  0  0  0  0  0  0  0  0  0
  190.3880  172.0570  140.9620 C   0  0  0  0  0  2  0  0  0  0  0  0
  189.4460  173.1450  141.4280 C   0  0  2  0  0  3  0  0  0  0  0  0
  188.2790  173.2390  140.4680 C   0  0  0  0  0  1  0  0  0  0  0  0
  190.7200  173.5130  140.6900 C   0  0  1  0  0  3  0  0  0  0  0  0
  194.0990  172.9530  145.3890 S   0  0  0  0  0  0  0  0  0  0  0  0
  195.4690  171.8030  145.0790 C   0  0  0  0  0  1  0  0  0  0  0  0
  189.5380  177.9200  144.0100 O   0  0  0  0  0  1  0  0  0  0  0  0
  189.0320  177.4940  145.2440 C   0  0  1  0  0  3  0  0  0  0  0  0
  187.5690  177.0180  145.1100 C   0  0  1  0  0  3  0  0  0  0  0  0
  185.3770  176.8740  146.1950 O   0  0  0  0  0  0  0  0  0  0  0  0
  186.2870  176.7900  147.2630 C   0  0  0  0  0  2  0  0  0  0  0  0
  186.5490  177.6490  146.0830 C   0  0  1  0  0  3  0  0  0  0  0  0
  187.1640  175.9950  142.9380 C   0  0  0  0  0  2  0  0  0  0  0  0
  187.0620  177.0790  143.7010 C   0  0  0  0  0  0  0  0  0  0  0  0
  186.4960  178.2670  143.2210 O   0  0  0  0  0  0  0  0  0  0  0  0
  184.1060  178.2910  143.0500 C   0  0  0  0  0  1  0  0  0  0  0  0
  185.4180  178.2930  142.2950 C   0  0  0  0  0  2  0  0  0  0  0  0
  2  1  1  0  0  0  0
  3  5  1  6  0  0  0
  3  2  1  0  0  0  0
  4  1  1  0  0  0  0
  5  6  1  0  0  0  0
  6 22  1  6  0  0  0
  6  4  1  0  0  0  0
  7 14  1  0  0  0  0
  8 10  1  0  0  0  0
  8 19  1  1  0  0  0
  9  7  2  0  0  0  0
  9 12  1  0  0  0  0
 11  8  1  0  0  0  0
 12 11  2  0  0  0  0
 13 10  1  1  0  0  0
 13  3  1  0  0  0  0
 14 11  1  0  0  0  0
 14 13  1  0  0  0  0
 15 16  1  0  0  0  0
 16 17  1  6  0  0  0
 18 15  1  0  0  0  0
 18 16  1  0  0  0  0
 18  9  1  1  0  0  0
 20 19  1  0  0  0  0
 22 21  1  6  0  0  0
 23 28  1  6  0  0  0
 23 22  1  0  0  0  0
 24 25  1  0  0  0  0
 26 23  1  6  0  0  0
 26 24  1  0  0  0  0
 26 25  1  0  0  0  0
 27 28  2  0  0  0  0
 29 28  1  0  0  0  0
 31 30  1  0  0  0  0
 31 29  1  0  0  0  0
M  END
>  <MODEL>
9

>  <REMARK>
 VINA RESULT:      -5.7      2.259      4.491
  Name = 
  9 active torsions:
  status: ('A' for Active; 'I' for Inactive)
    1  A    between atoms: C_4  and  S_22
    2  A    between atoms: C_10  and  C_21
    3  A    between atoms: C_13  and  C_25
    4  A    between atoms: C_16  and  C_20
    5  A    between atoms: C_16  and  C_27
    6  A    between atoms: C_17  and  C_20
    7  A    between atoms: C_17  and  O_31
    8  A    between atoms: C_20  and  C_30
    9  A    between atoms: C_29  and  O_31
                            x       y       z     vdW  Elec       q    Type
                         _______ _______ _______ _____ _____    ______ ____

>  <TORSDO>
F 9

$$$$
