=
 OpenBabel11042416343D

 62 69  0  0  1  0  0  0  0  0999 V2000
  186.6390  176.3300  141.1580 C   0  0  0  0  0  3  0  0  0  0  0  0
  185.6390  176.8650  146.2050 N   0  0  0  0  0  2  0  0  0  0  0  0
  183.8300  178.1830  142.7550 C   0  0  0  0  0  0  0  0  0  0  0  0
  187.5610  176.1680  142.2240 C   0  0  0  0  0  0  0  0  0  0  0  0
  190.0420  175.2540  141.7800 C   0  0  0  0  0  3  0  0  0  0  0  0
  183.5280  178.6210  143.9890 N   0  0  0  0  0  0  0  0  0  0  0  0
  184.3350  178.3880  145.0950 N   0  0  0  0  0  0  0  0  0  0  0  0
  185.8320  177.0630  143.6850 C   0  0  2  0  0  3  0  0  0  0  0  0
  185.2600  177.8160  142.5490 C   0  0  1  0  0  3  0  0  0  0  0  0
  185.3870  177.6280  145.0530 C   0  0  0  0  0  0  0  0  0  0  0  0
  187.2620  176.7900  143.5520 C   0  0  0  0  0  2  0  0  0  0  0  0
  182.8090  177.9460  141.7760 N   0  0  0  0  0  2  0  0  0  0  0  0
  185.5890  177.0910  141.3560 N   0  0  0  0  0  0  0  0  0  0  0  0
  188.7770  175.5870  141.9830 C   0  0  0  0  0  0  0  0  0  0  0  0
  179.8140  178.3320  139.5790 C   0  0  0  0  0  0  0  0  0  0  0  0
  177.9160  179.6090  138.7120 C   0  0  0  0  0  1  0  0  0  0  0  0
  178.8540  180.1660  140.8380 C   0  0  0  0  0  3  0  0  0  0  0  0
  180.8810  179.5190  142.1960 C   0  0  0  0  0  3  0  0  0  0  0  0
  179.6890  180.0780  142.0300 C   0  0  0  0  0  3  0  0  0  0  0  0
  179.7320  177.4410  138.5280 N   0  0  0  0  0  0  0  0  0  0  0  0
  181.7330  178.8310  141.2060 C   0  0  2  0  0  3  0  0  0  0  0  0
  180.9930  178.0130  140.2500 N   0  0  0  0  0  0  0  0  0  0  0  0
  178.9150  179.4290  139.7570 C   0  0  0  0  0  0  0  0  0  0  0  0
  181.5910  177.0040  139.6930 N   0  0  0  0  0  0  0  0  0  0  0  0
  180.8260  176.6580  138.6460 C   0  0  0  0  0  3  0  0  0  0  0  0
  191.0530  174.1150  141.4590 C   0  0  0  0  0  0  0  0  0  0  0  0
  190.9210  173.7350  140.2620 O   0  0  0  0  0  0  0  0  0  0  0  0
  192.0260  173.4450  142.3390 N   0  0  0  0  0  2  0  0  0  0  0  0
  195.2860  171.8240  142.7340 C   0  0  0  0  0  0  0  0  0  0  0  0
  194.2350  171.1740  145.3560 C   0  0  0  0  0  3  0  0  0  0  0  0
  196.5660  170.5900  146.1210 C   0  0  0  0  0  1  0  0  0  0  0  0
  192.9130  172.2740  141.8650 C   0  0  2  0  0  0  0  0  0  0  0  0
  195.5540  170.5500  144.9320 C   0  0  2  0  0  3  0  0  0  0  0  0
  196.1250  171.2930  143.7520 C   0  0  0  0  0  0  0  0  0  0  0  0
  197.3320  171.1720  143.4860 O   0  0  0  0  0  0  0  0  0  0  0  0
  195.0470  172.1640  140.3690 C   0  0  0  0  0  3  0  0  0  0  0  0
  193.5270  171.8750  144.4070 C   0  0  0  0  0  3  0  0  0  0  0  0
  193.9560  172.0360  142.9690 C   0  0  0  0  0  0  0  0  0  0  0  0
  193.6880  172.7350  140.5870 C   0  0  0  0  0  2  0  0  0  0  0  0
  195.8650  171.8080  141.3560 C   0  0  0  0  0  3  0  0  0  0  0  0
  192.0960  170.7080  140.2830 O   0  0  0  0  0  0  0  0  0  0  0  0
  192.0900  171.0340  141.5240 C   0  0  0  0  0  0  0  0  0  0  0  0
  190.9980  170.5990  142.2700 O   0  0  0  0  0  1  0  0  0  0  0  0
  185.8620  177.3870  147.5260 C   0  0  0  0  0  2  0  0  0  0  0  0
  187.2120  178.1790  147.6070 C   0  0  0  0  0  2  0  0  0  0  0  0
  189.4100  177.6910  146.4000 N   0  0  0  0  0  2  0  0  0  0  0  0
  187.9290  176.0390  147.0760 O   0  0  0  0  0  0  0  0  0  0  0  0
  188.1930  177.2250  147.0110 C   0  0  0  0  0  0  0  0  0  0  0  0
  191.8830  177.2280  147.4340 O   0  0  0  0  0  1  0  0  0  0  0  0
  191.7170  174.1240  145.5400 O   0  0  0  0  0  1  0  0  0  0  0  0
  192.2320  175.2550  146.1790 C   0  0  1  0  0  3  0  0  0  0  0  0
  191.2080  177.5610  144.6290 C   0  0  0  0  0  2  0  0  0  0  0  0
  192.2890  176.5970  144.0330 C   0  0  0  0  0  2  0  0  0  0  0  0
  190.3320  176.8070  145.6920 C   0  0  1  0  0  3  0  0  0  0  0  0
  193.0910  176.0170  145.1960 C   0  0  2  0  0  3  0  0  0  0  0  0
  191.2180  176.2040  146.7750 C   0  0  2  0  0  3  0  0  0  0  0  0
  194.3930  175.3630  144.9010 N   0  0  1  0  0  0  0  0  0  0  0  0
  194.9440  175.8390  143.7420 O   0  0  0  0  0  0  0  0  0  0  0  0
  196.4800  174.2270  145.6680 C   0  0  0  0  0  2  0  0  0  0  0  0
  195.2920  175.0840  146.0450 C   0  0  0  0  0  2  0  0  0  0  0  0
  196.9880  174.6380  144.2390 C   0  0  0  0  0  2  0  0  0  0  0  0
  196.3560  175.9330  143.8640 C   0  0  0  0  0  2  0  0  0  0  0  0
  1 13  2  0  0  0  0
  1  4  1  0  0  0  0
  2 44  1  0  0  0  0
  3  6  2  0  0  0  0
  4 11  1  0  0  0  0
  5 14  2  0  0  0  0
  6  7  1  0  0  0  0
  8 11  1  1  0  0  0
  8 10  1  0  0  0  0
  9 13  1  6  0  0  0
  9  3  1  0  0  0  0
  9  8  1  0  0  0  0
 10  7  2  0  0  0  0
 10  2  1  0  0  0  0
 12  3  1  0  0  0  0
 14  4  2  0  0  0  0
 15 23  1  0  0  0  0
 15 22  1  0  0  0  0
 16 23  1  0  0  0  0
 17 19  1  0  0  0  0
 19 18  2  0  0  0  0
 20 25  1  0  0  0  0
 20 15  2  0  0  0  0
 21 12  1  1  0  0  0
 21 18  1  0  0  0  0
 22 21  1  0  0  0  0
 23 17  2  0  0  0  0
 24 22  1  0  0  0  0
 25 24  2  0  0  0  0
 26  5  1  0  0  0  0
 26 28  1  0  0  0  0
 27 26  2  0  0  0  0
 29 38  2  0  0  0  0
 29 34  1  0  0  0  0
 32 42  1  6  0  0  0
 32 28  1  0  0  0  0
 32 38  1  0  0  0  0
 33 30  1  0  0  0  0
 33 31  1  1  0  0  0
 34 33  1  0  0  0  0
 35 34  2  0  0  0  0
 36 39  1  0  0  0  0
 36 40  2  0  0  0  0
 37 30  2  0  0  0  0
 38 37  1  0  0  0  0
 39 32  1  0  0  0  0
 40 29  1  0  0  0  0
 41 42  2  0  0  0  0
 42 43  1  0  0  0  0
 44 45  1  0  0  0  0
 46 48  1  0  0  0  0
 48 47  2  0  0  0  0
 48 45  1  0  0  0  0
 51 50  1  6  0  0  0
 51 56  1  0  0  0  0
 52 54  1  0  0  0  0
 53 52  1  0  0  0  0
 54 46  1  1  0  0  0
 54 56  1  0  0  0  0
 55 53  1  6  0  0  0
 55 51  1  0  0  0  0
 56 49  1  6  0  0  0
 57 55  1  0  0  0  0
 57 60  1  1  0  0  0
 58 62  1  0  0  0  0
 58 57  1  0  0  0  0
 59 60  1  0  0  0  0
 61 59  1  0  0  0  0
 62 61  1  0  0  0  0
M  END
>  <MODEL>
1

>  <REMARK>
 VINA RESULT:      -7.1      0.000      0.000
  Name = 
  9 active torsions:
  status: ('A' for Active; 'I' for Inactive)
    1  A    between atoms: N_5  and  C_51
    2  A    between atoms: C_7  and  N_33
    3  A    between atoms: C_7  and  C_52
    4  A    between atoms: C_10  and  C_18
    5  A    between atoms: N_16  and  C_41
    6  A    between atoms: N_21  and  C_50
    7  A    between atoms: N_43  and  C_56
    8  A    between atoms: C_49  and  C_53
    9  A    between atoms: C_51  and  C_53
                            x       y       z     vdW  Elec       q    Type
                         _______ _______ _______ _____ _____    ______ ____

>  <TORSDO>
F 9

$$$$
=
 OpenBabel11042416343D

 62 69  0  0  1  0  0  0  0  0999 V2000
  186.4040  176.5920  141.1730 C   0  0  0  0  0  3  0  0  0  0  0  0
  185.4270  178.0940  146.0250 N   0  0  0  0  0  2  0  0  0  0  0  0
  183.4960  178.5550  142.4240 C   0  0  0  0  0  0  0  0  0  0  0  0
  187.3460  176.7130  142.2260 C   0  0  0  0  0  0  0  0  0  0  0  0
  189.8780  175.8850  141.9170 C   0  0  0  0  0  3  0  0  0  0  0  0
  183.1790  179.2180  143.5490 N   0  0  0  0  0  0  0  0  0  0  0  0
  184.0130  179.2700  144.6590 N   0  0  0  0  0  0  0  0  0  0  0  0
  185.5780  177.7790  143.5140 C   0  0  2  0  0  3  0  0  0  0  0  0
  184.9440  178.2440  142.2620 C   0  0  1  0  0  3  0  0  0  0  0  0
  185.1120  178.5860  144.7480 C   0  0  0  0  0  0  0  0  0  0  0  0
  187.0220  177.5750  143.4040 C   0  0  0  0  0  2  0  0  0  0  0  0
  182.4810  178.0570  141.5400 N   0  0  0  0  0  2  0  0  0  0  0  0
  185.3070  177.3100  141.2360 N   0  0  0  0  0  0  0  0  0  0  0  0
  188.5960  176.1720  142.0790 C   0  0  0  0  0  0  0  0  0  0  0  0
  179.6710  177.8630  139.0890 C   0  0  0  0  0  0  0  0  0  0  0  0
  177.6910  178.7870  137.9890 C   0  0  0  0  0  1  0  0  0  0  0  0
  178.3440  179.5960  140.1410 C   0  0  0  0  0  3  0  0  0  0  0  0
  180.3140  179.3390  141.6980 C   0  0  0  0  0  3  0  0  0  0  0  0
  179.0720  179.7010  141.3990 C   0  0  0  0  0  3  0  0  0  0  0  0
  179.8160  176.9140  138.0970 N   0  0  0  0  0  0  0  0  0  0  0  0
  181.3430  178.7360  140.8280 C   0  0  2  0  0  3  0  0  0  0  0  0
  180.8190  177.7640  139.8730 N   0  0  0  0  0  0  0  0  0  0  0  0
  178.6090  178.8190  139.1200 C   0  0  0  0  0  0  0  0  0  0  0  0
  181.6060  176.8290  139.4340 N   0  0  0  0  0  0  0  0  0  0  0  0
  180.9970  176.3140  138.3540 C   0  0  0  0  0  3  0  0  0  0  0  0
  190.9580  174.7690  141.8130 C   0  0  0  0  0  0  0  0  0  0  0  0
  190.5250  173.6910  142.3050 O   0  0  0  0  0  0  0  0  0  0  0  0
  192.3370  174.8410  141.2980 N   0  0  0  0  0  2  0  0  0  0  0  0
  192.6060  171.2170  140.8440 C   0  0  0  0  0  0  0  0  0  0  0  0
  192.0820  171.8950  138.0750 C   0  0  0  0  0  3  0  0  0  0  0  0
  191.5560  169.4720  137.6050 C   0  0  0  0  0  1  0  0  0  0  0  0
  193.3040  173.6380  141.3330 C   0  0  2  0  0  0  0  0  0  0  0  0
  192.4610  170.4600  138.4090 C   0  0  2  0  0  3  0  0  0  0  0  0
  192.3010  170.2110  139.8850 C   0  0  0  0  0  0  0  0  0  0  0  0
  192.2170  169.0430  140.2980 O   0  0  0  0  0  0  0  0  0  0  0  0
  193.5920  171.6460  142.9910 C   0  0  0  0  0  3  0  0  0  0  0  0
  192.1760  172.8290  139.0800 C   0  0  0  0  0  3  0  0  0  0  0  0
  192.6630  172.5330  140.4780 C   0  0  0  0  0  0  0  0  0  0  0  0
  193.3720  173.1070  142.8020 C   0  0  0  0  0  2  0  0  0  0  0  0
  193.1660  170.7180  142.1370 C   0  0  0  0  0  3  0  0  0  0  0  0
  194.9240  175.2840  140.7950 O   0  0  0  0  0  1  0  0  0  0  0  0
  194.7110  174.0220  140.8790 C   0  0  0  0  0  0  0  0  0  0  0  0
  195.5220  173.2070  140.0950 O   0  0  0  0  0  0  0  0  0  0  0  0
  185.6300  178.8910  147.2040 C   0  0  0  0  0  2  0  0  0  0  0  0
  186.3750  178.0820  148.3210 C   0  0  0  0  0  2  0  0  0  0  0  0
  188.6320  177.7290  147.1760 N   0  0  0  0  0  2  0  0  0  0  0  0
  186.9640  176.1190  147.2360 O   0  0  0  0  0  0  0  0  0  0  0  0
  187.3280  177.2400  147.5400 C   0  0  0  0  0  0  0  0  0  0  0  0
  191.1220  177.0970  148.0690 O   0  0  0  0  0  1  0  0  0  0  0  0
  190.9280  174.3860  145.6490 O   0  0  0  0  0  1  0  0  0  0  0  0
  191.4530  175.3850  146.4730 C   0  0  1  0  0  3  0  0  0  0  0  0
  190.4000  177.9280  145.3820 C   0  0  0  0  0  2  0  0  0  0  0  0
  191.4710  177.0930  144.6040 C   0  0  0  0  0  2  0  0  0  0  0  0
  189.5430  176.9920  146.3060 C   0  0  1  0  0  3  0  0  0  0  0  0
  192.2940  176.3160  145.6290 C   0  0  2  0  0  3  0  0  0  0  0  0
  190.4480  176.2060  147.2470 C   0  0  2  0  0  3  0  0  0  0  0  0
  193.5920  175.7310  145.2000 N   0  0  1  0  0  0  0  0  0  0  0  0
  194.0460  176.3070  144.0450 O   0  0  0  0  0  0  0  0  0  0  0  0
  195.7600  174.6170  145.7390 C   0  0  0  0  0  2  0  0  0  0  0  0
  194.5760  175.4020  146.2570 C   0  0  0  0  0  2  0  0  0  0  0  0
  196.1550  175.1470  144.3120 C   0  0  0  0  0  2  0  0  0  0  0  0
  195.4590  176.4420  144.0780 C   0  0  0  0  0  2  0  0  0  0  0  0
  1 13  2  0  0  0  0
  1  4  1  0  0  0  0
  2 44  1  0  0  0  0
  3  6  2  0  0  0  0
  4 11  1  0  0  0  0
  5 14  2  0  0  0  0
  6  7  1  0  0  0  0
  7 10  2  0  0  0  0
  8 11  1  6  0  0  0
  8 10  1  0  0  0  0
  9 13  1  6  0  0  0
  9  3  1  0  0  0  0
  9  8  1  0  0  0  0
 10  2  1  0  0  0  0
 12  3  1  0  0  0  0
 14  4  2  0  0  0  0
 15 23  1  0  0  0  0
 15 22  1  0  0  0  0
 16 23  1  0  0  0  0
 17 19  1  0  0  0  0
 19 18  2  0  0  0  0
 20 25  1  0  0  0  0
 20 15  2  0  0  0  0
 21 12  1  1  0  0  0
 21 18  1  0  0  0  0
 22 21  1  0  0  0  0
 23 17  2  0  0  0  0
 24 22  1  0  0  0  0
 25 24  2  0  0  0  0
 26  5  1  0  0  0  0
 26 27  2  0  0  0  0
 28 32  1  0  0  0  0
 28 26  1  0  0  0  0
 29 40  1  0  0  0  0
 30 33  1  0  0  0  0
 30 37  2  0  0  0  0
 32 42  1  6  0  0  0
 32 39  1  0  0  0  0
 33 31  1  6  0  0  0
 33 34  1  0  0  0  0
 34 35  2  0  0  0  0
 34 29  1  0  0  0  0
 37 38  1  0  0  0  0
 38 29  2  0  0  0  0
 38 32  1  0  0  0  0
 39 36  1  0  0  0  0
 40 36  2  0  0  0  0
 41 42  1  0  0  0  0
 43 42  2  0  0  0  0
 44 45  1  0  0  0  0
 46 48  1  0  0  0  0
 47 48  2  0  0  0  0
 48 45  1  0  0  0  0
 51 50  1  6  0  0  0
 51 56  1  0  0  0  0
 52 54  1  0  0  0  0
 53 52  1  0  0  0  0
 54 46  1  1  0  0  0
 54 56  1  0  0  0  0
 55 53  1  6  0  0  0
 55 51  1  0  0  0  0
 56 49  1  1  0  0  0
 57 55  1  0  0  0  0
 57 60  1  1  0  0  0
 58 62  1  0  0  0  0
 58 57  1  0  0  0  0
 59 60  1  0  0  0  0
 61 59  1  0  0  0  0
 62 61  1  0  0  0  0
M  END
>  <MODEL>
2

>  <REMARK>
 VINA RESULT:      -6.8      1.430      2.774
  Name = 
  9 active torsions:
  status: ('A' for Active; 'I' for Inactive)
    1  A    between atoms: N_5  and  C_51
    2  A    between atoms: C_7  and  N_33
    3  A    between atoms: C_7  and  C_52
    4  A    between atoms: C_10  and  C_18
    5  A    between atoms: N_16  and  C_41
    6  A    between atoms: N_21  and  C_50
    7  A    between atoms: N_43  and  C_56
    8  A    between atoms: C_49  and  C_53
    9  A    between atoms: C_51  and  C_53
                            x       y       z     vdW  Elec       q    Type
                         _______ _______ _______ _____ _____    ______ ____

>  <TORSDO>
F 9

$$$$
=
 OpenBabel11042416343D

 62 69  0  0  1  0  0  0  0  0999 V2000
  186.3610  176.4610  141.1050 C   0  0  0  0  0  3  0  0  0  0  0  0
  185.5230  178.0130  145.9670 N   0  0  0  0  0  2  0  0  0  0  0  0
  183.5330  178.5070  142.4030 C   0  0  0  0  0  0  0  0  0  0  0  0
  187.3280  176.5620  142.1380 C   0  0  0  0  0  0  0  0  0  0  0  0
  189.8300  175.6650  141.7840 C   0  0  0  0  0  3  0  0  0  0  0  0
  183.2560  179.1840  143.5300 N   0  0  0  0  0  0  0  0  0  0  0  0
  184.1130  179.2190  144.6230 N   0  0  0  0  0  0  0  0  0  0  0  0
  185.6150  177.6820  143.4550 C   0  0  2  0  0  3  0  0  0  0  0  0
  184.9690  178.1570  142.2140 C   0  0  1  0  0  3  0  0  0  0  0  0
  185.1960  178.5060  144.6930 C   0  0  0  0  0  0  0  0  0  0  0  0
  187.0500  177.4390  143.3180 C   0  0  0  0  0  2  0  0  0  0  0  0
  182.4880  178.0310  141.5430 N   0  0  0  0  0  2  0  0  0  0  0  0
  185.2860  177.2080  141.1860 N   0  0  0  0  0  0  0  0  0  0  0  0
  188.5590  175.9870  141.9700 C   0  0  0  0  0  0  0  0  0  0  0  0
  179.6650  177.9180  139.1000 C   0  0  0  0  0  0  0  0  0  0  0  0
  177.6910  178.8850  138.0270 C   0  0  0  0  0  1  0  0  0  0  0  0
  178.3600  179.6420  140.1930 C   0  0  0  0  0  3  0  0  0  0  0  0
  180.3340  179.3330  141.7360 C   0  0  0  0  0  3  0  0  0  0  0  0
  179.0950  179.7130  141.4500 C   0  0  0  0  0  3  0  0  0  0  0  0
  179.7970  176.9880  138.0870 N   0  0  0  0  0  0  0  0  0  0  0  0
  181.3530  178.7370  140.8490 C   0  0  2  0  0  3  0  0  0  0  0  0
  180.8160  177.7910  139.8760 N   0  0  0  0  0  0  0  0  0  0  0  0
  178.6130  178.8840  139.1550 C   0  0  0  0  0  0  0  0  0  0  0  0
  181.5910  176.8570  139.4150 N   0  0  0  0  0  0  0  0  0  0  0  0
  180.9730  176.3720  138.3270 C   0  0  0  0  0  3  0  0  0  0  0  0
  190.8780  174.5210  141.6640 C   0  0  0  0  0  0  0  0  0  0  0  0
  190.6290  173.8010  140.6570 O   0  0  0  0  0  0  0  0  0  0  0  0
  192.0030  174.1770  142.5520 N   0  0  0  0  0  2  0  0  0  0  0  0
  194.0020  172.3910  140.0580 C   0  0  0  0  0  0  0  0  0  0  0  0
  195.6720  174.7530  140.2420 C   0  0  0  0  0  3  0  0  0  0  0  0
  196.8250  174.0760  138.1020 C   0  0  0  0  0  1  0  0  0  0  0  0
  192.9120  172.9530  142.3120 C   0  0  2  0  0  0  0  0  0  0  0  0
  196.1800  173.5700  139.4320 C   0  0  2  0  0  3  0  0  0  0  0  0
  195.0460  172.6290  139.1210 C   0  0  0  0  0  0  0  0  0  0  0  0
  195.1730  171.8120  138.1950 O   0  0  0  0  0  0  0  0  0  0  0  0
  192.5660  170.7190  141.0120 C   0  0  0  0  0  3  0  0  0  0  0  0
  194.5280  174.5730  140.9840 C   0  0  0  0  0  3  0  0  0  0  0  0
  193.7650  173.2740  141.0740 C   0  0  0  0  0  0  0  0  0  0  0  0
  192.0040  171.7340  141.9470 C   0  0  0  0  0  2  0  0  0  0  0  0
  193.4400  171.0060  140.0500 C   0  0  0  0  0  3  0  0  0  0  0  0
  194.9110  172.1480  143.3000 O   0  0  0  0  0  0  0  0  0  0  0  0
  193.7370  172.6030  143.5490 C   0  0  0  0  0  0  0  0  0  0  0  0
  193.1840  172.2460  144.7750 O   0  0  0  0  0  1  0  0  0  0  0  0
  185.7710  178.8110  147.1380 C   0  0  0  0  0  2  0  0  0  0  0  0
  186.5120  177.9870  148.2460 C   0  0  0  0  0  2  0  0  0  0  0  0
  188.7980  177.6210  147.1630 N   0  0  0  0  0  2  0  0  0  0  0  0
  187.0820  176.0620  147.0840 O   0  0  0  0  0  0  0  0  0  0  0  0
  187.4680  177.1540  147.4560 C   0  0  0  0  0  0  0  0  0  0  0  0
  191.3080  177.0450  148.0380 O   0  0  0  0  0  1  0  0  0  0  0  0
  191.1520  174.3210  145.6300 O   0  0  0  0  0  1  0  0  0  0  0  0
  191.6620  175.3340  146.4460 C   0  0  1  0  0  3  0  0  0  0  0  0
  190.5470  177.8500  145.3540 C   0  0  0  0  0  2  0  0  0  0  0  0
  191.6300  177.0340  144.5700 C   0  0  0  0  0  2  0  0  0  0  0  0
  189.7170  176.8990  146.2880 C   0  0  1  0  0  3  0  0  0  0  0  0
  192.4770  176.2790  145.5920 C   0  0  2  0  0  3  0  0  0  0  0  0
  190.6460  176.1370  147.2250 C   0  0  2  0  0  3  0  0  0  0  0  0
  193.7830  175.7200  145.1550 N   0  0  1  0  0  0  0  0  0  0  0  0
  194.2150  176.3000  143.9930 O   0  0  0  0  0  0  0  0  0  0  0  0
  195.9800  174.6570  145.6810 C   0  0  0  0  0  2  0  0  0  0  0  0
  194.7830  175.4180  146.2050 C   0  0  0  0  0  2  0  0  0  0  0  0
  196.3510  175.1870  144.2490 C   0  0  0  0  0  2  0  0  0  0  0  0
  195.6250  176.4660  144.0140 C   0  0  0  0  0  2  0  0  0  0  0  0
  1 13  2  0  0  0  0
  1  4  1  0  0  0  0
  2 44  1  0  0  0  0
  3  6  2  0  0  0  0
  4 11  1  0  0  0  0
  5 14  2  0  0  0  0
  6  7  1  0  0  0  0
  7 10  2  0  0  0  0
  8 11  1  6  0  0  0
  8 10  1  0  0  0  0
  9 13  1  6  0  0  0
  9  3  1  0  0  0  0
  9  8  1  0  0  0  0
 10  2  1  0  0  0  0
 12  3  1  0  0  0  0
 14  4  2  0  0  0  0
 15 23  1  0  0  0  0
 15 22  1  0  0  0  0
 16 23  1  0  0  0  0
 17 19  1  0  0  0  0
 19 18  2  0  0  0  0
 20 25  1  0  0  0  0
 20 15  2  0  0  0  0
 21 12  1  1  0  0  0
 21 18  1  0  0  0  0
 22 21  1  0  0  0  0
 23 17  2  0  0  0  0
 24 22  1  0  0  0  0
 25 24  2  0  0  0  0
 26  5  1  0  0  0  0
 26 28  1  0  0  0  0
 27 26  2  0  0  0  0
 29 38  2  0  0  0  0
 30 37  2  0  0  0  0
 32 28  1  1  0  0  0
 32 42  1  0  0  0  0
 33 31  1  6  0  0  0
 33 30  1  0  0  0  0
 34 33  1  0  0  0  0
 34 29  1  0  0  0  0
 35 34  2  0  0  0  0
 36 39  1  0  0  0  0
 37 38  1  0  0  0  0
 38 32  1  0  0  0  0
 39 32  1  0  0  0  0
 40 29  1  0  0  0  0
 40 36  2  0  0  0  0
 41 42  2  0  0  0  0
 42 43  1  0  0  0  0
 44 45  1  0  0  0  0
 46 48  1  0  0  0  0
 47 48  2  0  0  0  0
 48 45  1  0  0  0  0
 51 50  1  6  0  0  0
 51 56  1  0  0  0  0
 52 54  1  0  0  0  0
 53 52  1  0  0  0  0
 54 46  1  1  0  0  0
 54 56  1  0  0  0  0
 55 53  1  6  0  0  0
 55 51  1  0  0  0  0
 56 49  1  1  0  0  0
 57 55  1  0  0  0  0
 57 60  1  1  0  0  0
 58 62  1  0  0  0  0
 58 57  1  0  0  0  0
 59 60  1  0  0  0  0
 61 59  1  0  0  0  0
 62 61  1  0  0  0  0
M  END
>  <MODEL>
3

>  <REMARK>
 VINA RESULT:      -6.7      1.340      2.350
  Name = 
  9 active torsions:
  status: ('A' for Active; 'I' for Inactive)
    1  A    between atoms: N_5  and  C_51
    2  A    between atoms: C_7  and  N_33
    3  A    between atoms: C_7  and  C_52
    4  A    between atoms: C_10  and  C_18
    5  A    between atoms: N_16  and  C_41
    6  A    between atoms: N_21  and  C_50
    7  A    between atoms: N_43  and  C_56
    8  A    between atoms: C_49  and  C_53
    9  A    between atoms: C_51  and  C_53
                            x       y       z     vdW  Elec       q    Type
                         _______ _______ _______ _____ _____    ______ ____

>  <TORSDO>
F 9

$$$$
=
 OpenBabel11042416343D

 62 69  0  0  1  0  0  0  0  0999 V2000
  186.4150  177.1100  143.3040 C   0  0  0  0  0  3  0  0  0  0  0  0
  187.8730  173.6750  139.7230 N   0  0  0  0  0  2  0  0  0  0  0  0
  189.6580  175.2950  143.0540 C   0  0  0  0  0  0  0  0  0  0  0  0
  185.8630  176.9560  142.0060 C   0  0  0  0  0  0  0  0  0  0  0  0
  183.6820  178.3250  141.2600 C   0  0  0  0  0  3  0  0  0  0  0  0
  190.3000  174.5700  142.1230 N   0  0  0  0  0  0  0  0  0  0  0  0
  189.7560  174.2850  140.8770 N   0  0  0  0  0  0  0  0  0  0  0  0
  187.7000  175.4270  141.5460 C   0  0  2  0  0  3  0  0  0  0  0  0
  188.5370  176.1320  142.5400 C   0  0  1  0  0  3  0  0  0  0  0  0
  188.5380  174.5940  140.5510 C   0  0  0  0  0  0  0  0  0  0  0  0
  186.6630  176.2660  140.9470 C   0  0  0  0  0  2  0  0  0  0  0  0
  189.9450  175.1380  144.4510 N   0  0  0  0  0  2  0  0  0  0  0  0
  187.6470  176.7070  143.5050 N   0  0  0  0  0  0  0  0  0  0  0  0
  184.6820  177.5760  141.6970 C   0  0  0  0  0  0  0  0  0  0  0  0
  193.3400  173.7990  145.2420 C   0  0  0  0  0  0  0  0  0  0  0  0
  195.5300  173.9530  146.3210 C   0  0  0  0  0  1  0  0  0  0  0  0
  194.2750  175.9400  145.8850 C   0  0  0  0  0  3  0  0  0  0  0  0
  191.9490  176.5280  145.0990 C   0  0  0  0  0  3  0  0  0  0  0  0
  193.2170  176.8050  145.3800 C   0  0  0  0  0  3  0  0  0  0  0  0
  193.5040  172.4440  145.0360 N   0  0  0  0  0  0  0  0  0  0  0  0
  191.2240  175.2490  145.2360 C   0  0  2  0  0  3  0  0  0  0  0  0
  192.0180  174.0740  144.8940 N   0  0  0  0  0  0  0  0  0  0  0  0
  194.3280  174.6310  145.8540 C   0  0  0  0  0  0  0  0  0  0  0  0
  191.4090  173.0020  144.4860 N   0  0  0  0  0  0  0  0  0  0  0  0
  192.3110  172.0120  144.5740 C   0  0  0  0  0  3  0  0  0  0  0  0
  182.1480  178.5920  141.2840 C   0  0  0  0  0  0  0  0  0  0  0  0
  181.8410  179.2980  142.2850 O   0  0  0  0  0  0  0  0  0  0  0  0
  181.0940  178.1050  140.3780 N   0  0  0  0  0  2  0  0  0  0  0  0
  178.6940  180.7230  141.2690 C   0  0  0  0  0  0  0  0  0  0  0  0
  179.5040  181.8240  138.7140 C   0  0  0  0  0  3  0  0  0  0  0  0
  178.4620  184.0290  139.3590 C   0  0  0  0  0  1  0  0  0  0  0  0
  179.5980  178.4180  140.5930 C   0  0  2  0  0  0  0  0  0  0  0  0
  178.3390  182.4740  139.4440 C   0  0  2  0  0  3  0  0  0  0  0  0
  178.3250  182.0430  140.8870 C   0  0  0  0  0  0  0  0  0  0  0  0
  177.6920  182.7160  141.7150 O   0  0  0  0  0  0  0  0  0  0  0  0
  178.1770  178.8880  142.7290 C   0  0  0  0  0  3  0  0  0  0  0  0
  179.9970  180.6460  139.2220 C   0  0  0  0  0  3  0  0  0  0  0  0
  179.4390  179.9380  140.4330 C   0  0  0  0  0  0  0  0  0  0  0  0
  179.2320  178.0670  142.0720 C   0  0  0  0  0  2  0  0  0  0  0  0
  177.9540  180.1680  142.4440 C   0  0  0  0  0  3  0  0  0  0  0  0
  178.1890  178.2800  138.6900 O   0  0  0  0  0  0  0  0  0  0  0  0
  178.7030  177.6090  139.6560 C   0  0  0  0  0  0  0  0  0  0  0  0
  178.0220  176.4570  140.0370 O   0  0  0  0  0  1  0  0  0  0  0  0
  188.2990  173.2650  138.4110 C   0  0  0  0  0  2  0  0  0  0  0  0
  189.1350  171.9420  138.4670 C   0  0  0  0  0  2  0  0  0  0  0  0
  191.5710  171.8770  139.2380 N   0  0  0  0  0  2  0  0  0  0  0  0
  190.7870  173.3190  137.5990 O   0  0  0  0  0  0  0  0  0  0  0  0
  190.5420  172.4360  138.4000 C   0  0  0  0  0  0  0  0  0  0  0  0
  192.6610  172.4980  141.6510 O   0  0  0  0  0  1  0  0  0  0  0  0
  195.8420  171.9750  139.9630 O   0  0  0  0  0  1  0  0  0  0  0  0
  194.8850  172.4710  140.8520 C   0  0  1  0  0  3  0  0  0  0  0  0
  192.9700  173.9800  139.1730 C   0  0  0  0  0  2  0  0  0  0  0  0
  194.4240  174.5060  139.4170 C   0  0  0  0  0  2  0  0  0  0  0  0
  192.9270  172.4160  139.2980 C   0  0  1  0  0  3  0  0  0  0  0  0
  194.8900  173.9810  140.7730 C   0  0  2  0  0  3  0  0  0  0  0  0
  193.4710  171.9780  140.6520 C   0  0  2  0  0  3  0  0  0  0  0  0
  196.0760  174.6140  141.4080 N   0  0  1  0  0  0  0  0  0  0  0  0
  196.0370  175.9770  141.3010 O   0  0  0  0  0  0  0  0  0  0  0  0
  197.9010  174.5940  143.1120 C   0  0  0  0  0  2  0  0  0  0  0  0
  196.5730  174.0200  142.6710 C   0  0  0  0  0  2  0  0  0  0  0  0
  197.9350  176.1340  142.7980 C   0  0  0  0  0  2  0  0  0  0  0  0
  196.5520  176.5830  142.4770 C   0  0  0  0  0  2  0  0  0  0  0  0
  1 13  2  0  0  0  0
  2 10  1  0  0  0  0
  3 12  1  0  0  0  0
  4  1  1  0  0  0  0
  5 26  1  0  0  0  0
  5 14  2  0  0  0  0
  6  3  2  0  0  0  0
  7  6  1  0  0  0  0
  8 11  1  6  0  0  0
  8  9  1  0  0  0  0
  9  3  1  1  0  0  0
  9 13  1  0  0  0  0
 10  7  2  0  0  0  0
 10  8  1  0  0  0  0
 11  4  1  0  0  0  0
 14  4  2  0  0  0  0
 15 23  1  0  0  0  0
 18 21  1  0  0  0  0
 18 19  2  0  0  0  0
 19 17  1  0  0  0  0
 20 15  2  0  0  0  0
 21 12  1  6  0  0  0
 22 21  1  0  0  0  0
 22 15  1  0  0  0  0
 23 17  2  0  0  0  0
 23 16  1  0  0  0  0
 24 25  2  0  0  0  0
 24 22  1  0  0  0  0
 25 20  1  0  0  0  0
 26 27  2  0  0  0  0
 28 32  1  0  0  0  0
 28 26  1  0  0  0  0
 29 40  1  0  0  0  0
 30 37  2  0  0  0  0
 30 33  1  0  0  0  0
 32 42  1  6  0  0  0
 32 39  1  0  0  0  0
 33 31  1  1  0  0  0
 33 34  1  0  0  0  0
 34 29  1  0  0  0  0
 34 35  2  0  0  0  0
 37 38  1  0  0  0  0
 38 32  1  0  0  0  0
 38 29  2  0  0  0  0
 39 36  1  0  0  0  0
 40 36  2  0  0  0  0
 41 42  2  0  0  0  0
 42 43  1  0  0  0  0
 44 45  1  0  0  0  0
 44  2  1  0  0  0  0
 47 48  2  0  0  0  0
 48 45  1  0  0  0  0
 48 46  1  0  0  0  0
 51 50  1  6  0  0  0
 52 54  1  0  0  0  0
 52 53  1  0  0  0  0
 54 46  1  1  0  0  0
 54 56  1  0  0  0  0
 55 53  1  6  0  0  0
 55 51  1  0  0  0  0
 55 57  1  0  0  0  0
 56 51  1  0  0  0  0
 56 49  1  1  0  0  0
 57 60  1  1  0  0  0
 58 57  1  0  0  0  0
 58 62  1  0  0  0  0
 60 59  1  0  0  0  0
 61 59  1  0  0  0  0
 62 61  1  0  0  0  0
M  END
>  <MODEL>
4

>  <REMARK>
 VINA RESULT:      -5.3      3.718     12.283
  Name = 
  9 active torsions:
  status: ('A' for Active; 'I' for Inactive)
    1  A    between atoms: N_5  and  C_51
    2  A    between atoms: C_7  and  N_33
    3  A    between atoms: C_7  and  C_52
    4  A    between atoms: C_10  and  C_18
    5  A    between atoms: N_16  and  C_41
    6  A    between atoms: N_21  and  C_50
    7  A    between atoms: N_43  and  C_56
    8  A    between atoms: C_49  and  C_53
    9  A    between atoms: C_51  and  C_53
                            x       y       z     vdW  Elec       q    Type
                         _______ _______ _______ _____ _____    ______ ____

>  <TORSDO>
F 9

$$$$
=
 OpenBabel11042416343D

 62 69  0  0  1  0  0  0  0  0999 V2000
  187.9070  175.2240  141.1150 C   0  0  0  0  0  3  0  0  0  0  0  0
  189.3100  176.5720  145.9080 N   0  0  0  0  0  2  0  0  0  0  0  0
  186.2940  177.7200  143.3600 C   0  0  0  0  0  0  0  0  0  0  0  0
  189.1860  175.0480  141.7020 C   0  0  0  0  0  0  0  0  0  0  0  0
  191.1110  173.6750  140.4370 C   0  0  0  0  0  3  0  0  0  0  0  0
  186.6150  178.3590  144.4970 N   0  0  0  0  0  0  0  0  0  0  0  0
  187.8030  178.1370  145.1820 N   0  0  0  0  0  0  0  0  0  0  0  0
  188.3810  176.4060  143.5540 C   0  0  2  0  0  3  0  0  0  0  0  0
  187.4400  177.0910  142.6450 C   0  0  1  0  0  3  0  0  0  0  0  0
  188.6480  177.2110  144.8470 C   0  0  0  0  0  0  0  0  0  0  0  0
  189.5700  175.8780  142.8860 C   0  0  0  0  0  2  0  0  0  0  0  0
  184.9260  177.5350  142.9680 N   0  0  0  0  0  2  0  0  0  0  0  0
  187.1330  176.1720  141.5880 N   0  0  0  0  0  0  0  0  0  0  0  0
  190.1070  174.2420  141.0870 C   0  0  0  0  0  0  0  0  0  0  0  0
  181.8570  178.5010  141.0730 C   0  0  0  0  0  0  0  0  0  0  0  0
  179.8850  179.9050  140.7160 C   0  0  0  0  0  1  0  0  0  0  0  0
  180.8600  179.7530  142.8930 C   0  0  0  0  0  3  0  0  0  0  0  0
  182.9490  178.7800  143.9240 C   0  0  0  0  0  3  0  0  0  0  0  0
  181.7310  179.3060  143.9720 C   0  0  0  0  0  3  0  0  0  0  0  0
  181.7810  178.0170  139.7820 N   0  0  0  0  0  0  0  0  0  0  0  0
  183.8000  178.5090  142.7470 C   0  0  2  0  0  3  0  0  0  0  0  0
  183.0660  178.0300  141.5800 N   0  0  0  0  0  0  0  0  0  0  0  0
  180.9200  179.4300  141.6250 C   0  0  0  0  0  0  0  0  0  0  0  0
  183.6880  177.3000  140.7050 N   0  0  0  0  0  0  0  0  0  0  0  0
  182.9080  177.2940  139.6130 C   0  0  0  0  0  3  0  0  0  0  0  0
  191.7590  172.3480  139.9450 C   0  0  0  0  0  0  0  0  0  0  0  0
  191.0660  171.3580  140.3120 O   0  0  0  0  0  0  0  0  0  0  0  0
  193.0170  172.1310  139.2080 N   0  0  0  0  0  2  0  0  0  0  0  0
  195.7300  169.7390  139.7750 C   0  0  0  0  0  0  0  0  0  0  0  0
  194.6040  169.6530  142.4440 C   0  0  0  0  0  3  0  0  0  0  0  0
  196.7110  168.5400  143.2730 C   0  0  0  0  0  1  0  0  0  0  0  0
  193.5460  170.7250  138.8560 C   0  0  2  0  0  0  0  0  0  0  0  0
  195.6980  168.6590  142.0890 C   0  0  2  0  0  3  0  0  0  0  0  0
  196.4200  169.1030  140.8440 C   0  0  0  0  0  0  0  0  0  0  0  0
  197.5430  168.6370  140.5960 O   0  0  0  0  0  0  0  0  0  0  0  0
  195.5370  169.9010  137.3860 C   0  0  0  0  0  3  0  0  0  0  0  0
  194.0890  170.4230  141.4270 C   0  0  0  0  0  3  0  0  0  0  0  0
  194.5120  170.3230  139.9820 C   0  0  0  0  0  0  0  0  0  0  0  0
  194.3870  170.8340  137.5420 C   0  0  0  0  0  2  0  0  0  0  0  0
  196.2530  169.4350  138.4070 C   0  0  0  0  0  3  0  0  0  0  0  0
  192.5750  168.5930  139.2180 O   0  0  0  0  0  1  0  0  0  0  0  0
  192.4120  169.7250  138.6370 C   0  0  0  0  0  0  0  0  0  0  0  0
  191.5750  169.7340  137.5260 O   0  0  0  0  0  0  0  0  0  0  0  0
  190.1460  177.2150  146.8840 C   0  0  0  0  0  2  0  0  0  0  0  0
  190.9840  176.1710  147.6980 C   0  0  0  0  0  2  0  0  0  0  0  0
  192.5330  175.2200  145.9020 N   0  0  0  0  0  2  0  0  0  0  0  0
  193.1280  176.9650  147.3100 O   0  0  0  0  0  0  0  0  0  0  0  0
  192.2880  176.1520  146.9710 C   0  0  0  0  0  0  0  0  0  0  0  0
  192.7630  175.7230  143.2390 O   0  0  0  0  0  1  0  0  0  0  0  0
  196.2500  176.4130  144.0210 O   0  0  0  0  0  1  0  0  0  0  0  0
  195.1060  176.0240  143.3180 C   0  0  1  0  0  3  0  0  0  0  0  0
  194.1040  173.6230  144.7320 C   0  0  0  0  0  2  0  0  0  0  0  0
  195.4290  173.5800  143.9000 C   0  0  0  0  0  2  0  0  0  0  0  0
  193.8330  175.0800  145.2530 C   0  0  1  0  0  3  0  0  0  0  0  0
  195.3170  174.6230  142.7890 C   0  0  2  0  0  3  0  0  0  0  0  0
  193.8070  176.0610  144.0880 C   0  0  2  0  0  3  0  0  0  0  0  0
  196.2680  174.5470  141.6490 N   0  0  1  0  0  0  0  0  0  0  0  0
  196.3140  173.2890  141.1140 O   0  0  0  0  0  0  0  0  0  0  0  0
  197.4680  175.6230  139.7420 C   0  0  0  0  0  2  0  0  0  0  0  0
  196.3240  175.7060  140.7280 C   0  0  0  0  0  2  0  0  0  0  0  0
  197.6540  174.1320  139.2810 C   0  0  0  0  0  2  0  0  0  0  0  0
  196.4570  173.3520  139.7030 C   0  0  0  0  0  2  0  0  0  0  0  0
  1 13  2  0  0  0  0
  1  4  1  0  0  0  0
  2 44  1  0  0  0  0
  3  6  2  0  0  0  0
  4 11  1  0  0  0  0
  5 14  2  0  0  0  0
  6  7  1  0  0  0  0
  8 11  1  6  0  0  0
  8 10  1  0  0  0  0
  9 13  1  6  0  0  0
  9  3  1  0  0  0  0
  9  8  1  0  0  0  0
 10  7  2  0  0  0  0
 10  2  1  0  0  0  0
 12  3  1  0  0  0  0
 14  4  2  0  0  0  0
 15 22  1  0  0  0  0
 15 23  1  0  0  0  0
 16 23  1  0  0  0  0
 17 19  1  0  0  0  0
 18 19  2  0  0  0  0
 20 15  2  0  0  0  0
 21 12  1  1  0  0  0
 21 18  1  0  0  0  0
 22 21  1  0  0  0  0
 23 17  2  0  0  0  0
 24 22  1  0  0  0  0
 25 20  1  0  0  0  0
 25 24  2  0  0  0  0
 26 27  2  0  0  0  0
 26  5  1  0  0  0  0
 28 26  1  0  0  0  0
 29 38  2  0  0  0  0
 29 34  1  0  0  0  0
 32 42  1  6  0  0  0
 32 28  1  0  0  0  0
 32 38  1  0  0  0  0
 33 30  1  0  0  0  0
 33 31  1  1  0  0  0
 34 33  1  0  0  0  0
 35 34  2  0  0  0  0
 36 39  1  0  0  0  0
 36 40  2  0  0  0  0
 37 30  2  0  0  0  0
 38 37  1  0  0  0  0
 39 32  1  0  0  0  0
 40 29  1  0  0  0  0
 42 41  1  0  0  0  0
 43 42  2  0  0  0  0
 44 45  1  0  0  0  0
 46 48  1  0  0  0  0
 48 47  2  0  0  0  0
 48 45  1  0  0  0  0
 51 50  1  1  0  0  0
 51 56  1  0  0  0  0
 52 54  1  0  0  0  0
 53 52  1  0  0  0  0
 54 46  1  6  0  0  0
 55 51  1  0  0  0  0
 55 53  1  1  0  0  0
 56 49  1  6  0  0  0
 56 54  1  0  0  0  0
 57 60  1  6  0  0  0
 57 55  1  0  0  0  0
 58 57  1  0  0  0  0
 59 60  1  0  0  0  0
 61 62  1  0  0  0  0
 61 59  1  0  0  0  0
 62 58  1  0  0  0  0
M  END
>  <MODEL>
5

>  <REMARK>
 VINA RESULT:      -5.3      2.196      3.568
  Name = 
  9 active torsions:
  status: ('A' for Active; 'I' for Inactive)
    1  A    between atoms: N_5  and  C_51
    2  A    between atoms: C_7  and  N_33
    3  A    between atoms: C_7  and  C_52
    4  A    between atoms: C_10  and  C_18
    5  A    between atoms: N_16  and  C_41
    6  A    between atoms: N_21  and  C_50
    7  A    between atoms: N_43  and  C_56
    8  A    between atoms: C_49  and  C_53
    9  A    between atoms: C_51  and  C_53
                            x       y       z     vdW  Elec       q    Type
                         _______ _______ _______ _____ _____    ______ ____

>  <TORSDO>
F 9

$$$$
=
 OpenBabel11042416343D

 62 69  0  0  1  0  0  0  0  0999 V2000
  186.4840  177.1560  143.2190 C   0  0  0  0  0  3  0  0  0  0  0  0
  188.0700  173.7180  139.6940 N   0  0  0  0  0  2  0  0  0  0  0  0
  189.7660  175.4030  143.0400 C   0  0  0  0  0  0  0  0  0  0  0  0
  185.9570  176.9790  141.9130 C   0  0  0  0  0  0  0  0  0  0  0  0
  183.7630  178.2980  141.1180 C   0  0  0  0  0  3  0  0  0  0  0  0
  190.4370  174.6820  142.1260 N   0  0  0  0  0  0  0  0  0  0  0  0
  189.9210  174.3750  140.8740 N   0  0  0  0  0  0  0  0  0  0  0  0
  187.8310  175.4830  141.4990 C   0  0  2  0  0  3  0  0  0  0  0  0
  188.6370  176.2130  142.4990 C   0  0  1  0  0  3  0  0  0  0  0  0
  188.7030  174.6570  140.5250 C   0  0  0  0  0  0  0  0  0  0  0  0
  186.7880  176.2960  140.8740 C   0  0  0  0  0  2  0  0  0  0  0  0
  190.0320  175.2640  144.4430 N   0  0  0  0  0  2  0  0  0  0  0  0
  187.7210  176.7790  143.4450 N   0  0  0  0  0  0  0  0  0  0  0  0
  184.7700  177.5730  141.5780 C   0  0  0  0  0  0  0  0  0  0  0  0
  193.4160  173.9680  145.3440 C   0  0  0  0  0  0  0  0  0  0  0  0
  195.5840  174.1680  146.4590 C   0  0  0  0  0  1  0  0  0  0  0  0
  194.3300  176.1330  145.9320 C   0  0  0  0  0  3  0  0  0  0  0  0
  192.0180  176.6840  145.0820 C   0  0  0  0  0  3  0  0  0  0  0  0
  193.2790  176.9760  145.3780 C   0  0  0  0  0  3  0  0  0  0  0  0
  193.5890  172.6070  145.1860 N   0  0  0  0  0  0  0  0  0  0  0  0
  191.2950  175.4070  145.2490 C   0  0  2  0  0  3  0  0  0  0  0  0
  192.1010  174.2250  144.9610 N   0  0  0  0  0  0  0  0  0  0  0  0
  194.3890  174.8240  145.9460 C   0  0  0  0  0  0  0  0  0  0  0  0
  191.5040  173.1370  144.5780 N   0  0  0  0  0  0  0  0  0  0  0  0
  192.4080  172.1550  144.7170 C   0  0  0  0  0  3  0  0  0  0  0  0
  182.2240  178.5350  141.1140 C   0  0  0  0  0  0  0  0  0  0  0  0
  181.8870  179.2480  142.1000 O   0  0  0  0  0  0  0  0  0  0  0  0
  181.1940  178.0160  140.1970 N   0  0  0  0  0  2  0  0  0  0  0  0
  178.7350  180.5810  141.0820 C   0  0  0  0  0  0  0  0  0  0  0  0
  179.5840  181.7410  138.5650 C   0  0  0  0  0  3  0  0  0  0  0  0
  178.4930  183.9180  139.2260 C   0  0  0  0  0  1  0  0  0  0  0  0
  179.6890  178.3030  140.3840 C   0  0  2  0  0  0  0  0  0  0  0  0
  178.3940  182.3590  139.2800 C   0  0  2  0  0  3  0  0  0  0  0  0
  178.3540  181.9020  140.7150 C   0  0  0  0  0  0  0  0  0  0  0  0
  177.6920  182.5500  141.5400 O   0  0  0  0  0  0  0  0  0  0  0  0
  178.2140  178.7110  142.4960 C   0  0  0  0  0  3  0  0  0  0  0  0
  180.0840  180.5610  139.0640 C   0  0  0  0  0  3  0  0  0  0  0  0
  179.5100  179.8230  140.2490 C   0  0  0  0  0  0  0  0  0  0  0  0
  179.2960  177.9180  141.8480 C   0  0  0  0  0  2  0  0  0  0  0  0
  177.9770  179.9930  142.2290 C   0  0  0  0  0  3  0  0  0  0  0  0
  177.9030  176.8010  139.9640 O   0  0  0  0  0  1  0  0  0  0  0  0
  178.8280  177.4970  139.4120 C   0  0  0  0  0  0  0  0  0  0  0  0
  179.2670  177.0620  138.1660 O   0  0  0  0  0  0  0  0  0  0  0  0
  188.5250  173.3060  138.3940 C   0  0  0  0  0  2  0  0  0  0  0  0
  188.6050  171.7450  138.2830 C   0  0  0  0  0  2  0  0  0  0  0  0
  190.5780  171.2490  139.8300 N   0  0  0  0  0  2  0  0  0  0  0  0
  190.7740  171.4270  137.5250 O   0  0  0  0  0  0  0  0  0  0  0  0
  190.0550  171.4700  138.5070 C   0  0  0  0  0  0  0  0  0  0  0  0
  191.4070  169.4730  141.7160 O   0  0  0  0  0  1  0  0  0  0  0  0
  194.5240  169.4590  139.8380 O   0  0  0  0  0  1  0  0  0  0  0  0
  193.6250  169.3770  140.9050 C   0  0  1  0  0  3  0  0  0  0  0  0
  192.5180  172.1070  141.2030 C   0  0  0  0  0  2  0  0  0  0  0  0
  194.0050  171.7890  141.5750 C   0  0  0  0  0  2  0  0  0  0  0  0
  192.0040  171.1070  140.1070 C   0  0  1  0  0  3  0  0  0  0  0  0
  194.0790  170.3220  141.9940 C   0  0  2  0  0  3  0  0  0  0  0  0
  192.1780  169.6690  140.5800 C   0  0  2  0  0  3  0  0  0  0  0  0
  195.2820  169.8560  142.7320 N   0  0  1  0  0  0  0  0  0  0  0  0
  196.3080  170.7570  142.6430 O   0  0  0  0  0  0  0  0  0  0  0  0
  196.3270  168.5400  144.5790 C   0  0  0  0  0  2  0  0  0  0  0  0
  195.0650  169.1610  144.0230 C   0  0  0  0  0  2  0  0  0  0  0  0
  197.5480  169.4880  144.2920 C   0  0  0  0  0  2  0  0  0  0  0  0
  197.0260  170.8160  143.8660 C   0  0  0  0  0  2  0  0  0  0  0  0
  1 13  2  0  0  0  0
  2 10  1  0  0  0  0
  3 12  1  0  0  0  0
  4  1  1  0  0  0  0
  5 14  2  0  0  0  0
  6  3  2  0  0  0  0
  7  6  1  0  0  0  0
  8 11  1  6  0  0  0
  8  9  1  0  0  0  0
  9  3  1  1  0  0  0
  9 13  1  0  0  0  0
 10  7  2  0  0  0  0
 10  8  1  0  0  0  0
 11  4  1  0  0  0  0
 14  4  2  0  0  0  0
 15 23  1  0  0  0  0
 17 23  2  0  0  0  0
 18 21  1  0  0  0  0
 18 19  2  0  0  0  0
 19 17  1  0  0  0  0
 20 15  2  0  0  0  0
 21 12  1  6  0  0  0
 22 21  1  0  0  0  0
 22 15  1  0  0  0  0
 23 16  1  0  0  0  0
 24 25  2  0  0  0  0
 24 22  1  0  0  0  0
 25 20  1  0  0  0  0
 26  5  1  0  0  0  0
 26 27  2  0  0  0  0
 28 32  1  0  0  0  0
 28 26  1  0  0  0  0
 29 40  1  0  0  0  0
 30 37  2  0  0  0  0
 30 33  1  0  0  0  0
 32 42  1  6  0  0  0
 32 39  1  0  0  0  0
 33 31  1  1  0  0  0
 33 34  1  0  0  0  0
 34 29  1  0  0  0  0
 34 35  2  0  0  0  0
 37 38  1  0  0  0  0
 38 32  1  0  0  0  0
 38 29  2  0  0  0  0
 39 36  1  0  0  0  0
 40 36  2  0  0  0  0
 42 41  1  0  0  0  0
 43 42  2  0  0  0  0
 44  2  1  0  0  0  0
 45 44  1  0  0  0  0
 45 48  1  0  0  0  0
 47 48  2  0  0  0  0
 48 46  1  0  0  0  0
 51 50  1  6  0  0  0
 51 55  1  0  0  0  0
 52 53  1  0  0  0  0
 54 46  1  1  0  0  0
 54 56  1  0  0  0  0
 54 52  1  0  0  0  0
 55 53  1  6  0  0  0
 55 57  1  0  0  0  0
 56 51  1  0  0  0  0
 56 49  1  1  0  0  0
 57 60  1  1  0  0  0
 58 57  1  0  0  0  0
 58 62  1  0  0  0  0
 60 59  1  0  0  0  0
 61 59  1  0  0  0  0
 62 61  1  0  0  0  0
M  END
>  <MODEL>
6

>  <REMARK>
 VINA RESULT:      -5.1      3.687     12.421
  Name = 
  9 active torsions:
  status: ('A' for Active; 'I' for Inactive)
    1  A    between atoms: N_5  and  C_51
    2  A    between atoms: C_7  and  N_33
    3  A    between atoms: C_7  and  C_52
    4  A    between atoms: C_10  and  C_18
    5  A    between atoms: N_16  and  C_41
    6  A    between atoms: N_21  and  C_50
    7  A    between atoms: N_43  and  C_56
    8  A    between atoms: C_49  and  C_53
    9  A    between atoms: C_51  and  C_53
                            x       y       z     vdW  Elec       q    Type
                         _______ _______ _______ _____ _____    ______ ____

>  <TORSDO>
F 9

$$$$
=
 OpenBabel11042416343D

 62 69  0  0  1  0  0  0  0  0999 V2000
  187.7540  175.2440  140.9550 C   0  0  0  0  0  3  0  0  0  0  0  0
  189.1450  176.5370  145.7660 N   0  0  0  0  0  2  0  0  0  0  0  0
  186.1400  177.7200  143.2210 C   0  0  0  0  0  0  0  0  0  0  0  0
  189.0310  175.0580  141.5440 C   0  0  0  0  0  0  0  0  0  0  0  0
  190.9560  173.6940  140.2710 C   0  0  0  0  0  3  0  0  0  0  0  0
  186.4590  178.3460  144.3660 N   0  0  0  0  0  0  0  0  0  0  0  0
  187.6440  178.1140  145.0520 N   0  0  0  0  0  0  0  0  0  0  0  0
  188.2230  176.3980  143.4080 C   0  0  2  0  0  3  0  0  0  0  0  0
  187.2870  177.0960  142.5030 C   0  0  1  0  0  3  0  0  0  0  0  0
  188.4880  177.1890  144.7100 C   0  0  0  0  0  0  0  0  0  0  0  0
  189.4130  175.8750  142.7380 C   0  0  0  0  0  2  0  0  0  0  0  0
  184.7730  177.5420  142.8230 N   0  0  0  0  0  2  0  0  0  0  0  0
  186.9810  176.1890  141.4350 N   0  0  0  0  0  0  0  0  0  0  0  0
  189.9510  174.2560  140.9230 C   0  0  0  0  0  0  0  0  0  0  0  0
  181.6270  178.4610  141.0330 C   0  0  0  0  0  0  0  0  0  0  0  0
  179.6590  179.8760  140.7030 C   0  0  0  0  0  1  0  0  0  0  0  0
  180.7370  179.8140  142.8350 C   0  0  0  0  0  3  0  0  0  0  0  0
  182.8610  178.8620  143.8100 C   0  0  0  0  0  3  0  0  0  0  0  0
  181.6540  179.4070  143.8920 C   0  0  0  0  0  3  0  0  0  0  0  0
  181.4830  177.9150  139.7730 N   0  0  0  0  0  0  0  0  0  0  0  0
  183.6500  178.5210  142.6090 C   0  0  2  0  0  3  0  0  0  0  0  0
  182.8540  177.9970  141.5040 N   0  0  0  0  0  0  0  0  0  0  0  0
  180.7310  179.4290  141.5830 C   0  0  0  0  0  0  0  0  0  0  0  0
  183.4230  177.2150  140.6360 N   0  0  0  0  0  0  0  0  0  0  0  0
  182.5900  177.1680  139.5850 C   0  0  0  0  0  3  0  0  0  0  0  0
  191.6030  172.3710  139.7660 C   0  0  0  0  0  0  0  0  0  0  0  0
  190.8380  171.3930  139.9970 O   0  0  0  0  0  0  0  0  0  0  0  0
  192.9230  172.1420  139.1520 N   0  0  0  0  0  2  0  0  0  0  0  0
  194.4200  170.1410  136.4760 C   0  0  0  0  0  0  0  0  0  0  0  0
  196.7110  171.8430  136.9860 C   0  0  0  0  0  3  0  0  0  0  0  0
  197.7180  171.1060  134.7940 C   0  0  0  0  0  1  0  0  0  0  0  0
  193.4340  170.7370  138.7700 C   0  0  2  0  0  0  0  0  0  0  0  0
  196.8820  170.6670  136.0380 C   0  0  2  0  0  3  0  0  0  0  0  0
  195.5350  170.1590  135.5930 C   0  0  0  0  0  0  0  0  0  0  0  0
  195.4590  169.4580  134.5710 O   0  0  0  0  0  0  0  0  0  0  0  0
  192.5010  168.8860  137.1870 C   0  0  0  0  0  3  0  0  0  0  0  0
  195.5280  171.9330  137.6830 C   0  0  0  0  0  3  0  0  0  0  0  0
  194.4070  170.9270  137.5950 C   0  0  0  0  0  0  0  0  0  0  0  0
  192.2220  169.9050  138.2370 C   0  0  0  0  0  2  0  0  0  0  0  0
  193.4690  169.0040  136.2820 C   0  0  0  0  0  3  0  0  0  0  0  0
  193.2890  169.1320  140.5090 O   0  0  0  0  0  0  0  0  0  0  0  0
  194.0500  170.0080  139.9620 C   0  0  0  0  0  0  0  0  0  0  0  0
  195.0490  170.5460  140.7670 O   0  0  0  0  0  1  0  0  0  0  0  0
  189.9800  177.1680  146.7520 C   0  0  0  0  0  2  0  0  0  0  0  0
  190.7920  176.1110  147.5770 C   0  0  0  0  0  2  0  0  0  0  0  0
  192.3200  175.3460  145.6770 N   0  0  0  0  0  2  0  0  0  0  0  0
  193.0100  176.7600  147.3820 O   0  0  0  0  0  0  0  0  0  0  0  0
  192.1160  176.0980  146.8870 C   0  0  0  0  0  0  0  0  0  0  0  0
  192.6480  176.1130  143.0880 O   0  0  0  0  0  1  0  0  0  0  0  0
  196.1450  176.5160  144.0100 O   0  0  0  0  0  1  0  0  0  0  0  0
  195.0010  176.2690  143.2470 C   0  0  1  0  0  3  0  0  0  0  0  0
  193.8310  173.7940  144.3750 C   0  0  0  0  0  2  0  0  0  0  0  0
  195.1730  173.7630  143.5700 C   0  0  0  0  0  2  0  0  0  0  0  0
  193.6270  175.2010  145.0430 C   0  0  1  0  0  3  0  0  0  0  0  0
  195.1490  174.9220  142.5750 C   0  0  2  0  0  3  0  0  0  0  0  0
  193.6850  176.3000  143.9900 C   0  0  2  0  0  3  0  0  0  0  0  0
  196.1240  174.9130  141.4530 N   0  0  1  0  0  0  0  0  0  0  0  0
  197.0980  173.9710  141.6420 O   0  0  0  0  0  0  0  0  0  0  0  0
  196.6790  175.3050  139.0510 C   0  0  0  0  0  2  0  0  0  0  0  0
  195.5920  175.1130  140.0850 C   0  0  0  0  0  2  0  0  0  0  0  0
  197.8930  174.3650  139.3880 C   0  0  0  0  0  2  0  0  0  0  0  0
  197.4550  173.3710  140.4060 C   0  0  0  0  0  2  0  0  0  0  0  0
  1 13  2  0  0  0  0
  1  4  1  0  0  0  0
  2 44  1  0  0  0  0
  3  6  2  0  0  0  0
  4 11  1  0  0  0  0
  5 14  2  0  0  0  0
  6  7  1  0  0  0  0
  8 11  1  6  0  0  0
  8 10  1  0  0  0  0
  9 13  1  6  0  0  0
  9  3  1  0  0  0  0
  9  8  1  0  0  0  0
 10  7  2  0  0  0  0
 10  2  1  0  0  0  0
 12  3  1  0  0  0  0
 14  4  2  0  0  0  0
 15 22  1  0  0  0  0
 15 23  1  0  0  0  0
 16 23  1  0  0  0  0
 17 19  1  0  0  0  0
 18 19  2  0  0  0  0
 20 15  2  0  0  0  0
 21 12  1  1  0  0  0
 21 18  1  0  0  0  0
 22 21  1  0  0  0  0
 23 17  2  0  0  0  0
 24 22  1  0  0  0  0
 25 20  1  0  0  0  0
 25 24  2  0  0  0  0
 26 27  2  0  0  0  0
 26  5  1  0  0  0  0
 28 26  1  0  0  0  0
 29 38  2  0  0  0  0
 30 37  2  0  0  0  0
 32 28  1  1  0  0  0
 32 42  1  0  0  0  0
 33 31  1  6  0  0  0
 33 30  1  0  0  0  0
 34 33  1  0  0  0  0
 34 29  1  0  0  0  0
 35 34  2  0  0  0  0
 36 39  1  0  0  0  0
 38 37  1  0  0  0  0
 38 32  1  0  0  0  0
 39 32  1  0  0  0  0
 40 29  1  0  0  0  0
 40 36  2  0  0  0  0
 42 41  2  0  0  0  0
 42 43  1  0  0  0  0
 44 45  1  0  0  0  0
 46 48  1  0  0  0  0
 48 47  2  0  0  0  0
 48 45  1  0  0  0  0
 51 56  1  0  0  0  0
 51 50  1  1  0  0  0
 52 54  1  0  0  0  0
 53 52  1  0  0  0  0
 54 46  1  6  0  0  0
 55 51  1  0  0  0  0
 55 53  1  1  0  0  0
 56 49  1  6  0  0  0
 56 54  1  0  0  0  0
 57 60  1  6  0  0  0
 57 58  1  0  0  0  0
 57 55  1  0  0  0  0
 59 61  1  0  0  0  0
 59 60  1  0  0  0  0
 61 62  1  0  0  0  0
 62 58  1  0  0  0  0
M  END
>  <MODEL>
7

>  <REMARK>
 VINA RESULT:      -5.1      2.688      4.500
  Name = 
  9 active torsions:
  status: ('A' for Active; 'I' for Inactive)
    1  A    between atoms: N_5  and  C_51
    2  A    between atoms: C_7  and  N_33
    3  A    between atoms: C_7  and  C_52
    4  A    between atoms: C_10  and  C_18
    5  A    between atoms: N_16  and  C_41
    6  A    between atoms: N_21  and  C_50
    7  A    between atoms: N_43  and  C_56
    8  A    between atoms: C_49  and  C_53
    9  A    between atoms: C_51  and  C_53
                            x       y       z     vdW  Elec       q    Type
                         _______ _______ _______ _____ _____    ______ ____

>  <TORSDO>
F 9

$$$$
=
 OpenBabel11042416343D

 62 69  0  0  1  0  0  0  0  0999 V2000
  186.5180  177.3810  143.1830 C   0  0  0  0  0  3  0  0  0  0  0  0
  187.8880  173.5980  139.9330 N   0  0  0  0  0  2  0  0  0  0  0  0
  189.7620  175.5580  143.0250 C   0  0  0  0  0  0  0  0  0  0  0  0
  185.9280  177.0920  141.9250 C   0  0  0  0  0  0  0  0  0  0  0  0
  183.7190  178.3720  141.1080 C   0  0  0  0  0  3  0  0  0  0  0  0
  190.3800  174.7410  142.1540 N   0  0  0  0  0  0  0  0  0  0  0  0
  189.8010  174.3280  140.9610 N   0  0  0  0  0  0  0  0  0  0  0  0
  187.7590  175.5290  141.5710 C   0  0  2  0  0  3  0  0  0  0  0  0
  188.6220  176.3340  142.4600 C   0  0  1  0  0  3  0  0  0  0  0  0
  188.5730  174.5990  140.6420 C   0  0  0  0  0  0  0  0  0  0  0  0
  186.7000  176.2990  140.9190 C   0  0  0  0  0  2  0  0  0  0  0  0
  190.0910  175.5460  144.4210 N   0  0  0  0  0  2  0  0  0  0  0  0
  187.7580  177.0040  143.3880 N   0  0  0  0  0  0  0  0  0  0  0  0
  184.7350  177.6740  141.5890 C   0  0  0  0  0  0  0  0  0  0  0  0
  193.4610  174.2390  145.3560 C   0  0  0  0  0  0  0  0  0  0  0  0
  195.6810  174.4930  146.3520 C   0  0  0  0  0  1  0  0  0  0  0  0
  194.4780  176.4230  145.6180 C   0  0  0  0  0  3  0  0  0  0  0  0
  192.1530  176.9530  144.7910 C   0  0  0  0  0  3  0  0  0  0  0  0
  193.4350  177.2290  144.9970 C   0  0  0  0  0  3  0  0  0  0  0  0
  193.5780  172.8640  145.3730 N   0  0  0  0  0  0  0  0  0  0  0  0
  191.3920  175.7400  145.1520 C   0  0  2  0  0  3  0  0  0  0  0  0
  192.1410  174.4990  144.9930 N   0  0  0  0  0  0  0  0  0  0  0  0
  194.4900  175.1260  145.8020 C   0  0  0  0  0  0  0  0  0  0  0  0
  191.4890  173.3950  144.7800 N   0  0  0  0  0  0  0  0  0  0  0  0
  192.3620  172.4030  145.0130 C   0  0  0  0  0  3  0  0  0  0  0  0
  182.1850  178.6360  141.1500 C   0  0  0  0  0  0  0  0  0  0  0  0
  181.8690  179.2110  142.2290 O   0  0  0  0  0  0  0  0  0  0  0  0
  181.1400  178.2690  140.1790 N   0  0  0  0  0  2  0  0  0  0  0  0
  178.7150  180.8230  141.1840 C   0  0  0  0  0  0  0  0  0  0  0  0
  179.4900  182.0260  138.6630 C   0  0  0  0  0  3  0  0  0  0  0  0
  178.4250  184.1930  139.3960 C   0  0  0  0  0  1  0  0  0  0  0  0
  179.6420  178.5550  140.4170 C   0  0  2  0  0  0  0  0  0  0  0  0
  178.3230  182.6340  139.4260 C   0  0  2  0  0  3  0  0  0  0  0  0
  178.3270  182.1510  140.8520 C   0  0  0  0  0  0  0  0  0  0  0  0
  177.6920  182.7850  141.7090 O   0  0  0  0  0  0  0  0  0  0  0  0
  178.2340  178.9290  142.5800 C   0  0  0  0  0  3  0  0  0  0  0  0
  180.0020  180.8360  139.1250 C   0  0  0  0  0  3  0  0  0  0  0  0
  179.4620  180.0780  140.3140 C   0  0  0  0  0  0  0  0  0  0  0  0
  179.2930  178.1460  141.8850 C   0  0  0  0  0  2  0  0  0  0  0  0
  177.9910  180.2160  142.3430 C   0  0  0  0  0  3  0  0  0  0  0  0
  178.0810  178.4890  138.6330 O   0  0  0  0  0  0  0  0  0  0  0  0
  178.7490  177.7690  139.4580 C   0  0  0  0  0  0  0  0  0  0  0  0
  178.2280  176.5100  139.7410 O   0  0  0  0  0  1  0  0  0  0  0  0
  188.2770  173.0560  138.6590 C   0  0  0  0  0  2  0  0  0  0  0  0
  188.2900  174.1610  137.5470 C   0  0  0  0  0  2  0  0  0  0  0  0
  190.2940  172.6610  137.0310 N   0  0  0  0  0  2  0  0  0  0  0  0
  189.9510  174.7260  136.0300 O   0  0  0  0  0  0  0  0  0  0  0  0
  189.5630  173.8830  136.8190 C   0  0  0  0  0  0  0  0  0  0  0  0
  191.7530  170.5270  137.8750 O   0  0  0  0  0  1  0  0  0  0  0  0
  193.3110  170.7300  134.5930 O   0  0  0  0  0  1  0  0  0  0  0  0
  193.1350  170.4880  135.9580 C   0  0  1  0  0  3  0  0  0  0  0  0
  192.7660  173.1590  137.1820 C   0  0  0  0  0  2  0  0  0  0  0  0
  194.1550  172.7110  136.6130 C   0  0  0  0  0  2  0  0  0  0  0  0
  191.6040  172.4070  136.4400 C   0  0  1  0  0  3  0  0  0  0  0  0
  194.2360  171.1900  136.7210 C   0  0  2  0  0  3  0  0  0  0  0  0
  191.8020  170.8990  136.5400 C   0  0  2  0  0  3  0  0  0  0  0  0
  195.5660  170.5410  136.5900 N   0  0  1  0  0  0  0  0  0  0  0  0
  195.4860  169.1870  136.7680 O   0  0  0  0  0  0  0  0  0  0  0  0
  197.8750  170.4850  135.6410 C   0  0  0  0  0  2  0  0  0  0  0  0
  196.4800  171.0600  135.5460 C   0  0  0  0  0  2  0  0  0  0  0  0
  197.7890  168.9690  136.0510 C   0  0  0  0  0  2  0  0  0  0  0  0
  196.3800  168.5150  135.8930 C   0  0  0  0  0  2  0  0  0  0  0  0
  1 13  2  0  0  0  0
  2 10  1  0  0  0  0
  3 12  1  0  0  0  0
  4  1  1  0  0  0  0
  5 26  1  0  0  0  0
  5 14  2  0  0  0  0
  6  3  2  0  0  0  0
  7  6  1  0  0  0  0
  8 11  1  6  0  0  0
  8  9  1  0  0  0  0
  9  3  1  1  0  0  0
  9 13  1  0  0  0  0
 10  7  2  0  0  0  0
 10  8  1  0  0  0  0
 11  4  1  0  0  0  0
 14  4  2  0  0  0  0
 15 20  2  0  0  0  0
 15 23  1  0  0  0  0
 17 23  2  0  0  0  0
 18 19  2  0  0  0  0
 18 21  1  0  0  0  0
 19 17  1  0  0  0  0
 21 12  1  6  0  0  0
 22 21  1  0  0  0  0
 22 15  1  0  0  0  0
 23 16  1  0  0  0  0
 24 22  1  0  0  0  0
 24 25  2  0  0  0  0
 25 20  1  0  0  0  0
 26 27  2  0  0  0  0
 28 32  1  0  0  0  0
 28 26  1  0  0  0  0
 29 40  1  0  0  0  0
 30 37  2  0  0  0  0
 30 33  1  0  0  0  0
 32 42  1  6  0  0  0
 32 39  1  0  0  0  0
 33 31  1  1  0  0  0
 33 34  1  0  0  0  0
 34 29  1  0  0  0  0
 34 35  2  0  0  0  0
 37 38  1  0  0  0  0
 38 32  1  0  0  0  0
 38 29  2  0  0  0  0
 39 36  1  0  0  0  0
 40 36  2  0  0  0  0
 41 42  2  0  0  0  0
 42 43  1  0  0  0  0
 44  2  1  0  0  0  0
 45 44  1  0  0  0  0
 47 48  2  0  0  0  0
 48 46  1  0  0  0  0
 48 45  1  0  0  0  0
 51 50  1  6  0  0  0
 51 56  1  0  0  0  0
 51 55  1  0  0  0  0
 53 52  1  0  0  0  0
 54 56  1  0  0  0  0
 54 46  1  1  0  0  0
 54 52  1  0  0  0  0
 55 53  1  6  0  0  0
 56 49  1  1  0  0  0
 57 60  1  6  0  0  0
 57 55  1  0  0  0  0
 57 58  1  0  0  0  0
 59 61  1  0  0  0  0
 60 59  1  0  0  0  0
 62 61  1  0  0  0  0
 62 58  1  0  0  0  0
M  END
>  <MODEL>
8

>  <REMARK>
 VINA RESULT:      -4.9      4.401     13.037
  Name = 
  9 active torsions:
  status: ('A' for Active; 'I' for Inactive)
    1  A    between atoms: N_5  and  C_51
    2  A    between atoms: C_7  and  N_33
    3  A    between atoms: C_7  and  C_52
    4  A    between atoms: C_10  and  C_18
    5  A    between atoms: N_16  and  C_41
    6  A    between atoms: N_21  and  C_50
    7  A    between atoms: N_43  and  C_56
    8  A    between atoms: C_49  and  C_53
    9  A    between atoms: C_51  and  C_53
                            x       y       z     vdW  Elec       q    Type
                         _______ _______ _______ _____ _____    ______ ____

>  <TORSDO>
F 9

$$$$
=
 OpenBabel11042416343D

 62 69  0  0  1  0  0  0  0  0999 V2000
  191.7960  175.9160  141.5160 C   0  0  0  0  0  3  0  0  0  0  0  0
  194.3090  174.3500  145.7570 N   0  0  0  0  0  2  0  0  0  0  0  0
  190.9390  176.6060  145.0750 C   0  0  0  0  0  0  0  0  0  0  0  0
  193.1490  175.4960  141.5900 C   0  0  0  0  0  0  0  0  0  0  0  0
  194.6230  175.1820  139.3720 C   0  0  0  0  0  3  0  0  0  0  0  0
  191.5540  176.4950  146.2650 N   0  0  0  0  0  0  0  0  0  0  0  0
  192.8340  175.9770  146.4110 N   0  0  0  0  0  0  0  0  0  0  0  0
  192.8880  175.5140  144.0100 C   0  0  2  0  0  3  0  0  0  0  0  0
  191.8430  176.5520  143.8910 C   0  0  1  0  0  3  0  0  0  0  0  0
  193.4980  175.4490  145.4290 C   0  0  0  0  0  0  0  0  0  0  0  0
  193.8530  175.5190  142.9100 C   0  0  0  0  0  2  0  0  0  0  0  0
  189.5080  176.6140  144.9720 N   0  0  0  0  0  2  0  0  0  0  0  0
  191.2330  176.3870  142.6040 N   0  0  0  0  0  0  0  0  0  0  0  0
  193.8380  175.2290  140.4370 C   0  0  0  0  0  0  0  0  0  0  0  0
  185.9240  177.6300  145.2270 C   0  0  0  0  0  0  0  0  0  0  0  0
  184.0930  178.8580  146.2860 C   0  0  0  0  0  1  0  0  0  0  0  0
  186.0630  178.3460  147.5380 C   0  0  0  0  0  3  0  0  0  0  0  0
  188.3590  177.4050  147.0750 C   0  0  0  0  0  3  0  0  0  0  0  0
  187.3620  177.7730  147.8690 C   0  0  0  0  0  3  0  0  0  0  0  0
  185.1700  177.4290  144.0880 N   0  0  0  0  0  0  0  0  0  0  0  0
  188.4570  177.4860  145.6040 C   0  0  2  0  0  3  0  0  0  0  0  0
  187.2080  177.1940  144.9080 N   0  0  0  0  0  0  0  0  0  0  0  0
  185.4400  178.3120  146.3860 C   0  0  0  0  0  0  0  0  0  0  0  0
  187.2590  176.7390  143.6920 N   0  0  0  0  0  0  0  0  0  0  0  0
  186.0220  176.8850  143.1940 C   0  0  0  0  0  3  0  0  0  0  0  0
  195.0240  174.4060  138.0840 C   0  0  0  0  0  0  0  0  0  0  0  0
  194.2800  174.7410  137.1200 O   0  0  0  0  0  0  0  0  0  0  0  0
  196.0520  173.3670  137.8930 N   0  0  0  0  0  2  0  0  0  0  0  0
  195.2040  170.3980  135.9240 C   0  0  0  0  0  0  0  0  0  0  0  0
  192.5750  171.6180  135.8970 C   0  0  0  0  0  3  0  0  0  0  0  0
  191.5900  169.4240  135.1340 C   0  0  0  0  0  1  0  0  0  0  0  0
  196.2710  172.6490  136.5440 C   0  0  2  0  0  0  0  0  0  0  0  0
  192.8120  170.3920  135.0290 C   0  0  2  0  0  3  0  0  0  0  0  0
  194.0640  169.6800  135.4670 C   0  0  0  0  0  0  0  0  0  0  0  0
  194.2370  168.4960  135.1350 O   0  0  0  0  0  0  0  0  0  0  0  0
  197.6030  170.5080  135.8770 C   0  0  0  0  0  3  0  0  0  0  0  0
  193.6670  172.1830  136.5140 C   0  0  0  0  0  3  0  0  0  0  0  0
  195.0850  171.6890  136.3590 C   0  0  0  0  0  0  0  0  0  0  0  0
  197.5610  171.7730  136.6610 C   0  0  0  0  0  2  0  0  0  0  0  0
  196.5240  169.7830  135.5870 C   0  0  0  0  0  3  0  0  0  0  0  0
  197.4590  174.4140  135.4980 O   0  0  0  0  0  1  0  0  0  0  0  0
  196.4440  173.6350  135.3910 C   0  0  0  0  0  0  0  0  0  0  0  0
  195.3960  174.0920  134.5980 O   0  0  0  0  0  0  0  0  0  0  0  0
  195.3910  174.3590  146.7050 C   0  0  0  0  0  2  0  0  0  0  0  0
  196.7160  173.8200  146.0660 C   0  0  0  0  0  2  0  0  0  0  0  0
  195.9170  172.4340  144.0730 N   0  0  0  0  0  2  0  0  0  0  0  0
  196.2830  171.5440  146.1840 O   0  0  0  0  0  0  0  0  0  0  0  0
  196.2900  172.5230  145.4600 C   0  0  0  0  0  0  0  0  0  0  0  0
  194.6910  172.5690  141.6490 O   0  0  0  0  0  1  0  0  0  0  0  0
  195.6070  169.0570  141.3750 O   0  0  0  0  0  1  0  0  0  0  0  0
  194.9060  170.2550  141.2140 C   0  0  1  0  0  3  0  0  0  0  0  0
  193.8900  170.9330  143.9110 C   0  0  0  0  0  2  0  0  0  0  0  0
  193.3100  169.7220  143.1060 C   0  0  0  0  0  2  0  0  0  0  0  0
  195.3710  171.2190  143.4740 C   0  0  1  0  0  3  0  0  0  0  0  0
  193.4660  170.0320  141.6180 C   0  0  2  0  0  3  0  0  0  0  0  0
  195.4430  171.4480  141.9690 C   0  0  2  0  0  3  0  0  0  0  0  0
  192.6840  169.2280  140.6420 N   0  0  1  0  0  0  0  0  0  0  0  0
  191.3380  169.3520  140.8520 O   0  0  0  0  0  0  0  0  0  0  0  0
  192.4440  168.1700  138.3930 C   0  0  0  0  0  2  0  0  0  0  0  0
  193.1780  169.1810  139.2460 C   0  0  0  0  0  2  0  0  0  0  0  0
  190.9210  168.1660  138.7820 C   0  0  0  0  0  2  0  0  0  0  0  0
  190.6410  169.3670  139.6160 C   0  0  0  0  0  2  0  0  0  0  0  0
  1  4  1  0  0  0  0
  1 13  2  0  0  0  0
  2 44  1  0  0  0  0
  3  6  2  0  0  0  0
  4 11  1  0  0  0  0
  5 14  2  0  0  0  0
  6  7  1  0  0  0  0
  8 11  1  6  0  0  0
  8 10  1  0  0  0  0
  9 13  1  6  0  0  0
  9  8  1  0  0  0  0
  9  3  1  0  0  0  0
 10  2  1  0  0  0  0
 10  7  2  0  0  0  0
 12  3  1  0  0  0  0
 14  4  2  0  0  0  0
 15 23  1  0  0  0  0
 16 23  1  0  0  0  0
 17 19  1  0  0  0  0
 18 19  2  0  0  0  0
 20 15  2  0  0  0  0
 21 12  1  6  0  0  0
 21 18  1  0  0  0  0
 22 15  1  0  0  0  0
 22 21  1  0  0  0  0
 23 17  2  0  0  0  0
 24 22  1  0  0  0  0
 25 24  2  0  0  0  0
 25 20  1  0  0  0  0
 26  5  1  0  0  0  0
 27 26  2  0  0  0  0
 28 26  1  0  0  0  0
 29 38  2  0  0  0  0
 30 37  2  0  0  0  0
 32 42  1  6  0  0  0
 32 39  1  0  0  0  0
 32 28  1  0  0  0  0
 33 31  1  1  0  0  0
 33 34  1  0  0  0  0
 33 30  1  0  0  0  0
 34 29  1  0  0  0  0
 35 34  2  0  0  0  0
 36 39  1  0  0  0  0
 38 37  1  0  0  0  0
 38 32  1  0  0  0  0
 40 36  2  0  0  0  0
 40 29  1  0  0  0  0
 42 41  1  0  0  0  0
 43 42  2  0  0  0  0
 45 44  1  0  0  0  0
 46 48  1  0  0  0  0
 48 45  1  0  0  0  0
 48 47  2  0  0  0  0
 51 50  1  1  0  0  0
 51 55  1  0  0  0  0
 51 56  1  0  0  0  0
 53 52  1  0  0  0  0
 54 52  1  0  0  0  0
 54 46  1  1  0  0  0
 55 53  1  1  0  0  0
 56 49  1  1  0  0  0
 56 54  1  0  0  0  0
 57 60  1  6  0  0  0
 57 58  1  0  0  0  0
 57 55  1  0  0  0  0
 59 61  1  0  0  0  0
 59 60  1  0  0  0  0
 61 62  1  0  0  0  0
 62 58  1  0  0  0  0
M  END
>  <MODEL>
9

>  <REMARK>
 VINA RESULT:      -4.7      3.788      8.109
  Name = 
  9 active torsions:
  status: ('A' for Active; 'I' for Inactive)
    1  A    between atoms: N_5  and  C_51
    2  A    between atoms: C_7  and  N_33
    3  A    between atoms: C_7  and  C_52
    4  A    between atoms: C_10  and  C_18
    5  A    between atoms: N_16  and  C_41
    6  A    between atoms: N_21  and  C_50
    7  A    between atoms: N_43  and  C_56
    8  A    between atoms: C_49  and  C_53
    9  A    between atoms: C_51  and  C_53
                            x       y       z     vdW  Elec       q    Type
                         _______ _______ _______ _____ _____    ______ ____

>  <TORSDO>
F 9

$$$$
