=
 OpenBabel11042417293D

 39 43  0  0  1  0  0  0  0  0999 V2000
  191.5560  176.0410  146.3140 C   0  0  1  0  0  3  0  0  0  0  0  0
  189.6740  177.5210  146.8620 N   0  0  0  0  0  2  0  0  0  0  0  0
  190.6860  174.8520  145.9270 C   0  0  0  0  0  2  0  0  0  0  0  0
  190.8760  176.8870  147.3880 C   0  0  0  0  0  2  0  0  0  0  0  0
  188.5830  176.5720  147.0360 C   0  0  0  0  0  2  0  0  0  0  0  0
  188.3120  175.7840  145.7490 C   0  0  2  0  0  3  0  0  0  0  0  0
  189.5660  175.3100  144.9970 C   0  0  2  0  0  3  0  0  0  0  0  0
  186.7410  177.7570  143.0540 N   0  0  0  0  0  0  0  0  0  0  0  0
  187.8260  177.1450  143.7320 C   0  0  0  0  0  3  0  0  0  0  0  0
  185.9060  176.7300  145.0490 C   0  0  1  0  0  3  0  0  0  0  0  0
  185.5870  177.5370  143.8410 C   0  0  0  0  0  0  0  0  0  0  0  0
  184.4440  177.9730  143.5420 O   0  0  0  0  0  0  0  0  0  0  0  0
  187.3930  176.5450  144.8400 C   0  0  0  0  0  0  0  0  0  0  0  0
  185.6410  177.5580  146.2960 C   0  0  0  0  0  1  0  0  0  0  0  0
  186.8560  178.6690  142.0580 O   0  0  0  0  0  0  0  0  0  0  0  0
  186.7720  177.9290  140.8760 C   0  0  0  0  0  1  0  0  0  0  0  0
  192.8920  175.5270  146.8270 C   0  0  0  0  0  2  0  0  0  0  0  0
  194.4410  175.8930  143.8770 C   0  0  0  0  0  0  0  0  0  0  0  0
  194.3460  176.0680  142.6340 O   0  0  0  0  0  0  0  0  0  0  0  0
  194.0490  176.2420  146.1460 C   0  0  1  0  0  3  0  0  0  0  0  0
  195.2550  175.2990  146.0000 C   0  0  0  0  0  2  0  0  0  0  0  0
  195.4060  174.9650  144.5150 C   0  0  1  0  0  3  0  0  0  0  0  0
  193.6570  176.6170  144.8000 N   0  0  0  0  0  2  0  0  0  0  0  0
  195.0720  173.4820  144.2930 C   0  0  1  0  0  3  0  0  0  0  0  0
  195.5450  172.6590  145.3210 O   0  0  0  0  0  1  0  0  0  0  0  0
  193.0370  172.0410  144.7590 C   0  0  0  0  0  1  0  0  0  0  0  0
  193.5940  173.2330  143.9990 C   0  0  0  0  0  2  0  0  0  0  0  0
  189.2120  174.2320  144.0860 N   0  0  0  0  0  2  0  0  0  0  0  0
  191.4060  174.1750  141.2160 C   0  0  0  0  0  3  0  0  0  0  0  0
  190.8460  174.8410  142.2150 C   0  0  0  0  0  3  0  0  0  0  0  0
  190.0060  173.9060  142.9440 C   0  0  0  0  0  0  0  0  0  0  0  0
  190.9620  172.7420  141.2310 C   0  0  1  0  0  3  0  0  0  0  0  0
  190.0420  172.7020  142.4080 C   0  0  0  0  0  3  0  0  0  0  0  0
  190.2310  172.3910  139.9720 C   0  0  0  0  0  0  0  0  0  0  0  0
  189.7240  173.4400  139.1470 N   0  0  0  0  0  2  0  0  0  0  0  0
  190.0740  171.1840  139.6380 O   0  0  0  0  0  0  0  0  0  0  0  0
  188.1400  174.3620  137.5690 C   0  0  0  0  0  2  0  0  0  0  0  0
  189.0050  173.1680  137.9130 C   0  0  0  0  0  3  0  0  0  0  0  0
  189.4540  174.1500  136.8510 C   0  0  0  0  0  2  0  0  0  0  0  0
  1 17  1  1  0  0  0
  1  4  1  0  0  0  0
  2  5  1  0  0  0  0
  2  4  1  0  0  0  0
  3  1  1  0  0  0  0
  6 13  1  6  0  0  0
  6  5  1  0  0  0  0
  7 28  1  6  0  0  0
  7  6  1  0  0  0  0
  7  3  1  0  0  0  0
  8  9  1  0  0  0  0
  8 11  1  0  0  0  0
  9 13  2  0  0  0  0
 10 14  1  1  0  0  0
 11 10  1  0  0  0  0
 12 11  2  0  0  0  0
 13 10  1  0  0  0  0
 15  8  1  0  0  0  0
 16 15  1  0  0  0  0
 18 22  1  0  0  0  0
 18 23  1  0  0  0  0
 19 18  2  0  0  0  0
 20 17  1  6  0  0  0
 21 20  1  0  0  0  0
 22 24  1  1  0  0  0
 22 21  1  0  0  0  0
 23 20  1  0  0  0  0
 24 25  1  1  0  0  0
 27 24  1  0  0  0  0
 27 26  1  0  0  0  0
 29 32  1  0  0  0  0
 29 30  2  0  0  0  0
 30 31  1  0  0  0  0
 31 28  1  0  0  0  0
 32 34  1  6  0  0  0
 32 33  1  0  0  0  0
 33 31  2  0  0  0  0
 35 34  1  0  0  0  0
 36 34  2  0  0  0  0
 37 38  1  0  0  0  0
 38 35  1  0  0  0  0
 39 37  1  0  0  0  0
 39 38  1  0  0  0  0
M  END
>  <MODEL>
1

>  <REMARK>
 VINA RESULT:      -7.0      0.000      0.000
  Name = 
  10 active torsions:
  status: ('A' for Active; 'I' for Inactive)
    1  A    between atoms: N_1  and  O_6
    2  A    between atoms: C_2  and  C_24
    3  A    between atoms: C_5  and  C_23
    4  A    between atoms: C_7  and  N_33
    5  A    between atoms: C_12  and  C_27
    6  A    between atoms: C_12  and  C_37
    7  A    between atoms: C_13  and  C_24
    8  A    between atoms: C_19  and  N_32
    9  A    between atoms: C_28  and  C_36
   10  A    between atoms: C_30  and  N_32
                            x       y       z     vdW  Elec       q    Type
                         _______ _______ _______ _____ _____    ______ ____

>  <TORSDO>
F 10

$$$$
=
 OpenBabel11042417293D

 39 43  0  0  1  0  0  0  0  0999 V2000
  188.8580  176.2220  142.6690 C   0  0  1  0  0  3  0  0  0  0  0  0
  188.7310  174.6440  140.7900 N   0  0  0  0  0  2  0  0  0  0  0  0
  188.8810  175.1460  143.7470 C   0  0  0  0  0  2  0  0  0  0  0  0
  188.0610  175.7550  141.4520 C   0  0  0  0  0  2  0  0  0  0  0  0
  188.2820  173.4240  141.4480 C   0  0  0  0  0  2  0  0  0  0  0  0
  189.2890  172.9500  142.5040 C   0  0  2  0  0  3  0  0  0  0  0  0
  189.8900  174.0630  143.3780 C   0  0  2  0  0  3  0  0  0  0  0  0
  191.6070  170.2880  141.4280 N   0  0  0  0  0  0  0  0  0  0  0  0
  190.5460  170.8340  142.1940 C   0  0  0  0  0  3  0  0  0  0  0  0
  191.3570  172.5950  140.8400 C   0  0  1  0  0  3  0  0  0  0  0  0
  192.1180  171.3360  140.6270 C   0  0  0  0  0  0  0  0  0  0  0  0
  193.0920  171.2020  139.8400 O   0  0  0  0  0  0  0  0  0  0  0  0
  190.3650  172.1150  141.8770 C   0  0  0  0  0  0  0  0  0  0  0  0
  192.2780  173.6510  141.4290 C   0  0  0  0  0  1  0  0  0  0  0  0
  192.2300  169.1120  141.6810 O   0  0  0  0  0  0  0  0  0  0  0  0
  192.7670  169.2520  142.9630 C   0  0  0  0  0  1  0  0  0  0  0  0
  188.2360  177.4830  143.2440 C   0  0  0  0  0  2  0  0  0  0  0  0
  185.4260  179.1560  143.9850 C   0  0  0  0  0  0  0  0  0  0  0  0
  184.8560  180.2650  144.1560 O   0  0  0  0  0  0  0  0  0  0  0  0
  186.7440  177.5390  142.9500 C   0  0  1  0  0  3  0  0  0  0  0  0
  185.9450  176.8660  144.0780 C   0  0  0  0  0  2  0  0  0  0  0  0
  185.2010  177.9650  144.8390 C   0  0  1  0  0  3  0  0  0  0  0  0
  186.3120  178.9240  142.9120 N   0  0  0  0  0  2  0  0  0  0  0  0
  185.7970  178.0970  146.2490 C   0  0  1  0  0  3  0  0  0  0  0  0
  184.8290  178.3640  147.2240 O   0  0  0  0  0  1  0  0  0  0  0  0
  188.1250  177.3420  146.9110 C   0  0  0  0  0  1  0  0  0  0  0  0
  186.6910  176.9230  146.6410 C   0  0  0  0  0  2  0  0  0  0  0  0
  190.4520  173.4830  144.5880 N   0  0  0  0  0  2  0  0  0  0  0  0
  192.2640  175.5410  146.9420 C   0  0  0  0  0  3  0  0  0  0  0  0
  191.1120  175.1030  146.4550 C   0  0  0  0  0  3  0  0  0  0  0  0
  191.4200  174.1690  145.3850 C   0  0  0  0  0  0  0  0  0  0  0  0
  193.4120  174.9100  146.2110 C   0  0  1  0  0  3  0  0  0  0  0  0
  192.7210  174.0390  145.2140 C   0  0  0  0  0  3  0  0  0  0  0  0
  194.2490  175.9450  145.5250 C   0  0  0  0  0  0  0  0  0  0  0  0
  195.0200  175.5690  144.3840 N   0  0  0  0  0  2  0  0  0  0  0  0
  194.2660  177.1360  145.9420 O   0  0  0  0  0  0  0  0  0  0  0  0
  197.1070  175.8230  143.1880 C   0  0  0  0  0  2  0  0  0  0  0  0
  195.8540  176.5230  143.6720 C   0  0  0  0  0  3  0  0  0  0  0  0
  195.9730  176.0950  142.2240 C   0  0  0  0  0  2  0  0  0  0  0  0
  1 17  1  1  0  0  0
  1  3  1  0  0  0  0
  2  5  1  0  0  0  0
  2  4  1  0  0  0  0
  4  1  1  0  0  0  0
  5  6  1  0  0  0  0
  6 13  1  6  0  0  0
  6  7  1  0  0  0  0
  7  3  1  0  0  0  0
  7 28  1  1  0  0  0
  8 15  1  0  0  0  0
  8  9  1  0  0  0  0
 10 14  1  1  0  0  0
 10 13  1  0  0  0  0
 11 10  1  0  0  0  0
 11  8  1  0  0  0  0
 12 11  2  0  0  0  0
 13  9  2  0  0  0  0
 15 16  1  0  0  0  0
 18 19  2  0  0  0  0
 18 22  1  0  0  0  0
 20 17  1  1  0  0  0
 20 21  1  0  0  0  0
 21 22  1  0  0  0  0
 22 24  1  1  0  0  0
 23 20  1  0  0  0  0
 23 18  1  0  0  0  0
 24 27  1  0  0  0  0
 24 25  1  1  0  0  0
 27 26  1  0  0  0  0
 28 31  1  0  0  0  0
 30 29  2  0  0  0  0
 31 30  1  0  0  0  0
 32 34  1  6  0  0  0
 32 29  1  0  0  0  0
 33 31  2  0  0  0  0
 33 32  1  0  0  0  0
 34 36  2  0  0  0  0
 35 34  1  0  0  0  0
 37 38  1  0  0  0  0
 38 35  1  0  0  0  0
 39 37  1  0  0  0  0
 39 38  1  0  0  0  0
M  END
>  <MODEL>
2

>  <REMARK>
 VINA RESULT:      -6.9      2.245      8.059
  Name = 
  10 active torsions:
  status: ('A' for Active; 'I' for Inactive)
    1  A    between atoms: N_1  and  O_6
    2  A    between atoms: C_2  and  C_24
    3  A    between atoms: C_5  and  C_23
    4  A    between atoms: C_7  and  N_33
    5  A    between atoms: C_12  and  C_27
    6  A    between atoms: C_12  and  C_37
    7  A    between atoms: C_13  and  C_24
    8  A    between atoms: C_19  and  N_32
    9  A    between atoms: C_28  and  C_36
   10  A    between atoms: C_30  and  N_32
                            x       y       z     vdW  Elec       q    Type
                         _______ _______ _______ _____ _____    ______ ____

>  <TORSDO>
F 10

$$$$
=
 OpenBabel11042417293D

 39 43  0  0  1  0  0  0  0  0999 V2000
  189.3760  175.6080  142.3280 C   0  0  1  0  0  3  0  0  0  0  0  0
  189.8850  173.4860  141.2000 N   0  0  0  0  0  2  0  0  0  0  0  0
  189.4780  175.0400  143.7380 C   0  0  0  0  0  2  0  0  0  0  0  0
  188.8930  174.5430  141.3460 C   0  0  0  0  0  2  0  0  0  0  0  0
  189.6250  172.5130  142.2530 C   0  0  0  0  0  2  0  0  0  0  0  0
  190.5440  172.7330  143.4610 C   0  0  2  0  0  3  0  0  0  0  0  0
  190.7460  174.2020  143.8690 C   0  0  2  0  0  3  0  0  0  0  0  0
  193.5640  170.6210  143.6660 N   0  0  0  0  0  0  0  0  0  0  0  0
  192.3200  171.1290  144.1180 C   0  0  0  0  0  3  0  0  0  0  0  0
  192.8120  172.2800  142.1110 C   0  0  1  0  0  3  0  0  0  0  0  0
  193.8840  171.3160  142.4760 C   0  0  0  0  0  0  0  0  0  0  0  0
  194.9440  171.1290  141.8220 O   0  0  0  0  0  0  0  0  0  0  0  0
  191.8610  172.0420  143.2630 C   0  0  0  0  0  0  0  0  0  0  0  0
  193.3650  173.6950  142.1580 C   0  0  0  0  0  1  0  0  0  0  0  0
  194.4290  169.8920  144.4120 O   0  0  0  0  0  0  0  0  0  0  0  0
  193.7270  168.7370  144.7610 C   0  0  0  0  0  1  0  0  0  0  0  0
  188.4110  176.7820  142.3380 C   0  0  0  0  0  2  0  0  0  0  0  0
  185.3830  177.9080  141.4400 C   0  0  0  0  0  0  0  0  0  0  0  0
  184.7000  178.6690  140.7070 O   0  0  0  0  0  0  0  0  0  0  0  0
  186.9970  176.3270  142.0080 C   0  0  1  0  0  3  0  0  0  0  0  0
  186.0680  176.5300  143.2170 C   0  0  0  0  0  2  0  0  0  0  0  0
  185.1090  177.6730  142.8790 C   0  0  1  0  0  3  0  0  0  0  0  0
  186.4640  177.1520  140.9390 N   0  0  0  0  0  2  0  0  0  0  0  0
  185.4290  178.8820  143.7710 C   0  0  1  0  0  3  0  0  0  0  0  0
  184.2830  179.5690  144.1870 O   0  0  0  0  0  1  0  0  0  0  0  0
  185.6650  178.7170  146.2910 C   0  0  0  0  0  1  0  0  0  0  0  0
  186.3460  178.5430  144.9450 C   0  0  0  0  0  2  0  0  0  0  0  0
  191.2370  174.2660  145.2370 N   0  0  0  0  0  2  0  0  0  0  0  0
  193.7990  176.6930  146.0140 C   0  0  0  0  0  3  0  0  0  0  0  0
  192.5460  176.4180  145.6840 C   0  0  0  0  0  3  0  0  0  0  0  0
  192.4280  174.9730  145.5880 C   0  0  0  0  0  0  0  0  0  0  0  0
  194.5890  175.4270  146.1590 C   0  0  1  0  0  3  0  0  0  0  0  0
  193.5740  174.3750  145.8470 C   0  0  0  0  0  3  0  0  0  0  0  0
  195.7210  175.3820  145.1800 C   0  0  0  0  0  0  0  0  0  0  0  0
  195.7590  176.3350  144.1180 N   0  0  0  0  0  2  0  0  0  0  0  0
  196.6360  174.5210  145.2980 O   0  0  0  0  0  0  0  0  0  0  0  0
  196.5650  175.2680  142.1020 C   0  0  0  0  0  2  0  0  0  0  0  0
  196.8280  176.3460  143.1330 C   0  0  0  0  0  3  0  0  0  0  0  0
  196.2530  176.7120  141.7800 C   0  0  0  0  0  2  0  0  0  0  0  0
  1 17  1  1  0  0  0
  1  3  1  0  0  0  0
  2  4  1  0  0  0  0
  2  5  1  0  0  0  0
  3  7  1  0  0  0  0
  4  1  1  0  0  0  0
  5  6  1  0  0  0  0
  6 13  1  6  0  0  0
  6  7  1  0  0  0  0
  7 28  1  1  0  0  0
  8  9  1  0  0  0  0
  8 15  1  0  0  0  0
 10 14  1  1  0  0  0
 10 11  1  0  0  0  0
 10 13  1  0  0  0  0
 11  8  1  0  0  0  0
 12 11  2  0  0  0  0
 13  9  2  0  0  0  0
 15 16  1  0  0  0  0
 18 22  1  0  0  0  0
 19 18  2  0  0  0  0
 20 17  1  1  0  0  0
 20 21  1  0  0  0  0
 22 21  1  0  0  0  0
 22 24  1  1  0  0  0
 23 18  1  0  0  0  0
 23 20  1  0  0  0  0
 24 25  1  1  0  0  0
 24 27  1  0  0  0  0
 27 26  1  0  0  0  0
 28 31  1  0  0  0  0
 29 32  1  0  0  0  0
 30 29  2  0  0  0  0
 31 30  1  0  0  0  0
 31 33  2  0  0  0  0
 32 34  1  6  0  0  0
 33 32  1  0  0  0  0
 34 36  2  0  0  0  0
 35 34  1  0  0  0  0
 37 38  1  0  0  0  0
 38 35  1  0  0  0  0
 39 37  1  0  0  0  0
 39 38  1  0  0  0  0
M  END
>  <MODEL>
3

>  <REMARK>
 VINA RESULT:      -6.8      2.394      8.478
  Name = 
  10 active torsions:
  status: ('A' for Active; 'I' for Inactive)
    1  A    between atoms: N_1  and  O_6
    2  A    between atoms: C_2  and  C_24
    3  A    between atoms: C_5  and  C_23
    4  A    between atoms: C_7  and  N_33
    5  A    between atoms: C_12  and  C_27
    6  A    between atoms: C_12  and  C_37
    7  A    between atoms: C_13  and  C_24
    8  A    between atoms: C_19  and  N_32
    9  A    between atoms: C_28  and  C_36
   10  A    between atoms: C_30  and  N_32
                            x       y       z     vdW  Elec       q    Type
                         _______ _______ _______ _____ _____    ______ ____

>  <TORSDO>
F 10

$$$$
=
 OpenBabel11042417293D

 39 43  0  0  1  0  0  0  0  0999 V2000
  189.0170  174.8680  142.5160 C   0  0  1  0  0  3  0  0  0  0  0  0
  189.9770  173.6720  140.5970 N   0  0  0  0  0  2  0  0  0  0  0  0
  189.5190  173.8770  143.5580 C   0  0  0  0  0  2  0  0  0  0  0  0
  188.7400  174.1660  141.1880 C   0  0  0  0  0  2  0  0  0  0  0  0
  190.2120  172.3460  141.1520 C   0  0  0  0  0  2  0  0  0  0  0  0
  191.1980  172.3940  142.3260 C   0  0  2  0  0  3  0  0  0  0  0  0
  190.9900  173.5610  143.3060 C   0  0  2  0  0  3  0  0  0  0  0  0
  194.7270  171.5970  141.5970 N   0  0  0  0  0  0  0  0  0  0  0  0
  193.4800  171.4220  142.2470 C   0  0  0  0  0  3  0  0  0  0  0  0
  193.2320  173.3080  140.8430 C   0  0  1  0  0  3  0  0  0  0  0  0
  194.6030  172.7370  140.7690 C   0  0  0  0  0  0  0  0  0  0  0  0
  195.5410  173.1940  140.0650 O   0  0  0  0  0  0  0  0  0  0  0  0
  192.6150  172.3470  141.8350 C   0  0  0  0  0  0  0  0  0  0  0  0
  193.2980  174.7100  141.4270 C   0  0  0  0  0  1  0  0  0  0  0  0
  195.8930  171.0170  141.9720 O   0  0  0  0  0  0  0  0  0  0  0  0
  196.2180  171.6060  143.1960 C   0  0  0  0  0  1  0  0  0  0  0  0
  187.7460  175.5220  143.0310 C   0  0  0  0  0  2  0  0  0  0  0  0
  189.9540  177.8830  143.9220 C   0  0  0  0  0  0  0  0  0  0  0  0
  191.1320  178.3210  143.8630 O   0  0  0  0  0  0  0  0  0  0  0  0
  187.9240  177.0280  143.1660 C   0  0  1  0  0  3  0  0  0  0  0  0
  187.7530  177.4630  144.6310 C   0  0  0  0  0  2  0  0  0  0  0  0
  189.1270  177.8830  145.1540 C   0  0  1  0  0  3  0  0  0  0  0  0
  189.2780  177.3870  142.7870 N   0  0  0  0  0  2  0  0  0  0  0  0
  189.5970  176.8720  146.2100 C   0  0  1  0  0  3  0  0  0  0  0  0
  190.1710  177.4830  147.3310 O   0  0  0  0  0  1  0  0  0  0  0  0
  189.0970  174.6040  147.2300 C   0  0  0  0  0  1  0  0  0  0  0  0
  188.5210  175.8610  146.6020 C   0  0  0  0  0  2  0  0  0  0  0  0
  191.6520  173.2630  144.5670 N   0  0  0  0  0  2  0  0  0  0  0  0
  193.6750  175.9560  145.8750 C   0  0  0  0  0  3  0  0  0  0  0  0
  192.5180  175.5220  145.3970 C   0  0  0  0  0  3  0  0  0  0  0  0
  192.6690  174.1060  145.1130 C   0  0  0  0  0  0  0  0  0  0  0  0
  194.6680  174.8330  145.9350 C   0  0  1  0  0  3  0  0  0  0  0  0
  193.8830  173.6800  145.4020 C   0  0  0  0  0  3  0  0  0  0  0  0
  195.8560  175.1160  145.0690 C   0  0  0  0  0  0  0  0  0  0  0  0
  195.7680  176.1450  144.0840 N   0  0  0  0  0  2  0  0  0  0  0  0
  196.9250  174.4620  145.2140 O   0  0  0  0  0  0  0  0  0  0  0  0
  196.9940  175.4100  142.1330 C   0  0  0  0  0  2  0  0  0  0  0  0
  196.8820  176.4690  143.2090 C   0  0  0  0  0  3  0  0  0  0  0  0
  196.3560  176.7440  141.8150 C   0  0  0  0  0  2  0  0  0  0  0  0
  1 17  1  1  0  0  0
  1  3  1  0  0  0  0
  2  5  1  0  0  0  0
  2  4  1  0  0  0  0
  4  1  1  0  0  0  0
  5  6  1  0  0  0  0
  6 13  1  6  0  0  0
  6  7  1  0  0  0  0
  7  3  1  0  0  0  0
  7 28  1  1  0  0  0
  8 15  1  0  0  0  0
  8  9  1  0  0  0  0
 10 14  1  1  0  0  0
 10 13  1  0  0  0  0
 11 10  1  0  0  0  0
 11  8  1  0  0  0  0
 12 11  2  0  0  0  0
 13  9  2  0  0  0  0
 15 16  1  0  0  0  0
 18 22  1  0  0  0  0
 19 18  2  0  0  0  0
 20 17  1  1  0  0  0
 20 21  1  0  0  0  0
 21 22  1  0  0  0  0
 22 24  1  1  0  0  0
 23 20  1  0  0  0  0
 23 18  1  0  0  0  0
 24 27  1  0  0  0  0
 24 25  1  1  0  0  0
 27 26  1  0  0  0  0
 28 31  1  0  0  0  0
 29 32  1  0  0  0  0
 30 29  2  0  0  0  0
 31 30  1  0  0  0  0
 31 33  2  0  0  0  0
 32 34  1  6  0  0  0
 33 32  1  0  0  0  0
 34 36  2  0  0  0  0
 35 34  1  0  0  0  0
 37 38  1  0  0  0  0
 38 35  1  0  0  0  0
 39 37  1  0  0  0  0
 39 38  1  0  0  0  0
M  END
>  <MODEL>
4

>  <REMARK>
 VINA RESULT:      -6.8      2.636      7.573
  Name = 
  10 active torsions:
  status: ('A' for Active; 'I' for Inactive)
    1  A    between atoms: N_1  and  O_6
    2  A    between atoms: C_2  and  C_24
    3  A    between atoms: C_5  and  C_23
    4  A    between atoms: C_7  and  N_33
    5  A    between atoms: C_12  and  C_27
    6  A    between atoms: C_12  and  C_37
    7  A    between atoms: C_13  and  C_24
    8  A    between atoms: C_19  and  N_32
    9  A    between atoms: C_28  and  C_36
   10  A    between atoms: C_30  and  N_32
                            x       y       z     vdW  Elec       q    Type
                         _______ _______ _______ _____ _____    ______ ____

>  <TORSDO>
F 10

$$$$
=
 OpenBabel11042417293D

 39 43  0  0  1  0  0  0  0  0999 V2000
  189.5130  175.5090  146.4540 C   0  0  1  0  0  3  0  0  0  0  0  0
  191.8010  175.5970  147.3430 N   0  0  0  0  0  2  0  0  0  0  0  0
  189.9010  175.9250  145.0410 C   0  0  0  0  0  2  0  0  0  0  0  0
  190.4540  176.1340  147.4820 C   0  0  0  0  0  2  0  0  0  0  0  0
  192.4830  176.4130  146.3470 C   0  0  0  0  0  2  0  0  0  0  0  0
  192.4500  175.7550  144.9620 C   0  0  2  0  0  3  0  0  0  0  0  0
  191.1070  175.1150  144.5750 C   0  0  2  0  0  3  0  0  0  0  0  0
  194.7670  172.8860  145.1090 N   0  0  0  0  0  0  0  0  0  0  0  0
  193.6090  173.6200  145.4690 C   0  0  0  0  0  3  0  0  0  0  0  0
  194.7880  174.9650  143.9210 C   0  0  1  0  0  3  0  0  0  0  0  0
  195.4960  173.6870  144.1990 C   0  0  0  0  0  0  0  0  0  0  0  0
  196.6000  173.3460  143.6970 O   0  0  0  0  0  0  0  0  0  0  0  0
  193.5780  174.7780  144.8090 C   0  0  0  0  0  0  0  0  0  0  0  0
  195.6340  176.1300  144.4090 C   0  0  0  0  0  1  0  0  0  0  0  0
  195.2510  171.8100  145.7760 O   0  0  0  0  0  0  0  0  0  0  0  0
  194.6160  170.7080  145.2010 C   0  0  0  0  0  1  0  0  0  0  0  0
  188.0840  175.9510  146.7220 C   0  0  0  0  0  2  0  0  0  0  0  0
  185.8270  178.4070  146.3860 C   0  0  0  0  0  0  0  0  0  0  0  0
  184.7320  178.9110  146.7510 O   0  0  0  0  0  0  0  0  0  0  0  0
  187.9450  177.4600  146.5850 C   0  0  1  0  0  3  0  0  0  0  0  0
  187.7230  177.8500  145.1140 C   0  0  0  0  0  2  0  0  0  0  0  0
  186.2780  178.3320  144.9740 C   0  0  1  0  0  3  0  0  0  0  0  0
  186.7670  177.9030  147.3080 N   0  0  0  0  0  2  0  0  0  0  0  0
  185.4870  177.3230  144.1290 C   0  0  1  0  0  3  0  0  0  0  0  0
  184.4470  177.9170  143.4050 O   0  0  0  0  0  1  0  0  0  0  0  0
  186.4780  176.9780  141.8200 C   0  0  0  0  0  1  0  0  0  0  0  0
  186.3720  176.4520  143.2410 C   0  0  0  0  0  2  0  0  0  0  0  0
  191.0500  174.9350  143.1320 N   0  0  0  0  0  2  0  0  0  0  0  0
  188.4110  172.7080  142.0660 C   0  0  0  0  0  3  0  0  0  0  0  0
  189.3790  173.0100  142.9190 C   0  0  0  0  0  3  0  0  0  0  0  0
  189.9620  174.2690  142.4880 C   0  0  0  0  0  0  0  0  0  0  0  0
  188.2980  173.7670  141.0110 C   0  0  1  0  0  3  0  0  0  0  0  0
  189.3750  174.7270  141.4000 C   0  0  0  0  0  3  0  0  0  0  0  0
  188.5560  173.2020  139.6490 C   0  0  0  0  0  0  0  0  0  0  0  0
  189.6590  173.6950  138.8890 N   0  0  0  0  0  2  0  0  0  0  0  0
  187.8150  172.2940  139.1810 O   0  0  0  0  0  0  0  0  0  0  0  0
  189.4170  174.1530  136.5270 C   0  0  0  0  0  2  0  0  0  0  0  0
  189.9640  173.1910  137.5610 C   0  0  0  0  0  3  0  0  0  0  0  0
  190.8920  174.1630  136.8620 C   0  0  0  0  0  2  0  0  0  0  0  0
  1 17  1  1  0  0  0
  1  4  1  0  0  0  0
  2  4  1  0  0  0  0
  3  1  1  0  0  0  0
  5  2  1  0  0  0  0
  6 13  1  1  0  0  0
  6  5  1  0  0  0  0
  7 28  1  6  0  0  0
  7  6  1  0  0  0  0
  7  3  1  0  0  0  0
  8  9  1  0  0  0  0
  8 15  1  0  0  0  0
 10 11  1  0  0  0  0
 10 14  1  1  0  0  0
 10 13  1  0  0  0  0
 11  8  1  0  0  0  0
 12 11  2  0  0  0  0
 13  9  2  0  0  0  0
 16 15  1  0  0  0  0
 18 19  2  0  0  0  0
 18 23  1  0  0  0  0
 20 17  1  6  0  0  0
 20 23  1  0  0  0  0
 21 20  1  0  0  0  0
 22 24  1  6  0  0  0
 22 21  1  0  0  0  0
 22 18  1  0  0  0  0
 24 25  1  6  0  0  0
 26 27  1  0  0  0  0
 27 24  1  0  0  0  0
 29 30  2  0  0  0  0
 31 30  1  0  0  0  0
 31 28  1  0  0  0  0
 32 34  1  6  0  0  0
 32 33  1  0  0  0  0
 32 29  1  0  0  0  0
 33 31  2  0  0  0  0
 35 34  1  0  0  0  0
 36 34  2  0  0  0  0
 37 39  1  0  0  0  0
 37 38  1  0  0  0  0
 38 35  1  0  0  0  0
 39 38  1  0  0  0  0
M  END
>  <MODEL>
5

>  <REMARK>
 VINA RESULT:      -6.7      1.750      6.987
  Name = 
  10 active torsions:
  status: ('A' for Active; 'I' for Inactive)
    1  A    between atoms: N_1  and  O_6
    2  A    between atoms: C_2  and  C_24
    3  A    between atoms: C_5  and  C_23
    4  A    between atoms: C_7  and  N_33
    5  A    between atoms: C_12  and  C_27
    6  A    between atoms: C_12  and  C_37
    7  A    between atoms: C_13  and  C_24
    8  A    between atoms: C_19  and  N_32
    9  A    between atoms: C_28  and  C_36
   10  A    between atoms: C_30  and  N_32
                            x       y       z     vdW  Elec       q    Type
                         _______ _______ _______ _____ _____    ______ ____

>  <TORSDO>
F 10

$$$$
=
 OpenBabel11042417293D

 39 43  0  0  1  0  0  0  0  0999 V2000
  191.4550  176.0370  146.3260 C   0  0  1  0  0  3  0  0  0  0  0  0
  189.6600  177.6600  146.7460 N   0  0  0  0  0  2  0  0  0  0  0  0
  190.5190  174.8640  146.0680 C   0  0  0  0  0  2  0  0  0  0  0  0
  190.8360  177.0180  147.3190 C   0  0  0  0  0  2  0  0  0  0  0  0
  188.5250  176.7910  147.0250 C   0  0  0  0  0  2  0  0  0  0  0  0
  188.1930  175.8960  145.8250 C   0  0  2  0  0  3  0  0  0  0  0  0
  189.4100  175.2870  145.1090 C   0  0  2  0  0  3  0  0  0  0  0  0
  186.7110  177.8040  143.0350 N   0  0  0  0  0  0  0  0  0  0  0  0
  187.7770  177.2510  143.7880 C   0  0  0  0  0  3  0  0  0  0  0  0
  185.7930  176.7040  144.9540 C   0  0  1  0  0  3  0  0  0  0  0  0
  185.5160  177.5050  143.7310 C   0  0  0  0  0  0  0  0  0  0  0  0
  184.3750  177.8750  143.3510 O   0  0  0  0  0  0  0  0  0  0  0  0
  187.3000  176.6120  144.8550 C   0  0  0  0  0  0  0  0  0  0  0  0
  185.3860  177.4990  146.1840 C   0  0  0  0  0  1  0  0  0  0  0  0
  186.8430  178.7330  142.0570 O   0  0  0  0  0  0  0  0  0  0  0  0
  187.0550  178.0030  140.8860 C   0  0  0  0  0  1  0  0  0  0  0  0
  192.7710  175.5070  146.8730 C   0  0  0  0  0  2  0  0  0  0  0  0
  194.3860  175.9340  143.9660 C   0  0  0  0  0  0  0  0  0  0  0  0
  194.3200  176.1480  142.7280 O   0  0  0  0  0  0  0  0  0  0  0  0
  193.9530  176.2220  146.2360 C   0  0  1  0  0  3  0  0  0  0  0  0
  195.1470  175.2640  146.0870 C   0  0  0  0  0  2  0  0  0  0  0  0
  195.3230  174.9720  144.5960 C   0  0  1  0  0  3  0  0  0  0  0  0
  193.5950  176.6440  144.8950 N   0  0  0  0  0  2  0  0  0  0  0  0
  194.9690  173.5020  144.3230 C   0  0  1  0  0  3  0  0  0  0  0  0
  195.5870  172.6200  145.2170 O   0  0  0  0  0  1  0  0  0  0  0  0
  193.0810  171.8330  144.6130 C   0  0  0  0  0  1  0  0  0  0  0  0
  193.4670  173.2500  144.2220 C   0  0  0  0  0  2  0  0  0  0  0  0
  188.9870  174.1440  144.3130 N   0  0  0  0  0  2  0  0  0  0  0  0
  188.8190  174.0670  140.7050 C   0  0  0  0  0  3  0  0  0  0  0  0
  188.2190  174.2290  141.8750 C   0  0  0  0  0  3  0  0  0  0  0  0
  189.2270  174.0630  142.9070 C   0  0  0  0  0  0  0  0  0  0  0  0
  190.2780  173.7830  140.9020 C   0  0  1  0  0  3  0  0  0  0  0  0
  190.4120  173.8020  142.3900 C   0  0  0  0  0  3  0  0  0  0  0  0
  190.6460  172.4410  140.3510 C   0  0  0  0  0  0  0  0  0  0  0  0
  191.2460  171.4760  141.2150 N   0  0  0  0  0  2  0  0  0  0  0  0
  190.4200  172.1610  139.1410 O   0  0  0  0  0  0  0  0  0  0  0  0
  192.3220  169.4100  141.8650 C   0  0  0  0  0  2  0  0  0  0  0  0
  191.6290  170.1560  140.7440 C   0  0  0  0  0  3  0  0  0  0  0  0
  190.8760  169.1080  141.5380 C   0  0  0  0  0  2  0  0  0  0  0  0
  1 17  1  1  0  0  0
  1  4  1  0  0  0  0
  2  5  1  0  0  0  0
  2  4  1  0  0  0  0
  3  1  1  0  0  0  0
  6 13  1  6  0  0  0
  6  5  1  0  0  0  0
  7 28  1  1  0  0  0
  7  6  1  0  0  0  0
  7  3  1  0  0  0  0
  8 11  1  0  0  0  0
  8  9  1  0  0  0  0
  9 13  2  0  0  0  0
 10 14  1  1  0  0  0
 11 10  1  0  0  0  0
 12 11  2  0  0  0  0
 13 10  1  0  0  0  0
 15  8  1  0  0  0  0
 16 15  1  0  0  0  0
 18 22  1  0  0  0  0
 18 23  1  0  0  0  0
 19 18  2  0  0  0  0
 20 17  1  6  0  0  0
 21 20  1  0  0  0  0
 22 24  1  1  0  0  0
 22 21  1  0  0  0  0
 23 20  1  0  0  0  0
 24 25  1  1  0  0  0
 27 24  1  0  0  0  0
 27 26  1  0  0  0  0
 29 32  1  0  0  0  0
 29 30  2  0  0  0  0
 30 31  1  0  0  0  0
 31 28  1  0  0  0  0
 32 34  1  1  0  0  0
 32 33  1  0  0  0  0
 33 31  2  0  0  0  0
 34 35  1  0  0  0  0
 36 34  2  0  0  0  0
 38 35  1  0  0  0  0
 38 39  1  0  0  0  0
 38 37  1  0  0  0  0
 39 37  1  0  0  0  0
M  END
>  <MODEL>
6

>  <REMARK>
 VINA RESULT:      -6.7      1.235      2.056
  Name = 
  10 active torsions:
  status: ('A' for Active; 'I' for Inactive)
    1  A    between atoms: N_1  and  O_6
    2  A    between atoms: C_2  and  C_24
    3  A    between atoms: C_5  and  C_23
    4  A    between atoms: C_7  and  N_33
    5  A    between atoms: C_12  and  C_27
    6  A    between atoms: C_12  and  C_37
    7  A    between atoms: C_13  and  C_24
    8  A    between atoms: C_19  and  N_32
    9  A    between atoms: C_28  and  C_36
   10  A    between atoms: C_30  and  N_32
                            x       y       z     vdW  Elec       q    Type
                         _______ _______ _______ _____ _____    ______ ____

>  <TORSDO>
F 10

$$$$
=
 OpenBabel11042417293D

 39 43  0  0  1  0  0  0  0  0999 V2000
  188.5620  175.2680  141.6300 C   0  0  1  0  0  3  0  0  0  0  0  0
  189.8370  173.7310  140.2000 N   0  0  0  0  0  2  0  0  0  0  0  0
  188.3930  174.2790  142.7760 C   0  0  0  0  0  2  0  0  0  0  0  0
  188.6300  174.5410  140.2890 C   0  0  0  0  0  2  0  0  0  0  0  0
  189.5250  172.4370  140.7920 C   0  0  0  0  0  2  0  0  0  0  0  0
  189.9930  172.3560  142.2500 C   0  0  2  0  0  3  0  0  0  0  0  0
  189.7310  173.6160  143.0900 C   0  0  2  0  0  3  0  0  0  0  0  0
  193.6770  172.1390  142.1970 N   0  0  0  0  0  0  0  0  0  0  0  0
  192.4260  172.7760  142.0000 C   0  0  0  0  0  3  0  0  0  0  0  0
  191.9410  170.5910  142.7630 C   0  0  1  0  0  3  0  0  0  0  0  0
  193.4040  170.8220  142.6330 C   0  0  0  0  0  0  0  0  0  0  0  0
  194.2970  169.9680  142.8770 O   0  0  0  0  0  0  0  0  0  0  0  0
  191.4350  171.9480  142.3250 C   0  0  0  0  0  0  0  0  0  0  0  0
  191.5080  169.5160  141.7790 C   0  0  0  0  0  1  0  0  0  0  0  0
  194.8650  172.5820  141.7170 O   0  0  0  0  0  0  0  0  0  0  0  0
  194.6420  172.8290  140.3610 C   0  0  0  0  0  1  0  0  0  0  0  0
  187.3890  176.2350  141.6370 C   0  0  0  0  0  2  0  0  0  0  0  0
  189.1530  177.8530  143.9850 C   0  0  0  0  0  0  0  0  0  0  0  0
  190.2010  177.9190  144.6790 O   0  0  0  0  0  0  0  0  0  0  0  0
  187.8300  177.6220  142.0830 C   0  0  1  0  0  3  0  0  0  0  0  0
  186.9430  178.1260  143.2340 C   0  0  0  0  0  2  0  0  0  0  0  0
  187.7920  178.1300  144.5060 C   0  0  1  0  0  3  0  0  0  0  0  0
  189.1810  177.5520  142.6070 N   0  0  0  0  0  2  0  0  0  0  0  0
  187.2700  177.0520  145.4680 C   0  0  1  0  0  3  0  0  0  0  0  0
  187.6340  177.2880  146.7980 O   0  0  0  0  0  1  0  0  0  0  0  0
  184.9710  177.3030  146.5100 C   0  0  0  0  0  1  0  0  0  0  0  0
  185.7720  176.7890  145.3260 C   0  0  0  0  0  2  0  0  0  0  0  0
  189.7920  173.2810  144.5050 N   0  0  0  0  0  2  0  0  0  0  0  0
  191.2960  175.3530  147.0550 C   0  0  0  0  0  3  0  0  0  0  0  0
  190.2150  174.9190  146.4240 C   0  0  0  0  0  3  0  0  0  0  0  0
  190.6520  173.9690  145.4160 C   0  0  0  0  0  0  0  0  0  0  0  0
  192.5250  174.7030  146.4910 C   0  0  1  0  0  3  0  0  0  0  0  0
  191.9630  173.8250  145.4210 C   0  0  0  0  0  3  0  0  0  0  0  0
  193.4560  175.7210  145.9110 C   0  0  0  0  0  0  0  0  0  0  0  0
  194.0540  175.4700  144.6390 N   0  0  0  0  0  2  0  0  0  0  0  0
  193.7020  176.7920  146.5310 O   0  0  0  0  0  0  0  0  0  0  0  0
  196.2240  175.6860  143.5930 C   0  0  0  0  0  2  0  0  0  0  0  0
  194.9680  176.4160  144.0190 C   0  0  0  0  0  3  0  0  0  0  0  0
  195.1680  176.0340  142.5670 C   0  0  0  0  0  2  0  0  0  0  0  0
  1 17  1  6  0  0  0
  1  3  1  0  0  0  0
  2  4  1  0  0  0  0
  2  5  1  0  0  0  0
  3  7  1  0  0  0  0
  4  1  1  0  0  0  0
  5  6  1  0  0  0  0
  6 13  1  6  0  0  0
  6  7  1  0  0  0  0
  7 28  1  1  0  0  0
  8 11  1  0  0  0  0
  9  8  1  0  0  0  0
  9 13  2  0  0  0  0
 10 14  1  6  0  0  0
 11 10  1  0  0  0  0
 11 12  2  0  0  0  0
 13 10  1  0  0  0  0
 15  8  1  0  0  0  0
 16 15  1  0  0  0  0
 18 22  1  0  0  0  0
 18 19  2  0  0  0  0
 20 17  1  1  0  0  0
 20 23  1  0  0  0  0
 20 21  1  0  0  0  0
 21 22  1  0  0  0  0
 22 24  1  1  0  0  0
 23 18  1  0  0  0  0
 24 25  1  1  0  0  0
 27 24  1  0  0  0  0
 27 26  1  0  0  0  0
 28 31  1  0  0  0  0
 30 29  2  0  0  0  0
 31 33  2  0  0  0  0
 31 30  1  0  0  0  0
 32 34  1  6  0  0  0
 32 29  1  0  0  0  0
 33 32  1  0  0  0  0
 34 36  2  0  0  0  0
 35 34  1  0  0  0  0
 37 38  1  0  0  0  0
 38 35  1  0  0  0  0
 39 37  1  0  0  0  0
 39 38  1  0  0  0  0
M  END
>  <MODEL>
7

>  <REMARK>
 VINA RESULT:      -6.7      2.317      7.732
  Name = 
  10 active torsions:
  status: ('A' for Active; 'I' for Inactive)
    1  A    between atoms: N_1  and  O_6
    2  A    between atoms: C_2  and  C_24
    3  A    between atoms: C_5  and  C_23
    4  A    between atoms: C_7  and  N_33
    5  A    between atoms: C_12  and  C_27
    6  A    between atoms: C_12  and  C_37
    7  A    between atoms: C_13  and  C_24
    8  A    between atoms: C_19  and  N_32
    9  A    between atoms: C_28  and  C_36
   10  A    between atoms: C_30  and  N_32
                            x       y       z     vdW  Elec       q    Type
                         _______ _______ _______ _____ _____    ______ ____

>  <TORSDO>
F 10

$$$$
=
 OpenBabel11042417293D

 39 43  0  0  1  0  0  0  0  0999 V2000
  190.3930  173.3100  141.0640 C   0  0  1  0  0  3  0  0  0  0  0  0
  190.8600  172.4990  143.3350 N   0  0  0  0  0  2  0  0  0  0  0  0
  189.3960  174.3740  141.5020 C   0  0  0  0  0  2  0  0  0  0  0  0
  190.3700  172.1170  142.0170 C   0  0  0  0  0  2  0  0  0  0  0  0
  189.7180  173.0110  144.0800 C   0  0  0  0  0  2  0  0  0  0  0  0
  189.6600  174.5430  144.0390 C   0  0  2  0  0  3  0  0  0  0  0  0
  189.9680  175.1710  142.6700 C   0  0  2  0  0  3  0  0  0  0  0  0
  192.4030  175.7650  146.1840 N   0  0  0  0  0  0  0  0  0  0  0  0
  191.8520  175.1000  145.0600 C   0  0  0  0  0  3  0  0  0  0  0  0
  190.0160  175.8380  146.3570 C   0  0  1  0  0  3  0  0  0  0  0  0
  191.3170  176.1940  146.9830 C   0  0  0  0  0  0  0  0  0  0  0  0
  191.4520  176.7990  148.0790 O   0  0  0  0  0  0  0  0  0  0  0  0
  190.5210  175.1390  145.1130 C   0  0  0  0  0  0  0  0  0  0  0  0
  189.2730  174.8610  147.2530 C   0  0  0  0  0  1  0  0  0  0  0  0
  193.6950  175.6820  146.5870 O   0  0  0  0  0  0  0  0  0  0  0  0
  194.2940  176.8610  146.1380 C   0  0  0  0  0  1  0  0  0  0  0  0
  190.0420  172.8560  139.6560 C   0  0  0  0  0  2  0  0  0  0  0  0
  192.5730  174.1570  137.8840 C   0  0  0  0  0  0  0  0  0  0  0  0
  193.4620  175.0430  137.7810 O   0  0  0  0  0  0  0  0  0  0  0  0
  191.2940  172.4830  138.8750 C   0  0  1  0  0  3  0  0  0  0  0  0
  191.0080  172.4830  137.3650 C   0  0  0  0  0  2  0  0  0  0  0  0
  191.7400  173.6780  136.7530 C   0  0  1  0  0  3  0  0  0  0  0  0
  192.3170  173.4870  139.0990 N   0  0  0  0  0  2  0  0  0  0  0  0
  190.7100  174.7100  136.2690 C   0  0  1  0  0  3  0  0  0  0  0  0
  191.1320  175.4060  135.1310 O   0  0  0  0  0  1  0  0  0  0  0  0
  188.2490  174.9110  136.8500 C   0  0  0  0  0  1  0  0  0  0  0  0
  189.3090  174.1290  136.0930 C   0  0  0  0  0  2  0  0  0  0  0  0
  189.4580  176.5340  142.6320 N   0  0  0  0  0  2  0  0  0  0  0  0
  186.2460  177.6460  141.4060 C   0  0  0  0  0  3  0  0  0  0  0  0
  187.5610  177.5660  141.2620 C   0  0  0  0  0  3  0  0  0  0  0  0
  188.0790  176.8260  142.3990 C   0  0  0  0  0  0  0  0  0  0  0  0
  185.8170  176.9510  142.6640 C   0  0  1  0  0  3  0  0  0  0  0  0
  187.1150  176.4650  143.2230 C   0  0  0  0  0  3  0  0  0  0  0  0
  185.1550  177.9050  143.6080 C   0  0  0  0  0  0  0  0  0  0  0  0
  185.7660  178.1700  144.8710 N   0  0  0  0  0  2  0  0  0  0  0  0
  184.0760  178.4780  143.2900 O   0  0  0  0  0  0  0  0  0  0  0  0
  184.4380  178.2860  146.8890 C   0  0  0  0  0  2  0  0  0  0  0  0
  185.1750  179.0840  145.8350 C   0  0  0  0  0  3  0  0  0  0  0  0
  185.8080  178.8510  147.1920 C   0  0  0  0  0  2  0  0  0  0  0  0
  1 17  1  6  0  0  0
  1  3  1  0  0  0  0
  1  4  1  0  0  0  0
  2  5  1  0  0  0  0
  3  7  1  0  0  0  0
  4  2  1  0  0  0  0
  6  5  1  0  0  0  0
  6 13  1  1  0  0  0
  7 28  1  1  0  0  0
  7  6  1  0  0  0  0
  8 15  1  0  0  0  0
  8 11  1  0  0  0  0
  9 13  2  0  0  0  0
  9  8  1  0  0  0  0
 10 11  1  0  0  0  0
 10 14  1  1  0  0  0
 11 12  2  0  0  0  0
 13 10  1  0  0  0  0
 16 15  1  0  0  0  0
 18 23  1  0  0  0  0
 19 18  2  0  0  0  0
 20 23  1  0  0  0  0
 20 17  1  1  0  0  0
 21 20  1  0  0  0  0
 22 24  1  1  0  0  0
 22 21  1  0  0  0  0
 22 18  1  0  0  0  0
 24 25  1  6  0  0  0
 27 24  1  0  0  0  0
 27 26  1  0  0  0  0
 29 32  1  0  0  0  0
 30 29  2  0  0  0  0
 30 31  1  0  0  0  0
 31 28  1  0  0  0  0
 31 33  2  0  0  0  0
 32 33  1  0  0  0  0
 32 34  1  1  0  0  0
 34 35  1  0  0  0  0
 35 38  1  0  0  0  0
 36 34  2  0  0  0  0
 37 39  1  0  0  0  0
 38 37  1  0  0  0  0
 38 39  1  0  0  0  0
M  END
>  <MODEL>
8

>  <REMARK>
 VINA RESULT:      -6.7      2.301      7.446
  Name = 
  10 active torsions:
  status: ('A' for Active; 'I' for Inactive)
    1  A    between atoms: N_1  and  O_6
    2  A    between atoms: C_2  and  C_24
    3  A    between atoms: C_5  and  C_23
    4  A    between atoms: C_7  and  N_33
    5  A    between atoms: C_12  and  C_27
    6  A    between atoms: C_12  and  C_37
    7  A    between atoms: C_13  and  C_24
    8  A    between atoms: C_19  and  N_32
    9  A    between atoms: C_28  and  C_36
   10  A    between atoms: C_30  and  N_32
                            x       y       z     vdW  Elec       q    Type
                         _______ _______ _______ _____ _____    ______ ____

>  <TORSDO>
F 10

$$$$
=
 OpenBabel11042417293D

 39 43  0  0  1  0  0  0  0  0999 V2000
  190.0600  176.6120  145.8620 C   0  0  1  0  0  3  0  0  0  0  0  0
  191.9110  175.9010  147.3120 N   0  0  0  0  0  2  0  0  0  0  0  0
  190.9550  177.1150  144.7380 C   0  0  0  0  0  2  0  0  0  0  0  0
  190.7470  176.7720  147.2170 C   0  0  0  0  0  2  0  0  0  0  0  0
  193.0360  176.6340  146.7490 C   0  0  0  0  0  2  0  0  0  0  0  0
  193.2920  176.2380  145.2900 C   0  0  2  0  0  3  0  0  0  0  0  0
  192.0300  176.0780  144.4260 C   0  0  2  0  0  3  0  0  0  0  0  0
  195.9600  173.7500  144.7290 N   0  0  0  0  0  0  0  0  0  0  0  0
  195.3540  175.0280  144.6260 C   0  0  0  0  0  3  0  0  0  0  0  0
  193.8040  173.6530  145.7660 C   0  0  1  0  0  3  0  0  0  0  0  0
  195.0350  172.9080  145.3900 C   0  0  0  0  0  0  0  0  0  0  0  0
  195.2440  171.6890  145.6230 O   0  0  0  0  0  0  0  0  0  0  0  0
  194.1570  175.0150  145.2120 C   0  0  0  0  0  0  0  0  0  0  0  0
  192.6120  173.0680  145.0260 C   0  0  0  0  0  1  0  0  0  0  0  0
  197.0380  173.3360  144.0200 O   0  0  0  0  0  0  0  0  0  0  0  0
  196.8780  173.8970  142.7520 C   0  0  0  0  0  1  0  0  0  0  0  0
  188.7580  177.3960  145.8440 C   0  0  0  0  0  2  0  0  0  0  0  0
  186.3480  178.3360  143.7120 C   0  0  0  0  0  0  0  0  0  0  0  0
  185.9360  179.1700  142.8650 O   0  0  0  0  0  0  0  0  0  0  0  0
  187.8210  176.8720  144.7660 C   0  0  1  0  0  3  0  0  0  0  0  0
  186.4130  176.6420  145.3400 C   0  0  0  0  0  2  0  0  0  0  0  0
  185.4900  177.7070  144.7460 C   0  0  1  0  0  3  0  0  0  0  0  0
  187.6800  177.8720  143.7240 N   0  0  0  0  0  2  0  0  0  0  0  0
  185.0550  178.6760  145.8560 C   0  0  1  0  0  3  0  0  0  0  0  0
  183.7010  179.0240  145.7730 O   0  0  0  0  0  1  0  0  0  0  0  0
  186.2970  179.2060  148.0020 C   0  0  0  0  0  1  0  0  0  0  0  0
  185.4350  178.2010  147.2560 C   0  0  0  0  0  2  0  0  0  0  0  0
  192.3890  176.1510  143.0180 N   0  0  0  0  0  2  0  0  0  0  0  0
  192.2930  173.6590  140.4030 C   0  0  0  0  0  3  0  0  0  0  0  0
  192.9530  174.5970  141.0660 C   0  0  0  0  0  3  0  0  0  0  0  0
  192.0640  175.1110  142.0930 C   0  0  0  0  0  0  0  0  0  0  0  0
  190.9120  173.4990  140.9640 C   0  0  1  0  0  3  0  0  0  0  0  0
  190.8890  174.5130  142.0610 C   0  0  0  0  0  3  0  0  0  0  0  0
  189.8710  173.8060  139.9330 C   0  0  0  0  0  0  0  0  0  0  0  0
  190.1250  173.4730  138.5690 N   0  0  0  0  0  2  0  0  0  0  0  0
  188.7780  174.3430  140.2660 O   0  0  0  0  0  0  0  0  0  0  0  0
  189.8850  174.2730  136.2990 C   0  0  0  0  0  2  0  0  0  0  0  0
  189.1580  173.7450  137.5180 C   0  0  0  0  0  3  0  0  0  0  0  0
  189.4320  172.8300  136.3430 C   0  0  0  0  0  2  0  0  0  0  0  0
  1 17  1  1  0  0  0
  1  4  1  0  0  0  0
  3  1  1  0  0  0  0
  4  2  1  0  0  0  0
  5  2  1  0  0  0  0
  6 13  1  1  0  0  0
  6  5  1  0  0  0  0
  7 28  1  6  0  0  0
  7  3  1  0  0  0  0
  7  6  1  0  0  0  0
  8 11  1  0  0  0  0
  9  8  1  0  0  0  0
  9 13  2  0  0  0  0
 10 14  1  6  0  0  0
 11 12  2  0  0  0  0
 11 10  1  0  0  0  0
 13 10  1  0  0  0  0
 15  8  1  0  0  0  0
 16 15  1  0  0  0  0
 18 23  1  0  0  0  0
 18 22  1  0  0  0  0
 19 18  2  0  0  0  0
 20 21  1  0  0  0  0
 20 17  1  1  0  0  0
 22 21  1  0  0  0  0
 22 24  1  1  0  0  0
 23 20  1  0  0  0  0
 24 25  1  1  0  0  0
 24 27  1  0  0  0  0
 27 26  1  0  0  0  0
 29 32  1  0  0  0  0
 29 30  2  0  0  0  0
 30 31  1  0  0  0  0
 31 28  1  0  0  0  0
 32 34  1  6  0  0  0
 32 33  1  0  0  0  0
 33 31  2  0  0  0  0
 34 36  2  0  0  0  0
 35 34  1  0  0  0  0
 37 39  1  0  0  0  0
 37 38  1  0  0  0  0
 38 35  1  0  0  0  0
 39 38  1  0  0  0  0
M  END
>  <MODEL>
9

>  <REMARK>
 VINA RESULT:      -6.7      1.706      7.111
  Name = 
  10 active torsions:
  status: ('A' for Active; 'I' for Inactive)
    1  A    between atoms: N_1  and  O_6
    2  A    between atoms: C_2  and  C_24
    3  A    between atoms: C_5  and  C_23
    4  A    between atoms: C_7  and  N_33
    5  A    between atoms: C_12  and  C_27
    6  A    between atoms: C_12  and  C_37
    7  A    between atoms: C_13  and  C_24
    8  A    between atoms: C_19  and  N_32
    9  A    between atoms: C_28  and  C_36
   10  A    between atoms: C_30  and  N_32
                            x       y       z     vdW  Elec       q    Type
                         _______ _______ _______ _____ _____    ______ ____

>  <TORSDO>
F 10

$$$$
