=
 OpenBabel11042414423D

 36 42  0  0  1  0  0  0  0  0999 V2000
  188.2250  173.7680  141.4270 C   0  0  0  0  0  2  0  0  0  0  0  0
  192.1430  175.2460  147.1900 C   0  0  1  0  0  3  0  0  0  0  0  0
  195.3990  176.1210  143.6560 S   0  0  0  0  0  0  0  0  0  0  0  0
  189.6160  173.3110  141.0970 C   0  0  1  0  0  3  0  0  0  0  0  0
  191.6640  176.5880  147.5660 N   0  0  0  0  0  2  0  0  0  0  0  0
  192.0890  174.0080  143.0320 N   0  0  0  0  0  2  0  0  0  0  0  0
  194.3660  174.8140  141.4410 N   0  0  0  0  0  2  0  0  0  0  0  0
  192.5350  172.7770  137.4190 C   0  0  0  0  0  1  0  0  0  0  0  0
  189.8650  173.3190  139.6610 N   0  0  0  0  0  2  0  0  0  0  0  0
  190.0480  175.0230  143.9830 C   0  0  0  0  0  0  0  0  0  0  0  0
  191.1200  172.6020  139.4460 C   0  0  0  0  0  2  0  0  0  0  0  0
  188.7220  174.9530  142.2430 C   0  0  1  0  0  3  0  0  0  0  0  0
  190.6150  175.5020  145.3040 C   0  0  1  0  0  3  0  0  0  0  0  0
  193.2650  174.6340  143.6130 C   0  0  2  0  0  3  0  0  0  0  0  0
  194.3820  175.9800  145.1990 C   0  0  0  0  0  2  0  0  0  0  0  0
  192.9930  175.5710  144.7420 C   0  0  2  0  0  3  0  0  0  0  0  0
  190.7800  175.4160  147.7240 C   0  0  1  0  0  3  0  0  0  0  0  0
  190.7790  174.5560  142.9510 C   0  0  2  0  0  3  0  0  0  0  0  0
  193.3500  173.6970  139.5450 C   0  0  0  0  0  3  0  0  0  0  0  0
  192.1320  173.4740  138.7020 C   0  0  1  0  0  3  0  0  0  0  0  0
  188.6630  175.2640  143.5270 C   0  0  0  0  0  3  0  0  0  0  0  0
  193.2950  174.5910  140.5200 C   0  0  0  0  0  3  0  0  0  0  0  0
  193.9960  175.5270  142.6560 C   0  0  1  0  0  3  0  0  0  0  0  0
  189.7860  175.3110  146.5510 C   0  0  1  0  0  3  0  0  0  0  0  0
  190.0460  174.6120  141.6650 C   0  0  1  0  0  3  0  0  0  0  0  0
  191.9760  174.9670  145.6960 C   0  0  1  0  0  3  0  0  0  0  0  0
  188.8950  177.5230  146.3040 O   0  0  0  0  0  0  0  0  0  0  0  0
  188.6960  176.3300  146.6620 C   0  0  0  0  0  0  0  0  0  0  0  0
  187.4280  175.9350  147.1880 N   0  0  0  0  0  2  0  0  0  0  0  0
  186.3230  176.8680  147.3590 C   0  0  0  0  0  2  0  0  0  0  0  0
  185.5660  176.9770  146.1200 N   0  0  0  0  0  2  0  0  0  0  0  0
  183.6980  178.8330  145.8070 O   0  0  0  0  0  0  0  0  0  0  0  0
  185.7480  179.4630  146.9890 O   0  0  0  0  0  0  0  0  0  0  0  0
  185.1890  178.6480  145.8580 S   0  0  0  0  0  0  0  0  0  0  0  0
  185.5450  180.5210  144.0980 F   0  0  0  0  0  0  0  0  0  0  0  0
  185.9060  179.2070  144.3280 C   0  0  0  0  0  2  0  0  0  0  0  0
  2  5  1  6  0  0  0
  2 17  1  0  0  0  0
  3 15  1  0  0  0  0
  4  1  1  6  0  0  0
  4 25  1  0  0  0  0
  9  4  1  0  0  0  0
 11  9  1  0  0  0  0
 12  1  1  1  0  0  0
 12 21  1  0  0  0  0
 13 10  1  6  0  0  0
 13 26  1  0  0  0  0
 13 24  1  0  0  0  0
 14  6  1  6  0  0  0
 14 16  1  0  0  0  0
 16 15  1  1  0  0  0
 16 26  1  0  0  0  0
 17  5  1  6  0  0  0
 18  6  1  1  0  0  0
 18 10  1  0  0  0  0
 19 22  2  0  0  0  0
 20  8  1  6  0  0  0
 20 11  1  0  0  0  0
 20 19  1  0  0  0  0
 21 10  2  0  0  0  0
 22  7  1  0  0  0  0
 23  7  1  6  0  0  0
 23 14  1  0  0  0  0
 23  3  1  0  0  0  0
 24 28  1  1  0  0  0
 24 17  1  0  0  0  0
 25 12  1  0  0  0  0
 25 18  1  0  0  0  0
 26  2  1  0  0  0  0
 27 28  2  0  0  0  0
 28 29  1  0  0  0  0
 29 30  1  0  0  0  0
 31 30  1  0  0  0  0
 32 34  2  0  0  0  0
 34 31  1  0  0  0  0
 34 33  2  0  0  0  0
 35 36  1  0  0  0  0
 36 34  1  0  0  0  0
M  END
>  <MODEL>
1

>  <REMARK>
 VINA RESULT:      -8.1      0.000      0.000
  Name = 
  5 active torsions:
  status: ('A' for Active; 'I' for Inactive)
    1  A    between atoms: C_3  and  N_24
    2  A    between atoms: C_3  and  N_26
    3  A    between atoms: C_15  and  C_33
    4  A    between atoms: N_26  and  S_36
    5  A    between atoms: C_31  and  S_36
                            x       y       z     vdW  Elec       q    Type
                         _______ _______ _______ _____ _____    ______ ____

>  <TORSDO>
F 5

$$$$
=
 OpenBabel11042414423D

 36 42  0  0  1  0  0  0  0  0999 V2000
  187.0400  176.1070  141.3290 C   0  0  0  0  0  2  0  0  0  0  0  0
  193.7170  176.1600  143.8120 C   0  0  1  0  0  3  0  0  0  0  0  0
  191.2150  176.5920  147.9850 S   0  0  0  0  0  0  0  0  0  0  0  0
  187.0290  177.0540  142.4930 C   0  0  1  0  0  3  0  0  0  0  0  0
  194.0850  174.7330  143.7700 N   0  0  0  0  0  2  0  0  0  0  0  0
  189.5820  177.3180  144.4330 N   0  0  0  0  0  2  0  0  0  0  0  0
  188.6990  177.4340  147.1840 N   0  0  0  0  0  2  0  0  0  0  0  0
  184.1730  178.6680  145.8940 C   0  0  0  0  0  1  0  0  0  0  0  0
  185.7100  177.1500  143.1040 N   0  0  0  0  0  2  0  0  0  0  0  0
  190.0790  175.6070  142.7230 C   0  0  0  0  0  0  0  0  0  0  0  0
  185.7520  178.2860  144.0230 C   0  0  0  0  0  2  0  0  0  0  0  0
  188.0620  175.1880  141.9820 C   0  0  1  0  0  3  0  0  0  0  0  0
  191.5400  175.3650  143.0480 C   0  0  1  0  0  3  0  0  0  0  0  0
  190.4960  177.1730  145.5530 C   0  0  2  0  0  3  0  0  0  0  0  0
  192.4320  176.3310  146.6110 C   0  0  0  0  0  2  0  0  0  0  0  0
  191.6040  176.1950  145.3460 C   0  0  2  0  0  3  0  0  0  0  0  0
  193.9040  175.4880  142.5130 C   0  0  1  0  0  3  0  0  0  0  0  0
  189.2250  176.3210  143.4840 C   0  0  2  0  0  3  0  0  0  0  0  0
  186.5120  178.1040  146.3830 C   0  0  0  0  0  3  0  0  0  0  0  0
  185.3720  177.8610  145.4420 C   0  0  1  0  0  3  0  0  0  0  0  0
  189.3140  174.8680  141.6970 C   0  0  0  0  0  3  0  0  0  0  0  0
  187.5210  177.2470  146.3950 C   0  0  0  0  0  3  0  0  0  0  0  0
  189.8430  176.6260  146.7850 C   0  0  1  0  0  3  0  0  0  0  0  0
  192.5140  175.2230  141.9030 C   0  0  1  0  0  3  0  0  0  0  0  0
  187.8080  176.0040  143.1950 C   0  0  1  0  0  3  0  0  0  0  0  0
  192.2100  176.3670  143.9630 C   0  0  1  0  0  3  0  0  0  0  0  0
  192.4520  172.8270  141.9810 O   0  0  0  0  0  0  0  0  0  0  0  0
  192.4420  173.8690  141.2700 C   0  0  0  0  0  0  0  0  0  0  0  0
  192.3710  173.7730  139.8460 N   0  0  0  0  0  2  0  0  0  0  0  0
  192.3290  172.4960  139.1470 C   0  0  0  0  0  2  0  0  0  0  0  0
  191.2790  172.5130  138.1380 N   0  0  0  0  0  2  0  0  0  0  0  0
  189.6030  170.4660  137.9610 O   0  0  0  0  0  0  0  0  0  0  0  0
  190.1780  171.2820  140.1970 O   0  0  0  0  0  0  0  0  0  0  0  0
  189.8950  171.6920  138.7800 S   0  0  0  0  0  0  0  0  0  0  0  0
  187.7110  172.5510  139.8860 F   0  0  0  0  0  0  0  0  0  0  0  0
  188.4770  172.7680  138.7570 C   0  0  0  0  0  2  0  0  0  0  0  0
  2  5  1  1  0  0  0
  2 26  1  0  0  0  0
  4  1  1  6  0  0  0
  4  9  1  0  0  0  0
  4 25  1  0  0  0  0
  9 11  1  0  0  0  0
 11 20  1  0  0  0  0
 12  1  1  6  0  0  0
 12 25  1  0  0  0  0
 13 10  1  6  0  0  0
 13 26  1  0  0  0  0
 14  6  1  6  0  0  0
 14 23  1  0  0  0  0
 15  3  1  0  0  0  0
 16 14  1  0  0  0  0
 16 15  1  1  0  0  0
 17  5  1  1  0  0  0
 17  2  1  0  0  0  0
 18 10  1  6  0  0  0
 18  6  1  0  0  0  0
 19 22  2  0  0  0  0
 20  8  1  1  0  0  0
 20 19  1  0  0  0  0
 21 12  1  0  0  0  0
 21 10  2  0  0  0  0
 22  7  1  0  0  0  0
 23  7  1  1  0  0  0
 23  3  1  0  0  0  0
 24 28  1  1  0  0  0
 24 17  1  0  0  0  0
 24 13  1  0  0  0  0
 25 18  1  0  0  0  0
 26 16  1  0  0  0  0
 28 27  2  0  0  0  0
 29 28  1  0  0  0  0
 30 29  1  0  0  0  0
 31 34  1  0  0  0  0
 31 30  1  0  0  0  0
 32 34  2  0  0  0  0
 34 33  2  0  0  0  0
 36 34  1  0  0  0  0
 36 35  1  0  0  0  0
M  END
>  <MODEL>
2

>  <REMARK>
 VINA RESULT:      -7.8      3.904      7.390
  Name = 
  5 active torsions:
  status: ('A' for Active; 'I' for Inactive)
    1  A    between atoms: C_3  and  N_24
    2  A    between atoms: C_3  and  N_26
    3  A    between atoms: C_15  and  C_33
    4  A    between atoms: N_26  and  S_36
    5  A    between atoms: C_31  and  S_36
                            x       y       z     vdW  Elec       q    Type
                         _______ _______ _______ _____ _____    ______ ____

>  <TORSDO>
F 5

$$$$
=
 OpenBabel11042414423D

 36 42  0  0  1  0  0  0  0  0999 V2000
  191.5810  176.0960  147.6120 C   0  0  0  0  0  2  0  0  0  0  0  0
  192.2240  170.3990  143.3830 C   0  0  1  0  0  3  0  0  0  0  0  0
  189.1180  173.1060  140.7590 S   0  0  0  0  0  0  0  0  0  0  0  0
  190.2280  175.8990  146.9930 C   0  0  1  0  0  3  0  0  0  0  0  0
  193.5260  170.6300  142.7320 N   0  0  0  0  0  2  0  0  0  0  0  0
  189.7890  173.7700  144.6210 N   0  0  0  0  0  2  0  0  0  0  0  0
  188.0980  174.9290  142.5810 N   0  0  0  0  0  0  0  0  0  0  0  0
  186.4230  178.3420  145.6170 C   0  0  0  0  0  1  0  0  0  0  0  0
  189.4750  177.1450  146.9230 N   0  0  0  0  0  2  0  0  0  0  0  0
  192.1770  173.7520  145.2500 C   0  0  0  0  0  0  0  0  0  0  0  0
  188.1010  176.7900  146.5740 C   0  0  0  0  0  2  0  0  0  0  0  0
  192.3110  175.6340  146.3590 C   0  0  1  0  0  3  0  0  0  0  0  0
  192.6330  172.5740  144.4120 C   0  0  1  0  0  3  0  0  0  0  0  0
  189.6210  173.1660  143.3100 C   0  0  2  0  0  3  0  0  0  0  0  0
  190.3500  171.9060  141.4510 C   0  0  0  0  0  2  0  0  0  0  0  0
  190.8450  172.5240  142.7460 C   0  0  2  0  0  3  0  0  0  0  0  0
  193.4650  170.3060  144.1720 C   0  0  1  0  0  3  0  0  0  0  0  0
  190.9740  174.3510  145.1520 C   0  0  2  0  0  3  0  0  0  0  0  0
  187.3150  176.5220  144.2300 C   0  0  0  0  0  2  0  0  0  0  0  0
  187.6510  177.5120  145.3040 C   0  0  1  0  0  3  0  0  0  0  0  0
  193.0700  174.5870  146.0790 C   0  0  0  0  0  3  0  0  0  0  0  0
  188.3030  175.9540  143.5580 C   0  0  0  0  0  3  0  0  0  0  0  0
  189.2850  174.1570  142.2380 C   0  0  1  0  0  3  0  0  0  0  0  0
  193.5860  171.5800  145.0310 C   0  0  1  0  0  3  0  0  0  0  0  0
  190.9730  175.7180  145.7220 C   0  0  1  0  0  3  0  0  0  0  0  0
  191.5500  171.7030  143.8130 C   0  0  1  0  0  3  0  0  0  0  0  0
  195.7670  171.7900  146.0060 O   0  0  0  0  0  0  0  0  0  0  0  0
  194.9920  172.0920  145.0570 C   0  0  0  0  0  0  0  0  0  0  0  0
  195.4430  172.9360  143.9950 N   0  0  0  0  0  2  0  0  0  0  0  0
  196.7850  173.5010  143.9580 C   0  0  0  0  0  2  0  0  0  0  0  0
  196.7730  174.8520  144.5000 N   0  0  0  0  0  2  0  0  0  0  0  0
  197.1100  177.2040  143.3230 O   0  0  0  0  0  0  0  0  0  0  0  0
  196.5440  175.2880  141.9070 O   0  0  0  0  0  0  0  0  0  0  0  0
  196.3000  175.9410  143.2380 S   0  0  0  0  0  0  0  0  0  0  0  0
  193.8150  175.3450  142.7880 F   0  0  0  0  0  0  0  0  0  0  0  0
  194.5710  176.3370  143.3830 C   0  0  0  0  0  2  0  0  0  0  0  0
  2  5  1  6  0  0  0
  2 26  1  0  0  0  0
  2 17  1  0  0  0  0
  3 15  1  0  0  0  0
  4  1  1  1  0  0  0
  7 22  2  0  0  0  0
  9  4  1  0  0  0  0
 10 21  2  0  0  0  0
 11  9  1  0  0  0  0
 12 21  1  1  0  0  0
 12  1  1  0  0  0  0
 13 24  1  0  0  0  0
 13 10  1  1  0  0  0
 14  6  1  1  0  0  0
 16 15  1  6  0  0  0
 16 14  1  0  0  0  0
 16 26  1  0  0  0  0
 17  5  1  6  0  0  0
 17 24  1  0  0  0  0
 18  6  1  1  0  0  0
 18 10  1  0  0  0  0
 18 25  1  0  0  0  0
 19 20  1  0  0  0  0
 20  8  1  1  0  0  0
 20 11  1  0  0  0  0
 22 19  1  0  0  0  0
 23  3  1  6  0  0  0
 23  7  1  0  0  0  0
 23 14  1  0  0  0  0
 24 28  1  6  0  0  0
 25 12  1  0  0  0  0
 25  4  1  0  0  0  0
 26 13  1  0  0  0  0
 28 27  2  0  0  0  0
 29 28  1  0  0  0  0
 30 29  1  0  0  0  0
 30 31  1  0  0  0  0
 33 34  2  0  0  0  0
 34 32  2  0  0  0  0
 34 36  1  0  0  0  0
 34 31  1  0  0  0  0
 35 36  1  0  0  0  0
M  END
>  <MODEL>
3

>  <REMARK>
 VINA RESULT:      -7.8      4.558      7.850
  Name = 
  5 active torsions:
  status: ('A' for Active; 'I' for Inactive)
    1  A    between atoms: C_3  and  N_24
    2  A    between atoms: C_3  and  N_26
    3  A    between atoms: C_15  and  C_33
    4  A    between atoms: N_26  and  S_36
    5  A    between atoms: C_31  and  S_36
                            x       y       z     vdW  Elec       q    Type
                         _______ _______ _______ _____ _____    ______ ____

>  <TORSDO>
F 5

$$$$
=
 OpenBabel11042414423D

 36 42  0  0  1  0  0  0  0  0999 V2000
  189.6070  175.3500  146.8950 C   0  0  0  0  0  2  0  0  0  0  0  0
  189.0320  173.3950  140.0690 C   0  0  1  0  0  3  0  0  0  0  0  0
  186.4500  177.5410  140.0250 S   0  0  0  0  0  0  0  0  0  0  0  0
  188.2280  175.7630  146.4730 C   0  0  1  0  0  3  0  0  0  0  0  0
  190.3380  173.7900  139.5130 N   0  0  0  0  0  2  0  0  0  0  0  0
  187.3280  175.6100  143.3880 N   0  0  0  0  0  2  0  0  0  0  0  0
  185.8470  177.9940  142.6920 N   0  0  0  0  0  0  0  0  0  0  0  0
  184.9390  179.0390  147.3560 C   0  0  0  0  0  1  0  0  0  0  0  0
  187.7290  176.8830  147.2620 N   0  0  0  0  0  2  0  0  0  0  0  0
  189.6810  174.8780  143.5490 C   0  0  0  0  0  0  0  0  0  0  0  0
  186.3050  177.0100  146.9620 C   0  0  0  0  0  2  0  0  0  0  0  0
  190.2040  175.6520  145.5280 C   0  0  1  0  0  3  0  0  0  0  0  0
  189.8800  174.4070  142.1220 C   0  0  1  0  0  3  0  0  0  0  0  0
  187.0160  175.9620  142.0130 C   0  0  2  0  0  3  0  0  0  0  0  0
  187.4420  176.0110  139.6910 C   0  0  0  0  0  2  0  0  0  0  0  0
  188.0770  175.6340  141.0170 C   0  0  2  0  0  3  0  0  0  0  0  0
  190.2500  172.6680  140.4690 C   0  0  1  0  0  3  0  0  0  0  0  0
  188.6150  175.5740  143.9920 C   0  0  2  0  0  3  0  0  0  0  0  0
  185.4270  178.3410  145.0540 C   0  0  0  0  0  2  0  0  0  0  0  0
  185.9740  178.4110  146.4470 C   0  0  1  0  0  3  0  0  0  0  0  0
  190.7380  174.8990  144.5800 C   0  0  0  0  0  3  0  0  0  0  0  0
  186.2700  178.1700  144.0470 C   0  0  0  0  0  3  0  0  0  0  0  0
  186.8530  177.4360  141.8000 C   0  0  1  0  0  3  0  0  0  0  0  0
  190.6360  173.1210  141.8910 C   0  0  1  0  0  3  0  0  0  0  0  0
  188.8930  176.2930  145.2560 C   0  0  1  0  0  3  0  0  0  0  0  0
  188.6350  174.2440  141.2770 C   0  0  1  0  0  3  0  0  0  0  0  0
  192.8330  172.4020  142.5290 O   0  0  0  0  0  0  0  0  0  0  0  0
  192.1150  173.3080  142.0230 C   0  0  0  0  0  0  0  0  0  0  0  0
  192.7030  174.5320  141.5770 N   0  0  0  0  0  2  0  0  0  0  0  0
  194.1270  174.8080  141.6970 C   0  0  0  0  0  2  0  0  0  0  0  0
  194.3340  176.1410  142.2430 N   0  0  0  0  0  2  0  0  0  0  0  0
  195.0990  174.5260  144.2020 O   0  0  0  0  0  0  0  0  0  0  0  0
  196.3460  176.6090  143.8850 O   0  0  0  0  0  0  0  0  0  0  0  0
  194.9830  175.9810  143.8420 S   0  0  0  0  0  0  0  0  0  0  0  0
  192.8230  177.3180  144.3700 F   0  0  0  0  0  0  0  0  0  0  0  0
  193.9270  176.7990  145.0180 C   0  0  0  0  0  2  0  0  0  0  0  0
  2  5  1  6  0  0  0
  2 17  1  0  0  0  0
  2 26  1  0  0  0  0
  4  1  1  1  0  0  0
  4  9  1  0  0  0  0
  7 22  2  0  0  0  0
 10 18  1  0  0  0  0
 10 21  2  0  0  0  0
 11  9  1  0  0  0  0
 12 21  1  6  0  0  0
 12  1  1  0  0  0  0
 13 10  1  1  0  0  0
 14  6  1  1  0  0  0
 15  3  1  0  0  0  0
 16 15  1  6  0  0  0
 16 26  1  0  0  0  0
 16 14  1  0  0  0  0
 17  5  1  6  0  0  0
 17 24  1  0  0  0  0
 18  6  1  1  0  0  0
 18 25  1  0  0  0  0
 19 20  1  0  0  0  0
 20 11  1  0  0  0  0
 20  8  1  1  0  0  0
 22 19  1  0  0  0  0
 23  3  1  6  0  0  0
 23 14  1  0  0  0  0
 23  7  1  0  0  0  0
 24 28  1  6  0  0  0
 24 13  1  0  0  0  0
 25 12  1  0  0  0  0
 25  4  1  0  0  0  0
 26 13  1  0  0  0  0
 28 27  2  0  0  0  0
 29 30  1  0  0  0  0
 29 28  1  0  0  0  0
 30 31  1  0  0  0  0
 31 34  1  0  0  0  0
 34 33  2  0  0  0  0
 34 32  2  0  0  0  0
 34 36  1  0  0  0  0
 35 36  1  0  0  0  0
M  END
>  <MODEL>
4

>  <REMARK>
 VINA RESULT:      -7.7      3.714      8.091
  Name = 
  5 active torsions:
  status: ('A' for Active; 'I' for Inactive)
    1  A    between atoms: C_3  and  N_24
    2  A    between atoms: C_3  and  N_26
    3  A    between atoms: C_15  and  C_33
    4  A    between atoms: N_26  and  S_36
    5  A    between atoms: C_31  and  S_36
                            x       y       z     vdW  Elec       q    Type
                         _______ _______ _______ _____ _____    ______ ____

>  <TORSDO>
F 5

$$$$
=
 OpenBabel11042414423D

 36 42  0  0  1  0  0  0  0  0999 V2000
  188.4740  173.6940  141.3750 C   0  0  0  0  0  2  0  0  0  0  0  0
  186.0470  177.7130  146.7330 C   0  0  1  0  0  3  0  0  0  0  0  0
  190.8040  177.5480  147.8320 S   0  0  0  0  0  0  0  0  0  0  0  0
  189.2980  173.3120  142.5700 C   0  0  1  0  0  3  0  0  0  0  0  0
  185.8810  179.0310  146.0940 N   0  0  0  0  0  2  0  0  0  0  0  0
  189.1050  174.9830  145.3130 N   0  0  0  0  0  2  0  0  0  0  0  0
  191.7590  175.3810  146.3910 N   0  0  0  0  0  2  0  0  0  0  0  0
  193.6120  171.7620  143.7190 C   0  0  0  0  0  1  0  0  0  0  0  0
  190.6080  172.8000  142.1870 N   0  0  0  0  0  2  0  0  0  0  0  0
  187.6080  176.0350  143.6550 C   0  0  0  0  0  0  0  0  0  0  0  0
  191.1970  172.2090  143.3860 C   0  0  0  0  0  2  0  0  0  0  0  0
  188.3770  175.1510  141.8060 C   0  0  1  0  0  3  0  0  0  0  0  0
  186.9300  177.0470  144.5570 C   0  0  1  0  0  3  0  0  0  0  0  0
  189.3780  175.9170  146.3920 C   0  0  2  0  0  3  0  0  0  0  0  0
  188.9920  177.8880  147.6340 C   0  0  0  0  0  2  0  0  0  0  0  0
  188.5760  177.1750  146.3600 C   0  0  2  0  0  3  0  0  0  0  0  0
  184.9880  177.9130  145.7280 C   0  0  1  0  0  3  0  0  0  0  0  0
  188.6860  175.3000  143.9910 C   0  0  2  0  0  3  0  0  0  0  0  0
  192.5140  173.5130  145.0440 C   0  0  0  0  0  3  0  0  0  0  0  0
  192.5510  172.8430  143.7040 C   0  0  1  0  0  3  0  0  0  0  0  0
  187.3750  175.9200  142.2000 C   0  0  0  0  0  3  0  0  0  0  0  0
  191.9340  174.6990  145.1460 C   0  0  0  0  0  3  0  0  0  0  0  0
  190.7760  176.4550  146.3730 C   0  0  1  0  0  3  0  0  0  0  0  0
  185.4410  177.2500  144.4120 C   0  0  1  0  0  3  0  0  0  0  0  0
  189.4050  174.7730  142.8080 C   0  0  1  0  0  3  0  0  0  0  0  0
  187.1210  176.8670  146.0480 C   0  0  1  0  0  3  0  0  0  0  0  0
  185.8940  179.0020  142.8380 O   0  0  0  0  0  0  0  0  0  0  0  0
  185.1030  178.0990  143.2270 C   0  0  0  0  0  0  0  0  0  0  0  0
  183.8670  177.8770  142.5450 N   0  0  0  0  0  2  0  0  0  0  0  0
  183.4470  178.6770  141.4030 C   0  0  0  0  0  2  0  0  0  0  0  0
  182.2690  178.0840  140.7850 N   0  0  0  0  0  2  0  0  0  0  0  0
  181.0650  179.3580  142.7750 O   0  0  0  0  0  0  0  0  0  0  0  0
  180.6760  180.1690  140.4970 O   0  0  0  0  0  0  0  0  0  0  0  0
  180.8710  178.9430  141.3430 S   0  0  0  0  0  0  0  0  0  0  0  0
  179.2200  177.2540  142.4140 F   0  0  0  0  0  0  0  0  0  0  0  0
  179.4250  177.9130  141.2180 C   0  0  0  0  0  2  0  0  0  0  0  0
  2  5  1  6  0  0  0
  4  1  1  6  0  0  0
  4 25  1  0  0  0  0
  9  4  1  0  0  0  0
  9 11  1  0  0  0  0
 11 20  1  0  0  0  0
 12  1  1  1  0  0  0
 12 21  1  0  0  0  0
 12 25  1  0  0  0  0
 13 10  1  6  0  0  0
 13 26  1  0  0  0  0
 14  6  1  6  0  0  0
 15  3  1  0  0  0  0
 16 14  1  0  0  0  0
 16 15  1  1  0  0  0
 17  5  1  6  0  0  0
 17  2  1  0  0  0  0
 18 10  1  6  0  0  0
 18  6  1  0  0  0  0
 19 22  2  0  0  0  0
 20  8  1  1  0  0  0
 20 19  1  0  0  0  0
 21 10  2  0  0  0  0
 22  7  1  0  0  0  0
 23  7  1  1  0  0  0
 23 14  1  0  0  0  0
 23  3  1  0  0  0  0
 24 28  1  6  0  0  0
 24 13  1  0  0  0  0
 24 17  1  0  0  0  0
 25 18  1  0  0  0  0
 26 16  1  0  0  0  0
 26  2  1  0  0  0  0
 27 28  2  0  0  0  0
 29 28  1  0  0  0  0
 30 29  1  0  0  0  0
 31 34  1  0  0  0  0
 31 30  1  0  0  0  0
 33 34  2  0  0  0  0
 34 32  2  0  0  0  0
 36 34  1  0  0  0  0
 36 35  1  0  0  0  0
M  END
>  <MODEL>
5

>  <REMARK>
 VINA RESULT:      -7.7      3.332      5.200
  Name = 
  5 active torsions:
  status: ('A' for Active; 'I' for Inactive)
    1  A    between atoms: C_3  and  N_24
    2  A    between atoms: C_3  and  N_26
    3  A    between atoms: C_15  and  C_33
    4  A    between atoms: N_26  and  S_36
    5  A    between atoms: C_31  and  S_36
                            x       y       z     vdW  Elec       q    Type
                         _______ _______ _______ _____ _____    ______ ____

>  <TORSDO>
F 5

$$$$
=
 OpenBabel11042414423D

 36 42  0  0  1  0  0  0  0  0999 V2000
  187.4790  176.2300  141.2300 C   0  0  0  0  0  2  0  0  0  0  0  0
  193.9720  176.4700  144.1500 C   0  0  1  0  0  3  0  0  0  0  0  0
  191.1910  176.4850  148.1660 S   0  0  0  0  0  0  0  0  0  0  0  0
  187.3400  177.0940  142.4490 C   0  0  1  0  0  3  0  0  0  0  0  0
  194.4230  175.0710  144.0410 N   0  0  0  0  0  2  0  0  0  0  0  0
  189.7460  177.3620  144.5670 N   0  0  0  0  0  2  0  0  0  0  0  0
  188.6870  177.2440  147.2560 N   0  0  0  0  0  2  0  0  0  0  0  0
  184.1870  178.3190  145.7490 C   0  0  0  0  0  1  0  0  0  0  0  0
  185.9810  177.0780  142.9760 N   0  0  0  0  0  2  0  0  0  0  0  0
  190.4470  175.7990  142.7880 C   0  0  0  0  0  0  0  0  0  0  0  0
  185.9000  178.1500  143.9660 C   0  0  0  0  0  2  0  0  0  0  0  0
  188.5090  175.3240  141.8890 C   0  0  1  0  0  3  0  0  0  0  0  0
  191.8960  175.6140  143.1940 C   0  0  1  0  0  3  0  0  0  0  0  0
  190.5950  177.1900  145.7350 C   0  0  2  0  0  3  0  0  0  0  0  0
  192.5060  176.3830  146.8630 C   0  0  0  0  0  2  0  0  0  0  0  0
  191.7680  176.2880  145.5390 C   0  0  2  0  0  3  0  0  0  0  0  0
  194.2790  175.8990  142.8260 C   0  0  1  0  0  3  0  0  0  0  0  0
  189.5080  176.4130  143.5350 C   0  0  2  0  0  3  0  0  0  0  0  0
  186.5190  177.8490  146.3550 C   0  0  0  0  0  3  0  0  0  0  0  0
  185.4570  177.6100  145.3260 C   0  0  1  0  0  3  0  0  0  0  0  0
  189.7930  175.0920  141.6680 C   0  0  0  0  0  3  0  0  0  0  0  0
  187.5730  177.0480  146.3800 C   0  0  0  0  0  3  0  0  0  0  0  0
  189.8980  176.5270  146.8830 C   0  0  1  0  0  3  0  0  0  0  0  0
  192.9470  175.6020  142.1100 C   0  0  1  0  0  3  0  0  0  0  0  0
  188.1320  176.0410  143.1330 C   0  0  1  0  0  3  0  0  0  0  0  0
  192.4490  176.5860  144.2140 C   0  0  1  0  0  3  0  0  0  0  0  0
  192.8940  174.2490  140.1300 O   0  0  0  0  0  0  0  0  0  0  0  0
  192.9930  174.2920  141.3870 C   0  0  0  0  0  0  0  0  0  0  0  0
  193.1440  173.0880  142.1430 N   0  0  0  0  0  2  0  0  0  0  0  0
  193.1680  171.7710  141.5230 C   0  0  0  0  0  2  0  0  0  0  0  0
  192.4310  170.8200  142.3420 N   0  0  0  0  0  2  0  0  0  0  0  0
  190.7690  171.2770  140.3270 O   0  0  0  0  0  0  0  0  0  0  0  0
  190.4410  169.2350  141.6380 O   0  0  0  0  0  0  0  0  0  0  0  0
  190.8240  170.6860  141.7080 S   0  0  0  0  0  0  0  0  0  0  0  0
  190.3570  172.4260  143.5750 F   0  0  0  0  0  0  0  0  0  0  0  0
  189.6740  171.5410  142.7630 C   0  0  0  0  0  2  0  0  0  0  0  0
  2  5  1  1  0  0  0
  2 26  1  0  0  0  0
  4  1  1  6  0  0  0
  4  9  1  0  0  0  0
  4 25  1  0  0  0  0
  9 11  1  0  0  0  0
 11 20  1  0  0  0  0
 12  1  1  6  0  0  0
 12 25  1  0  0  0  0
 13 10  1  6  0  0  0
 13 26  1  0  0  0  0
 14  6  1  6  0  0  0
 14 23  1  0  0  0  0
 15  3  1  0  0  0  0
 16 14  1  0  0  0  0
 16 15  1  1  0  0  0
 17  5  1  1  0  0  0
 17  2  1  0  0  0  0
 18 10  1  6  0  0  0
 18  6  1  0  0  0  0
 19 22  2  0  0  0  0
 20  8  1  1  0  0  0
 20 19  1  0  0  0  0
 21 12  1  0  0  0  0
 21 10  2  0  0  0  0
 22  7  1  0  0  0  0
 23  7  1  1  0  0  0
 23  3  1  0  0  0  0
 24 28  1  1  0  0  0
 24 17  1  0  0  0  0
 24 13  1  0  0  0  0
 25 18  1  0  0  0  0
 26 16  1  0  0  0  0
 27 28  2  0  0  0  0
 28 29  1  0  0  0  0
 30 29  1  0  0  0  0
 30 31  1  0  0  0  0
 32 34  2  0  0  0  0
 33 34  2  0  0  0  0
 34 31  1  0  0  0  0
 34 36  1  0  0  0  0
 36 35  1  0  0  0  0
M  END
>  <MODEL>
6

>  <REMARK>
 VINA RESULT:      -7.6      4.154      7.243
  Name = 
  5 active torsions:
  status: ('A' for Active; 'I' for Inactive)
    1  A    between atoms: C_3  and  N_24
    2  A    between atoms: C_3  and  N_26
    3  A    between atoms: C_15  and  C_33
    4  A    between atoms: N_26  and  S_36
    5  A    between atoms: C_31  and  S_36
                            x       y       z     vdW  Elec       q    Type
                         _______ _______ _______ _____ _____    ______ ____

>  <TORSDO>
F 5

$$$$
=
 OpenBabel11042414423D

 36 42  0  0  1  0  0  0  0  0999 V2000
  187.0680  176.4170  141.3420 C   0  0  0  0  0  2  0  0  0  0  0  0
  193.7240  176.2480  143.8730 C   0  0  1  0  0  3  0  0  0  0  0  0
  191.1910  176.3910  148.0470 S   0  0  0  0  0  0  0  0  0  0  0  0
  187.0530  177.2770  142.5720 C   0  0  1  0  0  3  0  0  0  0  0  0
  194.0840  174.8260  143.7300 N   0  0  0  0  0  2  0  0  0  0  0  0
  189.5910  177.3840  144.5450 N   0  0  0  0  0  2  0  0  0  0  0  0
  188.6870  177.3050  147.2910 N   0  0  0  0  0  2  0  0  0  0  0  0
  184.1780  178.6570  146.0600 C   0  0  0  0  0  1  0  0  0  0  0  0
  185.7290  177.3370  143.1790 N   0  0  0  0  0  2  0  0  0  0  0  0
  190.0920  175.7980  142.7190 C   0  0  0  0  0  0  0  0  0  0  0  0
  185.7700  178.4030  144.1770 C   0  0  0  0  0  2  0  0  0  0  0  0
  188.0790  175.4470  141.9340 C   0  0  1  0  0  3  0  0  0  0  0  0
  191.5490  175.5240  143.0370 C   0  0  1  0  0  3  0  0  0  0  0  0
  190.4960  177.1520  145.6590 C   0  0  2  0  0  3  0  0  0  0  0  0
  192.4180  176.2230  146.6670 C   0  0  0  0  0  2  0  0  0  0  0  0
  191.5990  176.1840  145.3900 C   0  0  2  0  0  3  0  0  0  0  0  0
  193.9180  175.6710  142.5310 C   0  0  1  0  0  3  0  0  0  0  0  0
  189.2360  176.4600  143.5240 C   0  0  2  0  0  3  0  0  0  0  0  0
  186.5100  178.0450  146.5240 C   0  0  0  0  0  3  0  0  0  0  0  0
  185.3770  177.8780  145.5590 C   0  0  1  0  0  3  0  0  0  0  0  0
  189.3320  175.1410  141.6370 C   0  0  0  0  0  3  0  0  0  0  0  0
  187.5140  177.1830  146.4820 C   0  0  0  0  0  3  0  0  0  0  0  0
  189.8290  176.5210  146.8430 C   0  0  1  0  0  3  0  0  0  0  0  0
  192.5310  175.4600  141.8930 C   0  0  1  0  0  3  0  0  0  0  0  0
  187.8200  176.1740  143.2020 C   0  0  1  0  0  3  0  0  0  0  0  0
  192.2170  176.4530  144.0280 C   0  0  1  0  0  3  0  0  0  0  0  0
  192.8390  174.0710  139.9620 O   0  0  0  0  0  0  0  0  0  0  0  0
  192.4570  174.1560  141.1620 C   0  0  0  0  0  0  0  0  0  0  0  0
  191.9390  173.0090  141.8390 N   0  0  0  0  0  2  0  0  0  0  0  0
  191.8040  171.7110  141.1940 C   0  0  0  0  0  2  0  0  0  0  0  0
  190.4320  171.5150  140.7480 N   0  0  0  0  0  2  0  0  0  0  0  0
  189.3730  170.5340  138.5230 O   0  0  0  0  0  0  0  0  0  0  0  0
  190.1040  172.8710  138.5070 O   0  0  0  0  0  0  0  0  0  0  0  0
  190.4210  171.4930  139.0150 S   0  0  0  0  0  0  0  0  0  0  0  0
  192.1300  169.6210  138.4640 F   0  0  0  0  0  0  0  0  0  0  0  0
  192.0140  170.9960  138.3960 C   0  0  0  0  0  2  0  0  0  0  0  0
  2  5  1  1  0  0  0
  2 26  1  0  0  0  0
  4  1  1  6  0  0  0
  4  9  1  0  0  0  0
  4 25  1  0  0  0  0
  9 11  1  0  0  0  0
 11 20  1  0  0  0  0
 12  1  1  6  0  0  0
 12 25  1  0  0  0  0
 13 10  1  6  0  0  0
 13 26  1  0  0  0  0
 14  6  1  6  0  0  0
 14 23  1  0  0  0  0
 15  3  1  0  0  0  0
 16 14  1  0  0  0  0
 16 15  1  1  0  0  0
 17  5  1  1  0  0  0
 17  2  1  0  0  0  0
 18 10  1  6  0  0  0
 18  6  1  0  0  0  0
 20  8  1  1  0  0  0
 20 19  1  0  0  0  0
 21 12  1  0  0  0  0
 21 10  2  0  0  0  0
 22 19  2  0  0  0  0
 22  7  1  0  0  0  0
 23  7  1  1  0  0  0
 23  3  1  0  0  0  0
 24 28  1  1  0  0  0
 24 17  1  0  0  0  0
 24 13  1  0  0  0  0
 25 18  1  0  0  0  0
 26 16  1  0  0  0  0
 27 28  2  0  0  0  0
 28 29  1  0  0  0  0
 30 29  1  0  0  0  0
 31 30  1  0  0  0  0
 32 34  2  0  0  0  0
 33 34  2  0  0  0  0
 34 31  1  0  0  0  0
 36 35  1  0  0  0  0
 36 34  1  0  0  0  0
M  END
>  <MODEL>
7

>  <REMARK>
 VINA RESULT:      -7.4      4.381      7.591
  Name = 
  5 active torsions:
  status: ('A' for Active; 'I' for Inactive)
    1  A    between atoms: C_3  and  N_24
    2  A    between atoms: C_3  and  N_26
    3  A    between atoms: C_15  and  C_33
    4  A    between atoms: N_26  and  S_36
    5  A    between atoms: C_31  and  S_36
                            x       y       z     vdW  Elec       q    Type
                         _______ _______ _______ _____ _____    ______ ____

>  <TORSDO>
F 5

$$$$
=
 OpenBabel11042414423D

 36 42  0  0  1  0  0  0  0  0999 V2000
  187.4680  176.3250  139.8050 C   0  0  0  0  0  2  0  0  0  0  0  0
  190.6240  177.2650  146.1220 C   0  0  1  0  0  3  0  0  0  0  0  0
  185.9330  177.7590  147.3910 S   0  0  0  0  0  0  0  0  0  0  0  0
  186.6420  177.3530  140.5190 C   0  0  1  0  0  3  0  0  0  0  0  0
  190.9530  175.8860  146.5240 N   0  0  0  0  0  2  0  0  0  0  0  0
  187.1640  178.0320  143.6200 N   0  0  0  0  0  2  0  0  0  0  0  0
  184.6320  178.2710  144.9980 N   0  0  0  0  0  2  0  0  0  0  0  0
  182.1950  178.9220  140.8380 C   0  0  0  0  0  1  0  0  0  0  0  0
  185.2600  177.3590  140.0550 N   0  0  0  0  0  2  0  0  0  0  0  0
  188.7350  176.2540  142.9380 C   0  0  0  0  0  0  0  0  0  0  0  0
  184.6360  178.5610  140.6030 C   0  0  0  0  0  2  0  0  0  0  0  0
  187.7850  175.5710  141.0890 C   0  0  1  0  0  3  0  0  0  0  0  0
  189.5810  176.1910  144.1950 C   0  0  1  0  0  3  0  0  0  0  0  0
  187.0640  178.0710  145.0700 C   0  0  2  0  0  3  0  0  0  0  0  0
  187.7670  177.5200  147.2560 C   0  0  0  0  0  2  0  0  0  0  0  0
  188.0340  177.2000  145.7960 C   0  0  2  0  0  3  0  0  0  0  0  0
  191.6660  176.5170  145.3950 C   0  0  1  0  0  3  0  0  0  0  0  0
  187.5770  176.9320  142.8190 C   0  0  2  0  0  3  0  0  0  0  0  0
  183.5750  178.6450  142.8500 C   0  0  0  0  0  3  0  0  0  0  0  0
  183.3960  178.2110  141.4270 C   0  0  1  0  0  3  0  0  0  0  0  0
  188.8990  175.3620  141.7720 C   0  0  0  0  0  3  0  0  0  0  0  0
  184.3200  177.9000  143.6520 C   0  0  0  0  0  3  0  0  0  0  0  0
  185.7560  177.5570  145.5890 C   0  0  1  0  0  3  0  0  0  0  0  0
  191.0780  176.0620  144.0450 C   0  0  1  0  0  3  0  0  0  0  0  0
  186.7500  176.4480  141.6900 C   0  0  1  0  0  3  0  0  0  0  0  0
  189.4190  177.3260  145.1830 C   0  0  1  0  0  3  0  0  0  0  0  0
  192.4710  174.4490  142.9480 O   0  0  0  0  0  0  0  0  0  0  0  0
  191.4900  174.6630  143.7110 C   0  0  0  0  0  0  0  0  0  0  0  0
  190.7520  173.5720  144.2640 N   0  0  0  0  0  2  0  0  0  0  0  0
  191.0660  172.1810  143.9670 C   0  0  0  0  0  2  0  0  0  0  0  0
  190.0830  171.6330  143.0440 N   0  0  0  0  0  2  0  0  0  0  0  0
  192.3980  171.1520  141.8430 O   0  0  0  0  0  0  0  0  0  0  0  0
  190.7270  169.3620  141.8620 O   0  0  0  0  0  0  0  0  0  0  0  0
  190.9290  170.8470  141.7520 S   0  0  0  0  0  0  0  0  0  0  0  0
  189.4050  172.4320  140.3760 F   0  0  0  0  0  0  0  0  0  0  0  0
  190.3070  171.4040  140.1800 C   0  0  0  0  0  2  0  0  0  0  0  0
  2  5  1  1  0  0  0
  4  1  1  6  0  0  0
  4 25  1  0  0  0  0
  9  4  1  0  0  0  0
  9 11  1  0  0  0  0
 11 20  1  0  0  0  0
 12  1  1  6  0  0  0
 12 25  1  0  0  0  0
 12 21  1  0  0  0  0
 13 10  1  6  0  0  0
 13 26  1  0  0  0  0
 14  6  1  6  0  0  0
 14 23  1  0  0  0  0
 14 16  1  0  0  0  0
 15  3  1  0  0  0  0
 16 15  1  1  0  0  0
 17  2  1  0  0  0  0
 17  5  1  1  0  0  0
 18 10  1  6  0  0  0
 18  6  1  0  0  0  0
 19 22  2  0  0  0  0
 20  8  1  6  0  0  0
 20 19  1  0  0  0  0
 21 10  2  0  0  0  0
 22  7  1  0  0  0  0
 23  7  1  6  0  0  0
 23  3  1  0  0  0  0
 24 28  1  1  0  0  0
 24 13  1  0  0  0  0
 24 17  1  0  0  0  0
 25 18  1  0  0  0  0
 26 16  1  0  0  0  0
 26  2  1  0  0  0  0
 27 28  2  0  0  0  0
 28 29  1  0  0  0  0
 30 29  1  0  0  0  0
 31 30  1  0  0  0  0
 34 32  2  0  0  0  0
 34 33  2  0  0  0  0
 34 31  1  0  0  0  0
 36 35  1  0  0  0  0
 36 34  1  0  0  0  0
M  END
>  <MODEL>
8

>  <REMARK>
 VINA RESULT:      -7.3      3.925      7.461
  Name = 
  5 active torsions:
  status: ('A' for Active; 'I' for Inactive)
    1  A    between atoms: C_3  and  N_24
    2  A    between atoms: C_3  and  N_26
    3  A    between atoms: C_15  and  C_33
    4  A    between atoms: N_26  and  S_36
    5  A    between atoms: C_31  and  S_36
                            x       y       z     vdW  Elec       q    Type
                         _______ _______ _______ _____ _____    ______ ____

>  <TORSDO>
F 5

$$$$
=
 OpenBabel11042414423D

 36 42  0  0  1  0  0  0  0  0999 V2000
  189.8530  175.3560  146.8000 C   0  0  0  0  0  2  0  0  0  0  0  0
  188.9590  173.3420  140.0260 C   0  0  1  0  0  3  0  0  0  0  0  0
  186.4520  177.5340  140.0440 S   0  0  0  0  0  0  0  0  0  0  0  0
  188.4650  175.7900  146.4310 C   0  0  1  0  0  3  0  0  0  0  0  0
  190.2480  173.7070  139.4110 N   0  0  0  0  0  2  0  0  0  0  0  0
  187.4340  175.6220  143.3880 N   0  0  0  0  0  2  0  0  0  0  0  0
  185.9680  178.0260  142.7280 N   0  0  0  0  0  2  0  0  0  0  0  0
  185.2740  179.1350  147.4140 C   0  0  0  0  0  1  0  0  0  0  0  0
  188.0190  176.9270  147.2280 N   0  0  0  0  0  2  0  0  0  0  0  0
  189.7780  174.8490  143.4590 C   0  0  0  0  0  0  0  0  0  0  0  0
  186.5860  177.0770  146.9850 C   0  0  0  0  0  2  0  0  0  0  0  0
  190.3980  175.6330  145.4060 C   0  0  1  0  0  3  0  0  0  0  0  0
  189.9100  174.3600  142.0300 C   0  0  1  0  0  3  0  0  0  0  0  0
  187.0710  175.9650  142.0230 C   0  0  2  0  0  3  0  0  0  0  0  0
  187.4010  175.9830  139.6850 C   0  0  0  0  0  2  0  0  0  0  0  0
  188.0850  175.6080  140.9880 C   0  0  2  0  0  3  0  0  0  0  0  0
  190.1790  172.5970  140.3830 C   0  0  1  0  0  3  0  0  0  0  0  0
  188.7450  175.5690  143.9380 C   0  0  2  0  0  3  0  0  0  0  0  0
  185.6530  178.4040  145.1010 C   0  0  0  0  0  3  0  0  0  0  0  0
  186.2590  178.4790  146.4690 C   0  0  1  0  0  3  0  0  0  0  0  0
  190.8780  174.8610  144.4460 C   0  0  0  0  0  3  0  0  0  0  0  0
  186.4510  178.2070  144.0620 C   0  0  0  0  0  3  0  0  0  0  0  0
  186.9260  177.4400  141.8010 C   0  0  1  0  0  3  0  0  0  0  0  0
  190.6320  173.0580  141.7820 C   0  0  1  0  0  3  0  0  0  0  0  0
  189.0880  176.2950  145.1820 C   0  0  1  0  0  3  0  0  0  0  0  0
  188.6270  174.2110  141.2400 C   0  0  1  0  0  3  0  0  0  0  0  0
  192.6790  174.2260  141.3390 O   0  0  0  0  0  0  0  0  0  0  0  0
  192.1190  173.2190  141.8520 C   0  0  0  0  0  0  0  0  0  0  0  0
  192.8960  172.2110  142.5010 N   0  0  0  0  0  2  0  0  0  0  0  0
  194.3480  172.2730  142.5870 C   0  0  0  0  0  2  0  0  0  0  0  0
  194.7570  172.5110  143.9640 N   0  0  0  0  0  2  0  0  0  0  0  0
  196.8130  173.9060  143.0370 O   0  0  0  0  0  0  0  0  0  0  0  0
  194.7810  175.1300  143.6410 O   0  0  0  0  0  0  0  0  0  0  0  0
  195.6730  173.9810  144.0140 S   0  0  0  0  0  0  0  0  0  0  0  0
  195.4150  174.9960  146.3870 F   0  0  0  0  0  0  0  0  0  0  0  0
  196.3160  174.2500  145.6520 C   0  0  0  0  0  2  0  0  0  0  0  0
  2  5  1  6  0  0  0
  2 17  1  0  0  0  0
  2 26  1  0  0  0  0
  4  1  1  1  0  0  0
  4  9  1  0  0  0  0
  7 22  1  0  0  0  0
 10 18  1  0  0  0  0
 10 21  2  0  0  0  0
 11  9  1  0  0  0  0
 12 21  1  6  0  0  0
 12  1  1  0  0  0  0
 13 10  1  1  0  0  0
 14  6  1  1  0  0  0
 15  3  1  0  0  0  0
 16 15  1  6  0  0  0
 16 26  1  0  0  0  0
 16 14  1  0  0  0  0
 17  5  1  6  0  0  0
 17 24  1  0  0  0  0
 18  6  1  1  0  0  0
 18 25  1  0  0  0  0
 19 20  1  0  0  0  0
 20 11  1  0  0  0  0
 20  8  1  1  0  0  0
 22 19  2  0  0  0  0
 23  3  1  6  0  0  0
 23 14  1  0  0  0  0
 23  7  1  0  0  0  0
 24 28  1  6  0  0  0
 24 13  1  0  0  0  0
 25 12  1  0  0  0  0
 25  4  1  0  0  0  0
 26 13  1  0  0  0  0
 27 28  2  0  0  0  0
 28 29  1  0  0  0  0
 29 30  1  0  0  0  0
 30 31  1  0  0  0  0
 31 34  1  0  0  0  0
 32 34  2  0  0  0  0
 33 34  2  0  0  0  0
 34 36  1  0  0  0  0
 36 35  1  0  0  0  0
M  END
>  <MODEL>
9

>  <REMARK>
 VINA RESULT:      -7.3      3.976      8.449
  Name = 
  5 active torsions:
  status: ('A' for Active; 'I' for Inactive)
    1  A    between atoms: C_3  and  N_24
    2  A    between atoms: C_3  and  N_26
    3  A    between atoms: C_15  and  C_33
    4  A    between atoms: N_26  and  S_36
    5  A    between atoms: C_31  and  S_36
                            x       y       z     vdW  Elec       q    Type
                         _______ _______ _______ _____ _____    ______ ____

>  <TORSDO>
F 5

$$$$
