=
 OpenBabel11042415103D

 27 31  0  0  1  0  0  0  0  0999 V2000
  192.6280  174.1400  145.6010 C   0  0  0  0  0  3  0  0  0  0  0  0
  193.5690  175.0180  146.1430 C   0  0  0  0  0  3  0  0  0  0  0  0
  193.2020  176.3280  146.4590 C   0  0  0  0  0  3  0  0  0  0  0  0
  191.3100  174.5600  145.3810 C   0  0  0  0  0  0  0  0  0  0  0  0
  191.8890  176.7580  146.2430 C   0  0  0  0  0  3  0  0  0  0  0  0
  190.9320  175.8800  145.7140 C   0  0  0  0  0  0  0  0  0  0  0  0
  186.8160  178.5630  142.2620 O   0  0  0  0  0  0  0  0  0  0  0  0
  187.8650  177.4470  144.1250 C   0  0  0  0  0  0  0  0  0  0  0  0
  189.0830  177.8660  142.1840 N   0  0  0  0  0  0  0  0  0  0  0  0
  189.5570  176.3730  145.5050 C   0  0  0  0  0  0  0  0  0  0  0  0
  186.9240  177.2920  145.1330 C   0  0  0  0  0  0  0  0  0  0  0  0
  188.5930  176.2140  146.5310 C   0  0  0  0  0  3  0  0  0  0  0  0
  185.1260  177.2510  146.4120 C   0  0  0  0  0  3  0  0  0  0  0  0
  189.8750  177.2110  143.1900 C   0  0  0  0  0  3  0  0  0  0  0  0
  185.5240  177.6560  145.2030 C   0  0  0  0  0  3  0  0  0  0  0  0
  187.2870  176.6850  146.3120 C   0  0  2  0  0  3  0  0  0  0  0  0
  187.8110  178.0120  142.8030 C   0  0  0  0  0  0  0  0  0  0  0  0
  186.2540  176.6220  147.1300 C   0  0  0  0  0  3  0  0  0  0  0  0
  189.1560  176.9890  144.2950 C   0  0  0  0  0  0  0  0  0  0  0  0
  189.8800  172.2730  144.5320 C   0  0  0  0  0  2  0  0  0  0  0  0
  189.2620  173.3080  143.8500 C   0  0  1  0  0  3  0  0  0  0  0  0
  190.3930  173.6550  144.7670 N   0  0  0  0  0  0  0  0  0  0  0  0
  190.1550  172.2890  141.7380 N   0  0  0  0  0  1  0  0  0  0  0  0
  189.7230  173.5180  142.3960 C   0  0  1  0  0  3  0  0  0  0  0  0
  187.5700  174.5330  142.1610 O   0  0  0  0  0  0  0  0  0  0  0  0
  188.7960  174.3400  140.1990 N   0  0  0  0  0  1  0  0  0  0  0  0
  188.6360  174.1610  141.6020 C   0  0  0  0  0  0  0  0  0  0  0  0
  1  2  1  0  0  0  0
  2  3  2  0  0  0  0
  4  1  2  0  0  0  0
  4  6  1  0  0  0  0
  5  3  1  0  0  0  0
  6  5  2  0  0  0  0
  7 17  2  0  0  0  0
  8 19  2  0  0  0  0
  8 11  1  0  0  0  0
  9 17  1  0  0  0  0
  9 14  2  0  0  0  0
 10  6  1  0  0  0  0
 10 12  2  0  0  0  0
 11 15  2  0  0  0  0
 11 16  1  0  0  0  0
 13 18  2  0  0  0  0
 14 19  1  0  0  0  0
 15 13  1  0  0  0  0
 16 12  1  6  0  0  0
 16 18  1  0  0  0  0
 17  8  1  0  0  0  0
 19 10  1  0  0  0  0
 20 22  1  0  0  0  0
 21 24  1  6  0  0  0
 21 20  1  0  0  0  0
 21 22  1  0  0  0  0
 22  4  1  0  0  0  0
 24 23  1  6  0  0  0
 26 27  1  0  0  0  0
 27 25  2  0  0  0  0
 27 24  1  0  0  0  0
M  END
>  <MODEL>
1

>  <REMARK>
 VINA RESULT:      -7.6      0.000      0.000
  Name = 
  4 active torsions:
  status: ('A' for Active; 'I' for Inactive)
    1  A    between atoms: C_6  and  C_22
    2  A    between atoms: C_9  and  C_12
    3  A    between atoms: C_12  and  C_25
    4  A    between atoms: N_13  and  C_20
                            x       y       z     vdW  Elec       q    Type
                         _______ _______ _______ _____ _____    ______ ____

>  <TORSDO>
F 4

$$$$
=
 OpenBabel11042415103D

 27 31  0  0  1  0  0  0  0  0999 V2000
  190.5160  174.7340  141.9350 C   0  0  0  0  0  3  0  0  0  0  0  0
  189.8100  173.7350  141.2610 C   0  0  0  0  0  3  0  0  0  0  0  0
  188.4400  173.5790  141.4810 C   0  0  0  0  0  3  0  0  0  0  0  0
  189.8560  175.5910  142.8250 C   0  0  0  0  0  0  0  0  0  0  0  0
  187.7720  174.4280  142.3670 C   0  0  0  0  0  3  0  0  0  0  0  0
  188.4660  175.4450  143.0380 C   0  0  0  0  0  0  0  0  0  0  0  0
  185.0790  180.2990  144.0400 O   0  0  0  0  0  0  0  0  0  0  0  0
  186.3400  178.2750  144.3980 C   0  0  0  0  0  0  0  0  0  0  0  0
  186.1000  179.1320  142.2440 N   0  0  0  0  0  0  0  0  0  0  0  0
  187.7230  176.3210  143.9620 C   0  0  0  0  0  0  0  0  0  0  0  0
  186.3030  177.9650  145.7500 C   0  0  0  0  0  0  0  0  0  0  0  0
  187.6800  176.0060  145.3430 C   0  0  0  0  0  3  0  0  0  0  0  0
  185.9560  177.8650  147.9270 C   0  0  0  0  0  3  0  0  0  0  0  0
  186.8960  177.9340  142.2660 C   0  0  0  0  0  3  0  0  0  0  0  0
  185.6530  178.6190  146.8670 C   0  0  0  0  0  2  0  0  0  0  0  0
  186.9620  176.8490  146.2080 C   0  0  0  0  0  0  0  0  0  0  0  0
  185.7640  179.3330  143.6120 C   0  0  0  0  0  0  0  0  0  0  0  0
  186.7950  176.7220  147.5100 C   0  0  0  0  0  3  0  0  0  0  0  0
  187.0240  177.4680  143.5130 C   0  0  0  0  0  0  0  0  0  0  0  0
  191.7140  177.5730  143.6110 C   0  0  0  0  0  2  0  0  0  0  0  0
  191.0120  177.3120  144.7760 C   0  0  1  0  0  3  0  0  0  0  0  0
  190.6220  176.5580  143.5440 N   0  0  0  0  0  0  0  0  0  0  0  0
  193.1190  176.5750  145.9240 N   0  0  0  0  0  1  0  0  0  0  0  0
  191.6890  176.3380  145.7580 C   0  0  1  0  0  3  0  0  0  0  0  0
  190.2690  177.3690  147.3840 O   0  0  0  0  0  0  0  0  0  0  0  0
  191.2130  175.3490  148.0290 N   0  0  0  0  0  1  0  0  0  0  0  0
  191.0090  176.3940  147.0850 C   0  0  0  0  0  0  0  0  0  0  0  0
  1  4  1  0  0  0  0
  2  3  1  0  0  0  0
  2  1  2  0  0  0  0
  3  5  2  0  0  0  0
  4  6  2  0  0  0  0
  4 22  1  0  0  0  0
  5  6  1  0  0  0  0
  6 10  1  0  0  0  0
  8 11  1  0  0  0  0
  9 14  2  0  0  0  0
  9 17  1  0  0  0  0
 10 12  2  0  0  0  0
 11 16  2  0  0  0  0
 11 15  1  0  0  0  0
 12 16  1  0  0  0  0
 14 19  1  0  0  0  0
 15 13  1  0  0  0  0
 16 18  1  0  0  0  0
 17  7  2  0  0  0  0
 17  8  1  0  0  0  0
 18 13  2  0  0  0  0
 19 10  1  0  0  0  0
 19  8  2  0  0  0  0
 20 21  1  0  0  0  0
 21 24  1  1  0  0  0
 22 20  1  0  0  0  0
 22 21  1  0  0  0  0
 24 23  1  1  0  0  0
 24 27  1  0  0  0  0
 27 25  2  0  0  0  0
 27 26  1  0  0  0  0
M  END
>  <MODEL>
2

>  <REMARK>
 VINA RESULT:      -7.4      2.482      4.375
  Name = 
  4 active torsions:
  status: ('A' for Active; 'I' for Inactive)
    1  A    between atoms: C_6  and  C_22
    2  A    between atoms: C_9  and  C_12
    3  A    between atoms: C_12  and  C_25
    4  A    between atoms: N_13  and  C_20
                            x       y       z     vdW  Elec       q    Type
                         _______ _______ _______ _____ _____    ______ ____

>  <TORSDO>
F 4

$$$$
=
 OpenBabel11042415103D

 27 31  0  0  1  0  0  0  0  0999 V2000
  190.9400  174.5580  141.9430 C   0  0  0  0  0  3  0  0  0  0  0  0
  190.2960  173.4850  141.3230 C   0  0  0  0  0  3  0  0  0  0  0  0
  188.9090  173.3520  141.4190 C   0  0  0  0  0  3  0  0  0  0  0  0
  190.2020  175.5120  142.6540 C   0  0  0  0  0  0  0  0  0  0  0  0
  188.1630  174.2990  142.1270 C   0  0  0  0  0  3  0  0  0  0  0  0
  188.7960  175.3890  142.7400 C   0  0  0  0  0  0  0  0  0  0  0  0
  186.5880  177.5270  147.8980 O   0  0  0  0  0  0  0  0  0  0  0  0
  187.0700  177.2620  145.5490 C   0  0  0  0  0  0  0  0  0  0  0  0
  188.0410  175.8250  147.1060 N   0  0  0  0  0  2  0  0  0  0  0  0
  187.9720  176.3660  143.4750 C   0  0  0  0  0  0  0  0  0  0  0  0
  186.4000  178.2530  144.8470 C   0  0  0  0  0  0  0  0  0  0  0  0
  187.2880  177.3820  142.7610 C   0  0  0  0  0  3  0  0  0  0  0  0
  185.1960  179.9760  144.1740 C   0  0  0  0  0  3  0  0  0  0  0  0
  188.4280  175.5060  145.7580 C   0  0  0  0  0  3  0  0  0  0  0  0
  185.5470  179.3360  145.2930 C   0  0  0  0  0  3  0  0  0  0  0  0
  186.5120  178.3080  143.4780 C   0  0  0  0  0  0  0  0  0  0  0  0
  187.1710  176.9400  146.9480 C   0  0  0  0  0  0  0  0  0  0  0  0
  185.8150  179.3230  143.0030 C   0  0  0  0  0  3  0  0  0  0  0  0
  187.8520  176.3400  144.8850 C   0  0  0  0  0  0  0  0  0  0  0  0
  191.6860  177.8270  143.3110 C   0  0  0  0  0  2  0  0  0  0  0  0
  191.4620  177.2320  144.5410 C   0  0  1  0  0  3  0  0  0  0  0  0
  190.9000  176.5590  143.3280 N   0  0  0  0  0  0  0  0  0  0  0  0
  193.8960  177.0820  145.1360 N   0  0  0  0  0  1  0  0  0  0  0  0
  192.6200  176.3760  145.0890 C   0  0  1  0  0  3  0  0  0  0  0  0
  192.6880  174.7290  146.8220 O   0  0  0  0  0  0  0  0  0  0  0  0
  191.4640  176.6390  147.3150 N   0  0  0  0  0  1  0  0  0  0  0  0
  192.2770  175.8590  146.4450 C   0  0  0  0  0  0  0  0  0  0  0  0
  1  4  1  0  0  0  0
  2  3  1  0  0  0  0
  2  1  2  0  0  0  0
  3  5  2  0  0  0  0
  4  6  2  0  0  0  0
  4 22  1  0  0  0  0
  5  6  1  0  0  0  0
  6 10  1  0  0  0  0
  8 17  1  0  0  0  0
 10 19  1  0  0  0  0
 11 15  1  0  0  0  0
 11  8  2  0  0  0  0
 12 10  2  0  0  0  0
 12 16  1  0  0  0  0
 13 15  2  0  0  0  0
 14  9  1  0  0  0  0
 16 11  1  0  0  0  0
 17  9  1  0  0  0  0
 17  7  2  0  0  0  0
 18 16  2  0  0  0  0
 18 13  1  0  0  0  0
 19  8  1  0  0  0  0
 19 14  2  0  0  0  0
 20 22  1  0  0  0  0
 20 21  1  0  0  0  0
 21 24  1  6  0  0  0
 22 21  1  0  0  0  0
 24 23  1  1  0  0  0
 24 27  1  0  0  0  0
 27 25  2  0  0  0  0
 27 26  1  0  0  0  0
M  END
>  <MODEL>
3

>  <REMARK>
 VINA RESULT:      -7.2      2.650      4.829
  Name = 
  4 active torsions:
  status: ('A' for Active; 'I' for Inactive)
    1  A    between atoms: C_6  and  C_22
    2  A    between atoms: C_9  and  C_12
    3  A    between atoms: C_12  and  C_25
    4  A    between atoms: N_13  and  C_20
                            x       y       z     vdW  Elec       q    Type
                         _______ _______ _______ _____ _____    ______ ____

>  <TORSDO>
F 4

$$$$
=
 OpenBabel11042415103D

 27 31  0  0  1  0  0  0  0  0999 V2000
  185.9430  177.5300  141.5860 C   0  0  0  0  0  3  0  0  0  0  0  0
  185.0870  178.4790  142.1470 C   0  0  0  0  0  3  0  0  0  0  0  0
  185.3110  178.9420  143.4460 C   0  0  0  0  0  3  0  0  0  0  0  0
  187.0360  177.0430  142.3130 C   0  0  0  0  0  0  0  0  0  0  0  0
  186.3990  178.4620  144.1810 C   0  0  0  0  0  3  0  0  0  0  0  0
  187.2750  177.5200  143.6220 C   0  0  0  0  0  0  0  0  0  0  0  0
  193.1790  177.2330  144.6710 O   0  0  0  0  0  0  0  0  0  0  0  0
  190.7980  176.9170  144.8880 C   0  0  0  0  0  0  0  0  0  0  0  0
  191.6450  178.2360  143.1640 N   0  0  0  0  0  0  0  0  0  0  0  0
  188.4120  177.0430  144.4310 C   0  0  0  0  0  0  0  0  0  0  0  0
  190.5580  176.1250  146.0020 C   0  0  0  0  0  0  0  0  0  0  0  0
  188.1700  176.2360  145.5710 C   0  0  0  0  0  3  0  0  0  0  0  0
  190.6600  174.8890  147.8270 C   0  0  0  0  0  3  0  0  0  0  0  0
  190.2100  178.1480  143.1250 C   0  0  0  0  0  3  0  0  0  0  0  0
  191.4580  175.5360  146.9720 C   0  0  0  0  0  2  0  0  0  0  0  0
  189.2660  175.7960  146.3330 C   0  0  0  0  0  0  0  0  0  0  0  0
  191.9980  177.4400  144.2890 C   0  0  0  0  0  0  0  0  0  0  0  0
  189.2480  175.0540  147.4240 C   0  0  0  0  0  3  0  0  0  0  0  0
  189.7510  177.3800  144.1190 C   0  0  0  0  0  0  0  0  0  0  0  0
  188.1920  175.1090  140.6040 C   0  0  0  0  0  2  0  0  0  0  0  0
  188.9640  175.0250  141.7510 C   0  0  1  0  0  3  0  0  0  0  0  0
  187.8520  176.0260  141.7310 N   0  0  0  0  0  0  0  0  0  0  0  0
  187.9910  172.7340  142.0700 N   0  0  0  0  0  1  0  0  0  0  0  0
  188.5910  173.8920  142.7250 C   0  0  1  0  0  3  0  0  0  0  0  0
  190.9410  173.8690  143.1720 O   0  0  0  0  0  0  0  0  0  0  0  0
  189.6430  172.5870  144.6090 N   0  0  0  0  0  1  0  0  0  0  0  0
  189.7920  173.4670  143.5010 C   0  0  0  0  0  0  0  0  0  0  0  0
  1  2  2  0  0  0  0
  1  4  1  0  0  0  0
  2  3  1  0  0  0  0
  3  5  2  0  0  0  0
  4  6  2  0  0  0  0
  6  5  1  0  0  0  0
  6 10  1  0  0  0  0
  8 11  1  0  0  0  0
  9 17  1  0  0  0  0
 10 12  2  0  0  0  0
 11 16  2  0  0  0  0
 11 15  1  0  0  0  0
 12 16  1  0  0  0  0
 14  9  2  0  0  0  0
 14 19  1  0  0  0  0
 15 13  1  0  0  0  0
 16 18  1  0  0  0  0
 17  7  2  0  0  0  0
 17  8  1  0  0  0  0
 18 13  2  0  0  0  0
 19 10  1  0  0  0  0
 19  8  2  0  0  0  0
 20 22  1  0  0  0  0
 20 21  1  0  0  0  0
 21 24  1  1  0  0  0
 22 21  1  0  0  0  0
 22  4  1  0  0  0  0
 24 23  1  6  0  0  0
 24 27  1  0  0  0  0
 25 27  2  0  0  0  0
 27 26  1  0  0  0  0
M  END
>  <MODEL>
4

>  <REMARK>
 VINA RESULT:      -7.0      2.154      4.900
  Name = 
  4 active torsions:
  status: ('A' for Active; 'I' for Inactive)
    1  A    between atoms: C_6  and  C_22
    2  A    between atoms: C_9  and  C_12
    3  A    between atoms: C_12  and  C_25
    4  A    between atoms: N_13  and  C_20
                            x       y       z     vdW  Elec       q    Type
                         _______ _______ _______ _____ _____    ______ ____

>  <TORSDO>
F 4

$$$$
=
 OpenBabel11042415103D

 27 31  0  0  1  0  0  0  0  0999 V2000
  192.0670  175.0640  143.8430 C   0  0  0  0  0  3  0  0  0  0  0  0
  192.9480  176.0980  144.1670 C   0  0  0  0  0  3  0  0  0  0  0  0
  192.4600  177.3890  144.3820 C   0  0  0  0  0  3  0  0  0  0  0  0
  190.6920  175.3090  143.7420 C   0  0  0  0  0  0  0  0  0  0  0  0
  191.0900  177.6450  144.2840 C   0  0  0  0  0  3  0  0  0  0  0  0
  190.1940  176.6120  143.9750 C   0  0  0  0  0  0  0  0  0  0  0  0
  184.7580  176.9660  146.5000 O   0  0  0  0  0  0  0  0  0  0  0  0
  186.5430  177.0890  144.8820 C   0  0  0  0  0  0  0  0  0  0  0  0
  186.9970  176.4170  147.0670 N   0  0  0  0  0  2  0  0  0  0  0  0
  188.7560  176.9240  143.8840 C   0  0  0  0  0  0  0  0  0  0  0  0
  186.0180  177.5410  143.6800 C   0  0  0  0  0  0  0  0  0  0  0  0
  188.2160  177.3890  142.6590 C   0  0  0  0  0  3  0  0  0  0  0  0
  184.7680  178.2900  142.0230 C   0  0  0  0  0  3  0  0  0  0  0  0
  188.1750  176.4140  146.2430 C   0  0  0  0  0  3  0  0  0  0  0  0
  184.6750  177.9320  143.3070 C   0  0  0  0  0  3  0  0  0  0  0  0
  186.8450  177.6880  142.5920 C   0  0  0  0  0  0  0  0  0  0  0  0
  185.9700  176.8430  146.1790 C   0  0  0  0  0  0  0  0  0  0  0  0
  186.1620  178.1380  141.5570 C   0  0  0  0  0  3  0  0  0  0  0  0
  187.8860  176.7950  144.9940 C   0  0  0  0  0  0  0  0  0  0  0  0
  189.2880  172.8640  143.5300 C   0  0  0  0  0  2  0  0  0  0  0  0
  188.8290  173.5920  142.4450 C   0  0  1  0  0  3  0  0  0  0  0  0
  189.8300  174.2420  143.3470 N   0  0  0  0  0  0  0  0  0  0  0  0
  189.8650  171.8750  140.9360 N   0  0  0  0  0  1  0  0  0  0  0  0
  189.5060  173.2800  141.0980 C   0  0  1  0  0  3  0  0  0  0  0  0
  188.2020  174.8950  139.9090 O   0  0  0  0  0  0  0  0  0  0  0  0
  188.2530  172.7730  138.9690 N   0  0  0  0  0  1  0  0  0  0  0  0
  188.6280  173.7110  139.9710 C   0  0  0  0  0  0  0  0  0  0  0  0
  1  2  1  0  0  0  0
  2  3  2  0  0  0  0
  4  1  2  0  0  0  0
  4  6  1  0  0  0  0
  5  3  1  0  0  0  0
  6  5  2  0  0  0  0
  8 19  1  0  0  0  0
  8 17  1  0  0  0  0
 10  6  1  0  0  0  0
 10 19  1  0  0  0  0
 11  8  2  0  0  0  0
 12 10  2  0  0  0  0
 13 15  2  0  0  0  0
 14  9  1  0  0  0  0
 15 11  1  0  0  0  0
 16 12  1  0  0  0  0
 16 11  1  0  0  0  0
 17  7  2  0  0  0  0
 17  9  1  0  0  0  0
 18 13  1  0  0  0  0
 18 16  2  0  0  0  0
 19 14  2  0  0  0  0
 21 24  1  6  0  0  0
 21 22  1  0  0  0  0
 21 20  1  0  0  0  0
 22 20  1  0  0  0  0
 22  4  1  0  0  0  0
 24 23  1  6  0  0  0
 25 27  2  0  0  0  0
 26 27  1  0  0  0  0
 27 24  1  0  0  0  0
M  END
>  <MODEL>
5

>  <REMARK>
 VINA RESULT:      -6.9      2.060      2.955
  Name = 
  4 active torsions:
  status: ('A' for Active; 'I' for Inactive)
    1  A    between atoms: C_6  and  C_22
    2  A    between atoms: C_9  and  C_12
    3  A    between atoms: C_12  and  C_25
    4  A    between atoms: N_13  and  C_20
                            x       y       z     vdW  Elec       q    Type
                         _______ _______ _______ _____ _____    ______ ____

>  <TORSDO>
F 4

$$$$
=
 OpenBabel11042415103D

 27 31  0  0  1  0  0  0  0  0999 V2000
  186.6060  177.3790  145.0030 C   0  0  0  0  0  3  0  0  0  0  0  0
  185.9390  177.2230  146.2210 C   0  0  0  0  0  3  0  0  0  0  0  0
  186.5830  176.6060  147.2960 C   0  0  0  0  0  3  0  0  0  0  0  0
  187.9230  176.9290  144.8530 C   0  0  0  0  0  0  0  0  0  0  0  0
  187.8990  176.1530  147.1570 C   0  0  0  0  0  3  0  0  0  0  0  0
  188.5830  176.3180  145.9440 C   0  0  0  0  0  0  0  0  0  0  0  0
  192.5090  172.0420  144.4130 O   0  0  0  0  0  0  0  0  0  0  0  0
  191.5860  174.1180  145.2200 C   0  0  0  0  0  0  0  0  0  0  0  0
  190.1770  172.4760  144.3560 N   0  0  0  0  0  0  0  0  0  0  0  0
  189.9700  175.8280  145.8410 C   0  0  0  0  0  0  0  0  0  0  0  0
  192.6290  174.9280  145.6470 C   0  0  0  0  0  0  0  0  0  0  0  0
  191.0380  176.6530  146.2730 C   0  0  0  0  0  3  0  0  0  0  0  0
  194.5660  175.8480  146.1680 C   0  0  0  0  0  3  0  0  0  0  0  0
  189.4500  173.6330  144.8040 C   0  0  0  0  0  3  0  0  0  0  0  0
  194.0620  174.7230  145.6530 C   0  0  0  0  0  3  0  0  0  0  0  0
  192.3530  176.1720  146.1620 C   0  0  2  0  0  3  0  0  0  0  0  0
  191.5320  172.8040  144.6380 C   0  0  0  0  0  0  0  0  0  0  0  0
  193.4720  176.7870  146.4950 C   0  0  0  0  0  3  0  0  0  0  0  0
  190.2800  174.5560  145.3010 C   0  0  0  0  0  0  0  0  0  0  0  0
  188.9900  177.8630  142.4070 C   0  0  0  0  0  2  0  0  0  0  0  0
  189.2170  176.4990  142.3540 C   0  0  1  0  0  3  0  0  0  0  0  0
  188.5500  177.0470  143.5760 N   0  0  0  0  0  0  0  0  0  0  0  0
  187.4410  176.4750  140.5800 N   0  0  0  0  0  1  0  0  0  0  0  0
  188.1860  175.6810  141.5530 C   0  0  1  0  0  3  0  0  0  0  0  0
  188.2720  173.9130  139.9450 O   0  0  0  0  0  0  0  0  0  0  0  0
  190.1650  174.1450  141.2680 N   0  0  0  0  0  1  0  0  0  0  0  0
  188.8580  174.5400  140.8670 C   0  0  0  0  0  0  0  0  0  0  0  0
  1  2  1  0  0  0  0
  2  3  2  0  0  0  0
  4  1  2  0  0  0  0
  4  6  1  0  0  0  0
  5  3  1  0  0  0  0
  6  5  2  0  0  0  0
  7 17  2  0  0  0  0
  8 19  2  0  0  0  0
  8 11  1  0  0  0  0
  9 17  1  0  0  0  0
  9 14  2  0  0  0  0
 10  6  1  0  0  0  0
 10 12  2  0  0  0  0
 11 15  2  0  0  0  0
 11 16  1  0  0  0  0
 13 18  2  0  0  0  0
 14 19  1  0  0  0  0
 15 13  1  0  0  0  0
 16 12  1  6  0  0  0
 16 18  1  0  0  0  0
 17  8  1  0  0  0  0
 19 10  1  0  0  0  0
 20 22  1  0  0  0  0
 21 24  1  6  0  0  0
 21 20  1  0  0  0  0
 21 22  1  0  0  0  0
 22  4  1  0  0  0  0
 24 23  1  6  0  0  0
 25 27  2  0  0  0  0
 27 26  1  0  0  0  0
 27 24  1  0  0  0  0
M  END
>  <MODEL>
6

>  <REMARK>
 VINA RESULT:      -6.9      1.672      5.474
  Name = 
  4 active torsions:
  status: ('A' for Active; 'I' for Inactive)
    1  A    between atoms: C_6  and  C_22
    2  A    between atoms: C_9  and  C_12
    3  A    between atoms: C_12  and  C_25
    4  A    between atoms: N_13  and  C_20
                            x       y       z     vdW  Elec       q    Type
                         _______ _______ _______ _____ _____    ______ ____

>  <TORSDO>
F 4

$$$$
=
 OpenBabel11042415103D

 27 31  0  0  1  0  0  0  0  0999 V2000
  185.2820  177.9440  142.5490 C   0  0  0  0  0  3  0  0  0  0  0  0
  184.5130  178.7140  143.4230 C   0  0  0  0  0  3  0  0  0  0  0  0
  185.0220  179.0700  144.6750 C   0  0  0  0  0  3  0  0  0  0  0  0
  186.5700  177.5310  142.9140 C   0  0  0  0  0  0  0  0  0  0  0  0
  186.3070  178.6630  145.0480 C   0  0  0  0  0  3  0  0  0  0  0  0
  187.0940  177.9030  144.1730 C   0  0  0  0  0  0  0  0  0  0  0  0
  190.6930  174.9170  147.9380 O   0  0  0  0  0  0  0  0  0  0  0  0
  189.9280  176.2890  146.1080 C   0  0  0  0  0  0  0  0  0  0  0  0
  188.3840  175.2910  147.5400 N   0  0  0  0  0  2  0  0  0  0  0  0
  188.4450  177.4970  144.6050 C   0  0  0  0  0  0  0  0  0  0  0  0
  191.0340  176.7320  145.3970 C   0  0  0  0  0  0  0  0  0  0  0  0
  189.5760  177.9460  143.8800 C   0  0  0  0  0  3  0  0  0  0  0  0
  193.0400  177.1640  144.5850 C   0  0  0  0  0  3  0  0  0  0  0  0
  187.7470  176.0830  146.5230 C   0  0  0  0  0  3  0  0  0  0  0  0
  192.4500  176.4880  145.5750 C   0  0  0  0  0  3  0  0  0  0  0  0
  190.8540  177.5440  144.3030 C   0  0  0  0  0  0  0  0  0  0  0  0
  189.7710  175.4430  147.2610 C   0  0  0  0  0  0  0  0  0  0  0  0
  192.0200  177.8430  143.7600 C   0  0  0  0  0  3  0  0  0  0  0  0
  188.6540  176.6500  145.7200 C   0  0  0  0  0  0  0  0  0  0  0  0
  187.4560  176.0010  140.7070 C   0  0  0  0  0  2  0  0  0  0  0  0
  188.4400  175.7910  141.6580 C   0  0  1  0  0  3  0  0  0  0  0  0
  187.3020  176.6920  142.0210 N   0  0  0  0  0  0  0  0  0  0  0  0
  187.8090  173.3620  141.6900 N   0  0  0  0  0  1  0  0  0  0  0  0
  188.3170  174.4870  142.4680 C   0  0  1  0  0  3  0  0  0  0  0  0
  189.6900  173.4570  144.1340 O   0  0  0  0  0  0  0  0  0  0  0  0
  190.8370  174.5740  142.4530 N   0  0  0  0  0  1  0  0  0  0  0  0
  189.6340  174.1320  143.0710 C   0  0  0  0  0  0  0  0  0  0  0  0
  1  4  2  0  0  0  0
  1  2  1  0  0  0  0
  2  3  2  0  0  0  0
  3  5  1  0  0  0  0
  4  6  1  0  0  0  0
  6 10  1  0  0  0  0
  6  5  2  0  0  0  0
  8 17  1  0  0  0  0
 10 19  1  0  0  0  0
 11 15  1  0  0  0  0
 11  8  2  0  0  0  0
 12 16  1  0  0  0  0
 12 10  2  0  0  0  0
 13 15  2  0  0  0  0
 14  9  1  0  0  0  0
 16 11  1  0  0  0  0
 17  9  1  0  0  0  0
 17  7  2  0  0  0  0
 18 16  2  0  0  0  0
 18 13  1  0  0  0  0
 19  8  1  0  0  0  0
 19 14  2  0  0  0  0
 20 21  1  0  0  0  0
 20 22  1  0  0  0  0
 21 22  1  0  0  0  0
 21 24  1  1  0  0  0
 22  4  1  0  0  0  0
 24 23  1  6  0  0  0
 24 27  1  0  0  0  0
 26 27  1  0  0  0  0
 27 25  2  0  0  0  0
M  END
>  <MODEL>
7

>  <REMARK>
 VINA RESULT:      -6.9      2.198      5.522
  Name = 
  4 active torsions:
  status: ('A' for Active; 'I' for Inactive)
    1  A    between atoms: C_6  and  C_22
    2  A    between atoms: C_9  and  C_12
    3  A    between atoms: C_12  and  C_25
    4  A    between atoms: N_13  and  C_20
                            x       y       z     vdW  Elec       q    Type
                         _______ _______ _______ _____ _____    ______ ____

>  <TORSDO>
F 4

$$$$
=
 OpenBabel11042415103D

 27 31  0  0  1  0  0  0  0  0999 V2000
  184.5730  177.8080  142.8040 C   0  0  0  0  0  3  0  0  0  0  0  0
  184.4570  178.2950  141.5000 C   0  0  0  0  0  3  0  0  0  0  0  0
  185.5660  178.2910  140.6510 C   0  0  0  0  0  3  0  0  0  0  0  0
  185.7950  177.3020  143.2650 C   0  0  0  0  0  0  0  0  0  0  0  0
  186.7900  177.7890  141.1020 C   0  0  0  0  0  3  0  0  0  0  0  0
  186.9150  177.2820  142.4030 C   0  0  0  0  0  0  0  0  0  0  0  0
  190.6870  172.6850  143.2300 O   0  0  0  0  0  0  0  0  0  0  0  0
  189.7780  174.9180  143.1740 C   0  0  0  0  0  0  0  0  0  0  0  0
  188.5120  173.1260  142.3880 N   0  0  0  0  0  0  0  0  0  0  0  0
  188.2240  176.7590  142.8380 C   0  0  0  0  0  0  0  0  0  0  0  0
  190.7340  175.7960  143.6640 C   0  0  0  0  0  0  0  0  0  0  0  0
  189.2040  177.6530  143.3360 C   0  0  0  0  0  3  0  0  0  0  0  0
  192.5310  176.7900  144.4730 C   0  0  0  0  0  3  0  0  0  0  0  0
  187.8040  174.3740  142.2920 C   0  0  0  0  0  3  0  0  0  0  0  0
  192.0850  175.5760  144.1390 C   0  0  0  0  0  2  0  0  0  0  0  0
  190.4470  177.1380  143.7400 C   0  0  0  0  0  0  0  0  0  0  0  0
  189.7620  173.4950  142.9580 C   0  0  0  0  0  0  0  0  0  0  0  0
  191.4840  177.8010  144.2160 C   0  0  0  0  0  3  0  0  0  0  0  0
  188.5480  175.3840  142.7560 C   0  0  0  0  0  0  0  0  0  0  0  0
  185.2730  176.5750  145.9480 C   0  0  0  0  0  2  0  0  0  0  0  0
  186.6440  176.4240  145.8370 C   0  0  1  0  0  3  0  0  0  0  0  0
  185.8920  176.8720  144.6230 N   0  0  0  0  0  0  0  0  0  0  0  0
  186.8200  178.3900  147.3880 N   0  0  0  0  0  1  0  0  0  0  0  0
  187.4890  177.6020  146.3570 C   0  0  1  0  0  3  0  0  0  0  0  0
  189.6740  177.9160  147.2790 O   0  0  0  0  0  0  0  0  0  0  0  0
  189.0730  175.7100  146.8770 N   0  0  0  0  0  1  0  0  0  0  0  0
  188.7990  177.1060  146.8690 C   0  0  0  0  0  0  0  0  0  0  0  0
  1  4  1  0  0  0  0
  2  1  2  0  0  0  0
  3  5  2  0  0  0  0
  3  2  1  0  0  0  0
  4 22  1  0  0  0  0
  5  6  1  0  0  0  0
  6 10  1  0  0  0  0
  6  4  2  0  0  0  0
  8 11  1  0  0  0  0
  9 17  1  0  0  0  0
 10 12  2  0  0  0  0
 11 16  2  0  0  0  0
 11 15  1  0  0  0  0
 12 16  1  0  0  0  0
 14  9  2  0  0  0  0
 14 19  1  0  0  0  0
 15 13  1  0  0  0  0
 16 18  1  0  0  0  0
 17  8  1  0  0  0  0
 17  7  2  0  0  0  0
 18 13  2  0  0  0  0
 19 10  1  0  0  0  0
 19  8  2  0  0  0  0
 21 20  1  0  0  0  0
 21 24  1  1  0  0  0
 22 21  1  0  0  0  0
 22 20  1  0  0  0  0
 24 27  1  0  0  0  0
 24 23  1  1  0  0  0
 27 26  1  0  0  0  0
 27 25  2  0  0  0  0
M  END
>  <MODEL>
8

>  <REMARK>
 VINA RESULT:      -6.9      2.565      6.344
  Name = 
  4 active torsions:
  status: ('A' for Active; 'I' for Inactive)
    1  A    between atoms: C_6  and  C_22
    2  A    between atoms: C_9  and  C_12
    3  A    between atoms: C_12  and  C_25
    4  A    between atoms: N_13  and  C_20
                            x       y       z     vdW  Elec       q    Type
                         _______ _______ _______ _____ _____    ______ ____

>  <TORSDO>
F 4

$$$$
=
 OpenBabel11042415103D

 27 31  0  0  1  0  0  0  0  0999 V2000
  185.0250  177.8930  142.6010 C   0  0  0  0  0  3  0  0  0  0  0  0
  185.0590  178.2670  141.2570 C   0  0  0  0  0  3  0  0  0  0  0  0
  186.1530  177.9170  140.4620 C   0  0  0  0  0  3  0  0  0  0  0  0
  186.0770  177.1560  143.1600 C   0  0  0  0  0  0  0  0  0  0  0  0
  187.2090  177.1820  141.0090 C   0  0  0  0  0  3  0  0  0  0  0  0
  187.1780  176.7870  142.3540 C   0  0  0  0  0  0  0  0  0  0  0  0
  192.7290  176.5440  144.6280 O   0  0  0  0  0  0  0  0  0  0  0  0
  190.5540  175.8810  143.8250 C   0  0  0  0  0  0  0  0  0  0  0  0
  191.1350  178.1370  143.8850 N   0  0  0  0  0  0  0  0  0  0  0  0
  188.3110  176.0100  142.8910 C   0  0  0  0  0  0  0  0  0  0  0  0
  190.4500  174.5010  143.9210 C   0  0  0  0  0  0  0  0  0  0  0  0
  188.2080  174.6010  142.9940 C   0  0  0  0  0  3  0  0  0  0  0  0
  190.7290  172.3400  144.2730 C   0  0  0  0  0  3  0  0  0  0  0  0
  189.8110  177.9320  143.3620 C   0  0  0  0  0  3  0  0  0  0  0  0
  191.3750  173.5010  144.4130 C   0  0  0  0  0  2  0  0  0  0  0  0
  189.2950  173.8780  143.5130 C   0  0  0  0  0  0  0  0  0  0  0  0
  191.5910  176.8190  144.1660 C   0  0  0  0  0  0  0  0  0  0  0  0
  189.3880  172.5750  143.6980 C   0  0  0  0  0  3  0  0  0  0  0  0
  189.5060  176.6300  143.3310 C   0  0  0  0  0  0  0  0  0  0  0  0
  185.3090  176.7650  145.8530 C   0  0  0  0  0  2  0  0  0  0  0  0
  186.6490  176.4160  145.8490 C   0  0  1  0  0  3  0  0  0  0  0  0
  186.0370  176.8460  144.5530 N   0  0  0  0  0  0  0  0  0  0  0  0
  187.0560  178.4050  147.3240 N   0  0  0  0  0  1  0  0  0  0  0  0
  187.6250  177.5090  146.3220 C   0  0  1  0  0  3  0  0  0  0  0  0
  189.8830  177.5980  147.1030 O   0  0  0  0  0  0  0  0  0  0  0  0
  188.9340  175.4800  147.0500 N   0  0  0  0  0  1  0  0  0  0  0  0
  188.8740  176.8880  146.8490 C   0  0  0  0  0  0  0  0  0  0  0  0
  1  4  1  0  0  0  0
  2  1  2  0  0  0  0
  3  5  2  0  0  0  0
  3  2  1  0  0  0  0
  4 22  1  0  0  0  0
  5  6  1  0  0  0  0
  6 10  1  0  0  0  0
  6  4  2  0  0  0  0
  8 11  1  0  0  0  0
  8 17  1  0  0  0  0
  9 17  1  0  0  0  0
 10 12  2  0  0  0  0
 10 19  1  0  0  0  0
 11 15  1  0  0  0  0
 12 16  1  0  0  0  0
 13 15  1  0  0  0  0
 14  9  2  0  0  0  0
 16 18  1  0  0  0  0
 16 11  2  0  0  0  0
 17  7  2  0  0  0  0
 18 13  2  0  0  0  0
 19 14  1  0  0  0  0
 19  8  2  0  0  0  0
 21 20  1  0  0  0  0
 21 24  1  1  0  0  0
 22 21  1  0  0  0  0
 22 20  1  0  0  0  0
 24 27  1  0  0  0  0
 24 23  1  1  0  0  0
 27 26  1  0  0  0  0
 27 25  2  0  0  0  0
M  END
>  <MODEL>
9

>  <REMARK>
 VINA RESULT:      -6.8      2.818      6.134
  Name = 
  4 active torsions:
  status: ('A' for Active; 'I' for Inactive)
    1  A    between atoms: C_6  and  C_22
    2  A    between atoms: C_9  and  C_12
    3  A    between atoms: C_12  and  C_25
    4  A    between atoms: N_13  and  C_20
                            x       y       z     vdW  Elec       q    Type
                         _______ _______ _______ _____ _____    ______ ____

>  <TORSDO>
F 4

$$$$
