=
 OpenBabel11042417273D

 29 34  0  0  1  0  0  0  0  0999 V2000
  196.1170  174.8180  144.4460 C   0  0  1  0  0  3  0  0  0  0  0  0
  192.2220  174.9160  147.1180 C   0  0  0  0  0  2  0  0  0  0  0  0
  194.9100  176.8470  144.9360 O   0  0  0  0  0  0  0  0  0  0  0  0
  189.7970  175.4490  147.2330 C   0  0  0  0  0  3  0  0  0  0  0  0
  195.2790  176.4780  141.9520 C   0  0  0  0  0  2  0  0  0  0  0  0
  188.7140  172.0220  142.3910 N   0  0  0  0  0  0  0  0  0  0  0  0
  189.2740  172.2870  143.6080 C   0  0  0  0  0  3  0  0  0  0  0  0
  190.5100  175.6160  144.7430 C   0  0  1  0  0  0  0  0  0  0  0  0
  197.9410  173.9320  141.5900 C   0  0  0  0  0  1  0  0  0  0  0  0
  188.5600  172.9910  141.4390 C   0  0  0  0  0  0  0  0  0  0  0  0
  187.9710  172.6660  140.1850 N   0  0  0  0  0  1  0  0  0  0  0  0
  190.9870  175.3350  147.8380 C   0  0  0  0  0  3  0  0  0  0  0  0
  196.6800  175.8630  141.9960 C   0  0  0  0  0  2  0  0  0  0  0  0
  188.9800  174.3070  141.6920 C   0  0  0  0  0  3  0  0  0  0  0  0
  194.7940  175.5910  144.3300 C   0  0  1  0  0  3  0  0  0  0  0  0
  196.1700  174.1600  145.6730 O   0  0  0  0  0  1  0  0  0  0  0  0
  194.2790  175.7820  142.8850 C   0  0  1  0  0  3  0  0  0  0  0  0
  190.0080  175.7710  143.4100 O   0  0  0  0  0  0  0  0  0  0  0  0
  189.5490  174.5630  142.9360 C   0  0  0  0  0  0  0  0  0  0  0  0
  192.4360  177.0600  144.0110 N   0  0  0  0  0  2  0  0  0  0  0  0
  189.6930  173.5870  143.8770 C   0  0  0  0  0  0  0  0  0  0  0  0
  189.4640  175.1890  145.7780 C   0  0  1  0  0  3  0  0  0  0  0  0
  194.1910  176.7950  146.5130 S   0  0  0  0  0  0  0  0  0  0  0  0
  196.3470  173.8070  143.3060 C   0  0  0  0  0  2  0  0  0  0  0  0
  190.3430  174.1230  145.1080 C   0  0  2  0  0  3  0  0  0  0  0  0
  191.8750  176.2350  145.0350 C   0  0  0  0  0  0  0  0  0  0  0  0
  192.8980  176.4580  142.7630 C   0  0  0  0  0  2  0  0  0  0  0  0
  196.6230  174.4000  141.9810 N   0  0  0  0  0  0  0  0  0  0  0  0
  192.6230  175.9590  146.1300 C   0  0  0  0  0  0  0  0  0  0  0  0
  1 16  1  1  0  0  0
  2 12  1  0  0  0  0
  3 23  1  0  0  0  0
  4 12  2  0  0  0  0
  5 13  1  0  0  0  0
  6  7  1  0  0  0  0
  7 21  2  0  0  0  0
  8 18  1  6  0  0  0
  8 26  1  0  0  0  0
  8 25  1  0  0  0  0
  8 22  1  0  0  0  0
  9 28  1  0  0  0  0
 10 14  1  0  0  0  0
 10  6  2  0  0  0  0
 11 10  1  0  0  0  0
 14 19  2  0  0  0  0
 15  1  1  0  0  0  0
 15  3  1  6  0  0  0
 17  5  1  6  0  0  0
 17 15  1  0  0  0  0
 19 18  1  0  0  0  0
 19 21  1  0  0  0  0
 20 26  1  0  0  0  0
 22  4  1  1  0  0  0
 24  1  1  0  0  0  0
 25 21  1  6  0  0  0
 25 22  1  0  0  0  0
 26 29  2  0  0  0  0
 27 17  1  0  0  0  0
 27 20  1  0  0  0  0
 28 13  1  0  0  0  0
 28 24  1  0  0  0  0
 29 23  1  0  0  0  0
 29  2  1  0  0  0  0
M  END
>  <MODEL>
1

>  <REMARK>
 VINA RESULT:      -8.0      0.000      0.000
  Name = 
  0 active torsions:
  status: ('A' for Active; 'I' for Inactive)
                            x       y       z     vdW  Elec       q    Type
                         _______ _______ _______ _____ _____    ______ ____

>  <TORSDO>
F 0

$$$$
=
 OpenBabel11042417273D

 29 34  0  0  1  0  0  0  0  0999 V2000
  191.7410  172.2920  143.3740 C   0  0  1  0  0  3  0  0  0  0  0  0
  191.3400  175.0650  147.1780 C   0  0  0  0  0  2  0  0  0  0  0  0
  192.9850  174.3390  143.6440 O   0  0  0  0  0  0  0  0  0  0  0  0
  190.7260  177.3080  148.0560 C   0  0  0  0  0  3  0  0  0  0  0  0
  191.4670  174.3110  141.0230 C   0  0  0  0  0  2  0  0  0  0  0  0
  185.3580  177.0140  145.3250 N   0  0  0  0  0  0  0  0  0  0  0  0
  186.3790  176.5170  146.0820 C   0  0  0  0  0  3  0  0  0  0  0  0
  190.0020  177.2260  145.5650 C   0  0  1  0  0  0  0  0  0  0  0  0
  190.5340  170.7740  140.4570 C   0  0  0  0  0  1  0  0  0  0  0  0
  185.5830  177.8410  144.2600 C   0  0  0  0  0  0  0  0  0  0  0  0
  184.4860  178.3330  143.4990 N   0  0  0  0  0  1  0  0  0  0  0  0
  191.4510  176.1850  148.1540 C   0  0  0  0  0  3  0  0  0  0  0  0
  191.6400  172.8230  140.7050 C   0  0  0  0  0  2  0  0  0  0  0  0
  186.8940  178.2080  143.9110 C   0  0  0  0  0  3  0  0  0  0  0  0
  191.6900  173.8180  143.5500 C   0  0  1  0  0  3  0  0  0  0  0  0
  191.8360  171.6790  144.6210 O   0  0  0  0  0  1  0  0  0  0  0  0
  190.9300  174.5730  142.4350 C   0  0  1  0  0  3  0  0  0  0  0  0
  189.2730  177.9330  144.5540 O   0  0  0  0  0  0  0  0  0  0  0  0
  187.9240  177.6940  144.6930 C   0  0  0  0  0  0  0  0  0  0  0  0
  191.6170  176.6070  143.7370 N   0  0  0  0  0  2  0  0  0  0  0  0
  187.6840  176.8730  145.7540 C   0  0  0  0  0  0  0  0  0  0  0  0
  189.6980  177.6620  147.0010 C   0  0  1  0  0  3  0  0  0  0  0  0
  193.3650  174.6370  145.3090 S   0  0  0  0  0  0  0  0  0  0  0  0
  190.5360  171.7150  142.6050 C   0  0  0  0  0  2  0  0  0  0  0  0
  188.9590  176.4550  146.4050 C   0  0  2  0  0  3  0  0  0  0  0  0
  191.2180  176.4270  145.0980 C   0  0  0  0  0  0  0  0  0  0  0  0
  190.7770  176.0920  142.6580 C   0  0  0  0  0  2  0  0  0  0  0  0
  190.4890  172.0410  141.1650 N   0  0  0  0  0  0  0  0  0  0  0  0
  191.8520  175.4910  145.8430 C   0  0  0  0  0  0  0  0  0  0  0  0
  1 15  1  0  0  0  0
  1 16  1  1  0  0  0
  2 12  1  0  0  0  0
  3 23  1  0  0  0  0
  4 12  2  0  0  0  0
  6  7  1  0  0  0  0
  8 18  1  6  0  0  0
  8 25  1  0  0  0  0
  8 22  1  0  0  0  0
  9 28  1  0  0  0  0
 10  6  2  0  0  0  0
 11 10  1  0  0  0  0
 13  5  1  0  0  0  0
 13 28  1  0  0  0  0
 14 10  1  0  0  0  0
 14 19  2  0  0  0  0
 15  3  1  6  0  0  0
 17  5  1  6  0  0  0
 17 27  1  0  0  0  0
 17 15  1  0  0  0  0
 18 19  1  0  0  0  0
 19 21  1  0  0  0  0
 20 26  1  0  0  0  0
 21  7  2  0  0  0  0
 22  4  1  1  0  0  0
 23 29  1  0  0  0  0
 24  1  1  0  0  0  0
 25 21  1  6  0  0  0
 25 22  1  0  0  0  0
 26  8  1  0  0  0  0
 26 29  2  0  0  0  0
 27 20  1  0  0  0  0
 28 24  1  0  0  0  0
 29  2  1  0  0  0  0
M  END
>  <MODEL>
2

>  <REMARK>
 VINA RESULT:      -8.0      3.139      4.450
  Name = 
  0 active torsions:
  status: ('A' for Active; 'I' for Inactive)
                            x       y       z     vdW  Elec       q    Type
                         _______ _______ _______ _____ _____    ______ ____

>  <TORSDO>
F 0

$$$$
=
 OpenBabel11042417273D

 29 34  0  0  1  0  0  0  0  0999 V2000
  193.5530  172.7870  143.7760 C   0  0  1  0  0  3  0  0  0  0  0  0
  190.9780  175.3660  146.7840 C   0  0  0  0  0  2  0  0  0  0  0  0
  194.2030  174.9900  144.5090 O   0  0  0  0  0  0  0  0  0  0  0  0
  189.7000  177.4660  147.1500 C   0  0  0  0  0  3  0  0  0  0  0  0
  194.1530  174.8040  141.4850 C   0  0  0  0  0  2  0  0  0  0  0  0
  186.4100  176.4410  142.2010 N   0  0  0  0  0  0  0  0  0  0  0  0
  187.0020  176.0840  143.3780 C   0  0  0  0  0  3  0  0  0  0  0  0
  190.2820  177.3430  144.6230 C   0  0  1  0  0  0  0  0  0  0  0  0
  194.1290  171.1840  140.7170 C   0  0  0  0  0  1  0  0  0  0  0  0
  186.9970  177.3210  141.3340 C   0  0  0  0  0  0  0  0  0  0  0  0
  186.3430  177.6630  140.1180 N   0  0  0  0  0  1  0  0  0  0  0  0
  190.4420  176.4620  147.6380 C   0  0  0  0  0  3  0  0  0  0  0  0
  194.6700  173.3680  141.3630 C   0  0  0  0  0  2  0  0  0  0  0  0
  188.2450  177.8900  141.6380 C   0  0  0  0  0  3  0  0  0  0  0  0
  193.2030  174.2820  143.8310 C   0  0  1  0  0  3  0  0  0  0  0  0
  193.1250  172.1620  144.9460 O   0  0  0  0  0  1  0  0  0  0  0  0
  192.9720  174.9450  142.4540 C   0  0  1  0  0  3  0  0  0  0  0  0
  190.0350  177.9590  143.3540 O   0  0  0  0  0  0  0  0  0  0  0  0
  188.8360  177.5170  142.8410 C   0  0  0  0  0  0  0  0  0  0  0  0
  192.6470  177.0230  143.8240 N   0  0  0  0  0  2  0  0  0  0  0  0
  188.2370  176.6410  143.6970 C   0  0  0  0  0  0  0  0  0  0  0  0
  189.2660  177.6900  145.7160 C   0  0  1  0  0  3  0  0  0  0  0  0
  193.6890  175.2970  146.1360 S   0  0  0  0  0  0  0  0  0  0  0  0
  192.9630  172.0570  142.5540 C   0  0  0  0  0  2  0  0  0  0  0  0
  189.0870  176.4020  144.8990 C   0  0  2  0  0  3  0  0  0  0  0  0
  191.6740  176.7490  144.8350 C   0  0  0  0  0  0  0  0  0  0  0  0
  192.5120  176.4160  142.5010 C   0  0  0  0  0  2  0  0  0  0  0  0
  193.5670  172.4100  141.2530 N   0  0  0  0  0  0  0  0  0  0  0  0
  192.0000  175.8990  145.8380 C   0  0  0  0  0  0  0  0  0  0  0  0
  1 15  1  0  0  0  0
  1 16  1  1  0  0  0
  2 12  1  0  0  0  0
  3 23  1  0  0  0  0
  4 12  2  0  0  0  0
  6  7  1  0  0  0  0
  7 21  2  0  0  0  0
  8 18  1  6  0  0  0
  8 26  1  0  0  0  0
  8 25  1  0  0  0  0
  8 22  1  0  0  0  0
  9 28  1  0  0  0  0
 10 14  1  0  0  0  0
 10  6  2  0  0  0  0
 11 10  1  0  0  0  0
 13  5  1  0  0  0  0
 14 19  2  0  0  0  0
 15  3  1  6  0  0  0
 17  5  1  6  0  0  0
 17 27  1  0  0  0  0
 17 15  1  0  0  0  0
 19 18  1  0  0  0  0
 19 21  1  0  0  0  0
 20 26  1  0  0  0  0
 22  4  1  1  0  0  0
 24  1  1  0  0  0  0
 25 21  1  6  0  0  0
 25 22  1  0  0  0  0
 26 29  2  0  0  0  0
 27 20  1  0  0  0  0
 28 13  1  0  0  0  0
 28 24  1  0  0  0  0
 29 23  1  0  0  0  0
 29  2  1  0  0  0  0
M  END
>  <MODEL>
3

>  <REMARK>
 VINA RESULT:      -7.4      2.737      3.009
  Name = 
  0 active torsions:
  status: ('A' for Active; 'I' for Inactive)
                            x       y       z     vdW  Elec       q    Type
                         _______ _______ _______ _____ _____    ______ ____

>  <TORSDO>
F 0

$$$$
=
 OpenBabel11042417273D

 29 34  0  0  1  0  0  0  0  0999 V2000
  188.7390  176.8810  143.7490 C   0  0  1  0  0  3  0  0  0  0  0  0
  192.8990  176.5160  145.9600 C   0  0  0  0  0  2  0  0  0  0  0  0
  189.4080  174.9160  144.9760 O   0  0  0  0  0  0  0  0  0  0  0  0
  195.0550  175.2910  146.1380 C   0  0  0  0  0  3  0  0  0  0  0  0
  188.5800  174.2200  142.1450 C   0  0  0  0  0  2  0  0  0  0  0  0
  196.0780  176.0410  140.2420 N   0  0  0  0  0  0  0  0  0  0  0  0
  195.7150  176.4620  141.4890 C   0  0  0  0  0  3  0  0  0  0  0  0
  193.8510  174.4360  144.0020 C   0  0  1  0  0  0  0  0  0  0  0  0
  186.7120  177.1660  140.9080 C   0  0  0  0  0  1  0  0  0  0  0  0
  195.7680  174.7900  139.7830 C   0  0  0  0  0  0  0  0  0  0  0  0
  196.1660  174.3960  138.4750 N   0  0  0  0  0  1  0  0  0  0  0  0
  194.0850  176.0170  146.7110 C   0  0  0  0  0  3  0  0  0  0  0  0
  187.4410  175.2340  142.0120 C   0  0  0  0  0  2  0  0  0  0  0  0
  195.0560  173.8920  140.5950 C   0  0  0  0  0  3  0  0  0  0  0  0
  189.7470  175.7300  143.8880 C   0  0  1  0  0  3  0  0  0  0  0  0
  189.1130  177.9340  144.5820 O   0  0  0  0  0  1  0  0  0  0  0  0
  189.8960  174.8420  142.6310 C   0  0  1  0  0  3  0  0  0  0  0  0
  194.0190  173.6270  142.8320 O   0  0  0  0  0  0  0  0  0  0  0  0
  194.6940  174.3350  141.8630 C   0  0  0  0  0  0  0  0  0  0  0  0
  191.4950  173.5540  144.0740 N   0  0  0  0  0  2  0  0  0  0  0  0
  195.0130  175.5830  142.3090 C   0  0  0  0  0  0  0  0  0  0  0  0
  195.1550  174.8500  144.6920 C   0  0  1  0  0  3  0  0  0  0  0  0
  190.4070  175.3220  146.3330 S   0  0  0  0  0  0  0  0  0  0  0  0
  188.5810  177.3950  142.3050 C   0  0  0  0  0  2  0  0  0  0  0  0
  194.4940  175.8070  143.6890 C   0  0  2  0  0  3  0  0  0  0  0  0
  192.4520  174.4690  144.6150 C   0  0  0  0  0  0  0  0  0  0  0  0
  190.9830  173.7530  142.7200 C   0  0  0  0  0  2  0  0  0  0  0  0
  187.8990  176.4720  141.3750 N   0  0  0  0  0  0  0  0  0  0  0  0
  192.0390  175.3740  145.5340 C   0  0  0  0  0  0  0  0  0  0  0  0
  1 15  1  0  0  0  0
  1 16  1  1  0  0  0
  2 12  1  0  0  0  0
  3 23  1  0  0  0  0
  4 12  2  0  0  0  0
  6  7  1  0  0  0  0
  7 21  2  0  0  0  0
  8 18  1  6  0  0  0
  8 26  1  0  0  0  0
  8 22  1  0  0  0  0
  9 28  1  0  0  0  0
 10  6  2  0  0  0  0
 10 14  1  0  0  0  0
 11 10  1  0  0  0  0
 13  5  1  0  0  0  0
 14 19  2  0  0  0  0
 15  3  1  1  0  0  0
 17  5  1  1  0  0  0
 17 27  1  0  0  0  0
 17 15  1  0  0  0  0
 19 21  1  0  0  0  0
 19 18  1  0  0  0  0
 20 26  1  0  0  0  0
 22  4  1  1  0  0  0
 24  1  1  0  0  0  0
 25 21  1  6  0  0  0
 25  8  1  0  0  0  0
 25 22  1  0  0  0  0
 26 29  2  0  0  0  0
 27 20  1  0  0  0  0
 28 13  1  0  0  0  0
 28 24  1  0  0  0  0
 29  2  1  0  0  0  0
 29 23  1  0  0  0  0
M  END
>  <MODEL>
4

>  <REMARK>
 VINA RESULT:      -7.3      2.341      6.384
  Name = 
  0 active torsions:
  status: ('A' for Active; 'I' for Inactive)
                            x       y       z     vdW  Elec       q    Type
                         _______ _______ _______ _____ _____    ______ ____

>  <TORSDO>
F 0

$$$$
=
 OpenBabel11042417273D

 29 34  0  0  1  0  0  0  0  0999 V2000
  193.1400  171.2500  141.8300 C   0  0  1  0  0  3  0  0  0  0  0  0
  194.6540  174.0270  145.3410 C   0  0  0  0  0  2  0  0  0  0  0  0
  194.1380  173.4140  141.4580 O   0  0  0  0  0  0  0  0  0  0  0  0
  194.4270  176.2120  146.5040 C   0  0  0  0  0  3  0  0  0  0  0  0
  191.4370  173.1980  140.1020 C   0  0  0  0  0  2  0  0  0  0  0  0
  188.4940  175.3540  147.1620 N   0  0  0  0  0  0  0  0  0  0  0  0
  189.8030  174.9710  147.2120 C   0  0  0  0  0  3  0  0  0  0  0  0
  192.4610  176.0230  144.8190 C   0  0  1  0  0  0  0  0  0  0  0  0
  190.6680  169.5790  139.9960 C   0  0  0  0  0  1  0  0  0  0  0  0
  188.0200  176.1840  146.1830 C   0  0  0  0  0  0  0  0  0  0  0  0
  186.6460  176.5550  146.1710 N   0  0  0  0  0  1  0  0  0  0  0  0
  195.1820  175.1670  146.1410 C   0  0  0  0  0  3  0  0  0  0  0  0
  191.5390  171.7300  139.6810 C   0  0  0  0  0  2  0  0  0  0  0  0
  188.8820  176.6720  145.1870 C   0  0  0  0  0  3  0  0  0  0  0  0
  193.0570  172.7660  142.0690 C   0  0  1  0  0  3  0  0  0  0  0  0
  193.9610  170.6690  142.7940 O   0  0  0  0  0  1  0  0  0  0  0  0
  191.7450  173.4280  141.5870 C   0  0  1  0  0  3  0  0  0  0  0  0
  191.2360  176.6400  144.4050 O   0  0  0  0  0  0  0  0  0  0  0  0
  190.2140  176.2730  145.2520 C   0  0  0  0  0  0  0  0  0  0  0  0
  192.8500  175.5370  142.3810 N   0  0  0  0  0  2  0  0  0  0  0  0
  190.6730  175.4480  146.2360 C   0  0  0  0  0  0  0  0  0  0  0  0
  192.9600  176.4490  146.2030 C   0  0  1  0  0  3  0  0  0  0  0  0
  195.3430  173.7720  142.6510 S   0  0  0  0  0  0  0  0  0  0  0  0
  191.7680  170.5480  141.8270 C   0  0  0  0  0  2  0  0  0  0  0  0
  192.1270  175.1670  146.0620 C   0  0  2  0  0  3  0  0  0  0  0  0
  193.2840  175.3400  143.7280 C   0  0  0  0  0  0  0  0  0  0  0  0
  191.6050  174.9270  141.9210 C   0  0  0  0  0  2  0  0  0  0  0  0
  190.9070  170.8460  140.6640 N   0  0  0  0  0  0  0  0  0  0  0  0
  194.3050  174.4810  143.9630 C   0  0  0  0  0  0  0  0  0  0  0  0
  1 15  1  0  0  0  0
  1 16  1  1  0  0  0
  2 12  1  0  0  0  0
  3 23  1  0  0  0  0
  6  7  1  0  0  0  0
  8 26  1  6  0  0  0
  8 25  1  0  0  0  0
  8 22  1  0  0  0  0
  9 28  1  0  0  0  0
 10  6  2  0  0  0  0
 11 10  1  0  0  0  0
 12  4  2  0  0  0  0
 13  5  1  0  0  0  0
 13 28  1  0  0  0  0
 14 19  2  0  0  0  0
 14 10  1  0  0  0  0
 15  3  1  6  0  0  0
 17  5  1  6  0  0  0
 17 27  1  0  0  0  0
 17 15  1  0  0  0  0
 18  8  1  0  0  0  0
 18 19  1  0  0  0  0
 19 21  1  0  0  0  0
 20 26  1  0  0  0  0
 21  7  2  0  0  0  0
 22  4  1  6  0  0  0
 23 29  1  0  0  0  0
 24  1  1  0  0  0  0
 25 22  1  0  0  0  0
 25 21  1  1  0  0  0
 26 29  2  0  0  0  0
 27 20  1  0  0  0  0
 28 24  1  0  0  0  0
 29  2  1  0  0  0  0
M  END
>  <MODEL>
5

>  <REMARK>
 VINA RESULT:      -7.1      3.102      4.721
  Name = 
  0 active torsions:
  status: ('A' for Active; 'I' for Inactive)
                            x       y       z     vdW  Elec       q    Type
                         _______ _______ _______ _____ _____    ______ ____

>  <TORSDO>
F 0

$$$$
=
 OpenBabel11042417273D

 29 34  0  0  1  0  0  0  0  0999 V2000
  193.6520  174.9890  143.8410 C   0  0  1  0  0  3  0  0  0  0  0  0
  190.8740  173.2830  140.4210 C   0  0  0  0  0  2  0  0  0  0  0  0
  192.3590  172.9680  144.0840 O   0  0  0  0  0  0  0  0  0  0  0  0
  188.5650  172.6660  139.7360 C   0  0  0  0  0  3  0  0  0  0  0  0
  191.7920  174.9160  146.3340 C   0  0  0  0  0  2  0  0  0  0  0  0
  186.5370  178.1230  141.3100 N   0  0  0  0  0  0  0  0  0  0  0  0
  187.4110  177.2640  140.7080 C   0  0  0  0  0  3  0  0  0  0  0  0
  188.3940  173.9110  142.0070 C   0  0  1  0  0  0  0  0  0  0  0  0
  194.5660  177.3640  146.2470 C   0  0  0  0  0  1  0  0  0  0  0  0
  185.9270  177.8200  142.4960 C   0  0  0  0  0  0  0  0  0  0  0  0
  185.0240  178.7480  143.0860 N   0  0  0  0  0  1  0  0  0  0  0  0
  189.8890  172.4850  139.6370 C   0  0  0  0  0  3  0  0  0  0  0  0
  193.2110  175.4690  146.4850 C   0  0  0  0  0  2  0  0  0  0  0  0
  186.1880  176.5980  143.1370 C   0  0  0  0  0  3  0  0  0  0  0  0
  192.2560  174.3450  143.8570 C   0  0  1  0  0  3  0  0  0  0  0  0
  194.2050  174.8760  142.5680 O   0  0  0  0  0  1  0  0  0  0  0  0
  191.2760  174.9480  144.8900 C   0  0  1  0  0  3  0  0  0  0  0  0
  187.4680  174.4830  142.9400 O   0  0  0  0  0  0  0  0  0  0  0  0
  187.0810  175.7330  142.5120 C   0  0  0  0  0  0  0  0  0  0  0  0
  189.7180  173.1830  144.0200 N   0  0  0  0  0  2  0  0  0  0  0  0
  187.6790  176.0460  141.3280 C   0  0  0  0  0  0  0  0  0  0  0  0
  187.8240  173.6600  140.6080 C   0  0  1  0  0  3  0  0  0  0  0  0
  192.2090  172.1240  142.5770 S   0  0  0  0  0  0  0  0  0  0  0  0
  193.6580  176.4660  144.2800 C   0  0  0  0  0  2  0  0  0  0  0  0
  188.5970  174.9570  140.8880 C   0  0  2  0  0  3  0  0  0  0  0  0
  189.6610  173.2930  142.5960 C   0  0  0  0  0  0  0  0  0  0  0  0
  189.8410  174.3860  144.8390 C   0  0  0  0  0  2  0  0  0  0  0  0
  193.3890  176.7020  145.7140 N   0  0  0  0  0  0  0  0  0  0  0  0
  190.7590  172.9630  141.8730 C   0  0  0  0  0  0  0  0  0  0  0  0
  1 16  1  6  0  0  0
  1 15  1  0  0  0  0
  1 24  1  0  0  0  0
  2 29  1  0  0  0  0
  5 13  1  0  0  0  0
  6 10  1  0  0  0  0
  7  6  2  0  0  0  0
  7 21  1  0  0  0  0
  8 26  1  1  0  0  0
  8 18  1  0  0  0  0
 10 11  1  0  0  0  0
 10 14  2  0  0  0  0
 12  4  2  0  0  0  0
 12  2  1  0  0  0  0
 15  3  1  1  0  0  0
 15 17  1  0  0  0  0
 17 27  1  1  0  0  0
 17  5  1  0  0  0  0
 19 18  1  0  0  0  0
 19 14  1  0  0  0  0
 20 27  1  0  0  0  0
 21 19  2  0  0  0  0
 22  4  1  6  0  0  0
 22 25  1  0  0  0  0
 22  8  1  0  0  0  0
 23  3  1  0  0  0  0
 24 28  1  0  0  0  0
 25 21  1  1  0  0  0
 25  8  1  0  0  0  0
 26 20  1  0  0  0  0
 28  9  1  0  0  0  0
 28 13  1  0  0  0  0
 29 23  1  0  0  0  0
 29 26  2  0  0  0  0
M  END
>  <MODEL>
6

>  <REMARK>
 VINA RESULT:      -7.0      3.067      5.333
  Name = 
  0 active torsions:
  status: ('A' for Active; 'I' for Inactive)
                            x       y       z     vdW  Elec       q    Type
                         _______ _______ _______ _____ _____    ______ ____

>  <TORSDO>
F 0

$$$$
=
 OpenBabel11042417273D

 29 34  0  0  1  0  0  0  0  0999 V2000
  189.8210  172.9340  139.6990 C   0  0  1  0  0  3  0  0  0  0  0  0
  189.4590  176.6430  142.6050 C   0  0  0  0  0  2  0  0  0  0  0  0
  188.5040  172.8980  141.7190 O   0  0  0  0  0  0  0  0  0  0  0  0
  189.8540  177.5340  144.8920 C   0  0  0  0  0  3  0  0  0  0  0  0
  190.4770  170.5990  141.6480 C   0  0  0  0  0  2  0  0  0  0  0  0
  195.6370  175.8390  144.6580 N   0  0  0  0  0  0  0  0  0  0  0  0
  194.5050  176.4160  144.1580 C   0  0  0  0  0  3  0  0  0  0  0  0
  191.0240  175.2210  144.7490 C   0  0  1  0  0  0  0  0  0  0  0  0
  191.5730  170.3450  138.1220 C   0  0  0  0  0  1  0  0  0  0  0  0
  195.5920  174.7210  145.4440 C   0  0  0  0  0  0  0  0  0  0  0  0
  196.7990  174.1550  145.9420 N   0  0  0  0  0  1  0  0  0  0  0  0
  189.1480  177.5410  143.7530 C   0  0  0  0  0  3  0  0  0  0  0  0
  190.3970  170.3110  140.1470 C   0  0  0  0  0  2  0  0  0  0  0  0
  194.3600  174.1260  145.7630 C   0  0  0  0  0  3  0  0  0  0  0  0
  189.8060  173.0600  141.2310 C   0  0  1  0  0  3  0  0  0  0  0  0
  189.5120  174.1660  139.1250 O   0  0  0  0  0  1  0  0  0  0  0  0
  190.7410  172.0750  141.9710 C   0  0  1  0  0  3  0  0  0  0  0  0
  191.9090  174.3350  145.4430 O   0  0  0  0  0  0  0  0  0  0  0  0
  193.2150  174.7250  145.2460 C   0  0  0  0  0  0  0  0  0  0  0  0
  189.7840  173.1540  144.0260 N   0  0  0  0  0  2  0  0  0  0  0  0
  193.2750  175.8420  144.4670 C   0  0  0  0  0  0  0  0  0  0  0  0
  191.0500  176.6720  145.2400 C   0  0  1  0  0  3  0  0  0  0  0  0
  187.8200  174.4540  142.0610 S   0  0  0  0  0  0  0  0  0  0  0  0
  191.1580  172.4200  139.1320 C   0  0  0  0  0  2  0  0  0  0  0  0
  191.9120  176.2660  144.0350 C   0  0  2  0  0  3  0  0  0  0  0  0
  189.9310  174.5700  143.9020 C   0  0  0  0  0  0  0  0  0  0  0  0
  190.8180  172.2660  143.5000 C   0  0  0  0  0  2  0  0  0  0  0  0
  191.4610  171.0010  139.4120 N   0  0  0  0  0  0  0  0  0  0  0  0
  189.1920  175.2220  142.9730 C   0  0  0  0  0  0  0  0  0  0  0  0
  1 16  1  6  0  0  0
  1 15  1  0  0  0  0
  2 29  1  0  0  0  0
  2 12  1  0  0  0  0
  3 23  1  0  0  0  0
  6 10  1  0  0  0  0
  7 21  1  0  0  0  0
  7  6  2  0  0  0  0
  8 26  1  6  0  0  0
  8 22  1  0  0  0  0
  8 18  1  0  0  0  0
  9 28  1  0  0  0  0
 10 14  2  0  0  0  0
 10 11  1  0  0  0  0
 12  4  2  0  0  0  0
 13  5  1  0  0  0  0
 15  3  1  1  0  0  0
 15 17  1  0  0  0  0
 17  5  1  1  0  0  0
 17 27  1  0  0  0  0
 19 18  1  0  0  0  0
 19 14  1  0  0  0  0
 21 19  2  0  0  0  0
 22  4  1  6  0  0  0
 23 29  1  0  0  0  0
 24 28  1  0  0  0  0
 24  1  1  0  0  0  0
 25 21  1  1  0  0  0
 25  8  1  0  0  0  0
 25 22  1  0  0  0  0
 26 20  1  0  0  0  0
 27 20  1  0  0  0  0
 28 13  1  0  0  0  0
 29 26  2  0  0  0  0
M  END
>  <MODEL>
7

>  <REMARK>
 VINA RESULT:      -6.9      2.999      6.386
  Name = 
  0 active torsions:
  status: ('A' for Active; 'I' for Inactive)
                            x       y       z     vdW  Elec       q    Type
                         _______ _______ _______ _____ _____    ______ ____

>  <TORSDO>
F 0

$$$$
=
 OpenBabel11042417273D

 29 34  0  0  1  0  0  0  0  0999 V2000
  194.8560  174.9780  141.3820 C   0  0  1  0  0  3  0  0  0  0  0  0
  190.4790  173.6990  140.1430 C   0  0  0  0  0  2  0  0  0  0  0  0
  193.9270  172.8120  141.8890 O   0  0  0  0  0  0  0  0  0  0  0  0
  188.2330  172.9670  140.9170 C   0  0  0  0  0  3  0  0  0  0  0  0
  194.9820  174.1690  144.3830 C   0  0  0  0  0  2  0  0  0  0  0  0
  187.8670  177.6970  144.6390 N   0  0  0  0  0  0  0  0  0  0  0  0
  188.1320  177.0920  143.4450 C   0  0  0  0  0  3  0  0  0  0  0  0
  189.5810  173.6850  143.0160 C   0  0  1  0  0  0  0  0  0  0  0  0
  197.1740  176.8950  143.1750 C   0  0  0  0  0  1  0  0  0  0  0  0
  188.1300  177.0850  145.8340 C   0  0  0  0  0  0  0  0  0  0  0  0
  187.8380  177.7560  147.0540 N   0  0  0  0  0  1  0  0  0  0  0  0
  189.1900  172.9700  139.9790 C   0  0  0  0  0  3  0  0  0  0  0  0
  196.1990  174.8440  143.7460 C   0  0  0  0  0  2  0  0  0  0  0  0
  188.6880  175.7970  145.8630 C   0  0  0  0  0  3  0  0  0  0  0  0
  193.7580  174.1840  142.1070 C   0  0  1  0  0  3  0  0  0  0  0  0
  194.4780  175.1990  140.0590 O   0  0  0  0  0  1  0  0  0  0  0  0
  193.6730  174.4380  143.6300 C   0  0  1  0  0  3  0  0  0  0  0  0
  189.4730  173.9360  144.4230 O   0  0  0  0  0  0  0  0  0  0  0  0
  188.9530  175.1930  144.6370 C   0  0  0  0  0  0  0  0  0  0  0  0
  191.8470  172.7180  143.5290 N   0  0  0  0  0  2  0  0  0  0  0  0
  188.6820  175.8140  143.4550 C   0  0  0  0  0  0  0  0  0  0  0  0
  188.2470  173.6630  142.2630 C   0  0  1  0  0  3  0  0  0  0  0  0
  192.8280  172.2860  140.6550 S   0  0  0  0  0  0  0  0  0  0  0  0
  195.1960  176.3220  142.0550 C   0  0  0  0  0  2  0  0  0  0  0  0
  189.0740  174.9570  142.2990 C   0  0  2  0  0  3  0  0  0  0  0  0
  190.9100  173.1140  142.5250 C   0  0  0  0  0  0  0  0  0  0  0  0
  192.5060  173.7320  144.3490 C   0  0  0  0  0  2  0  0  0  0  0  0
  195.9000  176.2220  143.3500 N   0  0  0  0  0  0  0  0  0  0  0  0
  191.2930  173.0740  141.2260 C   0  0  0  0  0  0  0  0  0  0  0  0
  1 16  1  6  0  0  0
  1 24  1  0  0  0  0
  1 15  1  0  0  0  0
  2 29  1  0  0  0  0
  6 10  1  0  0  0  0
  7 21  1  0  0  0  0
  7  6  2  0  0  0  0
  8 26  1  6  0  0  0
  8 18  1  0  0  0  0
  9 28  1  0  0  0  0
 10 14  2  0  0  0  0
 10 11  1  0  0  0  0
 12  2  1  0  0  0  0
 12  4  2  0  0  0  0
 13  5  1  0  0  0  0
 15  3  1  1  0  0  0
 15 17  1  0  0  0  0
 17 27  1  1  0  0  0
 17  5  1  0  0  0  0
 18 19  1  0  0  0  0
 19 14  1  0  0  0  0
 20 27  1  0  0  0  0
 21 19  2  0  0  0  0
 22  4  1  6  0  0  0
 22 25  1  0  0  0  0
 22  8  1  0  0  0  0
 23 29  1  0  0  0  0
 23  3  1  0  0  0  0
 24 28  1  0  0  0  0
 25  8  1  0  0  0  0
 25 21  1  1  0  0  0
 26 20  1  0  0  0  0
 28 13  1  0  0  0  0
 29 26  2  0  0  0  0
M  END
>  <MODEL>
8

>  <REMARK>
 VINA RESULT:      -6.7      2.869      4.826
  Name = 
  0 active torsions:
  status: ('A' for Active; 'I' for Inactive)
                            x       y       z     vdW  Elec       q    Type
                         _______ _______ _______ _____ _____    ______ ____

>  <TORSDO>
F 0

$$$$
=
 OpenBabel11042417273D

 29 34  0  0  1  0  0  0  0  0999 V2000
  188.2380  177.2750  144.2600 C   0  0  1  0  0  3  0  0  0  0  0  0
  192.5020  176.0790  145.9100 C   0  0  0  0  0  2  0  0  0  0  0  0
  188.7310  175.0990  145.1750 O   0  0  0  0  0  0  0  0  0  0  0  0
  194.4600  174.5630  145.6950 C   0  0  0  0  0  3  0  0  0  0  0  0
  187.5270  174.8820  142.4030 C   0  0  0  0  0  2  0  0  0  0  0  0
  194.9780  175.9040  139.8380 N   0  0  0  0  0  0  0  0  0  0  0  0
  194.8100  176.2100  141.1580 C   0  0  0  0  0  3  0  0  0  0  0  0
  192.9330  174.1530  143.6360 C   0  0  1  0  0  0  0  0  0  0  0  0
  185.9970  178.1840  141.7270 C   0  0  0  0  0  1  0  0  0  0  0  0
  194.4420  174.7740  139.2840 C   0  0  0  0  0  0  0  0  0  0  0  0
  194.6430  174.4980  137.9030 N   0  0  0  0  0  1  0  0  0  0  0  0
  193.6710  175.3340  146.4550 C   0  0  0  0  0  3  0  0  0  0  0  0
  186.5420  176.0490  142.5190 C   0  0  0  0  0  2  0  0  0  0  0  0
  193.6920  173.8840  140.0710 C   0  0  0  0  0  3  0  0  0  0  0  0
  189.0740  175.9900  144.1520 C   0  0  1  0  0  3  0  0  0  0  0  0
  188.8460  178.1550  145.1540 O   0  0  0  0  0  1  0  0  0  0  0  0
  188.9620  175.2560  142.7950 C   0  0  1  0  0  3  0  0  0  0  0  0
  192.8600  173.4820  142.3730 O   0  0  0  0  0  0  0  0  0  0  0  0
  193.5300  174.2090  141.4140 C   0  0  0  0  0  0  0  0  0  0  0  0
  190.4920  173.5940  143.8890 N   0  0  0  0  0  2  0  0  0  0  0  0
  194.0730  175.3370  141.9540 C   0  0  0  0  0  0  0  0  0  0  0  0
  194.3470  174.2970  144.2070 C   0  0  1  0  0  3  0  0  0  0  0  0
  189.9110  175.1930  146.4410 S   0  0  0  0  0  0  0  0  0  0  0  0
  188.0120  177.9830  142.9100 C   0  0  0  0  0  2  0  0  0  0  0  0
  193.7350  175.4530  143.4020 C   0  0  2  0  0  3  0  0  0  0  0  0
  191.6230  174.2960  144.4100 C   0  0  0  0  0  0  0  0  0  0  0  0
  189.8800  174.0270  142.6350 C   0  0  0  0  0  2  0  0  0  0  0  0
  187.1100  177.2840  141.9720 N   0  0  0  0  0  0  0  0  0  0  0  0
  191.4440  175.1260  145.4660 C   0  0  0  0  0  0  0  0  0  0  0  0
  1 16  1  1  0  0  0
  2 12  1  0  0  0  0
  3 23  1  0  0  0  0
  4 12  2  0  0  0  0
  5 13  1  0  0  0  0
  6  7  1  0  0  0  0
  7 21  2  0  0  0  0
  8 18  1  6  0  0  0
  8 22  1  0  0  0  0
  8 26  1  0  0  0  0
  9 28  1  0  0  0  0
 10  6  2  0  0  0  0
 10 14  1  0  0  0  0
 11 10  1  0  0  0  0
 14 19  2  0  0  0  0
 15  1  1  0  0  0  0
 15  3  1  1  0  0  0
 17  5  1  1  0  0  0
 17 15  1  0  0  0  0
 19 21  1  0  0  0  0
 19 18  1  0  0  0  0
 20 26  1  0  0  0  0
 22  4  1  1  0  0  0
 24  1  1  0  0  0  0
 25 21  1  6  0  0  0
 25  8  1  0  0  0  0
 25 22  1  0  0  0  0
 26 29  2  0  0  0  0
 27 17  1  0  0  0  0
 27 20  1  0  0  0  0
 28 13  1  0  0  0  0
 28 24  1  0  0  0  0
 29  2  1  0  0  0  0
 29 23  1  0  0  0  0
M  END
>  <MODEL>
9

>  <REMARK>
 VINA RESULT:      -6.6      2.769      6.415
  Name = 
  0 active torsions:
  status: ('A' for Active; 'I' for Inactive)
                            x       y       z     vdW  Elec       q    Type
                         _______ _______ _______ _____ _____    ______ ____

>  <TORSDO>
F 0

$$$$
