=
 OpenBabel11042416293D

 29 32  0  0  1  0  0  0  0  0999 V2000
  189.2830  176.6560  145.0060 C   0  0  0  0  0  3  0  0  0  0  0  0
  190.6050  176.4960  145.4170 C   0  0  0  0  0  0  0  0  0  0  0  0
  192.6590  176.3050  146.6060 C   0  0  0  0  0  2  0  0  0  0  0  0
  190.0590  176.5970  142.7000 C   0  0  0  0  0  3  0  0  0  0  0  0
  192.8750  176.2750  145.1600 N   0  0  0  0  0  0  0  0  0  0  0  0
  191.3840  176.4480  143.1380 C   0  0  0  0  0  3  0  0  0  0  0  0
  191.6230  176.3970  144.5110 C   0  0  0  0  0  0  0  0  0  0  0  0
  190.6090  175.2160  147.5260 C   0  0  0  0  0  1  0  0  0  0  0  0
  188.9880  176.6840  143.6230 C   0  0  0  0  0  0  0  0  0  0  0  0
  191.1340  176.4460  146.8100 C   0  0  2  0  0  3  0  0  0  0  0  0
  195.1270  177.0740  144.6530 N   0  0  0  0  0  0  0  0  0  0  0  0
  194.5320  175.0970  143.7870 N   0  0  0  0  0  2  0  0  0  0  0  0
  196.1540  176.6170  143.9570 N   0  0  0  0  0  0  0  0  0  0  0  0
  194.1610  176.1490  144.5400 C   0  0  0  0  0  0  0  0  0  0  0  0
  195.7920  175.4270  143.4370 C   0  0  0  0  0  3  0  0  0  0  0  0
  187.5550  176.9070  143.1560 C   0  0  2  0  0  0  0  0  0  0  0  0
  185.0350  178.2540  146.4280 C   0  0  0  0  0  0  0  0  0  0  0  0
  184.2180  178.6890  147.4620 O   0  0  0  0  0  1  0  0  0  0  0  0
  186.4500  178.7450  144.5280 C   0  0  0  0  0  3  0  0  0  0  0  0
  186.7100  177.3740  144.3450 C   0  0  0  0  0  0  0  0  0  0  0  0
  185.6250  179.1810  145.5670 C   0  0  0  0  0  3  0  0  0  0  0  0
  186.0870  176.4510  145.2050 C   0  0  0  0  0  3  0  0  0  0  0  0
  185.2610  176.8890  146.2440 C   0  0  0  0  0  3  0  0  0  0  0  0
  187.9540  174.6080  142.4360 O   0  0  0  0  0  1  0  0  0  0  0  0
  186.9750  175.5960  142.5780 C   0  0  0  0  0  2  0  0  0  0  0  0
  187.6220  177.9570  142.0290 C   0  0  0  0  0  2  0  0  0  0  0  0
  186.8340  177.5700  140.8630 N   0  0  0  0  0  2  0  0  0  0  0  0
  185.5920  178.1890  140.5200 C   0  0  0  0  0  3  0  0  0  0  0  0
  184.5570  178.1970  141.3520 C   0  0  0  0  0  2  0  0  0  0  0  0
  1  2  1  0  0  0  0
  2 10  1  0  0  0  0
  3 10  1  0  0  0  0
  4  6  2  0  0  0  0
  4  9  1  0  0  0  0
  5  3  1  0  0  0  0
  6  7  1  0  0  0  0
  7  5  1  0  0  0  0
  7  2  2  0  0  0  0
  9  1  2  0  0  0  0
 10  8  1  6  0  0  0
 12 14  1  0  0  0  0
 13 11  1  0  0  0  0
 14 11  2  0  0  0  0
 14  5  1  0  0  0  0
 15 12  1  0  0  0  0
 15 13  2  0  0  0  0
 16 26  1  6  0  0  0
 16  9  1  0  0  0  0
 16 20  1  0  0  0  0
 17 18  1  0  0  0  0
 19 21  1  0  0  0  0
 20 19  2  0  0  0  0
 20 22  1  0  0  0  0
 21 17  2  0  0  0  0
 22 23  2  0  0  0  0
 23 17  1  0  0  0  0
 24 25  1  0  0  0  0
 25 16  1  0  0  0  0
 27 26  1  0  0  0  0
 28 27  1  0  0  0  0
 28 29  2  0  0  0  0
M  END
>  <MODEL>
1

>  <REMARK>
 VINA RESULT:      -7.3      0.000      0.000
  Name = 
  7 active torsions:
  status: ('A' for Active; 'I' for Inactive)
    1  A    between atoms: C_1  and  N_14
    2  A    between atoms: N_11  and  C_24
    3  A    between atoms: N_14  and  C_22
    4  A    between atoms: C_15  and  C_19
    5  A    between atoms: C_17  and  C_19
    6  A    between atoms: C_19  and  C_22
    7  A    between atoms: C_19  and  C_26
                            x       y       z     vdW  Elec       q    Type
                         _______ _______ _______ _____ _____    ______ ____

>  <TORSDO>
F 7

$$$$
=
 OpenBabel11042416293D

 29 32  0  0  1  0  0  0  0  0999 V2000
  187.5840  176.6210  145.9590 C   0  0  0  0  0  3  0  0  0  0  0  0
  186.4390  177.2070  145.4200 C   0  0  0  0  0  0  0  0  0  0  0  0
  184.3390  178.2530  145.0140 C   0  0  0  0  0  2  0  0  0  0  0  0
  188.2880  176.0700  143.6950 C   0  0  0  0  0  3  0  0  0  0  0  0
  184.9790  177.8400  143.7660 N   0  0  0  0  0  0  0  0  0  0  0  0
  187.1230  176.6560  143.1770 C   0  0  0  0  0  3  0  0  0  0  0  0
  186.2170  177.2220  144.0730 C   0  0  0  0  0  0  0  0  0  0  0  0
  185.7830  179.0910  146.8720 C   0  0  0  0  0  1  0  0  0  0  0  0
  188.5460  176.0590  145.0880 C   0  0  0  0  0  0  0  0  0  0  0  0
  185.3060  177.8460  146.1480 C   0  0  2  0  0  3  0  0  0  0  0  0
  183.0940  178.1780  142.2500 N   0  0  0  0  0  0  0  0  0  0  0  0
  185.1350  178.1050  141.3320 N   0  0  0  0  0  0  0  0  0  0  0  0
  182.9530  178.3400  140.9450 N   0  0  0  0  0  2  0  0  0  0  0  0
  184.4110  178.0380  142.4650 C   0  0  0  0  0  0  0  0  0  0  0  0
  184.1820  178.2950  140.3970 C   0  0  0  0  0  3  0  0  0  0  0  0
  189.7790  175.3700  145.6610 C   0  0  2  0  0  0  0  0  0  0  0  0
  190.8410  171.8670  143.3220 C   0  0  0  0  0  0  0  0  0  0  0  0
  191.1950  170.7470  142.5820 O   0  0  0  0  0  1  0  0  0  0  0  0
  191.1310  174.2120  143.8410 C   0  0  0  0  0  3  0  0  0  0  0  0
  190.1070  174.1440  144.8040 C   0  0  0  0  0  0  0  0  0  0  0  0
  191.4880  173.0830  143.1000 C   0  0  0  0  0  3  0  0  0  0  0  0
  189.4820  172.9040  145.0340 C   0  0  0  0  0  3  0  0  0  0  0  0
  189.8410  171.7750  144.2920 C   0  0  0  0  0  3  0  0  0  0  0  0
  190.6120  175.1880  147.9490 O   0  0  0  0  0  1  0  0  0  0  0  0
  189.5140  174.9390  147.1220 C   0  0  0  0  0  2  0  0  0  0  0  0
  190.9090  176.4180  145.6510 C   0  0  0  0  0  2  0  0  0  0  0  0
  190.4690  177.7040  145.1190 N   0  0  0  0  0  2  0  0  0  0  0  0
  191.0920  178.3410  144.0020 C   0  0  0  0  0  3  0  0  0  0  0  0
  191.6120  177.6460  142.9970 C   0  0  0  0  0  2  0  0  0  0  0  0
  2  1  1  0  0  0  0
  2 10  1  0  0  0  0
  3 10  1  0  0  0  0
  4  9  1  0  0  0  0
  5  7  1  0  0  0  0
  5  3  1  0  0  0  0
  6  4  2  0  0  0  0
  6  7  1  0  0  0  0
  7  2  2  0  0  0  0
  9 16  1  0  0  0  0
  9  1  2  0  0  0  0
 10  8  1  6  0  0  0
 11 14  2  0  0  0  0
 12 14  1  0  0  0  0
 13 11  1  0  0  0  0
 14  5  1  0  0  0  0
 15 13  1  0  0  0  0
 15 12  2  0  0  0  0
 16 26  1  6  0  0  0
 16 25  1  0  0  0  0
 17 23  1  0  0  0  0
 18 17  1  0  0  0  0
 19 20  2  0  0  0  0
 20 22  1  0  0  0  0
 20 16  1  0  0  0  0
 21 17  2  0  0  0  0
 21 19  1  0  0  0  0
 23 22  2  0  0  0  0
 25 24  1  0  0  0  0
 27 26  1  0  0  0  0
 28 27  1  0  0  0  0
 29 28  2  0  0  0  0
M  END
>  <MODEL>
2

>  <REMARK>
 VINA RESULT:      -6.9      2.855      7.567
  Name = 
  7 active torsions:
  status: ('A' for Active; 'I' for Inactive)
    1  A    between atoms: C_1  and  N_14
    2  A    between atoms: N_11  and  C_24
    3  A    between atoms: N_14  and  C_22
    4  A    between atoms: C_15  and  C_19
    5  A    between atoms: C_17  and  C_19
    6  A    between atoms: C_19  and  C_22
    7  A    between atoms: C_19  and  C_26
                            x       y       z     vdW  Elec       q    Type
                         _______ _______ _______ _____ _____    ______ ____

>  <TORSDO>
F 7

$$$$
=
 OpenBabel11042416293D

 29 32  0  0  1  0  0  0  0  0999 V2000
  187.6250  176.8340  145.8630 C   0  0  0  0  0  3  0  0  0  0  0  0
  186.4480  177.3750  145.3490 C   0  0  0  0  0  0  0  0  0  0  0  0
  184.3000  178.3370  144.9860 C   0  0  0  0  0  2  0  0  0  0  0  0
  188.3070  176.3150  143.5850 C   0  0  0  0  0  3  0  0  0  0  0  0
  184.9320  177.9520  143.7250 N   0  0  0  0  0  0  0  0  0  0  0  0
  187.1100  176.8560  143.0920 C   0  0  0  0  0  3  0  0  0  0  0  0
  186.1990  177.3840  144.0060 C   0  0  0  0  0  0  0  0  0  0  0  0
  185.7460  179.2290  146.8170 C   0  0  0  0  0  1  0  0  0  0  0  0
  188.5920  176.3120  144.9730 C   0  0  0  0  0  0  0  0  0  0  0  0
  185.3050  177.9670  146.1000 C   0  0  2  0  0  3  0  0  0  0  0  0
  185.0410  178.2720  141.3060 N   0  0  0  0  0  0  0  0  0  0  0  0
  183.0030  178.1670  142.2250 N   0  0  0  0  0  0  0  0  0  0  0  0
  184.1560  178.4090  140.3330 N   0  0  0  0  0  2  0  0  0  0  0  0
  184.3320  178.1290  142.4360 C   0  0  0  0  0  0  0  0  0  0  0  0
  182.9300  178.3450  140.8900 C   0  0  0  0  0  3  0  0  0  0  0  0
  189.8620  175.6720  145.5200 C   0  0  2  0  0  0  0  0  0  0  0  0
  192.9010  175.4140  142.4270 C   0  0  0  0  0  0  0  0  0  0  0  0
  193.8830  175.3370  141.4490 O   0  0  0  0  0  1  0  0  0  0  0  0
  191.4330  176.7360  143.8230 C   0  0  0  0  0  3  0  0  0  0  0  0
  190.8930  175.5680  144.3920 C   0  0  0  0  0  0  0  0  0  0  0  0
  192.4240  176.6580  142.8420 C   0  0  0  0  0  3  0  0  0  0  0  0
  191.4030  174.3220  143.9820 C   0  0  0  0  0  3  0  0  0  0  0  0
  192.3950  174.2460  143.0000 C   0  0  0  0  0  3  0  0  0  0  0  0
  188.9690  174.3250  147.3510 O   0  0  0  0  0  1  0  0  0  0  0  0
  189.5470  174.2660  146.0800 C   0  0  0  0  0  2  0  0  0  0  0  0
  190.3400  176.5700  146.6780 C   0  0  0  0  0  2  0  0  0  0  0  0
  191.5290  176.0390  147.3370 N   0  0  0  0  0  2  0  0  0  0  0  0
  192.8210  176.6390  147.2170 C   0  0  0  0  0  3  0  0  0  0  0  0
  193.8030  176.0600  146.5350 C   0  0  0  0  0  2  0  0  0  0  0  0
  2  1  1  0  0  0  0
  2 10  1  0  0  0  0
  3 10  1  0  0  0  0
  4  9  1  0  0  0  0
  5  7  1  0  0  0  0
  5  3  1  0  0  0  0
  6  4  2  0  0  0  0
  6  7  1  0  0  0  0
  7  2  2  0  0  0  0
  9 16  1  0  0  0  0
  9  1  2  0  0  0  0
 10  8  1  6  0  0  0
 11 14  2  0  0  0  0
 12 14  1  0  0  0  0
 13 15  1  0  0  0  0
 13 11  1  0  0  0  0
 14  5  1  0  0  0  0
 15 12  2  0  0  0  0
 16 25  1  1  0  0  0
 16 26  1  0  0  0  0
 17 21  2  0  0  0  0
 17 23  1  0  0  0  0
 18 17  1  0  0  0  0
 19 20  2  0  0  0  0
 20 16  1  0  0  0  0
 21 19  1  0  0  0  0
 22 20  1  0  0  0  0
 23 22  2  0  0  0  0
 25 24  1  0  0  0  0
 26 27  1  0  0  0  0
 28 27  1  0  0  0  0
 29 28  2  0  0  0  0
M  END
>  <MODEL>
3

>  <REMARK>
 VINA RESULT:      -6.9      2.601      7.911
  Name = 
  7 active torsions:
  status: ('A' for Active; 'I' for Inactive)
    1  A    between atoms: C_1  and  N_14
    2  A    between atoms: N_11  and  C_24
    3  A    between atoms: N_14  and  C_22
    4  A    between atoms: C_15  and  C_19
    5  A    between atoms: C_17  and  C_19
    6  A    between atoms: C_19  and  C_22
    7  A    between atoms: C_19  and  C_26
                            x       y       z     vdW  Elec       q    Type
                         _______ _______ _______ _____ _____    ______ ____

>  <TORSDO>
F 7

$$$$
=
 OpenBabel11042416293D

 29 32  0  0  1  0  0  0  0  0999 V2000
  190.6220  176.8510  144.0100 C   0  0  0  0  0  3  0  0  0  0  0  0
  189.2930  177.2650  143.9340 C   0  0  0  0  0  0  0  0  0  0  0  0
  187.1600  178.1160  143.3070 C   0  0  0  0  0  2  0  0  0  0  0  0
  190.2800  176.4020  146.3780 C   0  0  0  0  0  3  0  0  0  0  0  0
  187.1930  177.7500  144.7220 N   0  0  0  0  0  0  0  0  0  0  0  0
  188.9480  176.8340  146.2790 C   0  0  0  0  0  3  0  0  0  0  0  0
  188.4840  177.2580  145.0340 C   0  0  0  0  0  0  0  0  0  0  0  0
  188.4420  176.7150  141.6850 C   0  0  0  0  0  1  0  0  0  0  0  0
  191.1300  176.3850  145.2450 C   0  0  0  0  0  0  0  0  0  0  0  0
  188.5620  177.7920  142.7470 C   0  0  2  0  0  3  0  0  0  0  0  0
  185.2780  176.8700  145.9580 N   0  0  0  0  0  0  0  0  0  0  0  0
  185.7320  179.0480  146.2060 N   0  0  0  0  0  2  0  0  0  0  0  0
  184.3810  177.3740  146.7890 N   0  0  0  0  0  0  0  0  0  0  0  0
  186.0820  177.8890  145.6170 C   0  0  0  0  0  0  0  0  0  0  0  0
  184.6580  178.6850  146.9350 C   0  0  0  0  0  3  0  0  0  0  0  0
  192.5940  175.9760  145.3590 C   0  0  2  0  0  0  0  0  0  0  0  0
  192.8820  171.7150  144.5640 C   0  0  0  0  0  0  0  0  0  0  0  0
  192.9680  170.3510  144.3260 O   0  0  0  0  0  1  0  0  0  0  0  0
  193.6960  173.7030  145.6760 C   0  0  0  0  0  3  0  0  0  0  0  0
  192.7210  174.4860  145.0300 C   0  0  0  0  0  0  0  0  0  0  0  0
  193.7800  172.3290  145.4380 C   0  0  0  0  0  3  0  0  0  0  0  0
  191.8070  173.8470  144.1720 C   0  0  0  0  0  3  0  0  0  0  0  0
  191.8920  172.4720  143.9350 C   0  0  0  0  0  3  0  0  0  0  0  0
  194.1950  177.1280  146.7990 O   0  0  0  0  0  1  0  0  0  0  0  0
  193.1100  176.2470  146.7910 C   0  0  0  0  0  2  0  0  0  0  0  0
  193.3750  176.8690  144.3740 C   0  0  0  0  0  2  0  0  0  0  0  0
  194.3340  176.1100  143.5780 N   0  0  0  0  0  2  0  0  0  0  0  0
  195.7480  176.3010  143.6690 C   0  0  0  0  0  3  0  0  0  0  0  0
  196.5730  175.3090  143.9830 C   0  0  0  0  0  2  0  0  0  0  0  0
  1  9  1  0  0  0  0
  2  1  2  0  0  0  0
  2  7  1  0  0  0  0
  3  5  1  0  0  0  0
  5  7  1  0  0  0  0
  5 14  1  0  0  0  0
  6  4  1  0  0  0  0
  7  6  2  0  0  0  0
  9 16  1  0  0  0  0
  9  4  2  0  0  0  0
 10  8  1  6  0  0  0
 10  3  1  0  0  0  0
 10  2  1  0  0  0  0
 11 13  1  0  0  0  0
 12 15  1  0  0  0  0
 13 15  2  0  0  0  0
 14 11  2  0  0  0  0
 14 12  1  0  0  0  0
 16 26  1  6  0  0  0
 16 25  1  0  0  0  0
 17 21  1  0  0  0  0
 18 17  1  0  0  0  0
 20 16  1  0  0  0  0
 20 19  1  0  0  0  0
 21 19  2  0  0  0  0
 22 20  2  0  0  0  0
 23 22  1  0  0  0  0
 23 17  2  0  0  0  0
 25 24  1  0  0  0  0
 27 28  1  0  0  0  0
 27 26  1  0  0  0  0
 28 29  2  0  0  0  0
M  END
>  <MODEL>
4

>  <REMARK>
 VINA RESULT:      -6.7      3.321      8.105
  Name = 
  7 active torsions:
  status: ('A' for Active; 'I' for Inactive)
    1  A    between atoms: C_1  and  N_14
    2  A    between atoms: N_11  and  C_24
    3  A    between atoms: N_14  and  C_22
    4  A    between atoms: C_15  and  C_19
    5  A    between atoms: C_17  and  C_19
    6  A    between atoms: C_19  and  C_22
    7  A    between atoms: C_19  and  C_26
                            x       y       z     vdW  Elec       q    Type
                         _______ _______ _______ _____ _____    ______ ____

>  <TORSDO>
F 7

$$$$
=
 OpenBabel11042416293D

 29 32  0  0  1  0  0  0  0  0999 V2000
  189.6360  176.4050  142.8420 C   0  0  0  0  0  3  0  0  0  0  0  0
  188.4890  177.1790  143.0170 C   0  0  0  0  0  0  0  0  0  0  0  0
  186.6660  178.6990  142.8380 C   0  0  0  0  0  2  0  0  0  0  0  0
  189.3570  175.5900  145.1180 C   0  0  0  0  0  3  0  0  0  0  0  0
  186.6960  178.0550  144.1500 N   0  0  0  0  0  0  0  0  0  0  0  0
  188.2120  176.3860  145.2750 C   0  0  0  0  0  3  0  0  0  0  0  0
  187.8010  177.1700  144.1970 C   0  0  0  0  0  0  0  0  0  0  0  0
  187.3430  177.3630  140.8400 C   0  0  0  0  0  1  0  0  0  0  0  0
  190.0750  175.5730  143.8970 C   0  0  0  0  0  0  0  0  0  0  0  0
  187.8610  178.1210  142.0480 C   0  0  2  0  0  3  0  0  0  0  0  0
  186.1020  178.6960  146.4320 N   0  0  0  0  0  0  0  0  0  0  0  0
  184.4170  178.1910  145.0470 N   0  0  0  0  0  2  0  0  0  0  0  0
  184.9750  178.8320  147.1080 N   0  0  0  0  0  0  0  0  0  0  0  0
  185.7500  178.3100  145.1960 C   0  0  0  0  0  0  0  0  0  0  0  0
  183.9630  178.5280  146.2720 C   0  0  0  0  0  3  0  0  0  0  0  0
  191.3540  174.7580  143.7410 C   0  0  2  0  0  0  0  0  0  0  0  0
  190.6300  171.8580  140.5890 C   0  0  0  0  0  0  0  0  0  0  0  0
  190.3850  170.9380  139.5790 O   0  0  0  0  0  1  0  0  0  0  0  0
  190.1300  172.7410  142.7850 C   0  0  0  0  0  3  0  0  0  0  0  0
  191.1440  173.7070  142.6480 C   0  0  0  0  0  0  0  0  0  0  0  0
  189.8810  171.8190  141.7660 C   0  0  0  0  0  3  0  0  0  0  0  0
  191.8730  173.7490  141.4440 C   0  0  0  0  0  3  0  0  0  0  0  0
  191.6230  172.8260  140.4260 C   0  0  0  0  0  3  0  0  0  0  0  0
  192.8440  173.2610  144.9670 O   0  0  0  0  0  1  0  0  0  0  0  0
  191.7080  174.0670  145.0780 C   0  0  0  0  0  2  0  0  0  0  0  0
  192.4710  175.7620  143.3920 C   0  0  0  0  0  2  0  0  0  0  0  0
  192.7650  176.6700  144.4960 N   0  0  0  0  0  2  0  0  0  0  0  0
  194.0530  176.7610  145.1090 C   0  0  0  0  0  3  0  0  0  0  0  0
  194.2200  176.6180  146.4180 C   0  0  0  0  0  2  0  0  0  0  0  0
  1  2  2  0  0  0  0
  1  9  1  0  0  0  0
  2  7  1  0  0  0  0
  3  5  1  0  0  0  0
  4  6  1  0  0  0  0
  5  7  1  0  0  0  0
  5 14  1  0  0  0  0
  7  6  2  0  0  0  0
  9  4  2  0  0  0  0
 10  8  1  6  0  0  0
 10  3  1  0  0  0  0
 10  2  1  0  0  0  0
 11 13  1  0  0  0  0
 12 14  1  0  0  0  0
 12 15  1  0  0  0  0
 14 11  2  0  0  0  0
 15 13  2  0  0  0  0
 16 26  1  6  0  0  0
 16  9  1  0  0  0  0
 16 25  1  0  0  0  0
 17 21  1  0  0  0  0
 18 17  1  0  0  0  0
 20 19  1  0  0  0  0
 20 16  1  0  0  0  0
 21 19  2  0  0  0  0
 22 20  2  0  0  0  0
 23 17  2  0  0  0  0
 23 22  1  0  0  0  0
 24 25  1  0  0  0  0
 26 27  1  0  0  0  0
 27 28  1  0  0  0  0
 28 29  2  0  0  0  0
M  END
>  <MODEL>
5

>  <REMARK>
 VINA RESULT:      -6.5      3.236      7.855
  Name = 
  7 active torsions:
  status: ('A' for Active; 'I' for Inactive)
    1  A    between atoms: C_1  and  N_14
    2  A    between atoms: N_11  and  C_24
    3  A    between atoms: N_14  and  C_22
    4  A    between atoms: C_15  and  C_19
    5  A    between atoms: C_17  and  C_19
    6  A    between atoms: C_19  and  C_22
    7  A    between atoms: C_19  and  C_26
                            x       y       z     vdW  Elec       q    Type
                         _______ _______ _______ _____ _____    ______ ____

>  <TORSDO>
F 7

$$$$
=
 OpenBabel11042416293D

 29 32  0  0  1  0  0  0  0  0999 V2000
  190.6190  175.9270  144.0120 C   0  0  0  0  0  3  0  0  0  0  0  0
  191.0690  175.2560  142.8760 C   0  0  0  0  0  0  0  0  0  0  0  0
  192.2820  174.3990  141.0150 C   0  0  0  0  0  2  0  0  0  0  0  0
  188.4270  174.9320  143.6540 C   0  0  0  0  0  3  0  0  0  0  0  0
  190.9030  173.9110  141.0240 N   0  0  0  0  0  0  0  0  0  0  0  0
  188.9000  174.2760  142.5070 C   0  0  0  0  0  3  0  0  0  0  0  0
  190.2350  174.4580  142.1470 C   0  0  0  0  0  0  0  0  0  0  0  0
  193.4510  174.7020  143.2010 C   0  0  0  0  0  1  0  0  0  0  0  0
  189.2810  175.7510  144.4330 C   0  0  0  0  0  0  0  0  0  0  0  0
  192.4250  175.3040  142.2590 C   0  0  2  0  0  3  0  0  0  0  0  0
  190.7070  171.7420  139.9170 N   0  0  0  0  0  0  0  0  0  0  0  0
  189.4290  173.4030  139.1300 N   0  0  0  0  0  0  0  0  0  0  0  0
  189.9990  171.2590  138.9110 N   0  0  0  0  0  2  0  0  0  0  0  0
  190.3530  173.0310  140.0350 C   0  0  0  0  0  0  0  0  0  0  0  0
  189.2310  172.2610  138.4390 C   0  0  0  0  0  3  0  0  0  0  0  0
  188.7580  176.5150  145.6440 C   0  0  2  0  0  0  0  0  0  0  0  0
  184.9280  178.3730  144.7780 C   0  0  0  0  0  0  0  0  0  0  0  0
  183.7050  178.9750  144.5160 O   0  0  0  0  0  1  0  0  0  0  0  0
  186.2600  176.7990  146.0430 C   0  0  0  0  0  3  0  0  0  0  0  0
  187.4030  177.1350  145.2940 C   0  0  0  0  0  0  0  0  0  0  0  0
  185.0310  177.4070  145.7810 C   0  0  0  0  0  3  0  0  0  0  0  0
  187.2880  178.1290  144.3040 C   0  0  0  0  0  3  0  0  0  0  0  0
  186.0580  178.7380  144.0430 C   0  0  0  0  0  3  0  0  0  0  0  0
  189.5450  178.0770  147.3480 O   0  0  0  0  0  1  0  0  0  0  0  0
  189.7590  177.6230  146.0440 C   0  0  0  0  0  2  0  0  0  0  0  0
  188.6630  175.4950  146.7960 C   0  0  0  0  0  2  0  0  0  0  0  0
  189.8640  174.6740  146.9110 N   0  0  0  0  0  2  0  0  0  0  0  0
  190.9920  175.0480  147.7050 C   0  0  0  0  0  3  0  0  0  0  0  0
  192.2040  175.1890  147.1820 C   0  0  0  0  0  2  0  0  0  0  0  0
  1  9  1  0  0  0  0
  2  1  2  0  0  0  0
  3  5  1  0  0  0  0
  3 10  1  0  0  0  0
  4  9  2  0  0  0  0
  5  7  1  0  0  0  0
  6  4  1  0  0  0  0
  7  6  2  0  0  0  0
  7  2  1  0  0  0  0
  9 16  1  0  0  0  0
 10  2  1  0  0  0  0
 10  8  1  1  0  0  0
 11 14  2  0  0  0  0
 12 14  1  0  0  0  0
 13 11  1  0  0  0  0
 14  5  1  0  0  0  0
 15 13  1  0  0  0  0
 15 12  2  0  0  0  0
 16 25  1  1  0  0  0
 16 26  1  0  0  0  0
 17 21  1  0  0  0  0
 18 17  1  0  0  0  0
 20 16  1  0  0  0  0
 20 19  1  0  0  0  0
 21 19  2  0  0  0  0
 22 20  2  0  0  0  0
 23 22  1  0  0  0  0
 23 17  2  0  0  0  0
 25 24  1  0  0  0  0
 26 27  1  0  0  0  0
 27 28  1  0  0  0  0
 29 28  2  0  0  0  0
M  END
>  <MODEL>
6

>  <REMARK>
 VINA RESULT:      -6.4      3.215      5.488
  Name = 
  7 active torsions:
  status: ('A' for Active; 'I' for Inactive)
    1  A    between atoms: C_1  and  N_14
    2  A    between atoms: N_11  and  C_24
    3  A    between atoms: N_14  and  C_22
    4  A    between atoms: C_15  and  C_19
    5  A    between atoms: C_17  and  C_19
    6  A    between atoms: C_19  and  C_22
    7  A    between atoms: C_19  and  C_26
                            x       y       z     vdW  Elec       q    Type
                         _______ _______ _______ _____ _____    ______ ____

>  <TORSDO>
F 7

$$$$
=
 OpenBabel11042416293D

 29 32  0  0  1  0  0  0  0  0999 V2000
  190.9150  176.0060  143.4800 C   0  0  0  0  0  3  0  0  0  0  0  0
  192.0770  175.2840  143.7490 C   0  0  0  0  0  0  0  0  0  0  0  0
  194.3060  174.4970  144.0380 C   0  0  0  0  0  2  0  0  0  0  0  0
  189.6330  173.9850  143.9280 C   0  0  0  0  0  3  0  0  0  0  0  0
  193.3300  173.4360  144.2790 N   0  0  0  0  0  0  0  0  0  0  0  0
  190.8180  173.2770  144.1830 C   0  0  0  0  0  3  0  0  0  0  0  0
  192.0290  173.9620  144.0870 C   0  0  0  0  0  0  0  0  0  0  0  0
  193.7300  176.8240  144.7390 C   0  0  0  0  0  1  0  0  0  0  0  0
  189.6610  175.3610  143.5930 C   0  0  0  0  0  0  0  0  0  0  0  0
  193.4880  175.7600  143.6850 C   0  0  2  0  0  3  0  0  0  0  0  0
  194.3280  171.7770  145.7690 N   0  0  0  0  0  0  0  0  0  0  0  0
  193.3760  171.0130  143.8920 N   0  0  0  0  0  2  0  0  0  0  0  0
  194.4630  170.4620  145.7590 N   0  0  0  0  0  0  0  0  0  0  0  0
  193.6740  172.0920  144.6410 C   0  0  0  0  0  0  0  0  0  0  0  0
  193.8890  170.0060  144.6280 C   0  0  0  0  0  3  0  0  0  0  0  0
  188.3830  176.1210  143.2550 C   0  0  2  0  0  0  0  0  0  0  0  0
  186.5360  177.3410  146.9920 C   0  0  0  0  0  0  0  0  0  0  0  0
  185.9430  177.7150  148.1900 O   0  0  0  0  0  1  0  0  0  0  0  0
  186.3540  176.4230  144.7610 C   0  0  0  0  0  3  0  0  0  0  0  0
  187.7340  176.6050  144.5540 C   0  0  0  0  0  0  0  0  0  0  0  0
  185.7590  176.7970  145.9690 C   0  0  0  0  0  3  0  0  0  0  0  0
  188.5070  177.1300  145.6060 C   0  0  0  0  0  3  0  0  0  0  0  0
  187.9110  177.5030  146.8140 C   0  0  0  0  0  3  0  0  0  0  0  0
  187.8440  174.9420  141.1850 O   0  0  0  0  0  1  0  0  0  0  0  0
  187.4070  175.2000  142.4870 C   0  0  0  0  0  2  0  0  0  0  0  0
  188.7970  177.2830  142.3310 C   0  0  0  0  0  2  0  0  0  0  0  0
  187.7780  178.3260  142.2600 N   0  0  0  0  0  2  0  0  0  0  0  0
  186.6940  178.2950  141.3300 C   0  0  0  0  0  3  0  0  0  0  0  0
  185.4270  178.3250  141.7270 C   0  0  0  0  0  2  0  0  0  0  0  0
  1  9  2  0  0  0  0
  1  2  1  0  0  0  0
  2  7  2  0  0  0  0
  3  5  1  0  0  0  0
  4  6  2  0  0  0  0
  5 14  1  0  0  0  0
  7  6  1  0  0  0  0
  7  5  1  0  0  0  0
  9  4  1  0  0  0  0
 10  2  1  0  0  0  0
 10  3  1  0  0  0  0
 10  8  1  1  0  0  0
 12 15  1  0  0  0  0
 12 14  1  0  0  0  0
 13 11  1  0  0  0  0
 14 11  2  0  0  0  0
 15 13  2  0  0  0  0
 16 26  1  6  0  0  0
 16  9  1  0  0  0  0
 16 20  1  0  0  0  0
 17 18  1  0  0  0  0
 19 21  1  0  0  0  0
 20 19  2  0  0  0  0
 20 22  1  0  0  0  0
 21 17  2  0  0  0  0
 22 23  2  0  0  0  0
 23 17  1  0  0  0  0
 24 25  1  0  0  0  0
 25 16  1  0  0  0  0
 27 26  1  0  0  0  0
 28 29  2  0  0  0  0
 28 27  1  0  0  0  0
M  END
>  <MODEL>
7

>  <REMARK>
 VINA RESULT:      -6.3      2.457      3.148
  Name = 
  7 active torsions:
  status: ('A' for Active; 'I' for Inactive)
    1  A    between atoms: C_1  and  N_14
    2  A    between atoms: N_11  and  C_24
    3  A    between atoms: N_14  and  C_22
    4  A    between atoms: C_15  and  C_19
    5  A    between atoms: C_17  and  C_19
    6  A    between atoms: C_19  and  C_22
    7  A    between atoms: C_19  and  C_26
                            x       y       z     vdW  Elec       q    Type
                         _______ _______ _______ _____ _____    ______ ____

>  <TORSDO>
F 7

$$$$
=
 OpenBabel11042416293D

 29 32  0  0  1  0  0  0  0  0999 V2000
  190.2760  175.5870  142.9420 C   0  0  0  0  0  3  0  0  0  0  0  0
  189.1690  176.3680  143.2720 C   0  0  0  0  0  0  0  0  0  0  0  0
  187.3750  177.9310  143.3620 C   0  0  0  0  0  2  0  0  0  0  0  0
  190.1820  174.6240  145.1750 C   0  0  0  0  0  3  0  0  0  0  0  0
  187.5070  177.1980  144.6200 N   0  0  0  0  0  0  0  0  0  0  0  0
  189.0760  175.4280  145.4880 C   0  0  0  0  0  3  0  0  0  0  0  0
  188.5900  176.2910  144.5060 C   0  0  0  0  0  0  0  0  0  0  0  0
  187.8370  176.7220  141.2260 C   0  0  0  0  0  1  0  0  0  0  0  0
  190.7870  174.6760  143.8950 C   0  0  0  0  0  0  0  0  0  0  0  0
  188.4800  177.3860  142.4290 C   0  0  2  0  0  3  0  0  0  0  0  0
  185.3550  177.1060  145.7710 N   0  0  0  0  0  0  0  0  0  0  0  0
  187.0960  177.8950  146.9360 N   0  0  0  0  0  2  0  0  0  0  0  0
  184.9190  177.4200  146.9790 N   0  0  0  0  0  0  0  0  0  0  0  0
  186.6640  177.3980  145.7620 C   0  0  0  0  0  0  0  0  0  0  0  0
  185.9700  177.8940  147.6770 C   0  0  0  0  0  3  0  0  0  0  0  0
  192.0260  173.8500  143.5690 C   0  0  2  0  0  0  0  0  0  0  0  0
  195.5630  176.3710  143.5230 C   0  0  0  0  0  0  0  0  0  0  0  0
  196.7010  177.1660  143.5190 O   0  0  0  0  0  1  0  0  0  0  0  0
  193.6010  175.5280  144.6580 C   0  0  0  0  0  3  0  0  0  0  0  0
  193.2440  174.7770  143.5220 C   0  0  0  0  0  0  0  0  0  0  0  0
  194.7480  176.3250  144.6540 C   0  0  0  0  0  3  0  0  0  0  0  0
  194.0910  174.8140  142.4000 C   0  0  0  0  0  3  0  0  0  0  0  0
  195.2380  175.6120  142.3970 C   0  0  0  0  0  3  0  0  0  0  0  0
  190.7400  172.2900  142.1990 O   0  0  0  0  0  1  0  0  0  0  0  0
  191.8470  173.1420  142.2060 C   0  0  0  0  0  2  0  0  0  0  0  0
  192.1380  172.7790  144.6720 C   0  0  0  0  0  2  0  0  0  0  0  0
  193.2790  171.8910  144.4680 N   0  0  0  0  0  2  0  0  0  0  0  0
  194.3470  171.7650  145.4090 C   0  0  0  0  0  3  0  0  0  0  0  0
  195.5190  172.3640  145.2270 C   0  0  0  0  0  2  0  0  0  0  0  0
  1  2  2  0  0  0  0
  1  9  1  0  0  0  0
  2  7  1  0  0  0  0
  3  5  1  0  0  0  0
  4  6  1  0  0  0  0
  5 14  1  0  0  0  0
  7  5  1  0  0  0  0
  7  6  2  0  0  0  0
  9  4  2  0  0  0  0
 10  8  1  6  0  0  0
 10  2  1  0  0  0  0
 10  3  1  0  0  0  0
 11 13  1  0  0  0  0
 12 15  1  0  0  0  0
 13 15  2  0  0  0  0
 14 11  2  0  0  0  0
 14 12  1  0  0  0  0
 16 25  1  6  0  0  0
 16  9  1  0  0  0  0
 16 26  1  0  0  0  0
 17 21  1  0  0  0  0
 18 17  1  0  0  0  0
 20 16  1  0  0  0  0
 20 19  1  0  0  0  0
 21 19  2  0  0  0  0
 22 20  2  0  0  0  0
 23 22  1  0  0  0  0
 23 17  2  0  0  0  0
 24 25  1  0  0  0  0
 27 26  1  0  0  0  0
 27 28  1  0  0  0  0
 29 28  2  0  0  0  0
M  END
>  <MODEL>
8

>  <REMARK>
 VINA RESULT:      -6.3      3.352      8.095
  Name = 
  7 active torsions:
  status: ('A' for Active; 'I' for Inactive)
    1  A    between atoms: C_1  and  N_14
    2  A    between atoms: N_11  and  C_24
    3  A    between atoms: N_14  and  C_22
    4  A    between atoms: C_15  and  C_19
    5  A    between atoms: C_17  and  C_19
    6  A    between atoms: C_19  and  C_22
    7  A    between atoms: C_19  and  C_26
                            x       y       z     vdW  Elec       q    Type
                         _______ _______ _______ _____ _____    ______ ____

>  <TORSDO>
F 7

$$$$
=
 OpenBabel11042416293D

 29 32  0  0  1  0  0  0  0  0999 V2000
  188.0430  175.7990  145.5060 C   0  0  0  0  0  3  0  0  0  0  0  0
  186.9530  176.5580  145.0830 C   0  0  0  0  0  0  0  0  0  0  0  0
  184.9690  177.8590  144.8800 C   0  0  0  0  0  2  0  0  0  0  0  0
  188.6050  175.4180  143.1690 C   0  0  0  0  0  3  0  0  0  0  0  0
  185.5170  177.5140  143.5690 N   0  0  0  0  0  0  0  0  0  0  0  0
  187.4960  176.1770  142.7670 C   0  0  0  0  0  3  0  0  0  0  0  0
  186.6880  176.7390  143.7550 C   0  0  0  0  0  0  0  0  0  0  0  0
  186.5590  178.3360  146.7460 C   0  0  0  0  0  1  0  0  0  0  0  0
  188.9070  175.2330  144.5410 C   0  0  0  0  0  0  0  0  0  0  0  0
  185.9230  177.2330  145.9220 C   0  0  2  0  0  3  0  0  0  0  0  0
  185.6520  178.2140  141.2330 N   0  0  0  0  0  0  0  0  0  0  0  0
  183.6050  178.0080  142.1140 N   0  0  0  0  0  0  0  0  0  0  0  0
  184.7780  178.5230  140.2910 N   0  0  0  0  0  2  0  0  0  0  0  0
  184.9310  177.9080  142.3220 C   0  0  0  0  0  0  0  0  0  0  0  0
  183.5470  178.3990  140.8250 C   0  0  0  0  0  3  0  0  0  0  0  0
  190.0750  174.3590  144.9840 C   0  0  2  0  0  0  0  0  0  0  0  0
  193.7810  175.8940  143.3170 C   0  0  0  0  0  0  0  0  0  0  0  0
  194.9690  176.3900  142.7990 O   0  0  0  0  0  1  0  0  0  0  0  0
  191.5660  176.2730  144.2140 C   0  0  0  0  0  3  0  0  0  0  0  0
  191.3620  174.8860  144.3440 C   0  0  0  0  0  0  0  0  0  0  0  0
  192.7640  176.7710  143.6950 C   0  0  0  0  0  3  0  0  0  0  0  0
  192.4080  174.0170  143.9820 C   0  0  0  0  0  3  0  0  0  0  0  0
  193.6050  174.5170  143.4650 C   0  0  0  0  0  3  0  0  0  0  0  0
  189.3390  172.1150  145.6040 O   0  0  0  0  0  1  0  0  0  0  0  0
  189.8330  172.8940  144.5550 C   0  0  0  0  0  2  0  0  0  0  0  0
  190.1090  174.4240  146.5240 C   0  0  0  0  0  2  0  0  0  0  0  0
  191.3370  175.0320  147.0270 N   0  0  0  0  0  2  0  0  0  0  0  0
  191.3470  176.1720  147.8890 C   0  0  0  0  0  3  0  0  0  0  0  0
  190.5100  177.1890  147.7200 C   0  0  0  0  0  2  0  0  0  0  0  0
  2  1  1  0  0  0  0
  2 10  1  0  0  0  0
  3 10  1  0  0  0  0
  4  9  1  0  0  0  0
  5  7  1  0  0  0  0
  5  3  1  0  0  0  0
  6  4  2  0  0  0  0
  6  7  1  0  0  0  0
  7  2  2  0  0  0  0
  9 16  1  0  0  0  0
  9  1  2  0  0  0  0
 10  8  1  1  0  0  0
 11 14  2  0  0  0  0
 12 14  1  0  0  0  0
 13 15  1  0  0  0  0
 13 11  1  0  0  0  0
 14  5  1  0  0  0  0
 15 12  2  0  0  0  0
 16 25  1  6  0  0  0
 16 26  1  0  0  0  0
 17 23  2  0  0  0  0
 17 21  1  0  0  0  0
 18 17  1  0  0  0  0
 19 20  1  0  0  0  0
 20 16  1  0  0  0  0
 21 19  2  0  0  0  0
 22 20  2  0  0  0  0
 23 22  1  0  0  0  0
 25 24  1  0  0  0  0
 26 27  1  0  0  0  0
 27 28  1  0  0  0  0
 29 28  2  0  0  0  0
M  END
>  <MODEL>
9

>  <REMARK>
 VINA RESULT:      -6.3      2.782      7.636
  Name = 
  7 active torsions:
  status: ('A' for Active; 'I' for Inactive)
    1  A    between atoms: C_1  and  N_14
    2  A    between atoms: N_11  and  C_24
    3  A    between atoms: N_14  and  C_22
    4  A    between atoms: C_15  and  C_19
    5  A    between atoms: C_17  and  C_19
    6  A    between atoms: C_19  and  C_22
    7  A    between atoms: C_19  and  C_26
                            x       y       z     vdW  Elec       q    Type
                         _______ _______ _______ _____ _____    ______ ____

>  <TORSDO>
F 7

$$$$
