=
 OpenBabel11042417283D

 29 31  0  0  1  0  0  0  0  0999 V2000
  187.1460  176.8670  145.0670 C   0  0  1  0  0  3  0  0  0  0  0  0
  190.1920  176.2840  145.2230 C   0  0  0  0  0  0  0  0  0  0  0  0
  185.9360  177.1810  147.1280 C   0  0  0  0  0  2  0  0  0  0  0  0
  185.4900  178.0190  143.5410 C   0  0  0  0  0  0  0  0  0  0  0  0
  189.6020  177.3430  144.4620 N   0  0  0  0  0  2  0  0  0  0  0  0
  187.3410  177.1460  146.5450 C   0  0  0  0  0  2  0  0  0  0  0  0
  187.8570  178.2120  143.1530 N   0  0  0  0  0  0  0  0  0  0  0  0
  189.5120  175.2740  145.5540 O   0  0  0  0  0  0  0  0  0  0  0  0
  186.4940  178.4340  142.7630 C   0  0  0  0  0  3  0  0  0  0  0  0
  191.5780  176.3650  145.5660 N   0  0  0  0  0  2  0  0  0  0  0  0
  185.8090  177.3640  144.7740 N   0  0  0  0  0  0  0  0  0  0  0  0
  185.0200  177.5560  145.9750 C   0  0  0  0  0  2  0  0  0  0  0  0
  188.2030  177.5280  144.2040 C   0  0  0  0  0  0  0  0  0  0  0  0
  192.3080  175.3440  146.3100 C   0  0  1  0  0  0  0  0  0  0  0  0
  191.6810  175.1240  147.5400 O   0  0  0  0  0  1  0  0  0  0  0  0
  192.3310  174.0490  145.5110 C   0  0  0  0  0  1  0  0  0  0  0  0
  193.7360  175.8420  146.5340 C   0  0  0  0  0  2  0  0  0  0  0  0
  194.9400  177.8550  145.7370 C   0  0  0  0  0  1  0  0  0  0  0  0
  195.3760  175.6990  144.7340 N   0  0  0  0  0  1  0  0  0  0  0  0
  194.3380  176.5330  145.3150 C   0  0  1  0  0  3  0  0  0  0  0  0
  183.6060  178.1090  141.9470 C   0  0  0  0  0  3  0  0  0  0  0  0
  184.0820  178.2730  143.1810 C   0  0  0  0  0  3  0  0  0  0  0  0
  179.5150  178.8940  140.9990 C   0  0  0  0  0  0  0  0  0  0  0  0
  181.6610  177.9680  140.3660 C   0  0  0  0  0  3  0  0  0  0  0  0
  180.0510  179.2960  142.2260 C   0  0  0  0  0  3  0  0  0  0  0  0
  180.3200  178.2310  140.0690 C   0  0  0  0  0  3  0  0  0  0  0  0
  182.2030  178.3670  141.5980 C   0  0  0  0  0  0  0  0  0  0  0  0
  181.3910  179.0330  142.5240 C   0  0  0  0  0  3  0  0  0  0  0  0
  178.1520  179.1610  140.6970 N   0  0  0  0  0  1  0  0  0  0  0  0
  1  6  1  1  0  0  0
  2  8  2  0  0  0  0
  2 10  1  0  0  0  0
  4 11  1  0  0  0  0
  5  2  1  0  0  0  0
  6  3  1  0  0  0  0
  7 13  2  0  0  0  0
  9  7  1  0  0  0  0
  9  4  2  0  0  0  0
 10 14  1  0  0  0  0
 11  1  1  0  0  0  0
 11 12  1  0  0  0  0
 12  3  1  0  0  0  0
 13  5  1  0  0  0  0
 13  1  1  0  0  0  0
 14 16  1  6  0  0  0
 14 17  1  0  0  0  0
 14 15  1  0  0  0  0
 19 20  1  0  0  0  0
 20 18  1  1  0  0  0
 20 17  1  0  0  0  0
 21 22  2  0  0  0  0
 22  4  1  0  0  0  0
 23 25  1  0  0  0  0
 24 27  2  0  0  0  0
 25 28  2  0  0  0  0
 26 24  1  0  0  0  0
 26 23  2  0  0  0  0
 27 21  1  0  0  0  0
 27 28  1  0  0  0  0
 29 23  1  0  0  0  0
M  END
>  <MODEL>
1

>  <REMARK>
 VINA RESULT:      -7.3      0.000      0.000
  Name = 
  5 active torsions:
  status: ('A' for Active; 'I' for Inactive)
    1  A    between atoms: C_2  and  N_19
    2  A    between atoms: C_2  and  C_25
    3  A    between atoms: C_9  and  C_20
    4  A    between atoms: C_10  and  C_13
    5  A    between atoms: C_23  and  C_25
                            x       y       z     vdW  Elec       q    Type
                         _______ _______ _______ _____ _____    ______ ____

>  <TORSDO>
F 5

$$$$
=
 OpenBabel11042417283D

 29 31  0  0  1  0  0  0  0  0999 V2000
  184.8140  177.8180  142.2370 C   0  0  1  0  0  3  0  0  0  0  0  0
  181.8150  178.6190  142.1430 C   0  0  0  0  0  0  0  0  0  0  0  0
  186.0760  177.8730  140.1850 C   0  0  0  0  0  2  0  0  0  0  0  0
  186.7780  177.9230  143.8280 C   0  0  0  0  0  0  0  0  0  0  0  0
  182.7890  179.2050  143.0120 N   0  0  0  0  0  2  0  0  0  0  0  0
  184.7820  178.3590  140.8210 C   0  0  0  0  0  2  0  0  0  0  0  0
  184.7150  179.0500  144.3460 N   0  0  0  0  0  0  0  0  0  0  0  0
  182.0010  177.4740  141.6480 O   0  0  0  0  0  0  0  0  0  0  0  0
  186.0350  178.6120  144.6990 C   0  0  0  0  0  3  0  0  0  0  0  0
  180.6040  179.3320  141.8780 N   0  0  0  0  0  2  0  0  0  0  0  0
  186.2290  177.6490  142.5330 N   0  0  0  0  0  0  0  0  0  0  0  0
  187.0440  177.6540  141.3350 C   0  0  0  0  0  2  0  0  0  0  0  0
  184.1280  178.7360  143.2290 C   0  0  0  0  0  0  0  0  0  0  0  0
  179.5190  178.8370  141.0360 C   0  0  1  0  0  0  0  0  0  0  0  0
  180.0490  178.3010  139.8590 O   0  0  0  0  0  1  0  0  0  0  0  0
  178.7440  177.7610  141.7840 C   0  0  0  0  0  1  0  0  0  0  0  0
  178.5950  180.0090  140.7070 C   0  0  0  0  0  2  0  0  0  0  0  0
  177.7550  180.6310  138.4600 C   0  0  0  0  0  1  0  0  0  0  0  0
  179.2630  182.1020  139.6470 N   0  0  0  0  0  1  0  0  0  0  0  0
  178.9420  180.7080  139.3960 C   0  0  1  0  0  3  0  0  0  0  0  0
  188.6380  177.5010  145.3950 C   0  0  0  0  0  3  0  0  0  0  0  0
  188.1520  177.4980  144.1540 C   0  0  0  0  0  3  0  0  0  0  0  0
  192.6470  176.2860  146.2380 C   0  0  0  0  0  0  0  0  0  0  0  0
  190.3740  176.6440  146.9940 C   0  0  0  0  0  3  0  0  0  0  0  0
  192.2890  176.7200  144.9580 C   0  0  0  0  0  3  0  0  0  0  0  0
  191.6900  176.2490  147.2550 C   0  0  0  0  0  3  0  0  0  0  0  0
  190.0100  177.0780  145.7090 C   0  0  0  0  0  0  0  0  0  0  0  0
  190.9730  177.1150  144.6950 C   0  0  0  0  0  3  0  0  0  0  0  0
  193.9840  175.8840  146.5040 N   0  0  0  0  0  1  0  0  0  0  0  0
  1  6  1  6  0  0  0
  1 11  1  0  0  0  0
  1 13  1  0  0  0  0
  2  5  1  0  0  0  0
  3  6  1  0  0  0  0
  3 12  1  0  0  0  0
  4 22  1  0  0  0  0
  4  9  2  0  0  0  0
  5 13  1  0  0  0  0
  7  9  1  0  0  0  0
  8  2  2  0  0  0  0
 10  2  1  0  0  0  0
 11  4  1  0  0  0  0
 12 11  1  0  0  0  0
 13  7  2  0  0  0  0
 14 16  1  1  0  0  0
 14 10  1  0  0  0  0
 15 14  1  0  0  0  0
 17 14  1  0  0  0  0
 20 18  1  6  0  0  0
 20 19  1  0  0  0  0
 20 17  1  0  0  0  0
 21 27  1  0  0  0  0
 22 21  2  0  0  0  0
 23 29  1  0  0  0  0
 23 26  1  0  0  0  0
 24 26  2  0  0  0  0
 25 23  2  0  0  0  0
 27 24  1  0  0  0  0
 28 25  1  0  0  0  0
 28 27  2  0  0  0  0
M  END
>  <MODEL>
2

>  <REMARK>
 VINA RESULT:      -7.2      3.273     11.154
  Name = 
  5 active torsions:
  status: ('A' for Active; 'I' for Inactive)
    1  A    between atoms: C_2  and  N_19
    2  A    between atoms: C_2  and  C_25
    3  A    between atoms: C_9  and  C_20
    4  A    between atoms: C_10  and  C_13
    5  A    between atoms: C_23  and  C_25
                            x       y       z     vdW  Elec       q    Type
                         _______ _______ _______ _____ _____    ______ ____

>  <TORSDO>
F 5

$$$$
=
 OpenBabel11042417283D

 29 31  0  0  1  0  0  0  0  0999 V2000
  189.9370  176.5260  144.8830 C   0  0  1  0  0  3  0  0  0  0  0  0
  187.0810  177.6320  145.3980 C   0  0  0  0  0  0  0  0  0  0  0  0
  191.4140  177.7930  143.4600 C   0  0  0  0  0  2  0  0  0  0  0  0
  191.7140  175.1770  146.0750 C   0  0  0  0  0  0  0  0  0  0  0  0
  188.0160  177.2800  146.4220 N   0  0  0  0  0  2  0  0  0  0  0  0
  190.1240  177.8970  144.2610 C   0  0  0  0  0  2  0  0  0  0  0  0
  189.7540  175.9340  147.2480 N   0  0  0  0  0  0  0  0  0  0  0  0
  187.1850  177.1470  144.2380 O   0  0  0  0  0  0  0  0  0  0  0  0
  190.9670  175.1700  147.1820 C   0  0  0  0  0  3  0  0  0  0  0  0
  185.9980  178.5100  145.7190 N   0  0  0  0  0  2  0  0  0  0  0  0
  191.2820  175.9750  144.9660 N   0  0  0  0  0  0  0  0  0  0  0  0
  192.2180  176.6830  144.1150 C   0  0  0  0  0  2  0  0  0  0  0  0
  189.2590  176.5870  146.2380 C   0  0  0  0  0  0  0  0  0  0  0  0
  184.9610  178.9230  144.7790 C   0  0  1  0  0  0  0  0  0  0  0  0
  183.7340  179.0050  145.4430 O   0  0  0  0  0  1  0  0  0  0  0  0
  185.3160  180.2820  144.1940 C   0  0  0  0  0  1  0  0  0  0  0  0
  184.8830  177.8810  143.6630 C   0  0  0  0  0  2  0  0  0  0  0  0
  185.4610  177.8350  141.2550 C   0  0  0  0  0  1  0  0  0  0  0  0
  183.1790  178.2280  141.9520 N   0  0  0  0  0  1  0  0  0  0  0  0
  184.5690  178.4770  142.2950 C   0  0  1  0  0  3  0  0  0  0  0  0
  193.0720  173.1890  145.5270 C   0  0  0  0  0  3  0  0  0  0  0  0
  192.9850  174.4330  145.9990 C   0  0  0  0  0  3  0  0  0  0  0  0
  196.7310  170.9910  145.3400 C   0  0  0  0  0  0  0  0  0  0  0  0
  195.5590  173.1050  145.1940 C   0  0  0  0  0  3  0  0  0  0  0  0
  195.5220  170.3390  145.6010 C   0  0  0  0  0  3  0  0  0  0  0  0
  196.7490  172.3730  145.1360 C   0  0  0  0  0  3  0  0  0  0  0  0
  194.3430  172.4550  145.4580 C   0  0  0  0  0  0  0  0  0  0  0  0
  194.3310  171.0700  145.6600 C   0  0  0  0  0  3  0  0  0  0  0  0
  197.9410  170.2470  145.2820 N   0  0  0  0  0  1  0  0  0  0  0  0
  1  6  1  1  0  0  0
  1 11  1  0  0  0  0
  1 13  1  0  0  0  0
  2 10  1  0  0  0  0
  2  5  1  0  0  0  0
  3 12  1  0  0  0  0
  3  6  1  0  0  0  0
  4  9  2  0  0  0  0
  8  2  2  0  0  0  0
  9  7  1  0  0  0  0
 11  4  1  0  0  0  0
 12 11  1  0  0  0  0
 13  5  1  0  0  0  0
 13  7  2  0  0  0  0
 14 16  1  6  0  0  0
 14 15  1  0  0  0  0
 14 10  1  0  0  0  0
 17 14  1  0  0  0  0
 19 20  1  0  0  0  0
 20 18  1  6  0  0  0
 20 17  1  0  0  0  0
 21 22  2  0  0  0  0
 22  4  1  0  0  0  0
 23 25  1  0  0  0  0
 24 27  2  0  0  0  0
 25 28  2  0  0  0  0
 26 24  1  0  0  0  0
 26 23  2  0  0  0  0
 27 21  1  0  0  0  0
 27 28  1  0  0  0  0
 29 23  1  0  0  0  0
M  END
>  <MODEL>
3

>  <REMARK>
 VINA RESULT:      -7.1      3.046     10.991
  Name = 
  5 active torsions:
  status: ('A' for Active; 'I' for Inactive)
    1  A    between atoms: C_2  and  N_19
    2  A    between atoms: C_2  and  C_25
    3  A    between atoms: C_9  and  C_20
    4  A    between atoms: C_10  and  C_13
    5  A    between atoms: C_23  and  C_25
                            x       y       z     vdW  Elec       q    Type
                         _______ _______ _______ _____ _____    ______ ____

>  <TORSDO>
F 5

$$$$
=
 OpenBabel11042417283D

 29 31  0  0  1  0  0  0  0  0999 V2000
  186.6840  177.3670  145.2450 C   0  0  1  0  0  3  0  0  0  0  0  0
  189.7270  176.8020  145.5060 C   0  0  0  0  0  0  0  0  0  0  0  0
  185.5070  178.2010  147.1760 C   0  0  0  0  0  2  0  0  0  0  0  0
  185.0170  178.1220  143.4990 C   0  0  0  0  0  0  0  0  0  0  0  0
  189.1360  177.6450  144.5110 N   0  0  0  0  0  2  0  0  0  0  0  0
  186.9040  178.0030  146.6040 C   0  0  0  0  0  2  0  0  0  0  0  0
  187.3800  178.1810  143.0470 N   0  0  0  0  0  0  0  0  0  0  0  0
  189.0420  175.9160  146.0870 O   0  0  0  0  0  0  0  0  0  0  0  0
  186.0130  178.3160  142.6310 C   0  0  0  0  0  3  0  0  0  0  0  0
  191.1190  176.9490  145.8010 N   0  0  0  0  0  2  0  0  0  0  0  0
  185.3480  177.7920  144.8530 N   0  0  0  0  0  0  0  0  0  0  0  0
  184.5780  178.2870  145.9770 C   0  0  0  0  0  2  0  0  0  0  0  0
  187.7350  177.7770  144.2320 C   0  0  0  0  0  0  0  0  0  0  0  0
  191.8490  176.1370  146.7680 C   0  0  1  0  0  0  0  0  0  0  0  0
  191.8070  174.7960  146.3790 O   0  0  0  0  0  1  0  0  0  0  0  0
  193.2960  176.6030  146.8360 C   0  0  0  0  0  1  0  0  0  0  0  0
  191.1840  176.3050  148.1350 C   0  0  0  0  0  2  0  0  0  0  0  0
  190.0660  178.4640  148.6080 C   0  0  0  0  0  1  0  0  0  0  0  0
  191.7250  177.5930  150.1350 N   0  0  0  0  0  1  0  0  0  0  0  0
  191.3640  177.6970  148.7320 C   0  0  1  0  0  3  0  0  0  0  0  0
  183.1910  178.2150  141.8400 C   0  0  0  0  0  3  0  0  0  0  0  0
  183.6070  178.2960  143.1040 C   0  0  0  0  0  3  0  0  0  0  0  0
  179.0860  178.7670  140.7890 C   0  0  0  0  0  0  0  0  0  0  0  0
  181.2850  177.9190  140.2330 C   0  0  0  0  0  3  0  0  0  0  0  0
  179.5780  179.2430  142.0080 C   0  0  0  0  0  3  0  0  0  0  0  0
  179.9400  178.1070  139.9020 C   0  0  0  0  0  3  0  0  0  0  0  0
  181.7830  178.3930  141.4570 C   0  0  0  0  0  0  0  0  0  0  0  0
  180.9240  179.0550  142.3400 C   0  0  0  0  0  3  0  0  0  0  0  0
  177.7180  178.9570  140.4530 N   0  0  0  0  0  1  0  0  0  0  0  0
  1  6  1  1  0  0  0
  2 10  1  0  0  0  0
  2  8  2  0  0  0  0
  4 11  1  0  0  0  0
  5  2  1  0  0  0  0
  6  3  1  0  0  0  0
  7 13  2  0  0  0  0
  9  7  1  0  0  0  0
  9  4  2  0  0  0  0
 10 14  1  0  0  0  0
 11  1  1  0  0  0  0
 11 12  1  0  0  0  0
 12  3  1  0  0  0  0
 13  5  1  0  0  0  0
 13  1  1  0  0  0  0
 14 16  1  1  0  0  0
 14 17  1  0  0  0  0
 15 14  1  0  0  0  0
 17 20  1  0  0  0  0
 20 18  1  1  0  0  0
 20 19  1  0  0  0  0
 21 22  2  0  0  0  0
 22  4  1  0  0  0  0
 23 25  1  0  0  0  0
 24 27  2  0  0  0  0
 25 28  2  0  0  0  0
 26 24  1  0  0  0  0
 26 23  2  0  0  0  0
 27 21  1  0  0  0  0
 27 28  1  0  0  0  0
 29 23  1  0  0  0  0
M  END
>  <MODEL>
4

>  <REMARK>
 VINA RESULT:      -6.9      1.512      2.122
  Name = 
  5 active torsions:
  status: ('A' for Active; 'I' for Inactive)
    1  A    between atoms: C_2  and  N_19
    2  A    between atoms: C_2  and  C_25
    3  A    between atoms: C_9  and  C_20
    4  A    between atoms: C_10  and  C_13
    5  A    between atoms: C_23  and  C_25
                            x       y       z     vdW  Elec       q    Type
                         _______ _______ _______ _____ _____    ______ ____

>  <TORSDO>
F 5

$$$$
=
 OpenBabel11042417283D

 29 31  0  0  1  0  0  0  0  0999 V2000
  191.2240  175.4840  144.1930 C   0  0  1  0  0  3  0  0  0  0  0  0
  194.3080  175.1170  144.2430 C   0  0  0  0  0  0  0  0  0  0  0  0
  189.9040  174.2800  145.8110 C   0  0  0  0  0  2  0  0  0  0  0  0
  189.5140  177.2640  143.6390 C   0  0  0  0  0  0  0  0  0  0  0  0
  193.6350  176.3790  144.3100 N   0  0  0  0  0  2  0  0  0  0  0  0
  191.3270  174.7200  145.4990 C   0  0  0  0  0  2  0  0  0  0  0  0
  191.8590  177.7980  143.7230 N   0  0  0  0  0  0  0  0  0  0  0  0
  193.7310  174.1070  143.7550 O   0  0  0  0  0  0  0  0  0  0  0  0
  190.4970  178.1460  143.4360 C   0  0  0  0  0  3  0  0  0  0  0  0
  195.6610  175.0280  144.6970 N   0  0  0  0  0  2  0  0  0  0  0  0
  189.8540  175.9740  144.1620 N   0  0  0  0  0  0  0  0  0  0  0  0
  189.0000  175.2750  145.1010 C   0  0  0  0  0  2  0  0  0  0  0  0
  192.2360  176.6090  144.0930 C   0  0  0  0  0  0  0  0  0  0  0  0
  196.4690  173.8130  144.6570 C   0  0  1  0  0  0  0  0  0  0  0  0
  196.3240  173.1970  143.4110 O   0  0  0  0  0  1  0  0  0  0  0  0
  197.9320  174.1660  144.8850 C   0  0  0  0  0  1  0  0  0  0  0  0
  195.9810  172.8770  145.7630 C   0  0  0  0  0  2  0  0  0  0  0  0
  196.7340  170.5430  146.1160 C   0  0  0  0  0  1  0  0  0  0  0  0
  194.4410  171.0030  145.5040 N   0  0  0  0  0  1  0  0  0  0  0  0
  195.8150  171.4310  145.3060 C   0  0  1  0  0  3  0  0  0  0  0  0
  187.4870  177.3730  142.2340 C   0  0  0  0  0  3  0  0  0  0  0  0
  188.1030  177.6130  143.3910 C   0  0  0  0  0  3  0  0  0  0  0  0
  183.3870  178.4030  141.6150 C   0  0  0  0  0  0  0  0  0  0  0  0
  185.5750  177.9150  140.7000 C   0  0  0  0  0  3  0  0  0  0  0  0
  183.8870  178.2190  142.9080 C   0  0  0  0  0  3  0  0  0  0  0  0
  184.2310  178.2520  140.5120 C   0  0  0  0  0  3  0  0  0  0  0  0
  186.0810  177.7270  141.9960 C   0  0  0  0  0  0  0  0  0  0  0  0
  185.2310  177.8810  143.0960 C   0  0  0  0  0  3  0  0  0  0  0  0
  182.0200  178.7440  141.4240 N   0  0  0  0  0  1  0  0  0  0  0  0
  1  6  1  1  0  0  0
  2  5  1  0  0  0  0
  2 10  1  0  0  0  0
  4 11  1  0  0  0  0
  6  3  1  0  0  0  0
  7 13  2  0  0  0  0
  8  2  2  0  0  0  0
  9  4  2  0  0  0  0
  9  7  1  0  0  0  0
 11  1  1  0  0  0  0
 11 12  1  0  0  0  0
 12  3  1  0  0  0  0
 13  1  1  0  0  0  0
 13  5  1  0  0  0  0
 14 10  1  0  0  0  0
 14 16  1  1  0  0  0
 14 17  1  0  0  0  0
 15 14  1  0  0  0  0
 20 19  1  0  0  0  0
 20 17  1  0  0  0  0
 20 18  1  1  0  0  0
 21 22  2  0  0  0  0
 22  4  1  0  0  0  0
 23 25  1  0  0  0  0
 24 27  2  0  0  0  0
 25 28  2  0  0  0  0
 26 24  1  0  0  0  0
 26 23  2  0  0  0  0
 27 21  1  0  0  0  0
 27 28  1  0  0  0  0
 29 23  1  0  0  0  0
M  END
>  <MODEL>
5

>  <REMARK>
 VINA RESULT:      -6.8      2.938      4.609
  Name = 
  5 active torsions:
  status: ('A' for Active; 'I' for Inactive)
    1  A    between atoms: C_2  and  N_19
    2  A    between atoms: C_2  and  C_25
    3  A    between atoms: C_9  and  C_20
    4  A    between atoms: C_10  and  C_13
    5  A    between atoms: C_23  and  C_25
                            x       y       z     vdW  Elec       q    Type
                         _______ _______ _______ _____ _____    ______ ____

>  <TORSDO>
F 5

$$$$
=
 OpenBabel11042417283D

 29 31  0  0  1  0  0  0  0  0999 V2000
  189.8560  175.3360  144.5740 C   0  0  1  0  0  3  0  0  0  0  0  0
  187.4280  176.5300  143.0500 C   0  0  0  0  0  0  0  0  0  0  0  0
  189.8970  175.5120  146.9770 C   0  0  0  0  0  2  0  0  0  0  0  0
  191.5020  173.4260  144.3610 C   0  0  0  0  0  0  0  0  0  0  0  0
  187.8860  175.1800  142.9250 N   0  0  0  0  0  2  0  0  0  0  0  0
  188.9730  175.6240  145.7730 C   0  0  0  0  0  2  0  0  0  0  0  0
  189.6110  173.5880  142.8820 N   0  0  0  0  0  0  0  0  0  0  0  0
  188.2020  177.4360  143.4650 O   0  0  0  0  0  0  0  0  0  0  0  0
  190.8460  172.9800  143.2870 C   0  0  0  0  0  3  0  0  0  0  0  0
  186.0900  176.8480  142.6560 N   0  0  0  0  0  2  0  0  0  0  0  0
  190.9350  174.5140  145.1020 N   0  0  0  0  0  0  0  0  0  0  0  0
  191.0260  174.5920  146.5470 C   0  0  0  0  0  2  0  0  0  0  0  0
  189.1080  174.6440  143.4510 C   0  0  0  0  0  0  0  0  0  0  0  0
  185.5090  178.1860  142.7060 C   0  0  1  0  0  0  0  0  0  0  0  0
  186.1750  179.0180  141.8020 O   0  0  0  0  0  1  0  0  0  0  0  0
  184.0330  178.1150  142.3420 C   0  0  0  0  0  1  0  0  0  0  0  0
  185.6690  178.7260  144.1270 C   0  0  0  0  0  2  0  0  0  0  0  0
  185.6330  177.2890  146.1450 C   0  0  0  0  0  1  0  0  0  0  0  0
  183.9650  179.0130  145.8500 N   0  0  0  0  0  1  0  0  0  0  0  0
  184.7720  178.0310  145.1460 C   0  0  1  0  0  3  0  0  0  0  0  0
  193.0180  171.4970  144.6380 C   0  0  0  0  0  3  0  0  0  0  0  0
  192.7510  172.7910  144.8200 C   0  0  0  0  0  3  0  0  0  0  0  0
  196.6050  169.6170  145.9990 C   0  0  0  0  0  0  0  0  0  0  0  0
  195.4790  171.5750  145.1270 C   0  0  0  0  0  3  0  0  0  0  0  0
  195.3970  168.9120  145.9740 C   0  0  0  0  0  3  0  0  0  0  0  0
  196.6450  170.9480  145.5750 C   0  0  0  0  0  3  0  0  0  0  0  0
  194.2640  170.8720  145.1020 C   0  0  0  0  0  0  0  0  0  0  0  0
  194.2310  169.5390  145.5260 C   0  0  0  0  0  3  0  0  0  0  0  0
  197.7900  168.9790  146.4560 N   0  0  0  0  0  1  0  0  0  0  0  0
  1 11  1  0  0  0  0
  1  6  1  1  0  0  0
  2  8  2  0  0  0  0
  4 22  1  0  0  0  0
  4 11  1  0  0  0  0
  5  2  1  0  0  0  0
  5 13  1  0  0  0  0
  6  3  1  0  0  0  0
  7  9  1  0  0  0  0
  7 13  2  0  0  0  0
  9  4  2  0  0  0  0
 10 14  1  0  0  0  0
 10  2  1  0  0  0  0
 11 12  1  0  0  0  0
 12  3  1  0  0  0  0
 13  1  1  0  0  0  0
 14 16  1  6  0  0  0
 14 17  1  0  0  0  0
 15 14  1  0  0  0  0
 17 20  1  0  0  0  0
 20 19  1  0  0  0  0
 20 18  1  1  0  0  0
 21 22  2  0  0  0  0
 21 27  1  0  0  0  0
 23 29  1  0  0  0  0
 24 26  1  0  0  0  0
 25 23  1  0  0  0  0
 26 23  2  0  0  0  0
 27 24  2  0  0  0  0
 27 28  1  0  0  0  0
 28 25  2  0  0  0  0
M  END
>  <MODEL>
6

>  <REMARK>
 VINA RESULT:      -6.7      3.455     11.116
  Name = 
  5 active torsions:
  status: ('A' for Active; 'I' for Inactive)
    1  A    between atoms: C_2  and  N_19
    2  A    between atoms: C_2  and  C_25
    3  A    between atoms: C_9  and  C_20
    4  A    between atoms: C_10  and  C_13
    5  A    between atoms: C_23  and  C_25
                            x       y       z     vdW  Elec       q    Type
                         _______ _______ _______ _____ _____    ______ ____

>  <TORSDO>
F 5

$$$$
=
 OpenBabel11042417283D

 29 31  0  0  1  0  0  0  0  0999 V2000
  188.5080  176.5480  143.9520 C   0  0  1  0  0  3  0  0  0  0  0  0
  191.5570  176.1880  143.4820 C   0  0  0  0  0  0  0  0  0  0  0  0
  187.7150  176.7240  146.2210 C   0  0  0  0  0  2  0  0  0  0  0  0
  186.5060  177.6090  142.8260 C   0  0  0  0  0  0  0  0  0  0  0  0
  190.7560  177.2180  142.8920 N   0  0  0  0  0  2  0  0  0  0  0  0
  188.9750  176.8060  145.3720 C   0  0  0  0  0  2  0  0  0  0  0  0
  188.7300  177.9850  141.9860 N   0  0  0  0  0  0  0  0  0  0  0  0
  191.0270  175.1240  143.9030 O   0  0  0  0  0  0  0  0  0  0  0  0
  187.3050  178.1140  141.8820 C   0  0  0  0  0  3  0  0  0  0  0  0
  192.9750  176.3640  143.5480 N   0  0  0  0  0  2  0  0  0  0  0  0
  187.1090  176.9510  143.9470 N   0  0  0  0  0  0  0  0  0  0  0  0
  186.5640  177.0560  145.2860 C   0  0  0  0  0  2  0  0  0  0  0  0
  189.3250  177.3040  142.9220 C   0  0  0  0  0  0  0  0  0  0  0  0
  193.9060  175.3830  144.0950 C   0  0  1  0  0  0  0  0  0  0  0  0
  193.7760  174.1770  143.4000 O   0  0  0  0  0  1  0  0  0  0  0  0
  195.3310  175.8990  143.9590 C   0  0  0  0  0  1  0  0  0  0  0  0
  193.5680  175.1730  145.5720 C   0  0  0  0  0  2  0  0  0  0  0  0
  192.0530  176.0430  147.3280 C   0  0  0  0  0  1  0  0  0  0  0  0
  194.1600  177.1420  146.8840 N   0  0  0  0  0  1  0  0  0  0  0  0
  193.0550  176.4320  146.2630 C   0  0  1  0  0  3  0  0  0  0  0  0
  184.4120  178.2700  141.6990 C   0  0  0  0  0  3  0  0  0  0  0  0
  185.0420  177.7660  142.7610 C   0  0  0  0  0  3  0  0  0  0  0  0
  180.1650  178.6890  141.4750 C   0  0  0  0  0  0  0  0  0  0  0  0
  182.2320  179.0250  142.6910 C   0  0  0  0  0  3  0  0  0  0  0  0
  180.8770  178.0890  140.4320 C   0  0  0  0  0  3  0  0  0  0  0  0
  180.8430  179.1560  142.6050 C   0  0  0  0  0  3  0  0  0  0  0  0
  182.9520  178.4260  141.6450 C   0  0  0  0  0  0  0  0  0  0  0  0
  182.2670  177.9580  140.5180 C   0  0  0  0  0  3  0  0  0  0  0  0
  178.7530  178.8220  141.3870 N   0  0  0  0  0  1  0  0  0  0  0  0
  1  6  1  1  0  0  0
  2 10  1  0  0  0  0
  2  8  2  0  0  0  0
  4 11  1  0  0  0  0
  5 13  1  0  0  0  0
  5  2  1  0  0  0  0
  6  3  1  0  0  0  0
  7 13  2  0  0  0  0
  9  7  1  0  0  0  0
  9  4  2  0  0  0  0
 10 14  1  0  0  0  0
 11  1  1  0  0  0  0
 11 12  1  0  0  0  0
 12  3  1  0  0  0  0
 13  1  1  0  0  0  0
 14 16  1  6  0  0  0
 14 17  1  0  0  0  0
 15 14  1  0  0  0  0
 17 20  1  0  0  0  0
 20 19  1  0  0  0  0
 20 18  1  1  0  0  0
 21 22  2  0  0  0  0
 22  4  1  0  0  0  0
 23 26  1  0  0  0  0
 25 28  1  0  0  0  0
 25 23  2  0  0  0  0
 26 24  2  0  0  0  0
 27 21  1  0  0  0  0
 27 24  1  0  0  0  0
 28 27  2  0  0  0  0
 29 23  1  0  0  0  0
M  END
>  <MODEL>
7

>  <REMARK>
 VINA RESULT:      -6.7      1.659      2.247
  Name = 
  5 active torsions:
  status: ('A' for Active; 'I' for Inactive)
    1  A    between atoms: C_2  and  N_19
    2  A    between atoms: C_2  and  C_25
    3  A    between atoms: C_9  and  C_20
    4  A    between atoms: C_10  and  C_13
    5  A    between atoms: C_23  and  C_25
                            x       y       z     vdW  Elec       q    Type
                         _______ _______ _______ _____ _____    ______ ____

>  <TORSDO>
F 5

$$$$
=
 OpenBabel11042417283D

 29 31  0  0  1  0  0  0  0  0999 V2000
  190.9780  175.9370  142.7920 C   0  0  1  0  0  3  0  0  0  0  0  0
  193.9630  176.1170  143.6290 C   0  0  0  0  0  0  0  0  0  0  0  0
  190.1680  173.8540  141.8880 C   0  0  0  0  0  2  0  0  0  0  0  0
  188.7340  176.8890  143.4730 C   0  0  0  0  0  0  0  0  0  0  0  0
  192.8560  176.4280  144.4820 N   0  0  0  0  0  2  0  0  0  0  0  0
  191.3230  174.4650  142.6680 C   0  0  0  0  0  2  0  0  0  0  0  0
  190.6920  177.2740  144.8190 N   0  0  0  0  0  0  0  0  0  0  0  0
  193.8340  176.1410  142.3750 O   0  0  0  0  0  0  0  0  0  0  0  0
  189.3100  177.5060  144.5080 C   0  0  0  0  0  3  0  0  0  0  0  0
  195.2320  175.8210  144.2200 N   0  0  0  0  0  2  0  0  0  0  0  0
  189.5260  175.9830  142.6950 N   0  0  0  0  0  0  0  0  0  0  0  0
  188.9750  174.7630  142.1380 C   0  0  0  0  0  2  0  0  0  0  0  0
  191.4830  176.5490  144.0840 C   0  0  0  0  0  0  0  0  0  0  0  0
  196.4440  175.5170  143.4660 C   0  0  1  0  0  0  0  0  0  0  0  0
  196.1070  174.8400  142.2920 O   0  0  0  0  0  1  0  0  0  0  0  0
  197.1670  176.8110  143.1200 C   0  0  0  0  0  1  0  0  0  0  0  0
  197.3420  174.6380  144.3370 C   0  0  0  0  0  2  0  0  0  0  0  0
  196.6880  172.2600  144.5780 C   0  0  0  0  0  1  0  0  0  0  0  0
  197.1150  173.6100  146.5380 N   0  0  0  0  0  1  0  0  0  0  0  0
  196.5690  173.6380  145.1920 C   0  0  1  0  0  3  0  0  0  0  0  0
  186.8770  177.8830  142.1870 C   0  0  0  0  0  3  0  0  0  0  0  0
  187.3060  177.0800  143.1600 C   0  0  0  0  0  3  0  0  0  0  0  0
  182.7170  178.4280  141.3800 C   0  0  0  0  0  0  0  0  0  0  0  0
  184.9710  178.0850  140.5650 C   0  0  0  0  0  3  0  0  0  0  0  0
  183.1900  178.4150  142.6960 C   0  0  0  0  0  3  0  0  0  0  0  0
  183.6070  178.2640  140.3160 C   0  0  0  0  0  3  0  0  0  0  0  0
  185.4510  178.0690  141.8840 C   0  0  0  0  0  0  0  0  0  0  0  0
  184.5550  178.2360  142.9460 C   0  0  0  0  0  3  0  0  0  0  0  0
  181.3290  178.6100  141.1260 N   0  0  0  0  0  1  0  0  0  0  0  0
  1  6  1  1  0  0  0
  1 13  1  0  0  0  0
  2 10  1  0  0  0  0
  2  5  1  0  0  0  0
  3 12  1  0  0  0  0
  3  6  1  0  0  0  0
  4  9  2  0  0  0  0
  8  2  2  0  0  0  0
  9  7  1  0  0  0  0
 11  1  1  0  0  0  0
 11  4  1  0  0  0  0
 12 11  1  0  0  0  0
 13  5  1  0  0  0  0
 13  7  2  0  0  0  0
 14 16  1  6  0  0  0
 14 10  1  0  0  0  0
 14 17  1  0  0  0  0
 15 14  1  0  0  0  0
 17 20  1  0  0  0  0
 20 18  1  6  0  0  0
 20 19  1  0  0  0  0
 21 22  2  0  0  0  0
 22  4  1  0  0  0  0
 23 25  1  0  0  0  0
 24 27  2  0  0  0  0
 25 28  2  0  0  0  0
 26 24  1  0  0  0  0
 26 23  2  0  0  0  0
 27 21  1  0  0  0  0
 27 28  1  0  0  0  0
 29 23  1  0  0  0  0
M  END
>  <MODEL>
8

>  <REMARK>
 VINA RESULT:      -6.6      2.913      4.472
  Name = 
  5 active torsions:
  status: ('A' for Active; 'I' for Inactive)
    1  A    between atoms: C_2  and  N_19
    2  A    between atoms: C_2  and  C_25
    3  A    between atoms: C_9  and  C_20
    4  A    between atoms: C_10  and  C_13
    5  A    between atoms: C_23  and  C_25
                            x       y       z     vdW  Elec       q    Type
                         _______ _______ _______ _____ _____    ______ ____

>  <TORSDO>
F 5

$$$$
=
 OpenBabel11042417283D

 29 31  0  0  1  0  0  0  0  0999 V2000
  192.1040  173.5990  144.4540 C   0  0  1  0  0  3  0  0  0  0  0  0
  194.8860  172.3640  145.0720 C   0  0  0  0  0  0  0  0  0  0  0  0
  190.3310  172.1260  143.7510 C   0  0  0  0  0  2  0  0  0  0  0  0
  190.6460  175.5190  145.2210 C   0  0  0  0  0  0  0  0  0  0  0  0
  194.1400  173.1860  145.9750 N   0  0  0  0  0  2  0  0  0  0  0  0
  191.7040  172.1370  144.4070 C   0  0  0  0  0  2  0  0  0  0  0  0
  192.6690  174.9660  146.4010 N   0  0  0  0  0  0  0  0  0  0  0  0
  194.6690  172.4120  143.8310 O   0  0  0  0  0  0  0  0  0  0  0  0
  191.5370  175.8170  146.1700 C   0  0  0  0  0  3  0  0  0  0  0  0
  195.9150  171.5180  145.5930 N   0  0  0  0  0  2  0  0  0  0  0  0
  190.8430  174.3250  144.4530 N   0  0  0  0  0  0  0  0  0  0  0  0
  189.7350  173.4970  144.0190 C   0  0  0  0  0  2  0  0  0  0  0  0
  192.9550  173.9330  145.6640 C   0  0  0  0  0  0  0  0  0  0  0  0
  196.7670  170.6560  144.7810 C   0  0  1  0  0  0  0  0  0  0  0  0
  196.0260  170.1360  143.7160 O   0  0  0  0  0  1  0  0  0  0  0  0
  197.9410  171.4600  144.2420 C   0  0  0  0  0  1  0  0  0  0  0  0
  197.2790  169.5180  145.6660 C   0  0  0  0  0  2  0  0  0  0  0  0
  195.3480  168.1660  146.4250 C   0  0  0  0  0  1  0  0  0  0  0  0
  197.1450  168.6890  147.9560 N   0  0  0  0  0  1  0  0  0  0  0  0
  196.3640  169.2050  146.8450 C   0  0  1  0  0  3  0  0  0  0  0  0
  188.2890  176.1440  145.6080 C   0  0  0  0  0  3  0  0  0  0  0  0
  189.4530  176.3550  144.9940 C   0  0  0  0  0  3  0  0  0  0  0  0
  184.8840  178.6160  144.8680 C   0  0  0  0  0  0  0  0  0  0  0  0
  185.9340  176.8370  146.1320 C   0  0  0  0  0  3  0  0  0  0  0  0
  186.0480  178.7630  144.1080 C   0  0  0  0  0  3  0  0  0  0  0  0
  184.8270  177.6530  145.8790 C   0  0  0  0  0  3  0  0  0  0  0  0
  187.1060  176.9820  145.3730 C   0  0  0  0  0  0  0  0  0  0  0  0
  187.1550  177.9470  144.3610 C   0  0  0  0  0  3  0  0  0  0  0  0
  183.7580  179.4460  144.6120 N   0  0  0  0  0  1  0  0  0  0  0  0
  1  6  1  1  0  0  0
  1 13  1  0  0  0  0
  2 10  1  0  0  0  0
  2  5  1  0  0  0  0
  3 12  1  0  0  0  0
  3  6  1  0  0  0  0
  4  9  2  0  0  0  0
  8  2  2  0  0  0  0
  9  7  1  0  0  0  0
 11  1  1  0  0  0  0
 11  4  1  0  0  0  0
 12 11  1  0  0  0  0
 13  5  1  0  0  0  0
 13  7  2  0  0  0  0
 14 16  1  6  0  0  0
 14 10  1  0  0  0  0
 14 17  1  0  0  0  0
 15 14  1  0  0  0  0
 17 20  1  0  0  0  0
 20 18  1  6  0  0  0
 20 19  1  0  0  0  0
 22  4  1  0  0  0  0
 22 21  2  0  0  0  0
 23 26  1  0  0  0  0
 25 28  1  0  0  0  0
 25 23  2  0  0  0  0
 26 24  2  0  0  0  0
 27 21  1  0  0  0  0
 27 24  1  0  0  0  0
 28 27  2  0  0  0  0
 29 23  1  0  0  0  0
M  END
>  <MODEL>
9

>  <REMARK>
 VINA RESULT:      -6.4      3.927      6.799
  Name = 
  5 active torsions:
  status: ('A' for Active; 'I' for Inactive)
    1  A    between atoms: C_2  and  N_19
    2  A    between atoms: C_2  and  C_25
    3  A    between atoms: C_9  and  C_20
    4  A    between atoms: C_10  and  C_13
    5  A    between atoms: C_23  and  C_25
                            x       y       z     vdW  Elec       q    Type
                         _______ _______ _______ _____ _____    ______ ____

>  <TORSDO>
F 5

$$$$
