=
 OpenBabel11042418133D

 47 49  0  0  1  0  0  0  0  0999 V2000
  189.2350  176.1480  144.2220 N   0  0  0  0  0  2  0  0  0  0  0  0
  187.9690  177.8940  143.0040 N   0  0  0  0  0  2  0  0  0  0  0  0
  190.0470  178.3190  143.9490 O   0  0  0  0  0  0  0  0  0  0  0  0
  189.1280  177.4870  143.7300 C   0  0  0  0  0  0  0  0  0  0  0  0
  184.3500  178.2160  141.9400 C   0  0  0  0  0  0  0  0  0  0  0  0
  186.4370  177.1340  141.2990 C   0  0  0  0  0  0  0  0  0  0  0  0
  186.8710  176.9780  142.7310 C   0  0  2  0  0  3  0  0  0  0  0  0
  184.6140  177.8290  143.3370 C   0  0  0  0  0  3  0  0  0  0  0  0
  187.1580  176.6820  140.3720 O   0  0  0  0  0  0  0  0  0  0  0  0
  185.2000  177.8570  140.9740 C   0  0  0  0  0  3  0  0  0  0  0  0
  185.7470  177.2260  143.7170 C   0  0  0  0  0  0  0  0  0  0  0  0
  183.1220  178.8980  141.6460 N   0  0  0  0  0  2  0  0  0  0  0  0
  182.2650  177.4790  139.9820 O   0  0  0  0  0  0  0  0  0  0  0  0
  182.1030  178.4800  140.7290 C   0  0  0  0  0  0  0  0  0  0  0  0
  180.8200  179.2420  140.6620 C   0  0  0  0  0  2  0  0  0  0  0  0
  177.9050  179.4750  141.9640 C   0  0  0  0  0  2  0  0  0  0  0  0
  179.6200  178.2950  140.7140 C   0  0  2  0  0  3  0  0  0  0  0  0
  178.2890  179.0210  140.5730 C   0  0  2  0  0  3  0  0  0  0  0  0
  178.5550  178.4770  142.9080 C   0  0  0  0  0  2  0  0  0  0  0  0
  179.5460  177.6580  142.0880 C   0  0  0  0  0  2  0  0  0  0  0  0
  178.2750  180.1300  139.5620 C   0  0  0  0  0  0  0  0  0  0  0  0
  178.4310  181.4510  139.9560 O   0  0  0  0  0  1  0  0  0  0  0  0
  178.1890  179.8540  138.3370 O   0  0  0  0  0  0  0  0  0  0  0  0
  185.8620  176.8360  145.0550 O   0  0  0  0  0  0  0  0  0  0  0  0
  185.5680  177.7060  146.1410 C   0  0  1  0  0  3  0  0  0  0  0  0
  184.2380  177.5450  146.5290 O   0  0  0  0  0  1  0  0  0  0  0  0
  186.4670  177.3700  147.3090 C   0  0  0  0  0  1  0  0  0  0  0  0
  190.2830  175.7500  145.1490 C   0  0  1  0  0  3  0  0  0  0  0  0
  190.1960  177.2950  147.2400 C   0  0  0  0  0  1  0  0  0  0  0  0
  188.6260  174.1950  147.8400 O   0  0  0  0  0  0  0  0  0  0  0  0
  189.2220  175.0810  147.2140 C   0  0  0  0  0  0  0  0  0  0  0  0
  189.8510  176.0140  146.5540 C   0  0  0  0  0  0  0  0  0  0  0  0
  190.6240  174.2820  144.9560 C   0  0  0  0  0  2  0  0  0  0  0  0
  192.5550  172.9390  144.3060 N   0  0  0  0  0  2  0  0  0  0  0  0
  193.2380  173.5090  143.1440 C   0  0  2  0  0  3  0  0  0  0  0  0
  193.2590  175.0160  143.2830 C   0  0  1  0  0  3  0  0  0  0  0  0
  192.1180  174.0500  145.1460 C   0  0  1  0  0  3  0  0  0  0  0  0
  192.8770  175.2820  144.7180 C   0  0  0  0  0  2  0  0  0  0  0  0
  193.4910  172.7400  140.8730 O   0  0  0  0  0  1  0  0  0  0  0  0
  192.5480  173.0980  141.8390 C   0  0  2  0  0  3  0  0  0  0  0  0
  191.6720  174.2170  141.3040 C   0  0  0  0  0  2  0  0  0  0  0  0
  190.3330  173.9580  141.5930 O   0  0  0  0  0  0  0  0  0  0  0  0
  189.7380  173.7500  140.3500 C   0  0  0  0  0  2  0  0  0  0  0  0
  187.8500  173.5650  141.7940 O   0  0  0  0  0  1  0  0  0  0  0  0
  188.3350  173.2090  140.5350 C   0  0  0  0  0  2  0  0  0  0  0  0
  194.6510  175.5480  142.9930 C   0  0  0  0  0  2  0  0  0  0  0  0
  195.3850  175.6120  144.1710 O   0  0  0  0  0  1  0  0  0  0  0  0
  1 28  1  0  0  0  0
  2  4  1  0  0  0  0
  4  3  2  0  0  0  0
  4  1  1  0  0  0  0
  5  8  1  0  0  0  0
  6  7  1  0  0  0  0
  7  2  1  1  0  0  0
  7 11  1  0  0  0  0
  8 11  2  0  0  0  0
  9  6  2  0  0  0  0
 10  6  1  0  0  0  0
 10  5  2  0  0  0  0
 11 24  1  0  0  0  0
 12  5  1  0  0  0  0
 13 14  2  0  0  0  0
 14 12  1  0  0  0  0
 15 14  1  0  0  0  0
 16 19  1  0  0  0  0
 17 15  1  1  0  0  0
 17 20  1  0  0  0  0
 18 21  1  6  0  0  0
 18 17  1  0  0  0  0
 18 16  1  0  0  0  0
 20 19  1  0  0  0  0
 21 22  1  0  0  0  0
 23 21  2  0  0  0  0
 24 25  1  0  0  0  0
 25 26  1  0  0  0  0
 25 27  1  1  0  0  0
 28 33  1  1  0  0  0
 28 32  1  0  0  0  0
 31 30  2  0  0  0  0
 32 31  2  0  0  0  0
 32 29  1  0  0  0  0
 34 37  1  0  0  0  0
 35 40  1  6  0  0  0
 35 36  1  0  0  0  0
 35 34  1  0  0  0  0
 36 46  1  1  0  0  0
 36 38  1  0  0  0  0
 37 33  1  6  0  0  0
 38 37  1  0  0  0  0
 40 39  1  6  0  0  0
 41 42  1  0  0  0  0
 41 40  1  0  0  0  0
 43 45  1  0  0  0  0
 43 42  1  0  0  0  0
 45 44  1  0  0  0  0
 46 47  1  0  0  0  0
M  END
>  <MODEL>
1

>  <REMARK>
 VINA RESULT:      -6.7      0.000      0.000
  Name = 
  17 active torsions:
  status: ('A' for Active; 'I' for Inactive)
    1  A    between atoms: C_1  and  O_24
    2  A    between atoms: N_3  and  C_8
    3  A    between atoms: N_5  and  C_12
    4  A    between atoms: C_6  and  C_37
    5  A    between atoms: N_10  and  C_23
    6  A    between atoms: C_11  and  C_12
    7  A    between atoms: C_11  and  C_32
    8  A    between atoms: C_12  and  C_31
    9  A    between atoms: C_17  and  C_18
   10  A    between atoms: C_17  and  C_19
   11  A    between atoms: C_19  and  O_41
   12  A    between atoms: C_21  and  C_34
   13  A    between atoms: O_24  and  C_44
   14  A    between atoms: C_29  and  C_45
   15  A    between atoms: C_30  and  C_45
   16  A    between atoms: C_35  and  O_41
   17  A    between atoms: C_35  and  C_47
                            x       y       z     vdW  Elec       q    Type
                         _______ _______ _______ _____ _____    ______ ____

>  <TORSDO>
F 17

$$$$
=
 OpenBabel11042418133D

 47 49  0  0  1  0  0  0  0  0999 V2000
  189.3940  176.0900  144.0520 N   0  0  0  0  0  2  0  0  0  0  0  0
  188.0860  177.8470  142.8970 N   0  0  0  0  0  2  0  0  0  0  0  0
  190.1790  178.2750  143.8080 O   0  0  0  0  0  0  0  0  0  0  0  0
  189.2630  177.4380  143.5910 C   0  0  0  0  0  0  0  0  0  0  0  0
  184.4210  178.1560  142.0010 C   0  0  0  0  0  0  0  0  0  0  0  0
  186.4950  177.1410  141.2230 C   0  0  0  0  0  0  0  0  0  0  0  0
  186.9920  176.9270  142.6280 C   0  0  2  0  0  3  0  0  0  0  0  0
  184.7500  177.7100  143.3660 C   0  0  0  0  0  3  0  0  0  0  0  0
  187.1830  176.7440  140.2480 O   0  0  0  0  0  0  0  0  0  0  0  0
  185.2350  177.8560  140.9850 C   0  0  0  0  0  3  0  0  0  0  0  0
  185.9060  177.1100  143.6700 C   0  0  0  0  0  0  0  0  0  0  0  0
  183.1710  178.8300  141.7900 N   0  0  0  0  0  2  0  0  0  0  0  0
  182.3140  177.5400  140.0240 O   0  0  0  0  0  0  0  0  0  0  0  0
  182.1430  178.4680  140.8590 C   0  0  0  0  0  0  0  0  0  0  0  0
  180.8420  179.2000  140.8820 C   0  0  0  0  0  2  0  0  0  0  0  0
  177.8310  179.3630  141.9550 C   0  0  0  0  0  2  0  0  0  0  0  0
  179.6670  178.2230  140.8470 C   0  0  2  0  0  3  0  0  0  0  0  0
  178.3310  178.9140  140.6010 C   0  0  2  0  0  3  0  0  0  0  0  0
  178.4320  178.3860  142.9520 C   0  0  0  0  0  2  0  0  0  0  0  0
  179.5030  177.5890  142.2150 C   0  0  0  0  0  2  0  0  0  0  0  0
  178.3670  180.0180  139.5850 C   0  0  0  0  0  0  0  0  0  0  0  0
  178.5960  181.3310  139.9720 O   0  0  0  0  0  1  0  0  0  0  0  0
  178.2560  179.7420  138.3620 O   0  0  0  0  0  0  0  0  0  0  0  0
  186.0840  176.6610  144.9830 O   0  0  0  0  0  0  0  0  0  0  0  0
  186.5110  177.5120  146.0380 C   0  0  1  0  0  3  0  0  0  0  0  0
  186.3470  178.8470  145.6660 O   0  0  0  0  0  1  0  0  0  0  0  0
  185.6790  177.2380  147.2710 C   0  0  0  0  0  1  0  0  0  0  0  0
  190.4640  175.6840  144.9490 C   0  0  1  0  0  3  0  0  0  0  0  0
  188.9350  174.6850  146.8010 C   0  0  0  0  0  1  0  0  0  0  0  0
  190.8150  177.4190  147.9940 O   0  0  0  0  0  0  0  0  0  0  0  0
  190.4040  176.5640  147.1980 C   0  0  0  0  0  0  0  0  0  0  0  0
  189.9710  175.6640  146.3590 C   0  0  0  0  0  0  0  0  0  0  0  0
  190.9980  174.3190  144.5450 C   0  0  0  0  0  2  0  0  0  0  0  0
  192.9950  172.9180  144.5600 N   0  0  0  0  0  2  0  0  0  0  0  0
  194.0300  173.4490  143.6710 C   0  0  2  0  0  3  0  0  0  0  0  0
  194.0490  174.9570  143.7950 C   0  0  1  0  0  3  0  0  0  0  0  0
  192.3450  174.0550  145.2060 C   0  0  1  0  0  3  0  0  0  0  0  0
  193.2370  175.2600  145.0300 C   0  0  0  0  0  2  0  0  0  0  0  0
  193.1170  171.8040  142.1650 O   0  0  0  0  0  1  0  0  0  0  0  0
  193.7810  173.0310  142.2190 C   0  0  2  0  0  3  0  0  0  0  0  0
  195.0830  172.9390  141.4430 C   0  0  0  0  0  2  0  0  0  0  0  0
  195.1830  174.0010  140.5460 O   0  0  0  0  0  0  0  0  0  0  0  0
  196.4390  173.8520  139.9610 C   0  0  0  0  0  2  0  0  0  0  0  0
  196.9820  175.4830  138.3090 O   0  0  0  0  0  1  0  0  0  0  0  0
  197.0380  175.2150  139.6760 C   0  0  0  0  0  2  0  0  0  0  0  0
  195.4760  175.4490  143.9600 C   0  0  0  0  0  2  0  0  0  0  0  0
  195.8350  176.2310  142.8700 O   0  0  0  0  0  1  0  0  0  0  0  0
  1 28  1  0  0  0  0
  2  4  1  0  0  0  0
  4  3  2  0  0  0  0
  4  1  1  0  0  0  0
  5  8  1  0  0  0  0
  6  7  1  0  0  0  0
  7  2  1  1  0  0  0
  7 11  1  0  0  0  0
  8 11  2  0  0  0  0
  9  6  2  0  0  0  0
 10  6  1  0  0  0  0
 10  5  2  0  0  0  0
 11 24  1  0  0  0  0
 12  5  1  0  0  0  0
 13 14  2  0  0  0  0
 14 15  1  0  0  0  0
 14 12  1  0  0  0  0
 16 19  1  0  0  0  0
 17 15  1  1  0  0  0
 17 20  1  0  0  0  0
 18 21  1  6  0  0  0
 18 17  1  0  0  0  0
 18 16  1  0  0  0  0
 20 19  1  0  0  0  0
 21 22  1  0  0  0  0
 23 21  2  0  0  0  0
 24 25  1  0  0  0  0
 25 27  1  1  0  0  0
 26 25  1  0  0  0  0
 28 33  1  6  0  0  0
 28 32  1  0  0  0  0
 31 30  2  0  0  0  0
 32 29  1  0  0  0  0
 32 31  2  0  0  0  0
 34 37  1  0  0  0  0
 35 40  1  6  0  0  0
 35 36  1  0  0  0  0
 35 34  1  0  0  0  0
 36 46  1  1  0  0  0
 36 38  1  0  0  0  0
 37 33  1  6  0  0  0
 38 37  1  0  0  0  0
 40 39  1  1  0  0  0
 41 40  1  0  0  0  0
 42 41  1  0  0  0  0
 43 42  1  0  0  0  0
 44 45  1  0  0  0  0
 45 43  1  0  0  0  0
 47 46  1  0  0  0  0
M  END
>  <MODEL>
2

>  <REMARK>
 VINA RESULT:      -6.0      1.510      2.570
  Name = 
  17 active torsions:
  status: ('A' for Active; 'I' for Inactive)
    1  A    between atoms: C_1  and  O_24
    2  A    between atoms: N_3  and  C_8
    3  A    between atoms: N_5  and  C_12
    4  A    between atoms: C_6  and  C_37
    5  A    between atoms: N_10  and  C_23
    6  A    between atoms: C_11  and  C_12
    7  A    between atoms: C_11  and  C_32
    8  A    between atoms: C_12  and  C_31
    9  A    between atoms: C_17  and  C_18
   10  A    between atoms: C_17  and  C_19
   11  A    between atoms: C_19  and  O_41
   12  A    between atoms: C_21  and  C_34
   13  A    between atoms: O_24  and  C_44
   14  A    between atoms: C_29  and  C_45
   15  A    between atoms: C_30  and  C_45
   16  A    between atoms: C_35  and  O_41
   17  A    between atoms: C_35  and  C_47
                            x       y       z     vdW  Elec       q    Type
                         _______ _______ _______ _____ _____    ______ ____

>  <TORSDO>
F 17

$$$$
=
 OpenBabel11042418133D

 47 49  0  0  1  0  0  0  0  0999 V2000
  195.0700  173.9490  141.5380 N   0  0  0  0  0  2  0  0  0  0  0  0
  192.8150  174.9560  141.3440 N   0  0  0  0  0  2  0  0  0  0  0  0
  194.5580  175.5690  139.9370 O   0  0  0  0  0  0  0  0  0  0  0  0
  194.1650  174.8510  140.8940 C   0  0  0  0  0  0  0  0  0  0  0  0
  189.7520  175.0140  143.5670 C   0  0  0  0  0  0  0  0  0  0  0  0
  190.9900  173.5490  142.0630 C   0  0  0  0  0  0  0  0  0  0  0  0
  192.3090  174.1590  142.4510 C   0  0  2  0  0  3  0  0  0  0  0  0
  191.0320  175.4300  144.1660 C   0  0  0  0  0  3  0  0  0  0  0  0
  190.9570  172.5920  141.2470 O   0  0  0  0  0  0  0  0  0  0  0  0
  189.7350  174.0990  142.5930 C   0  0  0  0  0  3  0  0  0  0  0  0
  192.2160  175.0210  143.6950 C   0  0  0  0  0  0  0  0  0  0  0  0
  188.5390  175.5460  144.1210 N   0  0  0  0  0  2  0  0  0  0  0  0
  188.1410  177.2950  142.6050 O   0  0  0  0  0  0  0  0  0  0  0  0
  187.7500  176.6190  143.5940 C   0  0  0  0  0  0  0  0  0  0  0  0
  186.4350  176.9400  144.2240 C   0  0  0  0  0  2  0  0  0  0  0  0
  184.6250  178.5190  146.3410 C   0  0  0  0  0  2  0  0  0  0  0  0
  186.3880  178.4010  144.6740 C   0  0  2  0  0  3  0  0  0  0  0  0
  186.1280  178.5510  146.1680 C   0  0  2  0  0  3  0  0  0  0  0  0
  184.0570  179.0490  145.0350 C   0  0  0  0  0  2  0  0  0  0  0  0
  185.2000  179.0860  144.0260 C   0  0  0  0  0  2  0  0  0  0  0  0
  186.8470  177.5620  147.0380 C   0  0  0  0  0  0  0  0  0  0  0  0
  188.2320  177.5610  147.1150 O   0  0  0  0  0  0  0  0  0  0  0  0
  186.1850  176.7710  147.7590 O   0  0  0  0  0  1  0  0  0  0  0  0
  193.3660  175.4190  144.3850 O   0  0  0  0  0  0  0  0  0  0  0  0
  193.7310  174.8840  145.6510 C   0  0  1  0  0  3  0  0  0  0  0  0
  193.6240  173.4930  145.6250 O   0  0  0  0  0  1  0  0  0  0  0  0
  195.1610  175.2630  145.9610 C   0  0  0  0  0  1  0  0  0  0  0  0
  196.4990  173.9670  141.2660 C   0  0  1  0  0  3  0  0  0  0  0  0
  197.9390  173.4110  143.3600 C   0  0  0  0  0  1  0  0  0  0  0  0
  197.2210  176.8570  143.1450 O   0  0  0  0  0  0  0  0  0  0  0  0
  197.2340  175.6610  142.8230 C   0  0  0  0  0  0  0  0  0  0  0  0
  197.2470  174.4020  142.4840 C   0  0  0  0  0  0  0  0  0  0  0  0
  196.9630  172.5940  140.8110 C   0  0  0  0  0  2  0  0  0  0  0  0
  197.6410  171.6250  138.6750 N   0  0  0  0  0  2  0  0  0  0  0  0
  196.8620  172.1760  137.5660 C   0  0  2  0  0  3  0  0  0  0  0  0
  196.6590  173.6570  137.8010 C   0  0  1  0  0  3  0  0  0  0  0  0
  197.8980  172.7150  139.6130 C   0  0  1  0  0  3  0  0  0  0  0  0
  197.6320  174.0160  138.8970 C   0  0  0  0  0  2  0  0  0  0  0  0
  195.1870  171.2770  136.0830 O   0  0  0  0  0  1  0  0  0  0  0  0
  195.5130  171.4640  137.4280 C   0  0  2  0  0  3  0  0  0  0  0  0
  194.4060  172.2440  138.1160 C   0  0  0  0  0  2  0  0  0  0  0  0
  193.9180  171.5240  139.2060 O   0  0  0  0  0  0  0  0  0  0  0  0
  192.9400  170.6900  138.6680 C   0  0  0  0  0  2  0  0  0  0  0  0
  191.2210  170.7420  137.0170 O   0  0  0  0  0  1  0  0  0  0  0  0
  191.8870  171.5200  137.9640 C   0  0  0  0  0  2  0  0  0  0  0  0
  196.9720  174.4350  136.5350 C   0  0  0  0  0  2  0  0  0  0  0  0
  197.4350  175.7030  136.8620 O   0  0  0  0  0  1  0  0  0  0  0  0
  3  4  2  0  0  0  0
  4  2  1  0  0  0  0
  4  1  1  0  0  0  0
  5 12  1  0  0  0  0
  5  8  1  0  0  0  0
  6  7  1  0  0  0  0
  6 10  1  0  0  0  0
  7  2  1  6  0  0  0
  7 11  1  0  0  0  0
  9  6  2  0  0  0  0
 10  5  2  0  0  0  0
 11  8  2  0  0  0  0
 11 24  1  0  0  0  0
 13 14  2  0  0  0  0
 14 12  1  0  0  0  0
 14 15  1  0  0  0  0
 17 15  1  1  0  0  0
 17 18  1  0  0  0  0
 18 16  1  0  0  0  0
 18 21  1  1  0  0  0
 19 16  1  0  0  0  0
 20 17  1  0  0  0  0
 20 19  1  0  0  0  0
 21 22  2  0  0  0  0
 21 23  1  0  0  0  0
 24 25  1  0  0  0  0
 25 27  1  6  0  0  0
 26 25  1  0  0  0  0
 28 33  1  1  0  0  0
 28  1  1  0  0  0  0
 28 32  1  0  0  0  0
 31 30  2  0  0  0  0
 32 31  2  0  0  0  0
 32 29  1  0  0  0  0
 34 37  1  0  0  0  0
 35 40  1  1  0  0  0
 35 36  1  0  0  0  0
 35 34  1  0  0  0  0
 36 46  1  6  0  0  0
 36 38  1  0  0  0  0
 37 33  1  1  0  0  0
 38 37  1  0  0  0  0
 40 39  1  6  0  0  0
 40 41  1  0  0  0  0
 41 42  1  0  0  0  0
 43 42  1  0  0  0  0
 44 45  1  0  0  0  0
 45 43  1  0  0  0  0
 46 47  1  0  0  0  0
M  END
>  <MODEL>
3

>  <REMARK>
 VINA RESULT:      -5.9      4.194      7.630
  Name = 
  17 active torsions:
  status: ('A' for Active; 'I' for Inactive)
    1  A    between atoms: C_1  and  O_24
    2  A    between atoms: N_3  and  C_8
    3  A    between atoms: N_5  and  C_12
    4  A    between atoms: C_6  and  C_37
    5  A    between atoms: N_10  and  C_23
    6  A    between atoms: C_11  and  C_12
    7  A    between atoms: C_11  and  C_32
    8  A    between atoms: C_12  and  C_31
    9  A    between atoms: C_17  and  C_18
   10  A    between atoms: C_17  and  C_19
   11  A    between atoms: C_19  and  O_41
   12  A    between atoms: C_21  and  C_34
   13  A    between atoms: O_24  and  C_44
   14  A    between atoms: C_29  and  C_45
   15  A    between atoms: C_30  and  C_45
   16  A    between atoms: C_35  and  O_41
   17  A    between atoms: C_35  and  C_47
                            x       y       z     vdW  Elec       q    Type
                         _______ _______ _______ _____ _____    ______ ____

>  <TORSDO>
F 17

$$$$
=
 OpenBabel11042418133D

 47 49  0  0  1  0  0  0  0  0999 V2000
  194.2840  172.9270  141.2760 N   0  0  0  0  0  2  0  0  0  0  0  0
  192.2240  172.6840  142.6300 N   0  0  0  0  0  2  0  0  0  0  0  0
  194.1360  171.4430  143.0720 O   0  0  0  0  0  0  0  0  0  0  0  0
  193.5760  172.3180  142.3600 C   0  0  0  0  0  0  0  0  0  0  0  0
  189.3280  175.0610  143.1720 C   0  0  0  0  0  0  0  0  0  0  0  0
  191.6660  175.0290  142.4870 C   0  0  0  0  0  0  0  0  0  0  0  0
  191.5230  173.6810  141.8340 C   0  0  2  0  0  3  0  0  0  0  0  0
  189.0910  173.8890  142.3110 C   0  0  0  0  0  3  0  0  0  0  0  0
  192.7660  175.6370  142.4360 O   0  0  0  0  0  0  0  0  0  0  0  0
  190.5420  175.6160  143.2270 C   0  0  0  0  0  3  0  0  0  0  0  0
  190.0770  173.2630  141.6570 C   0  0  0  0  0  0  0  0  0  0  0  0
  188.2070  175.6310  143.8640 N   0  0  0  0  0  2  0  0  0  0  0  0
  187.3740  177.0420  142.1800 O   0  0  0  0  0  0  0  0  0  0  0  0
  187.2420  176.5480  143.3320 C   0  0  0  0  0  0  0  0  0  0  0  0
  186.0540  176.9220  144.1570 C   0  0  0  0  0  2  0  0  0  0  0  0
  184.6600  178.5920  146.5050 C   0  0  0  0  0  2  0  0  0  0  0  0
  186.1220  178.3910  144.5750 C   0  0  2  0  0  3  0  0  0  0  0  0
  186.1140  178.5750  146.0880 C   0  0  2  0  0  3  0  0  0  0  0  0
  183.9000  179.1160  145.2980 C   0  0  0  0  0  2  0  0  0  0  0  0
  184.8630  179.1000  144.1150 C   0  0  0  0  0  2  0  0  0  0  0  0
  186.9390  177.5800  146.8510 C   0  0  0  0  0  0  0  0  0  0  0  0
  186.3330  176.6140  147.6420 O   0  0  0  0  0  1  0  0  0  0  0  0
  188.1900  177.5790  146.7200 O   0  0  0  0  0  0  0  0  0  0  0  0
  189.7300  172.2070  140.8090 O   0  0  0  0  0  0  0  0  0  0  0  0
  190.4640  171.8860  139.6350 C   0  0  1  0  0  3  0  0  0  0  0  0
  191.1300  170.6740  139.8100 O   0  0  0  0  0  1  0  0  0  0  0  0
  189.5110  171.7610  138.4670 C   0  0  0  0  0  1  0  0  0  0  0  0
  195.5750  172.4330  140.8250 C   0  0  1  0  0  3  0  0  0  0  0  0
  194.2940  171.8090  138.6490 C   0  0  0  0  0  1  0  0  0  0  0  0
  196.9280  169.5570  139.3060 O   0  0  0  0  0  0  0  0  0  0  0  0
  196.1830  170.5350  139.4600 C   0  0  0  0  0  0  0  0  0  0  0  0
  195.4000  171.5650  139.6220 C   0  0  0  0  0  0  0  0  0  0  0  0
  196.5050  173.5960  140.5200 C   0  0  0  0  0  2  0  0  0  0  0  0
  197.9400  174.9050  141.9960 N   0  0  0  0  0  2  0  0  0  0  0  0
  197.4390  174.9040  143.3710 C   0  0  2  0  0  3  0  0  0  0  0  0
  196.9190  173.5210  143.6980 C   0  0  1  0  0  3  0  0  0  0  0  0
  197.7140  173.5710  141.4460 C   0  0  1  0  0  3  0  0  0  0  0  0
  197.4470  172.6340  142.5980 C   0  0  0  0  0  2  0  0  0  0  0  0
  196.8420  177.2390  143.3710 O   0  0  0  0  0  1  0  0  0  0  0  0
  196.3370  175.9510  143.5600 C   0  0  2  0  0  3  0  0  0  0  0  0
  195.7110  175.8480  144.9400 C   0  0  0  0  0  2  0  0  0  0  0  0
  194.6300  176.7230  145.0420 O   0  0  0  0  0  0  0  0  0  0  0  0
  193.7840  176.1290  145.9770 C   0  0  0  0  0  2  0  0  0  0  0  0
  192.5670  174.0880  145.7860 O   0  0  0  0  0  1  0  0  0  0  0  0
  193.8540  174.6210  145.8480 C   0  0  0  0  0  2  0  0  0  0  0  0
  197.4490  173.0690  145.0480 C   0  0  0  0  0  2  0  0  0  0  0  0
  197.8230  171.7330  144.9850 O   0  0  0  0  0  1  0  0  0  0  0  0
  1  4  1  0  0  0  0
  4  2  1  0  0  0  0
  4  3  2  0  0  0  0
  5 10  2  0  0  0  0
  5 12  1  0  0  0  0
  6 10  1  0  0  0  0
  7  6  1  0  0  0  0
  7  2  1  1  0  0  0
  8  5  1  0  0  0  0
  9  6  2  0  0  0  0
 11  7  1  0  0  0  0
 11  8  2  0  0  0  0
 13 14  2  0  0  0  0
 14 12  1  0  0  0  0
 14 15  1  0  0  0  0
 17 15  1  1  0  0  0
 17 18  1  0  0  0  0
 18 16  1  0  0  0  0
 18 21  1  1  0  0  0
 19 16  1  0  0  0  0
 20 17  1  0  0  0  0
 20 19  1  0  0  0  0
 21 22  1  0  0  0  0
 23 21  2  0  0  0  0
 24 11  1  0  0  0  0
 25 27  1  6  0  0  0
 25 26  1  0  0  0  0
 25 24  1  0  0  0  0
 28 33  1  6  0  0  0
 28  1  1  0  0  0  0
 29 32  1  0  0  0  0
 30 31  2  0  0  0  0
 31 32  2  0  0  0  0
 32 28  1  0  0  0  0
 34 35  1  0  0  0  0
 35 40  1  6  0  0  0
 35 36  1  0  0  0  0
 36 46  1  1  0  0  0
 37 33  1  6  0  0  0
 37 34  1  0  0  0  0
 37 38  1  0  0  0  0
 38 36  1  0  0  0  0
 40 39  1  1  0  0  0
 40 41  1  0  0  0  0
 41 42  1  0  0  0  0
 42 43  1  0  0  0  0
 44 45  1  0  0  0  0
 45 43  1  0  0  0  0
 47 46  1  0  0  0  0
M  END
>  <MODEL>
4

>  <REMARK>
 VINA RESULT:      -5.8      4.050      7.809
  Name = 
  17 active torsions:
  status: ('A' for Active; 'I' for Inactive)
    1  A    between atoms: C_1  and  O_24
    2  A    between atoms: N_3  and  C_8
    3  A    between atoms: N_5  and  C_12
    4  A    between atoms: C_6  and  C_37
    5  A    between atoms: N_10  and  C_23
    6  A    between atoms: C_11  and  C_12
    7  A    between atoms: C_11  and  C_32
    8  A    between atoms: C_12  and  C_31
    9  A    between atoms: C_17  and  C_18
   10  A    between atoms: C_17  and  C_19
   11  A    between atoms: C_19  and  O_41
   12  A    between atoms: C_21  and  C_34
   13  A    between atoms: O_24  and  C_44
   14  A    between atoms: C_29  and  C_45
   15  A    between atoms: C_30  and  C_45
   16  A    between atoms: C_35  and  O_41
   17  A    between atoms: C_35  and  C_47
                            x       y       z     vdW  Elec       q    Type
                         _______ _______ _______ _____ _____    ______ ____

>  <TORSDO>
F 17

$$$$
=
 OpenBabel11042418133D

 47 49  0  0  1  0  0  0  0  0999 V2000
  194.6220  173.4670  141.0000 N   0  0  0  0  0  2  0  0  0  0  0  0
  193.0100  175.2390  141.6310 N   0  0  0  0  0  2  0  0  0  0  0  0
  194.4680  175.4870  139.8400 O   0  0  0  0  0  0  0  0  0  0  0  0
  194.0490  174.7590  140.7780 C   0  0  0  0  0  0  0  0  0  0  0  0
  189.8720  175.2310  143.7470 C   0  0  0  0  0  0  0  0  0  0  0  0
  191.2110  173.7820  142.3160 C   0  0  0  0  0  0  0  0  0  0  0  0
  192.4940  174.4460  142.7360 C   0  0  2  0  0  3  0  0  0  0  0  0
  191.1160  175.7040  144.3810 C   0  0  0  0  0  3  0  0  0  0  0  0
  191.2390  172.8100  141.5190 O   0  0  0  0  0  0  0  0  0  0  0  0
  189.9200  174.2980  142.7920 C   0  0  0  0  0  3  0  0  0  0  0  0
  192.3280  175.3280  143.9580 C   0  0  0  0  0  0  0  0  0  0  0  0
  188.6230  175.7300  144.2490 N   0  0  0  0  0  2  0  0  0  0  0  0
  188.1010  177.2740  142.5570 O   0  0  0  0  0  0  0  0  0  0  0  0
  187.7590  176.6820  143.6150 C   0  0  0  0  0  0  0  0  0  0  0  0
  186.4230  176.9720  144.2160 C   0  0  0  0  0  2  0  0  0  0  0  0
  184.5040  178.5190  146.2590 C   0  0  0  0  0  2  0  0  0  0  0  0
  186.3320  178.4320  144.6620 C   0  0  2  0  0  3  0  0  0  0  0  0
  186.0110  178.5780  146.1440 C   0  0  2  0  0  3  0  0  0  0  0  0
  183.9770  179.0370  144.9320 C   0  0  0  0  0  2  0  0  0  0  0  0
  185.1570  179.0940  143.9680 C   0  0  0  0  0  2  0  0  0  0  0  0
  186.7140  177.6040  147.0430 C   0  0  0  0  0  0  0  0  0  0  0  0
  188.0980  177.6040  147.1460 O   0  0  0  0  0  0  0  0  0  0  0  0
  186.0390  176.8230  147.7630 O   0  0  0  0  0  1  0  0  0  0  0  0
  193.4390  175.7790  144.6790 O   0  0  0  0  0  0  0  0  0  0  0  0
  194.7570  175.3020  144.4440 C   0  0  1  0  0  3  0  0  0  0  0  0
  195.5070  176.2830  143.7970 O   0  0  0  0  0  1  0  0  0  0  0  0
  195.4130  174.9700  145.7650 C   0  0  0  0  0  1  0  0  0  0  0  0
  195.8230  173.0280  140.3070 C   0  0  1  0  0  3  0  0  0  0  0  0
  197.1970  171.1470  141.4640 C   0  0  0  0  0  1  0  0  0  0  0  0
  197.9410  174.3230  142.8060 O   0  0  0  0  0  0  0  0  0  0  0  0
  197.4120  173.4780  142.0690 C   0  0  0  0  0  0  0  0  0  0  0  0
  196.8540  172.5900  141.2950 C   0  0  0  0  0  0  0  0  0  0  0  0
  195.4890  171.9030  139.3410 C   0  0  0  0  0  2  0  0  0  0  0  0
  195.4870  171.5360  136.9280 N   0  0  0  0  0  2  0  0  0  0  0  0
  194.9190  172.6790  136.2120 C   0  0  2  0  0  3  0  0  0  0  0  0
  195.3900  173.9540  136.8780 C   0  0  1  0  0  3  0  0  0  0  0  0
  196.2710  172.0630  138.0430 C   0  0  1  0  0  3  0  0  0  0  0  0
  196.5200  173.5280  137.7820 C   0  0  0  0  0  2  0  0  0  0  0  0
  192.8950  172.9460  134.9310 O   0  0  0  0  0  1  0  0  0  0  0  0
  193.3880  172.6150  136.1940 C   0  0  2  0  0  3  0  0  0  0  0  0
  192.7870  173.5440  137.2340 C   0  0  0  0  0  2  0  0  0  0  0  0
  192.3530  172.8120  138.3390 O   0  0  0  0  0  0  0  0  0  0  0  0
  191.7270  171.6930  137.7950 C   0  0  0  0  0  2  0  0  0  0  0  0
  189.9760  170.4190  138.7940 O   0  0  0  0  0  1  0  0  0  0  0  0
  190.2740  171.6570  138.2260 C   0  0  0  0  0  2  0  0  0  0  0  0
  195.8850  174.9360  135.8310 C   0  0  0  0  0  2  0  0  0  0  0  0
  196.6220  175.9440  136.4420 O   0  0  0  0  0  1  0  0  0  0  0  0
  3  4  2  0  0  0  0
  4  1  1  0  0  0  0
  4  2  1  0  0  0  0
  5 12  1  0  0  0  0
  5  8  1  0  0  0  0
  6  7  1  0  0  0  0
  6 10  1  0  0  0  0
  7  2  1  6  0  0  0
  7 11  1  0  0  0  0
  9  6  2  0  0  0  0
 10  5  2  0  0  0  0
 11  8  2  0  0  0  0
 11 24  1  0  0  0  0
 13 14  2  0  0  0  0
 14 15  1  0  0  0  0
 14 12  1  0  0  0  0
 17 15  1  6  0  0  0
 17 18  1  0  0  0  0
 18 16  1  0  0  0  0
 18 21  1  1  0  0  0
 19 16  1  0  0  0  0
 20 17  1  0  0  0  0
 20 19  1  0  0  0  0
 21 22  2  0  0  0  0
 21 23  1  0  0  0  0
 25 24  1  0  0  0  0
 25 27  1  1  0  0  0
 26 25  1  0  0  0  0
 28 33  1  6  0  0  0
 28  1  1  0  0  0  0
 28 32  1  0  0  0  0
 31 30  2  0  0  0  0
 32 29  1  0  0  0  0
 32 31  2  0  0  0  0
 34 37  1  0  0  0  0
 35 40  1  1  0  0  0
 35 36  1  0  0  0  0
 35 34  1  0  0  0  0
 36 46  1  6  0  0  0
 36 38  1  0  0  0  0
 37 33  1  1  0  0  0
 38 37  1  0  0  0  0
 40 39  1  6  0  0  0
 40 41  1  0  0  0  0
 41 42  1  0  0  0  0
 43 45  1  0  0  0  0
 43 42  1  0  0  0  0
 45 44  1  0  0  0  0
 46 47  1  0  0  0  0
M  END
>  <MODEL>
5

>  <REMARK>
 VINA RESULT:      -5.5      4.148      7.785
  Name = 
  17 active torsions:
  status: ('A' for Active; 'I' for Inactive)
    1  A    between atoms: C_1  and  O_24
    2  A    between atoms: N_3  and  C_8
    3  A    between atoms: N_5  and  C_12
    4  A    between atoms: C_6  and  C_37
    5  A    between atoms: N_10  and  C_23
    6  A    between atoms: C_11  and  C_12
    7  A    between atoms: C_11  and  C_32
    8  A    between atoms: C_12  and  C_31
    9  A    between atoms: C_17  and  C_18
   10  A    between atoms: C_17  and  C_19
   11  A    between atoms: C_19  and  O_41
   12  A    between atoms: C_21  and  C_34
   13  A    between atoms: O_24  and  C_44
   14  A    between atoms: C_29  and  C_45
   15  A    between atoms: C_30  and  C_45
   16  A    between atoms: C_35  and  O_41
   17  A    between atoms: C_35  and  C_47
                            x       y       z     vdW  Elec       q    Type
                         _______ _______ _______ _____ _____    ______ ____

>  <TORSDO>
F 17

$$$$
=
 OpenBabel11042418133D

 47 49  0  0  1  0  0  0  0  0999 V2000
  194.6090  173.5010  141.5930 N   0  0  0  0  0  2  0  0  0  0  0  0
  192.4470  174.6960  141.7680 N   0  0  0  0  0  2  0  0  0  0  0  0
  193.7030  174.7100  139.8140 O   0  0  0  0  0  0  0  0  0  0  0  0
  193.5900  174.3130  141.0040 C   0  0  0  0  0  0  0  0  0  0  0  0
  190.0790  175.5560  144.5930 C   0  0  0  0  0  0  0  0  0  0  0  0
  190.9070  173.6570  143.3090 C   0  0  0  0  0  0  0  0  0  0  0  0
  192.2690  174.2770  143.1490 C   0  0  2  0  0  3  0  0  0  0  0  0
  191.4630  176.0520  144.6930 C   0  0  0  0  0  3  0  0  0  0  0  0
  190.6810  172.5110  142.8420 O   0  0  0  0  0  0  0  0  0  0  0  0
  189.8250  174.4040  143.9640 C   0  0  0  0  0  3  0  0  0  0  0  0
  192.4880  175.4600  144.0710 C   0  0  0  0  0  0  0  0  0  0  0  0
  189.0450  176.2900  145.2640 N   0  0  0  0  0  2  0  0  0  0  0  0
  188.7160  178.0240  143.7140 O   0  0  0  0  0  0  0  0  0  0  0  0
  188.3630  177.4550  144.7810 C   0  0  0  0  0  0  0  0  0  0  0  0
  187.2060  178.0000  145.5530 C   0  0  0  0  0  2  0  0  0  0  0  0
  184.1010  178.7620  145.7050 C   0  0  0  0  0  2  0  0  0  0  0  0
  185.9250  177.2300  145.2300 C   0  0  2  0  0  3  0  0  0  0  0  0
  184.8610  178.1030  144.5760 C   0  0  2  0  0  3  0  0  0  0  0  0
  184.2140  177.8050  146.8800 C   0  0  0  0  0  2  0  0  0  0  0  0
  185.2770  176.7730  146.5230 C   0  0  0  0  0  2  0  0  0  0  0  0
  185.3780  179.0780  143.5590 C   0  0  0  0  0  0  0  0  0  0  0  0
  185.5630  180.4140  143.8870 O   0  0  0  0  0  1  0  0  0  0  0  0
  185.7120  178.6680  142.4180 O   0  0  0  0  0  0  0  0  0  0  0  0
  193.7710  175.9720  144.2940 O   0  0  0  0  0  0  0  0  0  0  0  0
  194.3160  176.1490  145.5950 C   0  0  1  0  0  3  0  0  0  0  0  0
  195.3150  175.2040  145.8230 O   0  0  0  0  0  1  0  0  0  0  0  0
  194.9130  177.5350  145.7030 C   0  0  0  0  0  1  0  0  0  0  0  0
  195.8870  173.2710  140.9370 C   0  0  1  0  0  3  0  0  0  0  0  0
  197.1730  174.6490  142.7300 C   0  0  0  0  0  1  0  0  0  0  0  0
  197.8560  175.7940  139.4650 O   0  0  0  0  0  0  0  0  0  0  0  0
  197.3670  175.0910  140.3600 C   0  0  0  0  0  0  0  0  0  0  0  0
  196.8520  174.3510  141.3030 C   0  0  0  0  0  0  0  0  0  0  0  0
  196.4350  171.9060  141.3190 C   0  0  0  0  0  2  0  0  0  0  0  0
  196.1020  169.6450  140.4650 N   0  0  0  0  0  2  0  0  0  0  0  0
  194.7350  169.4500  139.9810 C   0  0  2  0  0  3  0  0  0  0  0  0
  194.2900  170.7040  139.2610 C   0  0  1  0  0  3  0  0  0  0  0  0
  196.5080  170.9990  140.0970 C   0  0  1  0  0  3  0  0  0  0  0  0
  195.5530  171.4980  139.0400 C   0  0  0  0  0  2  0  0  0  0  0  0
  193.1200  170.2740  141.5700 O   0  0  0  0  0  1  0  0  0  0  0  0
  193.7810  169.1240  141.1340 C   0  0  2  0  0  3  0  0  0  0  0  0
  194.5220  168.4910  142.2990 C   0  0  0  0  0  2  0  0  0  0  0  0
  194.3060  169.2290  143.4620 O   0  0  0  0  0  0  0  0  0  0  0  0
  195.5650  169.3440  144.0460 C   0  0  0  0  0  2  0  0  0  0  0  0
  194.4190  169.0840  146.1210 O   0  0  0  0  0  1  0  0  0  0  0  0
  195.5580  168.6960  145.4160 C   0  0  0  0  0  2  0  0  0  0  0  0
  193.6480  170.3440  137.9330 C   0  0  0  0  0  2  0  0  0  0  0  0
  194.3810  169.3400  137.3120 O   0  0  0  0  0  1  0  0  0  0  0  0
  3  4  2  0  0  0  0
  4  1  1  0  0  0  0
  4  2  1  0  0  0  0
  5  8  1  0  0  0  0
  5 12  1  0  0  0  0
  6 10  1  0  0  0  0
  7  2  1  6  0  0  0
  7  6  1  0  0  0  0
  7 11  1  0  0  0  0
  9  6  2  0  0  0  0
 10  5  2  0  0  0  0
 11 24  1  0  0  0  0
 11  8  2  0  0  0  0
 13 14  2  0  0  0  0
 14 12  1  0  0  0  0
 14 15  1  0  0  0  0
 16 19  1  0  0  0  0
 17 15  1  1  0  0  0
 17 20  1  0  0  0  0
 18 21  1  6  0  0  0
 18 17  1  0  0  0  0
 18 16  1  0  0  0  0
 20 19  1  0  0  0  0
 21 22  1  0  0  0  0
 23 21  2  0  0  0  0
 24 25  1  0  0  0  0
 25 27  1  6  0  0  0
 25 26  1  0  0  0  0
 28 32  1  0  0  0  0
 28 33  1  1  0  0  0
 28  1  1  0  0  0  0
 30 31  2  0  0  0  0
 31 32  2  0  0  0  0
 32 29  1  0  0  0  0
 35 34  1  0  0  0  0
 35 40  1  1  0  0  0
 36 46  1  6  0  0  0
 36 35  1  0  0  0  0
 37 34  1  0  0  0  0
 37 33  1  1  0  0  0
 38 36  1  0  0  0  0
 38 37  1  0  0  0  0
 40 39  1  1  0  0  0
 40 41  1  0  0  0  0
 41 42  1  0  0  0  0
 42 43  1  0  0  0  0
 43 45  1  0  0  0  0
 45 44  1  0  0  0  0
 47 46  1  0  0  0  0
M  END
>  <MODEL>
6

>  <REMARK>
 VINA RESULT:      -5.5      4.067      7.661
  Name = 
  17 active torsions:
  status: ('A' for Active; 'I' for Inactive)
    1  A    between atoms: C_1  and  O_24
    2  A    between atoms: N_3  and  C_8
    3  A    between atoms: N_5  and  C_12
    4  A    between atoms: C_6  and  C_37
    5  A    between atoms: N_10  and  C_23
    6  A    between atoms: C_11  and  C_12
    7  A    between atoms: C_11  and  C_32
    8  A    between atoms: C_12  and  C_31
    9  A    between atoms: C_17  and  C_18
   10  A    between atoms: C_17  and  C_19
   11  A    between atoms: C_19  and  O_41
   12  A    between atoms: C_21  and  C_34
   13  A    between atoms: O_24  and  C_44
   14  A    between atoms: C_29  and  C_45
   15  A    between atoms: C_30  and  C_45
   16  A    between atoms: C_35  and  O_41
   17  A    between atoms: C_35  and  C_47
                            x       y       z     vdW  Elec       q    Type
                         _______ _______ _______ _____ _____    ______ ____

>  <TORSDO>
F 17

$$$$
=
 OpenBabel11042418133D

 47 49  0  0  1  0  0  0  0  0999 V2000
  192.0270  171.0440  140.7130 N   0  0  0  0  0  2  0  0  0  0  0  0
  190.3950  171.6350  142.4800 N   0  0  0  0  0  2  0  0  0  0  0  0
  190.4680  169.5140  141.5370 O   0  0  0  0  0  0  0  0  0  0  0  0
  190.9480  170.6780  141.5780 C   0  0  0  0  0  0  0  0  0  0  0  0
  189.1350  174.9340  143.8440 C   0  0  0  0  0  0  0  0  0  0  0  0
  191.0190  173.3970  144.0080 C   0  0  0  0  0  0  0  0  0  0  0  0
  190.9010  172.9960  142.5620 C   0  0  2  0  0  3  0  0  0  0  0  0
  189.1730  174.7760  142.3790 C   0  0  0  0  0  3  0  0  0  0  0  0
  191.9420  172.9190  144.7170 O   0  0  0  0  0  0  0  0  0  0  0  0
  190.0320  174.3040  144.6080 C   0  0  0  0  0  3  0  0  0  0  0  0
  190.0010  173.9220  141.7670 C   0  0  0  0  0  0  0  0  0  0  0  0
  188.1790  175.8460  144.4030 N   0  0  0  0  0  2  0  0  0  0  0  0
  189.6370  177.4010  145.3890 O   0  0  0  0  0  0  0  0  0  0  0  0
  188.4570  177.0670  145.0990 C   0  0  0  0  0  0  0  0  0  0  0  0
  187.3280  177.9670  145.4820 C   0  0  0  0  0  2  0  0  0  0  0  0
  184.2990  178.9620  145.7650 C   0  0  0  0  0  2  0  0  0  0  0  0
  185.9820  177.3180  145.1610 C   0  0  2  0  0  3  0  0  0  0  0  0
  184.9740  178.3040  144.5830 C   0  0  2  0  0  3  0  0  0  0  0  0
  184.3650  177.9400  146.8880 C   0  0  0  0  0  2  0  0  0  0  0  0
  185.3340  176.8470  146.4480 C   0  0  0  0  0  2  0  0  0  0  0  0
  185.5410  179.2860  143.6000 C   0  0  0  0  0  0  0  0  0  0  0  0
  185.9600  178.8720  142.3440 O   0  0  0  0  0  0  0  0  0  0  0  0
  185.5750  180.5090  143.8920 O   0  0  0  0  0  1  0  0  0  0  0  0
  190.0050  173.9060  140.3690 O   0  0  0  0  0  0  0  0  0  0  0  0
  188.8160  173.8200  139.5940 C   0  0  1  0  0  3  0  0  0  0  0  0
  189.0860  174.1760  138.2730 O   0  0  0  0  0  1  0  0  0  0  0  0
  188.2990  172.3990  139.6260 C   0  0  0  0  0  1  0  0  0  0  0  0
  192.4730  170.1810  139.6300 C   0  0  1  0  0  3  0  0  0  0  0  0
  190.6960  169.2960  137.9490 C   0  0  0  0  0  1  0  0  0  0  0  0
  191.7930  172.5390  137.1030 O   0  0  0  0  0  0  0  0  0  0  0  0
  191.7020  171.4860  137.7490 C   0  0  0  0  0  0  0  0  0  0  0  0
  191.6070  170.3770  138.4290 C   0  0  0  0  0  0  0  0  0  0  0  0
  193.9280  170.4650  139.2990 C   0  0  0  0  0  2  0  0  0  0  0  0
  196.1270  169.8810  140.1820 N   0  0  0  0  0  2  0  0  0  0  0  0
  196.1610  169.9770  141.6420 C   0  0  2  0  0  3  0  0  0  0  0  0
  194.8550  169.4490  142.1950 C   0  0  1  0  0  3  0  0  0  0  0  0
  194.8220  169.3410  139.8090 C   0  0  1  0  0  3  0  0  0  0  0  0
  194.2050  168.7270  141.0410 C   0  0  0  0  0  2  0  0  0  0  0  0
  196.9950  172.1690  141.0820 O   0  0  0  0  0  1  0  0  0  0  0  0
  196.3930  171.4210  142.0970 C   0  0  2  0  0  3  0  0  0  0  0  0
  197.2550  171.4730  143.3460 C   0  0  0  0  0  2  0  0  0  0  0  0
  197.9410  172.6850  143.4060 O   0  0  0  0  0  0  0  0  0  0  0  0
  197.4710  173.3000  144.5640 C   0  0  0  0  0  2  0  0  0  0  0  0
  195.2490  174.1450  144.3770 O   0  0  0  0  0  1  0  0  0  0  0  0
  196.5910  174.4790  144.1990 C   0  0  0  0  0  2  0  0  0  0  0  0
  195.1240  168.4900  143.3410 C   0  0  0  0  0  2  0  0  0  0  0  0
  195.0340  169.1650  144.5520 O   0  0  0  0  0  1  0  0  0  0  0  0
  1  4  1  0  0  0  0
  3  4  2  0  0  0  0
  4  2  1  0  0  0  0
  5 12  1  0  0  0  0
  5 10  2  0  0  0  0
  6 10  1  0  0  0  0
  6  9  2  0  0  0  0
  7  2  1  1  0  0  0
  7  6  1  0  0  0  0
  8  5  1  0  0  0  0
 11  8  2  0  0  0  0
 11  7  1  0  0  0  0
 12 14  1  0  0  0  0
 14 13  2  0  0  0  0
 14 15  1  0  0  0  0
 16 19  1  0  0  0  0
 17 15  1  1  0  0  0
 17 20  1  0  0  0  0
 18 21  1  1  0  0  0
 18 17  1  0  0  0  0
 18 16  1  0  0  0  0
 20 19  1  0  0  0  0
 21 23  1  0  0  0  0
 22 21  2  0  0  0  0
 24 11  1  0  0  0  0
 25 27  1  6  0  0  0
 25 24  1  0  0  0  0
 26 25  1  0  0  0  0
 28 33  1  6  0  0  0
 28  1  1  0  0  0  0
 29 32  1  0  0  0  0
 30 31  2  0  0  0  0
 31 32  2  0  0  0  0
 32 28  1  0  0  0  0
 34 35  1  0  0  0  0
 35 40  1  6  0  0  0
 35 36  1  0  0  0  0
 36 46  1  1  0  0  0
 37 33  1  1  0  0  0
 37 34  1  0  0  0  0
 37 38  1  0  0  0  0
 38 36  1  0  0  0  0
 40 39  1  6  0  0  0
 40 41  1  0  0  0  0
 41 42  1  0  0  0  0
 42 43  1  0  0  0  0
 45 44  1  0  0  0  0
 45 43  1  0  0  0  0
 46 47  1  0  0  0  0
M  END
>  <MODEL>
7

>  <REMARK>
 VINA RESULT:      -5.5      4.056      7.791
  Name = 
  17 active torsions:
  status: ('A' for Active; 'I' for Inactive)
    1  A    between atoms: C_1  and  O_24
    2  A    between atoms: N_3  and  C_8
    3  A    between atoms: N_5  and  C_12
    4  A    between atoms: C_6  and  C_37
    5  A    between atoms: N_10  and  C_23
    6  A    between atoms: C_11  and  C_12
    7  A    between atoms: C_11  and  C_32
    8  A    between atoms: C_12  and  C_31
    9  A    between atoms: C_17  and  C_18
   10  A    between atoms: C_17  and  C_19
   11  A    between atoms: C_19  and  O_41
   12  A    between atoms: C_21  and  C_34
   13  A    between atoms: O_24  and  C_44
   14  A    between atoms: C_29  and  C_45
   15  A    between atoms: C_30  and  C_45
   16  A    between atoms: C_35  and  O_41
   17  A    between atoms: C_35  and  C_47
                            x       y       z     vdW  Elec       q    Type
                         _______ _______ _______ _____ _____    ______ ____

>  <TORSDO>
F 17

$$$$
=
 OpenBabel11042418133D

 47 49  0  0  1  0  0  0  0  0999 V2000
  194.7780  173.1320  140.5720 N   0  0  0  0  0  2  0  0  0  0  0  0
  192.8820  174.7040  140.8380 N   0  0  0  0  0  2  0  0  0  0  0  0
  194.9100  175.3700  139.9240 O   0  0  0  0  0  0  0  0  0  0  0  0
  194.2200  174.4400  140.4170 C   0  0  0  0  0  0  0  0  0  0  0  0
  189.4940  174.5760  142.5220 C   0  0  0  0  0  0  0  0  0  0  0  0
  190.7420  173.6000  140.6700 C   0  0  0  0  0  0  0  0  0  0  0  0
  192.0420  173.6710  141.4240 C   0  0  2  0  0  3  0  0  0  0  0  0
  190.6830  174.4010  143.3750 C   0  0  0  0  0  3  0  0  0  0  0  0
  190.7120  173.0920  139.5200 O   0  0  0  0  0  0  0  0  0  0  0  0
  189.5170  174.1660  141.2500 C   0  0  0  0  0  3  0  0  0  0  0  0
  191.8500  173.9510  142.9020 C   0  0  0  0  0  0  0  0  0  0  0  0
  188.3020  175.1070  143.1190 N   0  0  0  0  0  2  0  0  0  0  0  0
  188.9050  177.3730  143.2690 O   0  0  0  0  0  0  0  0  0  0  0  0
  188.0260  176.4820  143.4160 C   0  0  0  0  0  0  0  0  0  0  0  0
  186.6680  176.8690  143.9020 C   0  0  0  0  0  2  0  0  0  0  0  0
  184.7000  178.5490  145.7870 C   0  0  0  0  0  2  0  0  0  0  0  0
  186.6450  178.3310  144.3480 C   0  0  2  0  0  3  0  0  0  0  0  0
  186.2120  178.4990  145.7990 C   0  0  2  0  0  3  0  0  0  0  0  0
  184.3250  179.1040  144.4230 C   0  0  0  0  0  2  0  0  0  0  0  0
  185.5830  179.0760  143.5620 C   0  0  0  0  0  2  0  0  0  0  0  0
  186.7650  177.4770  146.7480 C   0  0  0  0  0  0  0  0  0  0  0  0
  188.1350  177.2930  146.8730 O   0  0  0  0  0  0  0  0  0  0  0  0
  185.9820  176.8260  147.4870 O   0  0  0  0  0  1  0  0  0  0  0  0
  192.8910  173.7530  143.8140 O   0  0  0  0  0  0  0  0  0  0  0  0
  193.3010  172.4630  144.2510 C   0  0  1  0  0  3  0  0  0  0  0  0
  193.6930  172.5180  145.5880 O   0  0  0  0  0  1  0  0  0  0  0  0
  192.1440  171.4980  144.1160 C   0  0  0  0  0  1  0  0  0  0  0  0
  196.1940  172.8700  140.3680 C   0  0  1  0  0  3  0  0  0  0  0  0
  197.1290  170.8320  139.0480 C   0  0  0  0  0  1  0  0  0  0  0  0
  195.6050  173.1860  136.9090 O   0  0  0  0  0  0  0  0  0  0  0  0
  195.9910  172.6730  137.9690 C   0  0  0  0  0  0  0  0  0  0  0  0
  196.3980  172.1340  139.0840 C   0  0  0  0  0  0  0  0  0  0  0  0
  196.9750  174.1720  140.3730 C   0  0  0  0  0  2  0  0  0  0  0  0
  197.6940  175.4090  142.3500 N   0  0  0  0  0  2  0  0  0  0  0  0
  196.9500  174.9970  143.5410 C   0  0  2  0  0  3  0  0  0  0  0  0
  196.7600  173.4960  143.5000 C   0  0  1  0  0  3  0  0  0  0  0  0
  197.9410  174.2120  141.5510 C   0  0  1  0  0  3  0  0  0  0  0  0
  197.7090  173.0100  142.4340 C   0  0  0  0  0  2  0  0  0  0  0  0
  195.5610  176.8040  142.7560 O   0  0  0  0  0  1  0  0  0  0  0  0
  195.5970  175.7090  143.6230 C   0  0  2  0  0  3  0  0  0  0  0  0
  195.3040  176.1730  145.0390 C   0  0  0  0  0  2  0  0  0  0  0  0
  193.9400  176.4190  145.1910 O   0  0  0  0  0  0  0  0  0  0  0  0
  193.6240  175.8920  146.4410 C   0  0  0  0  0  2  0  0  0  0  0  0
  191.5590  176.8250  145.6990 O   0  0  0  0  0  1  0  0  0  0  0  0
  192.1850  176.2190  146.7870 C   0  0  0  0  0  2  0  0  0  0  0  0
  197.1130  172.8880  144.8460 C   0  0  0  0  0  2  0  0  0  0  0  0
  197.6300  173.8680  145.6840 O   0  0  0  0  0  1  0  0  0  0  0  0
  3  4  2  0  0  0  0
  4  1  1  0  0  0  0
  4  2  1  0  0  0  0
  5 12  1  0  0  0  0
  5  8  1  0  0  0  0
  6 10  1  0  0  0  0
  6  7  1  0  0  0  0
  7  2  1  6  0  0  0
  7 11  1  0  0  0  0
  9  6  2  0  0  0  0
 10  5  2  0  0  0  0
 11  8  2  0  0  0  0
 11 24  1  0  0  0  0
 12 14  1  0  0  0  0
 13 14  2  0  0  0  0
 14 15  1  0  0  0  0
 16 18  1  0  0  0  0
 17 15  1  6  0  0  0
 17 18  1  0  0  0  0
 18 21  1  1  0  0  0
 19 16  1  0  0  0  0
 20 17  1  0  0  0  0
 20 19  1  0  0  0  0
 21 22  2  0  0  0  0
 21 23  1  0  0  0  0
 24 25  1  0  0  0  0
 25 27  1  1  0  0  0
 25 26  1  0  0  0  0
 28 33  1  6  0  0  0
 28  1  1  0  0  0  0
 29 32  1  0  0  0  0
 30 31  2  0  0  0  0
 31 32  2  0  0  0  0
 32 28  1  0  0  0  0
 34 35  1  0  0  0  0
 35 40  1  6  0  0  0
 36 35  1  0  0  0  0
 36 46  1  1  0  0  0
 37 33  1  6  0  0  0
 37 34  1  0  0  0  0
 37 38  1  0  0  0  0
 38 36  1  0  0  0  0
 40 39  1  6  0  0  0
 40 41  1  0  0  0  0
 41 42  1  0  0  0  0
 42 43  1  0  0  0  0
 43 45  1  0  0  0  0
 44 45  1  0  0  0  0
 46 47  1  0  0  0  0
M  END
>  <MODEL>
8

>  <REMARK>
 VINA RESULT:      -5.5      4.276      7.817
  Name = 
  17 active torsions:
  status: ('A' for Active; 'I' for Inactive)
    1  A    between atoms: C_1  and  O_24
    2  A    between atoms: N_3  and  C_8
    3  A    between atoms: N_5  and  C_12
    4  A    between atoms: C_6  and  C_37
    5  A    between atoms: N_10  and  C_23
    6  A    between atoms: C_11  and  C_12
    7  A    between atoms: C_11  and  C_32
    8  A    between atoms: C_12  and  C_31
    9  A    between atoms: C_17  and  C_18
   10  A    between atoms: C_17  and  C_19
   11  A    between atoms: C_19  and  O_41
   12  A    between atoms: C_21  and  C_34
   13  A    between atoms: O_24  and  C_44
   14  A    between atoms: C_29  and  C_45
   15  A    between atoms: C_30  and  C_45
   16  A    between atoms: C_35  and  O_41
   17  A    between atoms: C_35  and  C_47
                            x       y       z     vdW  Elec       q    Type
                         _______ _______ _______ _____ _____    ______ ____

>  <TORSDO>
F 17

$$$$
=
 OpenBabel11042418133D

 47 49  0  0  1  0  0  0  0  0999 V2000
  195.3120  173.5070  143.8480 N   0  0  0  0  0  2  0  0  0  0  0  0
  192.8530  173.6550  144.1020 N   0  0  0  0  0  2  0  0  0  0  0  0
  194.0530  171.8060  144.8330 O   0  0  0  0  0  0  0  0  0  0  0  0
  194.0750  172.9420  144.2900 C   0  0  0  0  0  0  0  0  0  0  0  0
  190.5140  176.6310  144.1360 C   0  0  0  0  0  0  0  0  0  0  0  0
  192.8420  176.0300  144.5360 C   0  0  0  0  0  0  0  0  0  0  0  0
  192.8170  174.9660  143.4720 C   0  0  2  0  0  3  0  0  0  0  0  0
  190.5420  175.8040  142.9160 C   0  0  0  0  0  3  0  0  0  0  0  0
  193.9070  176.2660  145.1620 O   0  0  0  0  0  0  0  0  0  0  0  0
  191.6150  176.7600  144.8820 C   0  0  0  0  0  3  0  0  0  0  0  0
  191.6010  175.0620  142.5720 C   0  0  0  0  0  0  0  0  0  0  0  0
  189.3120  177.3550  144.4370 N   0  0  0  0  0  2  0  0  0  0  0  0
  188.2860  175.8340  145.9030 O   0  0  0  0  0  0  0  0  0  0  0  0
  188.2760  176.9640  145.3470 C   0  0  0  0  0  0  0  0  0  0  0  0
  187.1660  177.9170  145.6470 C   0  0  0  0  0  2  0  0  0  0  0  0
  184.2550  179.0070  144.8820 C   0  0  0  0  0  2  0  0  0  0  0  0
  185.8060  177.2370  145.4860 C   0  0  2  0  0  3  0  0  0  0  0  0
  184.9940  177.8080  144.3290 C   0  0  2  0  0  3  0  0  0  0  0  0
  184.0670  178.7180  146.3620 C   0  0  0  0  0  2  0  0  0  0  0  0
  184.9540  177.5270  146.7070 C   0  0  0  0  0  2  0  0  0  0  0  0
  185.7850  178.1170  143.0920 C   0  0  0  0  0  0  0  0  0  0  0  0
  186.1710  177.1050  142.2250 O   0  0  0  0  0  0  0  0  0  0  0  0
  186.0430  179.3140  142.8010 O   0  0  0  0  0  1  0  0  0  0  0  0
  191.5470  174.3740  141.3560 O   0  0  0  0  0  0  0  0  0  0  0  0
  190.5500  173.4040  141.0610 C   0  0  1  0  0  3  0  0  0  0  0  0
  190.1850  173.4940  139.7180 O   0  0  0  0  0  1  0  0  0  0  0  0
  191.1010  172.0210  141.3300 C   0  0  0  0  0  1  0  0  0  0  0  0
  196.5440  172.7330  143.8150 C   0  0  1  0  0  3  0  0  0  0  0  0
  197.1290  173.3770  146.2660 C   0  0  0  0  0  1  0  0  0  0  0  0
  197.4510  169.9090  145.7150 O   0  0  0  0  0  0  0  0  0  0  0  0
  197.2040  171.0970  145.4650 C   0  0  0  0  0  0  0  0  0  0  0  0
  196.9440  172.3470  145.2010 C   0  0  0  0  0  0  0  0  0  0  0  0
  196.3660  171.5020  142.9420 C   0  0  0  0  0  2  0  0  0  0  0  0
  196.9680  170.7190  140.7110 N   0  0  0  0  0  2  0  0  0  0  0  0
  196.6560  171.7200  139.6890 C   0  0  2  0  0  3  0  0  0  0  0  0
  196.9990  173.0910  140.2300 C   0  0  1  0  0  3  0  0  0  0  0  0
  197.4620  171.4320  141.8860 C   0  0  1  0  0  3  0  0  0  0  0  0
  197.8370  172.8290  141.4570 C   0  0  0  0  0  2  0  0  0  0  0  0
  195.0540  171.4760  137.9040 O   0  0  0  0  0  1  0  0  0  0  0  0
  195.1800  171.6550  139.2830 C   0  0  2  0  0  3  0  0  0  0  0  0
  194.4390  172.9130  139.7020 C   0  0  0  0  0  2  0  0  0  0  0  0
  193.3630  173.1430  138.8450 O   0  0  0  0  0  0  0  0  0  0  0  0
  193.4300  174.5040  138.5540 C   0  0  0  0  0  2  0  0  0  0  0  0
  191.5880  174.7030  137.0530 O   0  0  0  0  0  1  0  0  0  0  0  0
  192.9800  174.7460  137.1270 C   0  0  0  0  0  2  0  0  0  0  0  0
  197.7910  173.8760  139.2000 C   0  0  0  0  0  2  0  0  0  0  0  0
  197.9400  173.1200  138.0440 O   0  0  0  0  0  1  0  0  0  0  0  0
  1  4  1  0  0  0  0
  2  4  1  0  0  0  0
  4  3  2  0  0  0  0
  5 12  1  0  0  0  0
  5 10  2  0  0  0  0
  6 10  1  0  0  0  0
  6  9  2  0  0  0  0
  7  2  1  1  0  0  0
  7  6  1  0  0  0  0
  8  5  1  0  0  0  0
 11  8  2  0  0  0  0
 11  7  1  0  0  0  0
 12 14  1  0  0  0  0
 14 15  1  0  0  0  0
 14 13  2  0  0  0  0
 16 19  1  0  0  0  0
 17 15  1  1  0  0  0
 17 20  1  0  0  0  0
 18 21  1  6  0  0  0
 18 16  1  0  0  0  0
 18 17  1  0  0  0  0
 19 20  1  0  0  0  0
 22 21  2  0  0  0  0
 23 21  1  0  0  0  0
 24 11  1  0  0  0  0
 25 27  1  6  0  0  0
 25 24  1  0  0  0  0
 26 25  1  0  0  0  0
 28 33  1  6  0  0  0
 28  1  1  0  0  0  0
 28 32  1  0  0  0  0
 31 30  2  0  0  0  0
 32 31  2  0  0  0  0
 32 29  1  0  0  0  0
 34 37  1  0  0  0  0
 35 40  1  1  0  0  0
 35 36  1  0  0  0  0
 35 34  1  0  0  0  0
 36 46  1  6  0  0  0
 36 38  1  0  0  0  0
 37 33  1  1  0  0  0
 38 37  1  0  0  0  0
 40 39  1  6  0  0  0
 40 41  1  0  0  0  0
 42 41  1  0  0  0  0
 43 42  1  0  0  0  0
 44 45  1  0  0  0  0
 45 43  1  0  0  0  0
 47 46  1  0  0  0  0
M  END
>  <MODEL>
9

>  <REMARK>
 VINA RESULT:      -5.5      3.858      7.158
  Name = 
  17 active torsions:
  status: ('A' for Active; 'I' for Inactive)
    1  A    between atoms: C_1  and  O_24
    2  A    between atoms: N_3  and  C_8
    3  A    between atoms: N_5  and  C_12
    4  A    between atoms: C_6  and  C_37
    5  A    between atoms: N_10  and  C_23
    6  A    between atoms: C_11  and  C_12
    7  A    between atoms: C_11  and  C_32
    8  A    between atoms: C_12  and  C_31
    9  A    between atoms: C_17  and  C_18
   10  A    between atoms: C_17  and  C_19
   11  A    between atoms: C_19  and  O_41
   12  A    between atoms: C_21  and  C_34
   13  A    between atoms: O_24  and  C_44
   14  A    between atoms: C_29  and  C_45
   15  A    between atoms: C_30  and  C_45
   16  A    between atoms: C_35  and  O_41
   17  A    between atoms: C_35  and  C_47
                            x       y       z     vdW  Elec       q    Type
                         _______ _______ _______ _____ _____    ______ ____

>  <TORSDO>
F 17

$$$$
