=
 OpenBabel11042416133D

 33 35  0  0  1  0  0  0  0  0999 V2000
  192.7980  175.7380  145.8880 N   0  0  0  0  0  0  0  0  0  0  0  0
  194.9770  175.5040  145.6900 C   0  0  0  0  0  2  0  0  0  0  0  0
  194.0150  176.3880  146.4020 C   0  0  0  0  0  2  0  0  0  0  0  0
  193.7410  174.8480  145.1860 C   0  0  2  0  0  3  0  0  0  0  0  0
  187.1520  176.2740  146.6100 C   0  0  0  0  0  2  0  0  0  0  0  0
  187.7360  178.1520  143.9950 C   0  0  0  0  0  2  0  0  0  0  0  0
  189.4320  175.7890  147.4930 C   0  0  0  0  0  3  0  0  0  0  0  0
  191.3870  175.8750  146.0640 C   0  0  0  0  0  0  0  0  0  0  0  0
  186.3980  178.5210  144.4860 C   0  0  0  0  0  0  0  0  0  0  0  0
  186.8220  177.6850  146.7310 N   0  0  0  0  0  2  0  0  0  0  0  0
  188.6160  176.1150  146.4040 C   0  0  0  0  0  0  0  0  0  0  0  0
  190.5710  176.2060  144.9780 C   0  0  0  0  0  3  0  0  0  0  0  0
  188.2920  176.7260  143.8850 C   0  0  0  0  0  2  0  0  0  0  0  0
  189.1880  176.3280  145.1410 C   0  0  0  0  0  0  0  0  0  0  0  0
  190.8140  175.6650  147.3220 C   0  0  0  0  0  3  0  0  0  0  0  0
  187.8640  177.0900  143.2600 N   0  0  0  0  0  2  0  0  0  0  0  0
  186.0080  178.3580  145.7670 C   0  0  0  0  0  0  0  0  0  0  0  0
  184.7760  178.9250  146.2130 N   0  0  0  0  0  1  0  0  0  0  0  0
  185.5320  179.2870  143.5350 C   0  0  0  0  0  2  0  0  0  0  0  0
  184.4480  178.1520  142.6170 S   0  0  0  0  0  1  0  0  0  0  0  0
  193.6380  175.0360  143.6790 C   0  0  0  0  0  2  0  0  0  0  0  0
  193.2730  173.7820  143.0460 N   0  0  0  0  0  2  0  0  0  0  0  0
  191.8770  173.8930  142.6680 C   0  0  0  0  0  2  0  0  0  0  0  0
  190.6790  171.8230  141.8830 C   0  0  0  0  0  0  0  0  0  0  0  0
  191.1920  172.6400  142.9510 N   0  0  0  0  0  0  0  0  0  0  0  0
  190.1140  170.7270  142.1410 O   0  0  0  0  0  0  0  0  0  0  0  0
  191.1580  172.1720  144.3320 C   0  0  0  0  0  2  0  0  0  0  0  0
  189.8490  172.5630  144.9930 C   0  0  0  0  0  1  0  0  0  0  0  0
  190.7740  172.2850  140.4480 C   0  0  0  0  0  2  0  0  0  0  0  0
  189.5510  171.5200  138.5370 C   0  0  0  0  0  1  0  0  0  0  0  0
  189.4880  172.3380  139.7360 N   0  0  0  0  0  0  0  0  0  0  0  0
  189.1700  173.7040  139.3410 C   0  0  0  0  0  2  0  0  0  0  0  0
  188.7240  174.4580  140.5000 N   0  0  0  0  0  1  0  0  0  0  0  0
  1  8  1  0  0  0  0
  1  3  1  0  0  0  0
  2  3  1  0  0  0  0
  4 21  1  6  0  0  0
  4  2  1  0  0  0  0
  4  1  1  0  0  0  0
  5 10  1  0  0  0  0
  6  9  1  0  0  0  0
  8 15  2  0  0  0  0
  9 17  2  0  0  0  0
 11  5  1  0  0  0  0
 11  7  2  0  0  0  0
 12 14  2  0  0  0  0
 12  8  1  0  0  0  0
 13 14  1  0  0  0  0
 14 11  1  0  0  0  0
 15  7  1  0  0  0  0
 16 13  1  0  0  0  0
 16  6  1  0  0  0  0
 17 18  1  0  0  0  0
 17 10  1  0  0  0  0
 19  9  1  0  0  0  0
 20 19  1  0  0  0  0
 22 21  1  0  0  0  0
 23 25  1  0  0  0  0
 23 22  1  0  0  0  0
 24 26  2  0  0  0  0
 24 25  1  0  0  0  0
 25 27  1  0  0  0  0
 27 28  1  0  0  0  0
 29 24  1  0  0  0  0
 30 31  1  0  0  0  0
 31 29  1  0  0  0  0
 32 31  1  0  0  0  0
 32 33  1  0  0  0  0
M  END
>  <MODEL>
1

>  <REMARK>
 VINA RESULT:      -6.2      0.000      0.000
  Name = 
  10 active torsions:
  status: ('A' for Active; 'I' for Inactive)
    1  A    between atoms: N_1  and  C_7
    2  A    between atoms: C_5  and  N_15
    3  A    between atoms: C_5  and  C_28
    4  A    between atoms: C_8  and  C_9
    5  A    between atoms: C_13  and  N_32
    6  A    between atoms: N_15  and  C_27
    7  A    between atoms: C_17  and  C_26
    8  A    between atoms: C_18  and  N_22
    9  A    between atoms: N_22  and  C_27
   10  A    between atoms: C_26  and  N_32
                            x       y       z     vdW  Elec       q    Type
                         _______ _______ _______ _____ _____    ______ ____

>  <TORSDO>
F 10

$$$$
=
 OpenBabel11042416133D

 33 35  0  0  1  0  0  0  0  0999 V2000
  193.4830  175.6720  145.2090 N   0  0  0  0  0  0  0  0  0  0  0  0
  195.3550  174.7750  145.9370 C   0  0  0  0  0  2  0  0  0  0  0  0
  194.8570  176.1090  145.5060 C   0  0  0  0  0  2  0  0  0  0  0  0
  193.9610  174.3480  145.6450 C   0  0  2  0  0  3  0  0  0  0  0  0
  188.6120  178.1120  143.4750 C   0  0  0  0  0  2  0  0  0  0  0  0
  187.7100  176.5290  146.1920 C   0  0  0  0  0  2  0  0  0  0  0  0
  190.8920  177.2160  143.0150 C   0  0  0  0  0  3  0  0  0  0  0  0
  192.2630  176.2810  144.7800 C   0  0  0  0  0  0  0  0  0  0  0  0
  186.4700  176.8660  145.4720 C   0  0  0  0  0  0  0  0  0  0  0  0
  187.5940  177.0840  143.3250 N   0  0  0  0  0  2  0  0  0  0  0  0
  189.8830  177.4980  143.9420 C   0  0  0  0  0  0  0  0  0  0  0  0
  191.2520  176.5590  145.7050 C   0  0  0  0  0  3  0  0  0  0  0  0
  188.9240  177.4500  146.3720 C   0  0  0  0  0  2  0  0  0  0  0  0
  190.0620  177.1660  145.2930 C   0  0  0  0  0  0  0  0  0  0  0  0
  192.0810  176.6120  143.4340 C   0  0  0  0  0  3  0  0  0  0  0  0
  188.2830  177.4420  146.9150 N   0  0  0  0  0  2  0  0  0  0  0  0
  186.4180  177.0590  144.1380 C   0  0  0  0  0  0  0  0  0  0  0  0
  185.1530  177.1790  143.4860 N   0  0  0  0  0  1  0  0  0  0  0  0
  185.2020  176.7890  146.2650 C   0  0  0  0  0  2  0  0  0  0  0  0
  184.7720  178.4280  146.9250 S   0  0  0  0  0  1  0  0  0  0  0  0
  193.9570  173.3650  144.4830 C   0  0  0  0  0  2  0  0  0  0  0  0
  192.7660  172.5380  144.5350 N   0  0  0  0  0  2  0  0  0  0  0  0
  192.1070  172.6690  143.2490 C   0  0  0  0  0  2  0  0  0  0  0  0
  189.9020  173.5690  142.4350 C   0  0  0  0  0  0  0  0  0  0  0  0
  190.6860  172.9160  143.4490 N   0  0  0  0  0  0  0  0  0  0  0  0
  188.6680  173.7510  142.6100 O   0  0  0  0  0  0  0  0  0  0  0  0
  190.0550  172.3670  144.6440 C   0  0  0  0  0  2  0  0  0  0  0  0
  189.7440  173.4730  145.6370 C   0  0  0  0  0  1  0  0  0  0  0  0
  190.5510  174.0810  141.1710 C   0  0  0  0  0  2  0  0  0  0  0  0
  191.5480  173.2630  139.1540 C   0  0  0  0  0  1  0  0  0  0  0  0
  190.3630  173.2190  139.9950 N   0  0  0  0  0  0  0  0  0  0  0  0
  189.2240  173.6640  139.2020 C   0  0  0  0  0  2  0  0  0  0  0  0
  188.2040  172.6300  139.1870 N   0  0  0  0  0  1  0  0  0  0  0  0
  1  3  1  0  0  0  0
  1  4  1  0  0  0  0
  3  2  1  0  0  0  0
  4 21  1  6  0  0  0
  4  2  1  0  0  0  0
  5 11  1  0  0  0  0
  6 16  1  0  0  0  0
  7 15  2  0  0  0  0
  7 11  1  0  0  0  0
  8  1  1  0  0  0  0
  8 12  2  0  0  0  0
  9  6  1  0  0  0  0
  9 19  1  0  0  0  0
 10  5  1  0  0  0  0
 10 17  1  0  0  0  0
 11 14  2  0  0  0  0
 13 16  1  0  0  0  0
 14 12  1  0  0  0  0
 14 13  1  0  0  0  0
 15  8  1  0  0  0  0
 17  9  2  0  0  0  0
 18 17  1  0  0  0  0
 19 20  1  0  0  0  0
 21 22  1  0  0  0  0
 23 25  1  0  0  0  0
 23 22  1  0  0  0  0
 24 26  2  0  0  0  0
 24 25  1  0  0  0  0
 25 27  1  0  0  0  0
 27 28  1  0  0  0  0
 29 24  1  0  0  0  0
 30 31  1  0  0  0  0
 31 29  1  0  0  0  0
 32 31  1  0  0  0  0
 33 32  1  0  0  0  0
M  END
>  <MODEL>
2

>  <REMARK>
 VINA RESULT:      -6.1      1.770      2.547
  Name = 
  10 active torsions:
  status: ('A' for Active; 'I' for Inactive)
    1  A    between atoms: N_1  and  C_7
    2  A    between atoms: C_5  and  N_15
    3  A    between atoms: C_5  and  C_28
    4  A    between atoms: C_8  and  C_9
    5  A    between atoms: C_13  and  N_32
    6  A    between atoms: N_15  and  C_27
    7  A    between atoms: C_17  and  C_26
    8  A    between atoms: C_18  and  N_22
    9  A    between atoms: N_22  and  C_27
   10  A    between atoms: C_26  and  N_32
                            x       y       z     vdW  Elec       q    Type
                         _______ _______ _______ _____ _____    ______ ____

>  <TORSDO>
F 10

$$$$
=
 OpenBabel11042416133D

 33 35  0  0  1  0  0  0  0  0999 V2000
  190.3440  173.1440  142.0130 N   0  0  0  0  0  0  0  0  0  0  0  0
  191.6450  171.3710  142.1110 C   0  0  0  0  0  2  0  0  0  0  0  0
  190.1940  171.6790  141.9970 C   0  0  0  0  0  2  0  0  0  0  0  0
  191.7850  172.8520  142.1140 C   0  0  2  0  0  3  0  0  0  0  0  0
  186.9210  177.6990  141.5470 C   0  0  0  0  0  2  0  0  0  0  0  0
  187.2670  177.3720  144.7840 C   0  0  0  0  0  2  0  0  0  0  0  0
  187.8680  175.5750  140.6480 C   0  0  0  0  0  3  0  0  0  0  0  0
  189.4890  174.2830  141.9020 C   0  0  0  0  0  0  0  0  0  0  0  0
  186.1150  178.2660  144.5720 C   0  0  0  0  0  0  0  0  0  0  0  0
  185.7090  177.4610  142.3130 N   0  0  0  0  0  2  0  0  0  0  0  0
  187.8330  176.5310  141.6700 C   0  0  0  0  0  0  0  0  0  0  0  0
  189.4490  175.2360  142.9240 C   0  0  0  0  0  3  0  0  0  0  0  0
  188.5910  177.4140  144.0090 C   0  0  0  0  0  2  0  0  0  0  0  0
  188.6240  176.3590  142.8150 C   0  0  0  0  0  0  0  0  0  0  0  0
  188.6980  174.4560  140.7620 C   0  0  0  0  0  3  0  0  0  0  0  0
  188.4640  177.8650  144.7060 N   0  0  0  0  0  2  0  0  0  0  0  0
  185.3640  178.2540  143.4520 C   0  0  0  0  0  0  0  0  0  0  0  0
  184.1480  178.9990  143.4030 N   0  0  0  0  0  1  0  0  0  0  0  0
  185.6740  179.0680  145.7570 C   0  0  0  0  0  2  0  0  0  0  0  0
  184.6880  178.0370  146.8840 S   0  0  0  0  0  1  0  0  0  0  0  0
  192.3350  173.3130  143.4580 C   0  0  0  0  0  2  0  0  0  0  0  0
  193.6380  173.9240  143.2770 N   0  0  0  0  0  2  0  0  0  0  0  0
  193.4400  175.3610  143.3320 C   0  0  0  0  0  2  0  0  0  0  0  0
  193.4810  176.4530  145.5990 C   0  0  0  0  0  0  0  0  0  0  0  0
  194.1750  175.9140  144.4610 N   0  0  0  0  0  0  0  0  0  0  0  0
  194.1300  176.9020  146.5810 O   0  0  0  0  0  0  0  0  0  0  0  0
  195.6290  175.7840  144.4640 C   0  0  0  0  0  2  0  0  0  0  0  0
  196.2340  176.5700  143.3150 C   0  0  0  0  0  1  0  0  0  0  0  0
  191.9720  176.5270  145.6170 C   0  0  0  0  0  2  0  0  0  0  0  0
  190.3810  174.9140  146.3900 C   0  0  0  0  0  1  0  0  0  0  0  0
  191.3440  175.9230  146.8010 N   0  0  0  0  0  0  0  0  0  0  0  0
  190.6420  176.9300  147.5870 C   0  0  0  0  0  2  0  0  0  0  0  0
  191.4690  177.3360  148.7120 N   0  0  0  0  0  1  0  0  0  0  0  0
  1  4  1  0  0  0  0
  2  4  1  0  0  0  0
  3  1  1  0  0  0  0
  3  2  1  0  0  0  0
  4 21  1  1  0  0  0
  5 11  1  0  0  0  0
  5 10  1  0  0  0  0
  7 15  2  0  0  0  0
  7 11  1  0  0  0  0
  8  1  1  0  0  0  0
  8 12  2  0  0  0  0
  9  6  1  0  0  0  0
  9 19  1  0  0  0  0
 10 17  1  0  0  0  0
 11 14  2  0  0  0  0
 13 16  1  0  0  0  0
 14 12  1  0  0  0  0
 14 13  1  0  0  0  0
 15  8  1  0  0  0  0
 16  6  1  0  0  0  0
 17  9  2  0  0  0  0
 18 17  1  0  0  0  0
 19 20  1  0  0  0  0
 22 23  1  0  0  0  0
 22 21  1  0  0  0  0
 23 25  1  0  0  0  0
 24 29  1  0  0  0  0
 24 26  2  0  0  0  0
 25 27  1  0  0  0  0
 25 24  1  0  0  0  0
 28 27  1  0  0  0  0
 29 31  1  0  0  0  0
 30 31  1  0  0  0  0
 31 32  1  0  0  0  0
 32 33  1  0  0  0  0
M  END
>  <MODEL>
3

>  <REMARK>
 VINA RESULT:      -6.0      2.394      5.455
  Name = 
  10 active torsions:
  status: ('A' for Active; 'I' for Inactive)
    1  A    between atoms: N_1  and  C_7
    2  A    between atoms: C_5  and  N_15
    3  A    between atoms: C_5  and  C_28
    4  A    between atoms: C_8  and  C_9
    5  A    between atoms: C_13  and  N_32
    6  A    between atoms: N_15  and  C_27
    7  A    between atoms: C_17  and  C_26
    8  A    between atoms: C_18  and  N_22
    9  A    between atoms: N_22  and  C_27
   10  A    between atoms: C_26  and  N_32
                            x       y       z     vdW  Elec       q    Type
                         _______ _______ _______ _____ _____    ______ ____

>  <TORSDO>
F 10

$$$$
=
 OpenBabel11042416133D

 33 35  0  0  1  0  0  0  0  0999 V2000
  190.1850  173.0020  142.4520 N   0  0  0  0  0  0  0  0  0  0  0  0
  191.4690  171.2160  142.5290 C   0  0  0  0  0  2  0  0  0  0  0  0
  190.1010  171.5820  142.0710 C   0  0  0  0  0  2  0  0  0  0  0  0
  191.5460  172.6550  142.8990 C   0  0  2  0  0  3  0  0  0  0  0  0
  186.8660  177.6380  142.0310 C   0  0  0  0  0  2  0  0  0  0  0  0
  187.0230  177.1420  145.2610 C   0  0  0  0  0  2  0  0  0  0  0  0
  187.8290  175.5450  141.0780 C   0  0  0  0  0  3  0  0  0  0  0  0
  189.3560  174.1610  142.3520 C   0  0  0  0  0  0  0  0  0  0  0  0
  185.8990  178.0660  145.0320 C   0  0  0  0  0  0  0  0  0  0  0  0
  185.6090  177.3840  142.7150 N   0  0  0  0  0  2  0  0  0  0  0  0
  187.7500  176.4480  142.1440 C   0  0  0  0  0  0  0  0  0  0  0  0
  189.2730  175.0620  143.4180 C   0  0  0  0  0  3  0  0  0  0  0  0
  188.3890  177.1980  144.5640 C   0  0  0  0  0  2  0  0  0  0  0  0
  188.4740  176.2040  143.3210 C   0  0  0  0  0  0  0  0  0  0  0  0
  188.6320  174.4060  141.1800 C   0  0  0  0  0  3  0  0  0  0  0  0
  188.2310  177.6160  145.2760 N   0  0  0  0  0  2  0  0  0  0  0  0
  185.2130  178.1250  143.8730 C   0  0  0  0  0  0  0  0  0  0  0  0
  184.0130  178.8950  143.7950 N   0  0  0  0  0  1  0  0  0  0  0  0
  185.4050  178.8160  146.2300 C   0  0  0  0  0  2  0  0  0  0  0  0
  185.9000  177.9610  147.7560 S   0  0  0  0  0  1  0  0  0  0  0  0
  191.6670  172.7910  144.4110 C   0  0  0  0  0  2  0  0  0  0  0  0
  192.8920  173.4900  144.7490 N   0  0  0  0  0  2  0  0  0  0  0  0
  192.9210  174.6990  143.9480 C   0  0  0  0  0  2  0  0  0  0  0  0
  194.4970  176.4050  144.9180 C   0  0  0  0  0  0  0  0  0  0  0  0
  193.1760  175.8480  144.8050 N   0  0  0  0  0  0  0  0  0  0  0  0
  194.6970  177.4170  145.6410 O   0  0  0  0  0  0  0  0  0  0  0  0
  192.0340  176.5000  145.4380 C   0  0  0  0  0  2  0  0  0  0  0  0
  191.8390  175.9750  146.8490 C   0  0  0  0  0  1  0  0  0  0  0  0
  195.6670  175.7620  144.2100 C   0  0  0  0  0  2  0  0  0  0  0  0
  195.6130  176.3760  141.8960 C   0  0  0  0  0  1  0  0  0  0  0  0
  196.2830  176.5960  143.1670 N   0  0  0  0  0  0  0  0  0  0  0  0
  197.6930  176.2630  143.0030 C   0  0  0  0  0  2  0  0  0  0  0  0
  197.9390  174.9190  143.4960 N   0  0  0  0  0  1  0  0  0  0  0  0
  1  4  1  0  0  0  0
  2  4  1  0  0  0  0
  3  1  1  0  0  0  0
  3  2  1  0  0  0  0
  4 21  1  1  0  0  0
  5 11  1  0  0  0  0
  5 10  1  0  0  0  0
  6 16  1  0  0  0  0
  7 15  2  0  0  0  0
  7 11  1  0  0  0  0
  8  1  1  0  0  0  0
  8 12  2  0  0  0  0
  9  6  1  0  0  0  0
  9 19  1  0  0  0  0
 10 17  1  0  0  0  0
 11 14  2  0  0  0  0
 13 16  1  0  0  0  0
 14 12  1  0  0  0  0
 14 13  1  0  0  0  0
 15  8  1  0  0  0  0
 17  9  2  0  0  0  0
 18 17  1  0  0  0  0
 19 20  1  0  0  0  0
 21 22  1  0  0  0  0
 23 22  1  0  0  0  0
 23 25  1  0  0  0  0
 24 26  2  0  0  0  0
 25 24  1  0  0  0  0
 25 27  1  0  0  0  0
 27 28  1  0  0  0  0
 29 24  1  0  0  0  0
 30 31  1  0  0  0  0
 31 29  1  0  0  0  0
 32 31  1  0  0  0  0
 32 33  1  0  0  0  0
M  END
>  <MODEL>
4

>  <REMARK>
 VINA RESULT:      -6.0      2.708      5.374
  Name = 
  10 active torsions:
  status: ('A' for Active; 'I' for Inactive)
    1  A    between atoms: N_1  and  C_7
    2  A    between atoms: C_5  and  N_15
    3  A    between atoms: C_5  and  C_28
    4  A    between atoms: C_8  and  C_9
    5  A    between atoms: C_13  and  N_32
    6  A    between atoms: N_15  and  C_27
    7  A    between atoms: C_17  and  C_26
    8  A    between atoms: C_18  and  N_22
    9  A    between atoms: N_22  and  C_27
   10  A    between atoms: C_26  and  N_32
                            x       y       z     vdW  Elec       q    Type
                         _______ _______ _______ _____ _____    ______ ____

>  <TORSDO>
F 10

$$$$
=
 OpenBabel11042416133D

 33 35  0  0  1  0  0  0  0  0999 V2000
  190.1300  175.7840  145.9790 N   0  0  0  0  0  0  0  0  0  0  0  0
  189.8980  177.5530  147.2670 C   0  0  0  0  0  2  0  0  0  0  0  0
  190.9020  176.4840  147.0180 C   0  0  0  0  0  2  0  0  0  0  0  0
  189.1320  176.8440  146.2070 C   0  0  2  0  0  3  0  0  0  0  0  0
  190.8730  171.2720  142.5460 C   0  0  0  0  0  2  0  0  0  0  0  0
  191.3720  173.8080  140.5400 C   0  0  0  0  0  2  0  0  0  0  0  0
  189.9070  172.3320  144.5860 C   0  0  0  0  0  3  0  0  0  0  0  0
  190.3170  174.6600  145.1170 C   0  0  0  0  0  0  0  0  0  0  0  0
  191.1640  172.6280  139.6820 C   0  0  0  0  0  0  0  0  0  0  0  0
  189.9770  171.3910  141.4080 N   0  0  0  0  0  2  0  0  0  0  0  0
  190.7060  172.4460  143.4430 C   0  0  0  0  0  0  0  0  0  0  0  0
  191.1120  174.7740  143.9730 C   0  0  0  0  0  3  0  0  0  0  0  0
  192.2060  173.8480  141.8270 C   0  0  0  0  0  2  0  0  0  0  0  0
  191.3100  173.6750  143.1330 C   0  0  0  0  0  0  0  0  0  0  0  0
  189.7160  173.4350  145.4230 C   0  0  0  0  0  3  0  0  0  0  0  0
  192.5400  173.9990  141.0710 N   0  0  0  0  0  2  0  0  0  0  0  0
  190.4650  171.5430  140.0720 C   0  0  0  0  0  0  0  0  0  0  0  0
  190.1330  170.5320  139.1210 N   0  0  0  0  0  1  0  0  0  0  0  0
  191.5990  172.7630  138.2560 C   0  0  0  0  0  2  0  0  0  0  0  0
  190.4120  173.7820  137.3300 S   0  0  0  0  0  1  0  0  0  0  0  0
  187.8540  176.2630  146.7980 C   0  0  0  0  0  2  0  0  0  0  0  0
  186.7660  176.3880  145.8470 N   0  0  0  0  0  2  0  0  0  0  0  0
  186.9090  177.6860  145.2130 C   0  0  0  0  0  2  0  0  0  0  0  0
  185.1300  177.9070  143.4470 C   0  0  0  0  0  0  0  0  0  0  0  0
  185.6040  178.1660  144.7800 N   0  0  0  0  0  0  0  0  0  0  0  0
  183.9870  178.3030  143.0950 O   0  0  0  0  0  0  0  0  0  0  0  0
  184.7400  178.7960  145.7720 C   0  0  0  0  0  2  0  0  0  0  0  0
  185.5670  179.3710  146.9080 C   0  0  0  0  0  1  0  0  0  0  0  0
  186.0060  177.1970  142.4420 C   0  0  0  0  0  2  0  0  0  0  0  0
  186.6030  177.5430  140.1500 C   0  0  0  0  0  1  0  0  0  0  0  0
  186.6940  178.0860  141.4950 N   0  0  0  0  0  0  0  0  0  0  0  0
  188.1050  178.2180  141.8390 C   0  0  0  0  0  2  0  0  0  0  0  0
  188.6860  176.9010  142.0340 N   0  0  0  0  0  1  0  0  0  0  0  0
  1  4  1  0  0  0  0
  1  3  1  0  0  0  0
  3  2  1  0  0  0  0
  4 21  1  1  0  0  0
  4  2  1  0  0  0  0
  5 11  1  0  0  0  0
  6 16  1  0  0  0  0
  7 15  1  0  0  0  0
  8 15  2  0  0  0  0
  8  1  1  0  0  0  0
  9 17  2  0  0  0  0
  9  6  1  0  0  0  0
 10  5  1  0  0  0  0
 11  7  2  0  0  0  0
 12  8  1  0  0  0  0
 13 14  1  0  0  0  0
 14 11  1  0  0  0  0
 14 12  2  0  0  0  0
 16 13  1  0  0  0  0
 17 10  1  0  0  0  0
 18 17  1  0  0  0  0
 19  9  1  0  0  0  0
 20 19  1  0  0  0  0
 22 21  1  0  0  0  0
 23 22  1  0  0  0  0
 24 25  1  0  0  0  0
 25 23  1  0  0  0  0
 25 27  1  0  0  0  0
 26 24  2  0  0  0  0
 27 28  1  0  0  0  0
 29 24  1  0  0  0  0
 30 31  1  0  0  0  0
 31 32  1  0  0  0  0
 31 29  1  0  0  0  0
 32 33  1  0  0  0  0
M  END
>  <MODEL>
5

>  <REMARK>
 VINA RESULT:      -5.8      2.982      7.023
  Name = 
  10 active torsions:
  status: ('A' for Active; 'I' for Inactive)
    1  A    between atoms: N_1  and  C_7
    2  A    between atoms: C_5  and  N_15
    3  A    between atoms: C_5  and  C_28
    4  A    between atoms: C_8  and  C_9
    5  A    between atoms: C_13  and  N_32
    6  A    between atoms: N_15  and  C_27
    7  A    between atoms: C_17  and  C_26
    8  A    between atoms: C_18  and  N_22
    9  A    between atoms: N_22  and  C_27
   10  A    between atoms: C_26  and  N_32
                            x       y       z     vdW  Elec       q    Type
                         _______ _______ _______ _____ _____    ______ ____

>  <TORSDO>
F 10

$$$$
=
 OpenBabel11042416133D

 33 35  0  0  1  0  0  0  0  0999 V2000
  193.5090  175.7270  145.2930 N   0  0  0  0  0  0  0  0  0  0  0  0
  195.3480  174.8070  146.0760 C   0  0  0  0  0  2  0  0  0  0  0  0
  194.6190  176.1000  146.1860 C   0  0  0  0  0  2  0  0  0  0  0  0
  194.2150  174.4390  145.1850 C   0  0  2  0  0  3  0  0  0  0  0  0
  188.6600  178.1150  143.4270 C   0  0  0  0  0  2  0  0  0  0  0  0
  187.7080  176.5470  146.1370 C   0  0  0  0  0  2  0  0  0  0  0  0
  190.9580  177.2330  143.0280 C   0  0  0  0  0  3  0  0  0  0  0  0
  192.2950  176.3230  144.8310 C   0  0  0  0  0  0  0  0  0  0  0  0
  186.4830  176.8690  145.3850 C   0  0  0  0  0  0  0  0  0  0  0  0
  187.6550  177.0780  143.2630 N   0  0  0  0  0  2  0  0  0  0  0  0
  189.9250  177.5150  143.9290 C   0  0  0  0  0  0  0  0  0  0  0  0
  191.2610  176.6010  145.7300 C   0  0  0  0  0  3  0  0  0  0  0  0
  188.9110  177.4790  146.3360 C   0  0  0  0  0  2  0  0  0  0  0  0
  190.0750  177.1950  145.2860 C   0  0  0  0  0  0  0  0  0  0  0  0
  192.1410  176.6420  143.4780 C   0  0  0  0  0  3  0  0  0  0  0  0
  188.2580  177.4700  146.8650 N   0  0  0  0  0  2  0  0  0  0  0  0
  186.4600  177.0500  144.0490 C   0  0  0  0  0  0  0  0  0  0  0  0
  185.2100  177.1560  143.3670 N   0  0  0  0  0  1  0  0  0  0  0  0
  185.1980  176.7880  146.1490 C   0  0  0  0  0  2  0  0  0  0  0  0
  184.7580  178.4220  146.8150 S   0  0  0  0  0  1  0  0  0  0  0  0
  194.7270  174.2220  143.7670 C   0  0  0  0  0  2  0  0  0  0  0  0
  194.0980  173.0510  143.1870 N   0  0  0  0  0  2  0  0  0  0  0  0
  193.1600  172.5450  144.1720 C   0  0  0  0  0  2  0  0  0  0  0  0
  191.5560  171.1890  142.7860 C   0  0  0  0  0  0  0  0  0  0  0  0
  192.6350  171.2600  143.7340 N   0  0  0  0  0  0  0  0  0  0  0  0
  191.1300  170.0700  142.3940 O   0  0  0  0  0  0  0  0  0  0  0  0
  193.3190  170.0500  144.1790 C   0  0  0  0  0  2  0  0  0  0  0  0
  194.2920  170.3730  145.2990 C   0  0  0  0  0  1  0  0  0  0  0  0
  190.8920  172.4490  142.2800 C   0  0  0  0  0  2  0  0  0  0  0  0
  188.6310  172.7010  141.5340 C   0  0  0  0  0  1  0  0  0  0  0  0
  189.4930  172.6150  142.7010 N   0  0  0  0  0  0  0  0  0  0  0  0
  189.3280  173.8350  143.4810 C   0  0  0  0  0  2  0  0  0  0  0  0
  189.7140  173.5900  144.8600 N   0  0  0  0  0  1  0  0  0  0  0  0
  1  3  1  0  0  0  0
  2  3  1  0  0  0  0
  4 21  1  6  0  0  0
  4  1  1  0  0  0  0
  4  2  1  0  0  0  0
  5 11  1  0  0  0  0
  6 16  1  0  0  0  0
  7 15  2  0  0  0  0
  7 11  1  0  0  0  0
  8  1  1  0  0  0  0
  8 12  2  0  0  0  0
  9  6  1  0  0  0  0
  9 19  1  0  0  0  0
 10  5  1  0  0  0  0
 10 17  1  0  0  0  0
 11 14  2  0  0  0  0
 13 16  1  0  0  0  0
 14 12  1  0  0  0  0
 14 13  1  0  0  0  0
 15  8  1  0  0  0  0
 17  9  2  0  0  0  0
 18 17  1  0  0  0  0
 19 20  1  0  0  0  0
 22 21  1  0  0  0  0
 22 23  1  0  0  0  0
 24 25  1  0  0  0  0
 25 23  1  0  0  0  0
 25 27  1  0  0  0  0
 26 24  2  0  0  0  0
 27 28  1  0  0  0  0
 29 31  1  0  0  0  0
 29 24  1  0  0  0  0
 30 31  1  0  0  0  0
 31 32  1  0  0  0  0
 32 33  1  0  0  0  0
M  END
>  <MODEL>
6

>  <REMARK>
 VINA RESULT:      -5.8      1.899      2.906
  Name = 
  10 active torsions:
  status: ('A' for Active; 'I' for Inactive)
    1  A    between atoms: N_1  and  C_7
    2  A    between atoms: C_5  and  N_15
    3  A    between atoms: C_5  and  C_28
    4  A    between atoms: C_8  and  C_9
    5  A    between atoms: C_13  and  N_32
    6  A    between atoms: N_15  and  C_27
    7  A    between atoms: C_17  and  C_26
    8  A    between atoms: C_18  and  N_22
    9  A    between atoms: N_22  and  C_27
   10  A    between atoms: C_26  and  N_32
                            x       y       z     vdW  Elec       q    Type
                         _______ _______ _______ _____ _____    ______ ____

>  <TORSDO>
F 10

$$$$
=
 OpenBabel11042416133D

 33 35  0  0  1  0  0  0  0  0999 V2000
  193.0180  176.3100  145.3370 N   0  0  0  0  0  0  0  0  0  0  0  0
  195.1770  176.3390  144.9120 C   0  0  0  0  0  2  0  0  0  0  0  0
  194.1490  177.2400  145.4980 C   0  0  0  0  0  2  0  0  0  0  0  0
  194.0300  175.4040  144.7650 C   0  0  2  0  0  3  0  0  0  0  0  0
  187.4560  176.2200  146.6550 C   0  0  0  0  0  2  0  0  0  0  0  0
  187.5830  178.3380  144.1640 C   0  0  0  0  0  2  0  0  0  0  0  0
  189.8520  175.9020  147.2640 C   0  0  0  0  0  3  0  0  0  0  0  0
  191.6270  176.2900  145.6620 C   0  0  0  0  0  0  0  0  0  0  0  0
  186.2760  178.5330  144.8150 C   0  0  0  0  0  0  0  0  0  0  0  0
  187.0120  177.5780  146.9280 N   0  0  0  0  0  2  0  0  0  0  0  0
  188.8980  176.2250  146.2940 C   0  0  0  0  0  0  0  0  0  0  0  0
  190.6730  176.6180  144.6940 C   0  0  0  0  0  3  0  0  0  0  0  0
  188.2530  176.9870  143.8790 C   0  0  0  0  0  2  0  0  0  0  0  0
  189.3100  176.5890  145.0030 C   0  0  0  0  0  0  0  0  0  0  0  0
  191.2140  175.9310  146.9490 C   0  0  0  0  0  3  0  0  0  0  0  0
  187.7290  177.3520  143.3330 N   0  0  0  0  0  2  0  0  0  0  0  0
  186.0420  178.2360  146.1090 C   0  0  0  0  0  0  0  0  0  0  0  0
  184.8170  178.6410  146.7210 N   0  0  0  0  0  1  0  0  0  0  0  0
  185.2470  179.2770  144.0220 C   0  0  0  0  0  2  0  0  0  0  0  0
  184.4400  178.1620  142.8340 S   0  0  0  0  0  1  0  0  0  0  0  0
  193.7560  175.1540  143.2880 C   0  0  0  0  0  2  0  0  0  0  0  0
  193.6160  173.7310  143.0430 N   0  0  0  0  0  2  0  0  0  0  0  0
  193.2700  173.1180  144.3130 C   0  0  0  0  0  2  0  0  0  0  0  0
  193.4180  170.6170  144.0780 C   0  0  0  0  0  0  0  0  0  0  0  0
  192.6400  171.8270  144.0780 N   0  0  0  0  0  0  0  0  0  0  0  0
  192.8550  169.5030  143.9030 O   0  0  0  0  0  0  0  0  0  0  0  0
  191.1850  171.7810  143.9770 C   0  0  0  0  0  2  0  0  0  0  0  0
  190.5670  172.9850  144.6640 C   0  0  0  0  0  1  0  0  0  0  0  0
  194.9180  170.6650  144.2470 C   0  0  0  0  0  2  0  0  0  0  0  0
  196.4350  171.5580  145.8690 C   0  0  0  0  0  1  0  0  0  0  0  0
  195.3800  170.5850  145.6410 N   0  0  0  0  0  0  0  0  0  0  0  0
  195.9110  169.2600  145.9360 C   0  0  0  0  0  2  0  0  0  0  0  0
  196.5120  169.2570  147.2580 N   0  0  0  0  0  1  0  0  0  0  0  0
  1  3  1  0  0  0  0
  1  8  1  0  0  0  0
  2  3  1  0  0  0  0
  4 21  1  6  0  0  0
  4  2  1  0  0  0  0
  4  1  1  0  0  0  0
  5 10  1  0  0  0  0
  6  9  1  0  0  0  0
  8 15  2  0  0  0  0
  9 17  2  0  0  0  0
 11  5  1  0  0  0  0
 11  7  2  0  0  0  0
 12 14  2  0  0  0  0
 12  8  1  0  0  0  0
 13 14  1  0  0  0  0
 14 11  1  0  0  0  0
 15  7  1  0  0  0  0
 16 13  1  0  0  0  0
 16  6  1  0  0  0  0
 17 18  1  0  0  0  0
 17 10  1  0  0  0  0
 19  9  1  0  0  0  0
 20 19  1  0  0  0  0
 22 21  1  0  0  0  0
 22 23  1  0  0  0  0
 24 25  1  0  0  0  0
 24 29  1  0  0  0  0
 25 23  1  0  0  0  0
 26 24  2  0  0  0  0
 27 25  1  0  0  0  0
 27 28  1  0  0  0  0
 29 31  1  0  0  0  0
 31 30  1  0  0  0  0
 31 32  1  0  0  0  0
 32 33  1  0  0  0  0
M  END
>  <MODEL>
7

>  <REMARK>
 VINA RESULT:      -5.7      2.296      3.868
  Name = 
  10 active torsions:
  status: ('A' for Active; 'I' for Inactive)
    1  A    between atoms: N_1  and  C_7
    2  A    between atoms: C_5  and  N_15
    3  A    between atoms: C_5  and  C_28
    4  A    between atoms: C_8  and  C_9
    5  A    between atoms: C_13  and  N_32
    6  A    between atoms: N_15  and  C_27
    7  A    between atoms: C_17  and  C_26
    8  A    between atoms: C_18  and  N_22
    9  A    between atoms: N_22  and  C_27
   10  A    between atoms: C_26  and  N_32
                            x       y       z     vdW  Elec       q    Type
                         _______ _______ _______ _____ _____    ______ ____

>  <TORSDO>
F 10

$$$$
=
 OpenBabel11042416133D

 33 35  0  0  1  0  0  0  0  0999 V2000
  193.9070  175.8290  144.5310 N   0  0  0  0  0  0  0  0  0  0  0  0
  195.9050  176.0510  143.6350 C   0  0  0  0  0  2  0  0  0  0  0  0
  195.0400  176.7660  144.6120 C   0  0  0  0  0  2  0  0  0  0  0  0
  194.7590  175.1050  143.5710 C   0  0  2  0  0  3  0  0  0  0  0  0
  188.8140  175.2030  147.0520 C   0  0  0  0  0  2  0  0  0  0  0  0
  188.0960  176.9400  144.3740 C   0  0  0  0  0  2  0  0  0  0  0  0
  191.3040  175.2910  147.1460 C   0  0  0  0  0  3  0  0  0  0  0  0
  192.6320  175.6740  145.1570 C   0  0  0  0  0  0  0  0  0  0  0  0
  186.9340  177.0540  145.2720 C   0  0  0  0  0  0  0  0  0  0  0  0
  188.2260  176.5160  147.2620 N   0  0  0  0  0  2  0  0  0  0  0  0
  190.1330  175.3440  146.3810 C   0  0  0  0  0  0  0  0  0  0  0  0
  191.4620  175.7330  144.3940 C   0  0  0  0  0  3  0  0  0  0  0  0
  188.9000  175.6620  144.1000 C   0  0  0  0  0  2  0  0  0  0  0  0
  190.2120  175.5700  144.9990 C   0  0  0  0  0  0  0  0  0  0  0  0
  192.5510  175.4510  146.5350 C   0  0  0  0  0  3  0  0  0  0  0  0
  188.2250  175.8740  143.6470 N   0  0  0  0  0  2  0  0  0  0  0  0
  187.0180  176.9180  146.6110 C   0  0  0  0  0  0  0  0  0  0  0  0
  185.8940  177.2420  147.4300 N   0  0  0  0  0  1  0  0  0  0  0  0
  185.6610  177.5360  144.6490 C   0  0  0  0  0  2  0  0  0  0  0  0
  185.7780  179.3100  144.2710 S   0  0  0  0  0  1  0  0  0  0  0  0
  194.1460  175.1340  142.1780 C   0  0  0  0  0  2  0  0  0  0  0  0
  193.8590  173.7840  141.7330 N   0  0  0  0  0  2  0  0  0  0  0  0
  192.4330  173.7240  141.4660 C   0  0  0  0  0  2  0  0  0  0  0  0
  190.9740  171.7230  141.0160 C   0  0  0  0  0  0  0  0  0  0  0  0
  191.9180  172.4170  141.8500 N   0  0  0  0  0  0  0  0  0  0  0  0
  190.5580  170.5810  141.3460 O   0  0  0  0  0  0  0  0  0  0  0  0
  192.4850  171.7750  143.0320 C   0  0  0  0  0  2  0  0  0  0  0  0
  191.6590  172.1040  144.2620 C   0  0  0  0  0  1  0  0  0  0  0  0
  190.4380  172.3680  139.7590 C   0  0  0  0  0  2  0  0  0  0  0  0
  188.5680  172.9660  138.3890 C   0  0  0  0  0  1  0  0  0  0  0  0
  188.9710  172.3970  139.6640 N   0  0  0  0  0  0  0  0  0  0  0  0
  188.3980  173.2110  140.7290 C   0  0  0  0  0  2  0  0  0  0  0  0
  188.5680  174.6190  140.4130 N   0  0  0  0  0  1  0  0  0  0  0  0
  1  3  1  0  0  0  0
  1  8  1  0  0  0  0
  2  3  1  0  0  0  0
  4 21  1  6  0  0  0
  4  2  1  0  0  0  0
  4  1  1  0  0  0  0
  5 10  1  0  0  0  0
  6  9  1  0  0  0  0
  8 15  2  0  0  0  0
  9 17  2  0  0  0  0
 11  5  1  0  0  0  0
 11  7  2  0  0  0  0
 12 14  2  0  0  0  0
 12  8  1  0  0  0  0
 13 14  1  0  0  0  0
 14 11  1  0  0  0  0
 15  7  1  0  0  0  0
 16 13  1  0  0  0  0
 16  6  1  0  0  0  0
 17 10  1  0  0  0  0
 17 18  1  0  0  0  0
 19  9  1  0  0  0  0
 20 19  1  0  0  0  0
 22 21  1  0  0  0  0
 23 22  1  0  0  0  0
 23 25  1  0  0  0  0
 24 26  2  0  0  0  0
 24 25  1  0  0  0  0
 25 27  1  0  0  0  0
 27 28  1  0  0  0  0
 29 24  1  0  0  0  0
 30 31  1  0  0  0  0
 31 29  1  0  0  0  0
 31 32  1  0  0  0  0
 33 32  1  0  0  0  0
M  END
>  <MODEL>
8

>  <REMARK>
 VINA RESULT:      -5.7      1.358      1.670
  Name = 
  10 active torsions:
  status: ('A' for Active; 'I' for Inactive)
    1  A    between atoms: N_1  and  C_7
    2  A    between atoms: C_5  and  N_15
    3  A    between atoms: C_5  and  C_28
    4  A    between atoms: C_8  and  C_9
    5  A    between atoms: C_13  and  N_32
    6  A    between atoms: N_15  and  C_27
    7  A    between atoms: C_17  and  C_26
    8  A    between atoms: C_18  and  N_22
    9  A    between atoms: N_22  and  C_27
   10  A    between atoms: C_26  and  N_32
                            x       y       z     vdW  Elec       q    Type
                         _______ _______ _______ _____ _____    ______ ____

>  <TORSDO>
F 10

$$$$
=
 OpenBabel11042416133D

 33 35  0  0  1  0  0  0  0  0999 V2000
  187.8750  176.1900  141.5560 N   0  0  0  0  0  0  0  0  0  0  0  0
  186.9020  178.1560  141.7330 C   0  0  0  0  0  2  0  0  0  0  0  0
  186.9110  177.0020  140.7950 C   0  0  0  0  0  2  0  0  0  0  0  0
  187.8670  177.3230  142.4990 C   0  0  2  0  0  3  0  0  0  0  0  0
  190.2160  170.9930  141.1110 C   0  0  0  0  0  2  0  0  0  0  0  0
  191.4750  172.1250  143.9100 C   0  0  0  0  0  2  0  0  0  0  0  0
  189.1660  173.0120  140.0930 C   0  0  0  0  0  3  0  0  0  0  0  0
  188.4620  174.8920  141.4490 C   0  0  0  0  0  0  0  0  0  0  0  0
  192.2990  170.9690  143.5170 C   0  0  0  0  0  0  0  0  0  0  0  0
  191.6640  171.1190  141.1730 N   0  0  0  0  0  2  0  0  0  0  0  0
  189.5880  172.3350  141.2420 C   0  0  0  0  0  0  0  0  0  0  0  0
  188.8890  174.2160  142.5960 C   0  0  0  0  0  3  0  0  0  0  0  0
  189.9450  172.2090  143.8270 C   0  0  0  0  0  2  0  0  0  0  0  0
  189.4520  172.9410  142.5000 C   0  0  0  0  0  0  0  0  0  0  0  0
  188.6010  174.2870  140.1960 C   0  0  0  0  0  3  0  0  0  0  0  0
  190.3420  171.9140  144.5060 N   0  0  0  0  0  2  0  0  0  0  0  0
  192.4280  170.5520  142.2410 C   0  0  0  0  0  0  0  0  0  0  0  0
  193.3990  169.5590  141.9120 N   0  0  0  0  0  1  0  0  0  0  0  0
  193.1680  170.3820  144.5850 C   0  0  0  0  0  2  0  0  0  0  0  0
  194.1160  171.6920  145.4160 S   0  0  0  0  0  1  0  0  0  0  0  0
  189.2270  178.0080  142.5300 C   0  0  0  0  0  2  0  0  0  0  0  0
  190.0840  177.3670  143.5090 N   0  0  0  0  0  2  0  0  0  0  0  0
  189.5730  177.7330  144.8170 C   0  0  0  0  0  2  0  0  0  0  0  0
  188.4160  176.4230  146.6280 C   0  0  0  0  0  0  0  0  0  0  0  0
  189.4640  176.5440  145.6500 N   0  0  0  0  0  0  0  0  0  0  0  0
  188.3160  175.3760  147.3220 O   0  0  0  0  0  0  0  0  0  0  0  0
  190.3620  175.4270  145.3750 C   0  0  0  0  0  2  0  0  0  0  0  0
  191.6250  175.5430  146.2090 C   0  0  0  0  0  1  0  0  0  0  0  0
  187.4490  177.5590  146.8650 C   0  0  0  0  0  2  0  0  0  0  0  0
  185.7020  176.9700  145.3380 C   0  0  0  0  0  1  0  0  0  0  0  0
  186.0310  177.1930  146.7360 N   0  0  0  0  0  0  0  0  0  0  0  0
  185.1720  178.2570  147.2430 C   0  0  0  0  0  2  0  0  0  0  0  0
  184.0850  178.4950  146.3090 N   0  0  0  0  0  1  0  0  0  0  0  0
  1  4  1  0  0  0  0
  2  4  1  0  0  0  0
  3  1  1  0  0  0  0
  3  2  1  0  0  0  0
  4 21  1  6  0  0  0
  5 10  1  0  0  0  0
  5 11  1  0  0  0  0
  6 16  1  0  0  0  0
  7 15  2  0  0  0  0
  7 11  1  0  0  0  0
  8  1  1  0  0  0  0
  8 12  2  0  0  0  0
  9  6  1  0  0  0  0
  9 19  1  0  0  0  0
 10 17  1  0  0  0  0
 11 14  2  0  0  0  0
 13 16  1  0  0  0  0
 14 12  1  0  0  0  0
 14 13  1  0  0  0  0
 15  8  1  0  0  0  0
 17  9  2  0  0  0  0
 18 17  1  0  0  0  0
 19 20  1  0  0  0  0
 21 22  1  0  0  0  0
 22 23  1  0  0  0  0
 23 25  1  0  0  0  0
 24 29  1  0  0  0  0
 24 26  2  0  0  0  0
 25 24  1  0  0  0  0
 27 25  1  0  0  0  0
 27 28  1  0  0  0  0
 30 31  1  0  0  0  0
 31 29  1  0  0  0  0
 31 32  1  0  0  0  0
 33 32  1  0  0  0  0
M  END
>  <MODEL>
9

>  <REMARK>
 VINA RESULT:      -5.6      3.110      7.945
  Name = 
  10 active torsions:
  status: ('A' for Active; 'I' for Inactive)
    1  A    between atoms: N_1  and  C_7
    2  A    between atoms: C_5  and  N_15
    3  A    between atoms: C_5  and  C_28
    4  A    between atoms: C_8  and  C_9
    5  A    between atoms: C_13  and  N_32
    6  A    between atoms: N_15  and  C_27
    7  A    between atoms: C_17  and  C_26
    8  A    between atoms: C_18  and  N_22
    9  A    between atoms: N_22  and  C_27
   10  A    between atoms: C_26  and  N_32
                            x       y       z     vdW  Elec       q    Type
                         _______ _______ _______ _____ _____    ______ ____

>  <TORSDO>
F 10

$$$$
