=
 OpenBabel11042417113D

 38 45  0  0  1  0  0  0  0  0999 V2000
  191.1310  176.7220  145.6860 C   0  0  1  0  0  3  0  0  0  0  0  0
  187.3840  177.7150  147.2620 N   0  0  0  0  0  0  0  0  0  0  0  0
  192.6220  176.6280  143.7450 C   0  0  1  0  0  3  0  0  0  0  0  0
  187.8080  177.6640  143.0660 C   0  0  0  0  0  0  0  0  0  0  0  0
  186.3120  178.0280  145.1170 C   0  0  0  0  0  0  0  0  0  0  0  0
  190.9400  175.9700  146.9850 C   0  0  0  0  0  2  0  0  0  0  0  0
  185.0860  178.3810  144.4810 C   0  0  0  0  0  0  0  0  0  0  0  0
  184.0010  178.6660  146.6070 N   0  0  0  0  0  0  0  0  0  0  0  0
  192.1360  175.8680  144.9660 C   0  0  1  0  0  3  0  0  0  0  0  0
  186.9080  177.8860  142.0100 C   0  0  0  0  0  0  0  0  0  0  0  0
  190.1160  177.0780  143.4310 C   0  0  0  0  0  0  0  0  0  0  0  0
  189.0700  177.3760  142.6380 N   0  0  0  0  0  0  0  0  0  0  0  0
  193.1600  175.5640  146.0340 C   0  0  0  0  0  2  0  0  0  0  0  0
  193.7440  175.8780  143.0500 C   0  0  0  0  0  1  0  0  0  0  0  0
  183.9640  178.6900  145.2590 C   0  0  0  0  0  3  0  0  0  0  0  0
  185.1350  178.3410  147.2580 C   0  0  0  0  0  3  0  0  0  0  0  0
  184.8450  178.4570  143.1620 N   0  0  0  0  0  2  0  0  0  0  0  0
  188.5220  177.3940  146.6750 N   0  0  0  0  0  0  0  0  0  0  0  0
  191.4430  176.7630  142.7710 C   0  0  0  0  0  2  0  0  0  0  0  0
  188.6610  177.3550  145.3300 C   0  0  0  0  0  0  0  0  0  0  0  0
  189.9190  176.9900  144.8120 C   0  0  0  0  0  0  0  0  0  0  0  0
  186.2880  178.0250  146.5480 C   0  0  0  0  0  0  0  0  0  0  0  0
  185.6160  178.2450  142.1120 N   0  0  0  0  0  0  0  0  0  0  0  0
  192.3280  175.4180  147.3060 C   0  0  0  0  0  2  0  0  0  0  0  0
  187.5530  177.6900  144.4750 C   0  0  0  0  0  0  0  0  0  0  0  0
  187.4260  177.7630  140.6730 N   0  0  0  0  0  2  0  0  0  0  0  0
  186.9990  176.7920  139.7490 N   0  0  0  0  0  2  0  0  0  0  0  0
  189.5100  171.7850  139.1570 C   0  0  1  0  0  3  0  0  0  0  0  0
  187.6800  175.5520  139.5280 C   0  0  0  0  0  0  0  0  0  0  0  0
  187.8160  174.9180  138.2860 C   0  0  0  0  0  3  0  0  0  0  0  0
  189.2810  172.6100  140.3160 O   0  0  0  0  0  0  0  0  0  0  0  0
  188.4540  173.7850  138.5880 N   0  0  0  0  0  0  0  0  0  0  0  0
  188.6510  173.7460  139.8720 C   0  0  0  0  0  0  0  0  0  0  0  0
  188.1950  174.8110  140.5490 N   0  0  0  0  0  0  0  0  0  0  0  0
  188.9500  172.5920  137.9430 C   0  0  0  0  0  2  0  0  0  0  0  0
  191.7660  171.2110  140.0750 O   0  0  0  0  0  1  0  0  0  0  0  0
  190.9710  171.5360  138.9820 C   0  0  0  0  0  0  0  0  0  0  0  0
  191.4900  171.6430  137.8400 O   0  0  0  0  0  0  0  0  0  0  0  0
  1  6  1  1  0  0  0
  3 14  1  6  0  0  0
  3  9  1  0  0  0  0
  4 25  1  0  0  0  0
  5 22  1  0  0  0  0
  6 24  1  0  0  0  0
  7  5  1  0  0  0  0
  7 15  2  0  0  0  0
  8 16  2  0  0  0  0
  9  1  1  0  0  0  0
  9 13  1  1  0  0  0
 10 23  2  0  0  0  0
 10  4  1  0  0  0  0
 11 21  2  0  0  0  0
 12  4  2  0  0  0  0
 12 11  1  0  0  0  0
 13 24  1  0  0  0  0
 15  8  1  0  0  0  0
 17  7  1  0  0  0  0
 18  2  1  0  0  0  0
 19 11  1  0  0  0  0
 19  3  1  0  0  0  0
 20 18  2  0  0  0  0
 21 20  1  0  0  0  0
 21  1  1  0  0  0  0
 22 16  1  0  0  0  0
 22  2  2  0  0  0  0
 23 17  1  0  0  0  0
 25  5  2  0  0  0  0
 25 20  1  0  0  0  0
 26 10  1  0  0  0  0
 27 26  1  0  0  0  0
 28 37  1  6  0  0  0
 28 31  1  0  0  0  0
 29 27  1  0  0  0  0
 29 34  1  0  0  0  0
 30 32  1  0  0  0  0
 30 29  2  0  0  0  0
 32 33  1  0  0  0  0
 33 31  1  0  0  0  0
 33 34  2  0  0  0  0
 35 32  1  0  0  0  0
 35 28  1  0  0  0  0
 37 36  1  0  0  0  0
 38 37  2  0  0  0  0
M  END
>  <MODEL>
1

>  <REMARK>
 VINA RESULT:      -9.1      0.000      0.000
  Name = 
  4 active torsions:
  status: ('A' for Active; 'I' for Inactive)
    1  A    between atoms: C_4  and  C_20
    2  A    between atoms: N_11  and  C_12
    3  A    between atoms: N_11  and  N_28
    4  A    between atoms: C_14  and  N_28
                            x       y       z     vdW  Elec       q    Type
                         _______ _______ _______ _____ _____    ______ ____

>  <TORSDO>
F 4

$$$$
=
 OpenBabel11042417113D

 38 45  0  0  1  0  0  0  0  0999 V2000
  191.1480  176.7340  145.8880 C   0  0  1  0  0  3  0  0  0  0  0  0
  187.3580  177.9680  147.1630 N   0  0  0  0  0  0  0  0  0  0  0  0
  192.6980  176.3250  144.0360 C   0  0  1  0  0  3  0  0  0  0  0  0
  187.9120  177.2310  143.0460 C   0  0  0  0  0  0  0  0  0  0  0  0
  186.3550  177.9240  144.9630 C   0  0  0  0  0  0  0  0  0  0  0  0
  190.9140  176.2050  147.2860 C   0  0  0  0  0  2  0  0  0  0  0  0
  185.1500  178.1660  144.2400 C   0  0  0  0  0  0  0  0  0  0  0  0
  184.0010  178.7940  146.2560 N   0  0  0  0  0  0  0  0  0  0  0  0
  192.1720  175.7750  145.3500 C   0  0  1  0  0  3  0  0  0  0  0  0
  187.0460  177.2760  141.9410 C   0  0  0  0  0  0  0  0  0  0  0  0
  190.2040  176.7150  143.5750 C   0  0  0  0  0  0  0  0  0  0  0  0
  189.1850  176.8780  142.7120 N   0  0  0  0  0  0  0  0  0  0  0  0
  193.1610  175.6510  146.4840 C   0  0  0  0  0  2  0  0  0  0  0  0
  193.8380  175.4720  143.5090 C   0  0  0  0  0  1  0  0  0  0  0  0
  184.0050  178.5970  144.9210 C   0  0  0  0  0  3  0  0  0  0  0  0
  185.1130  178.5820  146.9860 C   0  0  0  0  0  3  0  0  0  0  0  0
  184.9500  178.0250  142.9190 N   0  0  0  0  0  2  0  0  0  0  0  0
  188.5130  177.5550  146.6720 N   0  0  0  0  0  0  0  0  0  0  0  0
  191.5500  176.2980  143.0170 C   0  0  0  0  0  2  0  0  0  0  0  0
  188.6930  177.2970  145.3570 C   0  0  0  0  0  0  0  0  0  0  0  0
  189.9650  176.8540  144.9440 C   0  0  0  0  0  0  0  0  0  0  0  0
  186.2860  178.1550  146.3730 C   0  0  0  0  0  0  0  0  0  0  0  0
  185.7520  177.6450  141.9430 N   0  0  0  0  0  0  0  0  0  0  0  0
  192.2890  175.7140  147.7360 C   0  0  0  0  0  2  0  0  0  0  0  0
  187.6130  177.4870  144.4240 C   0  0  0  0  0  0  0  0  0  0  0  0
  187.6040  176.9360  140.6590 N   0  0  0  0  0  2  0  0  0  0  0  0
  187.5620  175.6470  140.0980 N   0  0  0  0  0  2  0  0  0  0  0  0
  190.2540  171.1330  142.1230 C   0  0  1  0  0  3  0  0  0  0  0  0
  188.3230  174.5400  140.5930 C   0  0  0  0  0  0  0  0  0  0  0  0
  189.4080  173.9490  139.9320 C   0  0  0  0  0  3  0  0  0  0  0  0
  189.1470  171.8980  142.6370 O   0  0  0  0  0  0  0  0  0  0  0  0
  189.7410  172.9340  140.7340 N   0  0  0  0  0  0  0  0  0  0  0  0
  188.9240  172.9170  141.7460 C   0  0  0  0  0  0  0  0  0  0  0  0
  187.9950  173.8850  141.7420 N   0  0  0  0  0  0  0  0  0  0  0  0
  190.6870  171.8470  140.8030 C   0  0  0  0  0  2  0  0  0  0  0  0
  191.2640  171.8150  144.3080 O   0  0  0  0  0  1  0  0  0  0  0  0
  191.3800  171.1330  143.1030 C   0  0  0  0  0  0  0  0  0  0  0  0
  192.4490  170.5280  142.8260 O   0  0  0  0  0  0  0  0  0  0  0  0
  1  6  1  1  0  0  0
  3 14  1  6  0  0  0
  3  9  1  0  0  0  0
  4 25  1  0  0  0  0
  5 22  1  0  0  0  0
  6 24  1  0  0  0  0
  7 15  2  0  0  0  0
  7  5  1  0  0  0  0
  8 16  2  0  0  0  0
  9  1  1  0  0  0  0
  9 13  1  1  0  0  0
 10 23  2  0  0  0  0
 10  4  1  0  0  0  0
 11 21  2  0  0  0  0
 12  4  2  0  0  0  0
 12 11  1  0  0  0  0
 13 24  1  0  0  0  0
 15  8  1  0  0  0  0
 17  7  1  0  0  0  0
 18  2  1  0  0  0  0
 19 11  1  0  0  0  0
 19  3  1  0  0  0  0
 20 18  2  0  0  0  0
 21 20  1  0  0  0  0
 21  1  1  0  0  0  0
 22 16  1  0  0  0  0
 22  2  2  0  0  0  0
 23 17  1  0  0  0  0
 25  5  2  0  0  0  0
 25 20  1  0  0  0  0
 26 10  1  0  0  0  0
 27 29  1  0  0  0  0
 27 26  1  0  0  0  0
 28 31  1  0  0  0  0
 28 37  1  1  0  0  0
 29 34  1  0  0  0  0
 30 29  2  0  0  0  0
 30 32  1  0  0  0  0
 32 35  1  0  0  0  0
 32 33  1  0  0  0  0
 33 31  1  0  0  0  0
 34 33  2  0  0  0  0
 35 28  1  0  0  0  0
 37 36  1  0  0  0  0
 38 37  2  0  0  0  0
M  END
>  <MODEL>
2

>  <REMARK>
 VINA RESULT:      -9.1      1.488      1.771
  Name = 
  4 active torsions:
  status: ('A' for Active; 'I' for Inactive)
    1  A    between atoms: C_4  and  C_20
    2  A    between atoms: N_11  and  C_12
    3  A    between atoms: N_11  and  N_28
    4  A    between atoms: C_14  and  N_28
                            x       y       z     vdW  Elec       q    Type
                         _______ _______ _______ _____ _____    ______ ____

>  <TORSDO>
F 4

$$$$
=
 OpenBabel11042417113D

 38 45  0  0  1  0  0  0  0  0999 V2000
  188.6160  173.6610  141.1520 C   0  0  1  0  0  3  0  0  0  0  0  0
  186.3380  177.1050  141.8350 N   0  0  0  0  0  0  0  0  0  0  0  0
  189.9290  171.8100  142.0730 C   0  0  1  0  0  3  0  0  0  0  0  0
  188.5680  175.5460  145.0570 C   0  0  0  0  0  0  0  0  0  0  0  0
  186.9690  177.3380  144.1570 C   0  0  0  0  0  0  0  0  0  0  0  0
  188.5650  174.4670  139.8720 C   0  0  0  0  0  2  0  0  0  0  0  0
  186.7810  178.1260  145.3300 C   0  0  0  0  0  0  0  0  0  0  0  0
  185.2820  179.6020  144.1650 N   0  0  0  0  0  0  0  0  0  0  0  0
  189.8740  172.8590  140.9770 C   0  0  1  0  0  3  0  0  0  0  0  0
  188.7580  175.9680  146.3830 C   0  0  0  0  0  0  0  0  0  0  0  0
  189.2760  173.7980  143.5580 C   0  0  0  0  0  0  0  0  0  0  0  0
  189.2440  174.3990  144.7620 N   0  0  0  0  0  0  0  0  0  0  0  0
  189.7690  172.3580  139.5560 C   0  0  0  0  0  2  0  0  0  0  0  0
  191.1070  170.8750  141.8690 C   0  0  0  0  0  1  0  0  0  0  0  0
  185.9350  179.2410  145.2900 C   0  0  0  0  0  3  0  0  0  0  0  0
  185.4240  178.8900  143.0300 C   0  0  0  0  0  3  0  0  0  0  0  0
  187.3400  177.9370  146.5360 N   0  0  0  0  0  2  0  0  0  0  0  0
  187.1010  176.0350  141.7080 N   0  0  0  0  0  0  0  0  0  0  0  0
  190.1030  172.5360  143.4140 C   0  0  0  0  0  2  0  0  0  0  0  0
  187.8360  175.5410  142.7300 C   0  0  0  0  0  0  0  0  0  0  0  0
  188.6210  174.3990  142.4810 C   0  0  0  0  0  0  0  0  0  0  0  0
  186.2480  177.7700  143.0000 C   0  0  0  0  0  0  0  0  0  0  0  0
  188.1810  177.0240  146.9850 N   0  0  0  0  0  0  0  0  0  0  0  0
  189.1090  173.5150  138.8090 C   0  0  0  0  0  2  0  0  0  0  0  0
  187.7920  176.1670  144.0250 C   0  0  0  0  0  0  0  0  0  0  0  0
  189.6250  175.1680  147.2070 N   0  0  0  0  0  2  0  0  0  0  0  0
  190.8930  175.5830  147.6520 N   0  0  0  0  0  2  0  0  0  0  0  0
  195.6900  175.6510  144.7030 C   0  0  1  0  0  3  0  0  0  0  0  0
  192.0660  175.5690  146.8330 C   0  0  0  0  0  0  0  0  0  0  0  0
  192.4640  174.5020  146.0160 C   0  0  0  0  0  3  0  0  0  0  0  0
  195.0890  176.6270  145.5750 O   0  0  0  0  0  0  0  0  0  0  0  0
  193.6290  174.9200  145.5120 N   0  0  0  0  0  0  0  0  0  0  0  0
  193.8970  176.0950  145.9990 C   0  0  0  0  0  0  0  0  0  0  0  0
  192.9750  176.5830  146.8430 N   0  0  0  0  0  0  0  0  0  0  0  0
  194.6810  174.4600  144.6380 C   0  0  0  0  0  2  0  0  0  0  0  0
  197.0190  176.9920  143.0610 O   0  0  0  0  0  1  0  0  0  0  0  0
  195.8910  176.2310  143.3420 C   0  0  0  0  0  0  0  0  0  0  0  0
  195.0220  176.0470  142.4500 O   0  0  0  0  0  0  0  0  0  0  0  0
  1  6  1  6  0  0  0
  1 21  1  0  0  0  0
  2 22  1  0  0  0  0
  3 14  1  6  0  0  0
  3 19  1  0  0  0  0
  4 10  1  0  0  0  0
  5  7  1  0  0  0  0
  7 17  1  0  0  0  0
  8 15  1  0  0  0  0
  9 13  1  6  0  0  0
  9  1  1  0  0  0  0
  9  3  1  0  0  0  0
 10 23  2  0  0  0  0
 10 26  1  0  0  0  0
 11 12  2  0  0  0  0
 12  4  1  0  0  0  0
 15  7  2  0  0  0  0
 16  8  2  0  0  0  0
 17 23  1  0  0  0  0
 18  2  2  0  0  0  0
 18 20  1  0  0  0  0
 19 11  1  0  0  0  0
 20 25  1  0  0  0  0
 21 20  2  0  0  0  0
 21 11  1  0  0  0  0
 22 16  1  0  0  0  0
 22  5  2  0  0  0  0
 24 13  1  0  0  0  0
 24  6  1  0  0  0  0
 25  5  1  0  0  0  0
 25  4  2  0  0  0  0
 26 27  1  0  0  0  0
 28 37  1  6  0  0  0
 28 31  1  0  0  0  0
 29 34  1  0  0  0  0
 29 27  1  0  0  0  0
 30 29  2  0  0  0  0
 31 33  1  0  0  0  0
 32 33  1  0  0  0  0
 32 30  1  0  0  0  0
 33 34  2  0  0  0  0
 35 28  1  0  0  0  0
 35 32  1  0  0  0  0
 36 37  1  0  0  0  0
 38 37  2  0  0  0  0
M  END
>  <MODEL>
3

>  <REMARK>
 VINA RESULT:      -9.0      3.131      6.361
  Name = 
  4 active torsions:
  status: ('A' for Active; 'I' for Inactive)
    1  A    between atoms: C_4  and  C_20
    2  A    between atoms: N_11  and  C_12
    3  A    between atoms: N_11  and  N_28
    4  A    between atoms: C_14  and  N_28
                            x       y       z     vdW  Elec       q    Type
                         _______ _______ _______ _____ _____    ______ ____

>  <TORSDO>
F 4

$$$$
=
 OpenBabel11042417113D

 38 45  0  0  1  0  0  0  0  0999 V2000
  186.0560  177.9050  143.7020 C   0  0  1  0  0  3  0  0  0  0  0  0
  187.5570  175.6860  140.4870 N   0  0  0  0  0  0  0  0  0  0  0  0
  186.3120  178.6640  146.0170 C   0  0  1  0  0  3  0  0  0  0  0  0
  189.3150  175.1040  144.2770 C   0  0  0  0  0  0  0  0  0  0  0  0
  189.2230  174.5080  141.7840 C   0  0  0  0  0  0  0  0  0  0  0  0
  184.9240  177.6320  142.7350 C   0  0  0  0  0  2  0  0  0  0  0  0
  190.2740  173.5480  141.7110 C   0  0  0  0  0  0  0  0  0  0  0  0
  189.9260  173.2630  139.3490 N   0  0  0  0  0  0  0  0  0  0  0  0
  185.3250  178.1270  144.9960 C   0  0  1  0  0  3  0  0  0  0  0  0
  190.3320  174.2540  144.7400 C   0  0  0  0  0  0  0  0  0  0  0  0
  187.7860  176.7720  145.1040 C   0  0  0  0  0  0  0  0  0  0  0  0
  188.7970  175.8980  145.2570 N   0  0  0  0  0  0  0  0  0  0  0  0
  184.1880  179.0390  144.6000 C   0  0  0  0  0  2  0  0  0  0  0  0
  185.6070  179.0410  147.3070 C   0  0  0  0  0  1  0  0  0  0  0  0
  190.5900  172.9550  140.4830 C   0  0  0  0  0  3  0  0  0  0  0  0
  188.9250  174.1660  139.3630 C   0  0  0  0  0  3  0  0  0  0  0  0
  191.0450  173.1060  142.7190 N   0  0  0  0  0  2  0  0  0  0  0  0
  187.1350  176.3260  141.5630 N   0  0  0  0  0  0  0  0  0  0  0  0
  187.3310  177.5550  146.3190 C   0  0  0  0  0  2  0  0  0  0  0  0
  187.6790  176.1300  142.7850 C   0  0  0  0  0  0  0  0  0  0  0  0
  187.1470  176.8610  143.8650 C   0  0  0  0  0  0  0  0  0  0  0  0
  188.5600  174.7930  140.5490 C   0  0  0  0  0  0  0  0  0  0  0  0
  191.0690  173.4010  144.0040 N   0  0  0  0  0  0  0  0  0  0  0  0
  183.7990  178.5510  143.2060 C   0  0  0  0  0  2  0  0  0  0  0  0
  188.7750  175.2120  142.9540 C   0  0  0  0  0  0  0  0  0  0  0  0
  190.6590  174.3260  146.1390 N   0  0  0  0  0  2  0  0  0  0  0  0
  191.7790  175.0050  146.6530 N   0  0  0  0  0  2  0  0  0  0  0  0
  196.5330  176.2160  143.8880 C   0  0  1  0  0  3  0  0  0  0  0  0
  192.9790  175.2350  145.9070 C   0  0  0  0  0  0  0  0  0  0  0  0
  193.9980  174.2940  145.7100 C   0  0  0  0  0  3  0  0  0  0  0  0
  195.3700  177.0120  144.1840 O   0  0  0  0  0  0  0  0  0  0  0  0
  194.9190  174.9770  145.0250 N   0  0  0  0  0  0  0  0  0  0  0  0
  194.4960  176.1950  144.8580 C   0  0  0  0  0  0  0  0  0  0  0  0
  193.2880  176.4540  145.3820 N   0  0  0  0  0  0  0  0  0  0  0  0
  196.2320  174.7930  144.4560 C   0  0  0  0  0  2  0  0  0  0  0  0
  197.7950  175.3990  141.8870 O   0  0  0  0  0  1  0  0  0  0  0  0
  196.7480  176.1480  142.4120 C   0  0  0  0  0  0  0  0  0  0  0  0
  195.9880  176.7890  141.6400 O   0  0  0  0  0  0  0  0  0  0  0  0
  1  6  1  6  0  0  0
  1 21  1  0  0  0  0
  1  9  1  0  0  0  0
  2 22  2  0  0  0  0
  2 18  1  0  0  0  0
  3 19  1  0  0  0  0
  3 14  1  1  0  0  0
  4 10  1  0  0  0  0
  4 12  2  0  0  0  0
  5 25  2  0  0  0  0
  6 24  1  0  0  0  0
  7  5  1  0  0  0  0
  7 17  1  0  0  0  0
  8 16  2  0  0  0  0
  8 15  1  0  0  0  0
  9 13  1  6  0  0  0
  9  3  1  0  0  0  0
 10 26  1  0  0  0  0
 11 12  1  0  0  0  0
 11 19  1  0  0  0  0
 15  7  2  0  0  0  0
 16 22  1  0  0  0  0
 17 23  1  0  0  0  0
 18 20  2  0  0  0  0
 20 25  1  0  0  0  0
 20 21  1  0  0  0  0
 21 11  2  0  0  0  0
 22  5  1  0  0  0  0
 23 10  2  0  0  0  0
 24 13  1  0  0  0  0
 25  4  1  0  0  0  0
 26 27  1  0  0  0  0
 28 37  1  6  0  0  0
 28 31  1  0  0  0  0
 28 35  1  0  0  0  0
 29 27  1  0  0  0  0
 30 29  2  0  0  0  0
 31 33  1  0  0  0  0
 32 30  1  0  0  0  0
 33 32  1  0  0  0  0
 33 34  2  0  0  0  0
 34 29  1  0  0  0  0
 35 32  1  0  0  0  0
 36 37  1  0  0  0  0
 38 37  2  0  0  0  0
M  END
>  <MODEL>
4

>  <REMARK>
 VINA RESULT:      -8.8      3.269      7.588
  Name = 
  4 active torsions:
  status: ('A' for Active; 'I' for Inactive)
    1  A    between atoms: C_4  and  C_20
    2  A    between atoms: N_11  and  C_12
    3  A    between atoms: N_11  and  N_28
    4  A    between atoms: C_14  and  N_28
                            x       y       z     vdW  Elec       q    Type
                         _______ _______ _______ _____ _____    ______ ____

>  <TORSDO>
F 4

$$$$
=
 OpenBabel11042417113D

 38 45  0  0  1  0  0  0  0  0999 V2000
  186.4840  178.3040  143.8250 C   0  0  1  0  0  3  0  0  0  0  0  0
  186.4750  177.3410  139.7520 N   0  0  0  0  0  0  0  0  0  0  0  0
  187.3960  177.9060  146.0630 C   0  0  1  0  0  3  0  0  0  0  0  0
  188.5070  174.7490  142.3870 C   0  0  0  0  0  0  0  0  0  0  0  0
  187.7750  175.3170  139.9950 C   0  0  0  0  0  0  0  0  0  0  0  0
  185.1850  178.7880  143.2180 C   0  0  0  0  0  2  0  0  0  0  0  0
  188.3620  174.2310  139.2830 C   0  0  0  0  0  0  0  0  0  0  0  0
  187.5360  175.0830  137.1920 N   0  0  0  0  0  0  0  0  0  0  0  0
  186.1210  178.1460  145.2740 C   0  0  1  0  0  3  0  0  0  0  0  0
  189.1960  173.5390  142.1980 C   0  0  0  0  0  0  0  0  0  0  0  0
  187.8770  176.2560  144.1570 C   0  0  0  0  0  0  0  0  0  0  0  0
  188.4990  175.1600  143.6870 N   0  0  0  0  0  0  0  0  0  0  0  0
  185.3580  179.4130  145.5790 C   0  0  0  0  0  2  0  0  0  0  0  0
  187.1140  177.8770  147.5540 C   0  0  0  0  0  1  0  0  0  0  0  0
  188.2190  174.1540  137.8920 C   0  0  0  0  0  3  0  0  0  0  0  0
  186.9630  176.1310  137.8170 C   0  0  0  0  0  3  0  0  0  0  0  0
  189.0720  173.2110  139.7920 N   0  0  0  0  0  2  0  0  0  0  0  0
  186.5130  177.5530  141.0550 N   0  0  0  0  0  0  0  0  0  0  0  0
  187.9620  176.5420  145.6430 C   0  0  0  0  0  2  0  0  0  0  0  0
  187.1450  176.7160  141.9090 C   0  0  0  0  0  0  0  0  0  0  0  0
  187.1160  177.0340  143.2810 C   0  0  0  0  0  0  0  0  0  0  0  0
  187.0670  176.2690  139.1960 C   0  0  0  0  0  0  0  0  0  0  0  0
  189.4240  172.9140  141.0280 N   0  0  0  0  0  0  0  0  0  0  0  0
  184.5830  179.6900  144.2940 C   0  0  0  0  0  2  0  0  0  0  0  0
  187.8290  175.5510  141.4120 C   0  0  0  0  0  0  0  0  0  0  0  0
  189.7600  172.9180  143.3670 N   0  0  0  0  0  2  0  0  0  0  0  0
  191.0960  172.4910  143.4650 N   0  0  0  0  0  2  0  0  0  0  0  0
  195.2230  176.2380  144.2660 C   0  0  1  0  0  3  0  0  0  0  0  0
  192.1990  173.3760  143.6910 C   0  0  0  0  0  0  0  0  0  0  0  0
  193.0480  173.3360  144.8040 C   0  0  0  0  0  3  0  0  0  0  0  0
  194.2630  176.0850  143.2040 O   0  0  0  0  0  0  0  0  0  0  0  0
  193.8620  174.3760  144.6070 N   0  0  0  0  0  0  0  0  0  0  0  0
  193.5130  174.9760  143.5070 C   0  0  0  0  0  0  0  0  0  0  0  0
  192.4740  174.4230  142.8640 N   0  0  0  0  0  0  0  0  0  0  0  0
  194.9660  175.0510  145.2470 C   0  0  0  0  0  2  0  0  0  0  0  0
  197.3670  175.0100  143.8720 O   0  0  0  0  0  1  0  0  0  0  0  0
  196.6110  176.1660  143.7200 C   0  0  0  0  0  0  0  0  0  0  0  0
  197.1060  177.1650  143.1370 O   0  0  0  0  0  0  0  0  0  0  0  0
  1  6  1  6  0  0  0
  1  9  1  0  0  0  0
  2 18  1  0  0  0  0
  3 14  1  1  0  0  0
  4 12  2  0  0  0  0
  5 25  2  0  0  0  0
  6 24  1  0  0  0  0
  7 17  1  0  0  0  0
  7  5  1  0  0  0  0
  8 16  2  0  0  0  0
  8 15  1  0  0  0  0
  9 13  1  1  0  0  0
  9  3  1  0  0  0  0
 10  4  1  0  0  0  0
 10 26  1  0  0  0  0
 11 19  1  0  0  0  0
 12 11  1  0  0  0  0
 15  7  2  0  0  0  0
 16 22  1  0  0  0  0
 17 23  1  0  0  0  0
 18 20  2  0  0  0  0
 19  3  1  0  0  0  0
 20 21  1  0  0  0  0
 21  1  1  0  0  0  0
 21 11  2  0  0  0  0
 22  2  2  0  0  0  0
 22  5  1  0  0  0  0
 23 10  2  0  0  0  0
 24 13  1  0  0  0  0
 25 20  1  0  0  0  0
 25  4  1  0  0  0  0
 26 27  1  0  0  0  0
 27 29  1  0  0  0  0
 28 37  1  6  0  0  0
 28 35  1  0  0  0  0
 29 30  2  0  0  0  0
 31 33  1  0  0  0  0
 31 28  1  0  0  0  0
 32 30  1  0  0  0  0
 32 35  1  0  0  0  0
 33 32  1  0  0  0  0
 34 33  2  0  0  0  0
 34 29  1  0  0  0  0
 37 36  1  0  0  0  0
 38 37  2  0  0  0  0
M  END
>  <MODEL>
5

>  <REMARK>
 VINA RESULT:      -8.5      3.064      7.100
  Name = 
  4 active torsions:
  status: ('A' for Active; 'I' for Inactive)
    1  A    between atoms: C_4  and  C_20
    2  A    between atoms: N_11  and  C_12
    3  A    between atoms: N_11  and  N_28
    4  A    between atoms: C_14  and  N_28
                            x       y       z     vdW  Elec       q    Type
                         _______ _______ _______ _____ _____    ______ ____

>  <TORSDO>
F 4

$$$$
=
 OpenBabel11042417113D

 38 45  0  0  1  0  0  0  0  0999 V2000
  192.8580  176.5790  144.9090 C   0  0  1  0  0  3  0  0  0  0  0  0
  189.3140  177.5010  146.9350 N   0  0  0  0  0  0  0  0  0  0  0  0
  193.9780  176.0410  142.7980 C   0  0  1  0  0  3  0  0  0  0  0  0
  189.0100  176.0760  142.9770 C   0  0  0  0  0  0  0  0  0  0  0  0
  187.8480  176.9020  145.1090 C   0  0  0  0  0  0  0  0  0  0  0  0
  193.0590  176.3000  146.3830 C   0  0  0  0  0  2  0  0  0  0  0  0
  186.4840  176.8340  144.7000 C   0  0  0  0  0  0  0  0  0  0  0  0
  185.7450  177.6710  146.8290 N   0  0  0  0  0  0  0  0  0  0  0  0
  193.8830  175.6850  144.2710 C   0  0  1  0  0  3  0  0  0  0  0  0
  187.9160  175.7900  142.1440 C   0  0  0  0  0  0  0  0  0  0  0  0
  191.4170  175.9900  142.9550 C   0  0  0  0  0  0  0  0  0  0  0  0
  190.2120  175.8430  142.3760 N   0  0  0  0  0  0  0  0  0  0  0  0
  195.1160  175.9170  145.1110 C   0  0  0  0  0  2  0  0  0  0  0  0
  195.0970  175.2680  142.1240 C   0  0  0  0  0  1  0  0  0  0  0  0
  185.4720  177.2250  145.5850 C   0  0  0  0  0  3  0  0  0  0  0  0
  187.0180  177.7570  147.2650 C   0  0  0  0  0  3  0  0  0  0  0  0
  186.0080  176.4170  143.5140 N   0  0  0  0  0  2  0  0  0  0  0  0
  190.3770  177.1660  146.2260 N   0  0  0  0  0  0  0  0  0  0  0  0
  192.6470  175.6620  142.1330 C   0  0  0  0  0  2  0  0  0  0  0  0
  190.2870  176.6880  144.9640 C   0  0  0  0  0  0  0  0  0  0  0  0
  191.4840  176.3540  144.3030 C   0  0  0  0  0  0  0  0  0  0  0  0
  188.0710  177.3850  146.4360 C   0  0  0  0  0  0  0  0  0  0  0  0
  186.6130  175.9710  142.4300 N   0  0  0  0  0  0  0  0  0  0  0  0
  194.5660  176.0970  146.5240 C   0  0  0  0  0  2  0  0  0  0  0  0
  189.0020  176.5470  144.3300 C   0  0  0  0  0  0  0  0  0  0  0  0
  188.2090  175.2910  140.8260 N   0  0  0  0  0  2  0  0  0  0  0  0
  188.0670  173.9450  140.4440 N   0  0  0  0  0  2  0  0  0  0  0  0
  191.5160  169.7720  141.9940 C   0  0  1  0  0  3  0  0  0  0  0  0
  189.0060  172.9190  140.7840 C   0  0  0  0  0  0  0  0  0  0  0  0
  189.7880  172.2060  139.8660 C   0  0  0  0  0  3  0  0  0  0  0  0
  190.6520  170.6330  142.7590 O   0  0  0  0  0  0  0  0  0  0  0  0
  190.4410  171.3310  140.6340 N   0  0  0  0  0  0  0  0  0  0  0  0
  190.0660  171.4960  141.8670 C   0  0  0  0  0  0  0  0  0  0  0  0
  189.1630  172.4690  142.0600 N   0  0  0  0  0  0  0  0  0  0  0  0
  191.3910  170.2500  140.5130 C   0  0  0  0  0  2  0  0  0  0  0  0
  193.3960  169.1370  143.5190 O   0  0  0  0  0  1  0  0  0  0  0  0
  192.9270  169.9090  142.4630 C   0  0  0  0  0  0  0  0  0  0  0  0
  193.6900  170.7450  141.9120 O   0  0  0  0  0  0  0  0  0  0  0  0
  1  6  1  1  0  0  0
  3 14  1  6  0  0  0
  3  9  1  0  0  0  0
  4 25  1  0  0  0  0
  5 22  1  0  0  0  0
  6 24  1  0  0  0  0
  7  5  2  0  0  0  0
  7 15  1  0  0  0  0
  8 16  1  0  0  0  0
  9  1  1  0  0  0  0
  9 13  1  1  0  0  0
 10 23  2  0  0  0  0
 10  4  1  0  0  0  0
 11 21  2  0  0  0  0
 12 11  1  0  0  0  0
 12  4  2  0  0  0  0
 13 24  1  0  0  0  0
 15  8  2  0  0  0  0
 17  7  1  0  0  0  0
 18  2  2  0  0  0  0
 19  3  1  0  0  0  0
 19 11  1  0  0  0  0
 20 18  1  0  0  0  0
 21  1  1  0  0  0  0
 21 20  1  0  0  0  0
 22  2  1  0  0  0  0
 22 16  2  0  0  0  0
 23 17  1  0  0  0  0
 25 20  2  0  0  0  0
 25  5  1  0  0  0  0
 26 10  1  0  0  0  0
 27 29  1  0  0  0  0
 27 26  1  0  0  0  0
 28 37  1  1  0  0  0
 28 31  1  0  0  0  0
 29 34  1  0  0  0  0
 30 32  1  0  0  0  0
 30 29  2  0  0  0  0
 32 33  1  0  0  0  0
 33 34  2  0  0  0  0
 33 31  1  0  0  0  0
 35 32  1  0  0  0  0
 35 28  1  0  0  0  0
 37 36  1  0  0  0  0
 38 37  2  0  0  0  0
M  END
>  <MODEL>
6

>  <REMARK>
 VINA RESULT:      -8.4      2.050      2.723
  Name = 
  4 active torsions:
  status: ('A' for Active; 'I' for Inactive)
    1  A    between atoms: C_4  and  C_20
    2  A    between atoms: N_11  and  C_12
    3  A    between atoms: N_11  and  N_28
    4  A    between atoms: C_14  and  N_28
                            x       y       z     vdW  Elec       q    Type
                         _______ _______ _______ _____ _____    ______ ____

>  <TORSDO>
F 4

$$$$
=
 OpenBabel11042417113D

 38 45  0  0  1  0  0  0  0  0999 V2000
  190.5200  173.7830  140.5840 C   0  0  1  0  0  3  0  0  0  0  0  0
  194.3980  175.3530  140.6830 N   0  0  0  0  0  0  0  0  0  0  0  0
  188.3780  173.4340  141.7200 C   0  0  1  0  0  3  0  0  0  0  0  0
  192.2510  175.1700  144.3090 C   0  0  0  0  0  0  0  0  0  0  0  0
  194.4050  175.7880  143.0610 C   0  0  0  0  0  0  0  0  0  0  0  0
  191.3480  173.0890  139.5240 C   0  0  0  0  0  2  0  0  0  0  0  0
  195.1830  176.3100  144.1350 C   0  0  0  0  0  0  0  0  0  0  0  0
  197.0120  176.7900  142.6510 N   0  0  0  0  0  0  0  0  0  0  0  0
  189.4380  172.7760  140.8550 C   0  0  1  0  0  3  0  0  0  0  0  0
  192.5780  175.5070  145.6330 C   0  0  0  0  0  0  0  0  0  0  0  0
  190.4240  174.2500  143.0370 C   0  0  0  0  0  0  0  0  0  0  0  0
  190.9820  174.6880  144.1800 N   0  0  0  0  0  0  0  0  0  0  0  0
  189.0170  172.3390  139.4720 C   0  0  0  0  0  2  0  0  0  0  0  0
  187.1880  172.5120  141.9150 C   0  0  0  0  0  1  0  0  0  0  0  0
  196.4720  176.7970  143.8880 C   0  0  0  0  0  3  0  0  0  0  0  0
  196.3190  176.3100  141.6010 C   0  0  0  0  0  3  0  0  0  0  0  0
  194.8300  176.4000  145.4280 N   0  0  0  0  0  2  0  0  0  0  0  0
  193.1770  174.8540  140.7520 N   0  0  0  0  0  0  0  0  0  0  0  0
  189.0030  173.7280  143.0920 C   0  0  0  0  0  2  0  0  0  0  0  0
  192.4890  174.7730  141.9140 C   0  0  0  0  0  0  0  0  0  0  0  0
  191.1970  174.2160  141.8730 C   0  0  0  0  0  0  0  0  0  0  0  0
  195.0320  175.8120  141.7760 C   0  0  0  0  0  0  0  0  0  0  0  0
  193.7270  176.0570  146.0660 N   0  0  0  0  0  0  0  0  0  0  0  0
  190.3200  172.3400  138.6770 C   0  0  0  0  0  2  0  0  0  0  0  0
  193.0720  175.2570  143.1380 C   0  0  0  0  0  0  0  0  0  0  0  0
  191.5670  175.2850  146.6330 N   0  0  0  0  0  2  0  0  0  0  0  0
  190.7340  176.2940  147.1490 N   0  0  0  0  0  2  0  0  0  0  0  0
  186.0040  177.7910  144.4840 C   0  0  1  0  0  3  0  0  0  0  0  0
  189.4920  176.6810  146.5510 C   0  0  0  0  0  0  0  0  0  0  0  0
  188.2380  176.1550  146.8880 C   0  0  0  0  0  3  0  0  0  0  0  0
  187.3710  178.2120  144.3160 O   0  0  0  0  0  0  0  0  0  0  0  0
  187.4110  176.7630  146.0330 N   0  0  0  0  0  0  0  0  0  0  0  0
  188.1080  177.5440  145.2620 C   0  0  0  0  0  0  0  0  0  0  0  0
  189.4260  177.5560  145.5080 N   0  0  0  0  0  0  0  0  0  0  0  0
  186.0110  176.7900  145.6830 C   0  0  0  0  0  2  0  0  0  0  0  0
  184.0540  178.8310  145.6570 O   0  0  0  0  0  1  0  0  0  0  0  0
  185.1380  178.9660  144.7980 C   0  0  0  0  0  0  0  0  0  0  0  0
  185.3800  180.0800  144.2640 O   0  0  0  0  0  0  0  0  0  0  0  0
  1  6  1  6  0  0  0
  1  9  1  0  0  0  0
  1 21  1  0  0  0  0
  2 18  2  0  0  0  0
  2 22  1  0  0  0  0
  3 14  1  1  0  0  0
  3 19  1  0  0  0  0
  4 10  1  0  0  0  0
  5 25  1  0  0  0  0
  5  7  1  0  0  0  0
  7 17  1  0  0  0  0
  8 15  1  0  0  0  0
  9 13  1  6  0  0  0
  9  3  1  0  0  0  0
 10 23  2  0  0  0  0
 10 26  1  0  0  0  0
 11 19  1  0  0  0  0
 11 12  2  0  0  0  0
 12  4  1  0  0  0  0
 15  7  2  0  0  0  0
 16 22  1  0  0  0  0
 16  8  2  0  0  0  0
 17 23  1  0  0  0  0
 18 20  1  0  0  0  0
 20 25  1  0  0  0  0
 21 20  2  0  0  0  0
 21 11  1  0  0  0  0
 22  5  2  0  0  0  0
 24 13  1  0  0  0  0
 24  6  1  0  0  0  0
 25  4  2  0  0  0  0
 26 27  1  0  0  0  0
 28 37  1  1  0  0  0
 28 35  1  0  0  0  0
 29 30  2  0  0  0  0
 29 27  1  0  0  0  0
 31 28  1  0  0  0  0
 31 33  1  0  0  0  0
 32 30  1  0  0  0  0
 33 34  2  0  0  0  0
 33 32  1  0  0  0  0
 34 29  1  0  0  0  0
 35 32  1  0  0  0  0
 37 36  1  0  0  0  0
 38 37  2  0  0  0  0
M  END
>  <MODEL>
7

>  <REMARK>
 VINA RESULT:      -8.3      3.821      8.542
  Name = 
  4 active torsions:
  status: ('A' for Active; 'I' for Inactive)
    1  A    between atoms: C_4  and  C_20
    2  A    between atoms: N_11  and  C_12
    3  A    between atoms: N_11  and  N_28
    4  A    between atoms: C_14  and  N_28
                            x       y       z     vdW  Elec       q    Type
                         _______ _______ _______ _____ _____    ______ ____

>  <TORSDO>
F 4

$$$$
=
 OpenBabel11042417113D

 38 45  0  0  1  0  0  0  0  0999 V2000
  189.7410  174.1530  143.5210 C   0  0  1  0  0  3  0  0  0  0  0  0
  188.3180  176.3040  146.8170 N   0  0  0  0  0  0  0  0  0  0  0  0
  189.9570  173.9590  141.0890 C   0  0  1  0  0  3  0  0  0  0  0  0
  186.9030  177.3880  142.9950 C   0  0  0  0  0  0  0  0  0  0  0  0
  186.8870  177.7680  145.5310 C   0  0  0  0  0  0  0  0  0  0  0  0
  189.6880  173.2250  144.7150 C   0  0  0  0  0  2  0  0  0  0  0  0
  185.9750  178.8600  145.6210 C   0  0  0  0  0  0  0  0  0  0  0  0
  186.2320  178.9500  148.0100 N   0  0  0  0  0  0  0  0  0  0  0  0
  189.6590  173.1950  142.3670 C   0  0  1  0  0  3  0  0  0  0  0  0
  185.9760  178.3470  142.5540 C   0  0  0  0  0  0  0  0  0  0  0  0
  188.3300  175.6590  142.1130 C   0  0  0  0  0  0  0  0  0  0  0  0
  187.4510  176.6680  141.9750 N   0  0  0  0  0  0  0  0  0  0  0  0
  190.6300  172.1050  142.7530 C   0  0  0  0  0  2  0  0  0  0  0  0
  190.0270  173.0200  139.8990 C   0  0  0  0  0  1  0  0  0  0  0  0
  185.6780  179.4160  146.8710 C   0  0  0  0  0  3  0  0  0  0  0  0
  187.1010  177.9200  147.9800 C   0  0  0  0  0  3  0  0  0  0  0  0
  185.3210  179.4600  144.6130 N   0  0  0  0  0  2  0  0  0  0  0  0
  188.6960  175.6680  145.7220 N   0  0  0  0  0  0  0  0  0  0  0  0
  188.8150  174.9590  140.8590 C   0  0  0  0  0  2  0  0  0  0  0  0
  188.2310  175.9960  144.4960 C   0  0  0  0  0  0  0  0  0  0  0  0
  188.6940  175.2460  143.3970 C   0  0  0  0  0  0  0  0  0  0  0  0
  187.4410  177.3220  146.7720 C   0  0  0  0  0  0  0  0  0  0  0  0
  185.3170  179.2420  143.3120 N   0  0  0  0  0  0  0  0  0  0  0  0
  190.4690  171.9920  144.2670 C   0  0  0  0  0  2  0  0  0  0  0  0
  187.3050  177.0860  144.3370 C   0  0  0  0  0  0  0  0  0  0  0  0
  185.7310  178.4170  141.1370 N   0  0  0  0  0  2  0  0  0  0  0  0
  184.7050  177.7150  140.4790 N   0  0  0  0  0  2  0  0  0  0  0  0
  179.3030  178.8250  141.6200 C   0  0  1  0  0  3  0  0  0  0  0  0
  183.3120  177.9160  140.7400 C   0  0  0  0  0  0  0  0  0  0  0  0
  182.2740  177.6030  139.8520 C   0  0  0  0  0  3  0  0  0  0  0  0
  180.5060  179.0420  142.3820 O   0  0  0  0  0  0  0  0  0  0  0  0
  181.1820  178.0220  140.4970 N   0  0  0  0  0  0  0  0  0  0  0  0
  181.5430  178.5460  141.6310 C   0  0  0  0  0  0  0  0  0  0  0  0
  182.8630  178.5290  141.8700 N   0  0  0  0  0  0  0  0  0  0  0  0
  179.7540  178.1060  140.3090 C   0  0  0  0  0  2  0  0  0  0  0  0
  178.0610  178.2420  143.7130 O   0  0  0  0  0  1  0  0  0  0  0  0
  178.3580  177.9590  142.3850 C   0  0  0  0  0  0  0  0  0  0  0  0
  177.8440  176.9530  141.8290 O   0  0  0  0  0  0  0  0  0  0  0  0
  1  6  1  1  0  0  0
  3 14  1  6  0  0  0
  3  9  1  0  0  0  0
  4 25  1  0  0  0  0
  5  7  2  0  0  0  0
  5 22  1  0  0  0  0
  7 15  1  0  0  0  0
  9 13  1  1  0  0  0
  9  1  1  0  0  0  0
 10  4  1  0  0  0  0
 10 23  2  0  0  0  0
 11 21  2  0  0  0  0
 12 11  1  0  0  0  0
 12  4  2  0  0  0  0
 13 24  1  0  0  0  0
 15  8  2  0  0  0  0
 16  8  1  0  0  0  0
 17  7  1  0  0  0  0
 18  2  2  0  0  0  0
 19  3  1  0  0  0  0
 19 11  1  0  0  0  0
 20 18  1  0  0  0  0
 21  1  1  0  0  0  0
 21 20  1  0  0  0  0
 22  2  1  0  0  0  0
 22 16  2  0  0  0  0
 23 17  1  0  0  0  0
 24  6  1  0  0  0  0
 25 20  2  0  0  0  0
 25  5  1  0  0  0  0
 26 10  1  0  0  0  0
 27 29  1  0  0  0  0
 27 26  1  0  0  0  0
 28 31  1  0  0  0  0
 28 37  1  1  0  0  0
 29 34  1  0  0  0  0
 30 32  1  0  0  0  0
 30 29  2  0  0  0  0
 32 33  1  0  0  0  0
 33 34  2  0  0  0  0
 33 31  1  0  0  0  0
 35 32  1  0  0  0  0
 35 28  1  0  0  0  0
 37 36  1  0  0  0  0
 38 37  2  0  0  0  0
M  END
>  <MODEL>
8

>  <REMARK>
 VINA RESULT:      -8.2      4.478      6.476
  Name = 
  4 active torsions:
  status: ('A' for Active; 'I' for Inactive)
    1  A    between atoms: C_4  and  C_20
    2  A    between atoms: N_11  and  C_12
    3  A    between atoms: N_11  and  N_28
    4  A    between atoms: C_14  and  N_28
                            x       y       z     vdW  Elec       q    Type
                         _______ _______ _______ _____ _____    ______ ____

>  <TORSDO>
F 4

$$$$
=
 OpenBabel11042417113D

 38 45  0  0  1  0  0  0  0  0999 V2000
  192.3360  175.4180  145.8790 C   0  0  1  0  0  3  0  0  0  0  0  0
  195.2280  175.7620  142.8740 N   0  0  0  0  0  0  0  0  0  0  0  0
  190.1650  174.5410  146.5970 C   0  0  1  0  0  3  0  0  0  0  0  0
  191.4400  174.2480  141.8010 C   0  0  0  0  0  0  0  0  0  0  0  0
  193.8150  174.9170  141.1030 C   0  0  0  0  0  0  0  0  0  0  0  0
  193.2230  176.6020  146.1970 C   0  0  0  0  0  2  0  0  0  0  0  0
  193.7730  174.5980  139.7140 C   0  0  0  0  0  0  0  0  0  0  0  0
  196.0580  175.2890  139.4290 N   0  0  0  0  0  0  0  0  0  0  0  0
  191.0700  175.7600  146.6130 C   0  0  1  0  0  3  0  0  0  0  0  0
  190.8840  173.8390  140.5780 C   0  0  0  0  0  0  0  0  0  0  0  0
  190.8280  174.4850  144.1190 C   0  0  0  0  0  0  0  0  0  0  0  0
  190.5740  174.1270  142.8470 N   0  0  0  0  0  0  0  0  0  0  0  0
  191.5670  176.2250  147.9610 C   0  0  0  0  0  2  0  0  0  0  0  0
  188.9260  174.7750  147.4430 C   0  0  0  0  0  1  0  0  0  0  0  0
  194.9090  174.7980  138.9200 C   0  0  0  0  0  3  0  0  0  0  0  0
  196.1520  175.6050  140.7360 C   0  0  0  0  0  3  0  0  0  0  0  0
  192.7320  174.1070  139.0220 N   0  0  0  0  0  2  0  0  0  0  0  0
  194.2470  175.6380  143.7500 N   0  0  0  0  0  0  0  0  0  0  0  0
  189.7300  174.2940  145.1460 C   0  0  0  0  0  2  0  0  0  0  0  0
  193.0240  175.1730  143.4100 C   0  0  0  0  0  0  0  0  0  0  0  0
  192.0500  175.0890  144.4240 C   0  0  0  0  0  0  0  0  0  0  0  0
  195.0620  175.4300  141.5810 C   0  0  0  0  0  0  0  0  0  0  0  0
  191.5050  173.7870  139.3860 N   0  0  0  0  0  0  0  0  0  0  0  0
  192.8630  176.9630  147.6370 C   0  0  0  0  0  2  0  0  0  0  0  0
  192.7500  174.7690  142.0560 C   0  0  0  0  0  0  0  0  0  0  0  0
  189.5180  173.3840  140.6000 N   0  0  0  0  0  2  0  0  0  0  0  0
  188.4180  174.1760  140.2270 N   0  0  0  0  0  2  0  0  0  0  0  0
  186.2660  177.9160  143.8470 C   0  0  1  0  0  3  0  0  0  0  0  0
  187.8190  175.1560  141.0810 C   0  0  0  0  0  0  0  0  0  0  0  0
  187.6130  176.5000  140.7440 C   0  0  0  0  0  3  0  0  0  0  0  0
  186.5410  176.5080  143.9760 O   0  0  0  0  0  0  0  0  0  0  0  0
  187.0990  177.0220  141.8610 N   0  0  0  0  0  0  0  0  0  0  0  0
  187.0320  176.0900  142.7640 C   0  0  0  0  0  0  0  0  0  0  0  0
  187.4670  174.8840  142.3690 N   0  0  0  0  0  0  0  0  0  0  0  0
  186.6390  178.2890  142.3770 C   0  0  0  0  0  2  0  0  0  0  0  0
  184.3370  178.2910  145.3950 O   0  0  0  0  0  1  0  0  0  0  0  0
  184.8190  178.1840  144.0960 C   0  0  0  0  0  0  0  0  0  0  0  0
  184.0270  178.2910  143.1230 O   0  0  0  0  0  0  0  0  0  0  0  0
  1  6  1  6  0  0  0
  1  9  1  0  0  0  0
  2 18  1  0  0  0  0
  3  9  1  0  0  0  0
  3 14  1  1  0  0  0
  4 25  1  0  0  0  0
  4 12  2  0  0  0  0
  5 22  1  0  0  0  0
  5 25  2  0  0  0  0
  6 24  1  0  0  0  0
  7  5  1  0  0  0  0
  8 16  2  0  0  0  0
  9 13  1  1  0  0  0
 10 26  1  0  0  0  0
 10  4  1  0  0  0  0
 11 21  2  0  0  0  0
 11 19  1  0  0  0  0
 12 11  1  0  0  0  0
 15  8  1  0  0  0  0
 15  7  2  0  0  0  0
 16 22  1  0  0  0  0
 17 23  1  0  0  0  0
 17  7  1  0  0  0  0
 19  3  1  0  0  0  0
 20 18  2  0  0  0  0
 20 21  1  0  0  0  0
 21  1  1  0  0  0  0
 22  2  2  0  0  0  0
 23 10  2  0  0  0  0
 24 13  1  0  0  0  0
 25 20  1  0  0  0  0
 27 26  1  0  0  0  0
 27 29  1  0  0  0  0
 28 31  1  0  0  0  0
 28 37  1  6  0  0  0
 29 34  1  0  0  0  0
 30 29  2  0  0  0  0
 30 32  1  0  0  0  0
 32 35  1  0  0  0  0
 32 33  1  0  0  0  0
 33 31  1  0  0  0  0
 34 33  2  0  0  0  0
 35 28  1  0  0  0  0
 37 36  1  0  0  0  0
 38 37  2  0  0  0  0
M  END
>  <MODEL>
9

>  <REMARK>
 VINA RESULT:      -8.1      3.540      7.301
  Name = 
  4 active torsions:
  status: ('A' for Active; 'I' for Inactive)
    1  A    between atoms: C_4  and  C_20
    2  A    between atoms: N_11  and  C_12
    3  A    between atoms: N_11  and  N_28
    4  A    between atoms: C_14  and  N_28
                            x       y       z     vdW  Elec       q    Type
                         _______ _______ _______ _____ _____    ______ ____

>  <TORSDO>
F 4

$$$$
