=
 OpenBabel11042414453D

 36 39  0  0  1  0  0  0  0  0999 V2000
  194.2010  176.0070  145.8810 C   0  0  0  0  0  0  0  0  0  0  0  0
  192.8420  174.2460  144.8920 C   0  0  0  0  0  0  0  0  0  0  0  0
  195.2230  175.7270  144.9760 C   0  0  0  0  0  3  0  0  0  0  0  0
  195.0750  174.7170  144.0260 C   0  0  0  0  0  0  0  0  0  0  0  0
  193.8840  173.9830  143.9870 C   0  0  0  0  0  3  0  0  0  0  0  0
  194.3720  177.0450  146.7930 O   0  0  0  0  0  1  0  0  0  0  0  0
  193.0050  175.2710  145.8560 C   0  0  0  0  0  0  0  0  0  0  0  0
  190.6290  173.7340  143.9900 C   0  0  0  0  0  0  0  0  0  0  0  0
  191.5910  173.4690  144.8330 C   0  0  0  0  0  3  0  0  0  0  0  0
  189.6920  174.0000  143.1260 C   0  0  0  0  0  3  0  0  0  0  0  0
  188.3390  172.7660  139.7700 C   0  0  0  0  0  2  0  0  0  0  0  0
  188.6590  173.6050  140.8850 O   0  0  0  0  0  0  0  0  0  0  0  0
  190.2720  171.4350  140.4630 N   0  0  0  0  0  0  0  0  0  0  0  0
  189.5670  173.2160  141.8880 C   0  0  1  0  0  3  0  0  0  0  0  0
  189.5890  172.0200  139.3060 C   0  0  0  0  0  2  0  0  0  0  0  0
  190.3380  172.1440  141.7070 C   0  0  0  0  0  3  0  0  0  0  0  0
  191.9400  175.5890  146.8770 C   0  0  0  0  0  2  0  0  0  0  0  0
  190.7050  176.1730  146.2520 C   0  0  0  0  0  0  0  0  0  0  0  0
  189.0240  174.6030  147.3370 C   0  0  0  0  0  1  0  0  0  0  0  0
  188.9010  177.3960  143.6450 N   0  0  0  0  0  0  0  0  0  0  0  0
  186.5370  178.0320  144.0160 C   0  0  0  0  0  0  0  0  0  0  0  0
  187.7070  177.6240  143.1850 C   0  0  0  0  0  3  0  0  0  0  0  0
  186.3070  177.5570  145.2510 C   0  0  0  0  0  3  0  0  0  0  0  0
  190.6820  177.0960  145.2900 C   0  0  0  0  0  0  0  0  0  0  0  0
  188.5200  176.6810  145.9230 C   0  0  0  0  0  0  0  0  0  0  0  0
  189.2890  177.6060  145.0370 C   0  0  2  0  0  3  0  0  0  0  0  0
  187.1950  176.6850  146.0440 C   0  0  0  0  0  3  0  0  0  0  0  0
  189.3930  175.8490  146.6830 N   0  0  0  0  0  0  0  0  0  0  0  0
  191.8520  177.5980  144.6430 N   0  0  0  0  0  1  0  0  0  0  0  0
  185.5800  178.8960  143.4870 O   0  0  0  0  0  0  0  0  0  0  0  0
  184.1900  178.6000  143.4930 C   0  0  0  0  0  1  0  0  0  0  0  0
  196.1310  174.4850  143.0910 N   0  0  0  0  0  2  0  0  0  0  0  0
  197.7910  175.0270  140.8660 N   0  0  0  0  0  1  0  0  0  0  0  0
  195.8070  176.6330  141.5570 O   0  0  0  0  0  0  0  0  0  0  0  0
  197.8010  176.5550  143.0170 O   0  0  0  0  0  0  0  0  0  0  0  0
  196.8720  175.7450  142.1460 S   0  0  0  0  0  0  0  0  0  0  0  0
  1  6  1  0  0  0  0
  2  7  2  0  0  0  0
  3  1  2  0  0  0  0
  4  3  1  0  0  0  0
  5  4  2  0  0  0  0
  5  2  1  0  0  0  0
  7  1  1  0  0  0  0
  7 17  1  0  0  0  0
  8  9  2  0  0  0  0
  9  2  1  0  0  0  0
 10  8  2  0  0  0  0
 11 12  1  0  0  0  0
 12 14  1  0  0  0  0
 13 16  2  0  0  0  0
 14 10  1  6  0  0  0
 15 11  1  0  0  0  0
 15 13  1  0  0  0  0
 16 14  1  0  0  0  0
 18 28  1  0  0  0  0
 18 17  1  0  0  0  0
 21 23  2  0  0  0  0
 22 20  2  0  0  0  0
 22 21  1  0  0  0  0
 23 27  1  0  0  0  0
 24 18  2  0  0  0  0
 25 27  2  0  0  0  0
 25 28  1  0  0  0  0
 26 20  1  6  0  0  0
 26 24  1  0  0  0  0
 26 25  1  0  0  0  0
 28 19  1  0  0  0  0
 29 24  1  0  0  0  0
 30 31  1  0  0  0  0
 30 21  1  0  0  0  0
 32  4  1  0  0  0  0
 33 36  1  0  0  0  0
 34 36  2  0  0  0  0
 36 35  2  0  0  0  0
 36 32  1  0  0  0  0
M  END
>  <MODEL>
1

>  <REMARK>
 VINA RESULT:      -7.6      0.000      0.000
  Name = 
  7 active torsions:
  status: ('A' for Active; 'I' for Inactive)
    1  A    between atoms: C_1  and  C_13
    2  A    between atoms: O_3  and  C_5
    3  A    between atoms: C_13  and  C_33
    4  A    between atoms: C_16  and  C_31
    5  A    between atoms: C_20  and  C_22
    6  A    between atoms: N_21  and  C_25
    7  A    between atoms: N_21  and  S_35
                            x       y       z     vdW  Elec       q    Type
                         _______ _______ _______ _____ _____    ______ ____

>  <TORSDO>
F 7

$$$$
=
 OpenBabel11042414453D

 36 39  0  0  1  0  0  0  0  0999 V2000
  190.8760  176.4210  147.1790 C   0  0  0  0  0  0  0  0  0  0  0  0
  190.4490  174.6420  145.5740 C   0  0  0  0  0  0  0  0  0  0  0  0
  189.5960  176.9260  146.9610 C   0  0  0  0  0  3  0  0  0  0  0  0
  188.7310  176.3070  146.0590 C   0  0  0  0  0  0  0  0  0  0  0  0
  189.1610  175.1650  145.3720 C   0  0  0  0  0  3  0  0  0  0  0  0
  191.6980  177.0470  148.1120 O   0  0  0  0  0  1  0  0  0  0  0  0
  191.3210  175.2820  146.4890 C   0  0  0  0  0  0  0  0  0  0  0  0
  190.0770  172.7190  144.1120 C   0  0  0  0  0  0  0  0  0  0  0  0
  190.8840  173.4360  144.8480 C   0  0  0  0  0  3  0  0  0  0  0  0
  189.2620  172.0320  143.3640 C   0  0  0  0  0  3  0  0  0  0  0  0
  190.3420  171.8160  139.7030 C   0  0  0  0  0  2  0  0  0  0  0  0
  190.1660  171.5160  141.0920 O   0  0  0  0  0  0  0  0  0  0  0  0
  188.2840  173.1200  139.9190 N   0  0  0  0  0  0  0  0  0  0  0  0
  189.2490  172.2110  141.9050 C   0  0  1  0  0  3  0  0  0  0  0  0
  188.9950  172.1610  139.0700 C   0  0  0  0  0  2  0  0  0  0  0  0
  188.3460  173.0180  141.3480 C   0  0  0  0  0  3  0  0  0  0  0  0
  192.7270  174.7920  146.7340 C   0  0  0  0  0  2  0  0  0  0  0  0
  193.6090  174.9590  145.5290 C   0  0  0  0  0  0  0  0  0  0  0  0
  194.3480  172.5340  145.3330 C   0  0  0  0  0  1  0  0  0  0  0  0
  195.9980  176.5410  143.7030 N   0  0  0  0  0  0  0  0  0  0  0  0
  196.7240  175.5430  141.5560 C   0  0  0  0  0  0  0  0  0  0  0  0
  196.8830  176.4130  142.7580 C   0  0  0  0  0  3  0  0  0  0  0  0
  196.1280  174.3410  141.5880 C   0  0  0  0  0  3  0  0  0  0  0  0
  193.9540  176.1210  144.9730 C   0  0  0  0  0  0  0  0  0  0  0  0
  194.8100  174.4360  143.6780 C   0  0  0  0  0  0  0  0  0  0  0  0
  194.6760  175.9240  143.6670 C   0  0  2  0  0  3  0  0  0  0  0  0
  195.4260  173.7300  142.7340 C   0  0  0  0  0  3  0  0  0  0  0  0
  194.1230  173.8640  144.7890 N   0  0  0  0  0  0  0  0  0  0  0  0
  193.6030  177.3960  145.5130 N   0  0  0  0  0  1  0  0  0  0  0  0
  197.2720  175.9410  140.3380 O   0  0  0  0  0  0  0  0  0  0  0  0
  197.0180  175.2540  139.1200 C   0  0  0  0  0  1  0  0  0  0  0  0
  187.4120  176.8320  145.8910 N   0  0  0  0  0  2  0  0  0  0  0  0
  185.9750  179.0050  144.7900 N   0  0  0  0  0  1  0  0  0  0  0  0
  188.0240  177.9020  143.5340 O   0  0  0  0  0  0  0  0  0  0  0  0
  185.9260  176.6040  143.6960 O   0  0  0  0  0  0  0  0  0  0  0  0
  186.8490  177.5590  144.4120 S   0  0  0  0  0  0  0  0  0  0  0  0
  1  6  1  0  0  0  0
  2  7  1  0  0  0  0
  3  1  1  0  0  0  0
  4  3  2  0  0  0  0
  5  2  2  0  0  0  0
  5  4  1  0  0  0  0
  7 17  1  0  0  0  0
  7  1  2  0  0  0  0
  8  9  2  0  0  0  0
  9  2  1  0  0  0  0
 10  8  2  0  0  0  0
 11 12  1  0  0  0  0
 12 14  1  0  0  0  0
 13 16  2  0  0  0  0
 14 10  1  6  0  0  0
 15 11  1  0  0  0  0
 15 13  1  0  0  0  0
 16 14  1  0  0  0  0
 18 17  1  0  0  0  0
 21 23  2  0  0  0  0
 21 22  1  0  0  0  0
 22 20  2  0  0  0  0
 23 27  1  0  0  0  0
 24 29  1  0  0  0  0
 24 18  2  0  0  0  0
 25 28  1  0  0  0  0
 26 25  1  1  0  0  0
 26 20  1  0  0  0  0
 26 24  1  0  0  0  0
 27 25  2  0  0  0  0
 28 19  1  0  0  0  0
 28 18  1  0  0  0  0
 30 21  1  0  0  0  0
 31 30  1  0  0  0  0
 32  4  1  0  0  0  0
 34 36  2  0  0  0  0
 35 36  2  0  0  0  0
 36 33  1  0  0  0  0
 36 32  1  0  0  0  0
M  END
>  <MODEL>
2

>  <REMARK>
 VINA RESULT:      -7.5      2.776      6.946
  Name = 
  7 active torsions:
  status: ('A' for Active; 'I' for Inactive)
    1  A    between atoms: C_1  and  C_13
    2  A    between atoms: O_3  and  C_5
    3  A    between atoms: C_13  and  C_33
    4  A    between atoms: C_16  and  C_31
    5  A    between atoms: C_20  and  C_22
    6  A    between atoms: N_21  and  C_25
    7  A    between atoms: N_21  and  S_35
                            x       y       z     vdW  Elec       q    Type
                         _______ _______ _______ _____ _____    ______ ____

>  <TORSDO>
F 7

$$$$
=
 OpenBabel11042414453D

 36 39  0  0  1  0  0  0  0  0999 V2000
  190.6820  176.5900  147.0930 C   0  0  0  0  0  0  0  0  0  0  0  0
  190.2270  174.8930  145.4080 C   0  0  0  0  0  0  0  0  0  0  0  0
  189.4640  177.2030  146.8050 C   0  0  0  0  0  3  0  0  0  0  0  0
  188.6180  176.6790  145.8290 C   0  0  0  0  0  0  0  0  0  0  0  0
  189.0020  175.5250  145.1360 C   0  0  0  0  0  3  0  0  0  0  0  0
  191.4850  177.1230  148.0980 O   0  0  0  0  0  1  0  0  0  0  0  0
  191.0820  175.4370  146.3980 C   0  0  0  0  0  0  0  0  0  0  0  0
  189.8300  173.0830  143.8140 C   0  0  0  0  0  0  0  0  0  0  0  0
  190.6140  173.6750  144.6750 C   0  0  0  0  0  3  0  0  0  0  0  0
  189.0420  172.5230  142.9430 C   0  0  0  0  0  3  0  0  0  0  0  0
  188.2360  172.8670  139.2210 C   0  0  0  0  0  2  0  0  0  0  0  0
  188.1120  172.8600  140.6480 O   0  0  0  0  0  0  0  0  0  0  0  0
  190.6240  173.2160  139.6220 N   0  0  0  0  0  0  0  0  0  0  0  0
  189.2260  172.7580  141.5030 C   0  0  1  0  0  3  0  0  0  0  0  0
  189.4830  173.6490  138.8120 C   0  0  0  0  0  2  0  0  0  0  0  0
  190.4570  172.9010  141.0110 C   0  0  0  0  0  3  0  0  0  0  0  0
  192.4240  174.8280  146.7220 C   0  0  0  0  0  2  0  0  0  0  0  0
  193.3960  174.9460  145.5820 C   0  0  0  0  0  0  0  0  0  0  0  0
  194.0070  172.4830  145.4240 C   0  0  0  0  0  1  0  0  0  0  0  0
  195.9920  176.3920  143.9340 N   0  0  0  0  0  0  0  0  0  0  0  0
  196.8060  175.3580  141.8360 C   0  0  0  0  0  0  0  0  0  0  0  0
  196.9310  176.2150  143.0520 C   0  0  0  0  0  3  0  0  0  0  0  0
  196.1420  174.1910  141.8210 C   0  0  0  0  0  3  0  0  0  0  0  0
  193.8440  176.0880  145.0570 C   0  0  0  0  0  0  0  0  0  0  0  0
  194.6900  174.3590  143.8150 C   0  0  0  0  0  0  0  0  0  0  0  0
  194.6420  175.8520  143.8040 C   0  0  2  0  0  3  0  0  0  0  0  0
  195.3280  173.6200  142.9120 C   0  0  0  0  0  3  0  0  0  0  0  0
  193.8960  173.8250  144.8730 N   0  0  0  0  0  0  0  0  0  0  0  0
  193.5300  177.3790  145.5790 N   0  0  0  0  0  1  0  0  0  0  0  0
  197.4590  175.7260  140.6610 O   0  0  0  0  0  0  0  0  0  0  0  0
  197.1320  175.1700  139.3950 C   0  0  0  0  0  1  0  0  0  0  0  0
  187.3600  177.3150  145.5880 N   0  0  0  0  0  2  0  0  0  0  0  0
  186.1440  178.9910  147.5140 N   0  0  0  0  0  1  0  0  0  0  0  0
  184.7560  177.2240  146.1220 O   0  0  0  0  0  0  0  0  0  0  0  0
  186.3110  176.3800  147.8480 O   0  0  0  0  0  0  0  0  0  0  0  0
  186.0960  177.4240  146.7800 S   0  0  0  0  0  0  0  0  0  0  0  0
  1  6  1  0  0  0  0
  2  7  1  0  0  0  0
  3  1  1  0  0  0  0
  4  3  2  0  0  0  0
  5  2  2  0  0  0  0
  5  4  1  0  0  0  0
  7 17  1  0  0  0  0
  7  1  2  0  0  0  0
  8  9  2  0  0  0  0
  9  2  1  0  0  0  0
 10  8  2  0  0  0  0
 11 12  1  0  0  0  0
 12 14  1  0  0  0  0
 13 16  2  0  0  0  0
 14 10  1  1  0  0  0
 15 11  1  0  0  0  0
 15 13  1  0  0  0  0
 16 14  1  0  0  0  0
 18 17  1  0  0  0  0
 21 22  1  0  0  0  0
 22 20  2  0  0  0  0
 23 21  2  0  0  0  0
 23 27  1  0  0  0  0
 24 29  1  0  0  0  0
 24 18  2  0  0  0  0
 25 28  1  0  0  0  0
 26 25  1  1  0  0  0
 26 20  1  0  0  0  0
 26 24  1  0  0  0  0
 27 25  2  0  0  0  0
 28 19  1  0  0  0  0
 28 18  1  0  0  0  0
 30 21  1  0  0  0  0
 31 30  1  0  0  0  0
 32  4  1  0  0  0  0
 32 36  1  0  0  0  0
 34 36  2  0  0  0  0
 36 33  1  0  0  0  0
 36 35  2  0  0  0  0
M  END
>  <MODEL>
3

>  <REMARK>
 VINA RESULT:      -7.4      2.954      7.215
  Name = 
  7 active torsions:
  status: ('A' for Active; 'I' for Inactive)
    1  A    between atoms: C_1  and  C_13
    2  A    between atoms: O_3  and  C_5
    3  A    between atoms: C_13  and  C_33
    4  A    between atoms: C_16  and  C_31
    5  A    between atoms: C_20  and  C_22
    6  A    between atoms: N_21  and  C_25
    7  A    between atoms: N_21  and  S_35
                            x       y       z     vdW  Elec       q    Type
                         _______ _______ _______ _____ _____    ______ ____

>  <TORSDO>
F 7

$$$$
=
 OpenBabel11042414453D

 36 39  0  0  1  0  0  0  0  0999 V2000
  193.7210  175.9960  146.2880 C   0  0  0  0  0  0  0  0  0  0  0  0
  192.4570  174.1670  145.2970 C   0  0  0  0  0  0  0  0  0  0  0  0
  194.8920  175.4880  145.7310 C   0  0  0  0  0  3  0  0  0  0  0  0
  194.8680  174.3290  144.9570 C   0  0  0  0  0  0  0  0  0  0  0  0
  193.6490  173.6750  144.7420 C   0  0  0  0  0  3  0  0  0  0  0  0
  193.7800  177.1740  147.0270 O   0  0  0  0  0  1  0  0  0  0  0  0
  192.4940  175.3430  146.0860 C   0  0  0  0  0  0  0  0  0  0  0  0
  190.5670  173.4920  143.9020 C   0  0  0  0  0  0  0  0  0  0  0  0
  191.1800  173.4710  145.0550 C   0  0  0  0  0  3  0  0  0  0  0  0
  189.9840  173.5050  142.7380 C   0  0  0  0  0  3  0  0  0  0  0  0
  189.9290  171.4700  139.5010 C   0  0  0  0  0  2  0  0  0  0  0  0
  190.0230  172.5610  140.4240 O   0  0  0  0  0  0  0  0  0  0  0  0
  190.5850  170.0640  141.3930 N   0  0  0  0  0  0  0  0  0  0  0  0
  190.1220  172.3680  141.8150 C   0  0  1  0  0  3  0  0  0  0  0  0
  190.8150  170.3170  139.9680 C   0  0  0  0  0  2  0  0  0  0  0  0
  190.3660  171.1510  142.3020 C   0  0  0  0  0  3  0  0  0  0  0  0
  191.2570  175.9130  146.7370 C   0  0  0  0  0  2  0  0  0  0  0  0
  190.2620  176.4180  145.7310 C   0  0  0  0  0  0  0  0  0  0  0  0
  191.8960  177.7420  144.3010 C   0  0  0  0  0  1  0  0  0  0  0  0
  187.2940  177.7940  144.8130 N   0  0  0  0  0  0  0  0  0  0  0  0
  186.8800  178.2670  142.4180 C   0  0  0  0  0  0  0  0  0  0  0  0
  186.6580  178.4430  143.8830 C   0  0  0  0  0  3  0  0  0  0  0  0
  188.0900  178.0550  141.8760 C   0  0  0  0  0  3  0  0  0  0  0  0
  188.9370  176.2900  145.8150 C   0  0  0  0  0  0  0  0  0  0  0  0
  189.4260  177.2690  143.8020 C   0  0  0  0  0  0  0  0  0  0  0  0
  188.2520  176.7250  144.5480 C   0  0  2  0  0  3  0  0  0  0  0  0
  189.3580  177.8280  142.5980 C   0  0  0  0  0  3  0  0  0  0  0  0
  190.6410  177.0370  144.5120 N   0  0  0  0  0  0  0  0  0  0  0  0
  188.2640  175.7270  146.9420 N   0  0  0  0  0  1  0  0  0  0  0  0
  185.8090  178.3930  141.5360 O   0  0  0  0  0  0  0  0  0  0  0  0
  185.8220  177.8380  140.2280 C   0  0  0  0  0  1  0  0  0  0  0  0
  196.0850  173.8600  144.3710 N   0  0  0  0  0  2  0  0  0  0  0  0
  195.5530  175.4390  142.0850 N   0  0  0  0  0  1  0  0  0  0  0  0
  197.9230  175.4290  143.2600 O   0  0  0  0  0  0  0  0  0  0  0  0
  197.2350  173.4070  142.0150 O   0  0  0  0  0  0  0  0  0  0  0  0
  196.7680  174.5250  142.9140 S   0  0  0  0  0  0  0  0  0  0  0  0
  1  6  1  0  0  0  0
  2  7  2  0  0  0  0
  3  1  2  0  0  0  0
  4  3  1  0  0  0  0
  5  4  2  0  0  0  0
  5  2  1  0  0  0  0
  7  1  1  0  0  0  0
  7 17  1  0  0  0  0
  8  9  2  0  0  0  0
  9  2  1  0  0  0  0
 10  8  2  0  0  0  0
 11 15  1  0  0  0  0
 11 12  1  0  0  0  0
 12 14  1  0  0  0  0
 13 16  2  0  0  0  0
 14 16  1  0  0  0  0
 14 10  1  6  0  0  0
 15 13  1  0  0  0  0
 18 24  2  0  0  0  0
 18 17  1  0  0  0  0
 19 28  1  0  0  0  0
 21 22  1  0  0  0  0
 22 20  2  0  0  0  0
 23 21  2  0  0  0  0
 23 27  1  0  0  0  0
 24 29  1  0  0  0  0
 25 28  1  0  0  0  0
 26 25  1  6  0  0  0
 26 20  1  0  0  0  0
 26 24  1  0  0  0  0
 27 25  2  0  0  0  0
 28 18  1  0  0  0  0
 30 21  1  0  0  0  0
 31 30  1  0  0  0  0
 32  4  1  0  0  0  0
 33 36  1  0  0  0  0
 35 36  2  0  0  0  0
 36 34  2  0  0  0  0
 36 32  1  0  0  0  0
M  END
>  <MODEL>
4

>  <REMARK>
 VINA RESULT:      -7.3      1.445      2.251
  Name = 
  7 active torsions:
  status: ('A' for Active; 'I' for Inactive)
    1  A    between atoms: C_1  and  C_13
    2  A    between atoms: O_3  and  C_5
    3  A    between atoms: C_13  and  C_33
    4  A    between atoms: C_16  and  C_31
    5  A    between atoms: C_20  and  C_22
    6  A    between atoms: N_21  and  C_25
    7  A    between atoms: N_21  and  S_35
                            x       y       z     vdW  Elec       q    Type
                         _______ _______ _______ _____ _____    ______ ____

>  <TORSDO>
F 7

$$$$
=
 OpenBabel11042414453D

 36 39  0  0  1  0  0  0  0  0999 V2000
  193.1640  174.0810  142.6200 C   0  0  0  0  0  0  0  0  0  0  0  0
  191.6280  173.8440  144.4930 C   0  0  0  0  0  0  0  0  0  0  0  0
  194.1990  174.3740  143.5060 C   0  0  0  0  0  3  0  0  0  0  0  0
  193.9710  174.4060  144.8810 C   0  0  0  0  0  0  0  0  0  0  0  0
  192.6860  174.1380  145.3690 C   0  0  0  0  0  3  0  0  0  0  0  0
  193.4380  174.0270  141.2560 O   0  0  0  0  0  1  0  0  0  0  0  0
  191.8700  173.8200  143.0980 C   0  0  0  0  0  0  0  0  0  0  0  0
  189.7560  174.2150  146.0200 C   0  0  0  0  0  0  0  0  0  0  0  0
  190.2830  173.5570  145.0230 C   0  0  0  0  0  3  0  0  0  0  0  0
  189.2390  174.9000  146.9990 C   0  0  0  0  0  3  0  0  0  0  0  0
  186.0010  176.9330  147.0570 C   0  0  0  0  0  2  0  0  0  0  0  0
  187.0550  176.0370  147.4280 O   0  0  0  0  0  0  0  0  0  0  0  0
  187.6850  178.0320  145.6630 N   0  0  0  0  0  0  0  0  0  0  0  0
  188.2800  175.9830  146.7350 C   0  0  1  0  0  3  0  0  0  0  0  0
  186.5890  178.2690  146.6070 C   0  0  0  0  0  2  0  0  0  0  0  0
  188.5870  176.9330  145.8520 C   0  0  0  0  0  3  0  0  0  0  0  0
  190.7740  173.5400  142.0980 C   0  0  0  0  0  2  0  0  0  0  0  0
  189.6810  174.5700  142.1450 C   0  0  0  0  0  0  0  0  0  0  0  0
  191.1390  176.5590  142.7630 C   0  0  0  0  0  1  0  0  0  0  0  0
  186.5970  175.6960  143.0210 N   0  0  0  0  0  0  0  0  0  0  0  0
  185.9690  178.0270  142.4670 C   0  0  0  0  0  0  0  0  0  0  0  0
  185.8620  176.7480  143.2300 C   0  0  0  0  0  3  0  0  0  0  0  0
  187.1370  178.5420  142.0510 C   0  0  0  0  0  3  0  0  0  0  0  0
  188.3730  174.3200  142.0620 C   0  0  0  0  0  0  0  0  0  0  0  0
  188.6560  176.5930  142.1260 C   0  0  0  0  0  0  0  0  0  0  0  0
  187.5690  175.5860  141.9370 C   0  0  2  0  0  3  0  0  0  0  0  0
  188.4670  177.9090  142.1410 C   0  0  0  0  0  3  0  0  0  0  0  0
  189.9340  175.9640  142.2080 N   0  0  0  0  0  0  0  0  0  0  0  0
  187.8170  173.0060  142.0130 N   0  0  0  0  0  1  0  0  0  0  0  0
  184.8240  178.7820  142.2180 O   0  0  0  0  0  0  0  0  0  0  0  0
  183.7570  178.3130  141.4060 C   0  0  0  0  0  1  0  0  0  0  0  0
  195.0670  174.6730  145.7600 N   0  0  0  0  0  2  0  0  0  0  0  0
  196.2470  172.1530  145.2550 N   0  0  0  0  0  1  0  0  0  0  0  0
  197.5030  174.4190  144.7250 O   0  0  0  0  0  0  0  0  0  0  0  0
  197.1910  173.7910  147.0950 O   0  0  0  0  0  0  0  0  0  0  0  0
  196.5660  173.7900  145.7220 S   0  0  0  0  0  0  0  0  0  0  0  0
  1  7  2  0  0  0  0
  1  3  1  0  0  0  0
  2  9  1  0  0  0  0
  2  5  2  0  0  0  0
  3  4  2  0  0  0  0
  4  5  1  0  0  0  0
  4 32  1  0  0  0  0
  6  1  1  0  0  0  0
  7  2  1  0  0  0  0
  8 10  2  0  0  0  0
  9  8  2  0  0  0  0
 11 12  1  0  0  0  0
 13 16  2  0  0  0  0
 13 15  1  0  0  0  0
 14 10  1  1  0  0  0
 14 12  1  0  0  0  0
 15 11  1  0  0  0  0
 16 14  1  0  0  0  0
 17 18  1  0  0  0  0
 17  7  1  0  0  0  0
 18 28  1  0  0  0  0
 20 22  2  0  0  0  0
 21 22  1  0  0  0  0
 23 27  1  0  0  0  0
 23 21  2  0  0  0  0
 24 18  2  0  0  0  0
 25 27  2  0  0  0  0
 25 28  1  0  0  0  0
 26 24  1  1  0  0  0
 26 25  1  0  0  0  0
 26 20  1  0  0  0  0
 28 19  1  0  0  0  0
 29 24  1  0  0  0  0
 30 21  1  0  0  0  0
 31 30  1  0  0  0  0
 33 36  1  0  0  0  0
 34 36  2  0  0  0  0
 36 32  1  0  0  0  0
 36 35  2  0  0  0  0
M  END
>  <MODEL>
5

>  <REMARK>
 VINA RESULT:      -7.3      2.482      4.805
  Name = 
  7 active torsions:
  status: ('A' for Active; 'I' for Inactive)
    1  A    between atoms: C_1  and  C_13
    2  A    between atoms: O_3  and  C_5
    3  A    between atoms: C_13  and  C_33
    4  A    between atoms: C_16  and  C_31
    5  A    between atoms: C_20  and  C_22
    6  A    between atoms: N_21  and  C_25
    7  A    between atoms: N_21  and  S_35
                            x       y       z     vdW  Elec       q    Type
                         _______ _______ _______ _____ _____    ______ ____

>  <TORSDO>
F 7

$$$$
=
 OpenBabel11042414453D

 36 39  0  0  1  0  0  0  0  0999 V2000
  188.7880  173.5260  141.5720 C   0  0  0  0  0  0  0  0  0  0  0  0
  187.9290  175.7340  141.0140 C   0  0  0  0  0  0  0  0  0  0  0  0
  188.6670  173.1420  140.2380 C   0  0  0  0  0  3  0  0  0  0  0  0
  188.1830  174.0340  139.2820 C   0  0  0  0  0  0  0  0  0  0  0  0
  187.8180  175.3270  139.6740 C   0  0  0  0  0  3  0  0  0  0  0  0
  189.3060  172.6180  142.4910 O   0  0  0  0  0  1  0  0  0  0  0  0
  188.4170  174.8180  141.9780 C   0  0  0  0  0  0  0  0  0  0  0  0
  186.3700  177.4010  141.8900 C   0  0  0  0  0  0  0  0  0  0  0  0
  187.5480  177.1010  141.4100 C   0  0  0  0  0  3  0  0  0  0  0  0
  185.1990  177.6740  142.3880 C   0  0  0  0  0  3  0  0  0  0  0  0
  185.4340  176.9430  146.1340 C   0  0  0  0  0  2  0  0  0  0  0  0
  185.7340  177.0000  144.7350 O   0  0  0  0  0  0  0  0  0  0  0  0
  184.0660  178.9310  145.7270 N   0  0  0  0  0  2  0  0  0  0  0  0
  185.0140  177.8150  143.8400 C   0  0  0  0  0  0  0  0  0  0  0  0
  185.0440  178.3320  146.6390 C   0  0  0  0  0  2  0  0  0  0  0  0
  184.1770  178.7400  144.3100 C   0  0  0  0  0  3  0  0  0  0  0  0
  188.5350  175.1770  143.4390 C   0  0  0  0  0  2  0  0  0  0  0  0
  189.9590  175.1620  143.9180 C   0  0  0  0  0  0  0  0  0  0  0  0
  189.6910  173.3350  145.6670 C   0  0  0  0  0  1  0  0  0  0  0  0
  192.8450  176.6440  144.9290 N   0  0  0  0  0  0  0  0  0  0  0  0
  194.7340  175.2190  145.6600 C   0  0  0  0  0  0  0  0  0  0  0  0
  193.9520  176.4890  145.5930 C   0  0  0  0  0  3  0  0  0  0  0  0
  194.1650  174.0050  145.7170 C   0  0  0  0  0  3  0  0  0  0  0  0
  190.9050  176.0380  143.5750 C   0  0  0  0  0  0  0  0  0  0  0  0
  191.8740  174.4310  144.8880 C   0  0  0  0  0  0  0  0  0  0  0  0
  192.2620  175.6180  144.0690 C   0  0  2  0  0  3  0  0  0  0  0  0
  192.7270  173.6920  145.5920 C   0  0  0  0  0  3  0  0  0  0  0  0
  190.4850  174.1420  144.7520 N   0  0  0  0  0  0  0  0  0  0  0  0
  190.6640  177.1880  142.7630 N   0  0  0  0  0  1  0  0  0  0  0  0
  196.1240  175.2660  145.7390 O   0  0  0  0  0  0  0  0  0  0  0  0
  196.9510  174.1660  145.3880 C   0  0  0  0  0  1  0  0  0  0  0  0
  188.1090  173.6150  137.9170 N   0  0  0  0  0  2  0  0  0  0  0  0
  189.6270  172.3720  135.8800 N   0  0  0  0  0  1  0  0  0  0  0  0
  189.0490  174.9520  135.8200 O   0  0  0  0  0  0  0  0  0  0  0  0
  190.6790  174.1650  137.5050 O   0  0  0  0  0  0  0  0  0  0  0  0
  189.4000  173.8390  136.7720 S   0  0  0  0  0  0  0  0  0  0  0  0
  1  7  1  0  0  0  0
  1  6  1  0  0  0  0
  2  9  1  0  0  0  0
  2  7  2  0  0  0  0
  3  1  2  0  0  0  0
  4  5  2  0  0  0  0
  4  3  1  0  0  0  0
  5  2  1  0  0  0  0
  7 17  1  0  0  0  0
  8 10  2  0  0  0  0
  9  8  2  0  0  0  0
 10 14  1  0  0  0  0
 11 15  1  0  0  0  0
 12 11  1  0  0  0  0
 13 15  1  0  0  0  0
 14 16  2  0  0  0  0
 14 12  1  0  0  0  0
 16 13  1  0  0  0  0
 17 18  1  0  0  0  0
 18 28  1  0  0  0  0
 20 22  2  0  0  0  0
 21 23  2  0  0  0  0
 21 30  1  0  0  0  0
 22 21  1  0  0  0  0
 24 18  2  0  0  0  0
 25 27  2  0  0  0  0
 26 24  1  1  0  0  0
 26 25  1  0  0  0  0
 26 20  1  0  0  0  0
 27 23  1  0  0  0  0
 28 25  1  0  0  0  0
 28 19  1  0  0  0  0
 29 24  1  0  0  0  0
 31 30  1  0  0  0  0
 32  4  1  0  0  0  0
 33 36  1  0  0  0  0
 34 36  2  0  0  0  0
 36 35  2  0  0  0  0
 36 32  1  0  0  0  0
M  END
>  <MODEL>
6

>  <REMARK>
 VINA RESULT:      -7.1      2.891      7.603
  Name = 
  7 active torsions:
  status: ('A' for Active; 'I' for Inactive)
    1  A    between atoms: C_1  and  C_13
    2  A    between atoms: O_3  and  C_5
    3  A    between atoms: C_13  and  C_33
    4  A    between atoms: C_16  and  C_31
    5  A    between atoms: C_20  and  C_22
    6  A    between atoms: N_21  and  C_25
    7  A    between atoms: N_21  and  S_35
                            x       y       z     vdW  Elec       q    Type
                         _______ _______ _______ _____ _____    ______ ____

>  <TORSDO>
F 7

$$$$
=
 OpenBabel11042414453D

 36 39  0  0  1  0  0  0  0  0999 V2000
  186.0480  178.1430  141.0410 C   0  0  0  0  0  0  0  0  0  0  0  0
  185.1990  178.4110  143.3070 C   0  0  0  0  0  0  0  0  0  0  0  0
  184.7440  178.0070  140.5690 C   0  0  0  0  0  3  0  0  0  0  0  0
  183.6600  178.0700  141.4430 C   0  0  0  0  0  0  0  0  0  0  0  0
  183.8930  178.2740  142.8090 C   0  0  0  0  0  3  0  0  0  0  0  0
  187.1030  178.1080  140.1330 O   0  0  0  0  0  1  0  0  0  0  0  0
  186.2930  178.3400  142.4100 C   0  0  0  0  0  0  0  0  0  0  0  0
  185.8120  177.6850  145.5590 C   0  0  0  0  0  0  0  0  0  0  0  0
  185.4270  178.6330  144.7460 C   0  0  0  0  0  3  0  0  0  0  0  0
  186.2200  176.7340  146.3480 C   0  0  0  0  0  3  0  0  0  0  0  0
  189.5760  175.1770  147.3120 C   0  0  0  0  0  2  0  0  0  0  0  0
  188.2740  175.3680  146.7470 O   0  0  0  0  0  0  0  0  0  0  0  0
  189.7300  177.6190  147.3000 N   0  0  0  0  0  2  0  0  0  0  0  0
  187.6370  176.6230  146.7230 C   0  0  0  0  0  0  0  0  0  0  0  0
  190.4600  176.3840  147.0010 C   0  0  0  0  0  2  0  0  0  0  0  0
  188.3270  177.7250  147.0180 C   0  0  0  0  0  3  0  0  0  0  0  0
  187.7240  178.4490  142.8790 C   0  0  0  0  0  2  0  0  0  0  0  0
  188.3890  177.1070  143.0010 C   0  0  0  0  0  0  0  0  0  0  0  0
  190.7920  177.9250  142.8540 C   0  0  0  0  0  1  0  0  0  0  0  0
  188.7520  173.8120  142.2550 N   0  0  0  0  0  0  0  0  0  0  0  0
  190.6450  172.5590  143.2470 C   0  0  0  0  0  0  0  0  0  0  0  0
  189.5730  172.8030  142.2370 C   0  0  0  0  0  3  0  0  0  0  0  0
  191.3720  173.5410  143.8030 C   0  0  0  0  0  3  0  0  0  0  0  0
  187.7680  175.9260  142.9810 C   0  0  0  0  0  0  0  0  0  0  0  0
  189.9910  175.5500  143.3900 C   0  0  0  0  0  0  0  0  0  0  0  0
  188.7010  174.7980  143.3300 C   0  0  2  0  0  3  0  0  0  0  0  0
  191.1740  174.9940  143.6360 C   0  0  0  0  0  3  0  0  0  0  0  0
  189.7800  176.9510  143.2310 N   0  0  0  0  0  0  0  0  0  0  0  0
  186.3690  175.7680  142.7420 N   0  0  0  0  0  1  0  0  0  0  0  0
  190.9770  171.2530  143.6000 O   0  0  0  0  0  0  0  0  0  0  0  0
  192.3170  170.7780  143.6130 C   0  0  0  0  0  1  0  0  0  0  0  0
  182.3360  177.9640  140.9150 N   0  0  0  0  0  2  0  0  0  0  0  0
  180.4610  180.0410  140.5030 N   0  0  0  0  0  1  0  0  0  0  0  0
  179.8290  177.8190  141.7900 O   0  0  0  0  0  0  0  0  0  0  0  0
  181.3450  179.4190  142.9100 O   0  0  0  0  0  0  0  0  0  0  0  0
  180.9620  178.7910  141.5920 S   0  0  0  0  0  0  0  0  0  0  0  0
  1  7  1  0  0  0  0
  2  9  1  0  0  0  0
  3  1  2  0  0  0  0
  3  4  1  0  0  0  0
  4  5  2  0  0  0  0
  5  2  1  0  0  0  0
  6  1  1  0  0  0  0
  7 17  1  0  0  0  0
  7  2  2  0  0  0  0
  8 10  2  0  0  0  0
  9  8  2  0  0  0  0
 10 14  1  0  0  0  0
 12 11  1  0  0  0  0
 14 12  1  0  0  0  0
 14 16  2  0  0  0  0
 15 13  1  0  0  0  0
 15 11  1  0  0  0  0
 16 13  1  0  0  0  0
 17 18  1  0  0  0  0
 18 28  1  0  0  0  0
 19 28  1  0  0  0  0
 21 30  1  0  0  0  0
 21 23  2  0  0  0  0
 22 20  2  0  0  0  0
 22 21  1  0  0  0  0
 24 18  2  0  0  0  0
 24 26  1  0  0  0  0
 25 27  2  0  0  0  0
 26 20  1  6  0  0  0
 26 25  1  0  0  0  0
 27 23  1  0  0  0  0
 28 25  1  0  0  0  0
 29 24  1  0  0  0  0
 30 31  1  0  0  0  0
 32  4  1  0  0  0  0
 32 36  1  0  0  0  0
 33 36  1  0  0  0  0
 36 34  2  0  0  0  0
 36 35  2  0  0  0  0
M  END
>  <MODEL>
7

>  <REMARK>
 VINA RESULT:      -7.1      4.464      9.321
  Name = 
  7 active torsions:
  status: ('A' for Active; 'I' for Inactive)
    1  A    between atoms: C_1  and  C_13
    2  A    between atoms: O_3  and  C_5
    3  A    between atoms: C_13  and  C_33
    4  A    between atoms: C_16  and  C_31
    5  A    between atoms: C_20  and  C_22
    6  A    between atoms: N_21  and  C_25
    7  A    between atoms: N_21  and  S_35
                            x       y       z     vdW  Elec       q    Type
                         _______ _______ _______ _____ _____    ______ ____

>  <TORSDO>
F 7

$$$$
=
 OpenBabel11042414453D

 36 39  0  0  1  0  0  0  0  0999 V2000
  190.6160  177.6160  144.3180 C   0  0  0  0  0  0  0  0  0  0  0  0
  189.8960  175.2900  144.3090 C   0  0  0  0  0  0  0  0  0  0  0  0
  189.6370  177.9160  145.2620 C   0  0  0  0  0  3  0  0  0  0  0  0
  188.7820  176.9230  145.7400 C   0  0  0  0  0  0  0  0  0  0  0  0
  188.9180  175.6140  145.2640 C   0  0  0  0  0  3  0  0  0  0  0  0
  191.4720  178.6270  143.8880 O   0  0  0  0  0  1  0  0  0  0  0  0
  190.7550  176.3080  143.8260 C   0  0  0  0  0  0  0  0  0  0  0  0
  189.2360  173.3870  142.9250 C   0  0  0  0  0  0  0  0  0  0  0  0
  190.0310  173.9060  143.8220 C   0  0  0  0  0  3  0  0  0  0  0  0
  188.4480  172.8970  142.0130 C   0  0  0  0  0  3  0  0  0  0  0  0
  188.5400  173.5300  138.2430 C   0  0  0  0  0  2  0  0  0  0  0  0
  188.3260  173.6990  139.6490 O   0  0  0  0  0  0  0  0  0  0  0  0
  190.2830  171.9410  138.8940 N   0  0  0  0  0  0  0  0  0  0  0  0
  188.8750  172.8270  140.6080 C   0  0  1  0  0  3  0  0  0  0  0  0
  189.9680  173.0500  137.9890 C   0  0  0  0  0  2  0  0  0  0  0  0
  189.8090  171.9460  140.2470 C   0  0  0  0  0  3  0  0  0  0  0  0
  191.8090  176.0380  142.7790 C   0  0  0  0  0  2  0  0  0  0  0  0
  192.9240  175.1770  143.2990 C   0  0  0  0  0  0  0  0  0  0  0  0
  193.8680  176.8460  144.9700 C   0  0  0  0  0  1  0  0  0  0  0  0
  195.5370  173.0340  142.9370 N   0  0  0  0  0  0  0  0  0  0  0  0
  196.8000  172.3320  144.9480 C   0  0  0  0  0  0  0  0  0  0  0  0
  196.6180  172.5640  143.4850 C   0  0  0  0  0  3  0  0  0  0  0  0
  196.3040  173.1480  145.8920 C   0  0  0  0  0  3  0  0  0  0  0  0
  193.2980  173.9990  142.7960 C   0  0  0  0  0  0  0  0  0  0  0  0
  194.5470  174.3910  144.6760 C   0  0  0  0  0  0  0  0  0  0  0  0
  194.3070  173.3100  143.6730 C   0  0  2  0  0  3  0  0  0  0  0  0
  195.4100  174.3030  145.6840 C   0  0  0  0  0  3  0  0  0  0  0  0
  193.6720  175.4970  144.4610 N   0  0  0  0  0  0  0  0  0  0  0  0
  192.7400  173.4290  141.6110 N   0  0  0  0  0  1  0  0  0  0  0  0
  197.5760  171.2610  145.3880 O   0  0  0  0  0  0  0  0  0  0  0  0
  197.0270  169.9820  145.6770 C   0  0  0  0  0  1  0  0  0  0  0  0
  187.8150  177.2630  146.7370 N   0  0  0  0  0  2  0  0  0  0  0  0
  186.2650  178.5960  144.7830 N   0  0  0  0  0  1  0  0  0  0  0  0
  185.2180  176.7910  146.4070 O   0  0  0  0  0  0  0  0  0  0  0  0
  185.8760  178.9730  147.3650 O   0  0  0  0  0  0  0  0  0  0  0  0
  186.2370  177.8990  146.3670 S   0  0  0  0  0  0  0  0  0  0  0  0
  1  3  1  0  0  0  0
  2  5  2  0  0  0  0
  3  4  2  0  0  0  0
  4 32  1  0  0  0  0
  5  4  1  0  0  0  0
  6  1  1  0  0  0  0
  7  2  1  0  0  0  0
  7  1  2  0  0  0  0
  8  9  2  0  0  0  0
  9  2  1  0  0  0  0
 10  8  2  0  0  0  0
 11 12  1  0  0  0  0
 12 14  1  0  0  0  0
 13 16  2  0  0  0  0
 14 10  1  1  0  0  0
 15 11  1  0  0  0  0
 15 13  1  0  0  0  0
 16 14  1  0  0  0  0
 17 18  1  0  0  0  0
 17  7  1  0  0  0  0
 18 28  1  0  0  0  0
 20 22  2  0  0  0  0
 20 26  1  0  0  0  0
 21 30  1  0  0  0  0
 21 23  2  0  0  0  0
 22 21  1  0  0  0  0
 24 18  2  0  0  0  0
 25 27  2  0  0  0  0
 26 24  1  6  0  0  0
 26 25  1  0  0  0  0
 27 23  1  0  0  0  0
 28 25  1  0  0  0  0
 28 19  1  0  0  0  0
 29 24  1  0  0  0  0
 30 31  1  0  0  0  0
 33 36  1  0  0  0  0
 36 34  2  0  0  0  0
 36 32  1  0  0  0  0
 36 35  2  0  0  0  0
M  END
>  <MODEL>
8

>  <REMARK>
 VINA RESULT:      -7.0      3.210      7.570
  Name = 
  7 active torsions:
  status: ('A' for Active; 'I' for Inactive)
    1  A    between atoms: C_1  and  C_13
    2  A    between atoms: O_3  and  C_5
    3  A    between atoms: C_13  and  C_33
    4  A    between atoms: C_16  and  C_31
    5  A    between atoms: C_20  and  C_22
    6  A    between atoms: N_21  and  C_25
    7  A    between atoms: N_21  and  S_35
                            x       y       z     vdW  Elec       q    Type
                         _______ _______ _______ _____ _____    ______ ____

>  <TORSDO>
F 7

$$$$
=
 OpenBabel11042414453D

 36 39  0  0  1  0  0  0  0  0999 V2000
  189.9910  174.2870  145.4850 C   0  0  0  0  0  0  0  0  0  0  0  0
  191.7830  175.0540  144.0260 C   0  0  0  0  0  0  0  0  0  0  0  0
  190.2920  172.9660  145.1610 C   0  0  0  0  0  3  0  0  0  0  0  0
  191.3290  172.6690  144.2770 C   0  0  0  0  0  0  0  0  0  0  0  0
  192.0720  173.7150  143.7160 C   0  0  0  0  0  3  0  0  0  0  0  0
  188.9700  174.5430  146.3960 O   0  0  0  0  0  1  0  0  0  0  0  0
  190.7230  175.3450  144.9210 C   0  0  0  0  0  0  0  0  0  0  0  0
  193.8660  176.2640  143.6150 C   0  0  0  0  0  0  0  0  0  0  0  0
  192.5780  176.1430  143.4330 C   0  0  0  0  0  3  0  0  0  0  0  0
  195.1530  176.3520  143.7890 C   0  0  0  0  0  3  0  0  0  0  0  0
  197.9160  174.3270  142.0920 C   0  0  0  0  0  2  0  0  0  0  0  0
  196.8420  174.7080  142.9600 O   0  0  0  0  0  0  0  0  0  0  0  0
  197.0430  176.0350  140.5740 N   0  0  0  0  0  0  0  0  0  0  0  0
  196.0860  175.8780  142.7570 C   0  0  1  0  0  3  0  0  0  0  0  0
  197.5610  174.6670  140.6450 C   0  0  0  0  0  2  0  0  0  0  0  0
  196.1960  176.5510  141.6100 C   0  0  0  0  0  3  0  0  0  0  0  0
  190.3390  176.7600  145.2770 C   0  0  0  0  0  2  0  0  0  0  0  0
  188.9880  177.1380  144.7370 C   0  0  0  0  0  0  0  0  0  0  0  0
  189.6940  177.4820  142.3180 C   0  0  0  0  0  1  0  0  0  0  0  0
  186.0400  178.8250  144.8240 N   0  0  0  0  0  0  0  0  0  0  0  0
  184.4610  178.5800  142.9320 C   0  0  0  0  0  0  0  0  0  0  0  0
  185.0410  179.2710  144.1210 C   0  0  0  0  0  3  0  0  0  0  0  0
  185.2010  177.9130  142.0320 C   0  0  0  0  0  3  0  0  0  0  0  0
  187.8970  177.3740  145.4660 C   0  0  0  0  0  0  0  0  0  0  0  0
  187.3080  177.4930  143.2550 C   0  0  0  0  0  0  0  0  0  0  0  0
  186.6720  177.5270  144.6060 C   0  0  2  0  0  3  0  0  0  0  0  0
  186.6470  177.6290  142.1090 C   0  0  0  0  0  3  0  0  0  0  0  0
  188.7040  177.2150  143.3490 N   0  0  0  0  0  0  0  0  0  0  0  0
  187.8840  177.3910  146.8940 N   0  0  0  0  0  1  0  0  0  0  0  0
  183.0930  178.6700  142.6790 O   0  0  0  0  0  0  0  0  0  0  0  0
  182.5010  178.1890  141.4800 C   0  0  0  0  0  1  0  0  0  0  0  0
  191.6320  171.3000  143.9990 N   0  0  0  0  0  2  0  0  0  0  0  0
  194.2660  171.1980  142.9750 N   0  0  0  0  0  1  0  0  0  0  0  0
  193.7600  170.9880  145.5620 O   0  0  0  0  0  0  0  0  0  0  0  0
  193.1260  169.1010  144.0970 O   0  0  0  0  0  0  0  0  0  0  0  0
  193.2130  170.6030  144.2130 S   0  0  0  0  0  0  0  0  0  0  0  0
  1  6  1  0  0  0  0
  2  7  1  0  0  0  0
  3  1  1  0  0  0  0
  4  3  2  0  0  0  0
  5  2  2  0  0  0  0
  5  4  1  0  0  0  0
  7 17  1  0  0  0  0
  7  1  2  0  0  0  0
  8 10  2  0  0  0  0
  9  8  2  0  0  0  0
  9  2  1  0  0  0  0
 11 12  1  0  0  0  0
 13 15  1  0  0  0  0
 13 16  2  0  0  0  0
 14 12  1  0  0  0  0
 14 10  1  6  0  0  0
 15 11  1  0  0  0  0
 16 14  1  0  0  0  0
 18 17  1  0  0  0  0
 18 24  2  0  0  0  0
 19 28  1  0  0  0  0
 21 22  1  0  0  0  0
 22 20  2  0  0  0  0
 23 27  1  0  0  0  0
 23 21  2  0  0  0  0
 24 29  1  0  0  0  0
 25 28  1  0  0  0  0
 26 25  1  6  0  0  0
 26 20  1  0  0  0  0
 26 24  1  0  0  0  0
 27 25  2  0  0  0  0
 28 18  1  0  0  0  0
 30 21  1  0  0  0  0
 31 30  1  0  0  0  0
 32 36  1  0  0  0  0
 32  4  1  0  0  0  0
 33 36  1  0  0  0  0
 35 36  2  0  0  0  0
 36 34  2  0  0  0  0
M  END
>  <MODEL>
9

>  <REMARK>
 VINA RESULT:      -6.9      2.948      5.297
  Name = 
  7 active torsions:
  status: ('A' for Active; 'I' for Inactive)
    1  A    between atoms: C_1  and  C_13
    2  A    between atoms: O_3  and  C_5
    3  A    between atoms: C_13  and  C_33
    4  A    between atoms: C_16  and  C_31
    5  A    between atoms: C_20  and  C_22
    6  A    between atoms: N_21  and  C_25
    7  A    between atoms: N_21  and  S_35
                            x       y       z     vdW  Elec       q    Type
                         _______ _______ _______ _____ _____    ______ ____

>  <TORSDO>
F 7

$$$$
