=
 OpenBabel11042414003D

 36 39  0  0  1  0  0  0  0  0999 V2000
  188.7760  175.7950  145.7060 C   0  0  0  0  0  3  0  0  0  0  0  0
  189.3620  176.9600  144.9540 C   0  0  1  0  0  3  0  0  0  0  0  0
  190.3480  176.3010  147.5180 C   0  0  0  0  0  2  0  0  0  0  0  0
  190.8970  176.9560  145.0710 C   0  0  0  0  0  2  0  0  0  0  0  0
  189.2390  175.4850  146.9200 C   0  0  0  0  0  3  0  0  0  0  0  0
  191.4370  176.6080  146.4750 C   0  0  2  0  0  3  0  0  0  0  0  0
  188.9390  176.9180  143.4830 C   0  0  2  0  0  3  0  0  0  0  0  0
  190.0060  177.4440  142.6470 N   0  0  0  0  0  1  0  0  0  0  0  0
  187.7820  177.6830  143.2820 O   0  0  0  0  0  0  0  0  0  0  0  0
  187.0840  177.0430  142.2470 C   0  0  1  0  0  3  0  0  0  0  0  0
  186.9530  175.5640  142.5580 C   0  0  0  0  0  1  0  0  0  0  0  0
  185.6910  177.6470  142.0540 C   0  0  1  0  0  3  0  0  0  0  0  0
  185.5070  178.8430  142.8650 N   0  0  0  0  0  2  0  0  0  0  0  0
  184.5670  178.4980  143.9180 C   0  0  0  0  0  2  0  0  0  0  0  0
  184.2720  178.3490  146.3780 C   0  0  0  0  0  2  0  0  0  0  0  0
  186.5860  177.9940  147.0120 F   0  0  0  0  0  0  0  0  0  0  0  0
  185.5460  176.4750  145.4940 F   0  0  0  0  0  0  0  0  0  0  0  0
  185.6140  177.7340  146.0650 C   0  0  0  0  0  0  0  0  0  0  0  0
  185.1320  178.9270  145.2600 C   0  0  1  0  0  3  0  0  0  0  0  0
  185.3810  177.9280  140.5880 C   0  0  0  0  0  2  0  0  0  0  0  0
  184.3040  178.8070  140.4630 O   0  0  0  0  0  0  0  0  0  0  0  0
  183.1910  177.9780  140.3230 C   0  0  0  0  0  1  0  0  0  0  0  0
  192.4730  175.4880  146.3890 C   0  0  0  0  0  2  0  0  0  0  0  0
  192.6070  175.0210  145.0760 O   0  0  0  0  0  0  0  0  0  0  0  0
  192.5840  173.6270  145.1760 C   0  0  0  0  0  2  0  0  0  0  0  0
  189.3890  173.7940  139.7550 C   0  0  0  0  0  3  0  0  0  0  0  0
  190.3570  174.0830  140.7340 C   0  0  0  0  0  3  0  0  0  0  0  0
  188.3820  172.8720  140.2290 C   0  0  0  0  0  0  0  0  0  0  0  0
  190.2620  172.8010  144.7850 C   0  0  0  0  0  2  0  0  0  0  0  0
  189.3730  172.0540  143.7930 C   0  0  0  0  0  2  0  0  0  0  0  0
  191.6210  173.0530  144.1500 C   0  0  1  0  0  3  0  0  0  0  0  0
  190.3930  173.5510  142.0210 C   0  0  0  0  0  0  0  0  0  0  0  0
  188.3990  172.3610  141.5530 N   0  0  0  0  0  0  0  0  0  0  0  0
  189.3660  172.6970  142.4340 C   0  0  0  0  0  0  0  0  0  0  0  0
  188.1640  173.0520  139.2630 C   0  0  0  0  0  1  0  0  0  0  0  0
  191.4650  174.0070  142.9670 C   0  0  0  0  0  2  0  0  0  0  0  0
  1  5  2  0  0  0  0
  2  7  1  6  0  0  0
  2  4  1  0  0  0  0
  2  1  1  0  0  0  0
  4  6  1  0  0  0  0
  5  3  1  0  0  0  0
  6 23  1  6  0  0  0
  6  3  1  0  0  0  0
  7  8  1  6  0  0  0
  9  7  1  0  0  0  0
 10 11  1  1  0  0  0
 10  9  1  0  0  0  0
 12 20  1  6  0  0  0
 12 10  1  0  0  0  0
 12 13  1  0  0  0  0
 13 14  1  0  0  0  0
 17 18  1  0  0  0  0
 18 15  1  0  0  0  0
 18 16  1  0  0  0  0
 19 14  1  6  0  0  0
 19 18  1  0  0  0  0
 19 15  1  0  0  0  0
 21 20  1  0  0  0  0
 22 21  1  0  0  0  0
 24 25  1  0  0  0  0
 24 23  1  0  0  0  0
 26 28  2  0  0  0  0
 26 27  1  0  0  0  0
 27 32  2  0  0  0  0
 28 33  1  0  0  0  0
 30 29  1  0  0  0  0
 31 29  1  0  0  0  0
 31 25  1  1  0  0  0
 32 34  1  0  0  0  0
 32 36  1  0  0  0  0
 33 34  2  0  0  0  0
 34 30  1  0  0  0  0
 35 28  1  0  0  0  0
 36 31  1  0  0  0  0
M  END
>  <MODEL>
1

>  <REMARK>
 VINA RESULT:      -6.9      0.000      0.000
  Name = 
  13 active torsions:
  status: ('A' for Active; 'I' for Inactive)
    1  A    between atoms: O_1  and  C_21
    2  A    between atoms: O_2  and  C_12
    3  A    between atoms: O_2  and  C_25
    4  A    between atoms: C_6  and  C_12
    5  A    between atoms: C_7  and  C_17
    6  A    between atoms: C_7  and  O_22
    7  A    between atoms: C_9  and  O_22
    8  A    between atoms: C_9  and  C_35
    9  A    between atoms: N_13  and  C_20
   10  A    between atoms: N_13  and  C_33
   11  A    between atoms: C_20  and  C_36
   12  A    between atoms: C_21  and  C_33
   13  A    between atoms: C_25  and  C_33
                            x       y       z     vdW  Elec       q    Type
                         _______ _______ _______ _____ _____    ______ ____

>  <TORSDO>
F 13

$$$$
=
 OpenBabel11042414003D

 36 39  0  0  1  0  0  0  0  0999 V2000
  192.5570  174.2970  145.6990 C   0  0  0  0  0  3  0  0  0  0  0  0
  192.8310  175.4760  146.5950 C   0  0  1  0  0  3  0  0  0  0  0  0
  194.9610  173.8210  145.7560 C   0  0  0  0  0  2  0  0  0  0  0  0
  194.0840  176.2330  146.1170 C   0  0  0  0  0  2  0  0  0  0  0  0
  193.5630  173.5120  145.3060 C   0  0  0  0  0  3  0  0  0  0  0  0
  195.2530  175.3290  145.6700 C   0  0  2  0  0  3  0  0  0  0  0  0
  191.6230  176.4150  146.6330 C   0  0  2  0  0  3  0  0  0  0  0  0
  191.1210  176.5190  147.9950 N   0  0  0  0  0  1  0  0  0  0  0  0
  190.6000  175.9340  145.8050 O   0  0  0  0  0  0  0  0  0  0  0  0
  189.8260  177.0560  145.4730 C   0  0  1  0  0  3  0  0  0  0  0  0
  190.5370  177.8690  144.4070 C   0  0  0  0  0  1  0  0  0  0  0  0
  188.4410  176.6510  144.9650 C   0  0  1  0  0  3  0  0  0  0  0  0
  187.5430  176.3140  146.0620 N   0  0  0  0  0  2  0  0  0  0  0  0
  187.0590  177.5700  146.6100 C   0  0  0  0  0  2  0  0  0  0  0  0
  185.0770  178.6510  147.6420 C   0  0  0  0  0  2  0  0  0  0  0  0
  183.5880  178.6050  145.7270 F   0  0  0  0  0  0  0  0  0  0  0  0
  185.7000  179.6990  145.5360 F   0  0  0  0  0  0  0  0  0  0  0  0
  184.8960  178.7510  146.1470 C   0  0  0  0  0  0  0  0  0  0  0  0
  185.5480  177.5160  146.7400 C   0  0  1  0  0  3  0  0  0  0  0  0
  187.8240  177.7110  144.0600 C   0  0  0  0  0  2  0  0  0  0  0  0
  187.4700  177.1690  142.8230 O   0  0  0  0  0  0  0  0  0  0  0  0
  186.1670  176.7070  143.0060 C   0  0  0  0  0  1  0  0  0  0  0  0
  195.7440  175.7340  144.2790 C   0  0  0  0  0  2  0  0  0  0  0  0
  194.7110  176.3050  143.5250 O   0  0  0  0  0  0  0  0  0  0  0  0
  194.9940  175.9650  142.1980 C   0  0  0  0  0  2  0  0  0  0  0  0
  188.9710  174.1580  141.9040 C   0  0  0  0  0  3  0  0  0  0  0  0
  190.1130  174.9250  142.1970 C   0  0  0  0  0  3  0  0  0  0  0  0
  189.2980  172.8960  141.2790 C   0  0  0  0  0  0  0  0  0  0  0  0
  194.1450  173.6650  141.7350 C   0  0  0  0  0  2  0  0  0  0  0  0
  193.0750  172.8760  140.9830 C   0  0  0  0  0  2  0  0  0  0  0  0
  193.8470  175.1520  141.6210 C   0  0  1  0  0  3  0  0  0  0  0  0
  191.4280  174.5600  141.9180 C   0  0  0  0  0  0  0  0  0  0  0  0
  190.6410  172.5100  141.0300 N   0  0  0  0  0  0  0  0  0  0  0  0
  191.6820  173.3080  141.3500 C   0  0  0  0  0  0  0  0  0  0  0  0
  188.2930  172.9410  141.3100 C   0  0  0  0  0  1  0  0  0  0  0  0
  192.5420  175.4700  142.3480 C   0  0  0  0  0  2  0  0  0  0  0  0
  1  2  1  0  0  0  0
  2  7  1  6  0  0  0
  4  2  1  0  0  0  0
  5  1  2  0  0  0  0
  5  3  1  0  0  0  0
  6 23  1  6  0  0  0
  6  3  1  0  0  0  0
  6  4  1  0  0  0  0
  7  8  1  1  0  0  0
  9  7  1  0  0  0  0
 10 11  1  6  0  0  0
 10  9  1  0  0  0  0
 12 20  1  1  0  0  0
 12 10  1  0  0  0  0
 12 13  1  0  0  0  0
 13 14  1  0  0  0  0
 16 18  1  0  0  0  0
 17 18  1  0  0  0  0
 18 19  1  0  0  0  0
 18 15  1  0  0  0  0
 19 14  1  6  0  0  0
 19 15  1  0  0  0  0
 21 22  1  0  0  0  0
 21 20  1  0  0  0  0
 24 23  1  0  0  0  0
 25 24  1  0  0  0  0
 26 27  1  0  0  0  0
 28 35  1  0  0  0  0
 28 26  2  0  0  0  0
 30 34  1  0  0  0  0
 30 29  1  0  0  0  0
 31 29  1  0  0  0  0
 31 25  1  1  0  0  0
 31 36  1  0  0  0  0
 32 27  2  0  0  0  0
 32 36  1  0  0  0  0
 33 28  1  0  0  0  0
 33 34  2  0  0  0  0
 34 32  1  0  0  0  0
M  END
>  <MODEL>
2

>  <REMARK>
 VINA RESULT:      -6.2      2.282      3.718
  Name = 
  13 active torsions:
  status: ('A' for Active; 'I' for Inactive)
    1  A    between atoms: O_1  and  C_21
    2  A    between atoms: O_2  and  C_12
    3  A    between atoms: O_2  and  C_25
    4  A    between atoms: C_6  and  C_12
    5  A    between atoms: C_7  and  C_17
    6  A    between atoms: C_7  and  O_22
    7  A    between atoms: C_9  and  O_22
    8  A    between atoms: C_9  and  C_35
    9  A    between atoms: N_13  and  C_20
   10  A    between atoms: N_13  and  C_33
   11  A    between atoms: C_20  and  C_36
   12  A    between atoms: C_21  and  C_33
   13  A    between atoms: C_25  and  C_33
                            x       y       z     vdW  Elec       q    Type
                         _______ _______ _______ _____ _____    ______ ____

>  <TORSDO>
F 13

$$$$
=
 OpenBabel11042414003D

 36 39  0  0  1  0  0  0  0  0999 V2000
  191.1690  173.9520  141.2470 C   0  0  0  0  0  3  0  0  0  0  0  0
  189.9050  173.1350  141.1920 C   0  0  1  0  0  3  0  0  0  0  0  0
  192.3440  172.0140  140.3110 C   0  0  0  0  0  2  0  0  0  0  0  0
  190.1710  171.7020  141.6890 C   0  0  0  0  0  2  0  0  0  0  0  0
  192.3220  173.4240  140.8260 C   0  0  0  0  0  3  0  0  0  0  0  0
  191.4980  171.0840  141.1980 C   0  0  2  0  0  3  0  0  0  0  0  0
  188.8030  173.7940  142.0260 C   0  0  2  0  0  3  0  0  0  0  0  0
  187.6080  172.9640  142.0090 N   0  0  0  0  0  1  0  0  0  0  0  0
  188.4880  175.0600  141.5140 O   0  0  0  0  0  0  0  0  0  0  0  0
  188.3310  175.8890  142.6340 C   0  0  1  0  0  3  0  0  0  0  0  0
  189.4650  176.8970  142.6860 C   0  0  0  0  0  1  0  0  0  0  0  0
  186.9930  176.6310  142.5980 C   0  0  1  0  0  3  0  0  0  0  0  0
  186.9550  177.7170  143.5690 N   0  0  0  0  0  2  0  0  0  0  0  0
  185.8520  177.4360  144.4720 C   0  0  0  0  0  2  0  0  0  0  0  0
  184.1740  178.5170  145.9480 C   0  0  0  0  0  2  0  0  0  0  0  0
  185.6760  179.4010  147.6360 F   0  0  0  0  0  0  0  0  0  0  0  0
  185.6780  177.0580  147.1850 F   0  0  0  0  0  0  0  0  0  0  0  0
  185.4320  178.3550  146.7670 C   0  0  0  0  0  0  0  0  0  0  0  0
  185.5390  178.6770  145.2880 C   0  0  1  0  0  3  0  0  0  0  0  0
  186.6470  177.1340  141.2020 C   0  0  0  0  0  2  0  0  0  0  0  0
  186.0900  178.4120  141.2540 O   0  0  0  0  0  0  0  0  0  0  0  0
  184.9050  178.3060  140.5250 C   0  0  0  0  0  1  0  0  0  0  0  0
  192.3030  170.5360  142.3770 C   0  0  0  0  0  2  0  0  0  0  0  0
  191.8880  171.1100  143.5840 O   0  0  0  0  0  0  0  0  0  0  0  0
  193.0310  171.7150  144.1160 C   0  0  0  0  0  2  0  0  0  0  0  0
  188.8600  175.8680  146.3490 C   0  0  0  0  0  3  0  0  0  0  0  0
  189.3980  174.6760  145.8310 C   0  0  0  0  0  3  0  0  0  0  0  0
  189.8400  176.9280  146.4290 C   0  0  0  0  0  0  0  0  0  0  0  0
  193.3160  174.1900  144.2590 C   0  0  0  0  0  2  0  0  0  0  0  0
  193.0640  175.4090  145.1430 C   0  0  0  0  0  2  0  0  0  0  0  0
  192.6400  172.9740  144.8730 C   0  0  1  0  0  3  0  0  0  0  0  0
  190.7230  174.4860  145.4430 C   0  0  0  0  0  0  0  0  0  0  0  0
  191.1790  176.7430  145.9970 N   0  0  0  0  0  0  0  0  0  0  0  0
  191.6120  175.5630  145.5040 C   0  0  0  0  0  0  0  0  0  0  0  0
  188.9920  177.3000  146.8230 C   0  0  0  0  0  1  0  0  0  0  0  0
  191.1250  173.1650  144.8540 C   0  0  0  0  0  2  0  0  0  0  0  0
  2  1  1  0  0  0  0
  2  4  1  0  0  0  0
  2  7  1  1  0  0  0
  3  5  1  0  0  0  0
  3  6  1  0  0  0  0
  5  1  2  0  0  0  0
  6  4  1  0  0  0  0
  6 23  1  1  0  0  0
  7  8  1  6  0  0  0
  9  7  1  0  0  0  0
  9 10  1  0  0  0  0
 10 11  1  6  0  0  0
 12 20  1  6  0  0  0
 12 10  1  0  0  0  0
 12 13  1  0  0  0  0
 13 14  1  0  0  0  0
 15 18  1  0  0  0  0
 18 17  1  0  0  0  0
 18 16  1  0  0  0  0
 19 14  1  6  0  0  0
 19 15  1  0  0  0  0
 19 18  1  0  0  0  0
 20 21  1  0  0  0  0
 22 21  1  0  0  0  0
 23 24  1  0  0  0  0
 24 25  1  0  0  0  0
 26 28  1  0  0  0  0
 27 26  2  0  0  0  0
 28 35  1  0  0  0  0
 29 31  1  0  0  0  0
 29 30  1  0  0  0  0
 30 34  1  0  0  0  0
 31 25  1  6  0  0  0
 32 34  2  0  0  0  0
 32 27  1  0  0  0  0
 33 28  2  0  0  0  0
 34 33  1  0  0  0  0
 36 31  1  0  0  0  0
 36 32  1  0  0  0  0
M  END
>  <MODEL>
3

>  <REMARK>
 VINA RESULT:      -6.1      1.841      4.614
  Name = 
  13 active torsions:
  status: ('A' for Active; 'I' for Inactive)
    1  A    between atoms: O_1  and  C_21
    2  A    between atoms: O_2  and  C_12
    3  A    between atoms: O_2  and  C_25
    4  A    between atoms: C_6  and  C_12
    5  A    between atoms: C_7  and  C_17
    6  A    between atoms: C_7  and  O_22
    7  A    between atoms: C_9  and  O_22
    8  A    between atoms: C_9  and  C_35
    9  A    between atoms: N_13  and  C_20
   10  A    between atoms: N_13  and  C_33
   11  A    between atoms: C_20  and  C_36
   12  A    between atoms: C_21  and  C_33
   13  A    between atoms: C_25  and  C_33
                            x       y       z     vdW  Elec       q    Type
                         _______ _______ _______ _____ _____    ______ ____

>  <TORSDO>
F 13

$$$$
=
 OpenBabel11042414003D

 36 39  0  0  1  0  0  0  0  0999 V2000
  191.1630  172.9640  144.3470 C   0  0  0  0  0  3  0  0  0  0  0  0
  191.8100  172.6880  143.0160 C   0  0  1  0  0  3  0  0  0  0  0  0
  189.1570  171.8440  143.4910 C   0  0  0  0  0  2  0  0  0  0  0  0
  190.8260  172.9850  141.8690 C   0  0  0  0  0  2  0  0  0  0  0  0
  189.9090  172.5610  144.5740 C   0  0  0  0  0  3  0  0  0  0  0  0
  189.3780  172.5130  142.1230 C   0  0  2  0  0  3  0  0  0  0  0  0
  193.0840  173.5220  142.8550 C   0  0  2  0  0  3  0  0  0  0  0  0
  194.2130  172.6490  142.5710 N   0  0  0  0  0  1  0  0  0  0  0  0
  193.3490  174.2460  144.0250 O   0  0  0  0  0  0  0  0  0  0  0  0
  193.9420  175.4440  143.5990 C   0  0  1  0  0  3  0  0  0  0  0  0
  192.8780  176.3710  143.0420 C   0  0  0  0  0  1  0  0  0  0  0  0
  194.6770  176.1430  144.7450 C   0  0  1  0  0  3  0  0  0  0  0  0
  193.8180  177.1020  145.4270 N   0  0  0  0  0  2  0  0  0  0  0  0
  193.3770  176.4700  146.6590 C   0  0  0  0  0  2  0  0  0  0  0  0
  191.4350  175.4000  147.7740 C   0  0  0  0  0  2  0  0  0  0  0  0
  189.9180  177.2930  147.7820 F   0  0  0  0  0  0  0  0  0  0  0  0
  192.0510  177.5040  148.8290 F   0  0  0  0  0  0  0  0  0  0  0  0
  191.2350  176.8910  147.8930 C   0  0  0  0  0  0  0  0  0  0  0  0
  191.8670  176.3190  146.6380 C   0  0  1  0  0  3  0  0  0  0  0  0
  195.2850  175.1550  145.7320 C   0  0  0  0  0  2  0  0  0  0  0  0
  196.5050  174.6650  145.2650 O   0  0  0  0  0  0  0  0  0  0  0  0
  196.7560  173.5420  146.0540 C   0  0  0  0  0  1  0  0  0  0  0  0
  188.3910  173.6550  141.8830 C   0  0  0  0  0  2  0  0  0  0  0  0
  188.9660  174.6650  141.1010 O   0  0  0  0  0  0  0  0  0  0  0  0
  188.1020  175.7580  141.2180 C   0  0  0  0  0  2  0  0  0  0  0  0
  184.6280  178.1770  145.8770 C   0  0  0  0  0  3  0  0  0  0  0  0
  185.0020  177.7210  144.6000 C   0  0  0  0  0  3  0  0  0  0  0  0
  185.7230  178.1370  146.8200 C   0  0  0  0  0  0  0  0  0  0  0  0
  188.9380  176.6870  143.3770 C   0  0  0  0  0  2  0  0  0  0  0  0
  188.6660  176.7490  144.8790 C   0  0  0  0  0  2  0  0  0  0  0  0
  187.7740  175.9990  142.6820 C   0  0  1  0  0  3  0  0  0  0  0  0
  186.2650  177.2550  144.2430 C   0  0  0  0  0  0  0  0  0  0  0  0
  187.0190  177.6980  146.4440 N   0  0  0  0  0  0  0  0  0  0  0  0
  187.2930  177.2810  145.1890 C   0  0  0  0  0  0  0  0  0  0  0  0
  184.9180  178.4480  147.3390 C   0  0  0  0  0  1  0  0  0  0  0  0
  186.5170  176.8560  142.8180 C   0  0  0  0  0  2  0  0  0  0  0  0
  1  5  2  0  0  0  0
  2  7  1  6  0  0  0
  2  1  1  0  0  0  0
  3  5  1  0  0  0  0
  4  6  1  0  0  0  0
  4  2  1  0  0  0  0
  6 23  1  1  0  0  0
  6  3  1  0  0  0  0
  7  8  1  1  0  0  0
  7  9  1  0  0  0  0
 10 11  1  1  0  0  0
 10  9  1  0  0  0  0
 10 12  1  0  0  0  0
 12 13  1  0  0  0  0
 12 20  1  1  0  0  0
 13 14  1  0  0  0  0
 15 18  1  0  0  0  0
 16 18  1  0  0  0  0
 18 17  1  0  0  0  0
 19 14  1  1  0  0  0
 19 15  1  0  0  0  0
 19 18  1  0  0  0  0
 21 20  1  0  0  0  0
 21 22  1  0  0  0  0
 24 25  1  0  0  0  0
 24 23  1  0  0  0  0
 26 28  1  0  0  0  0
 27 26  2  0  0  0  0
 28 35  1  0  0  0  0
 29 30  1  0  0  0  0
 30 34  1  0  0  0  0
 31 25  1  6  0  0  0
 31 36  1  0  0  0  0
 31 29  1  0  0  0  0
 32 27  1  0  0  0  0
 32 34  2  0  0  0  0
 33 28  2  0  0  0  0
 34 33  1  0  0  0  0
 36 32  1  0  0  0  0
M  END
>  <MODEL>
4

>  <REMARK>
 VINA RESULT:      -6.1      2.583      7.545
  Name = 
  13 active torsions:
  status: ('A' for Active; 'I' for Inactive)
    1  A    between atoms: O_1  and  C_21
    2  A    between atoms: O_2  and  C_12
    3  A    between atoms: O_2  and  C_25
    4  A    between atoms: C_6  and  C_12
    5  A    between atoms: C_7  and  C_17
    6  A    between atoms: C_7  and  O_22
    7  A    between atoms: C_9  and  O_22
    8  A    between atoms: C_9  and  C_35
    9  A    between atoms: N_13  and  C_20
   10  A    between atoms: N_13  and  C_33
   11  A    between atoms: C_20  and  C_36
   12  A    between atoms: C_21  and  C_33
   13  A    between atoms: C_25  and  C_33
                            x       y       z     vdW  Elec       q    Type
                         _______ _______ _______ _____ _____    ______ ____

>  <TORSDO>
F 13

$$$$
=
 OpenBabel11042414003D

 36 39  0  0  1  0  0  0  0  0999 V2000
  185.9040  177.3730  142.4860 C   0  0  0  0  0  3  0  0  0  0  0  0
  187.1460  178.1710  142.7850 C   0  0  1  0  0  3  0  0  0  0  0  0
  184.8250  178.5400  144.3520 C   0  0  0  0  0  2  0  0  0  0  0  0
  187.3970  178.2230  144.3030 C   0  0  0  0  0  2  0  0  0  0  0  0
  184.8050  177.5500  143.2240 C   0  0  0  0  0  3  0  0  0  0  0  0
  186.1310  178.4370  145.1600 C   0  0  2  0  0  3  0  0  0  0  0  0
  188.3560  177.5720  142.0640 C   0  0  2  0  0  3  0  0  0  0  0  0
  187.9090  176.7000  140.9880 N   0  0  0  0  0  1  0  0  0  0  0  0
  189.1430  176.8300  142.9550 O   0  0  0  0  0  0  0  0  0  0  0  0
  190.4690  177.1960  142.6810 C   0  0  1  0  0  3  0  0  0  0  0  0
  190.9220  178.2540  143.6690 C   0  0  0  0  0  1  0  0  0  0  0  0
  191.4100  175.9920  142.7580 C   0  0  1  0  0  3  0  0  0  0  0  0
  191.1040  175.0040  141.7320 N   0  0  0  0  0  2  0  0  0  0  0  0
  190.9670  173.7240  142.4060 C   0  0  0  0  0  2  0  0  0  0  0  0
  189.3270  171.8630  142.5040 C   0  0  0  0  0  2  0  0  0  0  0  0
  187.7300  172.6870  140.8750 F   0  0  0  0  0  0  0  0  0  0  0  0
  188.2640  174.0360  142.7690 F   0  0  0  0  0  0  0  0  0  0  0  0
  188.6150  173.0360  141.8770 C   0  0  0  0  0  0  0  0  0  0  0  0
  190.0850  172.8090  141.5780 C   0  0  1  0  0  3  0  0  0  0  0  0
  192.8770  176.4000  142.7040 C   0  0  0  0  0  2  0  0  0  0  0  0
  193.5200  175.8140  141.6130 O   0  0  0  0  0  0  0  0  0  0  0  0
  194.7600  175.4140  142.1130 C   0  0  0  0  0  1  0  0  0  0  0  0
  186.0380  177.3750  146.2560 C   0  0  0  0  0  2  0  0  0  0  0  0
  186.9990  176.3730  146.0730 O   0  0  0  0  0  0  0  0  0  0  0  0
  187.6700  176.2780  147.2960 C   0  0  0  0  0  2  0  0  0  0  0  0
  193.9320  176.2760  146.6590 C   0  0  0  0  0  3  0  0  0  0  0  0
  192.6320  176.7010  146.9870 C   0  0  0  0  0  3  0  0  0  0  0  0
  193.9400  175.0100  145.9600 C   0  0  0  0  0  0  0  0  0  0  0  0
  189.0180  174.8130  145.7910 C   0  0  0  0  0  2  0  0  0  0  0  0
  190.3000  173.9890  145.7020 C   0  0  0  0  0  2  0  0  0  0  0  0
  189.0140  175.5970  147.0950 C   0  0  1  0  0  3  0  0  0  0  0  0
  191.4570  176.0070  146.7090 C   0  0  0  0  0  0  0  0  0  0  0  0
  192.7390  174.3230  145.6440 N   0  0  0  0  0  0  0  0  0  0  0  0
  191.5280  174.8080  145.9930 C   0  0  0  0  0  0  0  0  0  0  0  0
  194.9050  175.2650  146.0880 C   0  0  0  0  0  1  0  0  0  0  0  0
  190.1410  176.6270  147.0770 C   0  0  0  0  0  2  0  0  0  0  0  0
  1  2  1  0  0  0  0
  1  5  2  0  0  0  0
  2  7  1  6  0  0  0
  2  4  1  0  0  0  0
  3  6  1  0  0  0  0
  4  6  1  0  0  0  0
  5  3  1  0  0  0  0
  6 23  1  1  0  0  0
  7  8  1  6  0  0  0
  7  9  1  0  0  0  0
 10 12  1  0  0  0  0
 10  9  1  0  0  0  0
 10 11  1  1  0  0  0
 12 20  1  6  0  0  0
 13 14  1  0  0  0  0
 13 12  1  0  0  0  0
 16 18  1  0  0  0  0
 18 15  1  0  0  0  0
 18 17  1  0  0  0  0
 19 18  1  0  0  0  0
 19 14  1  1  0  0  0
 19 15  1  0  0  0  0
 21 22  1  0  0  0  0
 21 20  1  0  0  0  0
 24 23  1  0  0  0  0
 24 25  1  0  0  0  0
 26 27  1  0  0  0  0
 28 35  1  0  0  0  0
 28 26  2  0  0  0  0
 29 31  1  0  0  0  0
 30 29  1  0  0  0  0
 30 34  1  0  0  0  0
 31 25  1  6  0  0  0
 32 27  2  0  0  0  0
 32 36  1  0  0  0  0
 33 28  1  0  0  0  0
 33 34  2  0  0  0  0
 34 32  1  0  0  0  0
 36 31  1  0  0  0  0
M  END
>  <MODEL>
5

>  <REMARK>
 VINA RESULT:      -6.1      2.444      6.490
  Name = 
  13 active torsions:
  status: ('A' for Active; 'I' for Inactive)
    1  A    between atoms: O_1  and  C_21
    2  A    between atoms: O_2  and  C_12
    3  A    between atoms: O_2  and  C_25
    4  A    between atoms: C_6  and  C_12
    5  A    between atoms: C_7  and  C_17
    6  A    between atoms: C_7  and  O_22
    7  A    between atoms: C_9  and  O_22
    8  A    between atoms: C_9  and  C_35
    9  A    between atoms: N_13  and  C_20
   10  A    between atoms: N_13  and  C_33
   11  A    between atoms: C_20  and  C_36
   12  A    between atoms: C_21  and  C_33
   13  A    between atoms: C_25  and  C_33
                            x       y       z     vdW  Elec       q    Type
                         _______ _______ _______ _____ _____    ______ ____

>  <TORSDO>
F 13

$$$$
=
 OpenBabel11042414003D

 36 39  0  0  1  0  0  0  0  0999 V2000
  192.0740  174.8340  145.6490 C   0  0  0  0  0  3  0  0  0  0  0  0
  191.8930  176.3260  145.7430 C   0  0  1  0  0  3  0  0  0  0  0  0
  194.4500  175.1920  146.1370 C   0  0  0  0  0  2  0  0  0  0  0  0
  193.0380  177.0520  145.0130 C   0  0  0  0  0  2  0  0  0  0  0  0
  193.2820  174.2970  145.8390 C   0  0  0  0  0  3  0  0  0  0  0  0
  194.4380  176.4400  145.2380 C   0  0  2  0  0  3  0  0  0  0  0  0
  190.5400  176.7410  145.1590 C   0  0  2  0  0  3  0  0  0  0  0  0
  190.7210  177.8450  144.2290 N   0  0  0  0  0  1  0  0  0  0  0  0
  189.6660  177.1410  146.1780 O   0  0  0  0  0  0  0  0  0  0  0  0
  188.5600  176.2850  146.0820 C   0  0  1  0  0  3  0  0  0  0  0  0
  188.5670  175.3090  147.2440 C   0  0  0  0  0  1  0  0  0  0  0  0
  187.2440  177.0660  146.0840 C   0  0  1  0  0  3  0  0  0  0  0  0
  186.2240  176.4010  145.2840 N   0  0  0  0  0  2  0  0  0  0  0  0
  186.4800  176.7500  143.8980 C   0  0  0  0  0  2  0  0  0  0  0  0
  186.4540  178.7230  142.3910 C   0  0  0  0  0  2  0  0  0  0  0  0
  185.5500  180.3610  143.9360 F   0  0  0  0  0  0  0  0  0  0  0  0
  184.3070  178.3750  143.4820 F   0  0  0  0  0  0  0  0  0  0  0  0
  185.5210  179.0390  143.5350 C   0  0  0  0  0  0  0  0  0  0  0  0
  186.7810  178.2350  143.7980 C   0  0  1  0  0  3  0  0  0  0  0  0
  186.7370  177.3440  147.4940 C   0  0  0  0  0  2  0  0  0  0  0  0
  186.3850  178.6860  147.6440 O   0  0  0  0  0  0  0  0  0  0  0  0
  185.0460  178.7400  147.2560 C   0  0  0  0  0  1  0  0  0  0  0  0
  195.1330  176.1830  143.9000 C   0  0  0  0  0  2  0  0  0  0  0  0
  194.2230  176.2420  142.8370 O   0  0  0  0  0  0  0  0  0  0  0  0
  194.5540  175.1650  142.0100 C   0  0  0  0  0  2  0  0  0  0  0  0
  188.3450  174.1320  142.0220 C   0  0  0  0  0  3  0  0  0  0  0  0
  189.5770  174.8100  142.0510 C   0  0  0  0  0  3  0  0  0  0  0  0
  188.5040  172.6950  142.0240 C   0  0  0  0  0  0  0  0  0  0  0  0
  193.3990  173.0090  142.5050 C   0  0  0  0  0  2  0  0  0  0  0  0
  192.2460  172.1040  142.0770 C   0  0  0  0  0  2  0  0  0  0  0  0
  193.3170  174.3220  141.7420 C   0  0  1  0  0  3  0  0  0  0  0  0
  190.8330  174.2080  142.0640 C   0  0  0  0  0  0  0  0  0  0  0  0
  189.7840  172.0840  142.0750 N   0  0  0  0  0  0  0  0  0  0  0  0
  190.9200  172.8130  142.1080 C   0  0  0  0  0  0  0  0  0  0  0  0
  187.5150  172.8670  141.9510 C   0  0  0  0  0  1  0  0  0  0  0  0
  192.0540  175.0760  142.1540 C   0  0  0  0  0  2  0  0  0  0  0  0
  1  2  1  0  0  0  0
  1  5  2  0  0  0  0
  2  7  1  6  0  0  0
  4  6  1  0  0  0  0
  4  2  1  0  0  0  0
  5  3  1  0  0  0  0
  6 23  1  6  0  0  0
  6  3  1  0  0  0  0
  7  8  1  6  0  0  0
  7  9  1  0  0  0  0
 10 12  1  0  0  0  0
 10  9  1  0  0  0  0
 10 11  1  1  0  0  0
 12 20  1  1  0  0  0
 13 12  1  0  0  0  0
 14 13  1  0  0  0  0
 15 18  1  0  0  0  0
 15 19  1  0  0  0  0
 17 18  1  0  0  0  0
 18 19  1  0  0  0  0
 18 16  1  0  0  0  0
 19 14  1  6  0  0  0
 20 21  1  0  0  0  0
 22 21  1  0  0  0  0
 24 23  1  0  0  0  0
 25 24  1  0  0  0  0
 26 28  2  0  0  0  0
 26 27  1  0  0  0  0
 27 32  2  0  0  0  0
 28 33  1  0  0  0  0
 30 34  1  0  0  0  0
 30 29  1  0  0  0  0
 31 25  1  1  0  0  0
 31 36  1  0  0  0  0
 31 29  1  0  0  0  0
 32 34  1  0  0  0  0
 32 36  1  0  0  0  0
 33 34  2  0  0  0  0
 35 28  1  0  0  0  0
M  END
>  <MODEL>
6

>  <REMARK>
 VINA RESULT:      -6.0      2.429      3.709
  Name = 
  13 active torsions:
  status: ('A' for Active; 'I' for Inactive)
    1  A    between atoms: O_1  and  C_21
    2  A    between atoms: O_2  and  C_12
    3  A    between atoms: O_2  and  C_25
    4  A    between atoms: C_6  and  C_12
    5  A    between atoms: C_7  and  C_17
    6  A    between atoms: C_7  and  O_22
    7  A    between atoms: C_9  and  O_22
    8  A    between atoms: C_9  and  C_35
    9  A    between atoms: N_13  and  C_20
   10  A    between atoms: N_13  and  C_33
   11  A    between atoms: C_20  and  C_36
   12  A    between atoms: C_21  and  C_33
   13  A    between atoms: C_25  and  C_33
                            x       y       z     vdW  Elec       q    Type
                         _______ _______ _______ _____ _____    ______ ____

>  <TORSDO>
F 13

$$$$
=
 OpenBabel11042414003D

 36 39  0  0  1  0  0  0  0  0999 V2000
  189.6100  174.7920  144.7330 C   0  0  0  0  0  3  0  0  0  0  0  0
  189.2190  176.2460  144.6860 C   0  0  1  0  0  3  0  0  0  0  0  0
  189.5500  174.9570  147.1780 C   0  0  0  0  0  2  0  0  0  0  0  0
  190.0230  177.0510  145.7240 C   0  0  0  0  0  2  0  0  0  0  0  0
  189.7620  174.1810  145.9110 C   0  0  0  0  0  3  0  0  0  0  0  0
  190.1940  176.3520  147.0910 C   0  0  2  0  0  3  0  0  0  0  0  0
  189.4390  176.8160  143.2820 C   0  0  2  0  0  3  0  0  0  0  0  0
  190.7220  177.5000  143.2220 N   0  0  0  0  0  1  0  0  0  0  0  0
  188.4220  177.7230  142.9540 O   0  0  0  0  0  0  0  0  0  0  0  0
  187.7940  177.1890  141.8210 C   0  0  1  0  0  3  0  0  0  0  0  0
  188.3610  175.8130  141.5220 C   0  0  0  0  0  1  0  0  0  0  0  0
  186.2800  177.0820  142.0170 C   0  0  1  0  0  3  0  0  0  0  0  0
  185.9450  176.4870  143.3040 N   0  0  0  0  0  2  0  0  0  0  0  0
  185.0320  177.4030  143.9660 C   0  0  0  0  0  2  0  0  0  0  0  0
  185.8350  178.9570  145.7270 C   0  0  0  0  0  2  0  0  0  0  0  0
  184.3680  178.2670  147.5320 F   0  0  0  0  0  0  0  0  0  0  0  0
  183.4160  179.0250  145.4800 F   0  0  0  0  0  0  0  0  0  0  0  0
  184.4790  178.4650  146.1700 C   0  0  0  0  0  0  0  0  0  0  0  0
  185.4110  177.5230  145.4310 C   0  0  1  0  0  3  0  0  0  0  0  0
  185.5770  178.4220  141.8350 C   0  0  0  0  0  2  0  0  0  0  0  0
  185.1350  178.5840  140.5210 O   0  0  0  0  0  0  0  0  0  0  0  0
  183.7700  178.3030  140.5760 C   0  0  0  0  0  1  0  0  0  0  0  0
  191.6670  176.3250  147.4990 C   0  0  0  0  0  2  0  0  0  0  0  0
  192.4900  176.7650  146.4560 O   0  0  0  0  0  0  0  0  0  0  0  0
  193.7970  176.5360  146.8970 C   0  0  0  0  0  2  0  0  0  0  0  0
  194.9460  175.8840  140.7420 C   0  0  0  0  0  3  0  0  0  0  0  0
  194.3070  176.2490  141.9420 C   0  0  0  0  0  3  0  0  0  0  0  0
  196.1310  175.0880  140.9680 C   0  0  0  0  0  0  0  0  0  0  0  0
  195.3710  174.9180  145.8350 C   0  0  0  0  0  2  0  0  0  0  0  0
  196.4160  174.7600  144.7310 C   0  0  0  0  0  2  0  0  0  0  0  0
  194.7040  176.2790  145.7050 C   0  0  1  0  0  3  0  0  0  0  0  0
  194.7400  175.9190  143.2240 C   0  0  0  0  0  0  0  0  0  0  0  0
  196.5500  174.7230  142.2730 N   0  0  0  0  0  0  0  0  0  0  0  0
  195.8710  175.1120  143.3740 C   0  0  0  0  0  0  0  0  0  0  0  0
  196.0760  175.2330  139.9730 C   0  0  0  0  0  1  0  0  0  0  0  0
  193.9100  176.3390  144.4020 C   0  0  0  0  0  2  0  0  0  0  0  0
  1  5  2  0  0  0  0
  2  7  1  6  0  0  0
  2  1  1  0  0  0  0
  2  4  1  0  0  0  0
  4  6  1  0  0  0  0
  5  3  1  0  0  0  0
  6  3  1  0  0  0  0
  6 23  1  6  0  0  0
  7  8  1  1  0  0  0
  9  7  1  0  0  0  0
 10 11  1  1  0  0  0
 10 12  1  0  0  0  0
 10  9  1  0  0  0  0
 12 20  1  1  0  0  0
 12 13  1  0  0  0  0
 13 14  1  0  0  0  0
 15 18  1  0  0  0  0
 17 18  1  0  0  0  0
 18 16  1  0  0  0  0
 19 14  1  6  0  0  0
 19 15  1  0  0  0  0
 19 18  1  0  0  0  0
 21 22  1  0  0  0  0
 21 20  1  0  0  0  0
 24 25  1  0  0  0  0
 24 23  1  0  0  0  0
 26 28  2  0  0  0  0
 26 27  1  0  0  0  0
 27 32  2  0  0  0  0
 28 33  1  0  0  0  0
 30 29  1  0  0  0  0
 31 29  1  0  0  0  0
 31 25  1  1  0  0  0
 32 34  1  0  0  0  0
 32 36  1  0  0  0  0
 33 34  2  0  0  0  0
 34 30  1  0  0  0  0
 35 28  1  0  0  0  0
 36 31  1  0  0  0  0
M  END
>  <MODEL>
7

>  <REMARK>
 VINA RESULT:      -6.0      2.698      3.861
  Name = 
  13 active torsions:
  status: ('A' for Active; 'I' for Inactive)
    1  A    between atoms: O_1  and  C_21
    2  A    between atoms: O_2  and  C_12
    3  A    between atoms: O_2  and  C_25
    4  A    between atoms: C_6  and  C_12
    5  A    between atoms: C_7  and  C_17
    6  A    between atoms: C_7  and  O_22
    7  A    between atoms: C_9  and  O_22
    8  A    between atoms: C_9  and  C_35
    9  A    between atoms: N_13  and  C_20
   10  A    between atoms: N_13  and  C_33
   11  A    between atoms: C_20  and  C_36
   12  A    between atoms: C_21  and  C_33
   13  A    between atoms: C_25  and  C_33
                            x       y       z     vdW  Elec       q    Type
                         _______ _______ _______ _____ _____    ______ ____

>  <TORSDO>
F 13

$$$$
=
 OpenBabel11042414003D

 36 39  0  0  1  0  0  0  0  0999 V2000
  190.9570  173.5020  144.4580 C   0  0  0  0  0  3  0  0  0  0  0  0
  191.8660  173.1900  143.2990 C   0  0  1  0  0  3  0  0  0  0  0  0
  189.2810  172.0550  143.4050 C   0  0  0  0  0  2  0  0  0  0  0  0
  191.0830  173.2480  141.9740 C   0  0  0  0  0  2  0  0  0  0  0  0
  189.7360  172.9620  144.5120 C   0  0  0  0  0  3  0  0  0  0  0  0
  189.6750  172.6160  142.0280 C   0  0  2  0  0  3  0  0  0  0  0  0
  193.0460  174.1650  143.2640 C   0  0  2  0  0  3  0  0  0  0  0  0
  193.1650  174.7490  141.9380 N   0  0  0  0  0  1  0  0  0  0  0  0
  194.2400  173.5030  143.5810 O   0  0  0  0  0  0  0  0  0  0  0  0
  194.5290  173.8630  144.9050 C   0  0  1  0  0  3  0  0  0  0  0  0
  195.8980  173.3350  145.2910 C   0  0  0  0  0  1  0  0  0  0  0  0
  194.4990  175.3820  145.0920 C   0  0  1  0  0  3  0  0  0  0  0  0
  194.1250  175.7480  146.4520 N   0  0  0  0  0  2  0  0  0  0  0  0
  192.8150  176.3710  146.3750 C   0  0  0  0  0  2  0  0  0  0  0  0
  191.1660  176.6740  148.2050 C   0  0  0  0  0  2  0  0  0  0  0  0
  189.4540  175.1440  147.4220 F   0  0  0  0  0  0  0  0  0  0  0  0
  190.1530  176.9330  146.0080 F   0  0  0  0  0  0  0  0  0  0  0  0
  190.4190  176.0580  147.0470 C   0  0  0  0  0  0  0  0  0  0  0  0
  191.8580  175.6540  147.3090 C   0  0  1  0  0  3  0  0  0  0  0  0
  195.8140  176.0400  144.6910 C   0  0  0  0  0  2  0  0  0  0  0  0
  195.7810  176.4570  143.3600 O   0  0  0  0  0  0  0  0  0  0  0  0
  197.1100  176.3930  142.9410 C   0  0  0  0  0  1  0  0  0  0  0  0
  188.6280  173.5930  141.4920 C   0  0  0  0  0  2  0  0  0  0  0  0
  189.0500  174.9200  141.6400 O   0  0  0  0  0  0  0  0  0  0  0  0
  187.9670  175.6990  141.2210 C   0  0  0  0  0  2  0  0  0  0  0  0
  186.3730  177.5560  147.0200 C   0  0  0  0  0  3  0  0  0  0  0  0
  186.8390  176.7480  145.9670 C   0  0  0  0  0  3  0  0  0  0  0  0
  185.8600  178.8260  146.5580 C   0  0  0  0  0  0  0  0  0  0  0  0
  186.4850  177.6140  141.8210 C   0  0  0  0  0  2  0  0  0  0  0  0
  186.3100  178.7760  142.7960 C   0  0  0  0  0  2  0  0  0  0  0  0
  187.6540  176.7520  142.2710 C   0  0  1  0  0  3  0  0  0  0  0  0
  186.8420  177.0980  144.6180 C   0  0  0  0  0  0  0  0  0  0  0  0
  185.8300  179.1640  145.1800 N   0  0  0  0  0  0  0  0  0  0  0  0
  186.2930  178.3230  144.2300 C   0  0  0  0  0  0  0  0  0  0  0  0
  185.8010  178.8490  147.5630 C   0  0  0  0  0  1  0  0  0  0  0  0
  187.3230  176.0950  143.6090 C   0  0  0  0  0  2  0  0  0  0  0  0
  1  5  2  0  0  0  0
  2  7  1  6  0  0  0
  2  1  1  0  0  0  0
  3  5  1  0  0  0  0
  4  6  1  0  0  0  0
  4  2  1  0  0  0  0
  6 23  1  1  0  0  0
  6  3  1  0  0  0  0
  7  8  1  6  0  0  0
  7  9  1  0  0  0  0
  9 10  1  0  0  0  0
 10 12  1  0  0  0  0
 10 11  1  6  0  0  0
 12 20  1  1  0  0  0
 12 13  1  0  0  0  0
 14 13  1  0  0  0  0
 17 18  1  0  0  0  0
 18 19  1  0  0  0  0
 18 16  1  0  0  0  0
 18 15  1  0  0  0  0
 19 14  1  6  0  0  0
 19 15  1  0  0  0  0
 21 20  1  0  0  0  0
 22 21  1  0  0  0  0
 23 24  1  0  0  0  0
 25 24  1  0  0  0  0
 27 26  2  0  0  0  0
 28 26  1  0  0  0  0
 28 35  1  0  0  0  0
 29 31  1  0  0  0  0
 29 30  1  0  0  0  0
 30 34  1  0  0  0  0
 31 25  1  6  0  0  0
 31 36  1  0  0  0  0
 32 27  1  0  0  0  0
 33 28  2  0  0  0  0
 34 32  2  0  0  0  0
 34 33  1  0  0  0  0
 36 32  1  0  0  0  0
M  END
>  <MODEL>
8

>  <REMARK>
 VINA RESULT:      -6.0      2.508      7.557
  Name = 
  13 active torsions:
  status: ('A' for Active; 'I' for Inactive)
    1  A    between atoms: O_1  and  C_21
    2  A    between atoms: O_2  and  C_12
    3  A    between atoms: O_2  and  C_25
    4  A    between atoms: C_6  and  C_12
    5  A    between atoms: C_7  and  C_17
    6  A    between atoms: C_7  and  O_22
    7  A    between atoms: C_9  and  O_22
    8  A    between atoms: C_9  and  C_35
    9  A    between atoms: N_13  and  C_20
   10  A    between atoms: N_13  and  C_33
   11  A    between atoms: C_20  and  C_36
   12  A    between atoms: C_21  and  C_33
   13  A    between atoms: C_25  and  C_33
                            x       y       z     vdW  Elec       q    Type
                         _______ _______ _______ _____ _____    ______ ____

>  <TORSDO>
F 13

$$$$
=
 OpenBabel11042414003D

 36 39  0  0  1  0  0  0  0  0999 V2000
  192.8060  176.4580  143.5010 C   0  0  0  0  0  3  0  0  0  0  0  0
  193.4450  175.1010  143.3770 C   0  0  1  0  0  3  0  0  0  0  0  0
  193.8250  176.6260  145.7240 C   0  0  0  0  0  2  0  0  0  0  0  0
  193.2860  174.3110  144.6900 C   0  0  0  0  0  2  0  0  0  0  0  0
  192.9890  177.1820  144.6090 C   0  0  0  0  0  3  0  0  0  0  0  0
  193.5060  175.1420  145.9730 C   0  0  2  0  0  3  0  0  0  0  0  0
  192.8330  174.3230  142.2100 C   0  0  2  0  0  3  0  0  0  0  0  0
  193.7080  174.4020  141.0510 N   0  0  0  0  0  1  0  0  0  0  0  0
  191.5790  174.8490  141.8720 O   0  0  0  0  0  0  0  0  0  0  0  0
  190.8030  173.7490  141.4790 C   0  0  1  0  0  3  0  0  0  0  0  0
  191.0930  172.5690  142.3890 C   0  0  0  0  0  1  0  0  0  0  0  0
  189.3080  174.0710  141.5250 C   0  0  1  0  0  3  0  0  0  0  0  0
  189.0720  175.5000  141.6870 N   0  0  0  0  0  2  0  0  0  0  0  0
  187.7500  175.7720  141.1470 C   0  0  0  0  0  2  0  0  0  0  0  0
  186.3370  177.5420  140.1320 C   0  0  0  0  0  2  0  0  0  0  0  0
  186.2310  179.0630  142.0200 F   0  0  0  0  0  0  0  0  0  0  0  0
  185.4830  176.8140  142.2910 F   0  0  0  0  0  0  0  0  0  0  0  0
  186.2710  177.7390  141.6270 C   0  0  0  0  0  0  0  0  0  0  0  0
  187.5670  177.2700  140.9920 C   0  0  1  0  0  3  0  0  0  0  0  0
  188.5610  173.5280  140.3140 C   0  0  0  0  0  2  0  0  0  0  0  0
  189.3720  173.5370  139.1780 O   0  0  0  0  0  0  0  0  0  0  0  0
  189.0990  172.3240  138.5450 C   0  0  0  0  0  1  0  0  0  0  0  0
  192.3290  174.9670  146.9340 C   0  0  0  0  0  2  0  0  0  0  0  0
  191.1200  174.8500  146.2370 O   0  0  0  0  0  0  0  0  0  0  0  0
  190.1230  175.0870  147.1890 C   0  0  0  0  0  2  0  0  0  0  0  0
  184.5520  177.9390  146.5170 C   0  0  0  0  0  3  0  0  0  0  0  0
  185.5490  177.0730  147.0010 C   0  0  0  0  0  3  0  0  0  0  0  0
  184.9990  178.7200  145.3860 C   0  0  0  0  0  0  0  0  0  0  0  0
  189.3500  176.4090  145.2190 C   0  0  0  0  0  2  0  0  0  0  0  0
  188.5920  177.6680  144.8030 C   0  0  0  0  0  2  0  0  0  0  0  0
  189.2270  176.2230  146.7240 C   0  0  1  0  0  3  0  0  0  0  0  0
  186.8410  176.9600  146.4920 C   0  0  0  0  0  0  0  0  0  0  0  0
  186.3040  178.5750  144.8460 N   0  0  0  0  0  0  0  0  0  0  0  0
  187.2000  177.7120  145.3700 C   0  0  0  0  0  0  0  0  0  0  0  0
  184.0640  179.0320  145.5890 C   0  0  0  0  0  1  0  0  0  0  0  0
  187.7700  175.9420  147.0880 C   0  0  0  0  0  2  0  0  0  0  0  0
  1  5  2  0  0  0  0
  2  7  1  6  0  0  0
  2  1  1  0  0  0  0
  2  4  1  0  0  0  0
  3  6  1  0  0  0  0
  4  6  1  0  0  0  0
  5  3  1  0  0  0  0
  6 23  1  1  0  0  0
  7  8  1  6  0  0  0
  9  7  1  0  0  0  0
 10 12  1  0  0  0  0
 10  9  1  0  0  0  0
 10 11  1  1  0  0  0
 12 20  1  6  0  0  0
 12 13  1  0  0  0  0
 14 13  1  0  0  0  0
 15 19  1  0  0  0  0
 15 18  1  0  0  0  0
 18 16  1  0  0  0  0
 18 17  1  0  0  0  0
 19 14  1  1  0  0  0
 19 18  1  0  0  0  0
 21 20  1  0  0  0  0
 22 21  1  0  0  0  0
 24 23  1  0  0  0  0
 24 25  1  0  0  0  0
 26 27  1  0  0  0  0
 28 35  1  0  0  0  0
 28 26  2  0  0  0  0
 29 31  1  0  0  0  0
 30 29  1  0  0  0  0
 30 34  1  0  0  0  0
 31 36  1  0  0  0  0
 31 25  1  6  0  0  0
 32 27  2  0  0  0  0
 32 36  1  0  0  0  0
 33 34  2  0  0  0  0
 33 28  1  0  0  0  0
 34 32  1  0  0  0  0
M  END
>  <MODEL>
9

>  <REMARK>
 VINA RESULT:      -6.0      2.347      5.688
  Name = 
  13 active torsions:
  status: ('A' for Active; 'I' for Inactive)
    1  A    between atoms: O_1  and  C_21
    2  A    between atoms: O_2  and  C_12
    3  A    between atoms: O_2  and  C_25
    4  A    between atoms: C_6  and  C_12
    5  A    between atoms: C_7  and  C_17
    6  A    between atoms: C_7  and  O_22
    7  A    between atoms: C_9  and  O_22
    8  A    between atoms: C_9  and  C_35
    9  A    between atoms: N_13  and  C_20
   10  A    between atoms: N_13  and  C_33
   11  A    between atoms: C_20  and  C_36
   12  A    between atoms: C_21  and  C_33
   13  A    between atoms: C_25  and  C_33
                            x       y       z     vdW  Elec       q    Type
                         _______ _______ _______ _____ _____    ______ ____

>  <TORSDO>
F 13

$$$$
