=
 OpenBabel11042418493D

 60 65  0  0  1  0  0  0  0  0999 V2000
  186.6540  177.5330  141.8490 C   0  0  0  0  0  0  0  0  0  0  0  0
  187.7000  176.7960  141.6030 N   0  0  0  0  0  0  0  0  0  0  0  0
  185.4530  177.3840  141.0770 N   0  0  0  0  0  2  0  0  0  0  0  0
  184.1610  177.9170  141.3900 C   0  0  0  0  0  0  0  0  0  0  0  0
  182.5300  178.7770  142.9740 C   0  0  0  0  0  3  0  0  0  0  0  0
  183.2140  178.0350  140.3670 C   0  0  0  0  0  3  0  0  0  0  0  0
  181.9380  178.5390  140.6380 C   0  0  0  0  0  3  0  0  0  0  0  0
  181.5960  178.9310  141.9390 C   0  0  0  0  0  0  0  0  0  0  0  0
  183.8050  178.2780  142.6980 C   0  0  0  0  0  3  0  0  0  0  0  0
  179.2390  178.2690  142.2720 C   0  0  0  0  0  2  0  0  0  0  0  0
  179.2780  179.1640  141.0550 C   0  0  0  0  0  2  0  0  0  0  0  0
  180.2130  179.4360  142.2230 C   0  0  0  0  0  3  0  0  0  0  0  0
  187.8070  175.7280  140.6470 C   0  0  0  0  0  0  0  0  0  0  0  0
  187.6000  175.9270  139.4230 O   0  0  0  0  0  0  0  0  0  0  0  0
  188.1250  174.4160  141.1000 N   0  0  0  0  0  2  0  0  0  0  0  0
  188.4180  174.1800  142.4480 N   0  0  0  0  0  2  0  0  0  0  0  0
  190.0180  173.3350  144.0790 C   0  0  0  0  0  3  0  0  0  0  0  0
  189.6290  172.0730  142.0490 C   0  0  0  0  0  3  0  0  0  0  0  0
  189.3640  173.1920  142.8530 C   0  0  0  0  0  0  0  0  0  0  0  0
  190.5450  171.1000  142.4670 C   0  0  0  0  0  0  0  0  0  0  0  0
  190.9290  172.3660  144.5060 C   0  0  0  0  0  3  0  0  0  0  0  0
  191.1870  171.2510  143.7050 C   0  0  0  0  0  3  0  0  0  0  0  0
  192.0660  168.5510  140.3150 O   0  0  0  0  0  0  0  0  0  0  0  0
  191.8820  169.7130  140.7630 C   0  0  0  0  0  0  0  0  0  0  0  0
  190.7660  169.9540  141.6310 N   0  0  0  0  0  2  0  0  0  0  0  0
  192.8350  170.8050  140.3680 C   0  0  0  0  0  2  0  0  0  0  0  0
  192.4290  171.6160  139.1220 C   0  0  0  0  0  0  0  0  0  0  0  0
  191.0270  171.2100  138.6780 C   0  0  0  0  0  1  0  0  0  0  0  0
  193.3890  171.1940  138.0170 C   0  0  0  0  0  1  0  0  0  0  0  0
  193.1660  173.7570  138.2560 O   0  0  0  0  0  1  0  0  0  0  0  0
  192.5190  173.1570  139.3470 C   0  0  0  0  0  0  0  0  0  0  0  0
  191.2280  173.6860  139.4380 O   0  0  0  0  0  1  0  0  0  0  0  0
  193.7420  174.9120  140.7640 C   0  0  0  0  0  2  0  0  0  0  0  0
  192.5020  174.4900  141.5220 C   0  0  0  0  0  2  0  0  0  0  0  0
  193.2530  173.4780  140.6810 C   0  0  0  0  0  3  0  0  0  0  0  0
  186.7630  178.6160  142.8880 C   0  0  0  0  0  2  0  0  0  0  0  0
  187.2840  178.1890  147.3950 O   0  0  0  0  0  0  0  0  0  0  0  0
  189.3520  178.0020  144.2000 C   0  0  0  0  0  3  0  0  0  0  0  0
  190.5270  177.5830  144.6850 C   0  0  0  0  0  0  0  0  0  0  0  0
  187.4430  175.8460  146.6320 O   0  0  0  0  0  0  0  0  0  0  0  0
  188.0480  177.2200  146.5310 S   0  0  0  0  0  0  0  0  0  0  0  0
  189.7440  177.1820  147.0530 C   0  0  0  0  0  2  0  0  0  0  0  0
  186.8950  178.0690  144.2800 C   0  0  0  0  0  3  0  0  0  0  0  0
  190.6140  176.6840  145.9040 C   0  0  2  0  0  3  0  0  0  0  0  0
  191.9660  178.0060  143.7750 Cl  0  0  0  0  0  0  0  0  0  0  0  0
  188.0540  177.7660  144.8660 C   0  0  0  0  0  0  0  0  0  0  0  0
  191.9850  176.5470  146.3670 N   0  0  0  0  0  2  0  0  0  0  0  0
  194.6510  175.7750  146.5770 O   0  0  0  0  0  0  0  0  0  0  0  0
  193.8950  175.0720  145.8490 C   0  0  0  0  0  0  0  0  0  0  0  0
  192.5110  175.4130  145.7340 N   0  0  0  0  0  2  0  0  0  0  0  0
  194.5750  171.4410  145.0660 C   0  0  0  0  0  0  0  0  0  0  0  0
  195.8360  170.2850  143.2390 C   0  0  0  0  0  1  0  0  0  0  0  0
  194.2460  170.2360  145.5900 F   0  0  0  0  0  0  0  0  0  0  0  0
  195.6910  172.7830  143.3860 C   0  0  0  0  0  0  0  0  0  0  0  0
  194.1210  172.6050  145.6890 C   0  0  0  0  0  3  0  0  0  0  0  0
  195.2270  173.9510  144.0030 C   0  0  0  0  0  0  0  0  0  0  0  0
  195.5670  175.1520  143.4660 F   0  0  0  0  0  0  0  0  0  0  0  0
  195.3610  171.5260  143.9140 C   0  0  0  0  0  0  0  0  0  0  0  0
  196.4600  172.8780  142.2730 F   0  0  0  0  0  0  0  0  0  0  0  0
  194.4320  173.8690  145.1690 C   0  0  0  0  0  0  0  0  0  0  0  0
  1 36  1  0  0  0  0
  2  1  2  0  0  0  0
  3  4  1  0  0  0  0
  3  1  1  0  0  0  0
  4  9  1  0  0  0  0
  6  7  1  0  0  0  0
  6  4  2  0  0  0  0
  7  8  2  0  0  0  0
  8 12  1  0  0  0  0
  8  5  1  0  0  0  0
  9  5  2  0  0  0  0
 11 12  1  0  0  0  0
 11 10  1  0  0  0  0
 12 10  1  0  0  0  0
 13 15  1  0  0  0  0
 13  2  1  0  0  0  0
 14 13  2  0  0  0  0
 15 16  1  0  0  0  0
 16 19  1  0  0  0  0
 17 21  1  0  0  0  0
 18 20  2  0  0  0  0
 18 19  1  0  0  0  0
 19 17  2  0  0  0  0
 20 22  1  0  0  0  0
 22 21  2  0  0  0  0
 23 24  2  0  0  0  0
 24 25  1  0  0  0  0
 25 20  1  0  0  0  0
 26 24  1  0  0  0  0
 27 31  1  0  0  0  0
 27 26  1  0  0  0  0
 28 27  1  0  0  0  0
 29 27  1  0  0  0  0
 30 31  1  0  0  0  0
 31 32  1  0  0  0  0
 31 35  1  0  0  0  0
 33 34  1  0  0  0  0
 35 33  1  0  0  0  0
 35 34  1  0  0  0  0
 36 43  1  0  0  0  0
 38 39  2  0  0  0  0
 38 46  1  0  0  0  0
 39 44  1  0  0  0  0
 41 40  2  0  0  0  0
 41 42  1  0  0  0  0
 41 37  2  0  0  0  0
 43 46  2  0  0  0  0
 44 47  1  1  0  0  0
 44 42  1  0  0  0  0
 45 39  1  0  0  0  0
 46 41  1  0  0  0  0
 49 48  2  0  0  0  0
 50 49  1  0  0  0  0
 50 47  1  0  0  0  0
 51 53  1  0  0  0  0
 51 55  1  0  0  0  0
 52 58  1  0  0  0  0
 54 58  1  0  0  0  0
 54 56  2  0  0  0  0
 56 60  1  0  0  0  0
 57 56  1  0  0  0  0
 58 51  2  0  0  0  0
 59 54  1  0  0  0  0
 60 55  2  0  0  0  0
 60 49  1  0  0  0  0
M  END
>  <MODEL>
1

>  <REMARK>
 VINA RESULT:      -7.2      0.000      0.000
  Name = 
  15 active torsions:
  status: ('A' for Active; 'I' for Inactive)
    1  A    between atoms: C_2  and  C_14
    2  A    between atoms: C_2  and  C_54
    3  A    between atoms: C_7  and  C_13
    4  A    between atoms: C_8  and  N_32
    5  A    between atoms: C_13  and  C_36
    6  A    between atoms: C_14  and  C_15
    7  A    between atoms: C_18  and  N_45
    8  A    between atoms: C_21  and  N_51
    9  A    between atoms: C_29  and  C_57
   10  A    between atoms: C_31  and  C_50
   11  A    between atoms: N_34  and  C_35
   12  A    between atoms: N_38  and  N_44
   13  A    between atoms: N_38  and  C_47
   14  A    between atoms: N_45  and  N_53
   15  A    between atoms: C_54  and  C_59
                            x       y       z     vdW  Elec       q    Type
                         _______ _______ _______ _____ _____    ______ ____

>  <TORSDO>
F 15

$$$$
=
 OpenBabel11042418493D

 60 65  0  0  1  0  0  0  0  0999 V2000
  195.3960  173.7280  140.9530 C   0  0  0  0  0  0  0  0  0  0  0  0
  195.5580  172.8550  141.9050 N   0  0  0  0  0  0  0  0  0  0  0  0
  195.9680  173.5120  139.6530 N   0  0  0  0  0  2  0  0  0  0  0  0
  195.6620  174.2300  138.4520 C   0  0  0  0  0  0  0  0  0  0  0  0
  196.2980  175.6760  136.6050 C   0  0  0  0  0  3  0  0  0  0  0  0
  194.3440  174.2280  137.9840 C   0  0  0  0  0  3  0  0  0  0  0  0
  194.0050  174.9290  136.8220 C   0  0  0  0  0  3  0  0  0  0  0  0
  194.9840  175.6400  136.1150 C   0  0  0  0  0  0  0  0  0  0  0  0
  196.6340  174.9710  137.7620 C   0  0  0  0  0  3  0  0  0  0  0  0
  195.3250  177.7530  134.8810 C   0  0  0  0  0  2  0  0  0  0  0  0
  193.8640  177.6950  135.2600 C   0  0  0  0  0  2  0  0  0  0  0  0
  194.6000  176.4170  134.8910 C   0  0  0  0  0  3  0  0  0  0  0  0
  196.2150  171.5800  141.8140 C   0  0  0  0  0  0  0  0  0  0  0  0
  197.4180  171.4910  141.4580 O   0  0  0  0  0  0  0  0  0  0  0  0
  195.4820  170.3940  142.1060 N   0  0  0  0  0  2  0  0  0  0  0  0
  194.1600  170.4690  142.5620 N   0  0  0  0  0  2  0  0  0  0  0  0
  191.9950  169.3730  142.3500 C   0  0  0  0  0  3  0  0  0  0  0  0
  193.0200  170.3470  140.3840 C   0  0  0  0  0  3  0  0  0  0  0  0
  193.0590  170.0570  141.7560 C   0  0  0  0  0  0  0  0  0  0  0  0
  191.9240  169.9540  139.6060 C   0  0  0  0  0  0  0  0  0  0  0  0
  190.8960  168.9820  141.5830 C   0  0  0  0  0  3  0  0  0  0  0  0
  190.8580  169.2770  140.2180 C   0  0  0  0  0  3  0  0  0  0  0  0
  192.0550  171.7700  136.4240 O   0  0  0  0  0  0  0  0  0  0  0  0
  191.7740  171.6050  137.6400 C   0  0  0  0  0  0  0  0  0  0  0  0
  191.9060  170.2970  138.2120 N   0  0  0  0  0  2  0  0  0  0  0  0
  191.3040  172.7830  138.4460 C   0  0  0  0  0  2  0  0  0  0  0  0
  189.7860  173.0470  138.4060 C   0  0  0  0  0  0  0  0  0  0  0  0
  189.0520  171.7700  138.0080 C   0  0  0  0  0  1  0  0  0  0  0  0
  189.5660  174.0570  137.2870 C   0  0  0  0  0  1  0  0  0  0  0  0
  190.2860  174.1630  140.4990 O   0  0  0  0  0  1  0  0  0  0  0  0
  189.2340  173.6120  139.7510 C   0  0  0  0  0  0  0  0  0  0  0  0
  188.3090  174.6260  139.4810 O   0  0  0  0  0  1  0  0  0  0  0  0
  189.1330  172.2120  141.8990 C   0  0  0  0  0  2  0  0  0  0  0  0
  187.8640  173.0350  141.8240 C   0  0  0  0  0  2  0  0  0  0  0  0
  188.4950  172.5030  140.5530 C   0  0  0  0  0  3  0  0  0  0  0  0
  194.6870  175.0170  141.2690 C   0  0  0  0  0  2  0  0  0  0  0  0
  196.0320  175.3730  145.6090 O   0  0  0  0  0  0  0  0  0  0  0  0
  192.8430  174.8610  143.5870 C   0  0  0  0  0  3  0  0  0  0  0  0
  191.9190  174.9210  144.5550 C   0  0  0  0  0  0  0  0  0  0  0  0
  194.9160  177.5440  145.2330 O   0  0  0  0  0  0  0  0  0  0  0  0
  194.7360  176.0500  145.2440 S   0  0  0  0  0  0  0  0  0  0  0  0
  193.4860  175.5920  146.4190 C   0  0  0  0  0  2  0  0  0  0  0  0
  195.0110  175.5320  142.6410 C   0  0  0  0  0  3  0  0  0  0  0  0
  192.1100  175.7820  145.7890 C   0  0  2  0  0  3  0  0  0  0  0  0
  190.4110  174.0670  144.2770 Cl  0  0  0  0  0  0  0  0  0  0  0  0
  194.1770  175.4880  143.6820 C   0  0  0  0  0  0  0  0  0  0  0  0
  191.0880  175.5140  146.7870 N   0  0  0  0  0  2  0  0  0  0  0  0
  188.5130  174.8100  147.5770 O   0  0  0  0  0  0  0  0  0  0  0  0
  188.6350  175.7910  146.7920 C   0  0  0  0  0  0  0  0  0  0  0  0
  189.9400  176.2080  146.3820 N   0  0  0  0  0  2  0  0  0  0  0  0
  185.5080  177.9020  146.9500 C   0  0  0  0  0  0  0  0  0  0  0  0
  183.9710  178.8290  145.2050 C   0  0  0  0  0  1  0  0  0  0  0  0
  184.7630  178.4980  147.9120 F   0  0  0  0  0  0  0  0  0  0  0  0
  185.9480  177.4010  144.6210 C   0  0  0  0  0  0  0  0  0  0  0  0
  186.6310  177.1600  147.3180 C   0  0  0  0  0  3  0  0  0  0  0  0
  187.0810  176.6650  144.9870 C   0  0  0  0  0  0  0  0  0  0  0  0
  187.8170  176.0730  144.0120 F   0  0  0  0  0  0  0  0  0  0  0  0
  185.1630  178.0250  145.6020 C   0  0  0  0  0  0  0  0  0  0  0  0
  185.6170  177.5070  143.3100 F   0  0  0  0  0  0  0  0  0  0  0  0
  187.4330  176.5380  146.3500 C   0  0  0  0  0  0  0  0  0  0  0  0
  1 36  1  0  0  0  0
  1  2  2  0  0  0  0
  3  1  1  0  0  0  0
  4  3  1  0  0  0  0
  5  9  1  0  0  0  0
  6  4  1  0  0  0  0
  7  6  2  0  0  0  0
  8  5  2  0  0  0  0
  8  7  1  0  0  0  0
  9  4  2  0  0  0  0
 10 12  1  0  0  0  0
 10 11  1  0  0  0  0
 12 11  1  0  0  0  0
 12  8  1  0  0  0  0
 13  2  1  0  0  0  0
 13 15  1  0  0  0  0
 14 13  2  0  0  0  0
 15 16  1  0  0  0  0
 18 19  2  0  0  0  0
 19 17  1  0  0  0  0
 19 16  1  0  0  0  0
 20 22  2  0  0  0  0
 20 18  1  0  0  0  0
 21 17  2  0  0  0  0
 22 21  1  0  0  0  0
 23 24  2  0  0  0  0
 24 25  1  0  0  0  0
 24 26  1  0  0  0  0
 25 20  1  0  0  0  0
 27 26  1  0  0  0  0
 27 31  1  0  0  0  0
 28 27  1  0  0  0  0
 29 27  1  0  0  0  0
 31 30  1  0  0  0  0
 31 35  1  0  0  0  0
 32 31  1  0  0  0  0
 34 33  1  0  0  0  0
 35 34  1  0  0  0  0
 35 33  1  0  0  0  0
 36 43  1  0  0  0  0
 38 46  1  0  0  0  0
 38 39  2  0  0  0  0
 39 44  1  0  0  0  0
 40 41  2  0  0  0  0
 41 37  2  0  0  0  0
 41 42  1  0  0  0  0
 43 46  2  0  0  0  0
 44 42  1  0  0  0  0
 44 47  1  1  0  0  0
 45 39  1  0  0  0  0
 46 41  1  0  0  0  0
 49 48  2  0  0  0  0
 50 47  1  0  0  0  0
 50 49  1  0  0  0  0
 51 55  1  0  0  0  0
 51 53  1  0  0  0  0
 52 58  1  0  0  0  0
 54 56  2  0  0  0  0
 54 58  1  0  0  0  0
 56 60  1  0  0  0  0
 57 56  1  0  0  0  0
 58 51  2  0  0  0  0
 59 54  1  0  0  0  0
 60 49  1  0  0  0  0
 60 55  2  0  0  0  0
M  END
>  <MODEL>
2

>  <REMARK>
 VINA RESULT:      -7.0      3.869      8.798
  Name = 
  15 active torsions:
  status: ('A' for Active; 'I' for Inactive)
    1  A    between atoms: C_2  and  C_14
    2  A    between atoms: C_2  and  C_54
    3  A    between atoms: C_7  and  C_13
    4  A    between atoms: C_8  and  N_32
    5  A    between atoms: C_13  and  C_36
    6  A    between atoms: C_14  and  C_15
    7  A    between atoms: C_18  and  N_45
    8  A    between atoms: C_21  and  N_51
    9  A    between atoms: C_29  and  C_57
   10  A    between atoms: C_31  and  C_50
   11  A    between atoms: N_34  and  C_35
   12  A    between atoms: N_38  and  N_44
   13  A    between atoms: N_38  and  C_47
   14  A    between atoms: N_45  and  N_53
   15  A    between atoms: C_54  and  C_59
                            x       y       z     vdW  Elec       q    Type
                         _______ _______ _______ _____ _____    ______ ____

>  <TORSDO>
F 15

$$$$
=
 OpenBabel11042418493D

 60 65  0  0  1  0  0  0  0  0999 V2000
  195.7460  172.5430  142.3570 C   0  0  0  0  0  0  0  0  0  0  0  0
  195.6870  171.6240  143.2780 N   0  0  0  0  0  0  0  0  0  0  0  0
  196.9210  172.6940  141.5450 N   0  0  0  0  0  2  0  0  0  0  0  0
  197.0370  173.4610  140.3400 C   0  0  0  0  0  0  0  0  0  0  0  0
  196.6010  173.8040  137.9740 C   0  0  0  0  0  3  0  0  0  0  0  0
  197.7950  174.6360  140.3610 C   0  0  0  0  0  3  0  0  0  0  0  0
  197.9410  175.4040  139.2010 C   0  0  0  0  0  3  0  0  0  0  0  0
  197.3290  175.0020  138.0060 C   0  0  0  0  0  0  0  0  0  0  0  0
  196.4530  173.0430  139.1350 C   0  0  0  0  0  3  0  0  0  0  0  0
  196.4000  175.5290  135.7780 C   0  0  0  0  0  2  0  0  0  0  0  0
  197.7670  174.9240  135.5540 C   0  0  0  0  0  2  0  0  0  0  0  0
  197.5240  175.8160  136.7620 C   0  0  0  0  0  3  0  0  0  0  0  0
  196.6740  170.6190  143.5690 C   0  0  0  0  0  0  0  0  0  0  0  0
  197.6690  170.8750  144.2940 O   0  0  0  0  0  0  0  0  0  0  0  0
  196.5340  169.3200  143.0050 N   0  0  0  0  0  2  0  0  0  0  0  0
  195.4050  168.9910  142.2450 N   0  0  0  0  0  2  0  0  0  0  0  0
  196.6020  169.3590  140.1550 C   0  0  0  0  0  3  0  0  0  0  0  0
  194.2970  168.6210  140.0770 C   0  0  0  0  0  3  0  0  0  0  0  0
  195.4270  168.9960  140.8190 C   0  0  0  0  0  0  0  0  0  0  0  0
  194.3380  168.6100  138.6780 C   0  0  0  0  0  0  0  0  0  0  0  0
  196.6530  169.3460  138.7600 C   0  0  0  0  0  3  0  0  0  0  0  0
  195.5270  168.9670  138.0250 C   0  0  0  0  0  3  0  0  0  0  0  0
  191.4130  168.5000  136.4700 O   0  0  0  0  0  0  0  0  0  0  0  0
  192.2160  169.0250  137.2850 C   0  0  0  0  0  0  0  0  0  0  0  0
  193.1700  168.1910  137.9550 N   0  0  0  0  0  2  0  0  0  0  0  0
  192.1420  170.5060  137.5290 C   0  0  0  0  0  2  0  0  0  0  0  0
  191.0410  170.9590  138.5080 C   0  0  0  0  0  0  0  0  0  0  0  0
  190.2750  169.7420  139.0200 C   0  0  0  0  0  1  0  0  0  0  0  0
  190.0640  171.7880  137.6840 C   0  0  0  0  0  1  0  0  0  0  0  0
  191.3250  171.1590  140.9060 O   0  0  0  0  0  1  0  0  0  0  0  0
  191.5950  171.8090  139.6920 C   0  0  0  0  0  0  0  0  0  0  0  0
  192.9820  171.9340  139.5610 O   0  0  0  0  0  1  0  0  0  0  0  0
  190.0350  173.5030  140.8240 C   0  0  0  0  0  2  0  0  0  0  0  0
  191.4380  174.0710  140.8600 C   0  0  0  0  0  2  0  0  0  0  0  0
  190.9900  173.2420  139.6740 C   0  0  0  0  0  3  0  0  0  0  0  0
  194.6030  173.5120  142.2320 C   0  0  0  0  0  2  0  0  0  0  0  0
  194.9870  175.5170  146.3060 O   0  0  0  0  0  0  0  0  0  0  0  0
  192.4140  173.6210  144.2310 C   0  0  0  0  0  3  0  0  0  0  0  0
  191.3280  173.7430  145.0050 C   0  0  0  0  0  0  0  0  0  0  0  0
  193.5570  177.1120  145.0780 O   0  0  0  0  0  0  0  0  0  0  0  0
  193.6780  175.7000  145.5830 S   0  0  0  0  0  0  0  0  0  0  0  0
  192.3410  175.3280  146.6900 C   0  0  0  0  0  2  0  0  0  0  0  0
  194.5480  174.4900  143.3700 C   0  0  0  0  0  3  0  0  0  0  0  0
  191.1030  174.9610  145.8800 C   0  0  2  0  0  3  0  0  0  0  0  0
  190.1020  172.4950  144.8670 Cl  0  0  0  0  0  0  0  0  0  0  0  0
  193.5530  174.5610  144.2570 C   0  0  0  0  0  0  0  0  0  0  0  0
  189.9810  174.7670  146.7830 N   0  0  0  0  0  2  0  0  0  0  0  0
  189.1200  177.3400  147.4060 O   0  0  0  0  0  0  0  0  0  0  0  0
  188.4510  176.6910  146.5540 C   0  0  0  0  0  0  0  0  0  0  0  0
  188.8710  175.3750  146.1810 N   0  0  0  0  0  2  0  0  0  0  0  0
  186.2580  178.2170  143.8860 C   0  0  0  0  0  0  0  0  0  0  0  0
  183.8950  179.0420  143.8690 C   0  0  0  0  0  1  0  0  0  0  0  0
  186.3660  178.5230  142.5710 F   0  0  0  0  0  0  0  0  0  0  0  0
  184.9770  178.1310  145.9390 C   0  0  0  0  0  0  0  0  0  0  0  0
  187.3510  177.6560  144.5490 C   0  0  0  0  0  3  0  0  0  0  0  0
  186.0680  177.5590  146.6040 C   0  0  0  0  0  0  0  0  0  0  0  0
  185.9440  177.2590  147.9230 F   0  0  0  0  0  0  0  0  0  0  0  0
  185.0680  178.4560  144.5780 C   0  0  0  0  0  0  0  0  0  0  0  0
  183.8290  178.3670  146.6240 F   0  0  0  0  0  0  0  0  0  0  0  0
  187.2730  177.3160  145.9070 C   0  0  0  0  0  0  0  0  0  0  0  0
  1  2  2  0  0  0  0
  2 13  1  0  0  0  0
  3  1  1  0  0  0  0
  4  6  1  0  0  0  0
  4  3  1  0  0  0  0
  5  8  2  0  0  0  0
  5  9  1  0  0  0  0
  7  6  2  0  0  0  0
  8  7  1  0  0  0  0
  9  4  2  0  0  0  0
 10 12  1  0  0  0  0
 11 10  1  0  0  0  0
 11 12  1  0  0  0  0
 12  8  1  0  0  0  0
 13 14  2  0  0  0  0
 15 13  1  0  0  0  0
 16 15  1  0  0  0  0
 17 19  1  0  0  0  0
 18 19  2  0  0  0  0
 19 16  1  0  0  0  0
 20 18  1  0  0  0  0
 21 17  2  0  0  0  0
 22 20  2  0  0  0  0
 22 21  1  0  0  0  0
 23 24  2  0  0  0  0
 24 26  1  0  0  0  0
 24 25  1  0  0  0  0
 25 20  1  0  0  0  0
 26 27  1  0  0  0  0
 27 28  1  0  0  0  0
 27 31  1  0  0  0  0
 29 27  1  0  0  0  0
 31 30  1  0  0  0  0
 32 31  1  0  0  0  0
 33 34  1  0  0  0  0
 35 31  1  0  0  0  0
 35 33  1  0  0  0  0
 35 34  1  0  0  0  0
 36  1  1  0  0  0  0
 36 43  1  0  0  0  0
 38 46  1  0  0  0  0
 38 39  2  0  0  0  0
 39 44  1  0  0  0  0
 40 41  2  0  0  0  0
 41 37  2  0  0  0  0
 41 42  1  0  0  0  0
 43 46  2  0  0  0  0
 44 42  1  0  0  0  0
 44 47  1  1  0  0  0
 45 39  1  0  0  0  0
 46 41  1  0  0  0  0
 49 48  2  0  0  0  0
 50 49  1  0  0  0  0
 50 47  1  0  0  0  0
 51 55  2  0  0  0  0
 51 58  1  0  0  0  0
 52 58  1  0  0  0  0
 53 51  1  0  0  0  0
 54 56  1  0  0  0  0
 54 59  1  0  0  0  0
 55 60  1  0  0  0  0
 56 57  1  0  0  0  0
 58 54  2  0  0  0  0
 60 49  1  0  0  0  0
 60 56  2  0  0  0  0
M  END
>  <MODEL>
3

>  <REMARK>
 VINA RESULT:      -6.8      4.118      9.670
  Name = 
  15 active torsions:
  status: ('A' for Active; 'I' for Inactive)
    1  A    between atoms: C_2  and  C_14
    2  A    between atoms: C_2  and  C_54
    3  A    between atoms: C_7  and  C_13
    4  A    between atoms: C_8  and  N_32
    5  A    between atoms: C_13  and  C_36
    6  A    between atoms: C_14  and  C_15
    7  A    between atoms: C_18  and  N_45
    8  A    between atoms: C_21  and  N_51
    9  A    between atoms: C_29  and  C_57
   10  A    between atoms: C_31  and  C_50
   11  A    between atoms: N_34  and  C_35
   12  A    between atoms: N_38  and  N_44
   13  A    between atoms: N_38  and  C_47
   14  A    between atoms: N_45  and  N_53
   15  A    between atoms: C_54  and  C_59
                            x       y       z     vdW  Elec       q    Type
                         _______ _______ _______ _____ _____    ______ ____

>  <TORSDO>
F 15

$$$$
=
 OpenBabel11042418493D

 60 65  0  0  1  0  0  0  0  0999 V2000
  186.3180  178.0670  143.9240 C   0  0  0  0  0  0  0  0  0  0  0  0
  187.1660  178.0080  144.9100 N   0  0  0  0  0  0  0  0  0  0  0  0
  184.9040  177.9880  144.1660 N   0  0  0  0  0  2  0  0  0  0  0  0
  183.8570  178.3000  143.2380 C   0  0  0  0  0  0  0  0  0  0  0  0
  182.9060  178.2770  141.0030 C   0  0  0  0  0  3  0  0  0  0  0  0
  182.7510  179.0260  143.6910 C   0  0  0  0  0  3  0  0  0  0  0  0
  181.7160  179.3590  142.8120 C   0  0  0  0  0  3  0  0  0  0  0  0
  181.7790  178.9700  141.4670 C   0  0  0  0  0  0  0  0  0  0  0  0
  183.9350  177.9410  141.8840 C   0  0  0  0  0  3  0  0  0  0  0  0
  179.3440  179.3350  141.2540 C   0  0  0  0  0  2  0  0  0  0  0  0
  179.7070  178.2180  140.3040 C   0  0  0  0  0  2  0  0  0  0  0  0
  180.6790  179.3660  140.5270 C   0  0  0  0  0  3  0  0  0  0  0  0
  186.8660  177.9430  146.3140 C   0  0  0  0  0  0  0  0  0  0  0  0
  186.3160  178.9050  146.9080 O   0  0  0  0  0  0  0  0  0  0  0  0
  187.2210  176.7770  147.0510 N   0  0  0  0  0  2  0  0  0  0  0  0
  187.7780  175.6680  146.4020 N   0  0  0  0  0  2  0  0  0  0  0  0
  190.0280  176.2720  147.1160 C   0  0  0  0  0  3  0  0  0  0  0  0
  189.7280  174.3620  145.6570 C   0  0  0  0  0  3  0  0  0  0  0  0
  189.1850  175.4330  146.3820 C   0  0  0  0  0  0  0  0  0  0  0  0
  191.1090  174.1300  145.6620 C   0  0  0  0  0  0  0  0  0  0  0  0
  191.4050  176.0440  147.1300 C   0  0  0  0  0  3  0  0  0  0  0  0
  191.9430  174.9740  146.4110 C   0  0  0  0  0  3  0  0  0  0  0  0
  193.1550  171.3110  144.5200 O   0  0  0  0  0  0  0  0  0  0  0  0
  192.9450  172.4530  145.0050 C   0  0  0  0  0  0  0  0  0  0  0  0
  191.6230  173.0060  144.9320 N   0  0  0  0  0  2  0  0  0  0  0  0
  194.0860  173.1980  145.6370 C   0  0  0  0  0  2  0  0  0  0  0  0
  195.4380  173.0780  144.9060 C   0  0  0  0  0  0  0  0  0  0  0  0
  195.2130  172.5560  143.4900 C   0  0  0  0  0  1  0  0  0  0  0  0
  196.2260  172.0120  145.6560 C   0  0  0  0  0  1  0  0  0  0  0  0
  195.6920  175.3060  145.8270 O   0  0  0  0  0  1  0  0  0  0  0  0
  196.2360  174.4180  144.8860 C   0  0  0  0  0  0  0  0  0  0  0  0
  197.5670  174.1670  145.2380 O   0  0  0  0  0  1  0  0  0  0  0  0
  195.5900  176.4110  143.4050 C   0  0  0  0  0  2  0  0  0  0  0  0
  197.0980  176.2820  143.3730 C   0  0  0  0  0  2  0  0  0  0  0  0
  196.2360  175.0390  143.4600 C   0  0  0  0  0  3  0  0  0  0  0  0
  186.8490  178.1130  142.5170 C   0  0  0  0  0  2  0  0  0  0  0  0
  187.4690  173.6230  142.0410 O   0  0  0  0  0  0  0  0  0  0  0  0
  189.4910  176.7800  142.7190 C   0  0  0  0  0  3  0  0  0  0  0  0
  190.7380  176.2920  142.6860 C   0  0  0  0  0  0  0  0  0  0  0  0
  188.3940  174.5000  139.9260 O   0  0  0  0  0  0  0  0  0  0  0  0
  188.5120  174.5190  141.4260 S   0  0  0  0  0  0  0  0  0  0  0  0
  190.1240  173.9640  141.9210 C   0  0  0  0  0  2  0  0  0  0  0  0
  187.1490  176.7480  141.9690 C   0  0  0  0  0  3  0  0  0  0  0  0
  191.1130  175.1190  141.8010 C   0  0  2  0  0  3  0  0  0  0  0  0
  191.9590  177.1510  143.6080 Cl  0  0  0  0  0  0  0  0  0  0  0  0
  188.3430  176.1530  142.0340 C   0  0  0  0  0  0  0  0  0  0  0  0
  192.4510  174.6350  142.0980 N   0  0  0  0  0  2  0  0  0  0  0  0
  193.2170  172.9100  140.0520 O   0  0  0  0  0  0  0  0  0  0  0  0
  193.6550  174.0940  140.0120 C   0  0  0  0  0  0  0  0  0  0  0  0
  193.2660  175.0240  141.0260 N   0  0  0  0  0  2  0  0  0  0  0  0
  194.7290  175.0300  136.5160 C   0  0  0  0  0  0  0  0  0  0  0  0
  196.8810  175.8620  135.5450 C   0  0  0  0  0  1  0  0  0  0  0  0
  194.1590  175.0980  135.2890 F   0  0  0  0  0  0  0  0  0  0  0  0
  196.6400  175.3100  137.9780 C   0  0  0  0  0  0  0  0  0  0  0  0
  193.9660  174.5980  137.6020 C   0  0  0  0  0  3  0  0  0  0  0  0
  195.8730  174.8870  139.0700 C   0  0  0  0  0  0  0  0  0  0  0  0
  196.4600  174.8230  140.2940 F   0  0  0  0  0  0  0  0  0  0  0  0
  196.0680  175.3870  136.7000 C   0  0  0  0  0  0  0  0  0  0  0  0
  197.9410  175.6460  138.1680 F   0  0  0  0  0  0  0  0  0  0  0  0
  194.5190  174.5250  138.8880 C   0  0  0  0  0  0  0  0  0  0  0  0
  1  3  1  0  0  0  0
  1  2  2  0  0  0  0
  2 13  1  0  0  0  0
  4  6  1  0  0  0  0
  4  3  1  0  0  0  0
  5  8  2  0  0  0  0
  5  9  1  0  0  0  0
  7  6  2  0  0  0  0
  8  7  1  0  0  0  0
  9  4  2  0  0  0  0
 11 12  1  0  0  0  0
 11 10  1  0  0  0  0
 12 10  1  0  0  0  0
 12  8  1  0  0  0  0
 13 14  2  0  0  0  0
 13 15  1  0  0  0  0
 16 15  1  0  0  0  0
 17 21  1  0  0  0  0
 18 20  2  0  0  0  0
 18 19  1  0  0  0  0
 19 16  1  0  0  0  0
 19 17  2  0  0  0  0
 20 22  1  0  0  0  0
 22 21  2  0  0  0  0
 23 24  2  0  0  0  0
 24 26  1  0  0  0  0
 25 24  1  0  0  0  0
 25 20  1  0  0  0  0
 27 26  1  0  0  0  0
 27 29  1  0  0  0  0
 28 27  1  0  0  0  0
 31 27  1  0  0  0  0
 31 32  1  0  0  0  0
 31 30  1  0  0  0  0
 33 35  1  0  0  0  0
 34 33  1  0  0  0  0
 34 35  1  0  0  0  0
 35 31  1  0  0  0  0
 36  1  1  0  0  0  0
 39 38  2  0  0  0  0
 39 45  1  0  0  0  0
 40 41  2  0  0  0  0
 41 42  1  0  0  0  0
 41 46  1  0  0  0  0
 41 37  2  0  0  0  0
 43 46  2  0  0  0  0
 43 36  1  0  0  0  0
 44 42  1  0  0  0  0
 44 47  1  1  0  0  0
 44 39  1  0  0  0  0
 46 38  1  0  0  0  0
 49 48  2  0  0  0  0
 49 50  1  0  0  0  0
 50 47  1  0  0  0  0
 51 58  2  0  0  0  0
 51 55  1  0  0  0  0
 52 58  1  0  0  0  0
 53 51  1  0  0  0  0
 54 59  1  0  0  0  0
 54 56  2  0  0  0  0
 55 60  2  0  0  0  0
 56 57  1  0  0  0  0
 58 54  1  0  0  0  0
 60 56  1  0  0  0  0
 60 49  1  0  0  0  0
M  END
>  <MODEL>
4

>  <REMARK>
 VINA RESULT:      -6.7      2.847      5.451
  Name = 
  15 active torsions:
  status: ('A' for Active; 'I' for Inactive)
    1  A    between atoms: C_2  and  C_14
    2  A    between atoms: C_2  and  C_54
    3  A    between atoms: C_7  and  C_13
    4  A    between atoms: C_8  and  N_32
    5  A    between atoms: C_13  and  C_36
    6  A    between atoms: C_14  and  C_15
    7  A    between atoms: C_18  and  N_45
    8  A    between atoms: C_21  and  N_51
    9  A    between atoms: C_29  and  C_57
   10  A    between atoms: C_31  and  C_50
   11  A    between atoms: N_34  and  C_35
   12  A    between atoms: N_38  and  N_44
   13  A    between atoms: N_38  and  C_47
   14  A    between atoms: N_45  and  N_53
   15  A    between atoms: C_54  and  C_59
                            x       y       z     vdW  Elec       q    Type
                         _______ _______ _______ _____ _____    ______ ____

>  <TORSDO>
F 15

$$$$
=
 OpenBabel11042418493D

 60 65  0  0  1  0  0  0  0  0999 V2000
  195.6160  172.7750  141.1190 C   0  0  0  0  0  0  0  0  0  0  0  0
  195.6630  171.8820  142.0670 N   0  0  0  0  0  0  0  0  0  0  0  0
  196.3940  172.6170  139.9230 N   0  0  0  0  0  2  0  0  0  0  0  0
  196.2510  173.3560  138.7030 C   0  0  0  0  0  0  0  0  0  0  0  0
  195.2980  173.6590  136.4880 C   0  0  0  0  0  3  0  0  0  0  0  0
  197.0180  174.5100  138.5210 C   0  0  0  0  0  3  0  0  0  0  0  0
  196.9140  175.2500  137.3380 C   0  0  0  0  0  3  0  0  0  0  0  0
  196.0380  174.8390  136.3240 C   0  0  0  0  0  0  0  0  0  0  0  0
  195.4010  172.9270  137.6730 C   0  0  0  0  0  3  0  0  0  0  0  0
  196.5760  176.9970  135.2480 C   0  0  0  0  0  2  0  0  0  0  0  0
  195.0740  176.8440  135.2010 C   0  0  0  0  0  2  0  0  0  0  0  0
  195.9640  175.6200  135.0460 C   0  0  0  0  0  3  0  0  0  0  0  0
  196.3810  170.6370  142.0540 C   0  0  0  0  0  0  0  0  0  0  0  0
  197.5670  170.5730  141.6440 O   0  0  0  0  0  0  0  0  0  0  0  0
  195.7260  169.4500  142.4890 N   0  0  0  0  0  2  0  0  0  0  0  0
  194.4260  169.5030  143.0070 N   0  0  0  0  0  2  0  0  0  0  0  0
  193.2470  168.7890  140.9990 C   0  0  0  0  0  3  0  0  0  0  0  0
  192.1770  170.3630  142.4950 C   0  0  0  0  0  3  0  0  0  0  0  0
  193.2790  169.5610  142.1630 C   0  0  0  0  0  0  0  0  0  0  0  0
  191.0480  170.3970  141.6680 C   0  0  0  0  0  0  0  0  0  0  0  0
  192.1230  168.8120  140.1710 C   0  0  0  0  0  3  0  0  0  0  0  0
  191.0260  169.6080  140.5070 C   0  0  0  0  0  3  0  0  0  0  0  0
  188.2880  172.8100  141.7020 O   0  0  0  0  0  0  0  0  0  0  0  0
  189.4320  172.3800  141.4000 C   0  0  0  0  0  0  0  0  0  0  0  0
  189.9280  171.2060  142.0580 N   0  0  0  0  0  2  0  0  0  0  0  0
  190.2390  173.1150  140.3690 C   0  0  0  0  0  2  0  0  0  0  0  0
  189.6650  173.0890  138.9390 C   0  0  0  0  0  0  0  0  0  0  0  0
  188.6150  174.1860  138.7860 C   0  0  0  0  0  1  0  0  0  0  0  0
  188.9410  171.7550  138.8030 C   0  0  0  0  0  1  0  0  0  0  0  0
  190.4070  174.2120  136.9230 O   0  0  0  0  0  1  0  0  0  0  0  0
  190.7660  173.2130  137.8410 C   0  0  0  0  0  0  0  0  0  0  0  0
  191.9750  173.5800  138.4400 O   0  0  0  0  0  1  0  0  0  0  0  0
  190.7310  171.9040  135.6350 C   0  0  0  0  0  2  0  0  0  0  0  0
  192.1520  171.8910  136.1560 C   0  0  0  0  0  2  0  0  0  0  0  0
  190.9910  171.8480  137.1280 C   0  0  0  0  0  3  0  0  0  0  0  0
  194.8110  174.0250  141.3460 C   0  0  0  0  0  2  0  0  0  0  0  0
  196.1920  174.9150  145.5970 O   0  0  0  0  0  0  0  0  0  0  0  0
  192.9780  174.2260  143.6700 C   0  0  0  0  0  3  0  0  0  0  0  0
  192.0630  174.4380  144.6230 C   0  0  0  0  0  0  0  0  0  0  0  0
  195.1320  177.0460  144.9410 O   0  0  0  0  0  0  0  0  0  0  0  0
  194.9130  175.5720  145.1500 S   0  0  0  0  0  0  0  0  0  0  0  0
  193.6590  175.3070  146.3780 C   0  0  0  0  0  2  0  0  0  0  0  0
  195.1580  174.7080  142.6370 C   0  0  0  0  0  3  0  0  0  0  0  0
  192.2840  175.4480  145.7330 C   0  0  2  0  0  3  0  0  0  0  0  0
  190.5310  173.5960  144.4650 Cl  0  0  0  0  0  0  0  0  0  0  0  0
  194.3290  174.8240  143.6770 C   0  0  0  0  0  0  0  0  0  0  0  0
  191.2610  175.3420  146.7610 N   0  0  0  0  0  2  0  0  0  0  0  0
  188.6230  174.8230  147.4800 O   0  0  0  0  0  0  0  0  0  0  0  0
  188.8350  175.7950  146.7040 C   0  0  0  0  0  0  0  0  0  0  0  0
  190.1780  176.1190  146.3290 N   0  0  0  0  0  2  0  0  0  0  0  0
  186.0310  178.3230  146.7440 C   0  0  0  0  0  0  0  0  0  0  0  0
  184.4680  179.1830  144.9880 C   0  0  0  0  0  1  0  0  0  0  0  0
  185.4600  179.1550  147.6480 F   0  0  0  0  0  0  0  0  0  0  0  0
  186.1840  177.4210  144.5010 C   0  0  0  0  0  0  0  0  0  0  0  0
  187.0800  177.4950  147.1450 C   0  0  0  0  0  3  0  0  0  0  0  0
  187.2430  176.5970  144.8990 C   0  0  0  0  0  0  0  0  0  0  0  0
  187.8040  175.7670  143.9810 F   0  0  0  0  0  0  0  0  0  0  0  0
  185.5790  178.2890  145.4220 C   0  0  0  0  0  0  0  0  0  0  0  0
  185.7480  177.3730  143.2170 F   0  0  0  0  0  0  0  0  0  0  0  0
  187.7030  176.6280  146.2350 C   0  0  0  0  0  0  0  0  0  0  0  0
  1 36  1  0  0  0  0
  1  2  2  0  0  0  0
  3  1  1  0  0  0  0
  4  3  1  0  0  0  0
  5  9  1  0  0  0  0
  6  4  1  0  0  0  0
  7  6  2  0  0  0  0
  8  5  2  0  0  0  0
  8  7  1  0  0  0  0
  9  4  2  0  0  0  0
 11 10  1  0  0  0  0
 12 11  1  0  0  0  0
 12 10  1  0  0  0  0
 12  8  1  0  0  0  0
 13  2  1  0  0  0  0
 13 15  1  0  0  0  0
 14 13  2  0  0  0  0
 15 16  1  0  0  0  0
 17 19  1  0  0  0  0
 19 18  2  0  0  0  0
 19 16  1  0  0  0  0
 20 25  1  0  0  0  0
 20 18  1  0  0  0  0
 21 22  1  0  0  0  0
 21 17  2  0  0  0  0
 22 20  2  0  0  0  0
 24 23  2  0  0  0  0
 24 25  1  0  0  0  0
 26 24  1  0  0  0  0
 27 26  1  0  0  0  0
 28 27  1  0  0  0  0
 29 27  1  0  0  0  0
 30 31  1  0  0  0  0
 31 32  1  0  0  0  0
 31 27  1  0  0  0  0
 33 34  1  0  0  0  0
 33 35  1  0  0  0  0
 34 35  1  0  0  0  0
 35 31  1  0  0  0  0
 36 43  1  0  0  0  0
 38 46  1  0  0  0  0
 38 39  2  0  0  0  0
 39 44  1  0  0  0  0
 40 41  2  0  0  0  0
 41 37  2  0  0  0  0
 41 42  1  0  0  0  0
 43 46  2  0  0  0  0
 44 42  1  0  0  0  0
 44 47  1  1  0  0  0
 45 39  1  0  0  0  0
 46 41  1  0  0  0  0
 49 48  2  0  0  0  0
 50 49  1  0  0  0  0
 50 47  1  0  0  0  0
 51 55  1  0  0  0  0
 51 53  1  0  0  0  0
 52 58  1  0  0  0  0
 54 56  2  0  0  0  0
 54 58  1  0  0  0  0
 56 60  1  0  0  0  0
 57 56  1  0  0  0  0
 58 51  2  0  0  0  0
 59 54  1  0  0  0  0
 60 49  1  0  0  0  0
 60 55  2  0  0  0  0
M  END
>  <MODEL>
5

>  <REMARK>
 VINA RESULT:      -6.7      3.840      9.182
  Name = 
  15 active torsions:
  status: ('A' for Active; 'I' for Inactive)
    1  A    between atoms: C_2  and  C_14
    2  A    between atoms: C_2  and  C_54
    3  A    between atoms: C_7  and  C_13
    4  A    between atoms: C_8  and  N_32
    5  A    between atoms: C_13  and  C_36
    6  A    between atoms: C_14  and  C_15
    7  A    between atoms: C_18  and  N_45
    8  A    between atoms: C_21  and  N_51
    9  A    between atoms: C_29  and  C_57
   10  A    between atoms: C_31  and  C_50
   11  A    between atoms: N_34  and  C_35
   12  A    between atoms: N_38  and  N_44
   13  A    between atoms: N_38  and  C_47
   14  A    between atoms: N_45  and  N_53
   15  A    between atoms: C_54  and  C_59
                            x       y       z     vdW  Elec       q    Type
                         _______ _______ _______ _____ _____    ______ ____

>  <TORSDO>
F 15

$$$$
=
 OpenBabel11042418493D

 60 65  0  0  1  0  0  0  0  0999 V2000
  186.0190  177.9710  141.7110 C   0  0  0  0  0  0  0  0  0  0  0  0
  187.1570  177.3720  141.5020 N   0  0  0  0  0  0  0  0  0  0  0  0
  184.8750  177.6790  140.8940 N   0  0  0  0  0  2  0  0  0  0  0  0
  183.5150  178.0450  141.1610 C   0  0  0  0  0  0  0  0  0  0  0  0
  181.1970  178.2990  140.4780 C   0  0  0  0  0  3  0  0  0  0  0  0
  183.1980  178.5910  142.4090 C   0  0  0  0  0  3  0  0  0  0  0  0
  181.8840  178.9720  142.7000 C   0  0  0  0  0  3  0  0  0  0  0  0
  180.8730  178.8100  141.7440 C   0  0  0  0  0  0  0  0  0  0  0  0
  182.5080  177.9150  140.1930 C   0  0  0  0  0  3  0  0  0  0  0  0
  179.1810  179.0290  143.5310 C   0  0  0  0  0  2  0  0  0  0  0  0
  178.6110  178.0860  142.4980 C   0  0  0  0  0  2  0  0  0  0  0  0
  179.4760  179.2560  142.0570 C   0  0  0  0  0  3  0  0  0  0  0  0
  187.4300  176.3330  140.5470 C   0  0  0  0  0  0  0  0  0  0  0  0
  187.0580  176.4330  139.3500 O   0  0  0  0  0  0  0  0  0  0  0  0
  188.1110  175.1570  140.9720 N   0  0  0  0  0  0  0  0  0  0  0  0
  188.5900  175.0460  142.2830 N   0  0  0  0  0  0  0  0  0  0  0  0
  189.5450  173.7490  144.1110 C   0  0  0  0  0  3  0  0  0  0  0  0
  189.5480  172.8140  141.8770 C   0  0  0  0  0  3  0  0  0  0  0  0
  189.2370  173.8650  142.7530 C   0  0  0  0  0  0  0  0  0  0  0  0
  190.1650  171.6520  142.3540 C   0  0  0  0  0  0  0  0  0  0  0  0
  190.1560  172.5910  144.5960 C   0  0  0  0  0  3  0  0  0  0  0  0
  190.4590  171.5440  143.7220 C   0  0  0  0  0  3  0  0  0  0  0  0
  191.5720  169.5960  139.6640 O   0  0  0  0  0  0  0  0  0  0  0  0
  191.1890  170.6630  140.2120 C   0  0  0  0  0  0  0  0  0  0  0  0
  190.4390  170.5860  141.4320 N   0  0  0  0  0  2  0  0  0  0  0  0
  191.5250  171.9760  139.5650 C   0  0  0  0  0  2  0  0  0  0  0  0
  190.7450  172.2960  138.2750 C   0  0  0  0  0  0  0  0  0  0  0  0
  190.3630  173.7730  138.2580 C   0  0  0  0  0  1  0  0  0  0  0  0
  189.4490  171.5000  138.3610 C   0  0  0  0  0  1  0  0  0  0  0  0
  191.5560  173.0000  136.1020 O   0  0  0  0  0  1  0  0  0  0  0  0
  191.5270  171.9070  136.9820 C   0  0  0  0  0  0  0  0  0  0  0  0
  192.8440  171.5790  137.3200 O   0  0  0  0  0  1  0  0  0  0  0  0
  190.4140  170.9210  134.8910 C   0  0  0  0  0  2  0  0  0  0  0  0
  191.7030  170.1630  135.1290 C   0  0  0  0  0  2  0  0  0  0  0  0
  190.8900  170.6580  136.3080 C   0  0  0  0  0  3  0  0  0  0  0  0
  185.9540  179.0510  142.7560 C   0  0  0  0  0  2  0  0  0  0  0  0
  186.2420  178.6200  147.2840 O   0  0  0  0  0  0  0  0  0  0  0  0
  188.4510  178.3400  144.1910 C   0  0  0  0  0  3  0  0  0  0  0  0
  189.5840  177.8780  144.7330 C   0  0  0  0  0  0  0  0  0  0  0  0
  186.3450  176.2710  146.5330 O   0  0  0  0  0  0  0  0  0  0  0  0
  187.0080  177.6190  146.4590 S   0  0  0  0  0  0  0  0  0  0  0  0
  188.6740  177.5170  147.0610 C   0  0  0  0  0  2  0  0  0  0  0  0
  185.9970  178.5050  144.1530 C   0  0  0  0  0  3  0  0  0  0  0  0
  189.5780  176.9800  145.9560 C   0  0  2  0  0  3  0  0  0  0  0  0
  191.0810  178.2410  143.8910 Cl  0  0  0  0  0  0  0  0  0  0  0  0
  187.1150  178.1590  144.7950 C   0  0  0  0  0  0  0  0  0  0  0  0
  190.9190  176.7920  146.4850 N   0  0  0  0  0  2  0  0  0  0  0  0
  193.6000  176.4370  145.8260 O   0  0  0  0  0  0  0  0  0  0  0  0
  192.8020  175.4970  145.5520 C   0  0  0  0  0  0  0  0  0  0  0  0
  191.4200  175.6220  145.8980 N   0  0  0  0  0  2  0  0  0  0  0  0
  194.2100  172.0080  145.2260 C   0  0  0  0  0  0  0  0  0  0  0  0
  194.7210  170.5390  143.2650 C   0  0  0  0  0  1  0  0  0  0  0  0
  194.6160  171.0220  146.0600 F   0  0  0  0  0  0  0  0  0  0  0  0
  193.8190  172.8620  142.9930 C   0  0  0  0  0  0  0  0  0  0  0  0
  193.7510  173.2130  145.7620 C   0  0  0  0  0  3  0  0  0  0  0  0
  193.3490  174.0660  143.5290 C   0  0  0  0  0  0  0  0  0  0  0  0
  192.9460  175.0460  142.6790 F   0  0  0  0  0  0  0  0  0  0  0  0
  194.2450  171.8290  143.8400 C   0  0  0  0  0  0  0  0  0  0  0  0
  193.8570  172.7020  141.6460 F   0  0  0  0  0  0  0  0  0  0  0  0
  193.3120  174.2520  144.9300 C   0  0  0  0  0  0  0  0  0  0  0  0
  1 36  1  0  0  0  0
  2  1  2  0  0  0  0
  3  4  1  0  0  0  0
  3  1  1  0  0  0  0
  4  6  1  0  0  0  0
  5  8  2  0  0  0  0
  6  7  2  0  0  0  0
  8 12  1  0  0  0  0
  8  7  1  0  0  0  0
  9  5  1  0  0  0  0
  9  4  2  0  0  0  0
 11 10  1  0  0  0  0
 12 11  1  0  0  0  0
 12 10  1  0  0  0  0
 13 15  1  0  0  0  0
 13  2  1  0  0  0  0
 14 13  2  0  0  0  0
 15 16  2  0  0  0  0
 16 19  1  0  0  0  0
 17 21  1  0  0  0  0
 18 20  2  0  0  0  0
 18 19  1  0  0  0  0
 19 17  2  0  0  0  0
 20 22  1  0  0  0  0
 22 21  2  0  0  0  0
 23 24  2  0  0  0  0
 24 25  1  0  0  0  0
 25 20  1  0  0  0  0
 26 24  1  0  0  0  0
 27 29  1  0  0  0  0
 27 26  1  0  0  0  0
 28 27  1  0  0  0  0
 30 31  1  0  0  0  0
 31 32  1  0  0  0  0
 31 27  1  0  0  0  0
 33 34  1  0  0  0  0
 33 35  1  0  0  0  0
 34 35  1  0  0  0  0
 35 31  1  0  0  0  0
 36 43  1  0  0  0  0
 38 39  2  0  0  0  0
 38 46  1  0  0  0  0
 39 44  1  0  0  0  0
 41 40  2  0  0  0  0
 41 42  1  0  0  0  0
 41 37  2  0  0  0  0
 43 46  2  0  0  0  0
 44 47  1  1  0  0  0
 44 42  1  0  0  0  0
 45 39  1  0  0  0  0
 46 41  1  0  0  0  0
 49 48  2  0  0  0  0
 49 50  1  0  0  0  0
 50 47  1  0  0  0  0
 51 55  1  0  0  0  0
 51 53  1  0  0  0  0
 52 58  1  0  0  0  0
 54 56  2  0  0  0  0
 54 58  1  0  0  0  0
 56 60  1  0  0  0  0
 57 56  1  0  0  0  0
 58 51  2  0  0  0  0
 59 54  1  0  0  0  0
 60 49  1  0  0  0  0
 60 55  2  0  0  0  0
M  END
>  <MODEL>
6

>  <REMARK>
 VINA RESULT:      -6.6      1.440      2.247
  Name = 
  15 active torsions:
  status: ('A' for Active; 'I' for Inactive)
    1  A    between atoms: C_2  and  C_14
    2  A    between atoms: C_2  and  C_54
    3  A    between atoms: C_7  and  C_13
    4  A    between atoms: C_8  and  N_32
    5  A    between atoms: C_13  and  C_36
    6  A    between atoms: C_14  and  C_15
    7  A    between atoms: C_18  and  N_45
    8  A    between atoms: C_21  and  N_51
    9  A    between atoms: C_29  and  C_57
   10  A    between atoms: C_31  and  C_50
   11  A    between atoms: N_34  and  C_35
   12  A    between atoms: N_38  and  N_44
   13  A    between atoms: N_38  and  C_47
   14  A    between atoms: N_45  and  N_53
   15  A    between atoms: C_54  and  C_59
                            x       y       z     vdW  Elec       q    Type
                         _______ _______ _______ _____ _____    ______ ____

>  <TORSDO>
F 15

$$$$
=
 OpenBabel11042418493D

 60 65  0  0  1  0  0  0  0  0999 V2000
  195.7790  174.0530  141.4170 C   0  0  0  0  0  0  0  0  0  0  0  0
  196.9840  174.2990  140.9890 N   0  0  0  0  0  0  0  0  0  0  0  0
  194.6330  174.3930  140.6210 N   0  0  0  0  0  2  0  0  0  0  0  0
  193.2850  173.9530  140.8280 C   0  0  0  0  0  0  0  0  0  0  0  0
  190.9500  174.3890  141.3430 C   0  0  0  0  0  3  0  0  0  0  0  0
  193.0080  172.5840  140.7750 C   0  0  0  0  0  3  0  0  0  0  0  0
  191.7060  172.1170  140.9840 C   0  0  0  0  0  3  0  0  0  0  0  0
  190.6670  173.0180  141.2500 C   0  0  0  0  0  0  0  0  0  0  0  0
  192.2500  174.8510  141.1280 C   0  0  0  0  0  3  0  0  0  0  0  0
  188.3170  173.0810  140.4880 C   0  0  0  0  0  2  0  0  0  0  0  0
  188.3390  173.6290  141.8960 C   0  0  0  0  0  2  0  0  0  0  0  0
  189.2830  172.5010  141.5090 C   0  0  0  0  0  3  0  0  0  0  0  0
  197.3600  174.8370  139.7090 C   0  0  0  0  0  0  0  0  0  0  0  0
  197.5860  176.0640  139.5600 O   0  0  0  0  0  0  0  0  0  0  0  0
  197.4510  173.9660  138.5860 N   0  0  0  0  0  2  0  0  0  0  0  0
  197.2650  172.5870  138.7380 N   0  0  0  0  0  2  0  0  0  0  0  0
  197.5260  171.4990  136.5740 C   0  0  0  0  0  3  0  0  0  0  0  0
  195.4400  171.2410  137.7770 C   0  0  0  0  0  3  0  0  0  0  0  0
  196.7340  171.7770  137.6910 C   0  0  0  0  0  0  0  0  0  0  0  0
  194.9380  170.4310  136.7510 C   0  0  0  0  0  0  0  0  0  0  0  0
  197.0350  170.6890  135.5490 C   0  0  0  0  0  3  0  0  0  0  0  0
  195.7480  170.1520  135.6400 C   0  0  0  0  0  3  0  0  0  0  0  0
  191.4540  169.4420  136.1810 O   0  0  0  0  0  0  0  0  0  0  0  0
  192.4530  170.2070  136.1290 C   0  0  0  0  0  0  0  0  0  0  0  0
  193.6210  169.8760  136.8910 N   0  0  0  0  0  2  0  0  0  0  0  0
  192.3820  171.4410  135.2750 C   0  0  0  0  0  2  0  0  0  0  0  0
  191.7580  172.6770  135.9520 C   0  0  0  0  0  0  0  0  0  0  0  0
  191.8160  172.5180  137.4690 C   0  0  0  0  0  1  0  0  0  0  0  0
  190.2860  172.6720  135.5580 C   0  0  0  0  0  1  0  0  0  0  0  0
  193.6740  173.7470  134.9230 O   0  0  0  0  0  1  0  0  0  0  0  0
  192.4250  174.0140  135.5050 C   0  0  0  0  0  0  0  0  0  0  0  0
  191.6180  174.6360  134.5470 O   0  0  0  0  0  1  0  0  0  0  0  0
  193.9750  175.0650  137.2590 C   0  0  0  0  0  2  0  0  0  0  0  0
  193.4440  176.1810  136.3860 C   0  0  0  0  0  2  0  0  0  0  0  0
  192.5640  174.9910  136.7080 C   0  0  0  0  0  3  0  0  0  0  0  0
  195.6060  173.5010  142.8060 C   0  0  0  0  0  2  0  0  0  0  0  0
  194.8520  175.8780  146.6210 O   0  0  0  0  0  0  0  0  0  0  0  0
  193.0650  173.4100  144.3330 C   0  0  0  0  0  3  0  0  0  0  0  0
  191.8380  173.4120  144.8700 C   0  0  0  0  0  0  0  0  0  0  0  0
  193.4820  177.1010  144.9710 O   0  0  0  0  0  0  0  0  0  0  0  0
  193.7060  175.7770  145.6490 S   0  0  0  0  0  0  0  0  0  0  0  0
  192.2410  175.2800  146.5210 C   0  0  0  0  0  2  0  0  0  0  0  0
  195.1770  174.5480  143.7920 C   0  0  0  0  0  3  0  0  0  0  0  0
  191.2620  174.6440  145.5410 C   0  0  2  0  0  3  0  0  0  0  0  0
  190.8650  171.9680  144.6500 Cl  0  0  0  0  0  0  0  0  0  0  0  0
  194.0230  174.5260  144.4630 C   0  0  0  0  0  0  0  0  0  0  0  0
  190.0210  174.3410  146.2340 N   0  0  0  0  0  2  0  0  0  0  0  0
  189.0700  176.6100  147.5360 O   0  0  0  0  0  0  0  0  0  0  0  0
  188.5660  176.3270  146.4140 C   0  0  0  0  0  0  0  0  0  0  0  0
  189.0430  175.1860  145.6940 N   0  0  0  0  0  2  0  0  0  0  0  0
  186.7080  178.4260  143.8840 C   0  0  0  0  0  0  0  0  0  0  0  0
  184.5430  179.6810  143.9520 C   0  0  0  0  0  1  0  0  0  0  0  0
  186.8750  178.8000  142.5930 F   0  0  0  0  0  0  0  0  0  0  0  0
  185.4270  178.4370  145.9400 C   0  0  0  0  0  0  0  0  0  0  0  0
  187.6730  177.6240  144.4940 C   0  0  0  0  0  3  0  0  0  0  0  0
  186.3890  177.6230  146.5500 C   0  0  0  0  0  0  0  0  0  0  0  0
  186.2080  177.2570  147.8460 F   0  0  0  0  0  0  0  0  0  0  0  0
  185.5830  178.8350  144.6050 C   0  0  0  0  0  0  0  0  0  0  0  0
  184.3430  178.8350  146.6520 F   0  0  0  0  0  0  0  0  0  0  0  0
  187.5290  177.2070  145.8250 C   0  0  0  0  0  0  0  0  0  0  0  0
  1 36  1  0  0  0  0
  2  1  2  0  0  0  0
  3  4  1  0  0  0  0
  3  1  1  0  0  0  0
  4  9  1  0  0  0  0
  6  4  2  0  0  0  0
  6  7  1  0  0  0  0
  7  8  2  0  0  0  0
  8  5  1  0  0  0  0
  8 12  1  0  0  0  0
  9  5  2  0  0  0  0
 10 12  1  0  0  0  0
 10 11  1  0  0  0  0
 12 11  1  0  0  0  0
 13  2  1  0  0  0  0
 14 13  2  0  0  0  0
 15 16  1  0  0  0  0
 15 13  1  0  0  0  0
 17 19  1  0  0  0  0
 19 18  2  0  0  0  0
 19 16  1  0  0  0  0
 20 25  1  0  0  0  0
 20 18  1  0  0  0  0
 21 22  1  0  0  0  0
 21 17  2  0  0  0  0
 22 20  2  0  0  0  0
 24 23  2  0  0  0  0
 24 25  1  0  0  0  0
 26 27  1  0  0  0  0
 26 24  1  0  0  0  0
 27 28  1  0  0  0  0
 29 27  1  0  0  0  0
 30 31  1  0  0  0  0
 31 27  1  0  0  0  0
 31 35  1  0  0  0  0
 32 31  1  0  0  0  0
 34 35  1  0  0  0  0
 34 33  1  0  0  0  0
 35 33  1  0  0  0  0
 36 43  1  0  0  0  0
 38 46  1  0  0  0  0
 38 39  2  0  0  0  0
 39 44  1  0  0  0  0
 40 41  2  0  0  0  0
 41 42  1  0  0  0  0
 41 37  2  0  0  0  0
 43 46  2  0  0  0  0
 44 47  1  1  0  0  0
 44 42  1  0  0  0  0
 45 39  1  0  0  0  0
 46 41  1  0  0  0  0
 49 48  2  0  0  0  0
 50 47  1  0  0  0  0
 50 49  1  0  0  0  0
 51 55  2  0  0  0  0
 51 58  1  0  0  0  0
 52 58  1  0  0  0  0
 53 51  1  0  0  0  0
 54 56  1  0  0  0  0
 54 59  1  0  0  0  0
 55 60  1  0  0  0  0
 56 57  1  0  0  0  0
 58 54  2  0  0  0  0
 60 49  1  0  0  0  0
 60 56  2  0  0  0  0
M  END
>  <MODEL>
7

>  <REMARK>
 VINA RESULT:      -6.6      4.080      8.457
  Name = 
  15 active torsions:
  status: ('A' for Active; 'I' for Inactive)
    1  A    between atoms: C_2  and  C_14
    2  A    between atoms: C_2  and  C_54
    3  A    between atoms: C_7  and  C_13
    4  A    between atoms: C_8  and  N_32
    5  A    between atoms: C_13  and  C_36
    6  A    between atoms: C_14  and  C_15
    7  A    between atoms: C_18  and  N_45
    8  A    between atoms: C_21  and  N_51
    9  A    between atoms: C_29  and  C_57
   10  A    between atoms: C_31  and  C_50
   11  A    between atoms: N_34  and  C_35
   12  A    between atoms: N_38  and  N_44
   13  A    between atoms: N_38  and  C_47
   14  A    between atoms: N_45  and  N_53
   15  A    between atoms: C_54  and  C_59
                            x       y       z     vdW  Elec       q    Type
                         _______ _______ _______ _____ _____    ______ ____

>  <TORSDO>
F 15

$$$$
=
 OpenBabel11042418493D

 60 65  0  0  1  0  0  0  0  0999 V2000
  185.6320  178.2460  141.6440 C   0  0  0  0  0  0  0  0  0  0  0  0
  186.7830  177.7130  141.3480 N   0  0  0  0  0  0  0  0  0  0  0  0
  184.4770  178.0010  140.8260 N   0  0  0  0  0  2  0  0  0  0  0  0
  183.1140  178.2890  141.1600 C   0  0  0  0  0  0  0  0  0  0  0  0
  181.4080  179.0410  142.7190 C   0  0  0  0  0  3  0  0  0  0  0  0
  182.1180  178.0160  140.2170 C   0  0  0  0  0  3  0  0  0  0  0  0
  180.7750  178.2710  140.5120 C   0  0  0  0  0  3  0  0  0  0  0  0
  180.4150  178.8040  141.7580 C   0  0  0  0  0  0  0  0  0  0  0  0
  182.7480  178.7890  142.4180 C   0  0  0  0  0  3  0  0  0  0  0  0
  178.7010  178.7070  143.5340 C   0  0  0  0  0  2  0  0  0  0  0  0
  178.2710  177.7410  142.4550 C   0  0  0  0  0  2  0  0  0  0  0  0
  178.9680  179.0380  142.0750 C   0  0  0  0  0  3  0  0  0  0  0  0
  187.0670  176.7900  140.2830 C   0  0  0  0  0  0  0  0  0  0  0  0
  186.8080  177.0770  139.0870 O   0  0  0  0  0  0  0  0  0  0  0  0
  187.6250  175.5180  140.5930 N   0  0  0  0  0  0  0  0  0  0  0  0
  187.9790  175.1970  141.9100 N   0  0  0  0  0  0  0  0  0  0  0  0
  189.2820  173.9180  143.5220 C   0  0  0  0  0  3  0  0  0  0  0  0
  189.1380  173.1320  141.2360 C   0  0  0  0  0  3  0  0  0  0  0  0
  188.8090  174.0790  142.2170 C   0  0  0  0  0  0  0  0  0  0  0  0
  189.9380  172.0280  141.5550 C   0  0  0  0  0  0  0  0  0  0  0  0
  190.0750  172.8170  143.8510 C   0  0  0  0  0  3  0  0  0  0  0  0
  190.3970  171.8730  142.8720 C   0  0  0  0  0  3  0  0  0  0  0  0
  191.4670  170.2010  138.7690 O   0  0  0  0  0  0  0  0  0  0  0  0
  191.1110  171.2220  139.4130 C   0  0  0  0  0  0  0  0  0  0  0  0
  190.2270  171.0640  140.5310 N   0  0  0  0  0  2  0  0  0  0  0  0
  191.6190  172.5690  138.9840 C   0  0  0  0  0  2  0  0  0  0  0  0
  192.9690  172.9920  139.5950 C   0  0  0  0  0  0  0  0  0  0  0  0
  193.5120  171.8660  140.4710 C   0  0  0  0  0  1  0  0  0  0  0  0
  192.6630  174.1660  140.5160 C   0  0  0  0  0  1  0  0  0  0  0  0
  194.5890  172.2720  137.9420 O   0  0  0  0  0  1  0  0  0  0  0  0
  194.0150  173.4160  138.5190 C   0  0  0  0  0  0  0  0  0  0  0  0
  193.3720  174.1410  137.5110 O   0  0  0  0  0  1  0  0  0  0  0  0
  196.5110  173.7950  138.9790 C   0  0  0  0  0  2  0  0  0  0  0  0
  196.0280  174.9240  138.0930 C   0  0  0  0  0  2  0  0  0  0  0  0
  195.1030  174.3380  139.1400 C   0  0  0  0  0  3  0  0  0  0  0  0
  185.5580  179.2080  142.7980 C   0  0  0  0  0  2  0  0  0  0  0  0
  184.8620  178.3040  147.2110 O   0  0  0  0  0  0  0  0  0  0  0  0
  187.6650  178.2070  144.6310 C   0  0  0  0  0  3  0  0  0  0  0  0
  188.6400  177.6240  145.3400 C   0  0  0  0  0  0  0  0  0  0  0  0
  185.0340  176.0400  146.2400 O   0  0  0  0  0  0  0  0  0  0  0  0
  185.7470  177.3470  146.4560 S   0  0  0  0  0  0  0  0  0  0  0  0
  187.2430  177.0840  147.3750 C   0  0  0  0  0  2  0  0  0  0  0  0
  185.2830  178.5210  144.1050 C   0  0  0  0  0  3  0  0  0  0  0  0
  188.3400  176.6100  146.4270 C   0  0  2  0  0  3  0  0  0  0  0  0
  190.2930  177.9800  144.8720 Cl  0  0  0  0  0  0  0  0  0  0  0  0
  186.2260  178.0450  144.9210 C   0  0  0  0  0  0  0  0  0  0  0  0
  189.5300  176.2880  147.1980 N   0  0  0  0  0  2  0  0  0  0  0  0
  192.2620  176.2690  147.7300 O   0  0  0  0  0  0  0  0  0  0  0  0
  191.8870  175.8730  146.5910 C   0  0  0  0  0  0  0  0  0  0  0  0
  190.4910  175.8380  146.2820 N   0  0  0  0  0  2  0  0  0  0  0  0
  193.7550  173.5580  144.2660 C   0  0  0  0  0  0  0  0  0  0  0  0
  195.6640  173.8890  142.6820 C   0  0  0  0  0  1  0  0  0  0  0  0
  193.6890  172.2550  143.9020 F   0  0  0  0  0  0  0  0  0  0  0  0
  194.7630  175.7540  144.0940 C   0  0  0  0  0  0  0  0  0  0  0  0
  192.8560  174.0500  145.2140 C   0  0  0  0  0  3  0  0  0  0  0  0
  193.8560  176.2510  145.0360 C   0  0  0  0  0  0  0  0  0  0  0  0
  193.9360  177.5600  145.3930 F   0  0  0  0  0  0  0  0  0  0  0  0
  194.7120  174.4080  143.7040 C   0  0  0  0  0  0  0  0  0  0  0  0
  195.6930  176.5860  143.5610 F   0  0  0  0  0  0  0  0  0  0  0  0
  192.8870  175.3950  145.6080 C   0  0  0  0  0  0  0  0  0  0  0  0
  1 36  1  0  0  0  0
  2  1  2  0  0  0  0
  3  4  1  0  0  0  0
  3  1  1  0  0  0  0
  4  9  1  0  0  0  0
  6  7  1  0  0  0  0
  6  4  2  0  0  0  0
  7  8  2  0  0  0  0
  8 12  1  0  0  0  0
  8  5  1  0  0  0  0
  9  5  2  0  0  0  0
 11 10  1  0  0  0  0
 12 11  1  0  0  0  0
 12 10  1  0  0  0  0
 13 15  1  0  0  0  0
 13  2  1  0  0  0  0
 14 13  2  0  0  0  0
 15 16  2  0  0  0  0
 16 19  1  0  0  0  0
 17 21  1  0  0  0  0
 18 20  2  0  0  0  0
 18 19  1  0  0  0  0
 19 17  2  0  0  0  0
 20 22  1  0  0  0  0
 22 21  2  0  0  0  0
 23 24  2  0  0  0  0
 24 25  1  0  0  0  0
 25 20  1  0  0  0  0
 26 24  1  0  0  0  0
 26 27  1  0  0  0  0
 27 28  1  0  0  0  0
 27 29  1  0  0  0  0
 30 31  1  0  0  0  0
 31 35  1  0  0  0  0
 31 27  1  0  0  0  0
 32 31  1  0  0  0  0
 33 35  1  0  0  0  0
 34 33  1  0  0  0  0
 34 35  1  0  0  0  0
 36 43  1  0  0  0  0
 38 46  1  0  0  0  0
 38 39  2  0  0  0  0
 39 44  1  0  0  0  0
 40 41  2  0  0  0  0
 41 37  2  0  0  0  0
 41 42  1  0  0  0  0
 43 46  2  0  0  0  0
 44 47  1  1  0  0  0
 44 42  1  0  0  0  0
 45 39  1  0  0  0  0
 46 41  1  0  0  0  0
 49 48  2  0  0  0  0
 50 49  1  0  0  0  0
 50 47  1  0  0  0  0
 51 55  1  0  0  0  0
 52 58  1  0  0  0  0
 53 51  1  0  0  0  0
 54 56  2  0  0  0  0
 55 60  2  0  0  0  0
 56 57  1  0  0  0  0
 56 60  1  0  0  0  0
 58 54  1  0  0  0  0
 58 51  2  0  0  0  0
 59 54  1  0  0  0  0
 60 49  1  0  0  0  0
M  END
>  <MODEL>
8

>  <REMARK>
 VINA RESULT:      -6.5      1.667      2.263
  Name = 
  15 active torsions:
  status: ('A' for Active; 'I' for Inactive)
    1  A    between atoms: C_2  and  C_14
    2  A    between atoms: C_2  and  C_54
    3  A    between atoms: C_7  and  C_13
    4  A    between atoms: C_8  and  N_32
    5  A    between atoms: C_13  and  C_36
    6  A    between atoms: C_14  and  C_15
    7  A    between atoms: C_18  and  N_45
    8  A    between atoms: C_21  and  N_51
    9  A    between atoms: C_29  and  C_57
   10  A    between atoms: C_31  and  C_50
   11  A    between atoms: N_34  and  C_35
   12  A    between atoms: N_38  and  N_44
   13  A    between atoms: N_38  and  C_47
   14  A    between atoms: N_45  and  N_53
   15  A    between atoms: C_54  and  C_59
                            x       y       z     vdW  Elec       q    Type
                         _______ _______ _______ _____ _____    ______ ____

>  <TORSDO>
F 15

$$$$
=
 OpenBabel11042418493D

 60 65  0  0  1  0  0  0  0  0999 V2000
  188.0300  177.3050  143.2060 C   0  0  0  0  0  0  0  0  0  0  0  0
  187.0030  178.0670  142.9580 N   0  0  0  0  0  0  0  0  0  0  0  0
  187.9410  175.8800  143.0550 N   0  0  0  0  0  2  0  0  0  0  0  0
  189.0320  174.9510  143.0290 C   0  0  0  0  0  0  0  0  0  0  0  0
  190.9460  173.9330  141.9330 C   0  0  0  0  0  3  0  0  0  0  0  0
  189.1970  174.0770  144.1090 C   0  0  0  0  0  3  0  0  0  0  0  0
  190.2430  173.1480  144.1130 C   0  0  0  0  0  3  0  0  0  0  0  0
  191.1350  173.0840  143.0340 C   0  0  0  0  0  0  0  0  0  0  0  0
  189.9050  174.8620  141.9350 C   0  0  0  0  0  3  0  0  0  0  0  0
  192.6780  171.7840  141.6080 C   0  0  0  0  0  2  0  0  0  0  0  0
  191.7920  170.7890  142.3210 C   0  0  0  0  0  2  0  0  0  0  0  0
  192.2290  172.0590  143.0350 C   0  0  0  0  0  3  0  0  0  0  0  0
  185.7210  177.6610  142.4490 C   0  0  0  0  0  0  0  0  0  0  0  0
  184.7330  177.5170  143.2120 O   0  0  0  0  0  0  0  0  0  0  0  0
  185.5770  177.3890  141.0590 N   0  0  0  0  0  2  0  0  0  0  0  0
  186.6460  177.5990  140.1780 N   0  0  0  0  0  2  0  0  0  0  0  0
  186.7390  177.0610  137.8040 C   0  0  0  0  0  3  0  0  0  0  0  0
  187.4850  175.4140  139.4150 C   0  0  0  0  0  3  0  0  0  0  0  0
  186.9530  176.6810  139.1320 C   0  0  0  0  0  0  0  0  0  0  0  0
  187.8010  174.5280  138.3780 C   0  0  0  0  0  0  0  0  0  0  0  0
  187.0560  176.1860  136.7630 C   0  0  0  0  0  3  0  0  0  0  0  0
  187.5910  174.9270  137.0490 C   0  0  0  0  0  3  0  0  0  0  0  0
  190.1290  171.8220  139.2130 O   0  0  0  0  0  0  0  0  0  0  0  0
  189.7530  172.8730  138.6310 C   0  0  0  0  0  0  0  0  0  0  0  0
  188.3720  173.2530  138.7070 N   0  0  0  0  0  2  0  0  0  0  0  0
  190.7620  173.6870  137.8720 C   0  0  0  0  0  2  0  0  0  0  0  0
  191.1260  173.1510  136.4730 C   0  0  0  0  0  0  0  0  0  0  0  0
  191.2240  174.3120  135.4870 C   0  0  0  0  0  1  0  0  0  0  0  0
  189.9490  172.2900  136.0350 C   0  0  0  0  0  1  0  0  0  0  0  0
  192.1160  170.9390  136.4960 O   0  0  0  0  0  1  0  0  0  0  0  0
  192.4370  172.3050  136.4710 C   0  0  0  0  0  0  0  0  0  0  0  0
  193.1530  172.5670  135.2990 O   0  0  0  0  0  1  0  0  0  0  0  0
  194.0050  171.4960  138.3330 C   0  0  0  0  0  2  0  0  0  0  0  0
  194.8060  172.3900  137.4110 C   0  0  0  0  0  2  0  0  0  0  0  0
  193.3450  172.6920  137.6730 C   0  0  0  0  0  3  0  0  0  0  0  0
  189.2800  177.9370  143.7550 C   0  0  0  0  0  2  0  0  0  0  0  0
  190.7200  177.5830  148.0650 O   0  0  0  0  0  0  0  0  0  0  0  0
  191.9720  176.9560  144.5220 C   0  0  0  0  0  3  0  0  0  0  0  0
  193.1500  176.3680  144.7710 C   0  0  0  0  0  0  0  0  0  0  0  0
  190.3500  175.2220  147.4480 O   0  0  0  0  0  0  0  0  0  0  0  0
  191.1170  176.4750  147.1260 S   0  0  0  0  0  0  0  0  0  0  0  0
  192.8620  176.1800  147.2730 C   0  0  0  0  0  2  0  0  0  0  0  0
  189.6340  177.4230  145.1210 C   0  0  0  0  0  3  0  0  0  0  0  0
  193.3690  175.5090  146.0010 C   0  0  2  0  0  3  0  0  0  0  0  0
  194.3970  176.5220  143.5460 Cl  0  0  0  0  0  0  0  0  0  0  0  0
  190.8360  176.9560  145.4650 C   0  0  0  0  0  0  0  0  0  0  0  0
  194.7720  175.1670  146.1680 N   0  0  0  0  0  2  0  0  0  0  0  0
  196.9590  174.3700  144.6420 O   0  0  0  0  0  0  0  0  0  0  0  0
  196.0590  173.5120  144.8650 C   0  0  0  0  0  0  0  0  0  0  0  0
  194.9300  173.8670  145.6690 N   0  0  0  0  0  2  0  0  0  0  0  0
  196.1570  170.6260  142.4330 C   0  0  0  0  0  0  0  0  0  0  0  0
  196.7030  168.1950  142.6730 C   0  0  0  0  0  1  0  0  0  0  0  0
  195.9590  170.4420  141.1050 F   0  0  0  0  0  0  0  0  0  0  0  0
  196.7210  169.7670  144.6260 C   0  0  0  0  0  0  0  0  0  0  0  0
  195.9990  171.9010  142.9770 C   0  0  0  0  0  3  0  0  0  0  0  0
  196.5730  171.0470  145.1720 C   0  0  0  0  0  0  0  0  0  0  0  0
  196.7740  171.2150  146.5050 F   0  0  0  0  0  0  0  0  0  0  0  0
  196.5190  169.5550  143.2540 C   0  0  0  0  0  0  0  0  0  0  0  0
  197.0640  168.7330  145.4350 F   0  0  0  0  0  0  0  0  0  0  0  0
  196.2070  172.1330  144.3440 C   0  0  0  0  0  0  0  0  0  0  0  0
  1 36  1  0  0  0  0
  2  1  2  0  0  0  0
  3  1  1  0  0  0  0
  4  3  1  0  0  0  0
  4  6  1  0  0  0  0
  5  9  1  0  0  0  0
  5  8  2  0  0  0  0
  6  7  2  0  0  0  0
  8 12  1  0  0  0  0
  8  7  1  0  0  0  0
  9  4  2  0  0  0  0
 10 11  1  0  0  0  0
 10 12  1  0  0  0  0
 11 12  1  0  0  0  0
 13  2  1  0  0  0  0
 13 14  2  0  0  0  0
 15 13  1  0  0  0  0
 16 15  1  0  0  0  0
 17 19  1  0  0  0  0
 19 18  2  0  0  0  0
 19 16  1  0  0  0  0
 20 25  1  0  0  0  0
 20 18  1  0  0  0  0
 21 22  1  0  0  0  0
 21 17  2  0  0  0  0
 22 20  2  0  0  0  0
 24 25  1  0  0  0  0
 24 23  2  0  0  0  0
 26 24  1  0  0  0  0
 27 26  1  0  0  0  0
 28 27  1  0  0  0  0
 29 27  1  0  0  0  0
 31 27  1  0  0  0  0
 31 30  1  0  0  0  0
 31 35  1  0  0  0  0
 32 31  1  0  0  0  0
 34 35  1  0  0  0  0
 34 33  1  0  0  0  0
 35 33  1  0  0  0  0
 36 43  1  0  0  0  0
 38 39  2  0  0  0  0
 38 46  1  0  0  0  0
 39 44  1  0  0  0  0
 41 42  1  0  0  0  0
 41 40  2  0  0  0  0
 41 37  2  0  0  0  0
 43 46  2  0  0  0  0
 44 47  1  1  0  0  0
 44 42  1  0  0  0  0
 45 39  1  0  0  0  0
 46 41  1  0  0  0  0
 48 49  2  0  0  0  0
 49 50  1  0  0  0  0
 50 47  1  0  0  0  0
 51 55  2  0  0  0  0
 51 58  1  0  0  0  0
 52 58  1  0  0  0  0
 53 51  1  0  0  0  0
 54 56  1  0  0  0  0
 54 59  1  0  0  0  0
 55 60  1  0  0  0  0
 56 57  1  0  0  0  0
 58 54  2  0  0  0  0
 60 49  1  0  0  0  0
 60 56  2  0  0  0  0
M  END
>  <MODEL>
9

>  <REMARK>
 VINA RESULT:      -6.4      2.797      5.833
  Name = 
  15 active torsions:
  status: ('A' for Active; 'I' for Inactive)
    1  A    between atoms: C_2  and  C_14
    2  A    between atoms: C_2  and  C_54
    3  A    between atoms: C_7  and  C_13
    4  A    between atoms: C_8  and  N_32
    5  A    between atoms: C_13  and  C_36
    6  A    between atoms: C_14  and  C_15
    7  A    between atoms: C_18  and  N_45
    8  A    between atoms: C_21  and  N_51
    9  A    between atoms: C_29  and  C_57
   10  A    between atoms: C_31  and  C_50
   11  A    between atoms: N_34  and  C_35
   12  A    between atoms: N_38  and  N_44
   13  A    between atoms: N_38  and  C_47
   14  A    between atoms: N_45  and  N_53
   15  A    between atoms: C_54  and  C_59
                            x       y       z     vdW  Elec       q    Type
                         _______ _______ _______ _____ _____    ______ ____

>  <TORSDO>
F 15

$$$$
