=
 OpenBabel11042417033D

 44 50  0  0  1  0  0  0  0  0999 V2000
  190.5680  175.3500  147.0200 C   0  0  0  0  0  0  0  0  0  0  0  0
  196.1990  172.1600  144.9420 C   0  0  0  0  0  0  0  0  0  0  0  0
  193.6650  175.6420  146.2040 C   0  0  0  0  0  0  0  0  0  0  0  0
  191.4510  176.3620  147.3950 C   0  0  0  0  0  2  0  0  0  0  0  0
  194.7910  175.9350  145.5530 N   0  0  0  0  0  0  0  0  0  0  0  0
  196.7430  174.5480  144.9100 C   0  0  0  0  0  3  0  0  0  0  0  0
  195.3960  174.7830  145.4150 C   0  0  0  0  0  0  0  0  0  0  0  0
  193.4270  174.3500  146.0010 C   0  0  0  0  0  0  0  0  0  0  0  0
  194.8390  172.3990  145.3890 C   0  0  0  0  0  3  0  0  0  0  0  0
  190.8790  174.0500  146.1030 C   0  0  0  0  0  3  0  0  0  0  0  0
  194.5170  173.7400  145.6260 C   0  0  0  0  0  0  0  0  0  0  0  0
  192.9910  176.5180  146.8410 C   0  0  0  0  0  3  0  0  0  0  0  0
  197.1250  173.2450  144.7200 C   0  0  0  0  0  3  0  0  0  0  0  0
  192.3410  173.7010  145.7680 C   0  0  0  0  0  3  0  0  0  0  0  0
  195.5260  168.6980  144.9720 O   0  0  0  0  0  0  0  0  0  0  0  0
  196.5990  169.7590  146.8300 N   0  0  0  0  0  1  0  0  0  0  0  0
  196.2620  169.6620  145.4110 C   0  0  0  0  0  0  0  0  0  0  0  0
  196.6280  170.8200  144.5680 N   0  0  0  0  0  2  0  0  0  0  0  0
  189.1540  175.4400  147.1960 C   0  0  0  0  0  0  0  0  0  0  0  0
  188.5120  174.4990  147.7710 O   0  0  0  0  0  0  0  0  0  0  0  0
  188.5120  176.6300  146.5740 N   0  0  0  0  0  2  0  0  0  0  0  0
  184.7110  178.3760  147.0770 C   0  0  0  0  0  3  0  0  0  0  0  0
  185.8050  179.0200  147.6340 C   0  0  0  0  0  3  0  0  0  0  0  0
  188.1120  178.9610  148.2600 F   0  0  0  0  0  0  0  0  0  0  0  0
  187.0240  178.3630  147.7110 C   0  0  0  0  0  0  0  0  0  0  0  0
  187.2130  177.2100  146.9050 C   0  0  0  0  0  0  0  0  0  0  0  0
  186.1230  176.6240  146.2690 C   0  0  0  0  0  3  0  0  0  0  0  0
  184.9210  177.2960  146.1930 C   0  0  0  0  0  3  0  0  0  0  0  0
  194.8650  176.7740  144.4120 C   0  0  0  0  0  2  0  0  0  0  0  0
  194.5560  176.1290  143.1380 C   0  0  0  0  0  2  0  0  0  0  0  0
  193.0900  175.9680  142.8540 N   0  0  0  0  0  2  0  0  0  0  0  0
  192.5260  174.6220  142.4820 C   0  0  0  0  0  2  0  0  0  0  0  0
  189.9910  173.7230  142.4620 C   0  0  0  0  0  3  0  0  0  0  0  0
  188.6130  177.9000  142.3110 C   0  0  0  0  0  2  0  0  0  0  0  0
  188.6130  174.1290  142.3960 C   0  0  0  0  0  3  0  0  0  0  0  0
  189.2630  176.5110  142.5200 C   0  0  0  0  0  0  0  0  0  0  0  0
  190.5780  176.2560  142.4840 C   0  0  0  0  0  3  0  0  0  0  0  0
  187.0410  176.2170  142.2670 C   0  0  0  0  0  2  0  0  0  0  0  0
  187.2640  177.5540  142.7270 N   0  0  2  0  0  0  0  0  0  0  0  0
  188.3210  175.5240  142.4320 C   0  0  0  0  0  0  0  0  0  0  0  0
  191.0030  174.8420  142.4850 C   0  0  0  0  0  0  0  0  0  0  0  0
  185.9300  179.3670  143.4430 C   0  0  0  0  0  2  0  0  0  0  0  0
  186.3780  178.6370  142.2930 C   0  0  0  0  0  3  0  0  0  0  0  0
  184.9290  178.3400  143.0390 C   0  0  0  0  0  2  0  0  0  0  0  0
  1 19  1  0  0  0  0
  1  4  1  0  0  0  0
  2  9  1  0  0  0  0
  3 12  2  0  0  0  0
  5  3  1  0  0  0  0
  6  7  2  0  0  0  0
  7  5  1  0  0  0  0
  7 11  1  0  0  0  0
  8  3  1  0  0  0  0
  9 11  2  0  0  0  0
 10  1  2  0  0  0  0
 11  8  1  0  0  0  0
 12  4  1  0  0  0  0
 13  6  1  0  0  0  0
 13  2  2  0  0  0  0
 14  8  2  0  0  0  0
 14 10  1  0  0  0  0
 15 17  2  0  0  0  0
 17 16  1  0  0  0  0
 18  2  1  0  0  0  0
 18 17  1  0  0  0  0
 19 20  2  0  0  0  0
 21 26  1  0  0  0  0
 21 19  1  0  0  0  0
 22 23  1  0  0  0  0
 23 25  2  0  0  0  0
 25 24  1  0  0  0  0
 26 25  1  0  0  0  0
 27 26  2  0  0  0  0
 28 27  1  0  0  0  0
 28 22  2  0  0  0  0
 29  5  1  0  0  0  0
 30 29  1  0  0  0  0
 31 30  1  0  0  0  0
 32 41  1  0  0  0  0
 32 31  1  0  0  0  0
 33 41  1  0  0  0  0
 34 36  1  0  0  0  0
 34 39  1  0  0  0  0
 35 40  1  0  0  0  0
 35 33  2  0  0  0  0
 37 41  2  0  0  0  0
 37 36  1  0  0  0  0
 38 40  1  0  0  0  0
 38 39  1  0  0  0  0
 39 43  1  6  0  0  0
 40 36  2  0  0  0  0
 43 44  1  0  0  0  0
 43 42  1  0  0  0  0
 44 42  1  0  0  0  0
M  END
>  <MODEL>
1

>  <REMARK>
 VINA RESULT:      -9.0      0.000      0.000
  Name = 
  9 active torsions:
  status: ('A' for Active; 'I' for Inactive)
    1  A    between atoms: C_1  and  C_7
    2  A    between atoms: C_2  and  N_44
    3  A    between atoms: C_10  and  N_35
    4  A    between atoms: N_11  and  C_43
    5  A    between atoms: N_19  and  C_24
    6  A    between atoms: N_19  and  C_26
    7  A    between atoms: C_24  and  C_37
    8  A    between atoms: C_25  and  N_42
    9  A    between atoms: C_26  and  C_43
                            x       y       z     vdW  Elec       q    Type
                         _______ _______ _______ _____ _____    ______ ____

>  <TORSDO>
F 9

$$$$
=
 OpenBabel11042417033D

 44 50  0  0  1  0  0  0  0  0999 V2000
  190.0790  175.8390  145.2080 C   0  0  0  0  0  0  0  0  0  0  0  0
  195.2600  171.4510  145.5380 C   0  0  0  0  0  0  0  0  0  0  0  0
  193.2120  175.4350  145.8130 C   0  0  0  0  0  0  0  0  0  0  0  0
  190.9030  176.6510  145.9860 C   0  0  0  0  0  2  0  0  0  0  0  0
  194.5420  175.4580  145.7250 N   0  0  0  0  0  0  0  0  0  0  0  0
  196.2470  173.6660  145.8930 C   0  0  0  0  0  3  0  0  0  0  0  0
  194.8950  174.2000  145.7860 C   0  0  0  0  0  0  0  0  0  0  0  0
  192.8230  174.2180  145.4470 C   0  0  0  0  0  0  0  0  0  0  0  0
  193.9230  171.9910  145.3760 C   0  0  0  0  0  3  0  0  0  0  0  0
  190.4790  174.4730  144.4310 C   0  0  0  0  0  3  0  0  0  0  0  0
  193.8150  173.3770  145.5360 C   0  0  0  0  0  0  0  0  0  0  0  0
  192.5280  176.4560  146.1540 C   0  0  0  0  0  3  0  0  0  0  0  0
  196.3940  172.3050  145.8020 C   0  0  0  0  0  3  0  0  0  0  0  0
  191.8350  173.8080  144.7320 C   0  0  0  0  0  3  0  0  0  0  0  0
  193.9840  168.1660  145.4100 O   0  0  0  0  0  0  0  0  0  0  0  0
  194.7120  169.1230  147.4800 N   0  0  0  0  0  1  0  0  0  0  0  0
  194.7440  169.0100  146.0220 C   0  0  0  0  0  0  0  0  0  0  0  0
  195.5210  170.0390  145.3000 N   0  0  0  0  0  2  0  0  0  0  0  0
  188.7810  176.2360  144.7680 C   0  0  0  0  0  0  0  0  0  0  0  0
  188.2530  175.6960  143.7380 O   0  0  0  0  0  0  0  0  0  0  0  0
  188.1730  177.3670  145.5210 N   0  0  0  0  0  2  0  0  0  0  0  0
  184.2320  178.8360  145.7690 C   0  0  0  0  0  3  0  0  0  0  0  0
  184.6810  177.9960  146.7760 C   0  0  0  0  0  3  0  0  0  0  0  0
  186.3290  176.4570  147.5720 F   0  0  0  0  0  0  0  0  0  0  0  0
  185.8670  177.2960  146.6100 C   0  0  0  0  0  0  0  0  0  0  0  0
  186.7590  177.7240  145.5920 C   0  0  0  0  0  0  0  0  0  0  0  0
  186.3310  178.6430  144.6390 C   0  0  0  0  0  3  0  0  0  0  0  0
  185.1550  179.3380  144.8250 C   0  0  0  0  0  3  0  0  0  0  0  0
  195.2730  176.2230  144.7810 C   0  0  0  0  0  2  0  0  0  0  0  0
  194.6270  176.4000  143.4830 C   0  0  0  0  0  2  0  0  0  0  0  0
  195.4700  176.0120  142.3020 N   0  0  0  0  0  2  0  0  0  0  0  0
  196.1840  174.6850  142.2750 C   0  0  0  0  0  2  0  0  0  0  0  0
  195.2570  172.1700  142.0470 C   0  0  0  0  0  3  0  0  0  0  0  0
  191.3510  173.8180  140.8650 C   0  0  0  0  0  2  0  0  0  0  0  0
  194.1090  171.3810  141.6930 C   0  0  0  0  0  3  0  0  0  0  0  0
  192.7320  173.4180  141.4410 C   0  0  0  0  0  0  0  0  0  0  0  0
  193.7540  174.2550  141.6570 C   0  0  0  0  0  3  0  0  0  0  0  0
  191.6140  171.5300  140.9160 C   0  0  0  0  0  2  0  0  0  0  0  0
  190.6550  172.5700  141.1310 N   0  0  2  0  0  0  0  0  0  0  0  0
  192.8880  172.0600  141.4070 C   0  0  0  0  0  0  0  0  0  0  0  0
  195.0630  173.6650  142.0020 C   0  0  0  0  0  0  0  0  0  0  0  0
  188.7940  173.8780  140.4950 C   0  0  0  0  0  2  0  0  0  0  0  0
  189.4070  172.5890  140.3610 C   0  0  0  0  0  3  0  0  0  0  0  0
  188.2180  172.9090  141.4690 C   0  0  0  0  0  2  0  0  0  0  0  0
  1  4  1  0  0  0  0
  2 13  1  0  0  0  0
  3 12  2  0  0  0  0
  4 12  1  0  0  0  0
  5  7  1  0  0  0  0
  5  3  1  0  0  0  0
  7  6  1  0  0  0  0
  8 11  1  0  0  0  0
  8  3  1  0  0  0  0
  9 11  1  0  0  0  0
  9  2  2  0  0  0  0
 10 14  1  0  0  0  0
 10  1  2  0  0  0  0
 11  7  2  0  0  0  0
 13  6  2  0  0  0  0
 14  8  2  0  0  0  0
 15 17  2  0  0  0  0
 17 16  1  0  0  0  0
 18  2  1  0  0  0  0
 18 17  1  0  0  0  0
 19  1  1  0  0  0  0
 19 21  1  0  0  0  0
 20 19  2  0  0  0  0
 21 26  1  0  0  0  0
 22 23  1  0  0  0  0
 25 23  2  0  0  0  0
 25 24  1  0  0  0  0
 26 25  1  0  0  0  0
 27 28  1  0  0  0  0
 27 26  2  0  0  0  0
 28 22  2  0  0  0  0
 29  5  1  0  0  0  0
 30 29  1  0  0  0  0
 31 30  1  0  0  0  0
 32 31  1  0  0  0  0
 34 39  1  0  0  0  0
 34 36  1  0  0  0  0
 35 33  2  0  0  0  0
 36 37  1  0  0  0  0
 37 41  2  0  0  0  0
 38 39  1  0  0  0  0
 38 40  1  0  0  0  0
 39 43  1  6  0  0  0
 40 36  2  0  0  0  0
 40 35  1  0  0  0  0
 41 33  1  0  0  0  0
 41 32  1  0  0  0  0
 42 44  1  0  0  0  0
 43 42  1  0  0  0  0
 43 44  1  0  0  0  0
M  END
>  <MODEL>
2

>  <REMARK>
 VINA RESULT:      -8.7      2.009      3.443
  Name = 
  9 active torsions:
  status: ('A' for Active; 'I' for Inactive)
    1  A    between atoms: C_1  and  C_7
    2  A    between atoms: C_2  and  N_44
    3  A    between atoms: C_10  and  N_35
    4  A    between atoms: N_11  and  C_43
    5  A    between atoms: N_19  and  C_24
    6  A    between atoms: N_19  and  C_26
    7  A    between atoms: C_24  and  C_37
    8  A    between atoms: C_25  and  N_42
    9  A    between atoms: C_26  and  C_43
                            x       y       z     vdW  Elec       q    Type
                         _______ _______ _______ _____ _____    ______ ____

>  <TORSDO>
F 9

$$$$
=
 OpenBabel11042417033D

 44 50  0  0  1  0  0  0  0  0999 V2000
  188.3960  176.1930  141.9340 C   0  0  0  0  0  0  0  0  0  0  0  0
  194.8770  174.1470  141.8950 C   0  0  0  0  0  0  0  0  0  0  0  0
  190.4760  173.9050  141.0510 C   0  0  0  0  0  0  0  0  0  0  0  0
  188.2440  175.2590  140.9110 C   0  0  0  0  0  3  0  0  0  0  0  0
  191.1580  172.7620  140.9710 N   0  0  0  0  0  0  0  0  0  0  0  0
  193.5890  172.2770  140.9740 C   0  0  0  0  0  3  0  0  0  0  0  0
  192.4070  173.1160  141.1300 C   0  0  0  0  0  0  0  0  0  0  0  0
  191.2470  174.7680  141.7050 C   0  0  0  0  0  0  0  0  0  0  0  0
  193.6930  174.9580  142.1030 C   0  0  0  0  0  3  0  0  0  0  0  0
  189.6660  176.3850  142.9230 C   0  0  0  0  0  2  0  0  0  0  0  0
  192.4920  174.3820  141.6740 C   0  0  0  0  0  0  0  0  0  0  0  0
  189.2940  174.0340  140.5910 C   0  0  0  0  0  3  0  0  0  0  0  0
  194.7970  172.8220  141.3260 C   0  0  0  0  0  3  0  0  0  0  0  0
  190.9820  175.6500  142.6040 C   0  0  0  0  0  3  0  0  0  0  0  0
  196.9470  176.8490  142.8170 O   0  0  0  0  0  0  0  0  0  0  0  0
  196.7750  176.1540  140.5320 N   0  0  0  0  0  1  0  0  0  0  0  0
  196.7130  175.9030  141.9720 C   0  0  0  0  0  0  0  0  0  0  0  0
  196.1730  174.5910  142.3870 N   0  0  0  0  0  2  0  0  0  0  0  0
  187.3200  176.9860  142.4360 C   0  0  0  0  0  0  0  0  0  0  0  0
  186.3670  177.3460  141.6660 O   0  0  0  0  0  0  0  0  0  0  0  0
  187.4630  177.4280  143.8510 N   0  0  0  0  0  2  0  0  0  0  0  0
  184.1850  178.3260  146.3400 C   0  0  0  0  0  3  0  0  0  0  0  0
  184.4220  179.1480  145.2500 C   0  0  0  0  0  3  0  0  0  0  0  0
  185.8860  179.8400  143.4910 F   0  0  0  0  0  0  0  0  0  0  0  0
  185.6190  179.0430  144.5560 C   0  0  0  0  0  0  0  0  0  0  0  0
  186.4020  177.8760  144.7490 C   0  0  0  0  0  0  0  0  0  0  0  0
  186.0990  177.0030  145.7900 C   0  0  0  0  0  3  0  0  0  0  0  0
  184.9000  177.1150  146.4610 C   0  0  0  0  0  3  0  0  0  0  0  0
  190.8010  171.5640  141.6410 C   0  0  0  0  0  2  0  0  0  0  0  0
  189.8540  171.7190  142.7410 C   0  0  0  0  0  2  0  0  0  0  0  0
  190.4800  171.8130  144.1040 N   0  0  0  0  0  2  0  0  0  0  0  0
  190.6010  173.1430  144.8000 C   0  0  0  0  0  2  0  0  0  0  0  0
  192.7500  174.5150  145.6570 C   0  0  0  0  0  3  0  0  0  0  0  0
  195.2640  171.0690  144.5740 C   0  0  0  0  0  2  0  0  0  0  0  0
  194.1800  174.4680  145.8000 C   0  0  0  0  0  3  0  0  0  0  0  0
  194.2220  172.1180  145.0350 C   0  0  0  0  0  0  0  0  0  0  0  0
  192.9100  172.0780  144.7670 C   0  0  0  0  0  3  0  0  0  0  0  0
  196.2810  172.9550  145.4190 C   0  0  0  0  0  2  0  0  0  0  0  0
  196.3800  171.5280  145.3840 N   0  0  2  0  0  0  0  0  0  0  0  0
  194.8470  173.2500  145.4780 C   0  0  0  0  0  0  0  0  0  0  0  0
  192.1060  173.2710  145.0980 C   0  0  0  0  0  0  0  0  0  0  0  0
  197.2530  169.6000  144.3360 C   0  0  0  0  0  2  0  0  0  0  0  0
  197.5930  170.8880  144.8640 C   0  0  0  0  0  3  0  0  0  0  0  0
  197.7530  169.4880  145.7350 C   0  0  0  0  0  2  0  0  0  0  0  0
  1 19  1  0  0  0  0
  1 10  1  0  0  0  0
  2  9  1  0  0  0  0
  2 18  1  0  0  0  0
  3  8  1  0  0  0  0
  4  1  2  0  0  0  0
  5  3  1  0  0  0  0
  5  7  1  0  0  0  0
  5 29  1  0  0  0  0
  6  7  2  0  0  0  0
  6 13  1  0  0  0  0
  7 11  1  0  0  0  0
  8 14  2  0  0  0  0
 11  8  1  0  0  0  0
 11  9  2  0  0  0  0
 12  4  1  0  0  0  0
 12  3  2  0  0  0  0
 13  2  2  0  0  0  0
 14 10  1  0  0  0  0
 16 17  1  0  0  0  0
 17 18  1  0  0  0  0
 17 15  2  0  0  0  0
 19 21  1  0  0  0  0
 20 19  2  0  0  0  0
 21 26  1  0  0  0  0
 22 28  1  0  0  0  0
 23 22  2  0  0  0  0
 24 25  1  0  0  0  0
 25 26  2  0  0  0  0
 25 23  1  0  0  0  0
 26 27  1  0  0  0  0
 27 28  2  0  0  0  0
 29 30  1  0  0  0  0
 30 31  1  0  0  0  0
 31 32  1  0  0  0  0
 32 41  1  0  0  0  0
 33 35  1  0  0  0  0
 34 36  1  0  0  0  0
 34 39  1  0  0  0  0
 36 40  1  0  0  0  0
 37 36  2  0  0  0  0
 37 41  1  0  0  0  0
 38 40  1  0  0  0  0
 39 43  1  6  0  0  0
 39 38  1  0  0  0  0
 40 35  2  0  0  0  0
 41 33  2  0  0  0  0
 42 43  1  0  0  0  0
 42 44  1  0  0  0  0
 43 44  1  0  0  0  0
M  END
>  <MODEL>
3

>  <REMARK>
 VINA RESULT:      -8.5      2.686      6.933
  Name = 
  9 active torsions:
  status: ('A' for Active; 'I' for Inactive)
    1  A    between atoms: C_1  and  C_7
    2  A    between atoms: C_2  and  N_44
    3  A    between atoms: C_10  and  N_35
    4  A    between atoms: N_11  and  C_43
    5  A    between atoms: N_19  and  C_24
    6  A    between atoms: N_19  and  C_26
    7  A    between atoms: C_24  and  C_37
    8  A    between atoms: C_25  and  N_42
    9  A    between atoms: C_26  and  C_43
                            x       y       z     vdW  Elec       q    Type
                         _______ _______ _______ _____ _____    ______ ____

>  <TORSDO>
F 9

$$$$
=
 OpenBabel11042417033D

 44 50  0  0  1  0  0  0  0  0999 V2000
  188.2870  176.0060  141.8280 C   0  0  0  0  0  0  0  0  0  0  0  0
  194.8290  174.1650  141.7040 C   0  0  0  0  0  0  0  0  0  0  0  0
  190.4580  173.9090  140.7190 C   0  0  0  0  0  0  0  0  0  0  0  0
  188.1880  175.2060  140.6910 C   0  0  0  0  0  3  0  0  0  0  0  0
  191.1770  172.8040  140.5130 N   0  0  0  0  0  0  0  0  0  0  0  0
  193.6210  172.3920  140.5190 C   0  0  0  0  0  3  0  0  0  0  0  0
  192.4100  173.1710  140.7480 C   0  0  0  0  0  0  0  0  0  0  0  0
  191.1860  174.7020  141.4970 C   0  0  0  0  0  0  0  0  0  0  0  0
  193.6150  174.9090  141.9810 C   0  0  0  0  0  3  0  0  0  0  0  0
  189.5280  176.1060  142.8670 C   0  0  0  0  0  2  0  0  0  0  0  0
  192.4430  174.3590  141.4510 C   0  0  0  0  0  0  0  0  0  0  0  0
  189.2830  174.0620  140.2470 C   0  0  0  0  0  3  0  0  0  0  0  0
  194.8040  172.9220  140.9700 C   0  0  0  0  0  3  0  0  0  0  0  0
  190.8730  175.4550  142.4930 C   0  0  0  0  0  3  0  0  0  0  0  0
  196.9160  176.8210  142.7150 O   0  0  0  0  0  0  0  0  0  0  0  0
  196.8940  176.0710  140.4420 N   0  0  0  0  0  1  0  0  0  0  0  0
  196.7140  175.8610  141.8780 C   0  0  0  0  0  0  0  0  0  0  0  0
  196.0980  174.5790  142.2840 N   0  0  0  0  0  2  0  0  0  0  0  0
  187.1760  176.6970  142.3970 C   0  0  0  0  0  0  0  0  0  0  0  0
  186.0820  176.8090  141.7490 O   0  0  0  0  0  0  0  0  0  0  0  0
  187.4360  177.3450  143.7120 N   0  0  0  0  0  2  0  0  0  0  0  0
  184.3510  178.1500  146.4660 C   0  0  0  0  0  3  0  0  0  0  0  0
  184.5490  179.0450  145.4270 C   0  0  0  0  0  3  0  0  0  0  0  0
  185.9260  179.8250  143.6340 F   0  0  0  0  0  0  0  0  0  0  0  0
  185.6970  178.9570  144.6530 C   0  0  0  0  0  0  0  0  0  0  0  0
  186.4490  177.7550  144.7070 C   0  0  0  0  0  0  0  0  0  0  0  0
  186.1790  176.8140  145.6970 C   0  0  0  0  0  3  0  0  0  0  0  0
  185.0280  176.9120  146.4500 C   0  0  0  0  0  3  0  0  0  0  0  0
  190.8430  171.5220  141.0160 C   0  0  0  0  0  2  0  0  0  0  0  0
  190.3280  171.4990  142.3830 C   0  0  0  0  0  2  0  0  0  0  0  0
  191.0350  170.5470  143.3060 N   0  0  0  0  0  2  0  0  0  0  0  0
  192.5370  170.5580  143.4120 C   0  0  0  0  0  2  0  0  0  0  0  0
  194.2350  172.2660  144.6100 C   0  0  0  0  0  3  0  0  0  0  0  0
  190.7660  174.5830  146.0100 C   0  0  0  0  0  2  0  0  0  0  0  0
  194.3150  173.4450  145.4290 C   0  0  0  0  0  3  0  0  0  0  0  0
  191.8640  173.7450  145.3110 C   0  0  0  0  0  0  0  0  0  0  0  0
  191.6580  172.6090  144.6320 C   0  0  0  0  0  3  0  0  0  0  0  0
  192.8750  175.2720  146.6280 C   0  0  0  0  0  2  0  0  0  0  0  0
  191.5700  175.7580  146.3030 N   0  0  2  0  0  0  0  0  0  0  0  0
  193.1040  174.1320  145.7370 C   0  0  0  0  0  0  0  0  0  0  0  0
  192.8440  171.8310  144.2210 C   0  0  0  0  0  0  0  0  0  0  0  0
  189.4210  176.3680  147.0720 C   0  0  0  0  0  2  0  0  0  0  0  0
  190.8260  176.5680  147.2730 C   0  0  0  0  0  3  0  0  0  0  0  0
  189.8930  177.5900  146.3620 C   0  0  0  0  0  2  0  0  0  0  0  0
  1 19  1  0  0  0  0
  1 10  1  0  0  0  0
  2  9  1  0  0  0  0
  2 18  1  0  0  0  0
  3  8  1  0  0  0  0
  4  1  2  0  0  0  0
  5  3  1  0  0  0  0
  5  7  1  0  0  0  0
  5 29  1  0  0  0  0
  6  7  2  0  0  0  0
  6 13  1  0  0  0  0
  7 11  1  0  0  0  0
  8 14  2  0  0  0  0
 11  8  1  0  0  0  0
 11  9  2  0  0  0  0
 12  4  1  0  0  0  0
 12  3  2  0  0  0  0
 13  2  2  0  0  0  0
 14 10  1  0  0  0  0
 16 17  1  0  0  0  0
 17 18  1  0  0  0  0
 17 15  2  0  0  0  0
 19 21  1  0  0  0  0
 20 19  2  0  0  0  0
 21 26  1  0  0  0  0
 23 22  2  0  0  0  0
 24 25  1  0  0  0  0
 25 26  2  0  0  0  0
 25 23  1  0  0  0  0
 26 27  1  0  0  0  0
 27 28  2  0  0  0  0
 28 22  1  0  0  0  0
 29 30  1  0  0  0  0
 30 31  1  0  0  0  0
 31 32  1  0  0  0  0
 32 41  1  0  0  0  0
 33 35  1  0  0  0  0
 34 39  1  0  0  0  0
 35 40  2  0  0  0  0
 36 40  1  0  0  0  0
 36 34  1  0  0  0  0
 37 36  2  0  0  0  0
 39 38  1  0  0  0  0
 39 43  1  1  0  0  0
 40 38  1  0  0  0  0
 41 33  2  0  0  0  0
 41 37  1  0  0  0  0
 42 43  1  0  0  0  0
 44 42  1  0  0  0  0
 44 43  1  0  0  0  0
M  END
>  <MODEL>
4

>  <REMARK>
 VINA RESULT:      -8.4      2.822      5.543
  Name = 
  9 active torsions:
  status: ('A' for Active; 'I' for Inactive)
    1  A    between atoms: C_1  and  C_7
    2  A    between atoms: C_2  and  N_44
    3  A    between atoms: C_10  and  N_35
    4  A    between atoms: N_11  and  C_43
    5  A    between atoms: N_19  and  C_24
    6  A    between atoms: N_19  and  C_26
    7  A    between atoms: C_24  and  C_37
    8  A    between atoms: C_25  and  N_42
    9  A    between atoms: C_26  and  C_43
                            x       y       z     vdW  Elec       q    Type
                         _______ _______ _______ _____ _____    ______ ____

>  <TORSDO>
F 9

$$$$
=
 OpenBabel11042417033D

 44 50  0  0  1  0  0  0  0  0999 V2000
  188.5520  175.5800  142.2300 C   0  0  0  0  0  0  0  0  0  0  0  0
  195.1210  174.0140  141.4540 C   0  0  0  0  0  0  0  0  0  0  0  0
  190.7010  173.7110  140.7370 C   0  0  0  0  0  0  0  0  0  0  0  0
  188.3970  174.9150  141.0150 C   0  0  0  0  0  3  0  0  0  0  0  0
  191.4360  172.6660  140.3540 N   0  0  0  0  0  0  0  0  0  0  0  0
  193.8860  172.3490  140.1490 C   0  0  0  0  0  3  0  0  0  0  0  0
  192.6720  173.0480  140.5490 C   0  0  0  0  0  0  0  0  0  0  0  0
  191.4580  174.4350  141.5550 C   0  0  0  0  0  0  0  0  0  0  0  0
  193.9080  174.6750  141.8980 C   0  0  0  0  0  3  0  0  0  0  0  0
  189.8600  175.6050  143.1890 C   0  0  0  0  0  2  0  0  0  0  0  0
  192.7190  174.1460  141.3840 C   0  0  0  0  0  0  0  0  0  0  0  0
  189.4920  173.8730  140.3660 C   0  0  0  0  0  3  0  0  0  0  0  0
  195.0810  172.8660  140.5800 C   0  0  0  0  0  3  0  0  0  0  0  0
  191.1940  175.0540  142.6520 C   0  0  0  0  0  3  0  0  0  0  0  0
  196.9470  176.2220  143.5110 O   0  0  0  0  0  0  0  0  0  0  0  0
  196.4410  176.7900  141.2410 N   0  0  0  0  0  1  0  0  0  0  0  0
  196.6870  175.8240  142.3120 C   0  0  0  0  0  0  0  0  0  0  0  0
  196.4150  174.4060  141.9930 N   0  0  0  0  0  2  0  0  0  0  0  0
  187.4640  176.1580  142.9500 C   0  0  0  0  0  0  0  0  0  0  0  0
  186.2700  175.7460  142.7590 O   0  0  0  0  0  0  0  0  0  0  0  0
  187.8190  177.3100  143.8230 N   0  0  0  0  0  2  0  0  0  0  0  0
  185.4250  178.4020  147.1130 C   0  0  0  0  0  3  0  0  0  0  0  0
  185.2030  179.0400  145.9030 C   0  0  0  0  0  3  0  0  0  0  0  0
  185.9370  179.5170  143.6780 F   0  0  0  0  0  0  0  0  0  0  0  0
  186.1190  178.8980  144.8720 C   0  0  0  0  0  0  0  0  0  0  0  0
  187.0560  177.8340  144.9520 C   0  0  0  0  0  0  0  0  0  0  0  0
  187.2060  177.1330  146.1450 C   0  0  0  0  0  3  0  0  0  0  0  0
  186.2790  177.2790  147.1550 C   0  0  0  0  0  3  0  0  0  0  0  0
  191.1770  171.3210  140.7220 C   0  0  0  0  0  2  0  0  0  0  0  0
  190.3200  171.1450  141.8920 C   0  0  0  0  0  2  0  0  0  0  0  0
  191.0460  170.7870  143.1570 N   0  0  0  0  0  2  0  0  0  0  0  0
  192.3310  170.0020  143.1040 C   0  0  0  0  0  2  0  0  0  0  0  0
  194.8580  170.6770  143.7340 C   0  0  0  0  0  3  0  0  0  0  0  0
  193.3030  174.3110  145.6700 C   0  0  0  0  0  2  0  0  0  0  0  0
  195.6670  171.6570  144.4060 C   0  0  0  0  0  3  0  0  0  0  0  0
  193.6860  173.0750  144.8180 C   0  0  0  0  0  0  0  0  0  0  0  0
  192.8220  172.1890  144.3050 C   0  0  0  0  0  3  0  0  0  0  0  0
  195.5710  173.9100  145.7330 C   0  0  0  0  0  2  0  0  0  0  0  0
  194.6030  174.9620  145.6700 N   0  0  2  0  0  0  0  0  0  0  0  0
  195.0250  172.8230  144.9170 C   0  0  0  0  0  0  0  0  0  0  0  0
  193.3760  170.9580  143.7090 C   0  0  0  0  0  0  0  0  0  0  0  0
  193.3910  176.7900  146.5470 C   0  0  0  0  0  2  0  0  0  0  0  0
  194.5750  175.9980  146.7070 C   0  0  0  0  0  3  0  0  0  0  0  0
  194.5590  177.4360  145.8840 C   0  0  0  0  0  2  0  0  0  0  0  0
  1 19  1  0  0  0  0
  1 10  1  0  0  0  0
  2  9  1  0  0  0  0
  2 18  1  0  0  0  0
  3  8  1  0  0  0  0
  4  1  2  0  0  0  0
  5  7  1  0  0  0  0
  5 29  1  0  0  0  0
  5  3  1  0  0  0  0
  6  7  2  0  0  0  0
  6 13  1  0  0  0  0
  7 11  1  0  0  0  0
  8 14  2  0  0  0  0
 11  8  1  0  0  0  0
 11  9  2  0  0  0  0
 12  3  2  0  0  0  0
 12  4  1  0  0  0  0
 13  2  2  0  0  0  0
 14 10  1  0  0  0  0
 16 17  1  0  0  0  0
 17 15  2  0  0  0  0
 18 17  1  0  0  0  0
 19 21  1  0  0  0  0
 20 19  2  0  0  0  0
 21 26  1  0  0  0  0
 22 28  1  0  0  0  0
 23 22  2  0  0  0  0
 24 25  1  0  0  0  0
 25 26  2  0  0  0  0
 25 23  1  0  0  0  0
 26 27  1  0  0  0  0
 27 28  2  0  0  0  0
 29 30  1  0  0  0  0
 30 31  1  0  0  0  0
 32 31  1  0  0  0  0
 32 41  1  0  0  0  0
 33 35  1  0  0  0  0
 35 40  2  0  0  0  0
 36 40  1  0  0  0  0
 36 34  1  0  0  0  0
 37 36  2  0  0  0  0
 39 34  1  0  0  0  0
 39 38  1  0  0  0  0
 39 43  1  1  0  0  0
 40 38  1  0  0  0  0
 41 33  2  0  0  0  0
 41 37  1  0  0  0  0
 42 43  1  0  0  0  0
 44 42  1  0  0  0  0
 44 43  1  0  0  0  0
M  END
>  <MODEL>
5

>  <REMARK>
 VINA RESULT:      -8.3      2.755      6.048
  Name = 
  9 active torsions:
  status: ('A' for Active; 'I' for Inactive)
    1  A    between atoms: C_1  and  C_7
    2  A    between atoms: C_2  and  N_44
    3  A    between atoms: C_10  and  N_35
    4  A    between atoms: N_11  and  C_43
    5  A    between atoms: N_19  and  C_24
    6  A    between atoms: N_19  and  C_26
    7  A    between atoms: C_24  and  C_37
    8  A    between atoms: C_25  and  N_42
    9  A    between atoms: C_26  and  C_43
                            x       y       z     vdW  Elec       q    Type
                         _______ _______ _______ _____ _____    ______ ____

>  <TORSDO>
F 9

$$$$
=
 OpenBabel11042417033D

 44 50  0  0  1  0  0  0  0  0999 V2000
  189.9330  175.1370  142.3790 C   0  0  0  0  0  0  0  0  0  0  0  0
  184.2140  178.6600  143.4230 C   0  0  0  0  0  0  0  0  0  0  0  0
  188.4460  177.3620  144.1630 C   0  0  0  0  0  0  0  0  0  0  0  0
  190.5220  176.1410  143.1460 C   0  0  0  0  0  2  0  0  0  0  0  0
  187.8370  177.9950  145.1660 N   0  0  0  0  0  0  0  0  0  0  0  0
  185.6970  179.2410  145.2840 C   0  0  0  0  0  3  0  0  0  0  0  0
  186.6890  178.3720  144.6640 C   0  0  0  0  0  0  0  0  0  0  0  0
  187.4960  176.9800  143.3160 C   0  0  0  0  0  0  0  0  0  0  0  0
  185.1820  177.7510  142.8380 C   0  0  0  0  0  3  0  0  0  0  0  0
  188.3520  174.8480  142.1680 C   0  0  0  0  0  3  0  0  0  0  0  0
  186.4090  177.6760  143.5060 C   0  0  0  0  0  0  0  0  0  0  0  0
  189.7060  177.1710  144.1350 C   0  0  0  0  0  3  0  0  0  0  0  0
  184.4990  179.3930  144.6340 C   0  0  0  0  0  3  0  0  0  0  0  0
  187.3280  175.8980  142.6410 C   0  0  0  0  0  3  0  0  0  0  0  0
  181.8220  177.4080  141.1540 O   0  0  0  0  0  0  0  0  0  0  0  0
  183.4420  179.0300  140.4640 N   0  0  0  0  0  1  0  0  0  0  0  0
  182.6070  178.3810  141.4740 C   0  0  0  0  0  0  0  0  0  0  0  0
  182.8670  178.7540  142.8810 N   0  0  0  0  0  2  0  0  0  0  0  0
  190.6610  174.0320  141.8450 C   0  0  0  0  0  0  0  0  0  0  0  0
  191.9240  173.9490  142.0080 O   0  0  0  0  0  0  0  0  0  0  0  0
  189.8620  173.0850  141.0190 N   0  0  0  0  0  2  0  0  0  0  0  0
  191.1990  169.1500  140.3240 C   0  0  0  0  0  3  0  0  0  0  0  0
  191.1070  170.0100  139.2410 C   0  0  0  0  0  3  0  0  0  0  0  0
  190.3240  172.0790  138.3340 F   0  0  0  0  0  0  0  0  0  0  0  0
  190.4420  171.2200  139.3780 C   0  0  0  0  0  0  0  0  0  0  0  0
  190.1940  171.7020  140.6900 C   0  0  0  0  0  0  0  0  0  0  0  0
  190.3810  170.8600  141.7830 C   0  0  0  0  0  3  0  0  0  0  0  0
  191.0540  169.6660  141.6300 C   0  0  0  0  0  3  0  0  0  0  0  0
  187.7610  177.5100  146.4970 C   0  0  0  0  0  2  0  0  0  0  0  0
  187.4610  176.0870  146.6280 C   0  0  0  0  0  2  0  0  0  0  0  0
  188.5230  175.2810  147.3210 N   0  0  0  0  0  2  0  0  0  0  0  0
  189.3700  174.3060  146.5460 C   0  0  0  0  0  2  0  0  0  0  0  0
  191.1400  176.1390  147.4070 C   0  0  0  0  0  3  0  0  0  0  0  0
  194.1850  174.2660  144.8400 C   0  0  0  0  0  2  0  0  0  0  0  0
  192.4950  176.6030  147.2720 C   0  0  0  0  0  3  0  0  0  0  0  0
  193.0440  174.7000  145.7930 C   0  0  0  0  0  0  0  0  0  0  0  0
  191.7890  174.2330  145.7630 C   0  0  0  0  0  3  0  0  0  0  0  0
  194.7640  176.1340  146.0560 C   0  0  0  0  0  2  0  0  0  0  0  0
  195.2850  174.9040  145.5440 N   0  0  2  0  0  0  0  0  0  0  0  0
  193.3870  175.8420  146.4600 C   0  0  0  0  0  0  0  0  0  0  0  0
  190.7820  174.9170  146.5980 C   0  0  0  0  0  0  0  0  0  0  0  0
  196.6080  173.6050  144.0800 C   0  0  0  0  0  2  0  0  0  0  0  0
  196.4390  174.9140  144.6400 C   0  0  0  0  0  3  0  0  0  0  0  0
  197.4910  173.7980  145.2640 C   0  0  0  0  0  2  0  0  0  0  0  0
  1  4  1  0  0  0  0
  2 13  1  0  0  0  0
  3  5  1  0  0  0  0
  4 12  1  0  0  0  0
  5 29  1  0  0  0  0
  7  5  1  0  0  0  0
  7  6  1  0  0  0  0
  8 11  1  0  0  0  0
  8  3  1  0  0  0  0
  9  2  2  0  0  0  0
  9 11  1  0  0  0  0
 10  1  2  0  0  0  0
 10 14  1  0  0  0  0
 11  7  2  0  0  0  0
 12  3  2  0  0  0  0
 13  6  2  0  0  0  0
 14  8  2  0  0  0  0
 15 17  2  0  0  0  0
 16 17  1  0  0  0  0
 17 18  1  0  0  0  0
 18  2  1  0  0  0  0
 19 20  2  0  0  0  0
 19  1  1  0  0  0  0
 21 19  1  0  0  0  0
 22 28  1  0  0  0  0
 23 25  1  0  0  0  0
 23 22  2  0  0  0  0
 24 25  1  0  0  0  0
 25 26  2  0  0  0  0
 26 21  1  0  0  0  0
 26 27  1  0  0  0  0
 28 27  2  0  0  0  0
 29 30  1  0  0  0  0
 30 31  1  0  0  0  0
 32 41  1  0  0  0  0
 32 31  1  0  0  0  0
 34 39  1  0  0  0  0
 34 36  1  0  0  0  0
 35 33  1  0  0  0  0
 36 40  1  0  0  0  0
 37 36  2  0  0  0  0
 37 41  1  0  0  0  0
 38 40  1  0  0  0  0
 39 43  1  6  0  0  0
 39 38  1  0  0  0  0
 40 35  2  0  0  0  0
 41 33  2  0  0  0  0
 42 43  1  0  0  0  0
 42 44  1  0  0  0  0
 43 44  1  0  0  0  0
M  END
>  <MODEL>
6

>  <REMARK>
 VINA RESULT:      -8.2      3.412      9.826
  Name = 
  9 active torsions:
  status: ('A' for Active; 'I' for Inactive)
    1  A    between atoms: C_1  and  C_7
    2  A    between atoms: C_2  and  N_44
    3  A    between atoms: C_10  and  N_35
    4  A    between atoms: N_11  and  C_43
    5  A    between atoms: N_19  and  C_24
    6  A    between atoms: N_19  and  C_26
    7  A    between atoms: C_24  and  C_37
    8  A    between atoms: C_25  and  N_42
    9  A    between atoms: C_26  and  C_43
                            x       y       z     vdW  Elec       q    Type
                         _______ _______ _______ _____ _____    ______ ____

>  <TORSDO>
F 9

$$$$
=
 OpenBabel11042417033D

 44 50  0  0  1  0  0  0  0  0999 V2000
  183.5970  178.4350  142.0250 C   0  0  0  0  0  0  0  0  0  0  0  0
  189.5030  177.4220  145.2340 C   0  0  0  0  0  0  0  0  0  0  0  0
  186.6110  177.3340  141.8030 C   0  0  0  0  0  0  0  0  0  0  0  0
  184.3640  178.2910  140.8690 C   0  0  0  0  0  3  0  0  0  0  0  0
  187.6740  176.5350  141.7020 N   0  0  0  0  0  0  0  0  0  0  0  0
  189.7570  176.3700  143.0360 C   0  0  0  0  0  3  0  0  0  0  0  0
  188.4070  176.8360  142.7430 C   0  0  0  0  0  0  0  0  0  0  0  0
  186.5240  177.6980  143.0780 C   0  0  0  0  0  0  0  0  0  0  0  0
  188.1390  177.8350  144.9610 C   0  0  0  0  0  3  0  0  0  0  0  0
  184.0330  178.1110  143.5520 C   0  0  0  0  0  2  0  0  0  0  0  0
  187.6660  177.5240  143.6820 C   0  0  0  0  0  0  0  0  0  0  0  0
  185.8580  177.6040  140.8110 C   0  0  0  0  0  3  0  0  0  0  0  0
  190.2860  176.7030  144.2570 C   0  0  0  0  0  3  0  0  0  0  0  0
  185.5160  177.8370  143.8670 C   0  0  0  0  0  3  0  0  0  0  0  0
  191.9380  176.4250  147.5820 O   0  0  0  0  0  0  0  0  0  0  0  0
  189.8600  175.2520  147.3910 N   0  0  0  0  0  1  0  0  0  0  0  0
  190.6890  176.4500  147.2620 C   0  0  0  0  0  0  0  0  0  0  0  0
  190.0780  177.5990  146.5600 N   0  0  0  0  0  2  0  0  0  0  0  0
  182.1890  178.6660  142.0050 C   0  0  0  0  0  0  0  0  0  0  0  0
  181.6060  179.1920  143.0110 O   0  0  0  0  0  0  0  0  0  0  0  0
  181.4780  178.1560  140.8010 N   0  0  0  0  0  2  0  0  0  0  0  0
  177.8200  179.1520  138.9640 C   0  0  0  0  0  3  0  0  0  0  0  0
  178.6760  180.1830  139.3170 C   0  0  0  0  0  3  0  0  0  0  0  0
  180.6130  180.9140  140.5130 F   0  0  0  0  0  0  0  0  0  0  0  0
  179.7620  179.9250  140.1400 C   0  0  0  0  0  0  0  0  0  0  0  0
  180.1720  178.5750  140.3010 C   0  0  0  0  0  0  0  0  0  0  0  0
  179.3490  177.5440  139.8560 C   0  0  0  0  0  3  0  0  0  0  0  0
  178.2800  177.8190  139.0300 C   0  0  0  0  0  3  0  0  0  0  0  0
  187.6130  175.1480  141.4130 C   0  0  0  0  0  2  0  0  0  0  0  0
  188.1980  174.7480  140.1360 C   0  0  0  0  0  2  0  0  0  0  0  0
  189.5180  174.0390  140.2430 N   0  0  0  0  0  2  0  0  0  0  0  0
  189.5920  172.6380  140.7920 C   0  0  0  0  0  2  0  0  0  0  0  0
  189.6960  172.3640  143.4660 C   0  0  0  0  0  3  0  0  0  0  0  0
  193.5560  174.4770  143.4370 C   0  0  0  0  0  2  0  0  0  0  0  0
  190.4690  172.6730  144.6380 C   0  0  0  0  0  3  0  0  0  0  0  0
  192.2780  173.6240  143.2470 C   0  0  0  0  0  0  0  0  0  0  0  0
  191.6060  173.4770  142.0980 C   0  0  0  0  0  3  0  0  0  0  0  0
  192.6730  173.8190  145.4600 C   0  0  0  0  0  2  0  0  0  0  0  0
  193.9110  174.0120  144.7680 N   0  0  2  0  0  0  0  0  0  0  0  0
  191.7400  173.2950  144.4600 C   0  0  0  0  0  0  0  0  0  0  0  0
  190.2910  172.8080  142.1530 C   0  0  0  0  0  0  0  0  0  0  0  0
  196.1180  174.8190  144.5320 C   0  0  0  0  0  2  0  0  0  0  0  0
  194.9150  174.9360  145.3030 C   0  0  0  0  0  3  0  0  0  0  0  0
  196.1870  173.9780  145.7610 C   0  0  0  0  0  2  0  0  0  0  0  0
  1 10  1  0  0  0  0
  2 18  1  0  0  0  0
  3  8  1  0  0  0  0
  4  1  2  0  0  0  0
  5  3  1  0  0  0  0
  5  7  1  0  0  0  0
  6 13  1  0  0  0  0
  7  6  2  0  0  0  0
  7 11  1  0  0  0  0
  8 11  1  0  0  0  0
  8 14  2  0  0  0  0
  9  2  1  0  0  0  0
 10 14  1  0  0  0  0
 11  9  2  0  0  0  0
 12  4  1  0  0  0  0
 12  3  2  0  0  0  0
 13  2  2  0  0  0  0
 17 16  1  0  0  0  0
 17 15  2  0  0  0  0
 18 17  1  0  0  0  0
 19  1  1  0  0  0  0
 19 20  2  0  0  0  0
 21 19  1  0  0  0  0
 22 28  2  0  0  0  0
 22 23  1  0  0  0  0
 23 25  2  0  0  0  0
 25 26  1  0  0  0  0
 25 24  1  0  0  0  0
 26 21  1  0  0  0  0
 27 26  2  0  0  0  0
 28 27  1  0  0  0  0
 29  5  1  0  0  0  0
 30 31  1  0  0  0  0
 30 29  1  0  0  0  0
 31 32  1  0  0  0  0
 32 41  1  0  0  0  0
 33 35  1  0  0  0  0
 34 39  1  0  0  0  0
 36 34  1  0  0  0  0
 36 40  1  0  0  0  0
 37 41  1  0  0  0  0
 37 36  2  0  0  0  0
 39 43  1  1  0  0  0
 39 38  1  0  0  0  0
 40 35  2  0  0  0  0
 40 38  1  0  0  0  0
 41 33  2  0  0  0  0
 42 43  1  0  0  0  0
 42 44  1  0  0  0  0
 43 44  1  0  0  0  0
M  END
>  <MODEL>
7

>  <REMARK>
 VINA RESULT:      -8.0      3.918      8.362
  Name = 
  9 active torsions:
  status: ('A' for Active; 'I' for Inactive)
    1  A    between atoms: C_1  and  C_7
    2  A    between atoms: C_2  and  N_44
    3  A    between atoms: C_10  and  N_35
    4  A    between atoms: N_11  and  C_43
    5  A    between atoms: N_19  and  C_24
    6  A    between atoms: N_19  and  C_26
    7  A    between atoms: C_24  and  C_37
    8  A    between atoms: C_25  and  N_42
    9  A    between atoms: C_26  and  C_43
                            x       y       z     vdW  Elec       q    Type
                         _______ _______ _______ _____ _____    ______ ____

>  <TORSDO>
F 9

$$$$
=
 OpenBabel11042417033D

 44 50  0  0  1  0  0  0  0  0999 V2000
  193.3950  176.4750  145.0140 C   0  0  0  0  0  0  0  0  0  0  0  0
  186.8800  178.3650  144.5810 C   0  0  0  0  0  0  0  0  0  0  0  0
  190.5290  176.5610  146.4710 C   0  0  0  0  0  0  0  0  0  0  0  0
  193.1380  176.4150  146.3840 C   0  0  0  0  0  2  0  0  0  0  0  0
  189.3550  176.2140  147.0010 N   0  0  0  0  0  0  0  0  0  0  0  0
  187.0620  177.0930  146.6680 C   0  0  0  0  0  3  0  0  0  0  0  0
  188.4820  176.9560  146.3700 C   0  0  0  0  0  0  0  0  0  0  0  0
  190.2720  177.0980  145.2830 C   0  0  0  0  0  0  0  0  0  0  0  0
  188.2830  178.1790  144.2590 C   0  0  0  0  0  3  0  0  0  0  0  0
  192.3220  176.6290  143.8090 C   0  0  0  0  0  3  0  0  0  0  0  0
  189.0270  177.4800  145.2150 C   0  0  0  0  0  0  0  0  0  0  0  0
  191.6400  176.3390  147.0570 C   0  0  0  0  0  3  0  0  0  0  0  0
  186.3030  177.8220  145.7880 C   0  0  0  0  0  3  0  0  0  0  0  0
  190.8640  176.9950  144.1450 C   0  0  0  0  0  3  0  0  0  0  0  0
  183.7580  178.2900  142.9450 O   0  0  0  0  0  0  0  0  0  0  0  0
  185.6170  177.0370  142.1060 N   0  0  0  0  0  1  0  0  0  0  0  0
  185.0370  178.1580  142.8430 C   0  0  0  0  0  0  0  0  0  0  0  0
  185.9780  178.9890  143.6240 N   0  0  0  0  0  2  0  0  0  0  0  0
  194.6620  176.1540  144.4420 C   0  0  0  0  0  0  0  0  0  0  0  0
  195.6920  176.0140  145.1840 O   0  0  0  0  0  0  0  0  0  0  0  0
  194.6940  176.1100  142.9540 N   0  0  0  0  0  2  0  0  0  0  0  0
  197.2770  174.3060  140.1570 C   0  0  0  0  0  3  0  0  0  0  0  0
  196.6190  173.4880  141.0620 C   0  0  0  0  0  3  0  0  0  0  0  0
  195.3200  173.2760  143.0580 F   0  0  0  0  0  0  0  0  0  0  0  0
  195.9650  174.0500  142.1480 C   0  0  0  0  0  0  0  0  0  0  0  0
  195.6790  175.4400  142.1090 C   0  0  0  0  0  0  0  0  0  0  0  0
  196.2690  176.2410  141.1360 C   0  0  0  0  0  3  0  0  0  0  0  0
  196.9070  175.6650  140.0580 C   0  0  0  0  0  3  0  0  0  0  0  0
  188.9350  174.8770  147.2190 C   0  0  0  0  0  2  0  0  0  0  0  0
  189.7030  173.8550  146.5130 C   0  0  0  0  0  2  0  0  0  0  0  0
  189.3170  173.6600  145.0750 N   0  0  0  0  0  2  0  0  0  0  0  0
  190.3400  173.2130  144.0630 C   0  0  0  0  0  2  0  0  0  0  0  0
  188.6700  174.7040  142.5710 C   0  0  0  0  0  3  0  0  0  0  0  0
  190.1070  172.5690  139.0010 C   0  0  0  0  0  2  0  0  0  0  0  0
  188.1910  174.9300  141.2340 C   0  0  0  0  0  3  0  0  0  0  0  0
  189.8320  173.3180  140.3280 C   0  0  0  0  0  0  0  0  0  0  0  0
  190.2870  172.9520  141.5330 C   0  0  0  0  0  3  0  0  0  0  0  0
  188.4590  174.1580  138.7480 C   0  0  0  0  0  2  0  0  0  0  0  0
  189.5910  173.5800  138.0920 N   0  0  2  0  0  0  0  0  0  0  0  0
  188.8120  174.2140  140.1680 C   0  0  0  0  0  0  0  0  0  0  0  0
  189.7450  173.6550  142.7130 C   0  0  0  0  0  0  0  0  0  0  0  0
  190.6200  172.2020  136.4720 C   0  0  0  0  0  2  0  0  0  0  0  0
  189.4360  172.9500  136.7770 C   0  0  0  0  0  3  0  0  0  0  0  0
  190.6710  173.5580  135.8550 C   0  0  0  0  0  2  0  0  0  0  0  0
  1  4  1  0  0  0  0
  2 13  1  0  0  0  0
  3  5  1  0  0  0  0
  3 12  2  0  0  0  0
  4 12  1  0  0  0  0
  5 29  1  0  0  0  0
  7  6  1  0  0  0  0
  7  5  1  0  0  0  0
  8  3  1  0  0  0  0
  9  2  2  0  0  0  0
  9 11  1  0  0  0  0
 10 14  1  0  0  0  0
 10  1  2  0  0  0  0
 11  8  1  0  0  0  0
 11  7  2  0  0  0  0
 13  6  2  0  0  0  0
 14  8  2  0  0  0  0
 16 17  1  0  0  0  0
 17 15  2  0  0  0  0
 17 18  1  0  0  0  0
 18  2  1  0  0  0  0
 19  1  1  0  0  0  0
 19 20  2  0  0  0  0
 21 19  1  0  0  0  0
 22 23  1  0  0  0  0
 23 25  2  0  0  0  0
 25 24  1  0  0  0  0
 26 25  1  0  0  0  0
 26 21  1  0  0  0  0
 27 26  2  0  0  0  0
 28 22  2  0  0  0  0
 28 27  1  0  0  0  0
 30 29  1  0  0  0  0
 31 30  1  0  0  0  0
 32 31  1  0  0  0  0
 33 41  1  0  0  0  0
 34 36  1  0  0  0  0
 35 33  2  0  0  0  0
 36 37  1  0  0  0  0
 37 41  2  0  0  0  0
 38 40  1  0  0  0  0
 39 43  1  6  0  0  0
 39 38  1  0  0  0  0
 39 34  1  0  0  0  0
 40 36  2  0  0  0  0
 40 35  1  0  0  0  0
 41 32  1  0  0  0  0
 42 43  1  0  0  0  0
 44 42  1  0  0  0  0
 44 43  1  0  0  0  0
M  END
>  <MODEL>
8

>  <REMARK>
 VINA RESULT:      -7.9      3.543      8.597
  Name = 
  9 active torsions:
  status: ('A' for Active; 'I' for Inactive)
    1  A    between atoms: C_1  and  C_7
    2  A    between atoms: C_2  and  N_44
    3  A    between atoms: C_10  and  N_35
    4  A    between atoms: N_11  and  C_43
    5  A    between atoms: N_19  and  C_24
    6  A    between atoms: N_19  and  C_26
    7  A    between atoms: C_24  and  C_37
    8  A    between atoms: C_25  and  N_42
    9  A    between atoms: C_26  and  C_43
                            x       y       z     vdW  Elec       q    Type
                         _______ _______ _______ _____ _____    ______ ____

>  <TORSDO>
F 9

$$$$
=
 OpenBabel11042417033D

 44 50  0  0  1  0  0  0  0  0999 V2000
  189.5750  175.9260  146.4760 C   0  0  0  0  0  0  0  0  0  0  0  0
  194.9060  171.8880  145.2620 C   0  0  0  0  0  0  0  0  0  0  0  0
  192.7800  175.6850  146.3610 C   0  0  0  0  0  0  0  0  0  0  0  0
  190.5090  176.7210  147.1390 C   0  0  0  0  0  2  0  0  0  0  0  0
  194.0570  175.8060  145.9950 N   0  0  0  0  0  0  0  0  0  0  0  0
  195.8400  174.1250  145.6180 C   0  0  0  0  0  3  0  0  0  0  0  0
  194.4730  174.5740  145.8550 C   0  0  0  0  0  0  0  0  0  0  0  0
  192.3790  174.4800  145.9660 C   0  0  0  0  0  0  0  0  0  0  0  0
  193.5420  172.3480  145.4410 C   0  0  0  0  0  3  0  0  0  0  0  0
  189.8600  174.6640  145.5000 C   0  0  0  0  0  3  0  0  0  0  0  0
  193.4060  173.7040  145.7570 C   0  0  0  0  0  0  0  0  0  0  0  0
  192.1390  176.6230  146.9390 C   0  0  0  0  0  3  0  0  0  0  0  0
  196.0290  172.7910  145.3630 C   0  0  0  0  0  3  0  0  0  0  0  0
  191.2800  174.0690  145.4390 C   0  0  0  0  0  3  0  0  0  0  0  0
  197.0600  169.6690  143.5660 O   0  0  0  0  0  0  0  0  0  0  0  0
  195.4060  170.9280  142.3780 N   0  0  0  0  0  1  0  0  0  0  0  0
  195.9200  170.2730  143.5810 C   0  0  0  0  0  0  0  0  0  0  0  0
  195.1760  170.5230  144.8340 N   0  0  0  0  0  2  0  0  0  0  0  0
  188.1950  176.2710  146.3630 C   0  0  0  0  0  0  0  0  0  0  0  0
  187.3890  176.0370  147.3250 O   0  0  0  0  0  0  0  0  0  0  0  0
  187.7790  176.8020  145.0360 N   0  0  0  0  0  2  0  0  0  0  0  0
  184.1850  178.9480  144.5650 C   0  0  0  0  0  3  0  0  0  0  0  0
  184.4640  177.9350  143.6620 C   0  0  0  0  0  3  0  0  0  0  0  0
  186.0420  176.3910  142.7450 F   0  0  0  0  0  0  0  0  0  0  0  0
  185.7330  177.3770  143.6240 C   0  0  0  0  0  0  0  0  0  0  0  0
  186.5920  177.5960  144.7330 C   0  0  0  0  0  0  0  0  0  0  0  0
  186.2570  178.5500  145.6900 C   0  0  0  0  0  3  0  0  0  0  0  0
  184.9870  179.0860  145.7180 C   0  0  0  0  0  3  0  0  0  0  0  0
  194.5270  176.6980  144.9990 C   0  0  0  0  0  2  0  0  0  0  0  0
  194.7490  176.1070  143.6820 C   0  0  0  0  0  2  0  0  0  0  0  0
  193.6850  176.4140  142.6660 N   0  0  0  0  0  2  0  0  0  0  0  0
  192.3290  176.9040  143.1040 C   0  0  0  0  0  2  0  0  0  0  0  0
  189.8560  176.1340  142.3770 C   0  0  0  0  0  3  0  0  0  0  0  0
  191.5790  172.3910  140.8310 C   0  0  0  0  0  2  0  0  0  0  0  0
  189.0970  175.0660  141.7860 C   0  0  0  0  0  3  0  0  0  0  0  0
  191.1680  173.8150  141.2800 C   0  0  0  0  0  0  0  0  0  0  0  0
  191.9680  174.6960  141.8950 C   0  0  0  0  0  3  0  0  0  0  0  0
  189.2980  172.6860  140.7150 C   0  0  0  0  0  2  0  0  0  0  0  0
  190.4020  172.0870  140.0330 N   0  0  2  0  0  0  0  0  0  0  0  0
  189.8070  173.9470  141.2590 C   0  0  0  0  0  0  0  0  0  0  0  0
  191.3480  175.9170  142.4460 C   0  0  0  0  0  0  0  0  0  0  0  0
  191.5950  170.3050  139.0410 C   0  0  0  0  0  2  0  0  0  0  0  0
  190.4090  170.6440  139.7720 C   0  0  0  0  0  3  0  0  0  0  0  0
  190.4390  170.5000  138.1220 C   0  0  0  0  0  2  0  0  0  0  0  0
  1  4  1  0  0  0  0
  2 13  2  0  0  0  0
  2  9  1  0  0  0  0
  3 12  2  0  0  0  0
  5  3  1  0  0  0  0
  6  7  2  0  0  0  0
  7  5  1  0  0  0  0
  8  3  1  0  0  0  0
  9 11  2  0  0  0  0
 10  1  2  0  0  0  0
 11  7  1  0  0  0  0
 11  8  1  0  0  0  0
 12  4  1  0  0  0  0
 13  6  1  0  0  0  0
 14 10  1  0  0  0  0
 14  8  2  0  0  0  0
 15 17  2  0  0  0  0
 16 17  1  0  0  0  0
 17 18  1  0  0  0  0
 18  2  1  0  0  0  0
 19  1  1  0  0  0  0
 19 20  2  0  0  0  0
 21 19  1  0  0  0  0
 22 28  1  0  0  0  0
 23 22  2  0  0  0  0
 24 25  1  0  0  0  0
 25 23  1  0  0  0  0
 25 26  2  0  0  0  0
 26 21  1  0  0  0  0
 26 27  1  0  0  0  0
 27 28  2  0  0  0  0
 29  5  1  0  0  0  0
 30 29  1  0  0  0  0
 31 32  1  0  0  0  0
 31 30  1  0  0  0  0
 33 41  1  0  0  0  0
 34 36  1  0  0  0  0
 35 33  2  0  0  0  0
 36 37  1  0  0  0  0
 37 41  2  0  0  0  0
 38 40  1  0  0  0  0
 39 43  1  1  0  0  0
 39 38  1  0  0  0  0
 39 34  1  0  0  0  0
 40 36  2  0  0  0  0
 40 35  1  0  0  0  0
 41 32  1  0  0  0  0
 42 43  1  0  0  0  0
 44 42  1  0  0  0  0
 44 43  1  0  0  0  0
M  END
>  <MODEL>
9

>  <REMARK>
 VINA RESULT:      -7.9      2.245      3.825
  Name = 
  9 active torsions:
  status: ('A' for Active; 'I' for Inactive)
    1  A    between atoms: C_1  and  C_7
    2  A    between atoms: C_2  and  N_44
    3  A    between atoms: C_10  and  N_35
    4  A    between atoms: N_11  and  C_43
    5  A    between atoms: N_19  and  C_24
    6  A    between atoms: N_19  and  C_26
    7  A    between atoms: C_24  and  C_37
    8  A    between atoms: C_25  and  N_42
    9  A    between atoms: C_26  and  C_43
                            x       y       z     vdW  Elec       q    Type
                         _______ _______ _______ _____ _____    ______ ____

>  <TORSDO>
F 9

$$$$
