=
 OpenBabel11042419023D

 41 44  0  0  1  0  0  0  0  0999 V2000
  188.9970  175.4820  142.8020 C   0  0  0  0  0  0  0  0  0  0  0  0
  189.5420  177.1470  145.7040 C   0  0  0  0  0  2  0  0  0  0  0  0
  188.3380  176.4060  145.1350 C   0  0  0  0  0  2  0  0  0  0  0  0
  190.1390  172.0220  141.9120 N   0  0  0  0  0  2  0  0  0  0  0  0
  190.3690  170.8210  139.9380 O   0  0  0  0  0  0  0  0  0  0  0  0
  189.8490  174.3290  144.8090 C   0  0  1  0  0  3  0  0  0  0  0  0
  189.9830  173.1260  143.9890 N   0  0  0  0  0  0  0  0  0  0  0  0
  189.8600  173.1940  142.6890 C   0  0  0  0  0  0  0  0  0  0  0  0
  189.9870  171.8870  140.4930 C   0  0  0  0  0  0  0  0  0  0  0  0
  188.7090  175.1980  144.2650 C   0  0  2  0  0  3  0  0  0  0  0  0
  190.3310  176.4150  146.8120 C   0  0  1  0  0  3  0  0  0  0  0  0
  189.4940  174.4930  142.0510 C   0  0  0  0  0  3  0  0  0  0  0  0
  189.8900  174.9990  147.1690 C   0  0  0  0  0  3  0  0  0  0  0  0
  189.6950  174.0280  146.2630 C   0  0  0  0  0  3  0  0  0  0  0  0
  191.7980  176.4970  146.5090 C   0  0  0  0  0  0  0  0  0  0  0  0
  192.6460  176.0820  147.3520 O   0  0  0  0  0  0  0  0  0  0  0  0
  192.2290  176.9770  145.2310 N   0  0  0  0  0  2  0  0  0  0  0  0
  193.5950  176.7940  144.7280 C   0  0  0  0  0  2  0  0  0  0  0  0
  194.2760  173.7350  141.9530 S   0  0  0  0  0  0  0  0  0  0  0  0
  193.6570  171.3550  143.1520 C   0  0  0  0  0  1  0  0  0  0  0  0
  195.4450  172.8610  144.2230 C   0  0  1  0  0  3  0  0  0  0  0  0
  194.8350  172.2980  142.9270 C   0  0  2  0  0  3  0  0  0  0  0  0
  194.8470  174.1520  144.4850 N   0  0  0  0  0  0  0  0  0  0  0  0
  194.2850  174.6900  143.4550 C   0  0  0  0  0  0  0  0  0  0  0  0
  193.6000  175.9410  143.5400 N   0  0  0  0  0  2  0  0  0  0  0  0
  195.3510  171.9500  145.4410 C   0  0  0  0  0  2  0  0  0  0  0  0
  197.6960  171.9200  144.9900 O   0  0  0  0  0  1  0  0  0  0  0  0
  196.7410  171.6430  145.9690 C   0  0  0  0  0  2  0  0  0  0  0  0
  189.4300  172.9240  139.7260 O   0  0  0  0  0  0  0  0  0  0  0  0
  188.2880  172.7160  138.8980 C   0  0  0  0  0  1  0  0  0  0  0  0
  188.8520  177.1280  142.0960 S   0  0  0  0  0  0  0  0  0  0  0  0
  187.0300  177.1070  141.9990 C   0  0  2  0  0  3  0  0  0  0  0  0
  186.6280  177.2300  140.5440 C   0  0  0  0  0  2  0  0  0  0  0  0
  185.5250  178.2490  140.5420 C   0  0  0  0  0  2  0  0  0  0  0  0
  185.3880  178.6770  141.9930 C   0  0  2  0  0  3  0  0  0  0  0  0
  186.4890  178.1910  142.7240 O   0  0  0  0  0  0  0  0  0  0  0  0
  184.0750  178.1630  142.5920 C   0  0  1  0  0  3  0  0  0  0  0  0
  183.6680  179.0010  143.8000 C   0  0  0  0  0  2  0  0  0  0  0  0
  184.2230  178.4220  145.0090 N   0  0  0  0  0  1  0  0  0  0  0  0
  181.8770  178.6150  141.8450 O   0  0  0  0  0  0  0  0  0  0  0  0
  182.9900  178.2030  141.5590 C   0  0  0  0  0  3  0  0  0  0  0  0
  1 10  1  0  0  0  0
  2 11  1  0  0  0  0
  3  2  1  0  0  0  0
  4  8  1  0  0  0  0
  5  9  2  0  0  0  0
  6 14  1  1  0  0  0
  7  6  1  0  0  0  0
  8  7  2  0  0  0  0
  9  4  1  0  0  0  0
 10  6  1  0  0  0  0
 10  3  1  1  0  0  0
 11 15  1  6  0  0  0
 11 13  1  0  0  0  0
 12  8  1  0  0  0  0
 12  1  2  0  0  0  0
 14 13  2  0  0  0  0
 15 16  2  0  0  0  0
 17 15  1  0  0  0  0
 18 17  1  0  0  0  0
 19 22  1  0  0  0  0
 19 24  1  0  0  0  0
 21 23  1  0  0  0  0
 21 26  1  1  0  0  0
 22 20  1  1  0  0  0
 22 21  1  0  0  0  0
 24 25  1  0  0  0  0
 24 23  2  0  0  0  0
 25 18  1  0  0  0  0
 26 28  1  0  0  0  0
 27 28  1  0  0  0  0
 29  9  1  0  0  0  0
 30 29  1  0  0  0  0
 31  1  1  0  0  0  0
 32 31  1  6  0  0  0
 32 36  1  0  0  0  0
 33 32  1  0  0  0  0
 34 33  1  0  0  0  0
 34 35  1  0  0  0  0
 35 37  1  1  0  0  0
 35 36  1  0  0  0  0
 37 41  1  6  0  0  0
 37 38  1  0  0  0  0
 38 39  1  0  0  0  0
 41 40  2  0  0  0  0
M  END
>  <MODEL>
1

>  <REMARK>
 VINA RESULT:      -7.0      0.000      0.000
  Name = 
  11 active torsions:
  status: ('A' for Active; 'I' for Inactive)
    1  A    between atoms: C_1  and  S_21
    2  A    between atoms: C_3  and  S_21
    3  A    between atoms: C_9  and  C_28
    4  A    between atoms: C_10  and  C_15
    5  A    between atoms: C_12  and  N_29
    6  A    between atoms: C_12  and  N_41
    7  A    between atoms: C_13  and  C_30
    8  A    between atoms: C_13  and  C_34
    9  A    between atoms: C_14  and  C_15
   10  A    between atoms: C_15  and  C_26
   11  A    between atoms: C_24  and  O_35
                            x       y       z     vdW  Elec       q    Type
                         _______ _______ _______ _____ _____    ______ ____

>  <TORSDO>
F 11

$$$$
=
 OpenBabel11042419023D

 41 44  0  0  1  0  0  0  0  0999 V2000
  194.2450  173.6970  143.5540 C   0  0  0  0  0  0  0  0  0  0  0  0
  192.2680  174.5040  146.1860 C   0  0  0  0  0  2  0  0  0  0  0  0
  193.6570  173.8870  146.0740 C   0  0  0  0  0  2  0  0  0  0  0  0
  196.3280  176.0200  141.4730 N   0  0  0  0  0  2  0  0  0  0  0  0
  197.3540  175.8960  139.3930 O   0  0  0  0  0  0  0  0  0  0  0  0
  194.3710  175.9130  144.6280 C   0  0  1  0  0  3  0  0  0  0  0  0
  195.3190  176.3000  143.5850 N   0  0  0  0  0  0  0  0  0  0  0  0
  195.4990  175.5380  142.5380 C   0  0  0  0  0  0  0  0  0  0  0  0
  196.6970  175.3000  140.2900 C   0  0  0  0  0  0  0  0  0  0  0  0
  194.4680  174.4030  144.8780 C   0  0  2  0  0  3  0  0  0  0  0  0
  192.2130  175.9880  146.6130 C   0  0  1  0  0  3  0  0  0  0  0  0
  194.7940  174.2250  142.4530 C   0  0  0  0  0  3  0  0  0  0  0  0
  193.5430  176.7140  146.7950 C   0  0  0  0  0  3  0  0  0  0  0  0
  194.5260  176.7120  145.8810 C   0  0  0  0  0  3  0  0  0  0  0  0
  191.2780  176.7280  145.7040 C   0  0  0  0  0  0  0  0  0  0  0  0
  190.3710  177.4660  146.1900 O   0  0  0  0  0  0  0  0  0  0  0  0
  191.4630  176.6540  144.2870 N   0  0  0  0  0  2  0  0  0  0  0  0
  190.8200  177.5790  143.3470 C   0  0  0  0  0  2  0  0  0  0  0  0
  187.1140  176.0990  142.0810 S   0  0  0  0  0  0  0  0  0  0  0  0
  185.3860  178.2100  141.8850 C   0  0  0  0  0  1  0  0  0  0  0  0
  186.5200  177.7350  144.1430 C   0  0  1  0  0  3  0  0  0  0  0  0
  185.8600  177.1550  142.8790 C   0  0  2  0  0  3  0  0  0  0  0  0
  187.9530  177.7580  143.9410 N   0  0  0  0  0  0  0  0  0  0  0  0
  188.3620  176.9790  142.9960 C   0  0  0  0  0  0  0  0  0  0  0  0
  189.7390  176.9120  142.6210 N   0  0  0  0  0  2  0  0  0  0  0  0
  186.0020  179.0980  144.5860 C   0  0  0  0  0  2  0  0  0  0  0  0
  184.0520  178.8320  145.9390 O   0  0  0  0  0  1  0  0  0  0  0  0
  185.4350  179.0060  145.9920 C   0  0  0  0  0  2  0  0  0  0  0  0
  196.3300  173.9550  140.1210 O   0  0  0  0  0  0  0  0  0  0  0  0
  196.4690  173.2880  138.8680 C   0  0  0  0  0  1  0  0  0  0  0  0
  193.1430  172.2870  143.3910 S   0  0  0  0  0  0  0  0  0  0  0  0
  191.9370  173.1420  142.3220 C   0  0  2  0  0  3  0  0  0  0  0  0
  190.6870  173.4120  143.1330 C   0  0  0  0  0  2  0  0  0  0  0  0
  189.5570  173.0120  142.2290 C   0  0  0  0  0  2  0  0  0  0  0  0
  190.2290  172.5000  140.9670 C   0  0  2  0  0  3  0  0  0  0  0  0
  191.6060  172.3330  141.2130 O   0  0  0  0  0  0  0  0  0  0  0  0
  190.0050  173.4660  139.7990 C   0  0  1  0  0  3  0  0  0  0  0  0
  190.7940  173.0200  138.5720 C   0  0  0  0  0  2  0  0  0  0  0  0
  190.6340  173.9910  137.5050 N   0  0  0  0  0  1  0  0  0  0  0  0
  187.9340  172.5320  139.1440 O   0  0  0  0  0  0  0  0  0  0  0  0
  188.5460  173.5370  139.4650 C   0  0  0  0  0  3  0  0  0  0  0  0
  1 10  1  0  0  0  0
  2 11  1  0  0  0  0
  3  2  1  0  0  0  0
  4  8  1  0  0  0  0
  5  9  2  0  0  0  0
  6 10  1  0  0  0  0
  6 14  1  1  0  0  0
  7  6  1  0  0  0  0
  8  7  2  0  0  0  0
  9  4  1  0  0  0  0
 10  3  1  1  0  0  0
 11 15  1  6  0  0  0
 11 13  1  0  0  0  0
 12  8  1  0  0  0  0
 12  1  2  0  0  0  0
 14 13  2  0  0  0  0
 15 16  2  0  0  0  0
 17 15  1  0  0  0  0
 18 17  1  0  0  0  0
 19 22  1  0  0  0  0
 19 24  1  0  0  0  0
 21 26  1  6  0  0  0
 22 20  1  6  0  0  0
 22 21  1  0  0  0  0
 23 21  1  0  0  0  0
 24 23  2  0  0  0  0
 25 24  1  0  0  0  0
 25 18  1  0  0  0  0
 26 28  1  0  0  0  0
 27 28  1  0  0  0  0
 29  9  1  0  0  0  0
 30 29  1  0  0  0  0
 31  1  1  0  0  0  0
 32 33  1  0  0  0  0
 32 31  1  1  0  0  0
 34 33  1  0  0  0  0
 35 37  1  6  0  0  0
 35 36  1  0  0  0  0
 35 34  1  0  0  0  0
 36 32  1  0  0  0  0
 37 38  1  6  0  0  0
 39 38  1  0  0  0  0
 40 41  2  0  0  0  0
 41 37  1  0  0  0  0
M  END
>  <MODEL>
2

>  <REMARK>
 VINA RESULT:      -6.9      2.702      7.651
  Name = 
  11 active torsions:
  status: ('A' for Active; 'I' for Inactive)
    1  A    between atoms: C_1  and  S_21
    2  A    between atoms: C_3  and  S_21
    3  A    between atoms: C_9  and  C_28
    4  A    between atoms: C_10  and  C_15
    5  A    between atoms: C_12  and  N_29
    6  A    between atoms: C_12  and  N_41
    7  A    between atoms: C_13  and  C_30
    8  A    between atoms: C_13  and  C_34
    9  A    between atoms: C_14  and  C_15
   10  A    between atoms: C_15  and  C_26
   11  A    between atoms: C_24  and  O_35
                            x       y       z     vdW  Elec       q    Type
                         _______ _______ _______ _____ _____    ______ ____

>  <TORSDO>
F 11

$$$$
=
 OpenBabel11042419023D

 41 44  0  0  1  0  0  0  0  0999 V2000
  190.1360  177.2050  144.6540 C   0  0  0  0  0  0  0  0  0  0  0  0
  192.9960  175.5600  143.8770 C   0  0  0  0  0  2  0  0  0  0  0  0
  192.7070  176.8570  144.6220 C   0  0  0  0  0  2  0  0  0  0  0  0
  187.7170  176.3940  147.4020 N   0  0  0  0  0  2  0  0  0  0  0  0
  185.5180  176.9670  147.8830 O   0  0  0  0  0  0  0  0  0  0  0  0
  191.1180  175.5350  146.1800 C   0  0  1  0  0  3  0  0  0  0  0  0
  189.9410  175.7070  147.0310 N   0  0  0  0  0  0  0  0  0  0  0  0
  188.9010  176.3710  146.5960 C   0  0  0  0  0  0  0  0  0  0  0  0
  186.5150  177.1260  147.1270 C   0  0  0  0  0  0  0  0  0  0  0  0
  191.3950  176.8350  145.4160 C   0  0  2  0  0  3  0  0  0  0  0  0
  193.3830  174.3450  144.7490 C   0  0  1  0  0  3  0  0  0  0  0  0
  188.9550  177.0280  145.2570 C   0  0  0  0  0  3  0  0  0  0  0  0
  193.3550  174.5310  146.2630 C   0  0  0  0  0  3  0  0  0  0  0  0
  192.3120  175.0470  146.9320 C   0  0  0  0  0  3  0  0  0  0  0  0
  192.5940  173.1490  144.3060 C   0  0  0  0  0  0  0  0  0  0  0  0
  192.9120  171.9920  144.7100 O   0  0  0  0  0  0  0  0  0  0  0  0
  191.4350  173.3310  143.4860 N   0  0  0  0  0  2  0  0  0  0  0  0
  190.4320  172.2820  143.2740 C   0  0  0  0  0  2  0  0  0  0  0  0
  190.9300  170.2760  139.6330 S   0  0  0  0  0  0  0  0  0  0  0  0
  191.5730  172.1320  137.7300 C   0  0  0  0  0  1  0  0  0  0  0  0
  189.3710  172.3950  139.0310 C   0  0  1  0  0  3  0  0  0  0  0  0
  190.3640  171.4370  138.3470 C   0  0  2  0  0  3  0  0  0  0  0  0
  189.6860  172.4470  140.4420 N   0  0  0  0  0  0  0  0  0  0  0  0
  190.4020  171.4560  140.8570 C   0  0  0  0  0  0  0  0  0  0  0  0
  190.8520  171.3700  142.2100 N   0  0  0  0  0  2  0  0  0  0  0  0
  189.2900  173.7930  138.4300 C   0  0  0  0  0  2  0  0  0  0  0  0
  187.7240  175.2470  137.3640 O   0  0  0  0  0  1  0  0  0  0  0  0
  188.0650  173.9060  137.5410 C   0  0  0  0  0  2  0  0  0  0  0  0
  186.4390  177.9990  146.0300 O   0  0  0  0  0  0  0  0  0  0  0  0
  185.8640  179.3000  146.1430 C   0  0  0  0  0  1  0  0  0  0  0  0
  190.1700  177.7070  142.9290 S   0  0  0  0  0  0  0  0  0  0  0  0
  188.4260  177.2870  142.5990 C   0  0  2  0  0  3  0  0  0  0  0  0
  188.3900  176.0470  141.7310 C   0  0  0  0  0  2  0  0  0  0  0  0
  187.3760  176.3590  140.6690 C   0  0  0  0  0  2  0  0  0  0  0  0
  186.9210  177.7760  140.9690 C   0  0  2  0  0  3  0  0  0  0  0  0
  187.7880  178.3480  141.9200 O   0  0  0  0  0  0  0  0  0  0  0  0
  185.4760  177.7890  141.4810 C   0  0  1  0  0  3  0  0  0  0  0  0
  185.3590  178.6350  142.7450 C   0  0  0  0  0  2  0  0  0  0  0  0
  183.9930  178.6040  143.2320 N   0  0  0  0  0  1  0  0  0  0  0  0
  183.7380  177.6030  139.8890 O   0  0  0  0  0  0  0  0  0  0  0  0
  184.5620  178.3270  140.4230 C   0  0  0  0  0  3  0  0  0  0  0  0
  1 12  2  0  0  0  0
  1 10  1  0  0  0  0
  2  3  1  0  0  0  0
  2 11  1  0  0  0  0
  6 14  1  1  0  0  0
  6  7  1  0  0  0  0
  8  7  2  0  0  0  0
  8  4  1  0  0  0  0
  9  4  1  0  0  0  0
  9  5  2  0  0  0  0
 10  3  1  6  0  0  0
 10  6  1  0  0  0  0
 11 15  1  1  0  0  0
 11 13  1  0  0  0  0
 12  8  1  0  0  0  0
 13 14  2  0  0  0  0
 15 16  2  0  0  0  0
 17 15  1  0  0  0  0
 18 17  1  0  0  0  0
 19 24  1  0  0  0  0
 21 26  1  6  0  0  0
 21 23  1  0  0  0  0
 22 20  1  1  0  0  0
 22 21  1  0  0  0  0
 22 19  1  0  0  0  0
 23 24  2  0  0  0  0
 24 25  1  0  0  0  0
 25 18  1  0  0  0  0
 27 28  1  0  0  0  0
 28 26  1  0  0  0  0
 29 30  1  0  0  0  0
 29  9  1  0  0  0  0
 31  1  1  0  0  0  0
 32 31  1  6  0  0  0
 33 32  1  0  0  0  0
 34 35  1  0  0  0  0
 34 33  1  0  0  0  0
 35 37  1  1  0  0  0
 35 36  1  0  0  0  0
 36 32  1  0  0  0  0
 37 41  1  6  0  0  0
 37 38  1  0  0  0  0
 38 39  1  0  0  0  0
 40 41  2  0  0  0  0
M  END
>  <MODEL>
3

>  <REMARK>
 VINA RESULT:      -6.9      2.573      5.890
  Name = 
  11 active torsions:
  status: ('A' for Active; 'I' for Inactive)
    1  A    between atoms: C_1  and  S_21
    2  A    between atoms: C_3  and  S_21
    3  A    between atoms: C_9  and  C_28
    4  A    between atoms: C_10  and  C_15
    5  A    between atoms: C_12  and  N_29
    6  A    between atoms: C_12  and  N_41
    7  A    between atoms: C_13  and  C_30
    8  A    between atoms: C_13  and  C_34
    9  A    between atoms: C_14  and  C_15
   10  A    between atoms: C_15  and  C_26
   11  A    between atoms: C_24  and  O_35
                            x       y       z     vdW  Elec       q    Type
                         _______ _______ _______ _____ _____    ______ ____

>  <TORSDO>
F 11

$$$$
=
 OpenBabel11042419023D

 41 44  0  0  1  0  0  0  0  0999 V2000
  194.1830  173.2470  142.9520 C   0  0  0  0  0  0  0  0  0  0  0  0
  193.1620  174.1260  146.0630 C   0  0  0  0  0  2  0  0  0  0  0  0
  194.4640  173.5550  145.5130 C   0  0  0  0  0  2  0  0  0  0  0  0
  195.3210  175.5260  140.1990 N   0  0  0  0  0  2  0  0  0  0  0  0
  195.5960  175.3240  137.9020 O   0  0  0  0  0  0  0  0  0  0  0  0
  194.5430  175.5230  143.8320 C   0  0  1  0  0  3  0  0  0  0  0  0
  195.0650  175.8860  142.5150 N   0  0  0  0  0  0  0  0  0  0  0  0
  194.9240  175.0730  141.5000 C   0  0  0  0  0  0  0  0  0  0  0  0
  195.3110  174.7550  138.9910 C   0  0  0  0  0  0  0  0  0  0  0  0
  194.7980  174.0330  144.0940 C   0  0  2  0  0  3  0  0  0  0  0  0
  193.1750  175.6280  146.4230 C   0  0  1  0  0  3  0  0  0  0  0  0
  194.3030  173.7320  141.7110 C   0  0  0  0  0  3  0  0  0  0  0  0
  194.4480  176.4110  146.1160 C   0  0  0  0  0  3  0  0  0  0  0  0
  195.0660  176.3940  144.9250 C   0  0  0  0  0  3  0  0  0  0  0  0
  191.9510  176.2810  145.8540 C   0  0  0  0  0  0  0  0  0  0  0  0
  192.0550  177.0960  144.8910 O   0  0  0  0  0  0  0  0  0  0  0  0
  190.6600  175.9220  146.3560 N   0  0  0  0  0  2  0  0  0  0  0  0
  189.4110  176.2530  145.6620 C   0  0  0  0  0  2  0  0  0  0  0  0
  186.2710  178.3060  147.5200 S   0  0  0  0  0  0  0  0  0  0  0  0
  184.0680  178.1100  145.9110 C   0  0  0  0  0  1  0  0  0  0  0  0
  186.2140  179.1570  144.9590 C   0  0  1  0  0  3  0  0  0  0  0  0
  185.2710  179.0110  146.1670 C   0  0  2  0  0  3  0  0  0  0  0  0
  187.2840  178.1920  145.0950 N   0  0  0  0  0  0  0  0  0  0  0  0
  187.4330  177.7390  146.2950 C   0  0  0  0  0  0  0  0  0  0  0  0
  188.4050  176.7400  146.6060 N   0  0  0  0  0  2  0  0  0  0  0  0
  185.5480  179.0550  143.5920 C   0  0  0  0  0  2  0  0  0  0  0  0
  185.9210  178.3270  141.3490 O   0  0  0  0  0  1  0  0  0  0  0  0
  186.5650  178.6280  142.5490 C   0  0  0  0  0  2  0  0  0  0  0  0
  194.9800  173.3900  139.0100 O   0  0  0  0  0  0  0  0  0  0  0  0
  193.9070  172.8650  138.2300 C   0  0  0  0  0  1  0  0  0  0  0  0
  193.1660  171.7910  143.2270 S   0  0  0  0  0  0  0  0  0  0  0  0
  191.5820  172.6270  142.8830 C   0  0  2  0  0  3  0  0  0  0  0  0
  190.6100  172.2830  143.9920 C   0  0  0  0  0  2  0  0  0  0  0  0
  189.3310  171.9450  143.2820 C   0  0  0  0  0  2  0  0  0  0  0  0
  189.6590  172.0790  141.8050 C   0  0  2  0  0  3  0  0  0  0  0  0
  191.0540  172.1880  141.6490 O   0  0  0  0  0  0  0  0  0  0  0  0
  188.9520  173.2950  141.1970 C   0  0  1  0  0  3  0  0  0  0  0  0
  188.1930  172.9030  139.9340 C   0  0  0  0  0  2  0  0  0  0  0  0
  188.5240  173.8170  138.8570 N   0  0  0  0  0  1  0  0  0  0  0  0
  187.4880  174.9750  141.9880 O   0  0  0  0  0  0  0  0  0  0  0  0
  188.0050  173.8890  142.1940 C   0  0  0  0  0  3  0  0  0  0  0  0
  1 31  1  0  0  0  0
  1 10  1  0  0  0  0
  2 11  1  0  0  0  0
  3  2  1  0  0  0  0
  4  8  1  0  0  0  0
  5  9  2  0  0  0  0
  6 10  1  0  0  0  0
  6 14  1  1  0  0  0
  7  6  1  0  0  0  0
  8 12  1  0  0  0  0
  8  7  2  0  0  0  0
  9 29  1  0  0  0  0
  9  4  1  0  0  0  0
 10  3  1  1  0  0  0
 11 15  1  6  0  0  0
 12  1  2  0  0  0  0
 13 11  1  0  0  0  0
 14 13  2  0  0  0  0
 15 17  1  0  0  0  0
 16 15  2  0  0  0  0
 18 17  1  0  0  0  0
 18 25  1  0  0  0  0
 21 26  1  6  0  0  0
 21 23  1  0  0  0  0
 21 22  1  0  0  0  0
 22 20  1  6  0  0  0
 22 19  1  0  0  0  0
 23 24  2  0  0  0  0
 24 25  1  0  0  0  0
 24 19  1  0  0  0  0
 27 28  1  0  0  0  0
 28 26  1  0  0  0  0
 30 29  1  0  0  0  0
 32 31  1  1  0  0  0
 32 33  1  0  0  0  0
 34 33  1  0  0  0  0
 35 37  1  1  0  0  0
 35 34  1  0  0  0  0
 36 35  1  0  0  0  0
 36 32  1  0  0  0  0
 37 38  1  6  0  0  0
 37 41  1  0  0  0  0
 39 38  1  0  0  0  0
 40 41  2  0  0  0  0
M  END
>  <MODEL>
4

>  <REMARK>
 VINA RESULT:      -6.7      2.839      7.615
  Name = 
  11 active torsions:
  status: ('A' for Active; 'I' for Inactive)
    1  A    between atoms: C_1  and  S_21
    2  A    between atoms: C_3  and  S_21
    3  A    between atoms: C_9  and  C_28
    4  A    between atoms: C_10  and  C_15
    5  A    between atoms: C_12  and  N_29
    6  A    between atoms: C_12  and  N_41
    7  A    between atoms: C_13  and  C_30
    8  A    between atoms: C_13  and  C_34
    9  A    between atoms: C_14  and  C_15
   10  A    between atoms: C_15  and  C_26
   11  A    between atoms: C_24  and  O_35
                            x       y       z     vdW  Elec       q    Type
                         _______ _______ _______ _____ _____    ______ ____

>  <TORSDO>
F 11

$$$$
=
 OpenBabel11042419023D

 41 44  0  0  1  0  0  0  0  0999 V2000
  191.3670  175.9020  144.4350 C   0  0  0  0  0  0  0  0  0  0  0  0
  194.4410  176.1960  145.8330 C   0  0  0  0  0  2  0  0  0  0  0  0
  193.0790  175.7850  146.3800 C   0  0  0  0  0  2  0  0  0  0  0  0
  190.1030  173.1030  142.2820 N   0  0  0  0  0  2  0  0  0  0  0  0
  188.3220  172.8270  140.8180 O   0  0  0  0  0  0  0  0  0  0  0  0
  192.9370  174.0010  144.5100 C   0  0  1  0  0  3  0  0  0  0  0  0
  191.9680  173.2450  143.7170 N   0  0  0  0  0  0  0  0  0  0  0  0
  190.9480  173.8500  143.1660 C   0  0  0  0  0  0  0  0  0  0  0  0
  188.9050  173.5730  141.6500 C   0  0  0  0  0  0  0  0  0  0  0  0
  192.2030  175.0410  145.3640 C   0  0  2  0  0  3  0  0  0  0  0  0
  195.4510  175.0540  145.5900 C   0  0  1  0  0  3  0  0  0  0  0  0
  190.7280  175.3040  143.4220 C   0  0  0  0  0  3  0  0  0  0  0  0
  194.9680  173.6270  145.8330 C   0  0  0  0  0  3  0  0  0  0  0  0
  193.8340  173.1250  145.3200 C   0  0  0  0  0  3  0  0  0  0  0  0
  196.0700  175.2230  144.2340 C   0  0  0  0  0  0  0  0  0  0  0  0
  197.0250  174.4750  143.8730 O   0  0  0  0  0  0  0  0  0  0  0  0
  195.5240  176.1830  143.3230 N   0  0  0  0  0  2  0  0  0  0  0  0
  195.8410  176.1980  141.8910 C   0  0  0  0  0  2  0  0  0  0  0  0
  194.6430  173.3360  139.0810 S   0  0  0  0  0  0  0  0  0  0  0  0
  196.8770  172.4540  137.7720 C   0  0  0  0  0  1  0  0  0  0  0  0
  196.3140  174.9620  137.7210 C   0  0  1  0  0  3  0  0  0  0  0  0
  195.7870  173.5160  137.6720 C   0  0  2  0  0  3  0  0  0  0  0  0
  196.2310  175.4320  139.0870 N   0  0  0  0  0  0  0  0  0  0  0  0
  195.4260  174.7490  139.8300 C   0  0  0  0  0  0  0  0  0  0  0  0
  195.2580  175.0380  141.2190 N   0  0  0  0  0  2  0  0  0  0  0  0
  197.7110  175.1700  137.1470 C   0  0  0  0  0  2  0  0  0  0  0  0
  196.8040  176.7940  135.6500 O   0  0  0  0  0  1  0  0  0  0  0  0
  197.6160  175.6620  135.7140 C   0  0  0  0  0  2  0  0  0  0  0  0
  188.3890  174.8460  141.9420 O   0  0  0  0  0  0  0  0  0  0  0  0
  187.9460  175.7320  140.9150 C   0  0  0  0  0  1  0  0  0  0  0  0
  191.3430  177.6950  144.5480 S   0  0  0  0  0  0  0  0  0  0  0  0
  189.6730  177.7930  145.2760 C   0  0  2  0  0  3  0  0  0  0  0  0
  189.5910  176.8010  146.4180 C   0  0  0  0  0  2  0  0  0  0  0  0
  188.2750  176.1080  146.2220 C   0  0  0  0  0  2  0  0  0  0  0  0
  187.6980  176.7170  144.9560 C   0  0  2  0  0  3  0  0  0  0  0  0
  188.6980  177.4690  144.3080 O   0  0  0  0  0  0  0  0  0  0  0  0
  186.4850  177.5970  145.2770 C   0  0  1  0  0  3  0  0  0  0  0  0
  185.9290  178.2320  144.0070 C   0  0  0  0  0  2  0  0  0  0  0  0
  185.6180  179.6280  144.2510 N   0  0  0  0  0  1  0  0  0  0  0  0
  184.5430  177.3190  146.5970 O   0  0  0  0  0  0  0  0  0  0  0  0
  185.4210  176.7790  145.9430 C   0  0  0  0  0  3  0  0  0  0  0  0
  1 31  1  0  0  0  0
  1 10  1  0  0  0  0
  2  3  1  0  0  0  0
  4  8  1  0  0  0  0
  5  9  2  0  0  0  0
  6 14  1  1  0  0  0
  6 10  1  0  0  0  0
  7  6  1  0  0  0  0
  8 12  1  0  0  0  0
  8  7  2  0  0  0  0
  9 29  1  0  0  0  0
  9  4  1  0  0  0  0
 10  3  1  6  0  0  0
 11 15  1  6  0  0  0
 11  2  1  0  0  0  0
 11 13  1  0  0  0  0
 12  1  2  0  0  0  0
 14 13  2  0  0  0  0
 16 15  2  0  0  0  0
 17 15  1  0  0  0  0
 18 17  1  0  0  0  0
 19 24  1  0  0  0  0
 21 26  1  1  0  0  0
 21 23  1  0  0  0  0
 22 21  1  0  0  0  0
 22 20  1  1  0  0  0
 22 19  1  0  0  0  0
 23 24  2  0  0  0  0
 24 25  1  0  0  0  0
 25 18  1  0  0  0  0
 27 28  1  0  0  0  0
 28 26  1  0  0  0  0
 30 29  1  0  0  0  0
 32 31  1  6  0  0  0
 32 33  1  0  0  0  0
 34 33  1  0  0  0  0
 35 37  1  1  0  0  0
 35 34  1  0  0  0  0
 36 35  1  0  0  0  0
 36 32  1  0  0  0  0
 37 38  1  6  0  0  0
 37 41  1  0  0  0  0
 38 39  1  0  0  0  0
 41 40  2  0  0  0  0
M  END
>  <MODEL>
5

>  <REMARK>
 VINA RESULT:      -6.6      3.524      4.993
  Name = 
  11 active torsions:
  status: ('A' for Active; 'I' for Inactive)
    1  A    between atoms: C_1  and  S_21
    2  A    between atoms: C_3  and  S_21
    3  A    between atoms: C_9  and  C_28
    4  A    between atoms: C_10  and  C_15
    5  A    between atoms: C_12  and  N_29
    6  A    between atoms: C_12  and  N_41
    7  A    between atoms: C_13  and  C_30
    8  A    between atoms: C_13  and  C_34
    9  A    between atoms: C_14  and  C_15
   10  A    between atoms: C_15  and  C_26
   11  A    between atoms: C_24  and  O_35
                            x       y       z     vdW  Elec       q    Type
                         _______ _______ _______ _____ _____    ______ ____

>  <TORSDO>
F 11

$$$$
=
 OpenBabel11042419023D

 41 44  0  0  1  0  0  0  0  0999 V2000
  189.8820  177.2970  144.4900 C   0  0  0  0  0  0  0  0  0  0  0  0
  192.6400  175.5600  143.5580 C   0  0  0  0  0  2  0  0  0  0  0  0
  192.4340  176.8510  144.3420 C   0  0  0  0  0  2  0  0  0  0  0  0
  187.5490  176.5180  147.3220 N   0  0  0  0  0  2  0  0  0  0  0  0
  185.3970  177.1650  147.9070 O   0  0  0  0  0  0  0  0  0  0  0  0
  190.8590  175.5560  145.9390 C   0  0  1  0  0  3  0  0  0  0  0  0
  189.7270  175.7540  146.8420 N   0  0  0  0  0  0  0  0  0  0  0  0
  188.6970  176.4670  146.4650 C   0  0  0  0  0  0  0  0  0  0  0  0
  186.3670  177.3020  147.1130 C   0  0  0  0  0  0  0  0  0  0  0  0
  191.1560  176.8620  145.1910 C   0  0  2  0  0  3  0  0  0  0  0  0
  193.0140  174.3120  144.3870 C   0  0  1  0  0  3  0  0  0  0  0  0
  188.7210  177.1530  145.1400 C   0  0  0  0  0  3  0  0  0  0  0  0
  193.0560  174.4650  145.9050 C   0  0  0  0  0  3  0  0  0  0  0  0
  192.0640  175.0060  146.6290 C   0  0  0  0  0  3  0  0  0  0  0  0
  192.1600  173.1570  143.9530 C   0  0  0  0  0  0  0  0  0  0  0  0
  192.4730  171.9760  144.2840 O   0  0  0  0  0  0  0  0  0  0  0  0
  190.9510  173.4060  143.2290 N   0  0  0  0  0  2  0  0  0  0  0  0
  189.9060  172.3940  143.0470 C   0  0  0  0  0  2  0  0  0  0  0  0
  189.0530  172.4900  138.9500 S   0  0  0  0  0  0  0  0  0  0  0  0
  189.6890  170.0460  137.8990 C   0  0  0  0  0  1  0  0  0  0  0  0
  191.5160  171.3960  139.1040 C   0  0  1  0  0  3  0  0  0  0  0  0
  190.3000  171.4190  138.1600 C   0  0  2  0  0  3  0  0  0  0  0  0
  191.0570  171.6760  140.4470 N   0  0  0  0  0  0  0  0  0  0  0  0
  189.8960  172.2390  140.4980 C   0  0  0  0  0  0  0  0  0  0  0  0
  189.2620  172.5410  141.7420 N   0  0  0  0  0  2  0  0  0  0  0  0
  192.3560  170.1250  139.0590 C   0  0  0  0  0  2  0  0  0  0  0  0
  193.4440  168.6850  140.6220 O   0  0  0  0  0  1  0  0  0  0  0  0
  192.2690  169.3980  140.3900 C   0  0  0  0  0  2  0  0  0  0  0  0
  186.2800  178.2020  146.0390 O   0  0  0  0  0  0  0  0  0  0  0  0
  185.5650  179.4320  146.1440 C   0  0  0  0  0  1  0  0  0  0  0  0
  189.8650  177.8370  142.7770 S   0  0  0  0  0  0  0  0  0  0  0  0
  188.1390  177.3360  142.4630 C   0  0  2  0  0  3  0  0  0  0  0  0
  188.1490  176.1700  141.4960 C   0  0  0  0  0  2  0  0  0  0  0  0
  187.0830  176.5030  140.4920 C   0  0  0  0  0  2  0  0  0  0  0  0
  186.5530  177.8600  140.9230 C   0  0  2  0  0  3  0  0  0  0  0  0
  187.4150  178.4060  141.8940 O   0  0  0  0  0  0  0  0  0  0  0  0
  185.1280  177.7390  141.4750 C   0  0  1  0  0  3  0  0  0  0  0  0
  185.0020  178.4720  142.8060 C   0  0  0  0  0  2  0  0  0  0  0  0
  183.6010  178.6670  143.1290 N   0  0  0  0  0  1  0  0  0  0  0  0
  183.4870  177.5600  139.7820 O   0  0  0  0  0  0  0  0  0  0  0  0
  184.1480  178.3020  140.4910 C   0  0  0  0  0  3  0  0  0  0  0  0
  1 12  2  0  0  0  0
  1 10  1  0  0  0  0
  2  3  1  0  0  0  0
  2 11  1  0  0  0  0
  6 14  1  1  0  0  0
  6  7  1  0  0  0  0
  8  7  2  0  0  0  0
  8  4  1  0  0  0  0
  9  4  1  0  0  0  0
  9  5  2  0  0  0  0
 10  3  1  6  0  0  0
 10  6  1  0  0  0  0
 11 15  1  1  0  0  0
 11 13  1  0  0  0  0
 12  8  1  0  0  0  0
 13 14  2  0  0  0  0
 15 16  2  0  0  0  0
 17 15  1  0  0  0  0
 18 17  1  0  0  0  0
 19 24  1  0  0  0  0
 21 26  1  1  0  0  0
 21 23  1  0  0  0  0
 22 20  1  1  0  0  0
 22 19  1  0  0  0  0
 22 21  1  0  0  0  0
 23 24  2  0  0  0  0
 24 25  1  0  0  0  0
 25 18  1  0  0  0  0
 26 28  1  0  0  0  0
 28 27  1  0  0  0  0
 29 30  1  0  0  0  0
 29  9  1  0  0  0  0
 31  1  1  0  0  0  0
 32 31  1  6  0  0  0
 33 32  1  0  0  0  0
 34 35  1  0  0  0  0
 34 33  1  0  0  0  0
 35 37  1  1  0  0  0
 35 36  1  0  0  0  0
 36 32  1  0  0  0  0
 37 41  1  6  0  0  0
 37 38  1  0  0  0  0
 38 39  1  0  0  0  0
 40 41  2  0  0  0  0
M  END
>  <MODEL>
6

>  <REMARK>
 VINA RESULT:      -6.6      2.713      5.345
  Name = 
  11 active torsions:
  status: ('A' for Active; 'I' for Inactive)
    1  A    between atoms: C_1  and  S_21
    2  A    between atoms: C_3  and  S_21
    3  A    between atoms: C_9  and  C_28
    4  A    between atoms: C_10  and  C_15
    5  A    between atoms: C_12  and  N_29
    6  A    between atoms: C_12  and  N_41
    7  A    between atoms: C_13  and  C_30
    8  A    between atoms: C_13  and  C_34
    9  A    between atoms: C_14  and  C_15
   10  A    between atoms: C_15  and  C_26
   11  A    between atoms: C_24  and  O_35
                            x       y       z     vdW  Elec       q    Type
                         _______ _______ _______ _____ _____    ______ ____

>  <TORSDO>
F 11

$$$$
=
 OpenBabel11042419023D

 41 44  0  0  1  0  0  0  0  0999 V2000
  191.3530  176.0650  144.5070 C   0  0  0  0  0  0  0  0  0  0  0  0
  194.3030  175.8930  146.1690 C   0  0  0  0  0  2  0  0  0  0  0  0
  192.8840  175.4530  146.5110 C   0  0  0  0  0  2  0  0  0  0  0  0
  190.1760  173.8460  141.7220 N   0  0  0  0  0  2  0  0  0  0  0  0
  188.5210  173.9790  140.0980 O   0  0  0  0  0  0  0  0  0  0  0  0
  192.8370  174.1050  144.3010 C   0  0  1  0  0  3  0  0  0  0  0  0
  191.9130  173.5850  143.2950 N   0  0  0  0  0  0  0  0  0  0  0  0
  190.9690  174.3470  142.8060 C   0  0  0  0  0  0  0  0  0  0  0  0
  189.0570  174.5030  141.1120 C   0  0  0  0  0  0  0  0  0  0  0  0
  192.0720  174.9860  145.2960 C   0  0  2  0  0  3  0  0  0  0  0  0
  195.2860  174.7710  145.7700 C   0  0  1  0  0  3  0  0  0  0  0  0
  190.7830  175.7260  143.3450 C   0  0  0  0  0  3  0  0  0  0  0  0
  194.7290  173.3530  145.6690 C   0  0  0  0  0  3  0  0  0  0  0  0
  193.6260  173.0320  144.9760 C   0  0  0  0  0  3  0  0  0  0  0  0
  196.0260  175.1830  144.5320 C   0  0  0  0  0  0  0  0  0  0  0  0
  197.1050  174.6010  144.2130 O   0  0  0  0  0  0  0  0  0  0  0  0
  195.4680  176.1830  143.6740 N   0  0  0  0  0  2  0  0  0  0  0  0
  195.9400  176.4180  142.3060 C   0  0  0  0  0  2  0  0  0  0  0  0
  193.6480  174.3980  139.4430 S   0  0  0  0  0  0  0  0  0  0  0  0
  193.0560  171.9180  140.4340 C   0  0  0  0  0  1  0  0  0  0  0  0
  195.5220  172.6070  140.1960 C   0  0  1  0  0  3  0  0  0  0  0  0
  194.1050  172.6390  139.5940 C   0  0  2  0  0  3  0  0  0  0  0  0
  195.7240  173.8240  140.9520 N   0  0  0  0  0  0  0  0  0  0  0  0
  194.9030  174.7740  140.6490 C   0  0  0  0  0  0  0  0  0  0  0  0
  194.9210  176.0290  141.3310 N   0  0  0  0  0  2  0  0  0  0  0  0
  195.8510  171.3750  141.0310 C   0  0  0  0  0  2  0  0  0  0  0  0
  197.4790  171.4430  142.7770 O   0  0  0  0  0  1  0  0  0  0  0  0
  196.1640  171.7850  142.4590 C   0  0  0  0  0  2  0  0  0  0  0  0
  188.5670  175.7150  141.6250 O   0  0  0  0  0  0  0  0  0  0  0  0
  187.4770  176.4040  141.0140 C   0  0  0  0  0  1  0  0  0  0  0  0
  191.3880  177.7940  144.9930 S   0  0  0  0  0  0  0  0  0  0  0  0
  189.6760  177.8240  145.6230 C   0  0  2  0  0  3  0  0  0  0  0  0
  189.4850  176.6360  146.5430 C   0  0  0  0  0  2  0  0  0  0  0  0
  188.1640  176.0510  146.1350 C   0  0  0  0  0  2  0  0  0  0  0  0
  187.6950  176.9180  144.9790 C   0  0  2  0  0  3  0  0  0  0  0  0
  188.7600  177.7350  144.5530 O   0  0  0  0  0  0  0  0  0  0  0  0
  186.4910  177.7720  145.3900 C   0  0  1  0  0  3  0  0  0  0  0  0
  185.7060  178.2240  144.1620 C   0  0  0  0  0  2  0  0  0  0  0  0
  185.5640  179.6680  144.1740 N   0  0  0  0  0  1  0  0  0  0  0  0
  184.4500  177.3550  146.5090 O   0  0  0  0  0  0  0  0  0  0  0  0
  185.5970  176.9910  146.3040 C   0  0  0  0  0  3  0  0  0  0  0  0
  1 31  1  0  0  0  0
  1 10  1  0  0  0  0
  2  3  1  0  0  0  0
  4  8  1  0  0  0  0
  5  9  2  0  0  0  0
  6 14  1  1  0  0  0
  6 10  1  0  0  0  0
  7  6  1  0  0  0  0
  8  7  2  0  0  0  0
  8 12  1  0  0  0  0
  9 29  1  0  0  0  0
  9  4  1  0  0  0  0
 10  3  1  1  0  0  0
 11 15  1  6  0  0  0
 11  2  1  0  0  0  0
 12  1  2  0  0  0  0
 13 11  1  0  0  0  0
 14 13  2  0  0  0  0
 16 15  2  0  0  0  0
 17 15  1  0  0  0  0
 18 17  1  0  0  0  0
 19 22  1  0  0  0  0
 19 24  1  0  0  0  0
 21 23  1  0  0  0  0
 21 26  1  1  0  0  0
 22 21  1  0  0  0  0
 22 20  1  1  0  0  0
 24 23  2  0  0  0  0
 24 25  1  0  0  0  0
 25 18  1  0  0  0  0
 26 28  1  0  0  0  0
 28 27  1  0  0  0  0
 30 29  1  0  0  0  0
 32 31  1  6  0  0  0
 32 33  1  0  0  0  0
 34 33  1  0  0  0  0
 35 37  1  1  0  0  0
 35 34  1  0  0  0  0
 36 35  1  0  0  0  0
 36 32  1  0  0  0  0
 37 38  1  6  0  0  0
 37 41  1  0  0  0  0
 38 39  1  0  0  0  0
 41 40  2  0  0  0  0
M  END
>  <MODEL>
7

>  <REMARK>
 VINA RESULT:      -6.5      2.499      3.962
  Name = 
  11 active torsions:
  status: ('A' for Active; 'I' for Inactive)
    1  A    between atoms: C_1  and  S_21
    2  A    between atoms: C_3  and  S_21
    3  A    between atoms: C_9  and  C_28
    4  A    between atoms: C_10  and  C_15
    5  A    between atoms: C_12  and  N_29
    6  A    between atoms: C_12  and  N_41
    7  A    between atoms: C_13  and  C_30
    8  A    between atoms: C_13  and  C_34
    9  A    between atoms: C_14  and  C_15
   10  A    between atoms: C_15  and  C_26
   11  A    between atoms: C_24  and  O_35
                            x       y       z     vdW  Elec       q    Type
                         _______ _______ _______ _____ _____    ______ ____

>  <TORSDO>
F 11

$$$$
=
 OpenBabel11042419023D

 41 44  0  0  1  0  0  0  0  0999 V2000
  189.0590  174.2640  143.1320 C   0  0  0  0  0  0  0  0  0  0  0  0
  191.6670  172.1630  142.6060 C   0  0  0  0  0  2  0  0  0  0  0  0
  190.1710  171.9440  142.8030 C   0  0  0  0  0  2  0  0  0  0  0  0
  187.2800  176.3690  140.5880 N   0  0  0  0  0  2  0  0  0  0  0  0
  185.8600  178.2040  140.6720 O   0  0  0  0  0  0  0  0  0  0  0  0
  189.7360  173.5950  140.8570 C   0  0  1  0  0  3  0  0  0  0  0  0
  188.7310  174.5260  140.3470 N   0  0  0  0  0  0  0  0  0  0  0  0
  188.1510  175.3800  141.1510 C   0  0  0  0  0  0  0  0  0  0  0  0
  186.5050  177.3310  141.3140 C   0  0  0  0  0  0  0  0  0  0  0  0
  189.3000  173.0680  142.2300 C   0  0  2  0  0  3  0  0  0  0  0  0
  192.1910  172.0210  141.1600 C   0  0  1  0  0  3  0  0  0  0  0  0
  188.4560  175.3400  142.6110 C   0  0  0  0  0  3  0  0  0  0  0  0
  191.1620  171.7640  140.0630 C   0  0  0  0  0  3  0  0  0  0  0  0
  190.0500  172.4950  139.8960 C   0  0  0  0  0  3  0  0  0  0  0  0
  193.0850  173.1840  140.8430 C   0  0  0  0  0  0  0  0  0  0  0  0
  192.7460  174.3560  141.1820 O   0  0  0  0  0  0  0  0  0  0  0  0
  194.3550  172.9510  140.2260 N   0  0  0  0  0  2  0  0  0  0  0  0
  195.4160  173.9630  140.1740 C   0  0  0  0  0  2  0  0  0  0  0  0
  197.6350  173.9590  143.7230 S   0  0  0  0  0  0  0  0  0  0  0  0
  195.9470  173.3000  145.7720 C   0  0  0  0  0  1  0  0  0  0  0  0
  195.4030  175.3530  144.3220 C   0  0  1  0  0  3  0  0  0  0  0  0
  196.4870  174.5160  145.0260 C   0  0  2  0  0  3  0  0  0  0  0  0
  195.3140  174.9200  142.9450 N   0  0  0  0  0  0  0  0  0  0  0  0
  196.3500  174.2700  142.5310 C   0  0  0  0  0  0  0  0  0  0  0  0
  196.4150  173.7210  141.2130 N   0  0  0  0  0  2  0  0  0  0  0  0
  194.0340  175.3490  144.9930 C   0  0  0  0  0  2  0  0  0  0  0  0
  194.8730  177.5070  145.5770 O   0  0  0  0  0  1  0  0  0  0  0  0
  193.7130  176.7340  145.5260 C   0  0  0  0  0  2  0  0  0  0  0  0
  186.4660  177.3140  142.7180 O   0  0  0  0  0  0  0  0  0  0  0  0
  186.9400  178.4110  143.4970 C   0  0  0  0  0  1  0  0  0  0  0  0
  189.6980  174.3460  144.8090 S   0  0  0  0  0  0  0  0  0  0  0  0
  188.8320  175.8920  145.2420 C   0  0  2  0  0  3  0  0  0  0  0  0
  189.8670  176.9270  145.6330 C   0  0  0  0  0  2  0  0  0  0  0  0
  189.3190  177.5560  146.8800 C   0  0  0  0  0  2  0  0  0  0  0  0
  188.0200  176.8170  147.1520 C   0  0  2  0  0  3  0  0  0  0  0  0
  187.9580  175.6750  146.3290 O   0  0  0  0  0  0  0  0  0  0  0  0
  186.8120  177.7260  146.9030 C   0  0  1  0  0  3  0  0  0  0  0  0
  185.5270  176.9080  146.8270 C   0  0  0  0  0  2  0  0  0  0  0  0
  184.5530  177.5970  146.0010 N   0  0  0  0  0  1  0  0  0  0  0  0
  185.9850  179.7220  147.8650 O   0  0  0  0  0  0  0  0  0  0  0  0
  186.7020  178.7430  147.9980 C   0  0  0  0  0  3  0  0  0  0  0  0
  1 31  1  0  0  0  0
  2  3  1  0  0  0  0
  4  8  1  0  0  0  0
  4  9  1  0  0  0  0
  5  9  2  0  0  0  0
  6 14  1  6  0  0  0
  6 10  1  0  0  0  0
  7  6  1  0  0  0  0
  7  8  2  0  0  0  0
  8 12  1  0  0  0  0
  9 29  1  0  0  0  0
 10  3  1  1  0  0  0
 10  1  1  0  0  0  0
 11 15  1  6  0  0  0
 11  2  1  0  0  0  0
 12  1  2  0  0  0  0
 13 11  1  0  0  0  0
 14 13  2  0  0  0  0
 15 16  2  0  0  0  0
 17 15  1  0  0  0  0
 18 17  1  0  0  0  0
 18 25  1  0  0  0  0
 19 22  1  0  0  0  0
 21 26  1  1  0  0  0
 21 22  1  0  0  0  0
 22 20  1  6  0  0  0
 23 21  1  0  0  0  0
 24 23  2  0  0  0  0
 24 19  1  0  0  0  0
 25 24  1  0  0  0  0
 26 28  1  0  0  0  0
 28 27  1  0  0  0  0
 29 30  1  0  0  0  0
 32 31  1  1  0  0  0
 32 33  1  0  0  0  0
 32 36  1  0  0  0  0
 33 34  1  0  0  0  0
 34 35  1  0  0  0  0
 35 37  1  6  0  0  0
 36 35  1  0  0  0  0
 37 38  1  1  0  0  0
 37 41  1  0  0  0  0
 39 38  1  0  0  0  0
 40 41  2  0  0  0  0
M  END
>  <MODEL>
8

>  <REMARK>
 VINA RESULT:      -6.4      2.671      5.378
  Name = 
  11 active torsions:
  status: ('A' for Active; 'I' for Inactive)
    1  A    between atoms: C_1  and  S_21
    2  A    between atoms: C_3  and  S_21
    3  A    between atoms: C_9  and  C_28
    4  A    between atoms: C_10  and  C_15
    5  A    between atoms: C_12  and  N_29
    6  A    between atoms: C_12  and  N_41
    7  A    between atoms: C_13  and  C_30
    8  A    between atoms: C_13  and  C_34
    9  A    between atoms: C_14  and  C_15
   10  A    between atoms: C_15  and  C_26
   11  A    between atoms: C_24  and  O_35
                            x       y       z     vdW  Elec       q    Type
                         _______ _______ _______ _____ _____    ______ ____

>  <TORSDO>
F 11

$$$$
=
 OpenBabel11042419023D

 41 44  0  0  1  0  0  0  0  0999 V2000
  193.0860  172.4660  141.3280 C   0  0  0  0  0  0  0  0  0  0  0  0
  190.8780  173.7750  139.1140 C   0  0  0  0  0  2  0  0  0  0  0  0
  192.1060  172.8850  138.9630 C   0  0  0  0  0  2  0  0  0  0  0  0
  192.5840  169.4900  143.5560 N   0  0  0  0  0  2  0  0  0  0  0  0
  193.6310  168.6600  145.4550 O   0  0  0  0  0  0  0  0  0  0  0  0
  191.0480  171.2440  140.6640 C   0  0  1  0  0  3  0  0  0  0  0  0
  191.4070  170.2270  141.6500 N   0  0  0  0  0  0  0  0  0  0  0  0
  192.3600  170.4530  142.5170 C   0  0  0  0  0  0  0  0  0  0  0  0
  193.6230  169.5300  144.5420 C   0  0  0  0  0  0  0  0  0  0  0  0
  192.3190  171.9210  140.1360 C   0  0  2  0  0  3  0  0  0  0  0  0
  189.5080  173.0770  138.9700 C   0  0  1  0  0  3  0  0  0  0  0  0
  193.1410  171.7220  142.4390 C   0  0  0  0  0  3  0  0  0  0  0  0
  189.5090  171.5630  138.7800 C   0  0  0  0  0  3  0  0  0  0  0  0
  190.1860  170.7120  139.5660 C   0  0  0  0  0  3  0  0  0  0  0  0
  188.6130  173.5100  140.0940 C   0  0  0  0  0  0  0  0  0  0  0  0
  187.8690  172.6670  140.6750 O   0  0  0  0  0  0  0  0  0  0  0  0
  188.6630  174.8640  140.5550 N   0  0  0  0  0  2  0  0  0  0  0  0
  188.0810  175.2970  141.8290 C   0  0  0  0  0  2  0  0  0  0  0  0
  184.8660  177.9400  142.2790 S   0  0  0  0  0  0  0  0  0  0  0  0
  185.5050  179.7160  144.2590 C   0  0  0  0  0  1  0  0  0  0  0  0
  185.4930  177.2020  144.7990 C   0  0  1  0  0  3  0  0  0  0  0  0
  184.8210  178.3690  144.0510 C   0  0  2  0  0  3  0  0  0  0  0  0
  186.4050  176.5420  143.8900 N   0  0  0  0  0  0  0  0  0  0  0  0
  186.1770  176.7920  142.6430 C   0  0  0  0  0  0  0  0  0  0  0  0
  187.0100  176.2690  141.6080 N   0  0  0  0  0  2  0  0  0  0  0  0
  186.1840  177.5730  146.1050 C   0  0  0  0  0  2  0  0  0  0  0  0
  187.6500  176.0050  147.1520 O   0  0  0  0  0  1  0  0  0  0  0  0
  187.5760  176.9670  146.1460 C   0  0  0  0  0  2  0  0  0  0  0  0
  194.6150  170.5240  144.5040 O   0  0  0  0  0  0  0  0  0  0  0  0
  195.2970  170.9510  145.6810 C   0  0  0  0  0  1  0  0  0  0  0  0
  193.7700  174.1270  141.3520 S   0  0  0  0  0  0  0  0  0  0  0  0
  193.0540  174.5770  142.9690 C   0  0  2  0  0  3  0  0  0  0  0  0
  191.7560  175.3180  142.7270 C   0  0  0  0  0  2  0  0  0  0  0  0
  191.8160  176.4970  143.6550 C   0  0  0  0  0  2  0  0  0  0  0  0
  193.1640  176.3810  144.3460 C   0  0  2  0  0  3  0  0  0  0  0  0
  193.9420  175.4130  143.6810 O   0  0  0  0  0  0  0  0  0  0  0  0
  192.9910  176.0110  145.8230 C   0  0  1  0  0  3  0  0  0  0  0  0
  194.0140  176.7420  146.6850 C   0  0  0  0  0  2  0  0  0  0  0  0
  194.7390  177.7060  145.8780 N   0  0  0  0  0  1  0  0  0  0  0  0
  190.9290  175.5340  146.8760 O   0  0  0  0  0  0  0  0  0  0  0  0
  191.6060  176.3540  146.2780 C   0  0  0  0  0  3  0  0  0  0  0  0
  1 31  1  0  0  0  0
  1 12  2  0  0  0  0
  3  2  1  0  0  0  0
  4  9  1  0  0  0  0
  6 14  1  6  0  0  0
  6  7  1  0  0  0  0
  7  8  2  0  0  0  0
  8  4  1  0  0  0  0
  9  5  2  0  0  0  0
 10  3  1  6  0  0  0
 10  6  1  0  0  0  0
 10  1  1  0  0  0  0
 11  2  1  0  0  0  0
 11 15  1  1  0  0  0
 12  8  1  0  0  0  0
 13 11  1  0  0  0  0
 13 14  2  0  0  0  0
 15 17  1  0  0  0  0
 15 16  2  0  0  0  0
 17 18  1  0  0  0  0
 19 24  1  0  0  0  0
 19 22  1  0  0  0  0
 21 26  1  1  0  0  0
 22 20  1  6  0  0  0
 22 21  1  0  0  0  0
 23 21  1  0  0  0  0
 24 23  2  0  0  0  0
 25 18  1  0  0  0  0
 25 24  1  0  0  0  0
 26 28  1  0  0  0  0
 28 27  1  0  0  0  0
 29  9  1  0  0  0  0
 29 30  1  0  0  0  0
 32 31  1  6  0  0  0
 32 36  1  0  0  0  0
 33 32  1  0  0  0  0
 33 34  1  0  0  0  0
 34 35  1  0  0  0  0
 35 37  1  1  0  0  0
 36 35  1  0  0  0  0
 37 41  1  1  0  0  0
 37 38  1  0  0  0  0
 39 38  1  0  0  0  0
 41 40  2  0  0  0  0
M  END
>  <MODEL>
9

>  <REMARK>
 VINA RESULT:      -6.4      2.722      8.323
  Name = 
  11 active torsions:
  status: ('A' for Active; 'I' for Inactive)
    1  A    between atoms: C_1  and  S_21
    2  A    between atoms: C_3  and  S_21
    3  A    between atoms: C_9  and  C_28
    4  A    between atoms: C_10  and  C_15
    5  A    between atoms: C_12  and  N_29
    6  A    between atoms: C_12  and  N_41
    7  A    between atoms: C_13  and  C_30
    8  A    between atoms: C_13  and  C_34
    9  A    between atoms: C_14  and  C_15
   10  A    between atoms: C_15  and  C_26
   11  A    between atoms: C_24  and  O_35
                            x       y       z     vdW  Elec       q    Type
                         _______ _______ _______ _____ _____    ______ ____

>  <TORSDO>
F 11

$$$$
