=
 OpenBabel11042418123D

 47 52  0  0  1  0  0  0  0  0999 V2000
  189.4940  173.2070  141.6400 C   0  0  0  0  0  0  0  0  0  0  0  0
  189.8110  172.7150  140.4470 C   0  0  0  0  0  0  0  0  0  0  0  0
  190.6980  170.4110  139.5990 C   0  0  0  0  0  1  0  0  0  0  0  0
  191.6270  175.5240  145.8600 C   0  0  1  0  0  3  0  0  0  0  0  0
  188.9330  174.4990  141.9080 N   0  0  0  0  0  0  0  0  0  0  0  0
  189.7290  172.1700  142.6880 C   0  0  2  0  0  3  0  0  0  0  0  0
  193.1260  175.6760  146.1040 C   0  0  1  0  0  3  0  0  0  0  0  0
  191.4330  174.0410  145.6230 C   0  0  2  0  0  3  0  0  0  0  0  0
  188.6570  175.3460  140.8870 O   0  0  0  0  0  1  0  0  0  0  0  0
  188.5180  174.8470  143.2380 C   0  0  0  0  0  0  0  0  0  0  0  0
  189.2680  174.4620  144.3990 N   0  0  0  0  0  2  0  0  0  0  0  0
  184.7710  178.0920  142.7840 C   0  0  0  0  0  2  0  0  0  0  0  0
  186.5050  176.4700  143.5880 C   0  0  0  0  0  0  0  0  0  0  0  0
  190.7580  172.6610  143.6740 C   0  0  0  0  0  0  0  0  0  0  0  0
  192.7750  173.5560  145.3750 N   0  0  0  0  0  0  0  0  0  0  0  0
  192.0510  171.9410  143.7900 C   0  0  0  0  0  3  0  0  0  0  0  0
  186.2730  178.1560  145.4120 C   0  0  0  0  0  3  0  0  0  0  0  0
  190.2570  171.3530  140.6630 C   0  0  0  0  0  0  0  0  0  0  0  0
  193.8040  174.4580  145.6640 N   0  0  0  0  0  2  0  0  0  0  0  0
  190.5040  173.7320  144.4670 C   0  0  0  0  0  0  0  0  0  0  0  0
  190.2140  171.0270  141.9120 N   0  0  0  0  0  0  0  0  0  0  0  0
  185.7960  177.0340  142.3940 C   0  0  0  0  0  2  0  0  0  0  0  0
  193.0160  172.3920  144.5870 C   0  0  0  0  0  3  0  0  0  0  0  0
  189.6980  173.3980  139.1260 C   0  0  0  0  0  1  0  0  0  0  0  0
  186.0180  176.7390  144.9750 C   0  0  0  0  0  2  0  0  0  0  0  0
  185.4800  179.3440  143.2840 C   0  0  0  0  0  2  0  0  0  0  0  0
  186.0010  179.2640  144.7000 C   0  0  0  0  0  3  0  0  0  0  0  0
  187.5090  175.6580  143.4090 C   0  0  0  0  0  0  0  0  0  0  0  0
  190.8770  175.9690  147.1060 C   0  0  0  0  0  2  0  0  0  0  0  0
  191.8320  176.5990  148.1020 C   0  0  0  0  0  2  0  0  0  0  0  0
  191.1740  177.7510  148.7740 C   0  0  0  0  0  0  0  0  0  0  0  0
  191.6220  178.1810  149.8680 O   0  0  0  0  0  1  0  0  0  0  0  0
  190.0480  178.3340  148.2090 O   0  0  0  0  0  0  0  0  0  0  0  0
  193.6540  176.8810  145.3370 C   0  0  0  0  0  2  0  0  0  0  0  0
  192.9490  177.0350  143.9950 C   0  0  0  0  0  2  0  0  0  0  0  0
  193.2180  174.5030  141.1860 C   0  0  0  0  0  3  0  0  0  0  0  0
  195.4470  175.1500  141.8620 C   0  0  0  0  0  3  0  0  0  0  0  0
  193.5210  176.1060  142.9750 C   0  0  0  0  0  0  0  0  0  0  0  0
  194.9080  176.0050  142.8280 C   0  0  0  0  0  3  0  0  0  0  0  0
  192.6760  175.3560  142.1510 C   0  0  0  0  0  3  0  0  0  0  0  0
  194.6040  174.3900  141.0370 C   0  0  0  0  0  0  0  0  0  0  0  0
  195.1210  173.5180  140.0240 N   0  0  0  0  0  2  0  0  0  0  0  0
  195.2160  173.8000  138.6230 C   0  0  0  0  0  0  0  0  0  0  0  0
  195.6020  172.8860  137.8480 O   0  0  0  0  0  0  0  0  0  0  0  0
  194.9070  175.0810  138.1320 O   0  0  0  0  0  0  0  0  0  0  0  0
  193.7130  175.4640  137.5040 C   0  0  0  0  0  3  0  0  0  0  0  0
  192.6910  174.6440  137.2920 C   0  0  0  0  0  2  0  0  0  0  0  0
  1  5  1  0  0  0  0
  2 18  1  0  0  0  0
  2  1  2  0  0  0  0
  3 18  1  0  0  0  0
  4  7  1  0  0  0  0
  4 29  1  1  0  0  0
  5 10  1  0  0  0  0
  6  1  1  6  0  0  0
  6 14  1  0  0  0  0
  7 34  1  6  0  0  0
  8 20  1  6  0  0  0
  8  4  1  0  0  0  0
  9  5  1  0  0  0  0
 10 28  2  0  0  0  0
 10 11  1  0  0  0  0
 11 20  1  0  0  0  0
 12 26  1  0  0  0  0
 13 25  1  0  0  0  0
 14 16  1  0  0  0  0
 14 20  2  0  0  0  0
 15  8  1  0  0  0  0
 15 19  1  0  0  0  0
 16 23  2  0  0  0  0
 18 21  2  0  0  0  0
 19  7  1  0  0  0  0
 21  6  1  0  0  0  0
 22 12  1  0  0  0  0
 22 13  1  0  0  0  0
 23 15  1  0  0  0  0
 24  2  1  0  0  0  0
 25 17  1  0  0  0  0
 26 27  1  0  0  0  0
 27 17  2  0  0  0  0
 28 13  2  0  0  0  0
 29 30  1  0  0  0  0
 30 31  1  0  0  0  0
 31 32  1  0  0  0  0
 33 31  2  0  0  0  0
 35 34  1  0  0  0  0
 36 40  1  0  0  0  0
 37 39  2  0  0  0  0
 38 35  1  0  0  0  0
 39 38  1  0  0  0  0
 40 38  2  0  0  0  0
 41 36  2  0  0  0  0
 41 37  1  0  0  0  0
 42 41  1  0  0  0  0
 43 42  1  0  0  0  0
 44 43  2  0  0  0  0
 45 43  1  0  0  0  0
 46 45  1  0  0  0  0
 47 46  2  0  0  0  0
M  END
>  <MODEL>
1

>  <REMARK>
 VINA RESULT:      -7.6      0.000      0.000
  Name = 
  9 active torsions:
  status: ('A' for Active; 'I' for Inactive)
    1  A    between atoms: C_2  and  O_47
    2  A    between atoms: C_4  and  C_46
    3  A    between atoms: C_6  and  C_18
    4  A    between atoms: N_9  and  C_40
    5  A    between atoms: C_10  and  O_47
    6  A    between atoms: C_12  and  C_45
    7  A    between atoms: C_18  and  C_46
    8  A    between atoms: C_29  and  C_31
    9  A    between atoms: C_29  and  C_45
                            x       y       z     vdW  Elec       q    Type
                         _______ _______ _______ _____ _____    ______ ____

>  <TORSDO>
F 9

$$$$
=
 OpenBabel11042418123D

 47 52  0  0  1  0  0  0  0  0999 V2000
  191.3950  176.2420  145.6210 C   0  0  0  0  0  0  0  0  0  0  0  0
  192.2960  175.7350  146.4560 C   0  0  0  0  0  0  0  0  0  0  0  0
  194.8970  175.5140  146.4210 C   0  0  0  0  0  1  0  0  0  0  0  0
  188.5330  175.0140  141.3760 C   0  0  1  0  0  3  0  0  0  0  0  0
  189.9840  176.3500  145.8520 N   0  0  0  0  0  0  0  0  0  0  0  0
  192.0820  176.7800  144.4100 C   0  0  2  0  0  3  0  0  0  0  0  0
  188.7110  173.7460  140.5440 C   0  0  1  0  0  3  0  0  0  0  0  0
  189.9110  175.6390  141.4080 C   0  0  2  0  0  3  0  0  0  0  0  0
  189.4520  175.9260  147.0250 O   0  0  0  0  0  1  0  0  0  0  0  0
  189.1470  177.0410  144.9130 C   0  0  0  0  0  0  0  0  0  0  0  0
  189.3370  176.9350  143.4950 N   0  0  0  0  0  2  0  0  0  0  0  0
  185.3380  178.9420  147.4930 C   0  0  0  0  0  2  0  0  0  0  0  0
  187.0280  178.3110  145.7520 C   0  0  0  0  0  0  0  0  0  0  0  0
  191.5970  176.0520  143.1810 C   0  0  0  0  0  0  0  0  0  0  0  0
  190.7830  174.5700  140.9670 N   0  0  0  0  0  0  0  0  0  0  0  0
  192.5590  175.2370  142.3970 C   0  0  0  0  0  3  0  0  0  0  0  0
  184.8620  178.5280  144.5330 C   0  0  0  0  0  3  0  0  0  0  0  0
  193.5910  175.9200  145.8330 C   0  0  0  0  0  0  0  0  0  0  0  0
  190.1380  173.4520  140.4290 N   0  0  0  0  0  2  0  0  0  0  0  0
  190.3080  176.1550  142.7760 C   0  0  0  0  0  0  0  0  0  0  0  0
  193.4940  176.5090  144.6880 N   0  0  0  0  0  0  0  0  0  0  0  0
  186.6940  178.3060  147.2130 C   0  0  0  0  0  2  0  0  0  0  0  0
  192.1530  174.5140  141.3560 C   0  0  0  0  0  3  0  0  0  0  0  0
  192.0500  175.1270  147.7950 C   0  0  0  0  0  1  0  0  0  0  0  0
  186.2260  179.1140  144.7790 C   0  0  0  0  0  2  0  0  0  0  0  0
  184.2250  178.0450  146.9670 C   0  0  0  0  0  2  0  0  0  0  0  0
  183.9970  178.1130  145.4750 C   0  0  0  0  0  3  0  0  0  0  0  0
  188.0880  177.6770  145.3370 C   0  0  0  0  0  0  0  0  0  0  0  0
  187.5450  175.9310  140.6720 C   0  0  0  0  0  2  0  0  0  0  0  0
  186.5980  176.5610  141.6760 C   0  0  0  0  0  2  0  0  0  0  0  0
  186.4120  178.0010  141.3610 C   0  0  0  0  0  0  0  0  0  0  0  0
  187.3300  178.8240  141.6100 O   0  0  0  0  0  1  0  0  0  0  0  0
  185.2130  178.4450  140.8190 O   0  0  0  0  0  0  0  0  0  0  0  0
  187.9840  172.5860  141.2100 C   0  0  0  0  0  2  0  0  0  0  0  0
  188.0900  172.6630  142.7280 C   0  0  0  0  0  2  0  0  0  0  0  0
  191.3650  170.7740  143.0150 C   0  0  0  0  0  3  0  0  0  0  0  0
  191.3380  172.5350  144.6700 C   0  0  0  0  0  3  0  0  0  0  0  0
  189.4410  172.2330  143.1970 C   0  0  0  0  0  0  0  0  0  0  0  0
  190.0670  172.9240  144.2400 C   0  0  0  0  0  3  0  0  0  0  0  0
  190.0920  171.1590  142.5830 C   0  0  0  0  0  3  0  0  0  0  0  0
  191.9940  171.4540  144.0630 C   0  0  0  0  0  0  0  0  0  0  0  0
  193.3060  171.0400  144.4660 N   0  0  0  0  0  2  0  0  0  0  0  0
  194.5350  171.3260  143.7890 C   0  0  0  0  0  0  0  0  0  0  0  0
  195.5960  170.8010  144.2190 O   0  0  0  0  0  0  0  0  0  0  0  0
  194.5550  172.1930  142.6830 O   0  0  0  0  0  0  0  0  0  0  0  0
  195.5790  173.0930  142.3500 C   0  0  0  0  0  3  0  0  0  0  0  0
  195.9900  174.0740  143.1440 C   0  0  0  0  0  2  0  0  0  0  0  0
  1  5  1  0  0  0  0
  1  2  2  0  0  0  0
  2 24  1  0  0  0  0
  4 29  1  6  0  0  0
  4  8  1  0  0  0  0
  5  9  1  0  0  0  0
  6 14  1  6  0  0  0
  6 21  1  0  0  0  0
  6  1  1  0  0  0  0
  7 34  1  1  0  0  0
  7  4  1  0  0  0  0
  8 20  1  1  0  0  0
 10 28  2  0  0  0  0
 10  5  1  0  0  0  0
 11 10  1  0  0  0  0
 13 22  1  0  0  0  0
 15 23  1  0  0  0  0
 15  8  1  0  0  0  0
 16 14  1  0  0  0  0
 17 25  1  0  0  0  0
 17 27  2  0  0  0  0
 18  3  1  0  0  0  0
 18  2  1  0  0  0  0
 19  7  1  0  0  0  0
 19 15  1  0  0  0  0
 20 14  2  0  0  0  0
 20 11  1  0  0  0  0
 21 18  2  0  0  0  0
 22 12  1  0  0  0  0
 23 16  2  0  0  0  0
 25 13  1  0  0  0  0
 26 12  1  0  0  0  0
 27 26  1  0  0  0  0
 28 13  2  0  0  0  0
 29 30  1  0  0  0  0
 31 32  1  0  0  0  0
 31 30  1  0  0  0  0
 33 31  2  0  0  0  0
 34 35  1  0  0  0  0
 35 38  1  0  0  0  0
 36 41  1  0  0  0  0
 38 39  2  0  0  0  0
 39 37  1  0  0  0  0
 40 36  2  0  0  0  0
 40 38  1  0  0  0  0
 41 42  1  0  0  0  0
 41 37  2  0  0  0  0
 43 44  2  0  0  0  0
 43 42  1  0  0  0  0
 45 43  1  0  0  0  0
 46 45  1  0  0  0  0
 46 47  2  0  0  0  0
M  END
>  <MODEL>
2

>  <REMARK>
 VINA RESULT:      -7.5      2.444      5.912
  Name = 
  9 active torsions:
  status: ('A' for Active; 'I' for Inactive)
    1  A    between atoms: C_2  and  O_47
    2  A    between atoms: C_4  and  C_46
    3  A    between atoms: C_6  and  C_18
    4  A    between atoms: N_9  and  C_40
    5  A    between atoms: C_10  and  O_47
    6  A    between atoms: C_12  and  C_45
    7  A    between atoms: C_18  and  C_46
    8  A    between atoms: C_29  and  C_31
    9  A    between atoms: C_29  and  C_45
                            x       y       z     vdW  Elec       q    Type
                         _______ _______ _______ _____ _____    ______ ____

>  <TORSDO>
F 9

$$$$
=
 OpenBabel11042418123D

 47 52  0  0  1  0  0  0  0  0999 V2000
  193.3660  176.1010  144.0090 C   0  0  0  0  0  0  0  0  0  0  0  0
  194.5640  176.0570  144.5820 C   0  0  0  0  0  0  0  0  0  0  0  0
  197.0130  176.3220  143.7190 C   0  0  0  0  0  1  0  0  0  0  0  0
  189.9070  173.0980  141.4130 C   0  0  1  0  0  3  0  0  0  0  0  0
  192.0990  176.0120  144.6740 N   0  0  0  0  0  0  0  0  0  0  0  0
  193.5210  176.3500  142.5450 C   0  0  2  0  0  3  0  0  0  0  0  0
  190.1930  171.6900  140.8960 C   0  0  1  0  0  3  0  0  0  0  0  0
  191.0150  173.9460  140.8240 C   0  0  2  0  0  3  0  0  0  0  0  0
  192.0440  175.8860  146.0220 O   0  0  0  0  0  1  0  0  0  0  0  0
  190.8800  176.2070  143.9390 C   0  0  0  0  0  0  0  0  0  0  0  0
  190.6980  175.7000  142.6090 N   0  0  0  0  0  2  0  0  0  0  0  0
  187.5500  178.0790  147.1300 C   0  0  0  0  0  2  0  0  0  0  0  0
  188.8060  177.2600  145.1210 C   0  0  0  0  0  0  0  0  0  0  0  0
  192.9390  175.1980  141.7650 C   0  0  0  0  0  0  0  0  0  0  0  0
  191.9920  172.9740  140.3800 N   0  0  0  0  0  0  0  0  0  0  0  0
  193.8360  174.3710  140.9190 C   0  0  0  0  0  3  0  0  0  0  0  0
  186.4170  176.6790  144.6970 C   0  0  0  0  0  3  0  0  0  0  0  0
  195.5370  176.2750  143.5320 C   0  0  0  0  0  0  0  0  0  0  0  0
  191.5590  171.6450  140.3760 N   0  0  0  0  0  2  0  0  0  0  0  0
  191.6110  174.9290  141.8110 C   0  0  0  0  0  0  0  0  0  0  0  0
  194.9730  176.4470  142.3830 N   0  0  0  0  0  0  0  0  0  0  0  0
  188.8990  177.6500  146.5650 C   0  0  0  0  0  2  0  0  0  0  0  0
  193.3770  173.2970  140.2820 C   0  0  0  0  0  3  0  0  0  0  0  0
  194.8690  175.8640  146.0290 C   0  0  0  0  0  1  0  0  0  0  0  0
  187.5810  177.5550  144.3170 C   0  0  0  0  0  2  0  0  0  0  0  0
  186.6260  176.8720  147.2440 C   0  0  0  0  0  2  0  0  0  0  0  0
  185.9910  176.4270  145.9470 C   0  0  0  0  0  3  0  0  0  0  0  0
  189.8450  176.7360  144.5340 C   0  0  0  0  0  0  0  0  0  0  0  0
  188.5530  173.5490  140.8900 C   0  0  0  0  0  2  0  0  0  0  0  0
  188.3830  173.1450  139.4370 C   0  0  0  0  0  2  0  0  0  0  0  0
  188.2000  174.3550  138.5930 C   0  0  0  0  0  0  0  0  0  0  0  0
  187.7700  175.4200  139.1060 O   0  0  0  0  0  1  0  0  0  0  0  0
  188.4760  174.3020  137.2340 O   0  0  0  0  0  0  0  0  0  0  0  0
  190.0240  170.6830  142.0250 C   0  0  0  0  0  2  0  0  0  0  0  0
  190.1710  171.3480  143.3880 C   0  0  0  0  0  2  0  0  0  0  0  0
  193.7720  170.3160  143.9710 C   0  0  0  0  0  3  0  0  0  0  0  0
  193.4490  172.5400  144.8610 C   0  0  0  0  0  3  0  0  0  0  0  0
  191.5980  171.3720  143.8250 C   0  0  0  0  0  0  0  0  0  0  0  0
  192.1090  172.5060  144.4660 C   0  0  0  0  0  3  0  0  0  0  0  0
  192.4320  170.2780  143.5760 C   0  0  0  0  0  3  0  0  0  0  0  0
  194.2890  171.4420  144.6190 C   0  0  0  0  0  0  0  0  0  0  0  0
  195.6720  171.4500  144.9940 N   0  0  0  0  0  2  0  0  0  0  0  0
  196.7530  172.0290  144.2530 C   0  0  0  0  0  0  0  0  0  0  0  0
  197.9290  171.8610  144.6710 O   0  0  0  0  0  0  0  0  0  0  0  0
  196.4980  172.7880  143.0980 O   0  0  0  0  0  0  0  0  0  0  0  0
  197.3320  172.8990  141.9750 C   0  0  0  0  0  3  0  0  0  0  0  0
  197.2660  173.8940  141.0990 C   0  0  0  0  0  2  0  0  0  0  0  0
  1  2  2  0  0  0  0
  1  5  1  0  0  0  0
  2 24  1  0  0  0  0
  4 29  1  6  0  0  0
  5  9  1  0  0  0  0
  6 14  1  6  0  0  0
  6  1  1  0  0  0  0
  7  4  1  0  0  0  0
  7 34  1  1  0  0  0
  8  4  1  0  0  0  0
  8 20  1  1  0  0  0
 10 28  2  0  0  0  0
 10  5  1  0  0  0  0
 11 10  1  0  0  0  0
 12 26  1  0  0  0  0
 13 22  1  0  0  0  0
 14 20  2  0  0  0  0
 15  8  1  0  0  0  0
 16 14  1  0  0  0  0
 17 27  2  0  0  0  0
 18  3  1  0  0  0  0
 18  2  1  0  0  0  0
 19 15  1  0  0  0  0
 19  7  1  0  0  0  0
 20 11  1  0  0  0  0
 21  6  1  0  0  0  0
 21 18  2  0  0  0  0
 22 12  1  0  0  0  0
 23 15  1  0  0  0  0
 23 16  2  0  0  0  0
 25 17  1  0  0  0  0
 25 13  1  0  0  0  0
 27 26  1  0  0  0  0
 28 13  2  0  0  0  0
 30 29  1  0  0  0  0
 31 32  1  0  0  0  0
 31 30  1  0  0  0  0
 33 31  2  0  0  0  0
 34 35  1  0  0  0  0
 35 38  1  0  0  0  0
 36 41  1  0  0  0  0
 38 39  2  0  0  0  0
 39 37  1  0  0  0  0
 40 38  1  0  0  0  0
 40 36  2  0  0  0  0
 41 37  2  0  0  0  0
 41 42  1  0  0  0  0
 43 44  2  0  0  0  0
 43 42  1  0  0  0  0
 45 43  1  0  0  0  0
 46 45  1  0  0  0  0
 47 46  2  0  0  0  0
M  END
>  <MODEL>
3

>  <REMARK>
 VINA RESULT:      -7.3      2.439      6.249
  Name = 
  9 active torsions:
  status: ('A' for Active; 'I' for Inactive)
    1  A    between atoms: C_2  and  O_47
    2  A    between atoms: C_4  and  C_46
    3  A    between atoms: C_6  and  C_18
    4  A    between atoms: N_9  and  C_40
    5  A    between atoms: C_10  and  O_47
    6  A    between atoms: C_12  and  C_45
    7  A    between atoms: C_18  and  C_46
    8  A    between atoms: C_29  and  C_31
    9  A    between atoms: C_29  and  C_45
                            x       y       z     vdW  Elec       q    Type
                         _______ _______ _______ _____ _____    ______ ____

>  <TORSDO>
F 9

$$$$
=
 OpenBabel11042418123D

 47 52  0  0  1  0  0  0  0  0999 V2000
  192.1690  172.2270  141.2580 C   0  0  0  0  0  0  0  0  0  0  0  0
  192.0020  171.8500  139.9950 C   0  0  0  0  0  0  0  0  0  0  0  0
  192.6920  169.7470  138.6100 C   0  0  0  0  0  1  0  0  0  0  0  0
  195.6240  174.6060  144.4410 C   0  0  1  0  0  3  0  0  0  0  0  0
  191.6370  173.4070  141.8730 N   0  0  0  0  0  0  0  0  0  0  0  0
  192.9400  171.1820  141.9950 C   0  0  2  0  0  3  0  0  0  0  0  0
  197.0580  174.9630  144.0570 C   0  0  1  0  0  3  0  0  0  0  0  0
  195.5130  173.1260  144.1450 C   0  0  2  0  0  3  0  0  0  0  0  0
  190.8610  174.2580  141.1570 O   0  0  0  0  0  1  0  0  0  0  0  0
  191.7910  173.6210  143.2850 C   0  0  0  0  0  0  0  0  0  0  0  0
  193.0010  173.2900  143.9820 N   0  0  0  0  0  2  0  0  0  0  0  0
  187.8740  176.3050  144.7800 C   0  0  0  0  0  2  0  0  0  0  0  0
  189.9520  174.9130  144.6110 C   0  0  0  0  0  0  0  0  0  0  0  0
  194.2290  171.7660  142.5140 C   0  0  0  0  0  0  0  0  0  0  0  0
  196.6660  172.8550  143.3130 N   0  0  0  0  0  0  0  0  0  0  0  0
  195.5200  171.2370  142.0050 C   0  0  0  0  0  3  0  0  0  0  0  0
  190.3330  176.4490  146.5390 C   0  0  0  0  0  3  0  0  0  0  0  0
  192.6440  170.5580  139.8570 C   0  0  0  0  0  0  0  0  0  0  0  0
  197.6140  173.8810  143.2460 N   0  0  0  0  0  2  0  0  0  0  0  0
  194.2210  172.7450  143.4510 C   0  0  0  0  0  0  0  0  0  0  0  0
  193.1720  170.1640  140.9680 N   0  0  0  0  0  0  0  0  0  0  0  0
  188.7460  175.4290  143.8880 C   0  0  0  0  0  2  0  0  0  0  0  0
  196.6760  171.7820  142.3740 C   0  0  0  0  0  3  0  0  0  0  0  0
  191.2630  172.5760  138.9230 C   0  0  0  0  0  1  0  0  0  0  0  0
  190.0750  175.0350  146.0960 C   0  0  0  0  0  2  0  0  0  0  0  0
  188.5860  177.6190  145.0740 C   0  0  0  0  0  2  0  0  0  0  0  0
  189.6640  177.5420  146.1290 C   0  0  0  0  0  3  0  0  0  0  0  0
  190.8680  174.2670  143.9450 C   0  0  0  0  0  0  0  0  0  0  0  0
  195.4310  174.8710  145.9250 C   0  0  0  0  0  2  0  0  0  0  0  0
  194.0730  175.4980  146.1800 C   0  0  0  0  0  2  0  0  0  0  0  0
  193.9750  176.8010  145.4710 C   0  0  0  0  0  0  0  0  0  0  0  0
  193.0840  176.9790  144.6020 O   0  0  0  0  0  0  0  0  0  0  0  0
  194.8870  177.8110  145.7460 O   0  0  0  0  0  1  0  0  0  0  0  0
  197.0730  176.2700  143.2770 C   0  0  0  0  0  2  0  0  0  0  0  0
  195.8130  176.4280  142.4350 C   0  0  0  0  0  2  0  0  0  0  0  0
  195.0420  174.2890  139.4010 C   0  0  0  0  0  3  0  0  0  0  0  0
  197.2330  175.2710  139.1210 C   0  0  0  0  0  3  0  0  0  0  0  0
  195.9500  175.7310  141.1220 C   0  0  0  0  0  0  0  0  0  0  0  0
  197.1090  175.9070  140.3590 C   0  0  0  0  0  3  0  0  0  0  0  0
  194.9150  174.9230  140.6400 C   0  0  0  0  0  3  0  0  0  0  0  0
  196.2010  174.4540  138.6360 C   0  0  0  0  0  0  0  0  0  0  0  0
  196.2870  173.8020  137.3620 N   0  0  0  0  0  2  0  0  0  0  0  0
  195.9100  174.3520  136.0950 C   0  0  0  0  0  0  0  0  0  0  0  0
  195.9520  173.6100  135.0780 O   0  0  0  0  0  0  0  0  0  0  0  0
  195.5250  175.7000  135.9900 O   0  0  0  0  0  0  0  0  0  0  0  0
  194.2300  176.1780  135.7410 C   0  0  0  0  0  3  0  0  0  0  0  0
  193.1980  175.9770  136.5510 C   0  0  0  0  0  2  0  0  0  0  0  0
  1  5  1  0  0  0  0
  1  6  1  0  0  0  0
  2  1  2  0  0  0  0
  3 18  1  0  0  0  0
  4 29  1  1  0  0  0
  5 10  1  0  0  0  0
  6 21  1  6  0  0  0
  6 14  1  0  0  0  0
  7 34  1  6  0  0  0
  7  4  1  0  0  0  0
  8 20  1  6  0  0  0
  8  4  1  0  0  0  0
  9  5  1  0  0  0  0
 10 28  2  0  0  0  0
 10 11  1  0  0  0  0
 12 26  1  0  0  0  0
 13 25  1  0  0  0  0
 14 20  2  0  0  0  0
 15  8  1  0  0  0  0
 16 23  2  0  0  0  0
 16 14  1  0  0  0  0
 18  2  1  0  0  0  0
 18 21  2  0  0  0  0
 19 15  1  0  0  0  0
 19  7  1  0  0  0  0
 20 11  1  0  0  0  0
 22 13  1  0  0  0  0
 22 12  1  0  0  0  0
 23 15  1  0  0  0  0
 24  2  1  0  0  0  0
 25 17  1  0  0  0  0
 26 27  1  0  0  0  0
 27 17  2  0  0  0  0
 28 13  2  0  0  0  0
 29 30  1  0  0  0  0
 31 33  1  0  0  0  0
 31 30  1  0  0  0  0
 32 31  2  0  0  0  0
 35 34  1  0  0  0  0
 36 40  1  0  0  0  0
 37 39  2  0  0  0  0
 38 35  1  0  0  0  0
 39 38  1  0  0  0  0
 40 38  2  0  0  0  0
 41 37  1  0  0  0  0
 41 36  2  0  0  0  0
 42 41  1  0  0  0  0
 43 42  1  0  0  0  0
 44 43  2  0  0  0  0
 45 43  1  0  0  0  0
 46 45  1  0  0  0  0
 46 47  2  0  0  0  0
M  END
>  <MODEL>
4

>  <REMARK>
 VINA RESULT:      -7.2      2.408      3.641
  Name = 
  9 active torsions:
  status: ('A' for Active; 'I' for Inactive)
    1  A    between atoms: C_2  and  O_47
    2  A    between atoms: C_4  and  C_46
    3  A    between atoms: C_6  and  C_18
    4  A    between atoms: N_9  and  C_40
    5  A    between atoms: C_10  and  O_47
    6  A    between atoms: C_12  and  C_45
    7  A    between atoms: C_18  and  C_46
    8  A    between atoms: C_29  and  C_31
    9  A    between atoms: C_29  and  C_45
                            x       y       z     vdW  Elec       q    Type
                         _______ _______ _______ _____ _____    ______ ____

>  <TORSDO>
F 9

$$$$
=
 OpenBabel11042418123D

 47 52  0  0  1  0  0  0  0  0999 V2000
  191.5410  172.2750  140.6170 C   0  0  0  0  0  0  0  0  0  0  0  0
  192.7740  171.7890  140.7150 C   0  0  0  0  0  0  0  0  0  0  0  0
  193.8880  169.9120  142.1480 C   0  0  0  0  0  1  0  0  0  0  0  0
  188.2840  175.7720  142.8270 C   0  0  1  0  0  3  0  0  0  0  0  0
  191.0900  173.2740  139.6940 N   0  0  0  0  0  0  0  0  0  0  0  0
  190.6420  171.5560  141.5680 C   0  0  2  0  0  3  0  0  0  0  0  0
  188.5640  176.5200  144.1280 C   0  0  1  0  0  3  0  0  0  0  0  0
  188.4510  174.3120  143.1890 C   0  0  2  0  0  3  0  0  0  0  0  0
  191.9510  173.8070  138.7920 O   0  0  0  0  0  1  0  0  0  0  0  0
  189.6960  173.6100  139.6130 C   0  0  0  0  0  0  0  0  0  0  0  0
  188.8620  173.7010  140.7770 N   0  0  0  0  0  2  0  0  0  0  0  0
  188.8260  175.0730  134.9350 C   0  0  0  0  0  2  0  0  0  0  0  0
  188.6720  174.3650  137.3350 C   0  0  0  0  0  0  0  0  0  0  0  0
  190.0620  172.5320  142.5600 C   0  0  0  0  0  0  0  0  0  0  0  0
  189.1430  174.3510  144.4610 N   0  0  0  0  0  0  0  0  0  0  0  0
  190.3970  172.3870  144.0000 C   0  0  0  0  0  3  0  0  0  0  0  0
  186.8670  176.0580  137.0210 C   0  0  0  0  0  3  0  0  0  0  0  0
  192.7310  170.7450  141.7190 C   0  0  0  0  0  0  0  0  0  0  0  0
  189.2160  175.6100  145.0670 N   0  0  0  0  0  2  0  0  0  0  0  0
  189.2240  173.5180  142.1560 C   0  0  0  0  0  0  0  0  0  0  0  0
  191.5440  170.5960  142.2060 N   0  0  0  0  0  0  0  0  0  0  0  0
  189.5490  174.4490  136.1230 C   0  0  0  0  0  2  0  0  0  0  0  0
  189.9740  173.2760  144.8940 C   0  0  0  0  0  3  0  0  0  0  0  0
  193.9730  172.1930  139.9260 C   0  0  0  0  0  1  0  0  0  0  0  0
  187.1990  174.6080  137.2430 C   0  0  0  0  0  2  0  0  0  0  0  0
  188.5900  176.5560  135.1910 C   0  0  0  0  0  2  0  0  0  0  0  0
  187.4370  176.8720  136.1140 C   0  0  0  0  0  3  0  0  0  0  0  0
  189.1870  173.9860  138.4700 C   0  0  0  0  0  0  0  0  0  0  0  0
  186.8550  176.0560  142.3930 C   0  0  0  0  0  2  0  0  0  0  0  0
  186.0630  176.6610  143.5370 C   0  0  0  0  0  2  0  0  0  0  0  0
  185.4010  177.9130  143.0880 C   0  0  0  0  0  0  0  0  0  0  0  0
  184.1700  177.9160  142.8270 O   0  0  0  0  0  0  0  0  0  0  0  0
  186.1450  179.0740  142.9270 O   0  0  0  0  0  1  0  0  0  0  0  0
  189.4570  177.7220  143.8500 C   0  0  0  0  0  2  0  0  0  0  0  0
  190.4080  177.4490  142.6910 C   0  0  0  0  0  2  0  0  0  0  0  0
  193.3150  175.0220  142.8590 C   0  0  0  0  0  3  0  0  0  0  0  0
  193.4560  176.5320  144.7420 C   0  0  0  0  0  3  0  0  0  0  0  0
  191.6380  176.7430  143.1560 C   0  0  0  0  0  0  0  0  0  0  0  0
  192.2940  177.1790  144.3130 C   0  0  0  0  0  3  0  0  0  0  0  0
  192.1520  175.6660  142.4280 C   0  0  0  0  0  3  0  0  0  0  0  0
  193.9720  175.4460  144.0190 C   0  0  0  0  0  0  0  0  0  0  0  0
  195.1720  174.7720  144.4190 N   0  0  0  0  0  2  0  0  0  0  0  0
  196.5150  175.1830  144.1390 C   0  0  0  0  0  0  0  0  0  0  0  0
  197.4610  174.4230  144.4750 O   0  0  0  0  0  0  0  0  0  0  0  0
  196.7670  176.4220  143.5240 O   0  0  0  0  0  0  0  0  0  0  0  0
  196.8110  176.6710  142.1450 C   0  0  0  0  0  3  0  0  0  0  0  0
  196.6190  175.7410  141.2170 C   0  0  0  0  0  2  0  0  0  0  0  0
  1  2  2  0  0  0  0
  2 18  1  0  0  0  0
  4 29  1  1  0  0  0
  4  8  1  0  0  0  0
  4  7  1  0  0  0  0
  5  1  1  0  0  0  0
  6  1  1  6  0  0  0
  6 21  1  0  0  0  0
  6 14  1  0  0  0  0
  7 34  1  6  0  0  0
  7 19  1  0  0  0  0
  8 20  1  6  0  0  0
  8 15  1  0  0  0  0
  9  5  1  0  0  0  0
 10  5  1  0  0  0  0
 10 11  1  0  0  0  0
 11 20  1  0  0  0  0
 12 26  1  0  0  0  0
 12 22  1  0  0  0  0
 13 28  2  0  0  0  0
 14 16  1  0  0  0  0
 15 23  1  0  0  0  0
 15 19  1  0  0  0  0
 16 23  2  0  0  0  0
 17 25  1  0  0  0  0
 18  3  1  0  0  0  0
 18 21  2  0  0  0  0
 20 14  2  0  0  0  0
 22 13  1  0  0  0  0
 24  2  1  0  0  0  0
 25 13  1  0  0  0  0
 26 27  1  0  0  0  0
 27 17  2  0  0  0  0
 28 10  2  0  0  0  0
 29 30  1  0  0  0  0
 31 30  1  0  0  0  0
 32 31  2  0  0  0  0
 33 31  1  0  0  0  0
 35 38  1  0  0  0  0
 35 34  1  0  0  0  0
 36 41  1  0  0  0  0
 38 39  2  0  0  0  0
 39 37  1  0  0  0  0
 40 36  2  0  0  0  0
 40 38  1  0  0  0  0
 41 42  1  0  0  0  0
 41 37  2  0  0  0  0
 43 42  1  0  0  0  0
 43 44  2  0  0  0  0
 45 43  1  0  0  0  0
 46 45  1  0  0  0  0
 47 46  2  0  0  0  0
M  END
>  <MODEL>
5

>  <REMARK>
 VINA RESULT:      -7.0      2.772      5.373
  Name = 
  9 active torsions:
  status: ('A' for Active; 'I' for Inactive)
    1  A    between atoms: C_2  and  O_47
    2  A    between atoms: C_4  and  C_46
    3  A    between atoms: C_6  and  C_18
    4  A    between atoms: N_9  and  C_40
    5  A    between atoms: C_10  and  O_47
    6  A    between atoms: C_12  and  C_45
    7  A    between atoms: C_18  and  C_46
    8  A    between atoms: C_29  and  C_31
    9  A    between atoms: C_29  and  C_45
                            x       y       z     vdW  Elec       q    Type
                         _______ _______ _______ _____ _____    ______ ____

>  <TORSDO>
F 9

$$$$
=
 OpenBabel11042418123D

 47 52  0  0  1  0  0  0  0  0999 V2000
  191.7630  171.4920  140.8830 C   0  0  0  0  0  0  0  0  0  0  0  0
  191.1680  170.4060  140.4010 C   0  0  0  0  0  0  0  0  0  0  0  0
  189.6930  169.9090  138.3060 C   0  0  0  0  0  1  0  0  0  0  0  0
  190.8500  175.7260  143.8760 C   0  0  1  0  0  3  0  0  0  0  0  0
  192.6200  171.5570  142.0310 N   0  0  0  0  0  0  0  0  0  0  0  0
  191.4800  172.6550  139.9920 C   0  0  2  0  0  3  0  0  0  0  0  0
  189.4740  176.1590  144.3740 C   0  0  1  0  0  3  0  0  0  0  0  0
  190.6860  175.6060  142.3760 C   0  0  2  0  0  3  0  0  0  0  0  0
  192.9080  170.4320  142.7300 O   0  0  0  0  0  1  0  0  0  0  0  0
  193.3000  172.7780  142.3590 C   0  0  0  0  0  0  0  0  0  0  0  0
  192.6750  174.0620  142.2250 N   0  0  0  0  0  2  0  0  0  0  0  0
  197.5330  171.5080  144.6500 C   0  0  0  0  0  2  0  0  0  0  0  0
  195.6410  172.6920  143.5100 C   0  0  0  0  0  0  0  0  0  0  0  0
  190.7440  173.7230  140.7610 C   0  0  0  0  0  0  0  0  0  0  0  0
  189.2500  175.5930  142.1880 N   0  0  0  0  0  0  0  0  0  0  0  0
  189.3610  174.0840  140.3570 C   0  0  0  0  0  3  0  0  0  0  0  0
  196.5040  174.2990  145.2110 C   0  0  0  0  0  3  0  0  0  0  0  0
  190.4830  170.8090  139.1900 C   0  0  0  0  0  0  0  0  0  0  0  0
  188.4930  175.9330  143.3140 N   0  0  0  0  0  2  0  0  0  0  0  0
  191.3380  174.3680  141.7950 C   0  0  0  0  0  0  0  0  0  0  0  0
  190.6500  172.0650  138.9400 N   0  0  0  0  0  0  0  0  0  0  0  0
  196.2590  171.3640  143.8260 C   0  0  0  0  0  2  0  0  0  0  0  0
  188.6490  174.9590  141.0610 C   0  0  0  0  0  3  0  0  0  0  0  0
  191.2180  169.0230  140.9580 C   0  0  0  0  0  1  0  0  0  0  0  0
  196.3820  173.9680  143.7490 C   0  0  0  0  0  2  0  0  0  0  0  0
  197.1910  171.9800  146.0580 C   0  0  0  0  0  2  0  0  0  0  0  0
  196.8910  173.4550  146.1850 C   0  0  0  0  0  3  0  0  0  0  0  0
  194.4720  172.7310  142.9340 C   0  0  0  0  0  0  0  0  0  0  0  0
  191.8610  176.8100  144.2190 C   0  0  0  0  0  2  0  0  0  0  0  0
  193.1170  176.1960  144.8070 C   0  0  0  0  0  2  0  0  0  0  0  0
  193.1590  176.4360  146.2730 C   0  0  0  0  0  0  0  0  0  0  0  0
  194.2560  176.3920  146.8870 O   0  0  0  0  0  0  0  0  0  0  0  0
  191.9840  176.6810  146.9710 O   0  0  0  0  0  1  0  0  0  0  0  0
  189.1010  175.3620  145.6170 C   0  0  0  0  0  2  0  0  0  0  0  0
  188.4610  176.2520  146.6750 C   0  0  0  0  0  2  0  0  0  0  0  0
  184.8150  177.0500  146.0110 C   0  0  0  0  0  3  0  0  0  0  0  0
  186.1860  178.6780  144.8650 C   0  0  0  0  0  3  0  0  0  0  0  0
  187.2280  176.9120  146.1520 C   0  0  0  0  0  0  0  0  0  0  0  0
  187.3380  178.0470  145.3420 C   0  0  0  0  0  3  0  0  0  0  0  0
  185.9650  176.4150  146.4880 C   0  0  0  0  0  3  0  0  0  0  0  0
  184.9160  178.1810  145.1940 C   0  0  0  0  0  0  0  0  0  0  0  0
  183.7130  178.8140  144.7390 N   0  0  0  0  0  2  0  0  0  0  0  0
  183.1670  178.7550  143.4160 C   0  0  0  0  0  0  0  0  0  0  0  0
  182.1530  179.4530  143.1510 O   0  0  0  0  0  0  0  0  0  0  0  0
  183.7410  177.9160  142.4450 O   0  0  0  0  0  0  0  0  0  0  0  0
  184.6840  178.2890  141.4770 C   0  0  0  0  0  3  0  0  0  0  0  0
  185.9090  177.7820  141.4020 C   0  0  0  0  0  2  0  0  0  0  0  0
  1  5  1  0  0  0  0
  2  1  2  0  0  0  0
  2 24  1  0  0  0  0
  3 18  1  0  0  0  0
  4 29  1  6  0  0  0
  4  7  1  0  0  0  0
  5 10  1  0  0  0  0
  5  9  1  0  0  0  0
  6 21  1  6  0  0  0
  6 14  1  0  0  0  0
  6  1  1  0  0  0  0
  7 34  1  1  0  0  0
  8 20  1  1  0  0  0
  8  4  1  0  0  0  0
 10 28  2  0  0  0  0
 11 10  1  0  0  0  0
 12 26  1  0  0  0  0
 13 25  1  0  0  0  0
 13 22  1  0  0  0  0
 14 20  2  0  0  0  0
 15  8  1  0  0  0  0
 15 19  1  0  0  0  0
 16 14  1  0  0  0  0
 16 23  2  0  0  0  0
 17 27  2  0  0  0  0
 18  2  1  0  0  0  0
 19  7  1  0  0  0  0
 20 11  1  0  0  0  0
 21 18  2  0  0  0  0
 22 12  1  0  0  0  0
 23 15  1  0  0  0  0
 25 17  1  0  0  0  0
 26 27  1  0  0  0  0
 28 13  2  0  0  0  0
 29 30  1  0  0  0  0
 30 31  1  0  0  0  0
 31 32  2  0  0  0  0
 31 33  1  0  0  0  0
 34 35  1  0  0  0  0
 36 40  1  0  0  0  0
 37 41  1  0  0  0  0
 37 39  2  0  0  0  0
 38 40  2  0  0  0  0
 38 35  1  0  0  0  0
 39 38  1  0  0  0  0
 41 36  2  0  0  0  0
 42 41  1  0  0  0  0
 43 42  1  0  0  0  0
 44 43  2  0  0  0  0
 45 43  1  0  0  0  0
 46 45  1  0  0  0  0
 47 46  2  0  0  0  0
M  END
>  <MODEL>
6

>  <REMARK>
 VINA RESULT:      -6.8      2.987      8.039
  Name = 
  9 active torsions:
  status: ('A' for Active; 'I' for Inactive)
    1  A    between atoms: C_2  and  O_47
    2  A    between atoms: C_4  and  C_46
    3  A    between atoms: C_6  and  C_18
    4  A    between atoms: N_9  and  C_40
    5  A    between atoms: C_10  and  O_47
    6  A    between atoms: C_12  and  C_45
    7  A    between atoms: C_18  and  C_46
    8  A    between atoms: C_29  and  C_31
    9  A    between atoms: C_29  and  C_45
                            x       y       z     vdW  Elec       q    Type
                         _______ _______ _______ _____ _____    ______ ____

>  <TORSDO>
F 9

$$$$
=
 OpenBabel11042418123D

 47 52  0  0  1  0  0  0  0  0999 V2000
  191.2060  171.9000  141.7060 C   0  0  0  0  0  0  0  0  0  0  0  0
  191.4990  171.2350  140.5940 C   0  0  0  0  0  0  0  0  0  0  0  0
  192.4120  168.8440  140.0820 C   0  0  0  0  0  1  0  0  0  0  0  0
  193.4080  174.8800  145.4460 C   0  0  1  0  0  3  0  0  0  0  0  0
  190.6230  173.2070  141.7900 N   0  0  0  0  0  0  0  0  0  0  0  0
  191.4940  171.0420  142.8930 C   0  0  2  0  0  3  0  0  0  0  0  0
  194.9100  175.0950  145.6150 C   0  0  1  0  0  3  0  0  0  0  0  0
  193.2420  173.3750  145.4470 C   0  0  2  0  0  3  0  0  0  0  0  0
  190.2980  173.8810  140.6600 O   0  0  0  0  0  1  0  0  0  0  0  0
  190.2400  173.7500  143.0640 C   0  0  0  0  0  0  0  0  0  0  0  0
  191.0320  173.5630  144.2450 N   0  0  0  0  0  2  0  0  0  0  0  0
  186.4080  176.8180  142.2370 C   0  0  0  0  0  2  0  0  0  0  0  0
  188.2020  175.3710  143.2240 C   0  0  0  0  0  0  0  0  0  0  0  0
  192.5410  171.6990  143.7580 C   0  0  0  0  0  0  0  0  0  0  0  0
  194.5860  172.8820  145.2340 N   0  0  0  0  0  0  0  0  0  0  0  0
  193.8530  171.0290  143.9410 C   0  0  0  0  0  3  0  0  0  0  0  0
  187.9850  177.3140  144.7730 C   0  0  0  0  0  3  0  0  0  0  0  0
  191.9810  169.9320  141.0020 C   0  0  0  0  0  0  0  0  0  0  0  0
  195.6020  173.8360  145.3460 N   0  0  0  0  0  2  0  0  0  0  0  0
  192.2860  172.8740  144.3830 C   0  0  0  0  0  0  0  0  0  0  0  0
  191.9820  169.8010  142.2870 N   0  0  0  0  0  0  0  0  0  0  0  0
  187.4450  175.7300  141.9810 C   0  0  0  0  0  2  0  0  0  0  0  0
  194.8300  171.6150  144.6270 C   0  0  0  0  0  3  0  0  0  0  0  0
  191.3310  171.7030  139.1880 C   0  0  0  0  0  1  0  0  0  0  0  0
  187.7500  175.8420  144.5690 C   0  0  0  0  0  2  0  0  0  0  0  0
  187.1030  178.1450  142.5150 C   0  0  0  0  0  2  0  0  0  0  0  0
  187.6670  178.2940  143.9080 C   0  0  0  0  0  3  0  0  0  0  0  0
  189.2180  174.5600  143.1400 C   0  0  0  0  0  0  0  0  0  0  0  0
  192.6860  175.4990  146.6330 C   0  0  0  0  0  2  0  0  0  0  0  0
  191.5950  176.4400  146.1570 C   0  0  0  0  0  2  0  0  0  0  0  0
  190.4900  176.4770  147.1500 C   0  0  0  0  0  0  0  0  0  0  0  0
  189.9460  175.4070  147.5270 O   0  0  0  0  0  0  0  0  0  0  0  0
  190.0370  177.6940  147.6410 O   0  0  0  0  0  1  0  0  0  0  0  0
  195.3870  176.1760  144.6550 C   0  0  0  0  0  2  0  0  0  0  0  0
  194.4870  176.2650  143.4290 C   0  0  0  0  0  2  0  0  0  0  0  0
  196.6930  175.6870  140.4010 C   0  0  0  0  0  3  0  0  0  0  0  0
  195.3770  173.6970  140.7930 C   0  0  0  0  0  3  0  0  0  0  0  0
  195.1230  175.6190  142.2430 C   0  0  0  0  0  0  0  0  0  0  0  0
  194.7700  174.3120  141.8910 C   0  0  0  0  0  3  0  0  0  0  0  0
  196.0870  176.3050  141.4980 C   0  0  0  0  0  3  0  0  0  0  0  0
  196.3400  174.3830  140.0370 C   0  0  0  0  0  0  0  0  0  0  0  0
  196.9950  173.7770  138.9160 N   0  0  0  0  0  2  0  0  0  0  0  0
  196.4050  173.4680  137.6480 C   0  0  0  0  0  0  0  0  0  0  0  0
  197.0930  172.8410  136.8000 O   0  0  0  0  0  0  0  0  0  0  0  0
  195.0950  173.8810  137.3530 O   0  0  0  0  0  0  0  0  0  0  0  0
  194.7160  175.1130  136.8010 C   0  0  0  0  0  3  0  0  0  0  0  0
  193.5210  175.6670  136.9740 C   0  0  0  0  0  2  0  0  0  0  0  0
  1  5  1  0  0  0  0
  2 18  1  0  0  0  0
  2  1  2  0  0  0  0
  3 18  1  0  0  0  0
  4  8  1  0  0  0  0
  4  7  1  0  0  0  0
  4 29  1  1  0  0  0
  5 10  1  0  0  0  0
  6  1  1  6  0  0  0
  6 14  1  0  0  0  0
  7 34  1  6  0  0  0
  8 20  1  6  0  0  0
  9  5  1  0  0  0  0
 10 28  2  0  0  0  0
 10 11  1  0  0  0  0
 11 20  1  0  0  0  0
 12 26  1  0  0  0  0
 13 25  1  0  0  0  0
 14 16  1  0  0  0  0
 14 20  2  0  0  0  0
 15 19  1  0  0  0  0
 15  8  1  0  0  0  0
 16 23  2  0  0  0  0
 18 21  2  0  0  0  0
 19  7  1  0  0  0  0
 21  6  1  0  0  0  0
 22 12  1  0  0  0  0
 22 13  1  0  0  0  0
 23 15  1  0  0  0  0
 24  2  1  0  0  0  0
 25 17  1  0  0  0  0
 26 27  1  0  0  0  0
 27 17  2  0  0  0  0
 28 13  2  0  0  0  0
 30 29  1  0  0  0  0
 30 31  1  0  0  0  0
 31 32  2  0  0  0  0
 31 33  1  0  0  0  0
 35 34  1  0  0  0  0
 36 40  1  0  0  0  0
 37 39  2  0  0  0  0
 38 35  1  0  0  0  0
 39 38  1  0  0  0  0
 40 38  2  0  0  0  0
 41 36  2  0  0  0  0
 41 37  1  0  0  0  0
 42 41  1  0  0  0  0
 43 42  1  0  0  0  0
 44 43  2  0  0  0  0
 45 43  1  0  0  0  0
 46 47  2  0  0  0  0
 46 45  1  0  0  0  0
M  END
>  <MODEL>
7

>  <REMARK>
 VINA RESULT:      -6.8      1.647      2.144
  Name = 
  9 active torsions:
  status: ('A' for Active; 'I' for Inactive)
    1  A    between atoms: C_2  and  O_47
    2  A    between atoms: C_4  and  C_46
    3  A    between atoms: C_6  and  C_18
    4  A    between atoms: N_9  and  C_40
    5  A    between atoms: C_10  and  O_47
    6  A    between atoms: C_12  and  C_45
    7  A    between atoms: C_18  and  C_46
    8  A    between atoms: C_29  and  C_31
    9  A    between atoms: C_29  and  C_45
                            x       y       z     vdW  Elec       q    Type
                         _______ _______ _______ _____ _____    ______ ____

>  <TORSDO>
F 9

$$$$
=
 OpenBabel11042418123D

 47 52  0  0  1  0  0  0  0  0999 V2000
  192.0780  171.8880  141.4370 C   0  0  0  0  0  0  0  0  0  0  0  0
  191.9840  171.4320  140.1930 C   0  0  0  0  0  0  0  0  0  0  0  0
  192.7160  169.2310  138.9940 C   0  0  0  0  0  1  0  0  0  0  0  0
  195.3710  174.4080  144.6820 C   0  0  1  0  0  3  0  0  0  0  0  0
  191.5330  173.1150  141.9390 N   0  0  0  0  0  0  0  0  0  0  0  0
  192.7760  170.8790  142.2890 C   0  0  2  0  0  3  0  0  0  0  0  0
  196.8350  174.7130  144.3720 C   0  0  1  0  0  3  0  0  0  0  0  0
  195.2470  172.9130  144.4750 C   0  0  2  0  0  3  0  0  0  0  0  0
  190.8250  173.9310  141.1210 O   0  0  0  0  0  1  0  0  0  0  0  0
  191.6010  173.4180  143.3420 C   0  0  0  0  0  0  0  0  0  0  0  0
  192.7550  173.1110  144.1370 N   0  0  0  0  0  2  0  0  0  0  0  0
  187.6560  176.2640  144.3990 C   0  0  0  0  0  2  0  0  0  0  0  0
  189.7090  174.8270  144.4580 C   0  0  0  0  0  0  0  0  0  0  0  0
  194.0420  171.4730  142.8530 C   0  0  0  0  0  0  0  0  0  0  0  0
  196.4450  172.5680  143.7410 N   0  0  0  0  0  0  0  0  0  0  0  0
  195.3510  170.8890  142.4660 C   0  0  0  0  0  3  0  0  0  0  0  0
  189.9980  176.4790  146.3040 C   0  0  0  0  0  3  0  0  0  0  0  0
  192.6050  170.1230  140.1810 C   0  0  0  0  0  0  0  0  0  0  0  0
  197.4180  173.5700  143.6710 N   0  0  0  0  0  2  0  0  0  0  0  0
  193.9940  172.5110  143.7240 C   0  0  0  0  0  0  0  0  0  0  0  0
  193.0510  169.7920  141.3480 N   0  0  0  0  0  0  0  0  0  0  0  0
  188.5640  175.3160  143.6240 C   0  0  0  0  0  2  0  0  0  0  0  0
  196.4920  171.4360  142.8750 C   0  0  0  0  0  3  0  0  0  0  0  0
  191.3330  172.1000  139.0300 C   0  0  0  0  0  1  0  0  0  0  0  0
  189.7380  175.0430  145.9370 C   0  0  0  0  0  2  0  0  0  0  0  0
  188.3760  177.5810  144.6550 C   0  0  0  0  0  2  0  0  0  0  0  0
  189.3820  177.5540  145.7820 C   0  0  0  0  0  3  0  0  0  0  0  0
  190.6510  174.1220  143.8970 C   0  0  0  0  0  0  0  0  0  0  0  0
  195.0880  174.7730  146.1310 C   0  0  0  0  0  2  0  0  0  0  0  0
  193.7280  175.4330  146.2560 C   0  0  0  0  0  2  0  0  0  0  0  0
  193.7660  176.7900  145.6520 C   0  0  0  0  0  0  0  0  0  0  0  0
  194.5880  177.6440  146.0740 O   0  0  0  0  0  1  0  0  0  0  0  0
  192.8760  177.1270  144.6420 O   0  0  0  0  0  0  0  0  0  0  0  0
  196.9300  175.9660  143.5130 C   0  0  0  0  0  2  0  0  0  0  0  0
  195.6830  176.1450  142.6550 C   0  0  0  0  0  2  0  0  0  0  0  0
  197.1690  175.2950  139.2720 C   0  0  0  0  0  3  0  0  0  0  0  0
  195.1080  174.0610  139.5460 C   0  0  0  0  0  3  0  0  0  0  0  0
  195.8690  175.5470  141.3000 C   0  0  0  0  0  0  0  0  0  0  0  0
  194.9290  174.6370  140.8070 C   0  0  0  0  0  3  0  0  0  0  0  0
  196.9910  175.8740  140.5320 C   0  0  0  0  0  3  0  0  0  0  0  0
  196.2290  174.3900  138.7680 C   0  0  0  0  0  0  0  0  0  0  0  0
  196.4550  173.8050  137.4800 N   0  0  0  0  0  2  0  0  0  0  0  0
  196.9280  172.4790  137.2160 C   0  0  0  0  0  0  0  0  0  0  0  0
  197.1710  172.1510  136.0250 O   0  0  0  0  0  0  0  0  0  0  0  0
  197.0920  171.5600  138.2670 O   0  0  0  0  0  0  0  0  0  0  0  0
  196.3170  170.4140  138.4970 C   0  0  0  0  0  3  0  0  0  0  0  0
  196.6100  169.4920  139.4060 C   0  0  0  0  0  2  0  0  0  0  0  0
  1  5  1  0  0  0  0
  1  6  1  0  0  0  0
  2  1  2  0  0  0  0
  3 18  1  0  0  0  0
  4 29  1  1  0  0  0
  5 10  1  0  0  0  0
  6 21  1  6  0  0  0
  6 14  1  0  0  0  0
  7 34  1  6  0  0  0
  7  4  1  0  0  0  0
  8 20  1  6  0  0  0
  8  4  1  0  0  0  0
  9  5  1  0  0  0  0
 10 28  2  0  0  0  0
 10 11  1  0  0  0  0
 12 26  1  0  0  0  0
 13 25  1  0  0  0  0
 14 20  2  0  0  0  0
 15  8  1  0  0  0  0
 16 14  1  0  0  0  0
 16 23  2  0  0  0  0
 18  2  1  0  0  0  0
 18 21  2  0  0  0  0
 19 15  1  0  0  0  0
 19  7  1  0  0  0  0
 20 11  1  0  0  0  0
 22 12  1  0  0  0  0
 22 13  1  0  0  0  0
 23 15  1  0  0  0  0
 24  2  1  0  0  0  0
 25 17  1  0  0  0  0
 26 27  1  0  0  0  0
 27 17  2  0  0  0  0
 28 13  2  0  0  0  0
 29 30  1  0  0  0  0
 31 32  1  0  0  0  0
 31 30  1  0  0  0  0
 33 31  2  0  0  0  0
 35 34  1  0  0  0  0
 36 40  1  0  0  0  0
 37 39  2  0  0  0  0
 38 35  1  0  0  0  0
 39 38  1  0  0  0  0
 40 38  2  0  0  0  0
 41 36  2  0  0  0  0
 41 37  1  0  0  0  0
 42 41  1  0  0  0  0
 43 42  1  0  0  0  0
 43 45  1  0  0  0  0
 44 43  2  0  0  0  0
 45 46  1  0  0  0  0
 46 47  2  0  0  0  0
M  END
>  <MODEL>
8

>  <REMARK>
 VINA RESULT:      -6.8      2.472      3.745
  Name = 
  9 active torsions:
  status: ('A' for Active; 'I' for Inactive)
    1  A    between atoms: C_2  and  O_47
    2  A    between atoms: C_4  and  C_46
    3  A    between atoms: C_6  and  C_18
    4  A    between atoms: N_9  and  C_40
    5  A    between atoms: C_10  and  O_47
    6  A    between atoms: C_12  and  C_45
    7  A    between atoms: C_18  and  C_46
    8  A    between atoms: C_29  and  C_31
    9  A    between atoms: C_29  and  C_45
                            x       y       z     vdW  Elec       q    Type
                         _______ _______ _______ _____ _____    ______ ____

>  <TORSDO>
F 9

$$$$
=
 OpenBabel11042418123D

 47 52  0  0  1  0  0  0  0  0999 V2000
  190.6460  173.0750  142.2310 C   0  0  0  0  0  0  0  0  0  0  0  0
  189.3810  172.7560  142.4830 C   0  0  0  0  0  0  0  0  0  0  0  0
  187.0760  173.8500  141.9290 C   0  0  0  0  0  1  0  0  0  0  0  0
  194.6270  175.9790  144.0850 C   0  0  1  0  0  3  0  0  0  0  0  0
  191.8030  172.2920  142.5510 N   0  0  0  0  0  0  0  0  0  0  0  0
  190.6960  174.3590  141.4700 C   0  0  2  0  0  3  0  0  0  0  0  0
  194.5070  177.0020  145.2130 C   0  0  1  0  0  3  0  0  0  0  0  0
  193.5710  176.3970  143.0850 C   0  0  2  0  0  3  0  0  0  0  0  0
  191.6630  171.0870  143.1560 O   0  0  0  0  0  1  0  0  0  0  0  0
  193.1030  172.7030  142.1010 C   0  0  0  0  0  0  0  0  0  0  0  0
  193.5120  174.0780  142.0940 N   0  0  0  0  0  2  0  0  0  0  0  0
  195.8020  168.5630  141.5000 C   0  0  0  0  0  2  0  0  0  0  0  0
  194.9110  170.9060  141.5410 C   0  0  0  0  0  0  0  0  0  0  0  0
  191.4560  175.3940  142.2620 C   0  0  0  0  0  0  0  0  0  0  0  0
  192.7310  177.3090  143.8330 N   0  0  0  0  0  0  0  0  0  0  0  0
  190.7470  176.6120  142.7290 C   0  0  0  0  0  3  0  0  0  0  0  0
  197.3670  171.1200  141.9240 C   0  0  0  0  0  3  0  0  0  0  0  0
  188.5640  173.8020  141.9020 C   0  0  0  0  0  0  0  0  0  0  0  0
  193.2400  177.7160  145.0710 N   0  0  0  0  0  2  0  0  0  0  0  0
  192.7760  175.2340  142.5270 C   0  0  0  0  0  0  0  0  0  0  0  0
  189.2820  174.7080  141.3250 N   0  0  0  0  0  0  0  0  0  0  0  0
  194.5810  169.4530  141.6990 C   0  0  0  0  0  2  0  0  0  0  0  0
  191.3590  177.5060  143.5000 C   0  0  0  0  0  3  0  0  0  0  0  0
  188.8760  171.5420  143.1860 C   0  0  0  0  0  1  0  0  0  0  0  0
  196.2220  171.3440  140.9730 C   0  0  0  0  0  2  0  0  0  0  0  0
  196.7690  168.7400  142.6640 C   0  0  0  0  0  2  0  0  0  0  0  0
  197.6160  169.9900  142.6090 C   0  0  0  0  0  3  0  0  0  0  0  0
  194.0050  171.8000  141.8200 C   0  0  0  0  0  0  0  0  0  0  0  0
  196.0150  176.0820  143.4730 C   0  0  0  0  0  2  0  0  0  0  0  0
  196.5470  174.7030  143.1280 C   0  0  0  0  0  2  0  0  0  0  0  0
  196.6820  173.8890  144.3640 C   0  0  0  0  0  0  0  0  0  0  0  0
  197.5650  174.1750  145.2120 O   0  0  0  0  0  1  0  0  0  0  0  0
  195.8520  172.7950  144.5690 O   0  0  0  0  0  0  0  0  0  0  0  0
  194.5670  176.2940  146.5590 C   0  0  0  0  0  2  0  0  0  0  0  0
  193.8550  174.9480  146.5100 C   0  0  0  0  0  2  0  0  0  0  0  0
  190.4420  176.1520  147.6390 C   0  0  0  0  0  3  0  0  0  0  0  0
  190.1490  174.5840  145.8220 C   0  0  0  0  0  3  0  0  0  0  0  0
  192.3750  175.1150  146.6130 C   0  0  0  0  0  0  0  0  0  0  0  0
  191.5340  174.4170  145.7410 C   0  0  0  0  0  3  0  0  0  0  0  0
  191.8280  175.9850  147.5610 C   0  0  0  0  0  3  0  0  0  0  0  0
  189.5940  175.4510  146.7750 C   0  0  0  0  0  0  0  0  0  0  0  0
  188.1790  175.6610  146.8750 N   0  0  0  0  0  2  0  0  0  0  0  0
  187.4220  176.6880  146.2240 C   0  0  0  0  0  0  0  0  0  0  0  0
  186.1980  176.7990  146.4960 O   0  0  0  0  0  0  0  0  0  0  0  0
  188.0330  177.5350  145.2830 O   0  0  0  0  0  0  0  0  0  0  0  0
  187.4480  178.0340  144.1100 C   0  0  0  0  0  3  0  0  0  0  0  0
  187.0250  177.2700  143.1100 C   0  0  0  0  0  2  0  0  0  0  0  0
  1  2  2  0  0  0  0
  1  5  1  0  0  0  0
  2 24  1  0  0  0  0
  4 29  1  6  0  0  0
  4  7  1  0  0  0  0
  5  9  1  0  0  0  0
  6 21  1  1  0  0  0
  6  1  1  0  0  0  0
  6 14  1  0  0  0  0
  7 34  1  1  0  0  0
  8 20  1  1  0  0  0
  8 15  1  0  0  0  0
  8  4  1  0  0  0  0
 10  5  1  0  0  0  0
 11 10  1  0  0  0  0
 11 20  1  0  0  0  0
 12 22  1  0  0  0  0
 12 26  1  0  0  0  0
 13 22  1  0  0  0  0
 13 28  2  0  0  0  0
 14 20  2  0  0  0  0
 14 16  1  0  0  0  0
 15 19  1  0  0  0  0
 16 23  2  0  0  0  0
 17 27  2  0  0  0  0
 18  3  1  0  0  0  0
 18  2  1  0  0  0  0
 19  7  1  0  0  0  0
 21 18  2  0  0  0  0
 23 15  1  0  0  0  0
 25 13  1  0  0  0  0
 25 17  1  0  0  0  0
 27 26  1  0  0  0  0
 28 10  2  0  0  0  0
 30 29  1  0  0  0  0
 30 31  1  0  0  0  0
 31 33  2  0  0  0  0
 31 32  1  0  0  0  0
 35 34  1  0  0  0  0
 35 38  1  0  0  0  0
 37 41  1  0  0  0  0
 38 40  2  0  0  0  0
 39 37  2  0  0  0  0
 39 38  1  0  0  0  0
 40 36  1  0  0  0  0
 41 42  1  0  0  0  0
 41 36  2  0  0  0  0
 43 44  2  0  0  0  0
 43 42  1  0  0  0  0
 45 43  1  0  0  0  0
 46 45  1  0  0  0  0
 47 46  2  0  0  0  0
M  END
>  <MODEL>
9

>  <REMARK>
 VINA RESULT:      -6.7      3.047      7.790
  Name = 
  9 active torsions:
  status: ('A' for Active; 'I' for Inactive)
    1  A    between atoms: C_2  and  O_47
    2  A    between atoms: C_4  and  C_46
    3  A    between atoms: C_6  and  C_18
    4  A    between atoms: N_9  and  C_40
    5  A    between atoms: C_10  and  O_47
    6  A    between atoms: C_12  and  C_45
    7  A    between atoms: C_18  and  C_46
    8  A    between atoms: C_29  and  C_31
    9  A    between atoms: C_29  and  C_45
                            x       y       z     vdW  Elec       q    Type
                         _______ _______ _______ _____ _____    ______ ____

>  <TORSDO>
F 9

$$$$
