=
 OpenBabel11042418093D

 40 45  0  0  1  0  0  0  0  0999 V2000
  193.3180  173.3010  144.6980 C   0  0  0  0  0  0  0  0  0  0  0  0
  195.6810  173.7110  145.2820 C   0  0  2  0  0  3  0  0  0  0  0  0
  195.2600  171.9950  143.8530 N   0  0  0  0  0  2  0  0  0  0  0  0
  196.4060  172.4760  143.5870 N   0  0  0  0  0  0  0  0  0  0  0  0
  194.6650  172.6700  144.9990 C   0  0  2  0  0  3  0  0  0  0  0  0
  195.3060  174.9480  145.9480 C   0  0  0  0  0  3  0  0  0  0  0  0
  194.0500  175.2880  145.9270 N   0  0  0  0  0  0  0  0  0  0  0  0
  193.0360  174.5310  145.2190 C   0  0  0  0  0  0  0  0  0  0  0  0
  196.6910  173.5760  144.4450 C   0  0  0  0  0  3  0  0  0  0  0  0
  189.3350  174.9690  146.3060 C   0  0  0  0  0  2  0  0  0  0  0  0
  191.6490  175.1060  145.1460 C   0  0  2  0  0  3  0  0  0  0  0  0
  190.4500  177.3920  145.1070 C   0  0  0  0  0  2  0  0  0  0  0  0
  191.3380  175.6960  147.5330 N   0  0  0  0  0  1  0  0  0  0  0  0
  191.6590  176.5660  144.6530 C   0  0  0  0  0  2  0  0  0  0  0  0
  190.8630  174.8430  146.4500 C   0  0  1  0  0  3  0  0  0  0  0  0
  188.8480  175.3790  144.9100 C   0  0  0  0  0  2  0  0  0  0  0  0
  189.1320  176.8540  144.5650 C   0  0  1  0  0  3  0  0  0  0  0  0
  186.9350  177.9590  143.8350 C   0  0  0  0  0  0  0  0  0  0  0  0
  186.1800  178.3220  141.4990 C   0  0  0  0  0  2  0  0  0  0  0  0
  187.2510  178.1400  142.5300 C   0  0  0  0  0  0  0  0  0  0  0  0
  184.8960  177.6000  141.8940 C   0  0  0  0  0  2  0  0  0  0  0  0
  187.3950  177.4180  146.2200 N   0  0  0  0  0  2  0  0  0  0  0  0
  185.5100  178.0550  144.2580 C   0  0  0  0  0  0  0  0  0  0  0  0
  188.6600  178.3600  142.0790 C   0  0  0  0  0  1  0  0  0  0  0  0
  185.2090  178.2180  145.5470 C   0  0  0  0  0  3  0  0  0  0  0  0
  186.3050  178.3180  146.5690 C   0  0  0  0  0  2  0  0  0  0  0  0
  187.9940  177.8140  144.9410 C   0  0  1  0  0  3  0  0  0  0  0  0
  184.4090  178.1220  143.2410 C   0  0  0  0  0  2  0  0  0  0  0  0
  190.6010  170.8960  142.2690 O   0  0  0  0  0  0  0  0  0  0  0  0
  190.9630  172.0490  141.9060 C   0  0  0  0  0  0  0  0  0  0  0  0
  192.2980  172.4720  144.0150 C   0  0  0  0  0  0  0  0  0  0  0  0
  191.9000  172.8010  142.6820 N   0  0  0  0  0  2  0  0  0  0  0  0
  191.7300  171.5290  144.6300 O   0  0  0  0  0  0  0  0  0  0  0  0
  190.3990  172.6360  140.6630 C   0  0  0  0  0  2  0  0  0  0  0  0
  187.8670  175.0370  139.7610 N   0  0  0  0  0  2  0  0  0  0  0  0
  188.5760  174.1580  138.8340 C   0  0  0  0  0  2  0  0  0  0  0  0
  188.9440  172.5030  140.6540 N   0  0  0  0  0  0  0  0  0  0  0  0
  188.3340  173.4800  141.5750 C   0  0  0  0  0  2  0  0  0  0  0  0
  188.4500  172.7020  139.2860 C   0  0  0  0  0  2  0  0  0  0  0  0
  188.4860  174.9180  141.0700 C   0  0  0  0  0  2  0  0  0  0  0  0
  1  5  1  0  0  0  0
  1  8  2  0  0  0  0
  2  9  1  6  0  0  0
  2  6  1  0  0  0  0
  4  3  1  0  0  0  0
  4  9  2  0  0  0  0
  5  3  1  6  0  0  0
  5  2  1  0  0  0  0
  7  6  2  0  0  0  0
  8  7  1  0  0  0  0
 10 15  1  0  0  0  0
 11  8  1  1  0  0  0
 11 15  1  0  0  0  0
 14 12  1  0  0  0  0
 14 11  1  0  0  0  0
 15 13  1  1  0  0  0
 16 10  1  0  0  0  0
 17 16  1  1  0  0  0
 17 27  1  0  0  0  0
 17 12  1  0  0  0  0
 18 23  1  0  0  0  0
 19 21  1  0  0  0  0
 19 20  1  0  0  0  0
 20 18  2  0  0  0  0
 21 28  1  0  0  0  0
 22 26  1  0  0  0  0
 23 25  2  0  0  0  0
 24 20  1  0  0  0  0
 25 26  1  0  0  0  0
 27 18  1  6  0  0  0
 27 22  1  0  0  0  0
 28 23  1  0  0  0  0
 30 29  2  0  0  0  0
 30 32  1  0  0  0  0
 31 33  2  0  0  0  0
 31  1  1  0  0  0  0
 32 31  1  0  0  0  0
 34 30  1  0  0  0  0
 35 40  1  0  0  0  0
 36 39  1  0  0  0  0
 36 35  1  0  0  0  0
 37 34  1  0  0  0  0
 37 38  1  0  0  0  0
 39 37  1  0  0  0  0
 40 38  1  0  0  0  0
M  END
>  <MODEL>
1

>  <REMARK>
 VINA RESULT:      -8.8      0.000      0.000
  Name = 
  5 active torsions:
  status: ('A' for Active; 'I' for Inactive)
    1  A    between atoms: C_1  and  C_20
    2  A    between atoms: N_13  and  C_29
    3  A    between atoms: C_15  and  C_34
    4  A    between atoms: C_19  and  C_29
    5  A    between atoms: C_36  and  C_39
                            x       y       z     vdW  Elec       q    Type
                         _______ _______ _______ _____ _____    ______ ____

>  <TORSDO>
F 5

$$$$
=
 OpenBabel11042418093D

 40 45  0  0  1  0  0  0  0  0999 V2000
  192.6910  173.7430  144.8930 C   0  0  0  0  0  0  0  0  0  0  0  0
  195.0460  174.1050  145.5380 C   0  0  2  0  0  3  0  0  0  0  0  0
  194.6440  172.5040  143.9760 N   0  0  0  0  0  2  0  0  0  0  0  0
  195.7940  173.0040  143.7640 N   0  0  0  0  0  0  0  0  0  0  0  0
  194.0340  173.0900  145.1630 C   0  0  2  0  0  3  0  0  0  0  0  0
  194.6620  175.2870  146.2930 C   0  0  0  0  0  3  0  0  0  0  0  0
  193.4060  175.6290  146.2810 N   0  0  0  0  0  0  0  0  0  0  0  0
  192.4010  174.9300  145.5030 C   0  0  0  0  0  0  0  0  0  0  0  0
  196.0670  174.0330  144.7070 C   0  0  0  0  0  3  0  0  0  0  0  0
  188.8420  175.6810  146.8590 C   0  0  0  0  0  2  0  0  0  0  0  0
  191.0160  175.5100  145.4570 C   0  0  2  0  0  3  0  0  0  0  0  0
  189.8230  177.7640  145.0530 C   0  0  0  0  0  2  0  0  0  0  0  0
  190.9690  176.6050  147.6790 N   0  0  0  0  0  1  0  0  0  0  0  0
  190.9730  176.8300  144.6620 C   0  0  0  0  0  2  0  0  0  0  0  0
  190.3770  175.5520  146.8630 C   0  0  1  0  0  3  0  0  0  0  0  0
  188.2060  175.7950  145.4670 C   0  0  0  0  0  2  0  0  0  0  0  0
  188.4520  177.1540  144.7840 C   0  0  1  0  0  3  0  0  0  0  0  0
  186.3160  178.2970  143.9410 C   0  0  0  0  0  0  0  0  0  0  0  0
  185.5860  178.4840  141.5770 C   0  0  0  0  0  2  0  0  0  0  0  0
  186.6440  178.3430  142.6280 C   0  0  0  0  0  0  0  0  0  0  0  0
  184.2660  177.8670  142.0260 C   0  0  0  0  0  2  0  0  0  0  0  0
  186.7420  177.9530  146.3680 N   0  0  0  0  0  2  0  0  0  0  0  0
  184.8970  178.5030  144.3440 C   0  0  0  0  0  0  0  0  0  0  0  0
  188.0640  178.4500  142.1690 C   0  0  0  0  0  1  0  0  0  0  0  0
  184.6010  178.7980  145.6100 C   0  0  0  0  0  3  0  0  0  0  0  0
  185.6980  178.9350  146.6260 C   0  0  0  0  0  2  0  0  0  0  0  0
  187.3640  178.2000  145.0630 C   0  0  1  0  0  3  0  0  0  0  0  0
  183.8030  178.5330  143.3170 C   0  0  0  0  0  2  0  0  0  0  0  0
  190.0090  171.5320  142.2500 O   0  0  0  0  0  0  0  0  0  0  0  0
  190.3820  172.7060  141.9770 C   0  0  0  0  0  0  0  0  0  0  0  0
  191.6800  172.9700  144.1350 C   0  0  0  0  0  0  0  0  0  0  0  0
  191.3080  173.3950  142.8210 N   0  0  0  0  0  2  0  0  0  0  0  0
  191.0970  171.9890  144.6700 O   0  0  0  0  0  0  0  0  0  0  0  0
  189.8420  173.3830  140.7690 C   0  0  0  0  0  2  0  0  0  0  0  0
  189.2850  173.8460  137.2390 N   0  0  0  0  0  2  0  0  0  0  0  0
  190.5870  173.6760  137.8810 C   0  0  0  0  0  2  0  0  0  0  0  0
  189.5280  172.4010  139.7350 N   0  0  0  0  0  0  0  0  0  0  0  0
  188.2250  172.7080  139.1140 C   0  0  0  0  0  2  0  0  0  0  0  0
  190.5950  172.4030  138.7280 C   0  0  0  0  0  2  0  0  0  0  0  0
  188.2780  173.9890  138.2760 C   0  0  0  0  0  2  0  0  0  0  0  0
  1  5  1  0  0  0  0
  1  8  2  0  0  0  0
  2  9  1  6  0  0  0
  2  6  1  0  0  0  0
  4  3  1  0  0  0  0
  4  9  2  0  0  0  0
  5  3  1  6  0  0  0
  5  2  1  0  0  0  0
  7  6  2  0  0  0  0
  8  7  1  0  0  0  0
 10 15  1  0  0  0  0
 11  8  1  1  0  0  0
 11 15  1  0  0  0  0
 14 12  1  0  0  0  0
 14 11  1  0  0  0  0
 15 13  1  1  0  0  0
 16 10  1  0  0  0  0
 17 12  1  1  0  0  0
 17 27  1  0  0  0  0
 17 16  1  0  0  0  0
 18 23  1  0  0  0  0
 19 21  1  0  0  0  0
 19 20  1  0  0  0  0
 20 18  2  0  0  0  0
 21 28  1  0  0  0  0
 22 26  1  0  0  0  0
 23 25  2  0  0  0  0
 24 20  1  0  0  0  0
 25 26  1  0  0  0  0
 27 18  1  6  0  0  0
 27 22  1  0  0  0  0
 28 23  1  0  0  0  0
 30 29  2  0  0  0  0
 30 32  1  0  0  0  0
 31 33  2  0  0  0  0
 31  1  1  0  0  0  0
 32 31  1  0  0  0  0
 34 30  1  0  0  0  0
 35 36  1  0  0  0  0
 35 40  1  0  0  0  0
 36 39  1  0  0  0  0
 37 34  1  0  0  0  0
 38 37  1  0  0  0  0
 39 37  1  0  0  0  0
 40 38  1  0  0  0  0
M  END
>  <MODEL>
2

>  <REMARK>
 VINA RESULT:      -8.8      1.035      1.214
  Name = 
  5 active torsions:
  status: ('A' for Active; 'I' for Inactive)
    1  A    between atoms: C_1  and  C_20
    2  A    between atoms: N_13  and  C_29
    3  A    between atoms: C_15  and  C_34
    4  A    between atoms: C_19  and  C_29
    5  A    between atoms: C_36  and  C_39
                            x       y       z     vdW  Elec       q    Type
                         _______ _______ _______ _____ _____    ______ ____

>  <TORSDO>
F 5

$$$$
=
 OpenBabel11042418093D

 40 45  0  0  1  0  0  0  0  0999 V2000
  194.8580  174.2270  142.7430 C   0  0  0  0  0  0  0  0  0  0  0  0
  197.1110  175.1700  142.3860 C   0  0  2  0  0  3  0  0  0  0  0  0
  196.5640  173.3300  141.1700 N   0  0  0  0  0  2  0  0  0  0  0  0
  197.3850  174.0340  140.5010 N   0  0  0  0  0  0  0  0  0  0  0  0
  196.3210  173.9210  142.4800 C   0  0  2  0  0  3  0  0  0  0  0  0
  196.7570  176.3300  143.1890 C   0  0  0  0  0  3  0  0  0  0  0  0
  195.5470  176.3880  143.6650 N   0  0  0  0  0  0  0  0  0  0  0  0
  194.5330  175.3930  143.3750 C   0  0  0  0  0  0  0  0  0  0  0  0
  197.7270  175.2130  141.2210 C   0  0  0  0  0  3  0  0  0  0  0  0
  191.6090  175.2840  145.9260 C   0  0  0  0  0  2  0  0  0  0  0  0
  193.1350  175.6490  143.8630 C   0  0  2  0  0  3  0  0  0  0  0  0
  191.4530  177.5890  144.1330 C   0  0  0  0  0  2  0  0  0  0  0  0
  193.6590  176.6350  146.0750 N   0  0  0  0  0  1  0  0  0  0  0  0
  192.5520  176.9490  143.2770 C   0  0  0  0  0  2  0  0  0  0  0  0
  193.0390  175.5020  145.3980 C   0  0  1  0  0  3  0  0  0  0  0  0
  190.5130  175.2960  144.8530 C   0  0  0  0  0  2  0  0  0  0  0  0
  190.2260  176.6970  144.2780 C   0  0  1  0  0  3  0  0  0  0  0  0
  187.8120  177.5610  144.2190 C   0  0  0  0  0  0  0  0  0  0  0  0
  186.4670  178.0210  142.1860 C   0  0  0  0  0  2  0  0  0  0  0  0
  187.7730  177.8940  142.9070 C   0  0  0  0  0  0  0  0  0  0  0  0
  185.4050  177.1050  142.7860 C   0  0  0  0  0  2  0  0  0  0  0  0
  188.9040  176.8830  146.3490 N   0  0  0  0  0  2  0  0  0  0  0  0
  186.5350  177.4320  144.9750 C   0  0  0  0  0  0  0  0  0  0  0  0
  188.9940  178.3350  142.1640 C   0  0  0  0  0  1  0  0  0  0  0  0
  186.5480  177.4440  146.3080 C   0  0  0  0  0  3  0  0  0  0  0  0
  187.8460  177.5990  147.0470 C   0  0  0  0  0  2  0  0  0  0  0  0
  189.1220  177.4620  145.0200 C   0  0  1  0  0  3  0  0  0  0  0  0
  185.2150  177.4410  144.2610 C   0  0  0  0  0  2  0  0  0  0  0  0
  192.0520  171.1360  141.4660 O   0  0  0  0  0  0  0  0  0  0  0  0
  192.0290  172.2930  140.9640 C   0  0  0  0  0  0  0  0  0  0  0  0
  193.8640  173.1610  142.4770 C   0  0  0  0  0  0  0  0  0  0  0  0
  192.9930  173.2760  141.3490 N   0  0  0  0  0  2  0  0  0  0  0  0
  193.7360  172.1980  143.2790 O   0  0  0  0  0  0  0  0  0  0  0  0
  190.9810  172.6390  139.9700 C   0  0  0  0  0  2  0  0  0  0  0  0
  188.1860  174.8670  140.4280 N   0  0  0  0  0  2  0  0  0  0  0  0
  188.5050  174.1430  139.2000 C   0  0  0  0  0  2  0  0  0  0  0  0
  189.6540  172.3740  140.5190 N   0  0  0  0  0  0  0  0  0  0  0  0
  189.4180  173.2050  141.7150 C   0  0  0  0  0  2  0  0  0  0  0  0
  188.6430  172.6470  139.4910 C   0  0  0  0  0  2  0  0  0  0  0  0
  189.2830  174.6900  141.3640 C   0  0  0  0  0  2  0  0  0  0  0  0
  1  8  2  0  0  0  0
  2  9  1  6  0  0  0
  2  5  1  0  0  0  0
  2  6  1  0  0  0  0
  4  3  1  0  0  0  0
  4  9  2  0  0  0  0
  5  3  1  6  0  0  0
  5  1  1  0  0  0  0
  6  7  2  0  0  0  0
  8  7  1  0  0  0  0
 11  8  1  1  0  0  0
 11 15  1  0  0  0  0
 14 11  1  0  0  0  0
 14 12  1  0  0  0  0
 15 10  1  0  0  0  0
 15 13  1  1  0  0  0
 16 10  1  0  0  0  0
 17 12  1  1  0  0  0
 17 16  1  0  0  0  0
 17 27  1  0  0  0  0
 18 23  1  0  0  0  0
 19 21  1  0  0  0  0
 19 20  1  0  0  0  0
 20 18  2  0  0  0  0
 21 28  1  0  0  0  0
 22 26  1  0  0  0  0
 23 25  2  0  0  0  0
 24 20  1  0  0  0  0
 25 26  1  0  0  0  0
 27 18  1  6  0  0  0
 27 22  1  0  0  0  0
 28 23  1  0  0  0  0
 30 32  1  0  0  0  0
 30 29  2  0  0  0  0
 31  1  1  0  0  0  0
 31 33  2  0  0  0  0
 32 31  1  0  0  0  0
 34 37  1  0  0  0  0
 34 30  1  0  0  0  0
 35 40  1  0  0  0  0
 36 39  1  0  0  0  0
 36 35  1  0  0  0  0
 37 38  1  0  0  0  0
 39 37  1  0  0  0  0
 40 38  1  0  0  0  0
M  END
>  <MODEL>
3

>  <REMARK>
 VINA RESULT:      -8.0      1.771      2.058
  Name = 
  5 active torsions:
  status: ('A' for Active; 'I' for Inactive)
    1  A    between atoms: C_1  and  C_20
    2  A    between atoms: N_13  and  C_29
    3  A    between atoms: C_15  and  C_34
    4  A    between atoms: C_19  and  C_29
    5  A    between atoms: C_36  and  C_39
                            x       y       z     vdW  Elec       q    Type
                         _______ _______ _______ _____ _____    ______ ____

>  <TORSDO>
F 5

$$$$
=
 OpenBabel11042418093D

 40 45  0  0  1  0  0  0  0  0999 V2000
  186.8810  178.0380  144.7220 C   0  0  0  0  0  0  0  0  0  0  0  0
  185.3760  178.8820  146.4870 C   0  0  2  0  0  3  0  0  0  0  0  0
  184.5500  178.8330  144.3720 N   0  0  0  0  0  2  0  0  0  0  0  0
  183.5900  178.6710  145.1900 N   0  0  0  0  0  0  0  0  0  0  0  0
  185.8060  179.0470  145.0790 C   0  0  2  0  0  3  0  0  0  0  0  0
  186.3260  178.4600  147.5040 C   0  0  0  0  0  3  0  0  0  0  0  0
  187.4120  177.8620  147.1060 N   0  0  0  0  0  0  0  0  0  0  0  0
  187.6760  177.5430  145.7160 C   0  0  0  0  0  0  0  0  0  0  0  0
  184.0760  178.6650  146.5270 C   0  0  0  0  0  3  0  0  0  0  0  0
  191.4400  176.9520  144.9730 C   0  0  0  0  0  2  0  0  0  0  0  0
  188.8940  176.7210  145.4010 C   0  0  2  0  0  3  0  0  0  0  0  0
  190.1760  174.6600  146.2780 C   0  0  0  0  0  2  0  0  0  0  0  0
  190.4380  177.6230  147.1160 N   0  0  0  0  0  1  0  0  0  0  0  0
  188.8140  175.3150  146.0250 C   0  0  0  0  0  2  0  0  0  0  0  0
  190.1920  177.5090  145.6830 C   0  0  1  0  0  3  0  0  0  0  0  0
  191.2000  175.6840  144.1430 C   0  0  0  0  0  2  0  0  0  0  0  0
  190.9630  174.4220  144.9950 C   0  0  1  0  0  3  0  0  0  0  0  0
  192.5430  172.5270  144.2940 C   0  0  0  0  0  0  0  0  0  0  0  0
  191.9570  170.5770  142.8770 C   0  0  0  0  0  2  0  0  0  0  0  0
  191.6010  171.6680  143.8390 C   0  0  0  0  0  0  0  0  0  0  0  0
  193.1390  170.9710  141.9970 C   0  0  0  0  0  2  0  0  0  0  0  0
  193.3760  174.5510  145.4780 N   0  0  0  0  0  2  0  0  0  0  0  0
  193.9680  172.3100  143.9190 C   0  0  0  0  0  0  0  0  0  0  0  0
  190.2170  171.6360  144.4060 C   0  0  0  0  0  1  0  0  0  0  0  0
  194.9360  172.9150  144.6070 C   0  0  0  0  0  3  0  0  0  0  0  0
  194.5920  173.8050  145.7670 C   0  0  0  0  0  2  0  0  0  0  0  0
  192.2420  173.6360  145.3170 C   0  0  1  0  0  3  0  0  0  0  0  0
  194.3420  171.3010  142.8730 C   0  0  0  0  0  2  0  0  0  0  0  0
  187.3160  176.9120  140.5260 O   0  0  0  0  0  0  0  0  0  0  0  0
  187.4390  176.0630  141.4510 C   0  0  0  0  0  0  0  0  0  0  0  0
  187.1470  177.7820  143.2880 C   0  0  0  0  0  0  0  0  0  0  0  0
  187.2340  176.4340  142.8170 N   0  0  0  0  0  2  0  0  0  0  0  0
  187.3700  178.7410  142.5010 O   0  0  0  0  0  0  0  0  0  0  0  0
  187.8110  174.6640  141.1160 C   0  0  0  0  0  2  0  0  0  0  0  0
  189.3620  171.8980  139.4060 N   0  0  0  0  0  2  0  0  0  0  0  0
  188.2130  172.6600  138.9240 C   0  0  0  0  0  2  0  0  0  0  0  0
  188.9630  174.6470  140.2190 N   0  0  0  0  0  0  0  0  0  0  0  0
  190.0340  173.7980  140.7750 C   0  0  0  0  0  2  0  0  0  0  0  0
  188.5410  174.1530  138.9030 C   0  0  0  0  0  2  0  0  0  0  0  0
  189.6510  172.3150  140.7670 C   0  0  0  0  0  2  0  0  0  0  0  0
  1  5  1  0  0  0  0
  1  8  2  0  0  0  0
  2  9  1  6  0  0  0
  2  6  1  0  0  0  0
  3  4  1  0  0  0  0
  4  9  2  0  0  0  0
  5  3  1  6  0  0  0
  5  2  1  0  0  0  0
  7  6  2  0  0  0  0
  8  7  1  0  0  0  0
 10 15  1  0  0  0  0
 11 15  1  0  0  0  0
 11  8  1  1  0  0  0
 11 14  1  0  0  0  0
 14 12  1  0  0  0  0
 15 13  1  1  0  0  0
 16 10  1  0  0  0  0
 17 16  1  1  0  0  0
 17 27  1  0  0  0  0
 17 12  1  0  0  0  0
 19 20  1  0  0  0  0
 20 18  2  0  0  0  0
 20 24  1  0  0  0  0
 21 28  1  0  0  0  0
 21 19  1  0  0  0  0
 22 26  1  0  0  0  0
 23 18  1  0  0  0  0
 23 25  2  0  0  0  0
 25 26  1  0  0  0  0
 27 18  1  6  0  0  0
 27 22  1  0  0  0  0
 28 23  1  0  0  0  0
 29 30  2  0  0  0  0
 30 32  1  0  0  0  0
 31  1  1  0  0  0  0
 32 31  1  0  0  0  0
 33 31  2  0  0  0  0
 34 30  1  0  0  0  0
 35 40  1  0  0  0  0
 36 35  1  0  0  0  0
 37 38  1  0  0  0  0
 37 34  1  0  0  0  0
 39 36  1  0  0  0  0
 39 37  1  0  0  0  0
 40 38  1  0  0  0  0
M  END
>  <MODEL>
4

>  <REMARK>
 VINA RESULT:      -7.8      2.349      7.657
  Name = 
  5 active torsions:
  status: ('A' for Active; 'I' for Inactive)
    1  A    between atoms: C_1  and  C_20
    2  A    between atoms: N_13  and  C_29
    3  A    between atoms: C_15  and  C_34
    4  A    between atoms: C_19  and  C_29
    5  A    between atoms: C_36  and  C_39
                            x       y       z     vdW  Elec       q    Type
                         _______ _______ _______ _____ _____    ______ ____

>  <TORSDO>
F 5

$$$$
=
 OpenBabel11042418093D

 40 45  0  0  1  0  0  0  0  0999 V2000
  188.3610  176.8740  144.5790 C   0  0  0  0  0  0  0  0  0  0  0  0
  187.0680  177.6930  146.5150 C   0  0  2  0  0  3  0  0  0  0  0  0
  185.8830  176.8090  144.7900 N   0  0  0  0  0  2  0  0  0  0  0  0
  185.2450  176.6060  145.8720 N   0  0  0  0  0  0  0  0  0  0  0  0
  187.0970  177.5760  145.0390 C   0  0  2  0  0  3  0  0  0  0  0  0
  188.3000  177.8760  147.2660 C   0  0  0  0  0  3  0  0  0  0  0  0
  189.4160  177.5400  146.6860 N   0  0  0  0  0  0  0  0  0  0  0  0
  189.4740  176.9380  145.3680 C   0  0  0  0  0  0  0  0  0  0  0  0
  185.9740  177.1200  146.9790 C   0  0  0  0  0  3  0  0  0  0  0  0
  192.3150  176.4970  142.7600 C   0  0  0  0  0  2  0  0  0  0  0  0
  190.8080  176.4600  144.8690 C   0  0  2  0  0  3  0  0  0  0  0  0
  193.3080  176.5360  145.5110 C   0  0  0  0  0  2  0  0  0  0  0  0
  191.6470  178.5770  143.8910 N   0  0  0  0  0  1  0  0  0  0  0  0
  191.8590  176.4140  145.9960 C   0  0  0  0  0  2  0  0  0  0  0  0
  191.2310  177.2120  143.5870 C   0  0  1  0  0  3  0  0  0  0  0  0
  192.8300  175.1850  143.3650 C   0  0  0  0  0  2  0  0  0  0  0  0
  193.7240  175.3840  144.6050 C   0  0  1  0  0  3  0  0  0  0  0  0
  195.8030  174.2290  143.6440 C   0  0  0  0  0  0  0  0  0  0  0  0
  196.1790  171.7820  143.4830 C   0  0  0  0  0  2  0  0  0  0  0  0
  195.5500  172.9850  144.1150 C   0  0  0  0  0  0  0  0  0  0  0  0
  196.4560  172.0090  142.0010 C   0  0  0  0  0  2  0  0  0  0  0  0
  195.4750  176.6880  143.4610 N   0  0  0  0  0  2  0  0  0  0  0  0
  196.8070  174.4050  142.5580 C   0  0  0  0  0  0  0  0  0  0  0  0
  194.7970  172.7570  145.3880 C   0  0  0  0  0  1  0  0  0  0  0  0
  197.3180  175.6120  142.3150 C   0  0  0  0  0  3  0  0  0  0  0  0
  196.8910  176.7910  143.1420 C   0  0  0  0  0  2  0  0  0  0  0  0
  195.2210  175.5010  144.2830 C   0  0  1  0  0  3  0  0  0  0  0  0
  197.3680  173.2190  141.8310 C   0  0  0  0  0  2  0  0  0  0  0  0
  188.1560  174.8490  140.7160 O   0  0  0  0  0  0  0  0  0  0  0  0
  188.5560  174.2510  141.7520 C   0  0  0  0  0  0  0  0  0  0  0  0
  188.3880  176.3160  143.2070 C   0  0  0  0  0  0  0  0  0  0  0  0
  188.5610  174.9090  143.0220 N   0  0  0  0  0  2  0  0  0  0  0  0
  188.3350  177.0830  142.2080 O   0  0  0  0  0  0  0  0  0  0  0  0
  189.0390  172.8490  141.6480 C   0  0  0  0  0  2  0  0  0  0  0  0
  191.5570  170.5250  140.5320 N   0  0  0  0  0  2  0  0  0  0  0  0
  191.1490  171.7400  139.8300 C   0  0  0  0  0  2  0  0  0  0  0  0
  190.4590  172.7760  141.9840 N   0  0  0  0  0  0  0  0  0  0  0  0
  190.7670  171.4850  142.6280 C   0  0  0  0  0  2  0  0  0  0  0  0
  191.2530  172.9480  140.7620 C   0  0  0  0  0  2  0  0  0  0  0  0
  190.6510  170.3130  141.6480 C   0  0  0  0  0  2  0  0  0  0  0  0
  1  8  2  0  0  0  0
  2  9  1  1  0  0  0
  2  6  1  0  0  0  0
  3  5  1  0  0  0  0
  3  4  1  0  0  0  0
  4  9  2  0  0  0  0
  5  1  1  1  0  0  0
  5  2  1  0  0  0  0
  7  6  2  0  0  0  0
  8  7  1  0  0  0  0
 10 16  1  0  0  0  0
 10 15  1  0  0  0  0
 11  8  1  1  0  0  0
 11 14  1  0  0  0  0
 12 14  1  0  0  0  0
 15 13  1  1  0  0  0
 15 11  1  0  0  0  0
 17 16  1  6  0  0  0
 17 12  1  0  0  0  0
 18 20  2  0  0  0  0
 18 27  1  0  0  0  0
 19 20  1  0  0  0  0
 20 24  1  0  0  0  0
 21 19  1  0  0  0  0
 23 18  1  0  0  0  0
 25 23  2  0  0  0  0
 25 26  1  0  0  0  0
 26 22  1  0  0  0  0
 27 22  1  6  0  0  0
 27 17  1  0  0  0  0
 28 21  1  0  0  0  0
 28 23  1  0  0  0  0
 29 30  2  0  0  0  0
 30 32  1  0  0  0  0
 31  1  1  0  0  0  0
 32 31  1  0  0  0  0
 33 31  2  0  0  0  0
 34 30  1  0  0  0  0
 34 37  1  0  0  0  0
 35 40  1  0  0  0  0
 36 35  1  0  0  0  0
 36 39  1  0  0  0  0
 37 38  1  0  0  0  0
 39 37  1  0  0  0  0
 40 38  1  0  0  0  0
M  END
>  <MODEL>
5

>  <REMARK>
 VINA RESULT:      -7.5      2.514      7.739
  Name = 
  5 active torsions:
  status: ('A' for Active; 'I' for Inactive)
    1  A    between atoms: C_1  and  C_20
    2  A    between atoms: N_13  and  C_29
    3  A    between atoms: C_15  and  C_34
    4  A    between atoms: C_19  and  C_29
    5  A    between atoms: C_36  and  C_39
                            x       y       z     vdW  Elec       q    Type
                         _______ _______ _______ _____ _____    ______ ____

>  <TORSDO>
F 5

$$$$
=
 OpenBabel11042418093D

 40 45  0  0  1  0  0  0  0  0999 V2000
  193.8680  174.2250  143.4850 C   0  0  0  0  0  0  0  0  0  0  0  0
  196.0980  174.1670  144.5410 C   0  0  2  0  0  3  0  0  0  0  0  0
  196.0100  173.7670  142.3060 N   0  0  0  0  0  2  0  0  0  0  0  0
  197.1280  174.3070  142.5820 N   0  0  0  0  0  0  0  0  0  0  0  0
  195.2260  173.5490  143.5150 C   0  0  2  0  0  3  0  0  0  0  0  0
  195.5320  174.6880  145.7750 C   0  0  0  0  0  3  0  0  0  0  0  0
  194.2590  174.9620  145.7870 N   0  0  0  0  0  0  0  0  0  0  0  0
  193.4110  174.8350  144.6180 C   0  0  0  0  0  0  0  0  0  0  0  0
  197.2060  174.6000  143.9720 C   0  0  0  0  0  3  0  0  0  0  0  0
  189.8560  175.0510  146.1630 C   0  0  0  0  0  2  0  0  0  0  0  0
  191.9930  175.3220  144.7210 C   0  0  2  0  0  3  0  0  0  0  0  0
  190.6570  177.5280  144.8300 C   0  0  0  0  0  2  0  0  0  0  0  0
  191.9490  175.9130  147.1270 N   0  0  0  0  0  1  0  0  0  0  0  0
  191.8480  176.7750  144.2280 C   0  0  0  0  0  2  0  0  0  0  0  0
  191.3950  175.0220  146.1130 C   0  0  1  0  0  3  0  0  0  0  0  0
  189.1730  175.4180  144.8400 C   0  0  0  0  0  2  0  0  0  0  0  0
  189.3170  176.9040  144.4590 C   0  0  1  0  0  3  0  0  0  0  0  0
  187.0160  177.9290  143.9750 C   0  0  0  0  0  0  0  0  0  0  0  0
  186.0340  178.3390  141.7340 C   0  0  0  0  0  2  0  0  0  0  0  0
  187.2020  178.1710  142.6560 C   0  0  0  0  0  0  0  0  0  0  0  0
  184.8250  177.5430  142.2140 C   0  0  0  0  0  2  0  0  0  0  0  0
  187.7170  177.3250  146.2860 N   0  0  0  0  0  2  0  0  0  0  0  0
  185.6330  177.9420  144.5290 C   0  0  0  0  0  0  0  0  0  0  0  0
  188.5530  178.4740  142.0890 C   0  0  0  0  0  1  0  0  0  0  0  0
  185.4450  178.0440  145.8450 C   0  0  0  0  0  3  0  0  0  0  0  0
  186.6250  178.1600  146.7670 C   0  0  0  0  0  2  0  0  0  0  0  0
  188.1780  177.7940  144.9750 C   0  0  1  0  0  3  0  0  0  0  0  0
  184.4410  177.9930  143.6190 C   0  0  0  0  0  2  0  0  0  0  0  0
  191.0050  173.4600  140.2780 O   0  0  0  0  0  0  0  0  0  0  0  0
  191.3440  172.5540  141.0870 C   0  0  0  0  0  0  0  0  0  0  0  0
  193.0170  174.0270  142.2890 C   0  0  0  0  0  0  0  0  0  0  0  0
  192.2370  172.8350  142.1690 N   0  0  0  0  0  2  0  0  0  0  0  0
  193.0370  174.8660  141.3490 O   0  0  0  0  0  0  0  0  0  0  0  0
  190.8180  171.1760  140.9060 C   0  0  0  0  0  2  0  0  0  0  0  0
  190.9350  168.3260  138.7040 N   0  0  0  0  0  2  0  0  0  0  0  0
  191.1900  169.7120  138.3180 C   0  0  0  0  0  2  0  0  0  0  0  0
  191.9110  170.2470  140.6370 N   0  0  0  0  0  0  0  0  0  0  0  0
  191.5200  168.8730  141.0050 C   0  0  0  0  0  2  0  0  0  0  0  0
  192.2680  170.3210  139.2150 C   0  0  0  0  0  2  0  0  0  0  0  0
  190.4430  168.3140  140.0710 C   0  0  0  0  0  2  0  0  0  0  0  0
  1  5  1  0  0  0  0
  1  8  2  0  0  0  0
  2  9  1  6  0  0  0
  2  6  1  0  0  0  0
  3  4  1  0  0  0  0
  4  9  2  0  0  0  0
  5  3  1  6  0  0  0
  5  2  1  0  0  0  0
  6  7  2  0  0  0  0
  8  7  1  0  0  0  0
 11  8  1  1  0  0  0
 11 15  1  0  0  0  0
 14 11  1  0  0  0  0
 14 12  1  0  0  0  0
 15 10  1  0  0  0  0
 15 13  1  1  0  0  0
 16 10  1  0  0  0  0
 17 12  1  1  0  0  0
 17 16  1  0  0  0  0
 17 27  1  0  0  0  0
 18 23  1  0  0  0  0
 19 21  1  0  0  0  0
 19 20  1  0  0  0  0
 20 18  2  0  0  0  0
 21 28  1  0  0  0  0
 22 26  1  0  0  0  0
 23 25  2  0  0  0  0
 24 20  1  0  0  0  0
 25 26  1  0  0  0  0
 27 18  1  6  0  0  0
 27 22  1  0  0  0  0
 28 23  1  0  0  0  0
 29 30  2  0  0  0  0
 30 32  1  0  0  0  0
 31  1  1  0  0  0  0
 32 31  1  0  0  0  0
 33 31  2  0  0  0  0
 34 30  1  0  0  0  0
 35 40  1  0  0  0  0
 36 35  1  0  0  0  0
 36 39  1  0  0  0  0
 37 34  1  0  0  0  0
 37 38  1  0  0  0  0
 39 37  1  0  0  0  0
 40 38  1  0  0  0  0
M  END
>  <MODEL>
6

>  <REMARK>
 VINA RESULT:      -7.3      1.975      2.570
  Name = 
  5 active torsions:
  status: ('A' for Active; 'I' for Inactive)
    1  A    between atoms: C_1  and  C_20
    2  A    between atoms: N_13  and  C_29
    3  A    between atoms: C_15  and  C_34
    4  A    between atoms: C_19  and  C_29
    5  A    between atoms: C_36  and  C_39
                            x       y       z     vdW  Elec       q    Type
                         _______ _______ _______ _____ _____    ______ ____

>  <TORSDO>
F 5

$$$$
=
 OpenBabel11042418093D

 40 45  0  0  1  0  0  0  0  0999 V2000
  191.1970  174.4820  145.4130 C   0  0  0  0  0  0  0  0  0  0  0  0
  193.3520  175.1010  146.4430 C   0  0  2  0  0  3  0  0  0  0  0  0
  193.3570  173.2980  145.0610 N   0  0  0  0  0  2  0  0  0  0  0  0
  194.4980  173.8570  145.0080 N   0  0  0  0  0  0  0  0  0  0  0  0
  192.4910  173.9730  146.0190 C   0  0  2  0  0  3  0  0  0  0  0  0
  192.7630  176.3320  146.9460 C   0  0  0  0  0  3  0  0  0  0  0  0
  191.5180  176.5710  146.6480 N   0  0  0  0  0  0  0  0  0  0  0  0
  190.7290  175.7070  145.7920 C   0  0  0  0  0  0  0  0  0  0  0  0
  194.5220  175.0110  145.8400 C   0  0  0  0  0  3  0  0  0  0  0  0
  186.9940  176.5740  146.4030 C   0  0  0  0  0  2  0  0  0  0  0  0
  189.3520  176.1670  145.4040 C   0  0  2  0  0  3  0  0  0  0  0  0
  188.1790  178.1530  144.2440 C   0  0  0  0  0  2  0  0  0  0  0  0
  188.9570  177.8120  147.2150 N   0  0  0  0  0  1  0  0  0  0  0  0
  189.3950  177.2210  144.2800 C   0  0  0  0  0  2  0  0  0  0  0  0
  188.5140  176.5450  146.6470 C   0  0  1  0  0  3  0  0  0  0  0  0
  186.5650  176.2720  144.9610 C   0  0  0  0  0  2  0  0  0  0  0  0
  186.8760  177.4110  143.9710 C   0  0  1  0  0  3  0  0  0  0  0  0
  185.0150  178.3090  142.4510 C   0  0  0  0  0  0  0  0  0  0  0  0
  184.9260  178.1290  139.9780 C   0  0  0  0  0  2  0  0  0  0  0  0
  185.6740  178.1920  141.2740 C   0  0  0  0  0  0  0  0  0  0  0  0
  183.5450  177.5090  140.1590 C   0  0  0  0  0  2  0  0  0  0  0  0
  184.7980  178.3260  144.9300 N   0  0  0  0  0  2  0  0  0  0  0  0
  183.5370  178.4910  142.4420 C   0  0  0  0  0  0  0  0  0  0  0  0
  187.1630  178.3120  141.1830 C   0  0  0  0  0  1  0  0  0  0  0  0
  182.9160  178.9400  143.5330 C   0  0  0  0  0  3  0  0  0  0  0  0
  183.7070  179.2750  144.7650 C   0  0  0  0  0  2  0  0  0  0  0  0
  185.7350  178.4240  143.8060 C   0  0  1  0  0  3  0  0  0  0  0  0
  182.7500  178.3200  141.1760 C   0  0  0  0  0  2  0  0  0  0  0  0
  189.1940  171.8050  142.6040 O   0  0  0  0  0  0  0  0  0  0  0  0
  189.4650  172.9980  142.2970 C   0  0  0  0  0  0  0  0  0  0  0  0
  190.4000  173.5470  144.5850 C   0  0  0  0  0  0  0  0  0  0  0  0
  190.1750  173.8450  143.2050 N   0  0  0  0  0  2  0  0  0  0  0  0
  189.8630  172.5340  145.1090 O   0  0  0  0  0  0  0  0  0  0  0  0
  189.0310  173.5310  140.9800 C   0  0  0  0  0  2  0  0  0  0  0  0
  189.7040  173.8190  137.4510 N   0  0  0  0  0  2  0  0  0  0  0  0
  190.7110  173.7400  138.5070 C   0  0  0  0  0  2  0  0  0  0  0  0
  189.1220  172.4930  139.9570 N   0  0  0  0  0  0  0  0  0  0  0  0
  188.1020  172.7090  138.9130 C   0  0  0  0  0  2  0  0  0  0  0  0
  190.4690  172.5050  139.3760 C   0  0  0  0  0  2  0  0  0  0  0  0
  188.3980  173.9550  138.0730 C   0  0  0  0  0  2  0  0  0  0  0  0
  1  8  2  0  0  0  0
  1  5  1  0  0  0  0
  2  9  1  6  0  0  0
  2  6  1  0  0  0  0
  4  3  1  0  0  0  0
  4  9  2  0  0  0  0
  5  3  1  6  0  0  0
  5  2  1  0  0  0  0
  7  6  2  0  0  0  0
  8  7  1  0  0  0  0
 10 15  1  0  0  0  0
 11  8  1  1  0  0  0
 11 15  1  0  0  0  0
 12 14  1  0  0  0  0
 14 11  1  0  0  0  0
 15 13  1  6  0  0  0
 16 10  1  0  0  0  0
 17 12  1  1  0  0  0
 17 16  1  0  0  0  0
 19 21  1  0  0  0  0
 19 20  1  0  0  0  0
 20 18  2  0  0  0  0
 21 28  1  0  0  0  0
 23 18  1  0  0  0  0
 23 25  2  0  0  0  0
 24 20  1  0  0  0  0
 25 26  1  0  0  0  0
 26 22  1  0  0  0  0
 27 18  1  6  0  0  0
 27 17  1  0  0  0  0
 27 22  1  0  0  0  0
 28 23  1  0  0  0  0
 30 29  2  0  0  0  0
 30 32  1  0  0  0  0
 31 33  2  0  0  0  0
 31  1  1  0  0  0  0
 32 31  1  0  0  0  0
 34 30  1  0  0  0  0
 35 40  1  0  0  0  0
 35 36  1  0  0  0  0
 36 39  1  0  0  0  0
 37 34  1  0  0  0  0
 38 37  1  0  0  0  0
 39 37  1  0  0  0  0
 40 38  1  0  0  0  0
M  END
>  <MODEL>
7

>  <REMARK>
 VINA RESULT:      -7.2      1.663      2.555
  Name = 
  5 active torsions:
  status: ('A' for Active; 'I' for Inactive)
    1  A    between atoms: C_1  and  C_20
    2  A    between atoms: N_13  and  C_29
    3  A    between atoms: C_15  and  C_34
    4  A    between atoms: C_19  and  C_29
    5  A    between atoms: C_36  and  C_39
                            x       y       z     vdW  Elec       q    Type
                         _______ _______ _______ _____ _____    ______ ____

>  <TORSDO>
F 5

$$$$
=
 OpenBabel11042418093D

 40 45  0  0  1  0  0  0  0  0999 V2000
  193.7610  172.8850  142.4810 C   0  0  0  0  0  0  0  0  0  0  0  0
  196.2110  173.1910  142.4740 C   0  0  2  0  0  3  0  0  0  0  0  0
  195.3600  171.6900  140.9960 N   0  0  0  0  0  2  0  0  0  0  0  0
  196.4190  172.1930  140.5040 N   0  0  0  0  0  0  0  0  0  0  0  0
  195.1120  172.2080  142.3350 C   0  0  2  0  0  3  0  0  0  0  0  0
  196.0750  174.3290  143.3690 C   0  0  0  0  0  3  0  0  0  0  0  0
  194.8720  174.6800  143.7220 N   0  0  0  0  0  0  0  0  0  0  0  0
  193.6780  174.0350  143.2130 C   0  0  0  0  0  0  0  0  0  0  0  0
  196.9640  173.1630  141.3920 C   0  0  0  0  0  3  0  0  0  0  0  0
  190.3220  174.2400  145.1530 C   0  0  0  0  0  2  0  0  0  0  0  0
  192.3460  174.6270  143.5810 C   0  0  2  0  0  3  0  0  0  0  0  0
  191.3130  176.8680  144.3380 C   0  0  0  0  0  2  0  0  0  0  0  0
  192.5800  174.6270  146.0480 N   0  0  0  0  0  1  0  0  0  0  0  0
  192.3450  176.1620  143.4510 C   0  0  0  0  0  2  0  0  0  0  0  0
  191.8350  174.0660  144.9260 C   0  0  1  0  0  3  0  0  0  0  0  0
  189.5810  174.9810  144.0320 C   0  0  0  0  0  2  0  0  0  0  0  0
  189.8790  176.4920  143.9870 C   0  0  1  0  0  3  0  0  0  0  0  0
  187.5820  177.6280  144.0900 C   0  0  0  0  0  0  0  0  0  0  0  0
  186.2020  178.3270  142.1500 C   0  0  0  0  0  2  0  0  0  0  0  0
  187.5180  178.0200  142.7960 C   0  0  0  0  0  0  0  0  0  0  0  0
  185.0710  177.5130  142.7720 C   0  0  0  0  0  2  0  0  0  0  0  0
  188.6900  176.7370  146.1320 N   0  0  0  0  0  2  0  0  0  0  0  0
  186.3370  177.6130  144.9080 C   0  0  0  0  0  0  0  0  0  0  0  0
  188.7450  178.3520  142.0060 C   0  0  0  0  0  1  0  0  0  0  0  0
  186.4160  177.5640  146.2380 C   0  0  0  0  0  3  0  0  0  0  0  0
  187.7580  177.5380  146.9120 C   0  0  0  0  0  2  0  0  0  0  0  0
  188.9090  177.3460  144.8150 C   0  0  1  0  0  3  0  0  0  0  0  0
  184.9940  177.8040  144.2660 C   0  0  0  0  0  2  0  0  0  0  0  0
  190.4570  170.7670  140.5700 O   0  0  0  0  0  0  0  0  0  0  0  0
  190.8780  171.8680  140.1230 C   0  0  0  0  0  0  0  0  0  0  0  0
  192.5640  172.1660  141.9880 C   0  0  0  0  0  0  0  0  0  0  0  0
  192.0000  172.5210  140.7230 N   0  0  0  0  0  2  0  0  0  0  0  0
  192.0020  171.2990  142.7100 O   0  0  0  0  0  0  0  0  0  0  0  0
  190.1920  172.4990  138.9660 C   0  0  0  0  0  2  0  0  0  0  0  0
  189.5470  172.9460  135.4490 N   0  0  0  0  0  2  0  0  0  0  0  0
  189.5620  174.0070  136.4530 C   0  0  0  0  0  2  0  0  0  0  0  0
  191.1270  172.6810  137.8590 N   0  0  0  0  0  0  0  0  0  0  0  0
  190.9800  171.5890  136.8780 C   0  0  0  0  0  2  0  0  0  0  0  0
  190.8800  173.9820  137.2270 C   0  0  0  0  0  2  0  0  0  0  0  0
  189.6440  171.6670  136.1310 C   0  0  0  0  0  2  0  0  0  0  0  0
  1  8  2  0  0  0  0
  2  9  1  6  0  0  0
  2  6  1  0  0  0  0
  4  3  1  0  0  0  0
  4  9  2  0  0  0  0
  5  3  1  6  0  0  0
  5  2  1  0  0  0  0
  5  1  1  0  0  0  0
  6  7  2  0  0  0  0
  8  7  1  0  0  0  0
 11  8  1  1  0  0  0
 11 15  1  0  0  0  0
 14 11  1  0  0  0  0
 14 12  1  0  0  0  0
 15 10  1  0  0  0  0
 15 13  1  1  0  0  0
 16 10  1  0  0  0  0
 17 16  1  1  0  0  0
 17 12  1  0  0  0  0
 17 27  1  0  0  0  0
 18 23  1  0  0  0  0
 19 21  1  0  0  0  0
 19 20  1  0  0  0  0
 20 18  2  0  0  0  0
 21 28  1  0  0  0  0
 22 26  1  0  0  0  0
 23 25  2  0  0  0  0
 24 20  1  0  0  0  0
 25 26  1  0  0  0  0
 27 18  1  6  0  0  0
 27 22  1  0  0  0  0
 28 23  1  0  0  0  0
 30 29  2  0  0  0  0
 30 32  1  0  0  0  0
 31  1  1  0  0  0  0
 31 33  2  0  0  0  0
 32 31  1  0  0  0  0
 34 30  1  0  0  0  0
 35 40  1  0  0  0  0
 35 36  1  0  0  0  0
 36 39  1  0  0  0  0
 37 34  1  0  0  0  0
 38 37  1  0  0  0  0
 39 37  1  0  0  0  0
 40 38  1  0  0  0  0
M  END
>  <MODEL>
8

>  <REMARK>
 VINA RESULT:      -7.2      2.081      2.489
  Name = 
  5 active torsions:
  status: ('A' for Active; 'I' for Inactive)
    1  A    between atoms: C_1  and  C_20
    2  A    between atoms: N_13  and  C_29
    3  A    between atoms: C_15  and  C_34
    4  A    between atoms: C_19  and  C_29
    5  A    between atoms: C_36  and  C_39
                            x       y       z     vdW  Elec       q    Type
                         _______ _______ _______ _____ _____    ______ ____

>  <TORSDO>
F 5

$$$$
=
 OpenBabel11042418093D

 40 45  0  0  1  0  0  0  0  0999 V2000
  188.0110  177.2280  144.5860 C   0  0  0  0  0  0  0  0  0  0  0  0
  186.6890  177.9440  146.5440 C   0  0  2  0  0  3  0  0  0  0  0  0
  185.5290  177.3860  144.6710 N   0  0  0  0  0  2  0  0  0  0  0  0
  184.8140  177.1230  145.6890 N   0  0  0  0  0  0  0  0  0  0  0  0
  186.7930  177.9950  145.0670 C   0  0  2  0  0  3  0  0  0  0  0  0
  187.8870  177.9160  147.3680 C   0  0  0  0  0  3  0  0  0  0  0  0
  188.9990  177.5400  146.8050 N   0  0  0  0  0  0  0  0  0  0  0  0
  189.0770  177.0900  145.4280 C   0  0  0  0  0  0  0  0  0  0  0  0
  185.5220  177.4330  146.8840 C   0  0  0  0  0  3  0  0  0  0  0  0
  192.0130  176.6730  142.9230 C   0  0  0  0  0  2  0  0  0  0  0  0
  190.3880  176.5430  144.9390 C   0  0  2  0  0  3  0  0  0  0  0  0
  192.8420  176.2960  145.7030 C   0  0  0  0  0  2  0  0  0  0  0  0
  191.4760  178.6650  144.2630 N   0  0  0  0  0  1  0  0  0  0  0  0
  191.3620  176.2630  146.1000 C   0  0  0  0  0  2  0  0  0  0  0  0
  190.9530  177.3920  143.7790 C   0  0  1  0  0  3  0  0  0  0  0  0
  192.3670  175.2550  143.3900 C   0  0  0  0  0  2  0  0  0  0  0  0
  193.2020  175.2200  144.6850 C   0  0  1  0  0  3  0  0  0  0  0  0
  195.2310  173.9380  143.7800 C   0  0  0  0  0  0  0  0  0  0  0  0
  195.4130  171.4780  143.5160 C   0  0  0  0  0  2  0  0  0  0  0  0
  194.8490  172.7000  144.1730 C   0  0  0  0  0  0  0  0  0  0  0  0
  195.7930  171.7490  142.0640 C   0  0  0  0  0  2  0  0  0  0  0  0
  195.1170  176.4230  143.7040 N   0  0  0  0  0  2  0  0  0  0  0  0
  196.3070  174.0780  142.7600 C   0  0  0  0  0  0  0  0  0  0  0  0
  194.0080  172.4780  145.3900 C   0  0  0  0  0  1  0  0  0  0  0  0
  196.9290  175.2480  142.6060 C   0  0  0  0  0  3  0  0  0  0  0  0
  196.5530  176.4190  143.4680 C   0  0  0  0  0  2  0  0  0  0  0  0
  194.7190  175.2250  144.4510 C   0  0  1  0  0  3  0  0  0  0  0  0
  196.8100  172.8830  142.0040 C   0  0  0  0  0  2  0  0  0  0  0  0
  187.9120  175.6450  140.5180 O   0  0  0  0  0  0  0  0  0  0  0  0
  188.3500  174.9580  141.4810 C   0  0  0  0  0  0  0  0  0  0  0  0
  188.0670  176.8320  143.1600 C   0  0  0  0  0  0  0  0  0  0  0  0
  188.3200  175.4670  142.8170 N   0  0  0  0  0  2  0  0  0  0  0  0
  187.9660  177.7030  142.2540 O   0  0  0  0  0  0  0  0  0  0  0  0
  188.9130  173.6070  141.2210 C   0  0  0  0  0  2  0  0  0  0  0  0
  191.5070  171.3490  140.1450 N   0  0  0  0  0  2  0  0  0  0  0  0
  190.0730  171.1590  139.9390 C   0  0  0  0  0  2  0  0  0  0  0  0
  189.7170  173.6190  140.0020 N   0  0  0  0  0  0  0  0  0  0  0  0
  191.1490  173.7520  140.3330 C   0  0  0  0  0  2  0  0  0  0  0  0
  189.4720  172.3840  139.2500 C   0  0  0  0  0  2  0  0  0  0  0  0
  191.6970  172.4960  141.0170 C   0  0  0  0  0  2  0  0  0  0  0  0
  1  8  2  0  0  0  0
  2  9  1  6  0  0  0
  2  6  1  0  0  0  0
  3  5  1  0  0  0  0
  3  4  1  0  0  0  0
  4  9  2  0  0  0  0
  5  1  1  6  0  0  0
  5  2  1  0  0  0  0
  7  6  2  0  0  0  0
  8  7  1  0  0  0  0
 10 16  1  0  0  0  0
 10 15  1  0  0  0  0
 11  8  1  1  0  0  0
 11 14  1  0  0  0  0
 12 14  1  0  0  0  0
 15 13  1  1  0  0  0
 15 11  1  0  0  0  0
 17 16  1  6  0  0  0
 17 12  1  0  0  0  0
 18 20  2  0  0  0  0
 18 27  1  0  0  0  0
 19 20  1  0  0  0  0
 20 24  1  0  0  0  0
 21 19  1  0  0  0  0
 23 18  1  0  0  0  0
 25 23  2  0  0  0  0
 25 26  1  0  0  0  0
 26 22  1  0  0  0  0
 27 22  1  6  0  0  0
 27 17  1  0  0  0  0
 28 21  1  0  0  0  0
 28 23  1  0  0  0  0
 29 30  2  0  0  0  0
 30 32  1  0  0  0  0
 31  1  1  0  0  0  0
 32 31  1  0  0  0  0
 33 31  2  0  0  0  0
 34 30  1  0  0  0  0
 35 40  1  0  0  0  0
 36 35  1  0  0  0  0
 37 38  1  0  0  0  0
 37 34  1  0  0  0  0
 38 40  1  0  0  0  0
 39 36  1  0  0  0  0
 39 37  1  0  0  0  0
M  END
>  <MODEL>
9

>  <REMARK>
 VINA RESULT:      -7.1      2.447      7.697
  Name = 
  5 active torsions:
  status: ('A' for Active; 'I' for Inactive)
    1  A    between atoms: C_1  and  C_20
    2  A    between atoms: N_13  and  C_29
    3  A    between atoms: C_15  and  C_34
    4  A    between atoms: C_19  and  C_29
    5  A    between atoms: C_36  and  C_39
                            x       y       z     vdW  Elec       q    Type
                         _______ _______ _______ _____ _____    ______ ____

>  <TORSDO>
F 5

$$$$
