=
 OpenBabel11042418423D

 34 40  0  0  1  0  0  0  0  0999 V2000
  188.9630  175.4730  143.5260 C   0  0  2  0  0  3  0  0  0  0  0  0
  192.8580  174.1090  140.4160 C   0  0  0  0  0  3  0  0  0  0  0  0
  191.7460  173.4050  139.9520 C   0  0  0  0  0  3  0  0  0  0  0  0
  191.5180  175.0980  142.1340 N   0  0  0  0  0  0  0  0  0  0  0  0
  189.1720  174.5610  142.3500 C   0  0  0  0  0  0  0  0  0  0  0  0
  190.4160  174.4200  141.7050 C   0  0  0  0  0  0  0  0  0  0  0  0
  192.7230  174.9570  141.5200 C   0  0  0  0  0  3  0  0  0  0  0  0
  190.5170  173.5540  140.5940 C   0  0  0  0  0  0  0  0  0  0  0  0
  188.2180  173.0020  140.7670 C   0  0  0  0  0  3  0  0  0  0  0  0
  189.4260  172.8740  140.1550 N   0  0  0  0  0  0  0  0  0  0  0  0
  188.0710  173.8440  141.8730 C   0  0  0  0  0  3  0  0  0  0  0  0
  189.3310  174.8080  144.7720 N   0  0  0  0  0  2  0  0  0  0  0  0
  189.4080  175.0860  147.1950 C   0  0  0  0  0  2  0  0  0  0  0  0
  188.9270  175.6750  145.8720 C   0  0  1  0  0  3  0  0  0  0  0  0
  190.1270  176.2690  146.5880 C   0  0  1  0  0  0  0  0  0  0  0  0
  189.8550  177.4780  147.2280 O   0  0  0  0  0  1  0  0  0  0  0  0
  191.5440  176.0540  146.0430 C   0  0  2  0  0  0  0  0  0  0  0  0
  193.9160  176.6870  146.7460 C   0  0  0  0  0  2  0  0  0  0  0  0
  194.3880  175.2000  144.8730 C   0  0  0  0  0  2  0  0  0  0  0  0
  193.2210  174.2690  145.1740 C   0  0  0  0  0  2  0  0  0  0  0  0
  192.2370  174.7170  146.2800 C   0  0  1  0  0  3  0  0  0  0  0  0
  192.6210  175.9540  147.1270 C   0  0  2  0  0  3  0  0  0  0  0  0
  191.9000  176.7590  144.8860 O   0  0  0  0  0  1  0  0  0  0  0  0
  194.9560  175.7590  146.1530 C   0  0  0  0  0  2  0  0  0  0  0  0
  187.5760  175.9120  143.5870 N   0  0  0  0  0  2  0  0  0  0  0  0
  185.5090  177.9370  141.6330 S   0  0  0  0  0  0  0  0  0  0  0  0
  186.4190  178.1510  145.5180 C   0  0  0  0  0  3  0  0  0  0  0  0
  187.3010  177.6660  141.9140 C   0  0  0  0  0  2  0  0  0  0  0  0
  185.3330  178.2790  143.3650 C   0  0  0  0  0  0  0  0  0  0  0  0
  184.2010  178.8520  143.9420 C   0  0  0  0  0  3  0  0  0  0  0  0
  186.4240  177.9380  144.1370 C   0  0  0  0  0  0  0  0  0  0  0  0
  184.1790  179.0710  145.3280 C   0  0  0  0  0  3  0  0  0  0  0  0
  185.2870  178.7200  146.1140 C   0  0  0  0  0  3  0  0  0  0  0  0
  187.5600  177.3520  143.3900 C   0  0  1  0  0  3  0  0  0  0  0  0
  1 25  1  1  0  0  0
  1 12  1  0  0  0  0
  2  7  1  0  0  0  0
  3  2  2  0  0  0  0
  3  8  1  0  0  0  0
  5  1  1  0  0  0  0
  6  4  1  0  0  0  0
  6  5  2  0  0  0  0
  7  4  2  0  0  0  0
  8  6  1  0  0  0  0
  9 11  2  0  0  0  0
 10  8  2  0  0  0  0
 10  9  1  0  0  0  0
 11  5  1  0  0  0  0
 14 12  1  6  0  0  0
 14 15  1  0  0  0  0
 14 13  1  0  0  0  0
 15 13  1  0  0  0  0
 15 16  1  1  0  0  0
 17 23  1  6  0  0  0
 17 21  1  0  0  0  0
 17 15  1  0  0  0  0
 17 22  1  0  0  0  0
 19 20  1  0  0  0  0
 19 24  1  0  0  0  0
 21 20  1  6  0  0  0
 21 22  1  0  0  0  0
 22 18  1  6  0  0  0
 24 18  1  0  0  0  0
 26 28  1  0  0  0  0
 26 29  1  0  0  0  0
 27 33  1  0  0  0  0
 28 34  1  0  0  0  0
 29 30  2  0  0  0  0
 29 31  1  0  0  0  0
 30 32  1  0  0  0  0
 31 27  2  0  0  0  0
 32 33  2  0  0  0  0
 34 25  1  6  0  0  0
 34 31  1  0  0  0  0
M  END
>  <MODEL>
1

>  <REMARK>
 VINA RESULT:      -8.3      0.000      0.000
  Name = 
  6 active torsions:
  status: ('A' for Active; 'I' for Inactive)
    1  A    between atoms: C_3  and  C_22
    2  A    between atoms: C_7  and  C_18
    3  A    between atoms: N_17  and  C_18
    4  A    between atoms: N_17  and  C_20
    5  A    between atoms: C_18  and  N_19
    6  A    between atoms: N_19  and  C_32
                            x       y       z     vdW  Elec       q    Type
                         _______ _______ _______ _____ _____    ______ ____

>  <TORSDO>
F 6

$$$$
=
 OpenBabel11042418423D

 34 40  0  0  1  0  0  0  0  0999 V2000
  189.8060  175.1580  143.5240 C   0  0  2  0  0  3  0  0  0  0  0  0
  194.0530  176.7360  146.0100 C   0  0  0  0  0  3  0  0  0  0  0  0
  193.1640  176.3320  147.0080 C   0  0  0  0  0  3  0  0  0  0  0  0
  192.4350  176.1720  144.3390 N   0  0  0  0  0  0  0  0  0  0  0  0
  190.2680  175.2930  144.9470 C   0  0  0  0  0  0  0  0  0  0  0  0
  191.5450  175.7760  145.2930 C   0  0  0  0  0  0  0  0  0  0  0  0
  193.6660  176.6480  144.6690 C   0  0  0  0  0  3  0  0  0  0  0  0
  191.9040  175.8510  146.6570 C   0  0  0  0  0  0  0  0  0  0  0  0
  189.7910  174.9880  147.2980 C   0  0  0  0  0  3  0  0  0  0  0  0
  191.0270  175.4570  147.6170 N   0  0  0  0  0  0  0  0  0  0  0  0
  189.3920  174.8990  145.9610 C   0  0  0  0  0  3  0  0  0  0  0  0
  188.3630  175.3470  143.4250 N   0  0  0  0  0  2  0  0  0  0  0  0
  186.6130  176.3790  142.0740 C   0  0  0  0  0  2  0  0  0  0  0  0
  188.1130  176.2820  142.3360 C   0  0  1  0  0  3  0  0  0  0  0  0
  187.3260  177.4940  142.8050 C   0  0  1  0  0  0  0  0  0  0  0  0
  187.5330  178.6310  142.0260 O   0  0  0  0  0  1  0  0  0  0  0  0
  187.0210  177.6950  144.2950 C   0  0  2  0  0  0  0  0  0  0  0  0
  185.7490  179.3960  145.7130 C   0  0  0  0  0  2  0  0  0  0  0  0
  186.2680  177.7110  147.3950 C   0  0  0  0  0  2  0  0  0  0  0  0
  186.1050  176.5400  146.4350 C   0  0  0  0  0  2  0  0  0  0  0  0
  185.9020  176.8870  144.9410 C   0  0  1  0  0  3  0  0  0  0  0  0
  185.6760  178.3720  144.5700 C   0  0  2  0  0  3  0  0  0  0  0  0
  188.0850  178.0830  145.1190 O   0  0  0  0  0  1  0  0  0  0  0  0
  185.3080  178.8170  147.0410 C   0  0  0  0  0  2  0  0  0  0  0  0
  190.1740  173.8540  142.9930 N   0  0  0  0  0  2  0  0  0  0  0  0
  192.4070  171.8130  141.2490 S   0  0  0  0  0  0  0  0  0  0  0  0
  189.0800  173.6520  140.0190 C   0  0  0  0  0  3  0  0  0  0  0  0
  192.3220  173.5310  141.8820 C   0  0  0  0  0  2  0  0  0  0  0  0
  190.9280  172.1270  140.3220 C   0  0  0  0  0  0  0  0  0  0  0  0
  190.4440  171.3000  139.3090 C   0  0  0  0  0  3  0  0  0  0  0  0
  190.2610  173.2840  140.6690 C   0  0  0  0  0  0  0  0  0  0  0  0
  189.2570  171.6550  138.6490 C   0  0  0  0  0  3  0  0  0  0  0  0
  188.5770  172.8290  139.0040 C   0  0  0  0  0  3  0  0  0  0  0  0
  190.8960  174.0710  141.7490 C   0  0  1  0  0  3  0  0  0  0  0  0
  1 25  1  1  0  0  0
  1  5  1  0  0  0  0
  2  3  1  0  0  0  0
  4  7  1  0  0  0  0
  4  6  2  0  0  0  0
  5  6  1  0  0  0  0
  5 11  2  0  0  0  0
  6  8  1  0  0  0  0
  7  2  2  0  0  0  0
  8  3  2  0  0  0  0
  8 10  1  0  0  0  0
  9 10  2  0  0  0  0
 11  9  1  0  0  0  0
 12  1  1  0  0  0  0
 13 14  1  0  0  0  0
 13 15  1  0  0  0  0
 14 15  1  0  0  0  0
 14 12  1  1  0  0  0
 15 16  1  6  0  0  0
 15 17  1  0  0  0  0
 17 22  1  0  0  0  0
 17 21  1  0  0  0  0
 17 23  1  1  0  0  0
 18 24  1  0  0  0  0
 20 19  1  0  0  0  0
 21 20  1  1  0  0  0
 22 21  1  0  0  0  0
 22 18  1  1  0  0  0
 24 19  1  0  0  0  0
 26 28  1  0  0  0  0
 27 31  1  0  0  0  0
 29 31  2  0  0  0  0
 29 26  1  0  0  0  0
 30 29  1  0  0  0  0
 31 34  1  0  0  0  0
 32 33  1  0  0  0  0
 32 30  2  0  0  0  0
 33 27  2  0  0  0  0
 34 28  1  0  0  0  0
 34 25  1  1  0  0  0
M  END
>  <MODEL>
2

>  <REMARK>
 VINA RESULT:      -8.3      2.414      6.825
  Name = 
  6 active torsions:
  status: ('A' for Active; 'I' for Inactive)
    1  A    between atoms: C_3  and  C_22
    2  A    between atoms: C_7  and  C_18
    3  A    between atoms: N_17  and  C_18
    4  A    between atoms: N_17  and  C_20
    5  A    between atoms: C_18  and  N_19
    6  A    between atoms: N_19  and  C_32
                            x       y       z     vdW  Elec       q    Type
                         _______ _______ _______ _____ _____    ______ ____

>  <TORSDO>
F 6

$$$$
=
 OpenBabel11042418423D

 34 40  0  0  1  0  0  0  0  0999 V2000
  188.1410  176.2560  141.8720 C   0  0  2  0  0  3  0  0  0  0  0  0
  188.5200  172.9610  137.9090 C   0  0  0  0  0  3  0  0  0  0  0  0
  188.7760  172.2010  139.0520 C   0  0  0  0  0  3  0  0  0  0  0  0
  188.2190  174.9070  139.2680 N   0  0  0  0  0  0  0  0  0  0  0  0
  188.4540  174.8000  141.6710 C   0  0  0  0  0  0  0  0  0  0  0  0
  188.4690  174.1910  140.4010 C   0  0  0  0  0  0  0  0  0  0  0  0
  188.2420  174.3250  138.0390 C   0  0  0  0  0  3  0  0  0  0  0  0
  188.7540  172.8110  140.3060 C   0  0  0  0  0  0  0  0  0  0  0  0
  188.9910  172.6600  142.6600 C   0  0  0  0  0  3  0  0  0  0  0  0
  189.0040  172.0860  141.4270 N   0  0  0  0  0  0  0  0  0  0  0  0
  188.7170  174.0240  142.8020 C   0  0  0  0  0  3  0  0  0  0  0  0
  188.9030  176.8020  142.9900 N   0  0  0  0  0  2  0  0  0  0  0  0
  190.8110  178.2830  143.3380 C   0  0  0  0  0  2  0  0  0  0  0  0
  190.2270  177.1550  142.4920 C   0  0  1  0  0  3  0  0  0  0  0  0
  191.3080  176.8670  143.5190 C   0  0  1  0  0  0  0  0  0  0  0  0
  192.5640  176.6390  142.9590 O   0  0  0  0  0  1  0  0  0  0  0  0
  190.9670  176.1400  144.8250 C   0  0  2  0  0  0  0  0  0  0  0  0
  192.1280  175.6960  147.0550 C   0  0  0  0  0  2  0  0  0  0  0  0
  189.8960  174.8440  147.5380 C   0  0  0  0  0  2  0  0  0  0  0  0
  189.1900  175.9080  146.7070 C   0  0  0  0  0  2  0  0  0  0  0  0
  190.0860  176.8380  145.8560 C   0  0  1  0  0  3  0  0  0  0  0  0
  191.6160  176.7550  146.0680 C   0  0  2  0  0  3  0  0  0  0  0  0
  190.9160  174.7420  144.7860 O   0  0  0  0  0  1  0  0  0  0  0  0
  191.1410  175.4130  148.1690 C   0  0  0  0  0  2  0  0  0  0  0  0
  186.7160  176.4410  142.1030 N   0  0  0  0  0  2  0  0  0  0  0  0
  183.7290  178.2110  141.7300 S   0  0  0  0  0  0  0  0  0  0  0  0
  186.5370  178.4400  144.5640 C   0  0  0  0  0  3  0  0  0  0  0  0
  185.4120  178.1860  141.0040 C   0  0  0  0  0  2  0  0  0  0  0  0
  184.4670  178.4750  143.3220 C   0  0  0  0  0  0  0  0  0  0  0  0
  183.7620  178.8670  144.4600 C   0  0  0  0  0  3  0  0  0  0  0  0
  185.8300  178.2690  143.3710 C   0  0  0  0  0  0  0  0  0  0  0  0
  184.4580  179.0410  145.6660 C   0  0  0  0  0  3  0  0  0  0  0  0
  185.8430  178.8280  145.7170 C   0  0  0  0  0  3  0  0  0  0  0  0
  186.4480  177.8700  142.0870 C   0  0  1  0  0  3  0  0  0  0  0  0
  1 25  1  1  0  0  0
  1 12  1  0  0  0  0
  2  7  2  0  0  0  0
  2  3  1  0  0  0  0
  3  8  2  0  0  0  0
  4  6  2  0  0  0  0
  5  1  1  0  0  0  0
  5 11  2  0  0  0  0
  6  5  1  0  0  0  0
  7  4  1  0  0  0  0
  8  6  1  0  0  0  0
  8 10  1  0  0  0  0
  9 11  1  0  0  0  0
 10  9  2  0  0  0  0
 13 15  1  0  0  0  0
 14 12  1  1  0  0  0
 14 13  1  0  0  0  0
 14 15  1  0  0  0  0
 15 16  1  6  0  0  0
 15 17  1  0  0  0  0
 17 23  1  6  0  0  0
 17 21  1  0  0  0  0
 17 22  1  0  0  0  0
 18 24  1  0  0  0  0
 19 24  1  0  0  0  0
 20 19  1  0  0  0  0
 21 22  1  0  0  0  0
 21 20  1  1  0  0  0
 22 18  1  1  0  0  0
 26 29  1  0  0  0  0
 27 33  1  0  0  0  0
 28 26  1  0  0  0  0
 28 34  1  0  0  0  0
 29 31  1  0  0  0  0
 29 30  2  0  0  0  0
 30 32  1  0  0  0  0
 31 27  2  0  0  0  0
 32 33  2  0  0  0  0
 34 25  1  1  0  0  0
 34 31  1  0  0  0  0
M  END
>  <MODEL>
3

>  <REMARK>
 VINA RESULT:      -8.3      2.004      3.008
  Name = 
  6 active torsions:
  status: ('A' for Active; 'I' for Inactive)
    1  A    between atoms: C_3  and  C_22
    2  A    between atoms: C_7  and  C_18
    3  A    between atoms: N_17  and  C_18
    4  A    between atoms: N_17  and  C_20
    5  A    between atoms: C_18  and  N_19
    6  A    between atoms: N_19  and  C_32
                            x       y       z     vdW  Elec       q    Type
                         _______ _______ _______ _____ _____    ______ ____

>  <TORSDO>
F 6

$$$$
=
 OpenBabel11042418423D

 34 40  0  0  1  0  0  0  0  0999 V2000
  189.7610  175.8050  143.5750 C   0  0  2  0  0  3  0  0  0  0  0  0
  194.1140  176.6160  146.2400 C   0  0  0  0  0  3  0  0  0  0  0  0
  193.2000  176.1060  147.1640 C   0  0  0  0  0  3  0  0  0  0  0  0
  192.4580  176.4710  144.5190 N   0  0  0  0  0  0  0  0  0  0  0  0
  190.2340  175.6540  144.9930 C   0  0  0  0  0  0  0  0  0  0  0  0
  191.5430  175.9770  145.4000 C   0  0  0  0  0  0  0  0  0  0  0  0
  193.7200  176.7940  144.9100 C   0  0  0  0  0  3  0  0  0  0  0  0
  191.9080  175.7850  146.7510 C   0  0  0  0  0  0  0  0  0  0  0  0
  189.7390  174.9730  147.2600 C   0  0  0  0  0  3  0  0  0  0  0  0
  191.0060  175.2910  147.6400 N   0  0  0  0  0  0  0  0  0  0  0  0
  189.3330  175.1500  145.9340 C   0  0  0  0  0  3  0  0  0  0  0  0
  188.3130  175.6480  143.4900 N   0  0  0  0  0  2  0  0  0  0  0  0
  186.3180  176.4150  142.3140 C   0  0  0  0  0  2  0  0  0  0  0  0
  187.8350  176.5260  142.4290 C   0  0  1  0  0  3  0  0  0  0  0  0
  186.9400  177.6270  142.9720 C   0  0  1  0  0  0  0  0  0  0  0  0
  186.9140  178.7700  142.1760 O   0  0  0  0  0  1  0  0  0  0  0  0
  186.7550  177.8040  144.4840 C   0  0  2  0  0  0  0  0  0  0  0  0
  185.5050  179.4160  146.0200 C   0  0  0  0  0  2  0  0  0  0  0  0
  186.2780  177.7660  147.6390 C   0  0  0  0  0  2  0  0  0  0  0  0
  186.1070  176.5890  146.6870 C   0  0  0  0  0  2  0  0  0  0  0  0
  185.7520  176.9240  145.2200 C   0  0  1  0  0  3  0  0  0  0  0  0
  185.3980  178.3910  144.8820 C   0  0  2  0  0  3  0  0  0  0  0  0
  187.8590  178.2600  145.2150 O   0  0  0  0  0  1  0  0  0  0  0  0
  185.2210  178.8080  147.3780 C   0  0  0  0  0  2  0  0  0  0  0  0
  190.4190  174.8320  142.7150 N   0  0  0  0  0  2  0  0  0  0  0  0
  190.0650  171.9830  140.7270 S   0  0  0  0  0  0  0  0  0  0  0  0
  191.7220  172.4320  144.3360 C   0  0  0  0  0  3  0  0  0  0  0  0
  189.0310  173.0420  141.8090 C   0  0  0  0  0  2  0  0  0  0  0  0
  191.1450  171.7040  142.1070 C   0  0  0  0  0  0  0  0  0  0  0  0
  192.1330  170.7210  142.1450 C   0  0  0  0  0  3  0  0  0  0  0  0
  190.9400  172.5420  143.1830 C   0  0  0  0  0  0  0  0  0  0  0  0
  192.9290  170.5990  143.2950 C   0  0  0  0  0  3  0  0  0  0  0  0
  192.7230  171.4540  144.3880 C   0  0  0  0  0  3  0  0  0  0  0  0
  189.8490  173.5270  143.0090 C   0  0  1  0  0  3  0  0  0  0  0  0
  1 25  1  6  0  0  0
  1  5  1  0  0  0  0
  2  3  1  0  0  0  0
  4  7  1  0  0  0  0
  4  6  2  0  0  0  0
  5  6  1  0  0  0  0
  5 11  2  0  0  0  0
  6  8  1  0  0  0  0
  7  2  2  0  0  0  0
  8  3  2  0  0  0  0
  8 10  1  0  0  0  0
  9 10  2  0  0  0  0
 11  9  1  0  0  0  0
 12  1  1  0  0  0  0
 13 14  1  0  0  0  0
 13 15  1  0  0  0  0
 14 15  1  0  0  0  0
 14 12  1  1  0  0  0
 15 16  1  6  0  0  0
 15 17  1  0  0  0  0
 17 22  1  0  0  0  0
 17 23  1  1  0  0  0
 17 21  1  0  0  0  0
 18 24  1  0  0  0  0
 20 19  1  0  0  0  0
 21 20  1  1  0  0  0
 22 21  1  0  0  0  0
 22 18  1  1  0  0  0
 24 19  1  0  0  0  0
 26 28  1  0  0  0  0
 26 29  1  0  0  0  0
 27 33  1  0  0  0  0
 28 34  1  0  0  0  0
 29 30  2  0  0  0  0
 29 31  1  0  0  0  0
 30 32  1  0  0  0  0
 31 27  2  0  0  0  0
 32 33  2  0  0  0  0
 34 25  1  6  0  0  0
 34 31  1  0  0  0  0
M  END
>  <MODEL>
4

>  <REMARK>
 VINA RESULT:      -7.9      2.492      6.913
  Name = 
  6 active torsions:
  status: ('A' for Active; 'I' for Inactive)
    1  A    between atoms: C_3  and  C_22
    2  A    between atoms: C_7  and  C_18
    3  A    between atoms: N_17  and  C_18
    4  A    between atoms: N_17  and  C_20
    5  A    between atoms: C_18  and  N_19
    6  A    between atoms: N_19  and  C_32
                            x       y       z     vdW  Elec       q    Type
                         _______ _______ _______ _____ _____    ______ ____

>  <TORSDO>
F 6

$$$$
=
 OpenBabel11042418423D

 34 40  0  0  1  0  0  0  0  0999 V2000
  189.7390  175.8840  143.3020 C   0  0  2  0  0  3  0  0  0  0  0  0
  189.2390  172.2760  139.6360 C   0  0  0  0  0  3  0  0  0  0  0  0
  188.3860  173.3140  139.2570 C   0  0  0  0  0  3  0  0  0  0  0  0
  189.8840  173.5130  141.5790 N   0  0  0  0  0  0  0  0  0  0  0  0
  188.9460  175.6920  142.0390 C   0  0  0  0  0  0  0  0  0  0  0  0
  189.0560  174.5400  141.2370 C   0  0  0  0  0  0  0  0  0  0  0  0
  189.9860  172.3950  140.8120 C   0  0  0  0  0  3  0  0  0  0  0  0
  188.2870  174.4520  140.0550 C   0  0  0  0  0  0  0  0  0  0  0  0
  187.3440  176.5880  140.4660 C   0  0  0  0  0  3  0  0  0  0  0  0
  187.4590  175.4700  139.7010 N   0  0  0  0  0  0  0  0  0  0  0  0
  188.0830  176.7180  141.6450 C   0  0  0  0  0  3  0  0  0  0  0  0
  189.0670  176.8160  144.2010 N   0  0  0  0  0  2  0  0  0  0  0  0
  189.1620  177.4280  146.5610 C   0  0  0  0  0  2  0  0  0  0  0  0
  189.1770  176.2830  145.5530 C   0  0  1  0  0  3  0  0  0  0  0  0
  187.9310  176.5700  146.3730 C   0  0  1  0  0  0  0  0  0  0  0  0
  187.7200  175.6600  147.4070 O   0  0  0  0  0  1  0  0  0  0  0  0
  186.6980  177.2060  145.7180 C   0  0  2  0  0  0  0  0  0  0  0  0
  184.4000  178.0090  146.4880 C   0  0  0  0  0  2  0  0  0  0  0  0
  184.4000  178.8000  144.1830 C   0  0  0  0  0  2  0  0  0  0  0  0
  185.8860  179.1360  144.1810 C   0  0  0  0  0  2  0  0  0  0  0  0
  186.7010  178.7000  145.4210 C   0  0  1  0  0  3  0  0  0  0  0  0
  185.9210  178.1510  146.6390 C   0  0  2  0  0  3  0  0  0  0  0  0
  185.9260  176.3900  144.8810 O   0  0  0  0  0  1  0  0  0  0  0  0
  183.8100  179.0400  145.5490 C   0  0  0  0  0  2  0  0  0  0  0  0
  191.0760  176.3670  142.9920 N   0  0  0  0  0  2  0  0  0  0  0  0
  194.5150  176.0740  142.4600 S   0  0  0  0  0  0  0  0  0  0  0  0
  192.3970  175.9270  145.8450 C   0  0  0  0  0  3  0  0  0  0  0  0
  193.0010  175.0610  142.2550 C   0  0  0  0  0  2  0  0  0  0  0  0
  194.1180  176.2420  144.1810 C   0  0  0  0  0  0  0  0  0  0  0  0
  194.9990  176.7250  145.1470 C   0  0  0  0  0  3  0  0  0  0  0  0
  192.8420  175.8460  144.5230 C   0  0  0  0  0  0  0  0  0  0  0  0
  194.5670  176.8150  146.4790 C   0  0  0  0  0  3  0  0  0  0  0  0
  193.2680  176.4160  146.8270 C   0  0  0  0  0  3  0  0  0  0  0  0
  192.0220  175.3400  143.3990 C   0  0  1  0  0  3  0  0  0  0  0  0
  1 25  1  6  0  0  0
  1 12  1  0  0  0  0
  2  7  1  0  0  0  0
  3  2  2  0  0  0  0
  3  8  1  0  0  0  0
  5  1  1  0  0  0  0
  6  4  1  0  0  0  0
  6  5  2  0  0  0  0
  7  4  2  0  0  0  0
  8  6  1  0  0  0  0
  9 11  2  0  0  0  0
 10  8  2  0  0  0  0
 10  9  1  0  0  0  0
 11  5  1  0  0  0  0
 14 12  1  6  0  0  0
 14 15  1  0  0  0  0
 14 13  1  0  0  0  0
 15 13  1  0  0  0  0
 15 16  1  1  0  0  0
 17 23  1  6  0  0  0
 17 15  1  0  0  0  0
 17 22  1  0  0  0  0
 19 24  1  0  0  0  0
 20 19  1  0  0  0  0
 21 20  1  6  0  0  0
 21 17  1  0  0  0  0
 21 22  1  0  0  0  0
 22 18  1  6  0  0  0
 24 18  1  0  0  0  0
 26 29  1  0  0  0  0
 27 33  1  0  0  0  0
 28 26  1  0  0  0  0
 28 34  1  0  0  0  0
 29 31  1  0  0  0  0
 29 30  2  0  0  0  0
 30 32  1  0  0  0  0
 31 27  2  0  0  0  0
 32 33  2  0  0  0  0
 34 25  1  6  0  0  0
 34 31  1  0  0  0  0
M  END
>  <MODEL>
5

>  <REMARK>
 VINA RESULT:      -7.8      2.288      6.253
  Name = 
  6 active torsions:
  status: ('A' for Active; 'I' for Inactive)
    1  A    between atoms: C_3  and  C_22
    2  A    between atoms: C_7  and  C_18
    3  A    between atoms: N_17  and  C_18
    4  A    between atoms: N_17  and  C_20
    5  A    between atoms: C_18  and  N_19
    6  A    between atoms: N_19  and  C_32
                            x       y       z     vdW  Elec       q    Type
                         _______ _______ _______ _____ _____    ______ ____

>  <TORSDO>
F 6

$$$$
=
 OpenBabel11042418423D

 34 40  0  0  1  0  0  0  0  0999 V2000
  187.8990  175.4830  142.5970 C   0  0  2  0  0  3  0  0  0  0  0  0
  184.2760  178.3780  144.8780 C   0  0  0  0  0  3  0  0  0  0  0  0
  184.2240  178.7130  143.5240 C   0  0  0  0  0  3  0  0  0  0  0  0
  186.0430  176.8290  144.4280 N   0  0  0  0  0  0  0  0  0  0  0  0
  186.8980  176.5270  142.1890 C   0  0  0  0  0  0  0  0  0  0  0  0
  186.0180  177.1400  143.1020 C   0  0  0  0  0  0  0  0  0  0  0  0
  185.2010  177.4250  145.3150 C   0  0  0  0  0  3  0  0  0  0  0  0
  185.0950  178.0980  142.6260 C   0  0  0  0  0  0  0  0  0  0  0  0
  185.9010  177.8310  140.4130 C   0  0  0  0  0  3  0  0  0  0  0  0
  185.0590  178.4160  141.3060 N   0  0  0  0  0  0  0  0  0  0  0  0
  186.8330  176.8800  140.8380 C   0  0  0  0  0  3  0  0  0  0  0  0
  188.9180  176.0540  143.4710 N   0  0  0  0  0  2  0  0  0  0  0  0
  190.3530  177.9220  142.8360 C   0  0  0  0  0  2  0  0  0  0  0  0
  190.0490  176.4400  142.6370 C   0  0  1  0  0  3  0  0  0  0  0  0
  191.2410  176.8760  143.4730 C   0  0  1  0  0  0  0  0  0  0  0  0
  192.4660  176.7140  142.8280 O   0  0  0  0  0  1  0  0  0  0  0  0
  191.2130  176.7350  144.9990 C   0  0  2  0  0  0  0  0  0  0  0  0
  190.3290  175.0340  146.6870 C   0  0  0  0  0  2  0  0  0  0  0  0
  191.5650  176.5260  148.1640 C   0  0  0  0  0  2  0  0  0  0  0  0
  192.6700  176.7970  147.1500 C   0  0  0  0  0  2  0  0  0  0  0  0
  192.4590  176.2380  145.7230 C   0  0  1  0  0  3  0  0  0  0  0  0
  191.2610  175.2860  145.4930 C   0  0  2  0  0  3  0  0  0  0  0  0
  190.3660  177.5970  145.7070 O   0  0  0  0  0  1  0  0  0  0  0  0
  191.0510  175.1180  148.0150 C   0  0  0  0  0  2  0  0  0  0  0  0
  188.5230  174.8920  141.4230 N   0  0  0  0  0  2  0  0  0  0  0  0
  189.8290  172.2520  139.5470 S   0  0  0  0  0  0  0  0  0  0  0  0
  189.4270  172.6690  143.5010 C   0  0  0  0  0  3  0  0  0  0  0  0
  188.1910  172.9520  139.9810 C   0  0  0  0  0  2  0  0  0  0  0  0
  190.1600  172.0670  141.2800 C   0  0  0  0  0  0  0  0  0  0  0  0
  191.2120  171.3160  141.8040 C   0  0  0  0  0  3  0  0  0  0  0  0
  189.2810  172.7280  142.1130 C   0  0  0  0  0  0  0  0  0  0  0  0
  191.3740  171.2480  143.1960 C   0  0  0  0  0  3  0  0  0  0  0  0
  190.4820  171.9240  144.0430 C   0  0  0  0  0  3  0  0  0  0  0  0
  188.2060  173.4730  141.4210 C   0  0  1  0  0  3  0  0  0  0  0  0
  1 25  1  6  0  0  0
  1 12  1  0  0  0  0
  2  7  1  0  0  0  0
  3  2  2  0  0  0  0
  4  7  2  0  0  0  0
  5  1  1  0  0  0  0
  5  6  1  0  0  0  0
  6  4  1  0  0  0  0
  8  6  2  0  0  0  0
  8  3  1  0  0  0  0
  9 11  1  0  0  0  0
  9 10  2  0  0  0  0
 10  8  1  0  0  0  0
 11  5  2  0  0  0  0
 13 15  1  0  0  0  0
 14 13  1  0  0  0  0
 14 12  1  1  0  0  0
 14 15  1  0  0  0  0
 15 16  1  6  0  0  0
 15 17  1  0  0  0  0
 17 22  1  0  0  0  0
 17 23  1  1  0  0  0
 17 21  1  0  0  0  0
 18 24  1  0  0  0  0
 20 19  1  0  0  0  0
 21 20  1  1  0  0  0
 22 21  1  0  0  0  0
 22 18  1  1  0  0  0
 24 19  1  0  0  0  0
 26 28  1  0  0  0  0
 26 29  1  0  0  0  0
 27 33  1  0  0  0  0
 28 34  1  0  0  0  0
 29 30  2  0  0  0  0
 29 31  1  0  0  0  0
 30 32  1  0  0  0  0
 31 27  2  0  0  0  0
 32 33  2  0  0  0  0
 34 25  1  6  0  0  0
 34 31  1  0  0  0  0
M  END
>  <MODEL>
6

>  <REMARK>
 VINA RESULT:      -7.7      2.303      6.023
  Name = 
  6 active torsions:
  status: ('A' for Active; 'I' for Inactive)
    1  A    between atoms: C_3  and  C_22
    2  A    between atoms: C_7  and  C_18
    3  A    between atoms: N_17  and  C_18
    4  A    between atoms: N_17  and  C_20
    5  A    between atoms: C_18  and  N_19
    6  A    between atoms: N_19  and  C_32
                            x       y       z     vdW  Elec       q    Type
                         _______ _______ _______ _____ _____    ______ ____

>  <TORSDO>
F 6

$$$$
=
 OpenBabel11042418423D

 34 40  0  0  1  0  0  0  0  0999 V2000
  188.8800  176.3530  144.2290 C   0  0  2  0  0  3  0  0  0  0  0  0
  184.4900  177.8410  146.5130 C   0  0  0  0  0  3  0  0  0  0  0  0
  184.5030  178.4840  145.2740 C   0  0  0  0  0  3  0  0  0  0  0  0
  186.5950  176.8220  146.0080 N   0  0  0  0  0  0  0  0  0  0  0  0
  187.7190  177.2520  143.9120 C   0  0  0  0  0  0  0  0  0  0  0  0
  186.6360  177.4400  144.7940 C   0  0  0  0  0  0  0  0  0  0  0  0
  185.5560  177.0070  146.8660 C   0  0  0  0  0  3  0  0  0  0  0  0
  185.5760  178.2890  144.4060 C   0  0  0  0  0  0  0  0  0  0  0  0
  186.6420  178.7370  142.3370 C   0  0  0  0  0  3  0  0  0  0  0  0
  185.6040  178.9100  143.1980 N   0  0  0  0  0  0  0  0  0  0  0  0
  187.7140  177.9080  142.6790 C   0  0  0  0  0  3  0  0  0  0  0  0
  189.9950  177.1160  144.7790 N   0  0  0  0  0  2  0  0  0  0  0  0
  190.0640  175.5020  146.6070 C   0  0  0  0  0  2  0  0  0  0  0  0
  189.9540  176.9760  146.2290 C   0  0  1  0  0  3  0  0  0  0  0  0
  191.2560  176.4170  146.7760 C   0  0  1  0  0  0  0  0  0  0  0  0
  191.5060  176.7730  148.1000 O   0  0  0  0  0  1  0  0  0  0  0  0
  192.4640  176.2110  145.8520 C   0  0  2  0  0  0  0  0  0  0  0  0
  194.9410  175.6640  146.1370 C   0  0  0  0  0  2  0  0  0  0  0  0
  194.7300  175.5230  143.7140 C   0  0  0  0  0  2  0  0  0  0  0  0
  193.3250  174.9350  143.7590 C   0  0  0  0  0  2  0  0  0  0  0  0
  192.6390  174.8730  145.1440 C   0  0  1  0  0  3  0  0  0  0  0  0
  193.4950  175.2140  146.3870 C   0  0  2  0  0  3  0  0  0  0  0  0
  192.9790  177.3440  145.2110 O   0  0  0  0  0  1  0  0  0  0  0  0
  195.5370  175.0420  144.8920 C   0  0  0  0  0  2  0  0  0  0  0  0
  189.3070  175.6380  143.0350 N   0  0  0  0  0  2  0  0  0  0  0  0
  188.8220  173.3810  140.4150 S   0  0  0  0  0  0  0  0  0  0  0  0
  190.1290  172.7780  144.1430 C   0  0  0  0  0  3  0  0  0  0  0  0
  187.8150  174.3100  141.6330 C   0  0  0  0  0  2  0  0  0  0  0  0
  189.7070  172.6520  141.7690 C   0  0  0  0  0  0  0  0  0  0  0  0
  190.5590  171.5540  141.6500 C   0  0  0  0  0  3  0  0  0  0  0  0
  189.4920  173.2510  142.9920 C   0  0  0  0  0  0  0  0  0  0  0  0
  191.2070  171.0680  142.7960 C   0  0  0  0  0  3  0  0  0  0  0  0
  190.9930  171.6800  144.0400 C   0  0  0  0  0  3  0  0  0  0  0  0
  188.5540  174.3950  142.9710 C   0  0  1  0  0  3  0  0  0  0  0  0
  1 25  1  6  0  0  0
  1 12  1  0  0  0  0
  2  7  1  0  0  0  0
  3  2  2  0  0  0  0
  4  7  2  0  0  0  0
  5  1  1  0  0  0  0
  5  6  1  0  0  0  0
  6  4  1  0  0  0  0
  8  6  2  0  0  0  0
  8  3  1  0  0  0  0
  9 11  1  0  0  0  0
  9 10  2  0  0  0  0
 10  8  1  0  0  0  0
 11  5  2  0  0  0  0
 13 15  1  0  0  0  0
 14 12  1  6  0  0  0
 14 13  1  0  0  0  0
 14 15  1  0  0  0  0
 15 16  1  1  0  0  0
 17 23  1  6  0  0  0
 17 22  1  0  0  0  0
 17 15  1  0  0  0  0
 19 20  1  0  0  0  0
 19 24  1  0  0  0  0
 21 20  1  6  0  0  0
 21 17  1  0  0  0  0
 21 22  1  0  0  0  0
 22 18  1  6  0  0  0
 24 18  1  0  0  0  0
 26 28  1  0  0  0  0
 26 29  1  0  0  0  0
 28 34  1  0  0  0  0
 29 31  1  0  0  0  0
 30 29  2  0  0  0  0
 30 32  1  0  0  0  0
 31 27  2  0  0  0  0
 32 33  2  0  0  0  0
 33 27  1  0  0  0  0
 34 31  1  0  0  0  0
 34 25  1  6  0  0  0
M  END
>  <MODEL>
7

>  <REMARK>
 VINA RESULT:      -7.6      1.985      5.689
  Name = 
  6 active torsions:
  status: ('A' for Active; 'I' for Inactive)
    1  A    between atoms: C_3  and  C_22
    2  A    between atoms: C_7  and  C_18
    3  A    between atoms: N_17  and  C_18
    4  A    between atoms: N_17  and  C_20
    5  A    between atoms: C_18  and  N_19
    6  A    between atoms: N_19  and  C_32
                            x       y       z     vdW  Elec       q    Type
                         _______ _______ _______ _____ _____    ______ ____

>  <TORSDO>
F 6

$$$$
=
 OpenBabel11042418423D

 34 40  0  0  1  0  0  0  0  0999 V2000
  189.3600  175.7570  143.5010 C   0  0  2  0  0  3  0  0  0  0  0  0
  188.1920  173.2730  139.1220 C   0  0  0  0  0  3  0  0  0  0  0  0
  188.5650  172.2780  140.0280 C   0  0  0  0  0  3  0  0  0  0  0  0
  188.5780  174.9410  140.7940 N   0  0  0  0  0  0  0  0  0  0  0  0
  189.3450  174.3390  143.0040 C   0  0  0  0  0  0  0  0  0  0  0  0
  188.9510  173.9920  141.6970 C   0  0  0  0  0  0  0  0  0  0  0  0
  188.2060  174.6110  139.5270 C   0  0  0  0  0  3  0  0  0  0  0  0
  188.9490  172.6300  141.3210 C   0  0  0  0  0  0  0  0  0  0  0  0
  189.6980  171.9940  143.4780 C   0  0  0  0  0  3  0  0  0  0  0  0
  189.3170  171.6730  142.2130 N   0  0  0  0  0  0  0  0  0  0  0  0
  189.7190  173.3280  143.8940 C   0  0  0  0  0  3  0  0  0  0  0  0
  190.6060  176.0500  144.1990 N   0  0  0  0  0  2  0  0  0  0  0  0
  192.5370  177.5410  144.1400 C   0  0  0  0  0  2  0  0  0  0  0  0
  191.4070  176.9080  143.3340 C   0  0  1  0  0  3  0  0  0  0  0  0
  192.8300  176.3950  143.1980 C   0  0  1  0  0  0  0  0  0  0  0  0
  193.4560  176.7890  142.0160 O   0  0  0  0  0  1  0  0  0  0  0  0
  193.2330  175.0450  143.8030 C   0  0  2  0  0  0  0  0  0  0  0  0
  195.4080  173.7690  144.2040 C   0  0  0  0  0  2  0  0  0  0  0  0
  193.8280  172.3400  145.3880 C   0  0  0  0  0  2  0  0  0  0  0  0
  192.9730  173.5010  145.8770 C   0  0  0  0  0  2  0  0  0  0  0  0
  193.3140  174.9030  145.3180 C   0  0  1  0  0  3  0  0  0  0  0  0
  194.6060  175.0490  144.4800 C   0  0  2  0  0  3  0  0  0  0  0  0
  192.9120  173.8940  143.0710 O   0  0  0  0  0  1  0  0  0  0  0  0
  195.2770  172.7500  145.3160 C   0  0  0  0  0  2  0  0  0  0  0  0
  188.2260  175.9970  144.3830 N   0  0  0  0  0  2  0  0  0  0  0  0
  185.8200  177.9540  142.7790 S   0  0  0  0  0  0  0  0  0  0  0  0
  186.8000  177.7080  146.6450 C   0  0  0  0  0  3  0  0  0  0  0  0
  187.6400  177.9230  143.0050 C   0  0  0  0  0  2  0  0  0  0  0  0
  185.6450  177.9950  144.5440 C   0  0  0  0  0  0  0  0  0  0  0  0
  184.4560  178.2920  145.2090 C   0  0  0  0  0  3  0  0  0  0  0  0
  186.7970  177.7120  145.2480 C   0  0  0  0  0  0  0  0  0  0  0  0
  184.4420  178.2890  146.6120 C   0  0  0  0  0  3  0  0  0  0  0  0
  185.6120  177.9980  147.3290 C   0  0  0  0  0  3  0  0  0  0  0  0
  187.9870  177.4310  144.4130 C   0  0  1  0  0  3  0  0  0  0  0  0
  1 12  1  1  0  0  0
  1 25  1  0  0  0  0
  2  7  2  0  0  0  0
  2  3  1  0  0  0  0
  3  8  2  0  0  0  0
  4  6  2  0  0  0  0
  5  1  1  0  0  0  0
  5 11  2  0  0  0  0
  6  5  1  0  0  0  0
  7  4  1  0  0  0  0
  8  6  1  0  0  0  0
  8 10  1  0  0  0  0
  9 11  1  0  0  0  0
 10  9  2  0  0  0  0
 14 13  1  0  0  0  0
 14 12  1  1  0  0  0
 15 16  1  6  0  0  0
 15 14  1  0  0  0  0
 15 17  1  0  0  0  0
 15 13  1  0  0  0  0
 17 23  1  6  0  0  0
 17 22  1  0  0  0  0
 17 21  1  0  0  0  0
 18 24  1  0  0  0  0
 19 20  1  0  0  0  0
 21 20  1  6  0  0  0
 22 18  1  6  0  0  0
 22 21  1  0  0  0  0
 24 19  1  0  0  0  0
 26 28  1  0  0  0  0
 26 29  1  0  0  0  0
 27 33  1  0  0  0  0
 28 34  1  0  0  0  0
 29 30  2  0  0  0  0
 29 31  1  0  0  0  0
 30 32  1  0  0  0  0
 31 27  2  0  0  0  0
 32 33  2  0  0  0  0
 34 25  1  6  0  0  0
 34 31  1  0  0  0  0
M  END
>  <MODEL>
8

>  <REMARK>
 VINA RESULT:      -7.2      2.192      2.927
  Name = 
  6 active torsions:
  status: ('A' for Active; 'I' for Inactive)
    1  A    between atoms: C_3  and  C_22
    2  A    between atoms: C_7  and  C_18
    3  A    between atoms: N_17  and  C_18
    4  A    between atoms: N_17  and  C_20
    5  A    between atoms: C_18  and  N_19
    6  A    between atoms: N_19  and  C_32
                            x       y       z     vdW  Elec       q    Type
                         _______ _______ _______ _____ _____    ______ ____

>  <TORSDO>
F 6

$$$$
=
 OpenBabel11042418423D

 34 40  0  0  1  0  0  0  0  0999 V2000
  192.1900  175.6020  144.4430 C   0  0  2  0  0  3  0  0  0  0  0  0
  196.2070  176.6800  141.3760 C   0  0  0  0  0  3  0  0  0  0  0  0
  196.7610  176.1730  142.5530 C   0  0  0  0  0  3  0  0  0  0  0  0
  194.0130  176.4060  142.2890 N   0  0  0  0  0  0  0  0  0  0  0  0
  193.6890  175.5240  144.5160 C   0  0  0  0  0  0  0  0  0  0  0  0
  194.5260  175.9120  143.4520 C   0  0  0  0  0  0  0  0  0  0  0  0
  194.8180  176.7910  141.2630 C   0  0  0  0  0  3  0  0  0  0  0  0
  195.9250  175.7870  143.5990 C   0  0  0  0  0  0  0  0  0  0  0  0
  195.6530  174.9140  145.7870 C   0  0  0  0  0  3  0  0  0  0  0  0
  196.4490  175.2940  144.7520 N   0  0  0  0  0  0  0  0  0  0  0  0
  194.2630  175.0230  145.6870 C   0  0  0  0  0  3  0  0  0  0  0  0
  191.6480  176.3000  145.6030 N   0  0  0  0  0  2  0  0  0  0  0  0
  191.0940  175.9680  147.9560 C   0  0  0  0  0  2  0  0  0  0  0  0
  191.3020  175.2960  146.6020 C   0  0  1  0  0  3  0  0  0  0  0  0
  189.9010  175.5080  147.1490 C   0  0  1  0  0  0  0  0  0  0  0  0
  189.3100  174.3450  147.6380 O   0  0  0  0  0  1  0  0  0  0  0  0
  188.9820  176.5760  146.5430 C   0  0  2  0  0  0  0  0  0  0  0  0
  188.4420  177.4430  144.2030 C   0  0  0  0  0  2  0  0  0  0  0  0
  186.7660  178.6300  145.5160 C   0  0  0  0  0  2  0  0  0  0  0  0
  186.5440  177.4740  146.4840 C   0  0  0  0  0  2  0  0  0  0  0  0
  187.5020  176.2650  146.3580 C   0  0  1  0  0  3  0  0  0  0  0  0
  188.4620  176.2310  145.1450 C   0  0  2  0  0  3  0  0  0  0  0  0
  189.3300  177.9160  146.7560 O   0  0  0  0  0  1  0  0  0  0  0  0
  187.0820  178.1060  144.1390 C   0  0  0  0  0  2  0  0  0  0  0  0
  191.6170  174.2660  144.3530 N   0  0  0  0  0  2  0  0  0  0  0  0
  190.8870  171.2060  142.8380 S   0  0  0  0  0  0  0  0  0  0  0  0
  189.5840  174.8880  141.9950 C   0  0  0  0  0  3  0  0  0  0  0  0
  192.2560  172.4250  142.8850 C   0  0  0  0  0  2  0  0  0  0  0  0
  189.8110  172.5010  142.2780 C   0  0  0  0  0  0  0  0  0  0  0  0
  188.5390  172.2910  141.7470 C   0  0  0  0  0  3  0  0  0  0  0  0
  190.3270  173.7750  142.3960 C   0  0  0  0  0  0  0  0  0  0  0  0
  187.7800  173.3990  141.3410 C   0  0  0  0  0  3  0  0  0  0  0  0
  188.3020  174.6950  141.4650 C   0  0  0  0  0  3  0  0  0  0  0  0
  191.6920  173.8470  142.9620 C   0  0  1  0  0  3  0  0  0  0  0  0
  1 25  1  1  0  0  0
  1  5  1  0  0  0  0
  1 12  1  0  0  0  0
  2  3  1  0  0  0  0
  3  8  2  0  0  0  0
  4  6  2  0  0  0  0
  5 11  2  0  0  0  0
  6  8  1  0  0  0  0
  6  5  1  0  0  0  0
  7  2  2  0  0  0  0
  7  4  1  0  0  0  0
  8 10  1  0  0  0  0
 10  9  2  0  0  0  0
 11  9  1  0  0  0  0
 14 12  1  6  0  0  0
 14 15  1  0  0  0  0
 14 13  1  0  0  0  0
 15 16  1  1  0  0  0
 15 13  1  0  0  0  0
 17 23  1  1  0  0  0
 17 15  1  0  0  0  0
 19 20  1  0  0  0  0
 21 20  1  6  0  0  0
 21 17  1  0  0  0  0
 22 18  1  6  0  0  0
 22 21  1  0  0  0  0
 22 17  1  0  0  0  0
 24 18  1  0  0  0  0
 24 19  1  0  0  0  0
 26 28  1  0  0  0  0
 27 31  1  0  0  0  0
 28 34  1  0  0  0  0
 29 31  2  0  0  0  0
 29 26  1  0  0  0  0
 30 29  1  0  0  0  0
 31 34  1  0  0  0  0
 32 33  1  0  0  0  0
 32 30  2  0  0  0  0
 33 27  2  0  0  0  0
 34 25  1  1  0  0  0
M  END
>  <MODEL>
9

>  <REMARK>
 VINA RESULT:      -7.1      2.550      5.934
  Name = 
  6 active torsions:
  status: ('A' for Active; 'I' for Inactive)
    1  A    between atoms: C_3  and  C_22
    2  A    between atoms: C_7  and  C_18
    3  A    between atoms: N_17  and  C_18
    4  A    between atoms: N_17  and  C_20
    5  A    between atoms: C_18  and  N_19
    6  A    between atoms: N_19  and  C_32
                            x       y       z     vdW  Elec       q    Type
                         _______ _______ _______ _____ _____    ______ ____

>  <TORSDO>
F 6

$$$$
