=
 OpenBabel11042419373D

 63 69  0  0  1  0  0  0  0  0999 V2000
  188.5960  173.9050  140.2920 C   0  0  1  0  0  3  0  0  0  0  0  0
  189.1710  174.0110  138.8700 C   0  0  1  0  0  3  0  0  0  0  0  0
  190.3250  170.8880  137.9510 O   0  0  0  0  0  0  0  0  0  0  0  0
  189.8480  171.8110  138.9290 C   0  0  1  0  0  3  0  0  0  0  0  0
  189.6450  174.6130  142.3460 N   0  0  0  0  0  0  0  0  0  0  0  0
  189.6250  173.6120  141.3310 C   0  0  0  0  0  0  0  0  0  0  0  0
  190.3400  171.4570  140.3190 C   0  0  0  0  0  0  0  0  0  0  0  0
  190.7690  169.1820  139.5120 C   0  0  0  0  0  3  0  0  0  0  0  0
  190.2330  173.1180  138.5790 O   0  0  0  0  0  0  0  0  0  0  0  0
  188.0160  175.2510  140.7230 C   0  0  0  0  0  2  0  0  0  0  0  0
  190.5350  169.5380  138.2490 C   0  0  0  0  0  0  0  0  0  0  0  0
  191.1770  169.8340  141.8540 O   0  0  0  0  0  1  0  0  0  0  0  0
  190.7540  170.2020  140.5760 C   0  0  0  0  0  0  0  0  0  0  0  0
  190.3320  172.4760  141.3900 C   0  0  0  0  0  3  0  0  0  0  0  0
  188.6010  175.5880  142.0990 C   0  0  1  0  0  3  0  0  0  0  0  0
  191.2200  176.7470  146.1440 O   0  0  0  0  0  0  0  0  0  0  0  0
  191.0320  175.4430  146.6080 C   0  0  0  0  0  2  0  0  0  0  0  0
  189.8540  174.7920  145.8840 C   0  0  0  0  0  2  0  0  0  0  0  0
  192.1930  176.3080  143.9490 C   0  0  0  0  0  2  0  0  0  0  0  0
  190.8210  176.1790  143.6710 O   0  0  0  0  0  0  0  0  0  0  0  0
  190.6260  174.8090  143.4210 C   0  0  1  0  0  3  0  0  0  0  0  0
  192.4150  176.7410  145.4050 C   0  0  0  0  0  2  0  0  0  0  0  0
  190.3510  173.9720  144.6850 C   0  0  0  0  0  2  0  0  0  0  0  0
  190.5800  168.5020  137.1650 C   0  0  0  0  0  2  0  0  0  0  0  0
  191.7010  168.6840  136.1780 C   0  0  0  0  0  0  0  0  0  0  0  0
  191.5590  168.3800  134.9610 O   0  0  0  0  0  0  0  0  0  0  0  0
  193.0050  169.1980  136.6270 C   0  0  0  0  0  0  0  0  0  0  0  0
  193.3540  170.5780  136.4220 N   0  0  0  0  0  2  0  0  0  0  0  0
  193.8060  168.4170  137.2100 O   0  0  0  0  0  0  0  0  0  0  0  0
  194.6160  171.1180  136.7370 N   0  0  0  0  0  2  0  0  0  0  0  0
  194.7670  172.4000  136.0570 C   0  0  2  0  0  3  0  0  0  0  0  0
  195.7630  173.2410  136.7540 N   0  0  0  0  0  0  0  0  0  0  0  0
  195.3600  175.1410  138.5860 O   0  0  0  0  0  1  0  0  0  0  0  0
  197.1440  172.4850  138.6660 C   0  0  1  0  0  3  0  0  0  0  0  0
  195.0840  173.6840  138.2900 P   0  0  1  0  0  0  0  0  0  0  0  0
  196.9620  172.4880  137.1340 C   0  0  0  0  0  2  0  0  0  0  0  0
  193.4220  173.3850  138.3720 O   0  0  0  0  0  0  0  0  0  0  0  0
  195.9370  172.7110  139.3560 O   0  0  0  0  0  0  0  0  0  0  0  0
  197.8770  170.9110  139.1920 S   0  0  0  0  0  0  0  0  0  0  0  0
  196.2720  169.7650  141.0650 C   0  0  0  0  0  1  0  0  0  0  0  0
  197.0920  171.0220  140.8280 C   0  0  0  0  0  2  0  0  0  0  0  0
  193.3980  173.0580  135.8100 C   0  0  0  0  0  2  0  0  0  0  0  0
  193.5180  174.2280  134.8470 C   0  0  0  0  0  2  0  0  0  0  0  0
  192.5860  175.3630  135.2600 C   0  0  1  0  0  3  0  0  0  0  0  0
  191.5190  174.8440  136.1000 N   0  0  0  0  0  1  0  0  0  0  0  0
  193.3330  176.4920  135.9760 C   0  0  0  0  0  2  0  0  0  0  0  0
  194.7200  176.5650  135.5300 N   0  0  0  0  0  1  0  0  0  0  0  0
  188.1000  174.0290  137.7730 C   0  0  0  0  0  2  0  0  0  0  0  0
  187.5300  175.3220  137.6130 O   0  0  0  0  0  0  0  0  0  0  0  0
  188.3960  176.0750  135.4920 O   0  0  0  0  0  0  0  0  0  0  0  0
  187.3250  175.9090  136.3620 C   0  0  0  0  0  0  0  0  0  0  0  0
  186.1750  176.2860  136.0070 O   0  0  0  0  0  1  0  0  0  0  0  0
  187.5540  175.4540  143.1170 N   0  0  0  0  0  2  0  0  0  0  0  0
  187.0980  176.7530  143.6200 C   0  0  2  0  0  0  0  0  0  0  0  0
  185.9870  177.9230  147.1310 C   0  0  0  0  0  2  0  0  0  0  0  0
  184.8140  177.7540  143.6710 C   0  0  0  0  0  3  0  0  0  0  0  0
  188.0570  177.8540  143.1680 C   0  0  0  0  0  1  0  0  0  0  0  0
  184.0280  178.6410  145.8950 C   0  0  0  0  0  2  0  0  0  0  0  0
  184.6730  178.6800  147.2760 C   0  0  0  0  0  2  0  0  0  0  0  0
  186.9990  176.7350  145.1580 C   0  0  0  0  0  2  0  0  0  0  0  0
  185.7410  177.0370  143.0220 C   0  0  0  0  0  3  0  0  0  0  0  0
  185.0860  178.2590  144.9860 N   0  0  0  0  0  0  0  0  0  0  0  0
  186.3460  178.0270  145.6650 C   0  0  1  0  0  3  0  0  0  0  0  0
  1 10  1  1  0  0  0
  1  6  1  0  0  0  0
  2 48  1  6  0  0  0
  2  1  1  0  0  0  0
  3 11  1  0  0  0  0
  4  3  1  6  0  0  0
  4  7  1  0  0  0  0
  6 14  2  0  0  0  0
  6  5  1  0  0  0  0
  7 13  2  0  0  0  0
  7 14  1  0  0  0  0
  8 13  1  0  0  0  0
  9  2  1  0  0  0  0
  9  4  1  0  0  0  0
 10 15  1  0  0  0  0
 11  8  2  0  0  0  0
 13 12  1  0  0  0  0
 15  5  1  0  0  0  0
 15 53  1  1  0  0  0
 16 17  1  0  0  0  0
 18 17  1  0  0  0  0
 19 22  1  0  0  0  0
 20 19  1  0  0  0  0
 21  5  1  6  0  0  0
 21 20  1  0  0  0  0
 21 23  1  0  0  0  0
 22 16  1  0  0  0  0
 23 18  1  0  0  0  0
 24 11  1  0  0  0  0
 25 27  1  0  0  0  0
 25 24  1  0  0  0  0
 26 25  2  0  0  0  0
 27 29  2  0  0  0  0
 28 27  1  0  0  0  0
 28 30  1  0  0  0  0
 31 42  1  1  0  0  0
 31 30  1  0  0  0  0
 31 32  1  0  0  0  0
 32 36  1  0  0  0  0
 32 35  1  0  0  0  0
 34 39  1  1  0  0  0
 34 38  1  0  0  0  0
 35 37  2  1  0  0  0
 35 33  1  0  0  0  0
 35 38  1  0  0  0  0
 36 34  1  0  0  0  0
 39 41  1  0  0  0  0
 41 40  1  0  0  0  0
 43 44  1  0  0  0  0
 43 42  1  0  0  0  0
 44 46  1  0  0  0  0
 44 45  1  1  0  0  0
 47 46  1  0  0  0  0
 49 48  1  0  0  0  0
 50 51  2  0  0  0  0
 51 49  1  0  0  0  0
 52 51  1  0  0  0  0
 53 54  1  0  0  0  0
 54 57  1  6  0  0  0
 54 60  1  0  0  0  0
 55 59  1  0  0  0  0
 56 62  1  0  0  0  0
 58 59  1  0  0  0  0
 61 54  1  0  0  0  0
 61 56  2  0  0  0  0
 62 63  1  0  0  0  0
 62 58  1  0  0  0  0
 63 60  1  6  0  0  0
 63 55  1  0  0  0  0
M  END
>  <MODEL>
1

>  <REMARK>
 VINA RESULT:      -6.4      0.000      0.000
  Name = 
  18 active torsions:
  status: ('A' for Active; 'I' for Inactive)
    1  A    between atoms: C_3  and  C_11
    2  A    between atoms: S_5  and  C_28
    3  A    between atoms: S_5  and  C_50
    4  A    between atoms: C_7  and  N_9
    5  A    between atoms: C_8  and  C_36
    6  A    between atoms: C_8  and  C_63
    7  A    between atoms: N_9  and  C_59
    8  A    between atoms: C_11  and  O_13
    9  A    between atoms: N_12  and  C_43
   10  A    between atoms: O_13  and  C_38
   11  A    between atoms: N_16  and  C_46
   12  A    between atoms: C_18  and  C_29
   13  A    between atoms: C_18  and  C_45
   14  A    between atoms: C_19  and  C_29
   15  A    between atoms: N_32  and  N_56
   16  A    between atoms: C_43  and  C_47
   17  A    between atoms: C_43  and  N_56
   18  A    between atoms: C_47  and  C_63
                            x       y       z     vdW  Elec       q    Type
                         _______ _______ _______ _____ _____    ______ ____

>  <TORSDO>
F 18

$$$$
=
 OpenBabel11042419373D

 63 69  0  0  1  0  0  0  0  0999 V2000
  189.9500  173.6390  143.0000 C   0  0  1  0  0  3  0  0  0  0  0  0
  189.8660  172.4420  143.9610 C   0  0  1  0  0  3  0  0  0  0  0  0
  192.9820  170.9560  144.0870 O   0  0  0  0  0  0  0  0  0  0  0  0
  192.0470  171.8600  143.5010 C   0  0  1  0  0  3  0  0  0  0  0  0
  189.1630  173.7380  140.7220 N   0  0  0  0  0  0  0  0  0  0  0  0
  190.1900  173.2490  141.5800 C   0  0  0  0  0  0  0  0  0  0  0  0
  192.3510  172.1090  142.0370 C   0  0  0  0  0  0  0  0  0  0  0  0
  194.6350  171.3180  142.4500 C   0  0  0  0  0  3  0  0  0  0  0  0
  190.7400  171.3650  143.6630 O   0  0  0  0  0  0  0  0  0  0  0  0
  188.6080  174.3680  142.9560 C   0  0  0  0  0  2  0  0  0  0  0  0
  194.3180  170.9060  143.6770 C   0  0  0  0  0  0  0  0  0  0  0  0
  193.9120  172.1170  140.2330 O   0  0  0  0  0  1  0  0  0  0  0  0
  193.5880  171.8630  141.5670 C   0  0  0  0  0  0  0  0  0  0  0  0
  191.3060  172.6500  141.1430 C   0  0  0  0  0  3  0  0  0  0  0  0
  188.2210  174.5360  141.4820 C   0  0  1  0  0  3  0  0  0  0  0  0
  190.5430  172.9500  136.3700 O   0  0  0  0  0  0  0  0  0  0  0  0
  189.9700  171.7220  136.7140 C   0  0  0  0  0  2  0  0  0  0  0  0
  190.1680  171.4490  138.2040 C   0  0  0  0  0  2  0  0  0  0  0  0
  188.9300  174.4920  137.3580 C   0  0  0  0  0  2  0  0  0  0  0  0
  189.7320  174.1860  138.4710 O   0  0  0  0  0  0  0  0  0  0  0  0
  188.9130  173.4120  139.3110 C   0  0  1  0  0  3  0  0  0  0  0  0
  189.4790  173.8240  136.0900 C   0  0  0  0  0  2  0  0  0  0  0  0
  188.9370  171.9050  138.9990 C   0  0  0  0  0  2  0  0  0  0  0  0
  195.3800  170.3260  144.5640 C   0  0  0  0  0  2  0  0  0  0  0  0
  196.2740  171.3470  145.2130 C   0  0  0  0  0  0  0  0  0  0  0  0
  196.5070  171.3210  146.4530 O   0  0  0  0  0  0  0  0  0  0  0  0
  196.8760  172.4210  144.4070 C   0  0  0  0  0  0  0  0  0  0  0  0
  196.3130  173.7440  144.4200 N   0  0  0  0  0  2  0  0  0  0  0  0
  197.9030  172.1710  143.7170 O   0  0  0  0  0  0  0  0  0  0  0  0
  196.7740  174.7960  143.6040 N   0  0  0  0  0  2  0  0  0  0  0  0
  195.7430  175.8260  143.5300 C   0  0  2  0  0  3  0  0  0  0  0  0
  194.6230  175.5020  144.4390 N   0  0  0  0  0  0  0  0  0  0  0  0
  194.1510  176.4140  146.9030 O   0  0  0  0  0  1  0  0  0  0  0  0
  192.3480  176.4630  144.2600 C   0  0  1  0  0  3  0  0  0  0  0  0
  194.3880  176.8710  145.4810 P   0  0  1  0  0  0  0  0  0  0  0  0
  193.3420  175.4060  143.7340 C   0  0  0  0  0  2  0  0  0  0  0  0
  195.6880  177.9510  145.4340 O   0  0  0  0  0  0  0  0  0  0  0  0
  192.9920  177.5610  144.8610 O   0  0  0  0  0  0  0  0  0  0  0  0
  191.2840  177.0300  142.9030 S   0  0  0  0  0  0  0  0  0  0  0  0
  189.5100  177.7560  144.8330 C   0  0  0  0  0  1  0  0  0  0  0  0
  190.5770  178.3530  143.9300 C   0  0  0  0  0  2  0  0  0  0  0  0
  195.3540  176.1120  142.0700 C   0  0  0  0  0  2  0  0  0  0  0  0
  196.4950  176.7810  141.3200 C   0  0  0  0  0  2  0  0  0  0  0  0
  196.8300  176.0060  140.0490 C   0  0  1  0  0  3  0  0  0  0  0  0
  197.9410  175.1030  140.3000 N   0  0  0  0  0  1  0  0  0  0  0  0
  195.6230  175.2360  139.5060 C   0  0  0  0  0  2  0  0  0  0  0  0
  196.0500  174.1280  138.6590 N   0  0  0  0  0  1  0  0  0  0  0  0
  189.9040  172.8380  145.4420 C   0  0  0  0  0  2  0  0  0  0  0  0
  190.2580  174.2030  145.6150 O   0  0  0  0  0  0  0  0  0  0  0  0
  188.9280  174.8170  147.5290 O   0  0  0  0  0  1  0  0  0  0  0  0
  190.1310  174.8700  146.8350 C   0  0  0  0  0  0  0  0  0  0  0  0
  191.0980  175.5170  147.3210 O   0  0  0  0  0  0  0  0  0  0  0  0
  188.3550  175.9460  141.1040 N   0  0  0  0  0  2  0  0  0  0  0  0
  187.1450  176.7190  141.4000 C   0  0  2  0  0  0  0  0  0  0  0  0
  186.5760  179.9760  143.3980 C   0  0  0  0  0  2  0  0  0  0  0  0
  185.4940  176.4860  143.2550 C   0  0  0  0  0  3  0  0  0  0  0  0
  186.3440  176.9470  140.1170 C   0  0  0  0  0  1  0  0  0  0  0  0
  184.9740  178.5770  144.5630 C   0  0  0  0  0  2  0  0  0  0  0  0
  185.4900  180.0080  144.4660 C   0  0  0  0  0  2  0  0  0  0  0  0
  187.5070  178.0700  142.0460 C   0  0  0  0  0  2  0  0  0  0  0  0
  186.2930  175.9090  142.3470 C   0  0  0  0  0  3  0  0  0  0  0  0
  185.4470  177.9150  143.3660 N   0  0  0  0  0  0  0  0  0  0  0  0
  186.2390  178.7890  142.5230 C   0  0  1  0  0  3  0  0  0  0  0  0
  1 10  1  6  0  0  0
  1  2  1  0  0  0  0
  2 48  1  1  0  0  0
  4  7  1  6  0  0  0
  4  9  1  0  0  0  0
  4  3  1  0  0  0  0
  5 15  1  0  0  0  0
  5  6  1  0  0  0  0
  6  1  1  0  0  0  0
  8 11  2  0  0  0  0
  9  2  1  0  0  0  0
 11  3  1  0  0  0  0
 11 24  1  0  0  0  0
 12 13  1  0  0  0  0
 13  7  2  0  0  0  0
 13  8  1  0  0  0  0
 14  6  2  0  0  0  0
 14  7  1  0  0  0  0
 15 53  1  6  0  0  0
 15 10  1  0  0  0  0
 16 17  1  0  0  0  0
 17 18  1  0  0  0  0
 18 23  1  0  0  0  0
 19 20  1  0  0  0  0
 20 21  1  0  0  0  0
 21 23  1  1  0  0  0
 21  5  1  0  0  0  0
 22 16  1  0  0  0  0
 22 19  1  0  0  0  0
 24 25  1  0  0  0  0
 25 26  2  0  0  0  0
 27 28  1  0  0  0  0
 27 25  1  0  0  0  0
 29 27  2  0  0  0  0
 30 28  1  0  0  0  0
 31 42  1  6  0  0  0
 31 30  1  0  0  0  0
 31 32  1  0  0  0  0
 32 35  1  0  0  0  0
 34 39  1  6  0  0  0
 34 38  1  0  0  0  0
 35 37  2  6  0  0  0
 35 33  1  0  0  0  0
 36 34  1  0  0  0  0
 36 32  1  0  0  0  0
 38 35  1  0  0  0  0
 39 41  1  0  0  0  0
 41 40  1  0  0  0  0
 43 42  1  0  0  0  0
 44 45  1  1  0  0  0
 44 43  1  0  0  0  0
 46 44  1  0  0  0  0
 47 46  1  0  0  0  0
 48 49  1  0  0  0  0
 49 51  1  0  0  0  0
 51 52  2  0  0  0  0
 51 50  1  0  0  0  0
 53 54  1  0  0  0  0
 54 57  1  6  0  0  0
 54 60  1  0  0  0  0
 54 61  1  0  0  0  0
 55 59  1  0  0  0  0
 56 62  1  0  0  0  0
 59 58  1  0  0  0  0
 61 56  2  0  0  0  0
 62 58  1  0  0  0  0
 63 60  1  1  0  0  0
 63 62  1  0  0  0  0
 63 55  1  0  0  0  0
M  END
>  <MODEL>
2

>  <REMARK>
 VINA RESULT:      -6.3      3.386      7.150
  Name = 
  18 active torsions:
  status: ('A' for Active; 'I' for Inactive)
    1  A    between atoms: C_3  and  C_11
    2  A    between atoms: S_5  and  C_28
    3  A    between atoms: S_5  and  C_50
    4  A    between atoms: C_7  and  N_9
    5  A    between atoms: C_8  and  C_36
    6  A    between atoms: C_8  and  C_63
    7  A    between atoms: N_9  and  C_59
    8  A    between atoms: C_11  and  O_13
    9  A    between atoms: N_12  and  C_43
   10  A    between atoms: O_13  and  C_38
   11  A    between atoms: N_16  and  C_46
   12  A    between atoms: C_18  and  C_29
   13  A    between atoms: C_18  and  C_45
   14  A    between atoms: C_19  and  C_29
   15  A    between atoms: N_32  and  N_56
   16  A    between atoms: C_43  and  C_47
   17  A    between atoms: C_43  and  N_56
   18  A    between atoms: C_47  and  C_63
                            x       y       z     vdW  Elec       q    Type
                         _______ _______ _______ _____ _____    ______ ____

>  <TORSDO>
F 18

$$$$
=
 OpenBabel11042419373D

 63 69  0  0  1  0  0  0  0  0999 V2000
  189.6150  173.4790  142.5500 C   0  0  1  0  0  3  0  0  0  0  0  0
  189.3440  172.1760  143.3190 C   0  0  1  0  0  3  0  0  0  0  0  0
  191.9200  169.9790  142.6390 O   0  0  0  0  0  0  0  0  0  0  0  0
  191.1950  171.1790  142.3790 C   0  0  1  0  0  3  0  0  0  0  0  0
  188.5740  174.2060  140.4990 N   0  0  0  0  0  0  0  0  0  0  0  0
  189.5380  173.3240  141.0680 C   0  0  0  0  0  0  0  0  0  0  0  0
  191.3470  171.6250  140.9380 C   0  0  0  0  0  0  0  0  0  0  0  0
  193.3620  170.2360  140.7950 C   0  0  0  0  0  3  0  0  0  0  0  0
  189.8390  170.9970  142.7050 O   0  0  0  0  0  0  0  0  0  0  0  0
  188.5320  174.5080  142.8660 C   0  0  0  0  0  2  0  0  0  0  0  0
  193.1210  169.6840  141.9840 C   0  0  0  0  0  0  0  0  0  0  0  0
  192.5820  171.6000  138.8960 O   0  0  0  0  0  1  0  0  0  0  0  0
  192.3910  171.1790  140.2140 C   0  0  0  0  0  0  0  0  0  0  0  0
  190.3750  172.5670  140.3460 C   0  0  0  0  0  3  0  0  0  0  0  0
  188.0020  175.0470  141.5320 C   0  0  1  0  0  3  0  0  0  0  0  0
  188.5810  175.6970  136.1120 O   0  0  0  0  0  0  0  0  0  0  0  0
  188.8330  174.3320  135.9490 C   0  0  0  0  0  2  0  0  0  0  0  0
  189.6350  173.8000  137.1370 C   0  0  0  0  0  2  0  0  0  0  0  0
  186.8720  175.6340  137.8530 C   0  0  0  0  0  2  0  0  0  0  0  0
  188.0460  175.5410  138.6200 O   0  0  0  0  0  0  0  0  0  0  0  0
  188.0490  174.2300  139.1270 C   0  0  1  0  0  3  0  0  0  0  0  0
  187.2050  175.8220  136.3670 C   0  0  0  0  0  2  0  0  0  0  0  0
  188.6940  173.1940  138.1880 C   0  0  0  0  0  2  0  0  0  0  0  0
  194.0970  168.7020  142.5600 C   0  0  0  0  0  2  0  0  0  0  0  0
  194.7940  169.1760  143.8060 C   0  0  0  0  0  0  0  0  0  0  0  0
  194.3300  168.9260  144.9530 O   0  0  0  0  0  0  0  0  0  0  0  0
  196.0270  169.9730  143.7050 C   0  0  0  0  0  0  0  0  0  0  0  0
  195.9960  171.2950  143.1410 N   0  0  0  0  0  2  0  0  0  0  0  0
  197.1100  169.4880  144.1350 O   0  0  0  0  0  0  0  0  0  0  0  0
  197.1460  172.0780  142.9240 N   0  0  0  0  0  2  0  0  0  0  0  0
  196.7700  173.2850  142.1950 C   0  0  2  0  0  3  0  0  0  0  0  0
  196.5250  174.4000  143.1340 N   0  0  0  0  0  0  0  0  0  0  0  0
  197.6580  176.8160  143.1940 O   0  0  0  0  0  1  0  0  0  0  0  0
  194.5870  175.9370  143.0130 C   0  0  1  0  0  3  0  0  0  0  0  0
  196.8890  175.8750  142.2940 P   0  0  1  0  0  0  0  0  0  0  0  0
  195.1050  174.5540  143.4610 C   0  0  0  0  0  2  0  0  0  0  0  0
  197.7540  175.6090  140.8660 O   0  0  0  0  0  0  0  0  0  0  0  0
  195.3650  176.4990  141.9820 O   0  0  0  0  0  0  0  0  0  0  0  0
  192.8560  175.8000  142.4840 S   0  0  0  0  0  0  0  0  0  0  0  0
  191.3700  177.9620  143.2010 C   0  0  0  0  0  1  0  0  0  0  0  0
  192.3010  176.9210  143.8030 C   0  0  0  0  0  2  0  0  0  0  0  0
  195.6360  172.9940  141.1970 C   0  0  0  0  0  2  0  0  0  0  0  0
  196.1880  172.6960  139.8120 C   0  0  0  0  0  2  0  0  0  0  0  0
  195.4220  173.4780  138.7490 C   0  0  1  0  0  3  0  0  0  0  0  0
  194.6370  174.5270  139.3780 N   0  0  0  0  0  1  0  0  0  0  0  0
  196.3510  174.0660  137.6830 C   0  0  0  0  0  2  0  0  0  0  0  0
  195.7850  175.2840  137.1130 N   0  0  0  0  0  1  0  0  0  0  0  0
  189.6950  172.2560  144.8090 C   0  0  0  0  0  2  0  0  0  0  0  0
  190.3460  173.4780  145.1330 O   0  0  0  0  0  0  0  0  0  0  0  0
  190.2790  175.6780  146.1160 O   0  0  0  0  0  0  0  0  0  0  0  0
  189.8760  174.3480  146.1190 C   0  0  0  0  0  0  0  0  0  0  0  0
  189.0820  173.9440  147.0120 O   0  0  0  0  0  1  0  0  0  0  0  0
  188.4620  176.4280  141.3510 N   0  0  0  0  0  2  0  0  0  0  0  0
  187.6580  177.3860  142.1150 C   0  0  2  0  0  0  0  0  0  0  0  0
  187.1260  177.8730  145.9110 C   0  0  0  0  0  2  0  0  0  0  0  0
  185.2670  177.2900  142.8170 C   0  0  0  0  0  3  0  0  0  0  0  0
  187.9170  178.8060  141.6100 C   0  0  0  0  0  1  0  0  0  0  0  0
  184.7970  177.6930  145.2600 C   0  0  0  0  0  2  0  0  0  0  0  0
  185.7050  177.9780  146.4510 C   0  0  0  0  0  2  0  0  0  0  0  0
  187.9830  177.2910  143.6190 C   0  0  0  0  0  2  0  0  0  0  0  0
  186.2010  177.0640  141.8840 C   0  0  0  0  0  3  0  0  0  0  0  0
  185.6390  177.8320  144.0920 N   0  0  0  0  0  0  0  0  0  0  0  0
  187.0110  178.1570  144.4300 C   0  0  1  0  0  3  0  0  0  0  0  0
  1 10  1  1  0  0  0
  1  2  1  0  0  0  0
  2 48  1  1  0  0  0
  4  7  1  6  0  0  0
  4  3  1  0  0  0  0
  4  9  1  0  0  0  0
  5  6  1  0  0  0  0
  5 15  1  0  0  0  0
  6  1  1  0  0  0  0
  8 11  2  0  0  0  0
  9  2  1  0  0  0  0
 11 24  1  0  0  0  0
 11  3  1  0  0  0  0
 12 13  1  0  0  0  0
 13  8  1  0  0  0  0
 13  7  2  0  0  0  0
 14  7  1  0  0  0  0
 14  6  2  0  0  0  0
 15 53  1  6  0  0  0
 15 10  1  0  0  0  0
 16 22  1  0  0  0  0
 17 16  1  0  0  0  0
 17 18  1  0  0  0  0
 18 23  1  0  0  0  0
 19 20  1  0  0  0  0
 20 21  1  0  0  0  0
 21 23  1  6  0  0  0
 21  5  1  0  0  0  0
 22 19  1  0  0  0  0
 24 25  1  0  0  0  0
 25 26  2  0  0  0  0
 27 25  1  0  0  0  0
 27 29  2  0  0  0  0
 28 27  1  0  0  0  0
 30 28  1  0  0  0  0
 31 42  1  1  0  0  0
 31 30  1  0  0  0  0
 31 32  1  0  0  0  0
 32 36  1  0  0  0  0
 34 39  1  6  0  0  0
 34 36  1  0  0  0  0
 35 37  2  6  0  0  0
 35 32  1  0  0  0  0
 35 33  1  0  0  0  0
 38 35  1  0  0  0  0
 38 34  1  0  0  0  0
 39 41  1  0  0  0  0
 40 41  1  0  0  0  0
 43 42  1  0  0  0  0
 44 45  1  1  0  0  0
 44 43  1  0  0  0  0
 46 44  1  0  0  0  0
 47 46  1  0  0  0  0
 48 49  1  0  0  0  0
 49 51  1  0  0  0  0
 50 51  2  0  0  0  0
 51 52  1  0  0  0  0
 53 54  1  0  0  0  0
 54 57  1  6  0  0  0
 54 60  1  0  0  0  0
 55 59  1  0  0  0  0
 56 62  1  0  0  0  0
 58 59  1  0  0  0  0
 61 54  1  0  0  0  0
 61 56  2  0  0  0  0
 62 63  1  0  0  0  0
 62 58  1  0  0  0  0
 63 60  1  6  0  0  0
 63 55  1  0  0  0  0
M  END
>  <MODEL>
3

>  <REMARK>
 VINA RESULT:      -6.1      2.853      6.060
  Name = 
  18 active torsions:
  status: ('A' for Active; 'I' for Inactive)
    1  A    between atoms: C_3  and  C_11
    2  A    between atoms: S_5  and  C_28
    3  A    between atoms: S_5  and  C_50
    4  A    between atoms: C_7  and  N_9
    5  A    between atoms: C_8  and  C_36
    6  A    between atoms: C_8  and  C_63
    7  A    between atoms: N_9  and  C_59
    8  A    between atoms: C_11  and  O_13
    9  A    between atoms: N_12  and  C_43
   10  A    between atoms: O_13  and  C_38
   11  A    between atoms: N_16  and  C_46
   12  A    between atoms: C_18  and  C_29
   13  A    between atoms: C_18  and  C_45
   14  A    between atoms: C_19  and  C_29
   15  A    between atoms: N_32  and  N_56
   16  A    between atoms: C_43  and  C_47
   17  A    between atoms: C_43  and  N_56
   18  A    between atoms: C_47  and  C_63
                            x       y       z     vdW  Elec       q    Type
                         _______ _______ _______ _____ _____    ______ ____

>  <TORSDO>
F 18

$$$$
=
 OpenBabel11042419373D

 63 69  0  0  1  0  0  0  0  0999 V2000
  190.8810  173.6640  141.1040 C   0  0  1  0  0  3  0  0  0  0  0  0
  190.9700  172.1400  141.2870 C   0  0  1  0  0  3  0  0  0  0  0  0
  190.5960  170.6690  138.1850 O   0  0  0  0  0  0  0  0  0  0  0  0
  190.5230  171.7980  139.0540 C   0  0  1  0  0  3  0  0  0  0  0  0
  188.9930  175.0840  141.5880 N   0  0  0  0  0  0  0  0  0  0  0  0
  189.5340  174.1360  140.6720 C   0  0  0  0  0  0  0  0  0  0  0  0
  189.5120  172.8160  138.5660 C   0  0  0  0  0  0  0  0  0  0  0  0
  189.6680  171.8010  136.3400 C   0  0  0  0  0  3  0  0  0  0  0  0
  190.2170  171.3750  140.3600 O   0  0  0  0  0  0  0  0  0  0  0  0
  191.1020  174.3650  142.4430 C   0  0  0  0  0  2  0  0  0  0  0  0
  190.3930  170.7840  136.8050 C   0  0  0  0  0  0  0  0  0  0  0  0
  188.2360  173.7570  136.7830 O   0  0  0  0  0  1  0  0  0  0  0  0
  189.1370  172.8100  137.2730 C   0  0  0  0  0  0  0  0  0  0  0  0
  188.9700  173.8280  139.4960 C   0  0  0  0  0  3  0  0  0  0  0  0
  189.9540  175.3620  142.6380 C   0  0  1  0  0  3  0  0  0  0  0  0
  185.9390  178.4430  142.5170 O   0  0  0  0  0  0  0  0  0  0  0  0
  185.7760  178.2830  141.1390 C   0  0  0  0  0  2  0  0  0  0  0  0
  187.1030  177.8810  140.4950 C   0  0  0  0  0  2  0  0  0  0  0  0
  186.1280  176.1140  143.2220 C   0  0  0  0  0  2  0  0  0  0  0  0
  187.4470  176.3840  142.8180 O   0  0  0  0  0  0  0  0  0  0  0  0
  187.6310  175.6330  141.6440 C   0  0  1  0  0  3  0  0  0  0  0  0
  185.2600  177.3760  143.1280 C   0  0  0  0  0  2  0  0  0  0  0  0
  187.1900  176.3550  140.3580 C   0  0  0  0  0  2  0  0  0  0  0  0
  190.9080  169.7430  135.8570 C   0  0  0  0  0  2  0  0  0  0  0  0
  192.3870  169.4870  135.9590 C   0  0  0  0  0  0  0  0  0  0  0  0
  192.8350  168.3680  136.3330 O   0  0  0  0  0  0  0  0  0  0  0  0
  193.3460  170.5590  135.6470 C   0  0  0  0  0  0  0  0  0  0  0  0
  194.6940  170.4980  136.1440 N   0  0  0  0  0  2  0  0  0  0  0  0
  192.9760  171.5250  134.9240 O   0  0  0  0  0  0  0  0  0  0  0  0
  195.6370  171.5290  135.9680 N   0  0  0  0  0  2  0  0  0  0  0  0
  196.0520  172.0220  137.2780 C   0  0  2  0  0  3  0  0  0  0  0  0
  196.0890  173.4990  137.2850 N   0  0  0  0  0  0  0  0  0  0  0  0
  194.0500  175.2220  137.3570 O   0  0  0  0  0  0  0  0  0  0  0  0
  196.5850  174.8810  139.2800 C   0  0  1  0  0  3  0  0  0  0  0  0
  194.6540  174.0490  138.0950 P   0  0  1  0  0  0  0  0  0  0  0  0
  197.1620  174.0280  138.1300 C   0  0  0  0  0  2  0  0  0  0  0  0
  193.5020  172.8250  138.2720 O   0  0  0  0  0  1  0  0  0  0  0  0
  195.2480  174.5520  139.5800 O   0  0  0  0  0  0  0  0  0  0  0  0
  197.6200  174.6950  140.7590 S   0  0  0  0  0  0  0  0  0  0  0  0
  196.1330  176.8590  141.4680 C   0  0  0  0  0  1  0  0  0  0  0  0
  196.3250  175.3940  141.8270 C   0  0  0  0  0  2  0  0  0  0  0  0
  197.3390  171.3220  137.7460 C   0  0  0  0  0  2  0  0  0  0  0  0
  197.0420  170.2970  138.8290 C   0  0  0  0  0  2  0  0  0  0  0  0
  195.7840  170.6800  139.6020 C   0  0  1  0  0  3  0  0  0  0  0  0
  194.8860  169.5400  139.6790 N   0  0  0  0  0  1  0  0  0  0  0  0
  196.1040  171.2080  141.0030 C   0  0  0  0  0  2  0  0  0  0  0  0
  195.9610  170.1550  142.0020 N   0  0  0  0  0  1  0  0  0  0  0  0
  192.4030  171.6220  141.4520 C   0  0  0  0  0  2  0  0  0  0  0  0
  192.4490  170.4360  142.2350 O   0  0  0  0  0  0  0  0  0  0  0  0
  192.7230  171.6570  144.2950 O   0  0  0  0  0  1  0  0  0  0  0  0
  192.6690  170.4470  143.6140 C   0  0  0  0  0  0  0  0  0  0  0  0
  192.8130  169.3700  144.2530 O   0  0  0  0  0  0  0  0  0  0  0  0
  190.4670  176.7270  142.4850 N   0  0  0  0  0  2  0  0  0  0  0  0
  191.2070  177.1790  143.6670 C   0  0  2  0  0  0  0  0  0  0  0  0
  194.6950  176.2550  145.0480 C   0  0  0  0  0  2  0  0  0  0  0  0
  191.1690  176.3350  146.0140 C   0  0  0  0  0  3  0  0  0  0  0  0
  191.1900  178.7060  143.7420 C   0  0  0  0  0  1  0  0  0  0  0  0
  193.4040  175.7960  147.0480 C   0  0  0  0  0  2  0  0  0  0  0  0
  194.8290  175.8620  146.5130 C   0  0  0  0  0  2  0  0  0  0  0  0
  192.6590  176.6660  143.6280 C   0  0  0  0  0  2  0  0  0  0  0  0
  190.5060  176.6410  144.8910 C   0  0  0  0  0  3  0  0  0  0  0  0
  192.5940  176.4930  146.0730 N   0  0  0  0  0  0  0  0  0  0  0  0
  193.3710  176.9800  144.9500 C   0  0  1  0  0  3  0  0  0  0  0  0
  1  2  1  0  0  0  0
  1 10  1  1  0  0  0
  2 48  1  6  0  0  0
  4  3  1  6  0  0  0
  4  9  1  0  0  0  0
  5 21  1  0  0  0  0
  5 15  1  0  0  0  0
  6  1  1  0  0  0  0
  6  5  1  0  0  0  0
  7  4  1  0  0  0  0
  7 14  1  0  0  0  0
  8 11  2  0  0  0  0
  8 13  1  0  0  0  0
  9  2  1  0  0  0  0
 10 15  1  0  0  0  0
 11  3  1  0  0  0  0
 12 13  1  0  0  0  0
 13  7  2  0  0  0  0
 14  6  2  0  0  0  0
 15 53  1  6  0  0  0
 16 22  1  0  0  0  0
 17 16  1  0  0  0  0
 18 17  1  0  0  0  0
 20 19  1  0  0  0  0
 21 23  1  6  0  0  0
 21 20  1  0  0  0  0
 22 19  1  0  0  0  0
 23 18  1  0  0  0  0
 24 25  1  0  0  0  0
 24 11  1  0  0  0  0
 25 26  2  0  0  0  0
 27 25  1  0  0  0  0
 27 28  1  0  0  0  0
 29 27  2  0  0  0  0
 30 28  1  0  0  0  0
 30 31  1  0  0  0  0
 31 32  1  0  0  0  0
 31 42  1  6  0  0  0
 32 35  1  0  0  0  0
 32 36  1  0  0  0  0
 34 38  1  0  0  0  0
 34 39  1  1  0  0  0
 35 33  2  6  0  0  0
 35 37  1  0  0  0  0
 35 38  1  0  0  0  0
 36 34  1  0  0  0  0
 39 41  1  0  0  0  0
 40 41  1  0  0  0  0
 42 43  1  0  0  0  0
 43 44  1  0  0  0  0
 44 45  1  1  0  0  0
 44 46  1  0  0  0  0
 46 47  1  0  0  0  0
 48 49  1  0  0  0  0
 49 51  1  0  0  0  0
 51 52  2  0  0  0  0
 51 50  1  0  0  0  0
 53 54  1  0  0  0  0
 54 57  1  1  0  0  0
 54 61  1  0  0  0  0
 55 59  1  0  0  0  0
 56 62  1  0  0  0  0
 59 58  1  0  0  0  0
 60 54  1  0  0  0  0
 61 56  2  0  0  0  0
 62 58  1  0  0  0  0
 63 60  1  6  0  0  0
 63 55  1  0  0  0  0
 63 62  1  0  0  0  0
M  END
>  <MODEL>
4

>  <REMARK>
 VINA RESULT:      -6.0      2.469      5.571
  Name = 
  18 active torsions:
  status: ('A' for Active; 'I' for Inactive)
    1  A    between atoms: C_3  and  C_11
    2  A    between atoms: S_5  and  C_28
    3  A    between atoms: S_5  and  C_50
    4  A    between atoms: C_7  and  N_9
    5  A    between atoms: C_8  and  C_36
    6  A    between atoms: C_8  and  C_63
    7  A    between atoms: N_9  and  C_59
    8  A    between atoms: C_11  and  O_13
    9  A    between atoms: N_12  and  C_43
   10  A    between atoms: O_13  and  C_38
   11  A    between atoms: N_16  and  C_46
   12  A    between atoms: C_18  and  C_29
   13  A    between atoms: C_18  and  C_45
   14  A    between atoms: C_19  and  C_29
   15  A    between atoms: N_32  and  N_56
   16  A    between atoms: C_43  and  C_47
   17  A    between atoms: C_43  and  N_56
   18  A    between atoms: C_47  and  C_63
                            x       y       z     vdW  Elec       q    Type
                         _______ _______ _______ _____ _____    ______ ____

>  <TORSDO>
F 18

$$$$
=
 OpenBabel11042419373D

 63 69  0  0  1  0  0  0  0  0999 V2000
  189.6100  174.7490  141.5810 C   0  0  1  0  0  3  0  0  0  0  0  0
  189.2150  173.2760  141.7760 C   0  0  1  0  0  3  0  0  0  0  0  0
  188.9260  171.8260  138.6550 O   0  0  0  0  0  0  0  0  0  0  0  0
  189.0510  172.9690  139.5000 C   0  0  1  0  0  3  0  0  0  0  0  0
  188.1720  176.6790  141.7430 N   0  0  0  0  0  0  0  0  0  0  0  0
  188.5490  175.5710  140.9300 C   0  0  0  0  0  0  0  0  0  0  0  0
  188.4770  174.2120  138.8490 C   0  0  0  0  0  0  0  0  0  0  0  0
  188.6810  173.0870  136.6810 C   0  0  0  0  0  3  0  0  0  0  0  0
  188.4290  172.7180  140.7360 O   0  0  0  0  0  0  0  0  0  0  0  0
  189.8100  175.4210  142.9380 C   0  0  0  0  0  2  0  0  0  0  0  0
  188.9900  171.9270  137.2610 C   0  0  0  0  0  0  0  0  0  0  0  0
  187.8370  175.3940  136.8780 O   0  0  0  0  0  1  0  0  0  0  0  0
  188.3280  174.2510  137.5120 C   0  0  0  0  0  0  0  0  0  0  0  0
  188.1150  175.3830  139.6760 C   0  0  0  0  0  3  0  0  0  0  0  0
  188.9910  176.7170  142.9380 C   0  0  1  0  0  3  0  0  0  0  0  0
  183.6570  177.7150  141.7880 O   0  0  0  0  0  0  0  0  0  0  0  0
  184.1550  178.5730  142.7710 C   0  0  0  0  0  2  0  0  0  0  0  0
  185.3410  177.9240  143.4830 C   0  0  0  0  0  2  0  0  0  0  0  0
  185.3990  177.9140  140.0910 C   0  0  0  0  0  2  0  0  0  0  0  0
  185.9620  176.9520  140.9490 O   0  0  0  0  0  0  0  0  0  0  0  0
  187.0420  177.6010  141.5700 C   0  0  1  0  0  3  0  0  0  0  0  0
  183.9850  178.2910  140.5490 C   0  0  0  0  0  2  0  0  0  0  0  0
  186.6610  178.3770  142.8440 C   0  0  0  0  0  2  0  0  0  0  0  0
  189.3200  170.7360  136.4120 C   0  0  0  0  0  2  0  0  0  0  0  0
  190.5840  170.0220  136.8080 C   0  0  0  0  0  0  0  0  0  0  0  0
  190.5720  168.8060  137.1460 O   0  0  0  0  0  0  0  0  0  0  0  0
  191.8650  170.7470  136.8350 C   0  0  0  0  0  0  0  0  0  0  0  0
  192.5030  171.0520  138.0880 N   0  0  0  0  0  2  0  0  0  0  0  0
  192.4050  171.0820  135.7450 O   0  0  0  0  0  0  0  0  0  0  0  0
  193.6760  171.8240  138.1970 N   0  0  0  0  0  2  0  0  0  0  0  0
  194.2580  171.6190  139.5190 C   0  0  2  0  0  3  0  0  0  0  0  0
  195.1100  172.7680  139.8920 N   0  0  0  0  0  0  0  0  0  0  0  0
  194.5470  175.3750  139.7730 O   0  0  0  0  0  0  0  0  0  0  0  0
  195.4930  173.5360  142.2150 C   0  0  1  0  0  3  0  0  0  0  0  0
  194.0540  174.0680  140.3530 P   0  0  1  0  0  0  0  0  0  0  0  0
  195.8760  172.5220  141.1160 C   0  0  0  0  0  2  0  0  0  0  0  0
  192.4530  173.7980  139.8840 O   0  0  0  0  0  1  0  0  0  0  0  0
  194.2110  174.0860  142.0220 O   0  0  0  0  0  0  0  0  0  0  0  0
  195.5900  172.7400  143.8430 S   0  0  0  0  0  0  0  0  0  0  0  0
  197.1850  173.6460  145.8510 C   0  0  0  0  0  1  0  0  0  0  0  0
  196.9570  173.8210  144.3580 C   0  0  0  0  0  2  0  0  0  0  0  0
  194.9250  170.2360  139.6190 C   0  0  0  0  0  2  0  0  0  0  0  0
  193.9810  169.2160  140.2360 C   0  0  0  0  0  2  0  0  0  0  0  0
  193.2220  169.8270  141.4100 C   0  0  1  0  0  3  0  0  0  0  0  0
  191.8660  169.3060  141.4450 N   0  0  0  0  0  1  0  0  0  0  0  0
  193.9280  169.5790  142.7460 C   0  0  0  0  0  2  0  0  0  0  0  0
  193.0470  169.8870  143.8670 N   0  0  0  0  0  1  0  0  0  0  0  0
  190.3860  172.3730  142.1790 C   0  0  0  0  0  2  0  0  0  0  0  0
  190.2260  171.8550  143.4930 O   0  0  0  0  0  0  0  0  0  0  0  0
  191.8910  172.9460  144.8530 O   0  0  0  0  0  0  0  0  0  0  0  0
  190.5680  172.5770  144.6390 C   0  0  0  0  0  0  0  0  0  0  0  0
  189.6890  172.9050  145.4820 O   0  0  0  0  0  1  0  0  0  0  0  0
  189.9020  177.8650  142.8730 N   0  0  0  0  0  2  0  0  0  0  0  0
  190.7840  177.9420  144.0420 C   0  0  2  0  0  0  0  0  0  0  0  0
  193.8720  175.8730  145.0940 C   0  0  0  0  0  2  0  0  0  0  0  0
  190.5730  176.8930  146.2950 C   0  0  0  0  0  3  0  0  0  0  0  0
  191.2330  179.3860  144.2630 C   0  0  0  0  0  1  0  0  0  0  0  0
  192.5720  175.6010  147.1220 C   0  0  0  0  0  2  0  0  0  0  0  0
  193.9310  175.2980  146.5030 C   0  0  0  0  0  2  0  0  0  0  0  0
  192.0100  177.0270  143.8580 C   0  0  0  0  0  2  0  0  0  0  0  0
  189.9950  177.5050  145.2530 C   0  0  0  0  0  3  0  0  0  0  0  0
  191.9790  176.6110  146.2740 N   0  0  0  0  0  0  0  0  0  0  0  0
  192.8280  176.9660  145.1530 C   0  0  1  0  0  3  0  0  0  0  0  0
  1  2  1  0  0  0  0
  1 10  1  1  0  0  0
  2 48  1  6  0  0  0
  4  3  1  6  0  0  0
  4  9  1  0  0  0  0
  5 15  1  0  0  0  0
  6  1  1  0  0  0  0
  6  5  1  0  0  0  0
  7  4  1  0  0  0  0
  7 14  1  0  0  0  0
  8 11  2  0  0  0  0
  8 13  1  0  0  0  0
  9  2  1  0  0  0  0
 11  3  1  0  0  0  0
 12 13  1  0  0  0  0
 13  7  2  0  0  0  0
 14  6  2  0  0  0  0
 15 53  1  6  0  0  0
 15 10  1  0  0  0  0
 16 17  1  0  0  0  0
 17 18  1  0  0  0  0
 19 22  1  0  0  0  0
 19 20  1  0  0  0  0
 20 21  1  0  0  0  0
 21  5  1  1  0  0  0
 21 23  1  0  0  0  0
 22 16  1  0  0  0  0
 23 18  1  0  0  0  0
 24 25  1  0  0  0  0
 24 11  1  0  0  0  0
 25 27  1  0  0  0  0
 25 26  2  0  0  0  0
 27 28  1  0  0  0  0
 28 30  1  0  0  0  0
 29 27  2  0  0  0  0
 30 31  1  0  0  0  0
 31 42  1  6  0  0  0
 31 32  1  0  0  0  0
 32 35  1  0  0  0  0
 32 36  1  0  0  0  0
 34 39  1  1  0  0  0
 35 33  2  6  0  0  0
 35 38  1  0  0  0  0
 36 34  1  0  0  0  0
 37 35  1  0  0  0  0
 38 34  1  0  0  0  0
 39 41  1  0  0  0  0
 41 40  1  0  0  0  0
 42 43  1  0  0  0  0
 43 44  1  0  0  0  0
 44 45  1  1  0  0  0
 44 46  1  0  0  0  0
 46 47  1  0  0  0  0
 48 49  1  0  0  0  0
 49 51  1  0  0  0  0
 51 50  2  0  0  0  0
 51 52  1  0  0  0  0
 53 54  1  0  0  0  0
 54 57  1  1  0  0  0
 54 61  1  0  0  0  0
 55 63  1  0  0  0  0
 55 59  1  0  0  0  0
 59 58  1  0  0  0  0
 60 54  1  0  0  0  0
 61 56  2  0  0  0  0
 62 56  1  0  0  0  0
 62 58  1  0  0  0  0
 63 60  1  6  0  0  0
 63 62  1  0  0  0  0
M  END
>  <MODEL>
5

>  <REMARK>
 VINA RESULT:      -5.7      2.783      5.842
  Name = 
  18 active torsions:
  status: ('A' for Active; 'I' for Inactive)
    1  A    between atoms: C_3  and  C_11
    2  A    between atoms: S_5  and  C_28
    3  A    between atoms: S_5  and  C_50
    4  A    between atoms: C_7  and  N_9
    5  A    between atoms: C_8  and  C_36
    6  A    between atoms: C_8  and  C_63
    7  A    between atoms: N_9  and  C_59
    8  A    between atoms: C_11  and  O_13
    9  A    between atoms: N_12  and  C_43
   10  A    between atoms: O_13  and  C_38
   11  A    between atoms: N_16  and  C_46
   12  A    between atoms: C_18  and  C_29
   13  A    between atoms: C_18  and  C_45
   14  A    between atoms: C_19  and  C_29
   15  A    between atoms: N_32  and  N_56
   16  A    between atoms: C_43  and  C_47
   17  A    between atoms: C_43  and  N_56
   18  A    between atoms: C_47  and  C_63
                            x       y       z     vdW  Elec       q    Type
                         _______ _______ _______ _____ _____    ______ ____

>  <TORSDO>
F 18

$$$$
=
 OpenBabel11042419373D

 63 69  0  0  1  0  0  0  0  0999 V2000
  189.8150  173.5810  141.1840 C   0  0  1  0  0  3  0  0  0  0  0  0
  189.9110  172.1180  141.6440 C   0  0  1  0  0  3  0  0  0  0  0  0
  192.8580  170.8040  140.4130 O   0  0  0  0  0  0  0  0  0  0  0  0
  191.8590  171.8210  140.4530 C   0  0  1  0  0  3  0  0  0  0  0  0
  188.4730  174.4580  139.3810 N   0  0  0  0  0  0  0  0  0  0  0  0
  189.6560  173.7330  139.7080 C   0  0  0  0  0  0  0  0  0  0  0  0
  191.7900  172.5880  139.1470 C   0  0  0  0  0  0  0  0  0  0  0  0
  194.0500  171.7890  138.6370 C   0  0  0  0  0  3  0  0  0  0  0  0
  190.6110  171.2520  140.7660 O   0  0  0  0  0  0  0  0  0  0  0  0
  188.5540  174.2270  141.7550 C   0  0  0  0  0  2  0  0  0  0  0  0
  194.0380  170.9540  139.6760 C   0  0  0  0  0  0  0  0  0  0  0  0
  192.8280  173.2980  137.1200 O   0  0  0  0  0  1  0  0  0  0  0  0
  192.8460  172.5730  138.3120 C   0  0  0  0  0  0  0  0  0  0  0  0
  190.5830  173.3730  138.8110 C   0  0  0  0  0  3  0  0  0  0  0  0
  187.8090  174.8950  140.5930 C   0  0  1  0  0  3  0  0  0  0  0  0
  187.9190  176.7110  135.3710 O   0  0  0  0  0  0  0  0  0  0  0  0
  188.3630  175.4600  134.9350 C   0  0  0  0  0  2  0  0  0  0  0  0
  189.3240  174.8570  135.9590 C   0  0  0  0  0  2  0  0  0  0  0  0
  186.3770  176.0500  137.1430 C   0  0  0  0  0  2  0  0  0  0  0  0
  187.6070  176.0110  137.8230 O   0  0  0  0  0  0  0  0  0  0  0  0
  187.8480  174.6480  138.0650 C   0  0  1  0  0  3  0  0  0  0  0  0
  186.5640  176.5610  135.7080 C   0  0  0  0  0  2  0  0  0  0  0  0
  188.5700  173.9220  136.9150 C   0  0  0  0  0  2  0  0  0  0  0  0
  195.2560  170.1360  139.9870 C   0  0  0  0  0  2  0  0  0  0  0  0
  196.2780  170.8410  140.8360 C   0  0  0  0  0  0  0  0  0  0  0  0
  197.4770  170.9570  140.4580 O   0  0  0  0  0  0  0  0  0  0  0  0
  195.8990  171.3890  142.1480 C   0  0  0  0  0  0  0  0  0  0  0  0
  196.0510  172.7920  142.4240 N   0  0  0  0  0  2  0  0  0  0  0  0
  195.4220  170.6140  143.0230 O   0  0  0  0  0  0  0  0  0  0  0  0
  195.8000  173.3710  143.6830 N   0  0  0  0  0  2  0  0  0  0  0  0
  195.0570  174.6120  143.4960 C   0  0  2  0  0  3  0  0  0  0  0  0
  194.1660  174.8590  144.6500 N   0  0  0  0  0  0  0  0  0  0  0  0
  194.5030  176.5440  146.6930 O   0  0  0  0  0  1  0  0  0  0  0  0
  192.1240  176.2580  144.5720 C   0  0  1  0  0  3  0  0  0  0  0  0
  194.4470  176.4870  145.1830 P   0  0  1  0  0  0  0  0  0  0  0  0
  192.7510  174.8810  144.2690 C   0  0  0  0  0  2  0  0  0  0  0  0
  195.8600  177.1470  144.5300 O   0  0  0  0  0  0  0  0  0  0  0  0
  193.0820  177.2890  144.6310 O   0  0  0  0  0  0  0  0  0  0  0  0
  190.8660  176.6460  143.3230 S   0  0  0  0  0  0  0  0  0  0  0  0
  188.9140  177.4460  145.0380 C   0  0  0  0  0  1  0  0  0  0  0  0
  190.1650  177.9700  144.3520 C   0  0  0  0  0  2  0  0  0  0  0  0
  194.3820  174.6470  142.1150 C   0  0  0  0  0  2  0  0  0  0  0  0
  194.4990  176.0250  141.4820 C   0  0  0  0  0  2  0  0  0  0  0  0
  195.6840  176.0770  140.5220 C   0  0  1  0  0  3  0  0  0  0  0  0
  196.9080  176.3330  141.2640 N   0  0  0  0  0  1  0  0  0  0  0  0
  195.8150  174.7950  139.6950 C   0  0  0  0  0  2  0  0  0  0  0  0
  195.5690  175.0590  138.2820 N   0  0  0  0  0  1  0  0  0  0  0  0
  190.3540  171.9600  143.1030 C   0  0  0  0  0  2  0  0  0  0  0  0
  190.1180  173.1420  143.8580 O   0  0  0  0  0  0  0  0  0  0  0  0
  189.3120  171.9160  145.7710 O   0  0  0  0  0  0  0  0  0  0  0  0
  189.6920  173.1190  145.1880 C   0  0  0  0  0  0  0  0  0  0  0  0
  189.6520  174.1780  145.8710 O   0  0  0  0  0  1  0  0  0  0  0  0
  187.9250  176.3520  140.7180 N   0  0  0  0  0  2  0  0  0  0  0  0
  186.7490  176.9510  141.3560 C   0  0  2  0  0  0  0  0  0  0  0  0
  186.3500  179.9640  143.7410 C   0  0  0  0  0  2  0  0  0  0  0  0
  185.6180  176.3890  143.5070 C   0  0  0  0  0  3  0  0  0  0  0  0
  185.6490  177.1730  140.3190 C   0  0  0  0  0  1  0  0  0  0  0  0
  185.2180  178.3030  145.0970 C   0  0  0  0  0  2  0  0  0  0  0  0
  185.5510  179.7880  145.0260 C   0  0  0  0  0  2  0  0  0  0  0  0
  187.1180  178.2850  142.0320 C   0  0  0  0  0  2  0  0  0  0  0  0
  186.2310  175.9790  142.3890 C   0  0  0  0  0  3  0  0  0  0  0  0
  185.4560  177.7900  143.7660 N   0  0  0  0  0  0  0  0  0  0  0  0
  185.9350  178.8120  142.8530 C   0  0  1  0  0  3  0  0  0  0  0  0
  1  2  1  0  0  0  0
  1 10  1  1  0  0  0
  2 48  1  1  0  0  0
  3  4  1  0  0  0  0
  4  7  1  6  0  0  0
  4  9  1  0  0  0  0
  5  6  1  0  0  0  0
  5 15  1  0  0  0  0
  6  1  1  0  0  0  0
  8 11  2  0  0  0  0
  9  2  1  0  0  0  0
 11 24  1  0  0  0  0
 11  3  1  0  0  0  0
 12 13  1  0  0  0  0
 13  8  1  0  0  0  0
 13  7  2  0  0  0  0
 14  7  1  0  0  0  0
 14  6  2  0  0  0  0
 15 53  1  1  0  0  0
 15 10  1  0  0  0  0
 16 22  1  0  0  0  0
 17 16  1  0  0  0  0
 17 18  1  0  0  0  0
 18 23  1  0  0  0  0
 19 20  1  0  0  0  0
 20 21  1  0  0  0  0
 21 23  1  6  0  0  0
 21  5  1  0  0  0  0
 22 19  1  0  0  0  0
 24 25  1  0  0  0  0
 25 27  1  0  0  0  0
 26 25  2  0  0  0  0
 27 28  1  0  0  0  0
 27 29  2  0  0  0  0
 28 30  1  0  0  0  0
 31 42  1  6  0  0  0
 31 30  1  0  0  0  0
 31 32  1  0  0  0  0
 32 35  1  0  0  0  0
 34 39  1  6  0  0  0
 34 38  1  0  0  0  0
 35 37  2  6  0  0  0
 35 33  1  0  0  0  0
 36 34  1  0  0  0  0
 36 32  1  0  0  0  0
 38 35  1  0  0  0  0
 39 41  1  0  0  0  0
 41 40  1  0  0  0  0
 43 42  1  0  0  0  0
 44 45  1  1  0  0  0
 44 43  1  0  0  0  0
 46 44  1  0  0  0  0
 47 46  1  0  0  0  0
 48 49  1  0  0  0  0
 49 51  1  0  0  0  0
 51 50  2  0  0  0  0
 51 52  1  0  0  0  0
 53 54  1  0  0  0  0
 54 57  1  6  0  0  0
 54 60  1  0  0  0  0
 54 61  1  0  0  0  0
 55 59  1  0  0  0  0
 56 62  1  0  0  0  0
 59 58  1  0  0  0  0
 61 56  2  0  0  0  0
 62 58  1  0  0  0  0
 63 60  1  1  0  0  0
 63 55  1  0  0  0  0
 63 62  1  0  0  0  0
M  END
>  <MODEL>
6

>  <REMARK>
 VINA RESULT:      -5.6      3.074      6.654
  Name = 
  18 active torsions:
  status: ('A' for Active; 'I' for Inactive)
    1  A    between atoms: C_3  and  C_11
    2  A    between atoms: S_5  and  C_28
    3  A    between atoms: S_5  and  C_50
    4  A    between atoms: C_7  and  N_9
    5  A    between atoms: C_8  and  C_36
    6  A    between atoms: C_8  and  C_63
    7  A    between atoms: N_9  and  C_59
    8  A    between atoms: C_11  and  O_13
    9  A    between atoms: N_12  and  C_43
   10  A    between atoms: O_13  and  C_38
   11  A    between atoms: N_16  and  C_46
   12  A    between atoms: C_18  and  C_29
   13  A    between atoms: C_18  and  C_45
   14  A    between atoms: C_19  and  C_29
   15  A    between atoms: N_32  and  N_56
   16  A    between atoms: C_43  and  C_47
   17  A    between atoms: C_43  and  N_56
   18  A    between atoms: C_47  and  C_63
                            x       y       z     vdW  Elec       q    Type
                         _______ _______ _______ _____ _____    ______ ____

>  <TORSDO>
F 18

$$$$
=
 OpenBabel11042419373D

 63 69  0  0  1  0  0  0  0  0999 V2000
  189.9580  173.7740  143.2000 C   0  0  1  0  0  3  0  0  0  0  0  0
  189.6700  172.6930  144.2540 C   0  0  1  0  0  3  0  0  0  0  0  0
  192.3160  170.4730  144.2580 O   0  0  0  0  0  0  0  0  0  0  0  0
  191.5840  171.5510  143.6770 C   0  0  1  0  0  3  0  0  0  0  0  0
  189.0120  173.9440  140.9880 N   0  0  0  0  0  0  0  0  0  0  0  0
  189.9610  173.2580  141.8010 C   0  0  0  0  0  0  0  0  0  0  0  0
  191.8040  171.6330  142.1790 C   0  0  0  0  0  0  0  0  0  0  0  0
  193.8470  170.3120  142.4760 C   0  0  0  0  0  3  0  0  0  0  0  0
  190.2160  171.4150  143.9750 O   0  0  0  0  0  0  0  0  0  0  0  0
  188.8420  174.8170  143.2020 C   0  0  0  0  0  2  0  0  0  0  0  0
  193.5540  170.0620  143.7520 C   0  0  0  0  0  0  0  0  0  0  0  0
  193.1430  171.1430  140.2660 O   0  0  0  0  0  1  0  0  0  0  0  0
  192.8920  171.0540  141.6360 C   0  0  0  0  0  0  0  0  0  0  0  0
  190.8470  172.3720  141.3280 C   0  0  0  0  0  3  0  0  0  0  0  0
  188.3730  174.9950  141.7540 C   0  0  1  0  0  3  0  0  0  0  0  0
  189.7250  173.2560  136.4620 O   0  0  0  0  0  0  0  0  0  0  0  0
  189.2770  171.9980  136.8740 C   0  0  0  0  0  2  0  0  0  0  0  0
  189.7220  171.7260  138.3100 C   0  0  0  0  0  2  0  0  0  0  0  0
  188.2130  174.7060  137.7140 C   0  0  0  0  0  2  0  0  0  0  0  0
  189.1960  174.4350  138.6820 O   0  0  0  0  0  0  0  0  0  0  0  0
  188.5600  173.6140  139.6300 C   0  0  1  0  0  3  0  0  0  0  0  0
  188.5880  174.0750  136.3660 C   0  0  0  0  0  2  0  0  0  0  0  0
  188.6100  172.1120  139.2960 C   0  0  0  0  0  2  0  0  0  0  0  0
  194.5150  169.2810  144.5980 C   0  0  0  0  0  2  0  0  0  0  0  0
  195.2210  170.0940  145.6490 C   0  0  0  0  0  0  0  0  0  0  0  0
  194.7480  170.2130  146.8130 O   0  0  0  0  0  0  0  0  0  0  0  0
  196.4740  170.7950  145.3240 C   0  0  0  0  0  0  0  0  0  0  0  0
  196.4480  172.0310  144.5900 N   0  0  0  0  0  2  0  0  0  0  0  0
  197.5700  170.3060  145.7130 O   0  0  0  0  0  0  0  0  0  0  0  0
  197.6060  172.7070  144.1610 N   0  0  0  0  0  2  0  0  0  0  0  0
  197.2220  173.7620  143.2280 C   0  0  2  0  0  3  0  0  0  0  0  0
  195.9180  174.3420  143.6130 N   0  0  0  0  0  0  0  0  0  0  0  0
  195.3820  176.7950  144.5210 O   0  0  0  0  0  1  0  0  0  0  0  0
  194.2260  175.1800  142.0110 C   0  0  1  0  0  3  0  0  0  0  0  0
  196.0200  176.0580  143.3650 P   0  0  1  0  0  0  0  0  0  0  0  0
  194.8400  173.9450  142.7050 C   0  0  0  0  0  2  0  0  0  0  0  0
  197.6120  176.5870  143.1540 O   0  0  0  0  0  0  0  0  0  0  0  0
  195.1110  176.2760  141.9740 O   0  0  0  0  0  0  0  0  0  0  0  0
  193.7070  174.7410  140.3290 S   0  0  0  0  0  0  0  0  0  0  0  0
  195.3640  175.1500  138.2110 C   0  0  0  0  0  1  0  0  0  0  0  0
  195.4090  174.8680  139.7040 C   0  0  0  0  0  2  0  0  0  0  0  0
  197.3310  173.2770  141.7730 C   0  0  0  0  0  2  0  0  0  0  0  0
  197.9360  171.8840  141.7030 C   0  0  0  0  0  2  0  0  0  0  0  0
  196.9880  170.9190  140.9970 C   0  0  1  0  0  3  0  0  0  0  0  0
  196.7690  171.3570  139.6290 N   0  0  0  0  0  1  0  0  0  0  0  0
  197.5030  169.4770  141.0260 C   0  0  0  0  0  2  0  0  0  0  0  0
  197.3260  168.8870  142.3480 N   0  0  0  0  0  1  0  0  0  0  0  0
  189.9410  173.1480  145.6930 C   0  0  0  0  0  2  0  0  0  0  0  0
  190.9220  174.1760  145.7460 O   0  0  0  0  0  0  0  0  0  0  0  0
  190.1310  175.4470  147.6350 O   0  0  0  0  0  1  0  0  0  0  0  0
  190.6970  175.4060  146.3660 C   0  0  0  0  0  0  0  0  0  0  0  0
  191.0050  176.4860  145.7910 O   0  0  0  0  0  0  0  0  0  0  0  0
  188.8180  176.3030  141.2590 N   0  0  0  0  0  2  0  0  0  0  0  0
  188.0660  177.4090  141.8580 C   0  0  2  0  0  0  0  0  0  0  0  0
  185.8720  177.6310  145.0300 C   0  0  0  0  0  2  0  0  0  0  0  0
  185.7430  178.2050  141.4210 C   0  0  0  0  0  3  0  0  0  0  0  0
  188.9520  178.6510  141.9530 C   0  0  0  0  0  1  0  0  0  0  0  0
  184.2550  178.4810  143.4360 C   0  0  0  0  0  2  0  0  0  0  0  0
  184.4790  178.2370  144.9240 C   0  0  0  0  0  2  0  0  0  0  0  0
  187.5470  177.0200  143.2550 C   0  0  0  0  0  2  0  0  0  0  0  0
  186.9030  177.7310  140.9500 C   0  0  0  0  0  3  0  0  0  0  0  0
  185.5660  178.4010  142.8310 N   0  0  0  0  0  0  0  0  0  0  0  0
  186.6080  178.1040  143.7960 C   0  0  1  0  0  3  0  0  0  0  0  0
  1 10  1  6  0  0  0
  1  2  1  0  0  0  0
  2 48  1  1  0  0  0
  4  7  1  6  0  0  0
  4  9  1  0  0  0  0
  4  3  1  0  0  0  0
  5 15  1  0  0  0  0
  5  6  1  0  0  0  0
  6  1  1  0  0  0  0
  8 11  2  0  0  0  0
  9  2  1  0  0  0  0
 11  3  1  0  0  0  0
 11 24  1  0  0  0  0
 12 13  1  0  0  0  0
 13  7  2  0  0  0  0
 13  8  1  0  0  0  0
 14  6  2  0  0  0  0
 14  7  1  0  0  0  0
 15 53  1  6  0  0  0
 15 10  1  0  0  0  0
 16 17  1  0  0  0  0
 17 18  1  0  0  0  0
 18 23  1  0  0  0  0
 19 20  1  0  0  0  0
 20 21  1  0  0  0  0
 21 23  1  6  0  0  0
 21  5  1  0  0  0  0
 22 16  1  0  0  0  0
 22 19  1  0  0  0  0
 24 25  1  0  0  0  0
 25 26  2  0  0  0  0
 27 25  1  0  0  0  0
 27 29  2  0  0  0  0
 28 27  1  0  0  0  0
 30 28  1  0  0  0  0
 31 42  1  6  0  0  0
 31 32  1  0  0  0  0
 31 30  1  0  0  0  0
 34 39  1  6  0  0  0
 34 36  1  0  0  0  0
 35 37  2  6  0  0  0
 35 32  1  0  0  0  0
 35 33  1  0  0  0  0
 36 32  1  0  0  0  0
 38 34  1  0  0  0  0
 38 35  1  0  0  0  0
 40 41  1  0  0  0  0
 41 39  1  0  0  0  0
 43 42  1  0  0  0  0
 44 45  1  6  0  0  0
 44 46  1  0  0  0  0
 44 43  1  0  0  0  0
 46 47  1  0  0  0  0
 48 49  1  0  0  0  0
 49 51  1  0  0  0  0
 51 50  1  0  0  0  0
 52 51  2  0  0  0  0
 53 54  1  0  0  0  0
 54 57  1  1  0  0  0
 54 60  1  0  0  0  0
 56 62  1  0  0  0  0
 58 59  1  0  0  0  0
 59 55  1  0  0  0  0
 61 56  2  0  0  0  0
 61 54  1  0  0  0  0
 62 58  1  0  0  0  0
 62 63  1  0  0  0  0
 63 60  1  6  0  0  0
 63 55  1  0  0  0  0
M  END
>  <MODEL>
7

>  <REMARK>
 VINA RESULT:      -5.6      3.301      6.733
  Name = 
  18 active torsions:
  status: ('A' for Active; 'I' for Inactive)
    1  A    between atoms: C_3  and  C_11
    2  A    between atoms: S_5  and  C_28
    3  A    between atoms: S_5  and  C_50
    4  A    between atoms: C_7  and  N_9
    5  A    between atoms: C_8  and  C_36
    6  A    between atoms: C_8  and  C_63
    7  A    between atoms: N_9  and  C_59
    8  A    between atoms: C_11  and  O_13
    9  A    between atoms: N_12  and  C_43
   10  A    between atoms: O_13  and  C_38
   11  A    between atoms: N_16  and  C_46
   12  A    between atoms: C_18  and  C_29
   13  A    between atoms: C_18  and  C_45
   14  A    between atoms: C_19  and  C_29
   15  A    between atoms: N_32  and  N_56
   16  A    between atoms: C_43  and  C_47
   17  A    between atoms: C_43  and  N_56
   18  A    between atoms: C_47  and  C_63
                            x       y       z     vdW  Elec       q    Type
                         _______ _______ _______ _____ _____    ______ ____

>  <TORSDO>
F 18

$$$$
=
 OpenBabel11042419373D

 63 69  0  0  1  0  0  0  0  0999 V2000
  189.9900  174.0700  142.0100 C   0  0  1  0  0  3  0  0  0  0  0  0
  189.8730  172.5580  141.7610 C   0  0  1  0  0  3  0  0  0  0  0  0
  189.3310  172.0690  138.3860 O   0  0  0  0  0  0  0  0  0  0  0  0
  189.4030  172.9110  139.5350 C   0  0  1  0  0  3  0  0  0  0  0  0
  188.3030  175.5320  142.9240 N   0  0  0  0  0  0  0  0  0  0  0  0
  188.7200  174.8150  141.7660 C   0  0  0  0  0  0  0  0  0  0  0  0
  188.5390  174.1470  139.3780 C   0  0  0  0  0  0  0  0  0  0  0  0
  188.5760  173.7800  136.9540 C   0  0  0  0  0  3  0  0  0  0  0  0
  189.0330  172.1850  140.6820 O   0  0  0  0  0  0  0  0  0  0  0  0
  190.2910  174.3360  143.4830 C   0  0  0  0  0  2  0  0  0  0  0  0
  189.1560  172.5890  137.0980 C   0  0  0  0  0  0  0  0  0  0  0  0
  187.4130  175.7040  137.9640 O   0  0  0  0  0  1  0  0  0  0  0  0
  188.1760  174.5500  138.1460 C   0  0  0  0  0  0  0  0  0  0  0  0
  188.1290  174.9220  140.5680 C   0  0  0  0  0  3  0  0  0  0  0  0
  189.2840  175.3800  143.9800 C   0  0  1  0  0  3  0  0  0  0  0  0
  185.7540  179.0430  144.5520 O   0  0  0  0  0  0  0  0  0  0  0  0
  185.4760  179.0990  143.1840 C   0  0  0  0  0  2  0  0  0  0  0  0
  186.6960  178.6490  142.3800 C   0  0  0  0  0  2  0  0  0  0  0  0
  185.7060  176.6310  144.9220 C   0  0  0  0  0  2  0  0  0  0  0  0
  187.0170  176.8080  144.4440 O   0  0  0  0  0  0  0  0  0  0  0  0
  187.0250  176.2150  143.1700 C   0  0  1  0  0  3  0  0  0  0  0  0
  184.9940  177.9820  145.0720 C   0  0  0  0  0  2  0  0  0  0  0  0
  186.5860  177.1570  142.0340 C   0  0  0  0  0  2  0  0  0  0  0  0
  189.5360  171.7950  135.8840 C   0  0  0  0  0  2  0  0  0  0  0  0
  190.9900  171.8910  135.5090 C   0  0  0  0  0  0  0  0  0  0  0  0
  191.3860  172.6950  134.6190 O   0  0  0  0  0  0  0  0  0  0  0  0
  191.9800  171.0190  136.1600 C   0  0  0  0  0  0  0  0  0  0  0  0
  193.2570  171.5430  136.5670 N   0  0  0  0  0  2  0  0  0  0  0  0
  191.6890  169.8100  136.3740 O   0  0  0  0  0  0  0  0  0  0  0  0
  194.2880  170.7500  137.1070 N   0  0  0  0  0  2  0  0  0  0  0  0
  195.4020  171.6140  137.4850 C   0  0  2  0  0  3  0  0  0  0  0  0
  195.5160  171.6940  138.9570 N   0  0  0  0  0  0  0  0  0  0  0  0
  196.9650  170.1750  140.6070 O   0  0  0  0  0  1  0  0  0  0  0  0
  196.9070  173.3450  140.1700 C   0  0  1  0  0  3  0  0  0  0  0  0
  197.0770  171.0670  139.3910 P   0  0  1  0  0  0  0  0  0  0  0  0
  195.5750  173.0760  139.4390 C   0  0  0  0  0  2  0  0  0  0  0  0
  197.8100  170.2230  138.1240 O   0  0  0  0  0  0  0  0  0  0  0  0
  197.9290  172.4580  139.7770 O   0  0  0  0  0  0  0  0  0  0  0  0
  197.4260  175.0600  139.8830 S   0  0  0  0  0  0  0  0  0  0  0  0
  195.7050  176.5850  141.3350 C   0  0  0  0  0  1  0  0  0  0  0  0
  195.7320  175.6760  140.1160 C   0  0  0  0  0  2  0  0  0  0  0  0
  195.3280  172.9620  136.7500 C   0  0  0  0  0  2  0  0  0  0  0  0
  196.6990  173.3890  136.2480 C   0  0  0  0  0  2  0  0  0  0  0  0
  196.5660  174.4080  135.1200 C   0  0  1  0  0  3  0  0  0  0  0  0
  195.1670  174.5580  134.7540 N   0  0  0  0  0  1  0  0  0  0  0  0
  197.1740  175.7630  135.4910 C   0  0  0  0  0  2  0  0  0  0  0  0
  196.2170  176.8420  135.2700 N   0  0  0  0  0  1  0  0  0  0  0  0
  191.2240  171.8330  141.7340 C   0  0  0  0  0  2  0  0  0  0  0  0
  191.0910  170.4550  142.0600 O   0  0  0  0  0  0  0  0  0  0  0  0
  190.4680  168.2060  141.4570 O   0  0  0  0  0  1  0  0  0  0  0  0
  190.9470  169.4590  141.0920 C   0  0  0  0  0  0  0  0  0  0  0  0
  191.2400  169.6830  139.8860 O   0  0  0  0  0  0  0  0  0  0  0  0
  189.9750  176.6550  144.1960 N   0  0  0  0  0  2  0  0  0  0  0  0
  191.0450  176.5460  145.1930 C   0  0  2  0  0  0  0  0  0  0  0  0
  194.8930  176.4750  144.8610 C   0  0  0  0  0  2  0  0  0  0  0  0
  192.1050  174.5310  146.2090 C   0  0  0  0  0  3  0  0  0  0  0  0
  190.8060  177.5440  146.3260 C   0  0  0  0  0  1  0  0  0  0  0  0
  194.6220  174.4300  146.1360 C   0  0  0  0  0  2  0  0  0  0  0  0
  195.6750  175.3710  145.5620 C   0  0  0  0  0  2  0  0  0  0  0  0
  192.4190  176.8000  144.5440 C   0  0  0  0  0  2  0  0  0  0  0  0
  191.0020  175.1540  145.7750 C   0  0  0  0  0  3  0  0  0  0  0  0
  193.3820  175.1740  146.1060 N   0  0  0  0  0  0  0  0  0  0  0  0
  193.5430  176.5010  145.5430 C   0  0  1  0  0  3  0  0  0  0  0  0
  1 10  1  1  0  0  0
  2 48  1  6  0  0  0
  2  1  1  0  0  0  0
  4  3  1  6  0  0  0
  4  9  1  0  0  0  0
  5 21  1  0  0  0  0
  5 15  1  0  0  0  0
  6  1  1  0  0  0  0
  6  5  1  0  0  0  0
  7  4  1  0  0  0  0
  7 14  1  0  0  0  0
  8 11  2  0  0  0  0
  8 13  1  0  0  0  0
  9  2  1  0  0  0  0
 10 15  1  0  0  0  0
 11  3  1  0  0  0  0
 12 13  1  0  0  0  0
 13  7  2  0  0  0  0
 14  6  2  0  0  0  0
 15 53  1  6  0  0  0
 16 22  1  0  0  0  0
 17 16  1  0  0  0  0
 18 17  1  0  0  0  0
 19 22  1  0  0  0  0
 20 19  1  0  0  0  0
 21 23  1  6  0  0  0
 21 20  1  0  0  0  0
 23 18  1  0  0  0  0
 24 11  1  0  0  0  0
 25 24  1  0  0  0  0
 25 27  1  0  0  0  0
 26 25  2  0  0  0  0
 27 29  2  0  0  0  0
 27 28  1  0  0  0  0
 28 30  1  0  0  0  0
 30 31  1  0  0  0  0
 31 42  1  1  0  0  0
 31 32  1  0  0  0  0
 32 35  1  0  0  0  0
 32 36  1  0  0  0  0
 34 39  1  6  0  0  0
 35 37  2  6  0  0  0
 35 38  1  0  0  0  0
 35 33  1  0  0  0  0
 36 34  1  0  0  0  0
 38 34  1  0  0  0  0
 39 41  1  0  0  0  0
 41 40  1  0  0  0  0
 43 42  1  0  0  0  0
 44 45  1  1  0  0  0
 44 46  1  0  0  0  0
 44 43  1  0  0  0  0
 47 46  1  0  0  0  0
 48 49  1  0  0  0  0
 51 50  1  0  0  0  0
 51 49  1  0  0  0  0
 52 51  2  0  0  0  0
 53 54  1  0  0  0  0
 54 61  1  0  0  0  0
 54 57  1  1  0  0  0
 55 63  1  0  0  0  0
 55 59  1  0  0  0  0
 59 58  1  0  0  0  0
 60 54  1  0  0  0  0
 61 56  2  0  0  0  0
 62 58  1  0  0  0  0
 62 56  1  0  0  0  0
 63 60  1  6  0  0  0
 63 62  1  0  0  0  0
M  END
>  <MODEL>
8

>  <REMARK>
 VINA RESULT:      -5.3      2.347      5.395
  Name = 
  18 active torsions:
  status: ('A' for Active; 'I' for Inactive)
    1  A    between atoms: C_3  and  C_11
    2  A    between atoms: S_5  and  C_28
    3  A    between atoms: S_5  and  C_50
    4  A    between atoms: C_7  and  N_9
    5  A    between atoms: C_8  and  C_36
    6  A    between atoms: C_8  and  C_63
    7  A    between atoms: N_9  and  C_59
    8  A    between atoms: C_11  and  O_13
    9  A    between atoms: N_12  and  C_43
   10  A    between atoms: O_13  and  C_38
   11  A    between atoms: N_16  and  C_46
   12  A    between atoms: C_18  and  C_29
   13  A    between atoms: C_18  and  C_45
   14  A    between atoms: C_19  and  C_29
   15  A    between atoms: N_32  and  N_56
   16  A    between atoms: C_43  and  C_47
   17  A    between atoms: C_43  and  N_56
   18  A    between atoms: C_47  and  C_63
                            x       y       z     vdW  Elec       q    Type
                         _______ _______ _______ _____ _____    ______ ____

>  <TORSDO>
F 18

$$$$
=
 OpenBabel11042419373D

 63 69  0  0  1  0  0  0  0  0999 V2000
  189.7390  173.4290  141.4300 C   0  0  1  0  0  3  0  0  0  0  0  0
  189.6420  172.0010  141.9890 C   0  0  1  0  0  3  0  0  0  0  0  0
  192.2480  170.1590  140.6690 O   0  0  0  0  0  0  0  0  0  0  0  0
  191.4250  171.3230  140.6990 C   0  0  1  0  0  3  0  0  0  0  0  0
  188.4180  174.3970  139.6590 N   0  0  0  0  0  0  0  0  0  0  0  0
  189.4950  173.5140  139.9610 C   0  0  0  0  0  0  0  0  0  0  0  0
  191.3770  172.0100  139.3480 C   0  0  0  0  0  0  0  0  0  0  0  0
  193.4410  170.8300  138.7530 C   0  0  0  0  0  3  0  0  0  0  0  0
  190.1310  170.9820  141.1320 O   0  0  0  0  0  0  0  0  0  0  0  0
  188.6400  174.3020  142.0330 C   0  0  0  0  0  2  0  0  0  0  0  0
  193.3780  170.0730  139.8480 C   0  0  0  0  0  0  0  0  0  0  0  0
  192.3580  172.4190  137.2120 O   0  0  0  0  0  1  0  0  0  0  0  0
  192.3520  171.7750  138.4500 C   0  0  0  0  0  0  0  0  0  0  0  0
  190.2850  172.9550  139.0340 C   0  0  0  0  0  3  0  0  0  0  0  0
  187.9230  175.0080  140.8760 C   0  0  1  0  0  3  0  0  0  0  0  0
  187.7390  176.6500  135.6680 O   0  0  0  0  0  0  0  0  0  0  0  0
  188.1150  175.3820  135.2180 C   0  0  0  0  0  2  0  0  0  0  0  0
  189.1050  174.7490  136.1960 C   0  0  0  0  0  2  0  0  0  0  0  0
  186.2670  176.0530  137.5210 C   0  0  0  0  0  2  0  0  0  0  0  0
  187.5280  175.9730  138.1380 O   0  0  0  0  0  0  0  0  0  0  0  0
  187.7330  174.6030  138.3760 C   0  0  1  0  0  3  0  0  0  0  0  0
  186.3980  176.5500  136.0750 C   0  0  0  0  0  2  0  0  0  0  0  0
  188.3680  173.8470  137.1940 C   0  0  0  0  0  2  0  0  0  0  0  0
  194.4740  169.0920  140.1390 C   0  0  0  0  0  2  0  0  0  0  0  0
  195.8380  169.5290  139.6790 C   0  0  0  0  0  0  0  0  0  0  0  0
  196.3350  169.1000  138.6010 O   0  0  0  0  0  0  0  0  0  0  0  0
  196.6350  170.4510  140.5030 C   0  0  0  0  0  0  0  0  0  0  0  0
  196.3290  171.8560  140.5270 N   0  0  0  0  0  2  0  0  0  0  0  0
  197.5800  169.9920  141.2030 O   0  0  0  0  0  0  0  0  0  0  0  0
  197.1040  172.8120  141.2130 N   0  0  0  0  0  2  0  0  0  0  0  0
  196.3880  173.2280  142.4150 C   0  0  2  0  0  3  0  0  0  0  0  0
  197.0940  172.7560  143.6250 N   0  0  0  0  0  0  0  0  0  0  0  0
  197.9410  174.1700  145.7260 O   0  0  0  0  0  1  0  0  0  0  0  0
  195.9980  171.6340  145.5410 C   0  0  1  0  0  3  0  0  0  0  0  0
  196.7050  173.8540  144.9130 P   0  0  1  0  0  0  0  0  0  0  0  0
  196.5700  171.4800  144.1160 C   0  0  0  0  0  2  0  0  0  0  0  0
  196.0030  175.2860  144.3530 O   0  0  0  0  0  0  0  0  0  0  0  0
  195.6270  172.9610  145.8350 O   0  0  0  0  0  0  0  0  0  0  0  0
  194.5750  170.5280  145.7530 S   0  0  0  0  0  0  0  0  0  0  0  0
  194.2950  168.1700  144.4260 C   0  0  0  0  0  1  0  0  0  0  0  0
  195.3190  169.2650  144.6770 C   0  0  0  0  0  2  0  0  0  0  0  0
  194.8990  172.8570  142.3260 C   0  0  0  0  0  2  0  0  0  0  0  0
  194.0390  174.0890  142.0930 C   0  0  0  0  0  2  0  0  0  0  0  0
  194.6090  174.9360  140.9590 C   0  0  1  0  0  3  0  0  0  0  0  0
  193.7790  174.7950  139.7740 N   0  0  0  0  0  1  0  0  0  0  0  0
  194.7440  176.4100  141.3490 C   0  0  0  0  0  2  0  0  0  0  0  0
  196.1330  176.8470  141.2660 N   0  0  0  0  0  1  0  0  0  0  0  0
  190.1620  171.8640  143.4240 C   0  0  0  0  0  2  0  0  0  0  0  0
  191.1090  172.8770  143.7410 O   0  0  0  0  0  0  0  0  0  0  0  0
  191.2790  175.2020  144.3530 O   0  0  0  0  0  0  0  0  0  0  0  0
  190.8360  173.9150  144.6340 C   0  0  0  0  0  0  0  0  0  0  0  0
  190.1850  173.7020  145.6930 O   0  0  0  0  0  1  0  0  0  0  0  0
  188.2730  176.4330  140.8870 N   0  0  0  0  0  2  0  0  0  0  0  0
  187.7150  177.1330  142.0480 C   0  0  2  0  0  0  0  0  0  0  0  0
  188.8040  177.2790  145.7520 C   0  0  0  0  0  2  0  0  0  0  0  0
  185.9330  176.4400  143.6490 C   0  0  0  0  0  3  0  0  0  0  0  0
  187.4550  178.5980  141.6980 C   0  0  0  0  0  1  0  0  0  0  0  0
  186.5050  176.5920  146.0990 C   0  0  0  0  0  2  0  0  0  0  0  0
  187.7680  177.0180  146.8380 C   0  0  0  0  0  2  0  0  0  0  0  0
  188.6730  177.0380  143.2520 C   0  0  0  0  0  2  0  0  0  0  0  0
  186.3930  176.4900  142.3920 C   0  0  0  0  0  3  0  0  0  0  0  0
  186.7120  176.9860  144.7230 N   0  0  0  0  0  0  0  0  0  0  0  0
  188.0060  177.6060  144.5100 C   0  0  1  0  0  3  0  0  0  0  0  0
  1  2  1  0  0  0  0
  1 10  1  1  0  0  0
  2 48  1  1  0  0  0
  3  4  1  0  0  0  0
  4  7  1  6  0  0  0
  4  9  1  0  0  0  0
  5  6  1  0  0  0  0
  5 15  1  0  0  0  0
  6  1  1  0  0  0  0
  8 11  2  0  0  0  0
  9  2  1  0  0  0  0
 11 24  1  0  0  0  0
 11  3  1  0  0  0  0
 12 13  1  0  0  0  0
 13  8  1  0  0  0  0
 13  7  2  0  0  0  0
 14  7  1  0  0  0  0
 14  6  2  0  0  0  0
 15 53  1  6  0  0  0
 15 10  1  0  0  0  0
 16 22  1  0  0  0  0
 17 16  1  0  0  0  0
 17 18  1  0  0  0  0
 18 23  1  0  0  0  0
 19 20  1  0  0  0  0
 20 21  1  0  0  0  0
 21 23  1  6  0  0  0
 21  5  1  0  0  0  0
 22 19  1  0  0  0  0
 25 24  1  0  0  0  0
 25 27  1  0  0  0  0
 26 25  2  0  0  0  0
 27 28  1  0  0  0  0
 27 29  2  0  0  0  0
 28 30  1  0  0  0  0
 30 31  1  0  0  0  0
 31 42  1  6  0  0  0
 31 32  1  0  0  0  0
 32 36  1  0  0  0  0
 32 35  1  0  0  0  0
 34 39  1  6  0  0  0
 34 38  1  0  0  0  0
 35 37  2  6  0  0  0
 35 33  1  0  0  0  0
 35 38  1  0  0  0  0
 36 34  1  0  0  0  0
 40 41  1  0  0  0  0
 41 39  1  0  0  0  0
 43 42  1  0  0  0  0
 44 45  1  6  0  0  0
 44 46  1  0  0  0  0
 44 43  1  0  0  0  0
 47 46  1  0  0  0  0
 48 49  1  0  0  0  0
 49 51  1  0  0  0  0
 50 51  2  0  0  0  0
 51 52  1  0  0  0  0
 53 54  1  0  0  0  0
 54 57  1  6  0  0  0
 54 61  1  0  0  0  0
 54 60  1  0  0  0  0
 55 59  1  0  0  0  0
 56 62  1  0  0  0  0
 58 59  1  0  0  0  0
 61 56  2  0  0  0  0
 62 58  1  0  0  0  0
 63 60  1  6  0  0  0
 63 62  1  0  0  0  0
 63 55  1  0  0  0  0
M  END
>  <MODEL>
9

>  <REMARK>
 VINA RESULT:      -5.3      3.138      5.879
  Name = 
  18 active torsions:
  status: ('A' for Active; 'I' for Inactive)
    1  A    between atoms: C_3  and  C_11
    2  A    between atoms: S_5  and  C_28
    3  A    between atoms: S_5  and  C_50
    4  A    between atoms: C_7  and  N_9
    5  A    between atoms: C_8  and  C_36
    6  A    between atoms: C_8  and  C_63
    7  A    between atoms: N_9  and  C_59
    8  A    between atoms: C_11  and  O_13
    9  A    between atoms: N_12  and  C_43
   10  A    between atoms: O_13  and  C_38
   11  A    between atoms: N_16  and  C_46
   12  A    between atoms: C_18  and  C_29
   13  A    between atoms: C_18  and  C_45
   14  A    between atoms: C_19  and  C_29
   15  A    between atoms: N_32  and  N_56
   16  A    between atoms: C_43  and  C_47
   17  A    between atoms: C_43  and  N_56
   18  A    between atoms: C_47  and  C_63
                            x       y       z     vdW  Elec       q    Type
                         _______ _______ _______ _____ _____    ______ ____

>  <TORSDO>
F 18

$$$$
