=
 OpenBabel11042417393D

 54 61  0  0  1  0  0  0  0  0999 V2000
  185.9950  178.5100  146.1240 N   0  0  0  0  0  0  0  0  0  0  0  0
  186.8300  177.0420  144.4010 C   0  0  0  0  0  0  0  0  0  0  0  0
  193.1920  173.6860  144.2510 C   0  0  2  0  0  3  0  0  0  0  0  0
  187.1850  178.3260  146.8550 N   0  0  0  0  0  2  0  0  0  0  0  0
  188.4310  173.2860  139.6180 C   0  0  0  0  0  2  0  0  0  0  0  0
  192.5740  174.9920  144.7990 C   0  0  0  0  0  2  0  0  0  0  0  0
  186.6260  176.3150  143.2170 C   0  0  0  0  0  3  0  0  0  0  0  0
  187.6490  175.5340  142.6670 C   0  0  0  0  0  0  0  0  0  0  0  0
  188.6640  174.4650  140.5940 C   0  0  2  0  0  3  0  0  0  0  0  0
  190.2630  175.8400  145.3370 C   0  0  0  0  0  0  0  0  0  0  0  0
  190.5790  172.1990  140.5840 C   0  0  2  0  0  3  0  0  0  0  0  0
  189.7330  172.5110  139.3010 C   0  0  2  0  0  3  0  0  0  0  0  0
  193.0780  171.9860  141.9740 S   0  0  0  0  0  0  0  0  0  0  0  0
  189.8760  174.1440  141.4690 C   0  0  2  0  0  3  0  0  0  0  0  0
  185.7710  177.9220  144.9910 C   0  0  0  0  0  0  0  0  0  0  0  0
  191.5890  176.2800  147.4640 C   0  0  0  0  0  1  0  0  0  0  0  0
  188.2380  177.5310  146.3230 C   0  0  0  0  0  0  0  0  0  0  0  0
  188.8940  175.4750  143.3070 C   0  0  0  0  0  0  0  0  0  0  0  0
  189.9740  172.7640  141.7280 O   0  0  0  0  0  0  0  0  0  0  0  0
  189.4150  177.3550  147.0480 C   0  0  0  0  0  3  0  0  0  0  0  0
  187.3880  174.7220  141.4210 C   0  0  0  0  0  2  0  0  0  0  0  0
  192.3080  173.1900  143.1060 C   0  0  0  0  0  2  0  0  0  0  0  0
  191.1580  174.8350  144.9390 O   0  0  0  0  0  0  0  0  0  0  0  0
  192.0930  172.5390  140.5090 C   0  0  0  0  0  2  0  0  0  0  0  0
  184.5480  178.2470  144.3110 N   0  0  0  0  0  2  0  0  0  0  0  0
  189.0830  176.0730  144.5680 C   0  0  0  0  0  0  0  0  0  0  0  0
  189.9760  174.8910  142.6620 O   0  0  0  0  0  0  0  0  0  0  0  0
  190.4290  176.5250  146.5580 C   0  0  0  0  0  0  0  0  0  0  0  0
  188.0550  176.8930  145.0910 C   0  0  0  0  0  0  0  0  0  0  0  0
  183.1650  178.2310  142.4020 C   0  0  0  0  0  0  0  0  0  0  0  0
  182.9680  177.9060  140.9720 C   0  0  0  0  0  3  0  0  0  0  0  0
  184.2820  177.9040  142.9770 N   0  0  0  0  0  0  0  0  0  0  0  0
  180.9340  179.3070  140.9310 C   0  0  0  0  0  2  0  0  0  0  0  0
  181.9140  178.3740  140.2930 C   0  0  0  0  0  3  0  0  0  0  0  0
  182.1140  179.0360  143.1360 C   0  0  0  0  0  2  0  0  0  0  0  0
  180.7610  178.9520  142.4160 C   0  0  0  0  0  2  0  0  0  0  0  0
  190.4860  173.0760  138.1360 C   0  0  0  0  0  0  0  0  0  0  0  0
  191.4800  172.4640  137.6450 O   0  0  0  0  0  0  0  0  0  0  0  0
  190.0140  174.2570  137.5440 O   0  0  0  0  0  0  0  0  0  0  0  0
  191.1300  174.9790  135.6470 O   0  0  0  0  0  1  0  0  0  0  0  0
  189.9390  174.4310  136.1260 C   0  0  2  0  0  3  0  0  0  0  0  0
  187.7090  175.2750  136.7360 N   0  0  0  0  0  1  0  0  0  0  0  0
  188.7650  175.3250  135.7300 C   0  0  0  0  0  2  0  0  0  0  0  0
  193.2070  172.6470  145.3650 C   0  0  0  0  0  2  0  0  0  0  0  0
  194.4430  170.4050  145.1280 C   0  0  0  0  0  0  0  0  0  0  0  0
  197.8680  169.5680  146.0190 O   0  0  0  0  0  0  0  0  0  0  0  0
  193.3520  169.8470  144.8170 O   0  0  0  0  0  0  0  0  0  0  0  0
  196.8650  170.2600  145.6870 C   0  0  0  0  0  0  0  0  0  0  0  0
  195.5730  168.1660  145.1710 C   0  0  0  0  0  1  0  0  0  0  0  0
  196.9820  171.7620  145.6540 C   0  0  2  0  0  3  0  0  0  0  0  0
  195.6320  169.6170  145.3100 N   0  0  0  0  0  0  0  0  0  0  0  0
  194.4830  171.8630  145.3590 C   0  0  0  0  0  0  0  0  0  0  0  0
  195.6490  172.4690  145.6380 C   0  0  0  0  0  3  0  0  0  0  0  0
  197.8150  172.1920  144.4550 C   0  0  0  0  0  1  0  0  0  0  0  0
  1  4  1  0  0  0  0
  2 15  1  0  0  0  0
  2 29  1  0  0  0  0
  3  6  1  0  0  0  0
  3 44  1  1  0  0  0
  6 23  1  0  0  0  0
  7  2  2  0  0  0  0
  8  7  1  0  0  0  0
  8 18  2  0  0  0  0
  9  5  1  6  0  0  0
  9 21  1  0  0  0  0
  9 14  1  0  0  0  0
 10 28  1  0  0  0  0
 11 24  1  6  0  0  0
 11 19  1  0  0  0  0
 12 37  1  6  0  0  0
 12  5  1  0  0  0  0
 12 11  1  0  0  0  0
 13 22  1  0  0  0  0
 14 19  1  1  0  0  0
 14 27  1  0  0  0  0
 15  1  2  0  0  0  0
 17  4  1  0  0  0  0
 17 20  1  0  0  0  0
 18 26  1  0  0  0  0
 21  8  1  0  0  0  0
 22  3  1  0  0  0  0
 23 10  1  0  0  0  0
 24 13  1  0  0  0  0
 25 15  1  0  0  0  0
 26 29  1  0  0  0  0
 26 10  2  0  0  0  0
 27 18  1  0  0  0  0
 28 20  2  0  0  0  0
 28 16  1  0  0  0  0
 29 17  2  0  0  0  0
 30 32  2  0  0  0  0
 30 35  1  0  0  0  0
 31 30  1  0  0  0  0
 32 25  1  0  0  0  0
 33 36  1  0  0  0  0
 34 33  1  0  0  0  0
 34 31  2  0  0  0  0
 36 35  1  0  0  0  0
 38 37  2  0  0  0  0
 39 37  1  0  0  0  0
 41 40  1  1  0  0  0
 41 39  1  0  0  0  0
 43 41  1  0  0  0  0
 43 42  1  0  0  0  0
 45 51  1  0  0  0  0
 45 52  1  0  0  0  0
 47 45  2  0  0  0  0
 48 46  2  0  0  0  0
 49 51  1  0  0  0  0
 50 54  1  6  0  0  0
 50 48  1  0  0  0  0
 51 48  1  0  0  0  0
 52 44  1  0  0  0  0
 52 53  2  0  0  0  0
 53 50  1  0  0  0  0
M  END
>  <MODEL>
1

>  <REMARK>
 VINA RESULT:      -9.0      0.000      0.000
  Name = 
  7 active torsions:
  status: ('A' for Active; 'I' for Inactive)
    1  A    between atoms: C_4  and  C_45
    2  A    between atoms: C_10  and  C_15
    3  A    between atoms: N_11  and  N_46
    4  A    between atoms: C_14  and  C_23
    5  A    between atoms: C_14  and  O_42
    6  A    between atoms: C_15  and  O_42
    7  A    between atoms: C_45  and  C_47
                            x       y       z     vdW  Elec       q    Type
                         _______ _______ _______ _____ _____    ______ ____

>  <TORSDO>
F 7

$$$$
=
 OpenBabel11042417393D

 54 61  0  0  1  0  0  0  0  0999 V2000
  189.4690  172.3290  137.1350 N   0  0  0  0  0  0  0  0  0  0  0  0
  190.8670  172.3980  139.0990 C   0  0  0  0  0  0  0  0  0  0  0  0
  189.8060  176.2790  145.0620 C   0  0  2  0  0  3  0  0  0  0  0  0
  188.5830  173.2440  137.7350 N   0  0  0  0  0  2  0  0  0  0  0  0
  194.8790  172.1220  143.9340 C   0  0  0  0  0  2  0  0  0  0  0  0
  189.5160  176.3650  143.5480 C   0  0  0  0  0  2  0  0  0  0  0  0
  191.9590  171.9070  139.8340 C   0  0  0  0  0  3  0  0  0  0  0  0
  192.2740  172.4330  141.0920 C   0  0  0  0  0  0  0  0  0  0  0  0
  194.0490  172.8680  142.8610 C   0  0  2  0  0  3  0  0  0  0  0  0
  189.3750  174.7530  141.6150 C   0  0  0  0  0  0  0  0  0  0  0  0
  193.5260  173.4170  145.7300 C   0  0  2  0  0  3  0  0  0  0  0  0
  194.9320  172.8840  145.2810 C   0  0  2  0  0  3  0  0  0  0  0  0
  191.8330  175.4310  146.8680 S   0  0  0  0  0  0  0  0  0  0  0  0
  193.0000  173.7300  143.5660 C   0  0  2  0  0  3  0  0  0  0  0  0
  190.5310  171.8880  137.7310 C   0  0  0  0  0  0  0  0  0  0  0  0
  187.1830  176.0410  141.5000 C   0  0  0  0  0  1  0  0  0  0  0  0
  188.8740  173.7890  139.0170 C   0  0  0  0  0  0  0  0  0  0  0  0
  191.4880  173.4620  141.6280 C   0  0  0  0  0  0  0  0  0  0  0  0
  192.5490  173.1250  144.7530 O   0  0  0  0  0  0  0  0  0  0  0  0
  187.9960  174.6970  139.6060 C   0  0  0  0  0  3  0  0  0  0  0  0
  193.4220  171.8540  141.8830 C   0  0  0  0  0  2  0  0  0  0  0  0
  190.9720  175.3100  145.2660 C   0  0  0  0  0  2  0  0  0  0  0  0
  189.5250  175.0510  142.9780 O   0  0  0  0  0  0  0  0  0  0  0  0
  193.4650  174.9030  146.1770 C   0  0  0  0  0  2  0  0  0  0  0  0
  191.3900  171.0120  136.9840 N   0  0  0  0  0  2  0  0  0  0  0  0
  190.3040  173.8710  140.9840 C   0  0  0  0  0  0  0  0  0  0  0  0
  191.9140  174.1390  142.7620 O   0  0  0  0  0  0  0  0  0  0  0  0
  188.2460  175.1880  140.8920 C   0  0  0  0  0  0  0  0  0  0  0  0
  190.0230  173.3620  139.6940 C   0  0  0  0  0  0  0  0  0  0  0  0
  193.7350  171.1910  136.8300 C   0  0  0  0  0  0  0  0  0  0  0  0
  195.0780  170.8390  137.3420 C   0  0  0  0  0  3  0  0  0  0  0  0
  192.6880  170.6620  137.3850 N   0  0  0  0  0  0  0  0  0  0  0  0
  196.0740  172.6430  135.9800 C   0  0  0  0  0  2  0  0  0  0  0  0
  196.1720  171.4870  136.9230 C   0  0  0  0  0  3  0  0  0  0  0  0
  193.6010  172.2440  135.7510 C   0  0  0  0  0  2  0  0  0  0  0  0
  194.9220  172.4160  134.9880 C   0  0  0  0  0  2  0  0  0  0  0  0
  196.0630  173.8620  145.3600 C   0  0  0  0  0  0  0  0  0  0  0  0
  196.7150  174.0170  146.4350 O   0  0  0  0  0  0  0  0  0  0  0  0
  196.4430  174.5420  144.1940 O   0  0  0  0  0  0  0  0  0  0  0  0
  195.0070  176.3110  143.7730 O   0  0  0  0  0  1  0  0  0  0  0  0
  196.3290  175.9610  144.0580 C   0  0  2  0  0  3  0  0  0  0  0  0
  196.5220  176.6750  141.7110 N   0  0  0  0  0  1  0  0  0  0  0  0
  197.2500  176.4980  142.9630 C   0  0  0  0  0  2  0  0  0  0  0  0
  188.5690  175.7380  145.7680 C   0  0  0  0  0  2  0  0  0  0  0  0
  187.3680  177.7710  146.7840 C   0  0  0  0  0  0  0  0  0  0  0  0
  184.0280  179.0390  146.1050 O   0  0  0  0  0  0  0  0  0  0  0  0
  188.3060  177.8940  147.6240 O   0  0  0  0  0  0  0  0  0  0  0  0
  185.1270  178.4410  145.9320 C   0  0  0  0  0  0  0  0  0  0  0  0
  186.0790  179.5700  147.9660 C   0  0  0  0  0  1  0  0  0  0  0  0
  185.3160  177.5840  144.7060 C   0  0  2  0  0  3  0  0  0  0  0  0
  186.2000  178.6050  146.8790 N   0  0  0  0  0  0  0  0  0  0  0  0
  187.4490  176.7320  145.7390 C   0  0  0  0  0  0  0  0  0  0  0  0
  186.4810  176.6300  144.8130 C   0  0  0  0  0  3  0  0  0  0  0  0
  185.4740  178.4640  143.4760 C   0  0  0  0  0  1  0  0  0  0  0  0
  1 15  2  0  0  0  0
  1  4  1  0  0  0  0
  2 29  2  0  0  0  0
  2  7  1  0  0  0  0
  3 22  1  0  0  0  0
  3 44  1  1  0  0  0
  4 17  1  0  0  0  0
  5 12  1  0  0  0  0
  6  3  1  0  0  0  0
  7  8  2  0  0  0  0
  8 18  1  0  0  0  0
  8 21  1  0  0  0  0
  9 21  1  6  0  0  0
  9 14  1  0  0  0  0
  9  5  1  0  0  0  0
 10 23  1  0  0  0  0
 11 24  1  6  0  0  0
 12 37  1  6  0  0  0
 12 11  1  0  0  0  0
 14 27  1  6  0  0  0
 14 19  1  0  0  0  0
 15  2  1  0  0  0  0
 17 20  2  0  0  0  0
 17 29  1  0  0  0  0
 18 27  1  0  0  0  0
 19 11  1  0  0  0  0
 20 28  1  0  0  0  0
 22 13  1  0  0  0  0
 23  6  1  0  0  0  0
 24 13  1  0  0  0  0
 25 32  1  0  0  0  0
 25 15  1  0  0  0  0
 26 10  1  0  0  0  0
 26 18  2  0  0  0  0
 28 16  1  0  0  0  0
 28 10  2  0  0  0  0
 29 26  1  0  0  0  0
 30 31  1  0  0  0  0
 30 32  2  0  0  0  0
 33 34  1  0  0  0  0
 34 31  2  0  0  0  0
 35 30  1  0  0  0  0
 36 35  1  0  0  0  0
 36 33  1  0  0  0  0
 37 38  2  0  0  0  0
 39 37  1  0  0  0  0
 41 40  1  6  0  0  0
 41 39  1  0  0  0  0
 42 43  1  0  0  0  0
 43 41  1  0  0  0  0
 45 51  1  0  0  0  0
 45 47  2  0  0  0  0
 48 46  2  0  0  0  0
 48 51  1  0  0  0  0
 50 54  1  6  0  0  0
 50 53  1  0  0  0  0
 50 48  1  0  0  0  0
 51 49  1  0  0  0  0
 52 44  1  0  0  0  0
 52 45  1  0  0  0  0
 53 52  2  0  0  0  0
M  END
>  <MODEL>
2

>  <REMARK>
 VINA RESULT:      -9.0      3.345      9.994
  Name = 
  7 active torsions:
  status: ('A' for Active; 'I' for Inactive)
    1  A    between atoms: C_4  and  C_45
    2  A    between atoms: C_10  and  C_15
    3  A    between atoms: N_11  and  N_46
    4  A    between atoms: C_14  and  C_23
    5  A    between atoms: C_14  and  O_42
    6  A    between atoms: C_15  and  O_42
    7  A    between atoms: C_45  and  C_47
                            x       y       z     vdW  Elec       q    Type
                         _______ _______ _______ _____ _____    ______ ____

>  <TORSDO>
F 7

$$$$
=
 OpenBabel11042417393D

 54 61  0  0  1  0  0  0  0  0999 V2000
  196.1360  174.6860  146.1480 N   0  0  0  0  0  0  0  0  0  0  0  0
  195.0840  173.9450  144.1080 C   0  0  0  0  0  0  0  0  0  0  0  0
  188.3290  175.2140  141.9830 C   0  0  2  0  0  3  0  0  0  0  0  0
  194.9440  175.3370  146.5240 N   0  0  0  0  0  2  0  0  0  0  0  0
  192.9180  171.7580  138.6240 C   0  0  0  0  0  2  0  0  0  0  0  0
  189.1250  175.0300  143.2940 C   0  0  0  0  0  2  0  0  0  0  0  0
  195.1700  173.3310  142.8470 C   0  0  0  0  0  3  0  0  0  0  0  0
  194.0440  173.2150  142.0260 C   0  0  0  0  0  0  0  0  0  0  0  0
  192.8610  171.9560  140.1580 C   0  0  2  0  0  3  0  0  0  0  0  0
  191.5370  175.1750  144.0090 C   0  0  0  0  0  0  0  0  0  0  0  0
  190.6600  173.0270  138.4810 C   0  0  2  0  0  3  0  0  0  0  0  0
  191.5200  171.8210  137.9630 C   0  0  2  0  0  3  0  0  0  0  0  0
  188.1780  174.1770  139.3390 S   0  0  0  0  0  0  0  0  0  0  0  0
  191.6310  172.7990  140.4970 C   0  0  2  0  0  3  0  0  0  0  0  0
  196.2610  174.0450  145.0290 C   0  0  0  0  0  0  0  0  0  0  0  0
  190.3170  176.6760  145.6620 C   0  0  0  0  0  1  0  0  0  0  0  0
  193.7860  175.2410  145.7040 C   0  0  0  0  0  0  0  0  0  0  0  0
  192.8120  173.7190  142.4650 C   0  0  0  0  0  0  0  0  0  0  0  0
  191.3540  173.7370  139.4850 O   0  0  0  0  0  0  0  0  0  0  0  0
  192.6070  175.8830  146.0820 C   0  0  0  0  0  3  0  0  0  0  0  0
  194.1730  172.5970  140.6540 C   0  0  0  0  0  2  0  0  0  0  0  0
  189.1200  174.5520  140.8540 C   0  0  0  0  0  2  0  0  0  0  0  0
  190.5090  175.3130  143.0630 O   0  0  0  0  0  0  0  0  0  0  0  0
  189.2040  172.6980  138.9120 C   0  0  0  0  0  2  0  0  0  0  0  0
  197.5050  173.3660  144.7950 N   0  0  0  0  0  2  0  0  0  0  0  0
  192.7250  174.4660  143.6550 C   0  0  0  0  0  0  0  0  0  0  0  0
  191.6510  173.4160  141.7660 O   0  0  0  0  0  0  0  0  0  0  0  0
  191.4840  175.8440  145.2490 C   0  0  0  0  0  0  0  0  0  0  0  0
  193.8620  174.5390  144.4950 C   0  0  0  0  0  0  0  0  0  0  0  0
  197.6920  171.1510  144.0090 C   0  0  0  0  0  0  0  0  0  0  0  0
  197.8320  170.2070  142.8790 C   0  0  0  0  0  3  0  0  0  0  0  0
  197.7020  172.4270  143.7710 N   0  0  0  0  0  0  0  0  0  0  0  0
  197.2280  168.3310  144.3680 C   0  0  0  0  0  2  0  0  0  0  0  0
  197.6530  168.8910  143.0480 C   0  0  0  0  0  3  0  0  0  0  0  0
  197.4240  170.6170  145.3990 C   0  0  0  0  0  2  0  0  0  0  0  0
  197.8530  169.1470  145.5110 C   0  0  0  0  0  2  0  0  0  0  0  0
  190.8300  170.4930  137.9160 C   0  0  0  0  0  0  0  0  0  0  0  0
  190.6110  169.9110  136.8130 O   0  0  0  0  0  0  0  0  0  0  0  0
  190.5070  169.8640  139.1280 O   0  0  0  0  0  0  0  0  0  0  0  0
  190.5160  168.1780  140.7170 O   0  0  0  0  0  1  0  0  0  0  0  0
  190.8140  168.4910  139.3890 C   0  0  2  0  0  3  0  0  0  0  0  0
  193.0980  168.3740  140.2980 N   0  0  0  0  0  1  0  0  0  0  0  0
  192.2820  168.1770  139.1030 C   0  0  0  0  0  2  0  0  0  0  0  0
  188.1930  176.7050  141.6980 C   0  0  0  0  0  2  0  0  0  0  0  0
  185.7670  177.5500  141.5930 C   0  0  0  0  0  0  0  0  0  0  0  0
  183.9060  179.4920  144.0400 O   0  0  0  0  0  0  0  0  0  0  0  0
  185.7020  177.1840  140.3840 O   0  0  0  0  0  0  0  0  0  0  0  0
  184.7720  178.7090  143.5590 C   0  0  0  0  0  0  0  0  0  0  0  0
  183.5090  178.6220  141.3870 C   0  0  0  0  0  1  0  0  0  0  0  0
  185.8830  178.2030  144.4430 C   0  0  2  0  0  3  0  0  0  0  0  0
  184.6770  178.2760  142.1880 N   0  0  0  0  0  0  0  0  0  0  0  0
  186.9880  177.2800  142.3770 C   0  0  0  0  0  0  0  0  0  0  0  0
  187.0440  177.6200  143.6760 C   0  0  0  0  0  3  0  0  0  0  0  0
  185.3380  177.1760  145.4260 C   0  0  0  0  0  1  0  0  0  0  0  0
  1  4  1  0  0  0  0
  2 29  1  0  0  0  0
  2 15  1  0  0  0  0
  3 44  1  6  0  0  0
  3  6  1  0  0  0  0
  7  2  2  0  0  0  0
  8 18  2  0  0  0  0
  8  7  1  0  0  0  0
  9  5  1  6  0  0  0
  9 14  1  0  0  0  0
  9 21  1  0  0  0  0
 10 28  1  0  0  0  0
 11 24  1  1  0  0  0
 11 19  1  0  0  0  0
 12 37  1  1  0  0  0
 12 11  1  0  0  0  0
 12  5  1  0  0  0  0
 13 22  1  0  0  0  0
 14 19  1  6  0  0  0
 14 27  1  0  0  0  0
 15  1  2  0  0  0  0
 17 20  1  0  0  0  0
 17  4  1  0  0  0  0
 18 26  1  0  0  0  0
 21  8  1  0  0  0  0
 22  3  1  0  0  0  0
 23  6  1  0  0  0  0
 23 10  1  0  0  0  0
 24 13  1  0  0  0  0
 25 15  1  0  0  0  0
 26 10  2  0  0  0  0
 26 29  1  0  0  0  0
 27 18  1  0  0  0  0
 28 16  1  0  0  0  0
 28 20  2  0  0  0  0
 29 17  2  0  0  0  0
 30 35  1  0  0  0  0
 31 34  2  0  0  0  0
 31 30  1  0  0  0  0
 32 30  2  0  0  0  0
 32 25  1  0  0  0  0
 33 36  1  0  0  0  0
 34 33  1  0  0  0  0
 35 36  1  0  0  0  0
 37 39  1  0  0  0  0
 38 37  2  0  0  0  0
 39 41  1  0  0  0  0
 41 40  1  1  0  0  0
 43 41  1  0  0  0  0
 43 42  1  0  0  0  0
 44 52  1  0  0  0  0
 45 51  1  0  0  0  0
 45 52  1  0  0  0  0
 47 45  2  0  0  0  0
 48 46  2  0  0  0  0
 48 50  1  0  0  0  0
 49 51  1  0  0  0  0
 50 54  1  1  0  0  0
 51 48  1  0  0  0  0
 52 53  2  0  0  0  0
 53 50  1  0  0  0  0
M  END
>  <MODEL>
3

>  <REMARK>
 VINA RESULT:      -8.4      2.817     10.078
  Name = 
  7 active torsions:
  status: ('A' for Active; 'I' for Inactive)
    1  A    between atoms: C_4  and  C_45
    2  A    between atoms: C_10  and  C_15
    3  A    between atoms: N_11  and  N_46
    4  A    between atoms: C_14  and  C_23
    5  A    between atoms: C_14  and  O_42
    6  A    between atoms: C_15  and  O_42
    7  A    between atoms: C_45  and  C_47
                            x       y       z     vdW  Elec       q    Type
                         _______ _______ _______ _____ _____    ______ ____

>  <TORSDO>
F 7

$$$$
=
 OpenBabel11042417393D

 54 61  0  0  1  0  0  0  0  0999 V2000
  193.1640  168.8960  140.4950 N   0  0  0  0  0  0  0  0  0  0  0  0
  191.8090  170.8750  140.7520 C   0  0  0  0  0  0  0  0  0  0  0  0
  191.7820  175.4390  146.3120 C   0  0  2  0  0  3  0  0  0  0  0  0
  193.7660  169.1480  141.7430 N   0  0  0  0  0  2  0  0  0  0  0  0
  188.0460  175.9130  140.8250 C   0  0  0  0  0  2  0  0  0  0  0  0
  192.0320  173.9410  146.0340 C   0  0  0  0  0  2  0  0  0  0  0  0
  190.8960  171.8030  140.2230 C   0  0  0  0  0  3  0  0  0  0  0  0
  190.4540  172.8900  140.9840 C   0  0  0  0  0  0  0  0  0  0  0  0
  188.6340  174.6130  141.4240 C   0  0  2  0  0  3  0  0  0  0  0  0
  192.6030  172.5190  144.0340 C   0  0  0  0  0  0  0  0  0  0  0  0
  188.9970  177.1680  142.8860 C   0  0  2  0  0  3  0  0  0  0  0  0
  187.7910  176.9990  141.8980 C   0  0  2  0  0  3  0  0  0  0  0  0
  190.0750  177.5690  145.5130 S   0  0  0  0  0  0  0  0  0  0  0  0
  189.4080  174.9660  142.6950 C   0  0  2  0  0  3  0  0  0  0  0  0
  192.2670  169.6750  139.9800 C   0  0  0  0  0  0  0  0  0  0  0  0
  194.3560  171.8750  145.7640 C   0  0  0  0  0  1  0  0  0  0  0  0
  193.3410  170.2510  142.5340 C   0  0  0  0  0  0  0  0  0  0  0  0
  190.9290  173.0580  142.2920 C   0  0  0  0  0  0  0  0  0  0  0  0
  190.0130  176.2320  142.5950 O   0  0  0  0  0  0  0  0  0  0  0  0
  193.9370  170.4950  143.7710 C   0  0  0  0  0  3  0  0  0  0  0  0
  189.5130  173.9020  140.3750 C   0  0  0  0  0  2  0  0  0  0  0  0
  190.9290  175.9960  145.1710 C   0  0  0  0  0  2  0  0  0  0  0  0
  192.3820  173.7560  144.6580 O   0  0  0  0  0  0  0  0  0  0  0  0
  188.6480  177.1850  144.4000 C   0  0  0  0  0  2  0  0  0  0  0  0
  191.6800  169.2700  138.7330 N   0  0  0  0  0  2  0  0  0  0  0  0
  191.9510  172.2310  142.7970 C   0  0  0  0  0  0  0  0  0  0  0  0
  190.3360  173.9950  143.1280 O   0  0  0  0  0  0  0  0  0  0  0  0
  193.5670  171.6140  144.5250 C   0  0  0  0  0  0  0  0  0  0  0  0
  192.3570  171.1110  142.0330 C   0  0  0  0  0  0  0  0  0  0  0  0
  190.5850  170.5880  137.1140 C   0  0  0  0  0  0  0  0  0  0  0  0
  189.3300  171.1210  136.5390 C   0  0  0  0  0  3  0  0  0  0  0  0
  190.5290  169.8560  138.1840 N   0  0  0  0  0  0  0  0  0  0  0  0
  190.5550  171.8270  134.5130 C   0  0  0  0  0  2  0  0  0  0  0  0
  189.3170  171.7290  135.3470 C   0  0  0  0  0  3  0  0  0  0  0  0
  191.8920  170.8070  136.3840 C   0  0  0  0  0  2  0  0  0  0  0  0
  191.7850  171.9960  135.4180 C   0  0  0  0  0  2  0  0  0  0  0  0
  186.4340  176.9010  142.5240 C   0  0  0  0  0  0  0  0  0  0  0  0
  186.0710  175.8500  143.1310 O   0  0  0  0  0  0  0  0  0  0  0  0
  185.6030  178.0310  142.5000 O   0  0  0  0  0  0  0  0  0  0  0  0
  183.3060  178.2910  142.3580 O   0  0  0  0  0  1  0  0  0  0  0  0
  184.3770  178.1020  143.2340 C   0  0  2  0  0  3  0  0  0  0  0  0
  185.7070  179.8830  144.2910 N   0  0  0  0  0  1  0  0  0  0  0  0
  184.4020  179.2280  144.2660 C   0  0  0  0  0  2  0  0  0  0  0  0
  193.1240  176.1620  146.3400 C   0  0  0  0  0  2  0  0  0  0  0  0
  195.1910  175.4070  145.0120 C   0  0  0  0  0  0  0  0  0  0  0  0
  196.1510  176.2220  141.6000 O   0  0  0  0  0  0  0  0  0  0  0  0
  195.6740  174.9040  146.0670 O   0  0  0  0  0  0  0  0  0  0  0  0
  195.4210  176.0330  142.6130 C   0  0  0  0  0  0  0  0  0  0  0  0
  197.3340  174.9170  143.8020 C   0  0  0  0  0  1  0  0  0  0  0  0
  193.9600  176.4020  142.5500 C   0  0  2  0  0  3  0  0  0  0  0  0
  195.9710  175.4360  143.8030 N   0  0  0  0  0  0  0  0  0  0  0  0
  193.8460  176.0150  145.0360 C   0  0  0  0  0  0  0  0  0  0  0  0
  193.3070  176.5040  143.9070 C   0  0  0  0  0  3  0  0  0  0  0  0
  193.2090  175.4040  141.6830 C   0  0  0  0  0  1  0  0  0  0  0  0
  1  4  1  0  0  0  0
  2 29  1  0  0  0  0
  3 44  1  6  0  0  0
  4 17  1  0  0  0  0
  5  9  1  0  0  0  0
  5 12  1  0  0  0  0
  6  3  1  0  0  0  0
  7  2  2  0  0  0  0
  7  8  1  0  0  0  0
  8 18  2  0  0  0  0
  9 21  1  6  0  0  0
  9 14  1  0  0  0  0
 10 28  1  0  0  0  0
 10 23  1  0  0  0  0
 11 24  1  1  0  0  0
 12 37  1  1  0  0  0
 12 11  1  0  0  0  0
 14 19  1  6  0  0  0
 14 27  1  0  0  0  0
 15  1  2  0  0  0  0
 15  2  1  0  0  0  0
 17 20  1  0  0  0  0
 18 26  1  0  0  0  0
 18 27  1  0  0  0  0
 19 11  1  0  0  0  0
 20 28  2  0  0  0  0
 21  8  1  0  0  0  0
 22 13  1  0  0  0  0
 22  3  1  0  0  0  0
 23  6  1  0  0  0  0
 24 13  1  0  0  0  0
 25 15  1  0  0  0  0
 26 10  2  0  0  0  0
 28 16  1  0  0  0  0
 29 17  2  0  0  0  0
 29 26  1  0  0  0  0
 30 32  2  0  0  0  0
 31 30  1  0  0  0  0
 32 25  1  0  0  0  0
 33 34  1  0  0  0  0
 33 36  1  0  0  0  0
 34 31  2  0  0  0  0
 35 30  1  0  0  0  0
 36 35  1  0  0  0  0
 37 38  2  0  0  0  0
 39 37  1  0  0  0  0
 39 41  1  0  0  0  0
 41 40  1  6  0  0  0
 41 43  1  0  0  0  0
 43 42  1  0  0  0  0
 45 52  1  0  0  0  0
 45 47  2  0  0  0  0
 46 48  2  0  0  0  0
 48 51  1  0  0  0  0
 49 51  1  0  0  0  0
 50 54  1  6  0  0  0
 50 48  1  0  0  0  0
 50 53  1  0  0  0  0
 51 45  1  0  0  0  0
 52 44  1  0  0  0  0
 53 52  2  0  0  0  0
M  END
>  <MODEL>
4

>  <REMARK>
 VINA RESULT:      -8.4      3.242      7.979
  Name = 
  7 active torsions:
  status: ('A' for Active; 'I' for Inactive)
    1  A    between atoms: C_4  and  C_45
    2  A    between atoms: C_10  and  C_15
    3  A    between atoms: N_11  and  N_46
    4  A    between atoms: C_14  and  C_23
    5  A    between atoms: C_14  and  O_42
    6  A    between atoms: C_15  and  O_42
    7  A    between atoms: C_45  and  C_47
                            x       y       z     vdW  Elec       q    Type
                         _______ _______ _______ _____ _____    ______ ____

>  <TORSDO>
F 7

$$$$
=
 OpenBabel11042417393D

 54 61  0  0  1  0  0  0  0  0999 V2000
  196.1140  174.8450  146.1360 N   0  0  0  0  0  0  0  0  0  0  0  0
  195.0840  174.0760  144.0940 C   0  0  0  0  0  0  0  0  0  0  0  0
  188.3080  175.1870  141.9510 C   0  0  2  0  0  3  0  0  0  0  0  0
  194.9070  175.4690  146.5080 N   0  0  0  0  0  2  0  0  0  0  0  0
  192.9820  171.8300  138.6090 C   0  0  0  0  0  2  0  0  0  0  0  0
  189.1040  175.0240  143.2650 C   0  0  0  0  0  2  0  0  0  0  0  0
  195.1870  173.4620  142.8350 C   0  0  0  0  0  3  0  0  0  0  0  0
  194.0660  173.3190  142.0110 C   0  0  0  0  0  0  0  0  0  0  0  0
  192.9170  172.0300  140.1430 C   0  0  2  0  0  3  0  0  0  0  0  0
  191.5110  175.2250  143.9850 C   0  0  0  0  0  0  0  0  0  0  0  0
  190.6960  173.0470  138.4590 C   0  0  2  0  0  3  0  0  0  0  0  0
  191.5840  171.8600  137.9460 C   0  0  2  0  0  3  0  0  0  0  0  0
  188.1860  174.1410  139.3090 S   0  0  0  0  0  0  0  0  0  0  0  0
  191.6670  172.8450  140.4770 C   0  0  2  0  0  3  0  0  0  0  0  0
  196.2560  174.2050  145.0180 C   0  0  0  0  0  0  0  0  0  0  0  0
  190.2520  176.7010  145.6330 C   0  0  0  0  0  1  0  0  0  0  0  0
  193.7530  175.3450  145.6850 C   0  0  0  0  0  0  0  0  0  0  0  0
  192.8220  173.7950  142.4470 C   0  0  0  0  0  0  0  0  0  0  0  0
  191.3710  173.7750  139.4630 O   0  0  0  0  0  0  0  0  0  0  0  0
  192.5590  175.9610  146.0590 C   0  0  0  0  0  3  0  0  0  0  0  0
  194.2120  172.7010  140.6410 C   0  0  0  0  0  2  0  0  0  0  0  0
  189.1160  174.5400  140.8250 C   0  0  0  0  0  2  0  0  0  0  0  0
  190.4820  175.3370  143.0370 O   0  0  0  0  0  0  0  0  0  0  0  0
  189.2470  172.6860  138.8870 C   0  0  0  0  0  2  0  0  0  0  0  0
  197.5160  173.5540  144.7890 N   0  0  0  0  0  2  0  0  0  0  0  0
  192.7150  174.5430  143.6350 C   0  0  0  0  0  0  0  0  0  0  0  0
  191.6700  173.4650  141.7460 O   0  0  0  0  0  0  0  0  0  0  0  0
  191.4390  175.8950  145.2230 C   0  0  0  0  0  0  0  0  0  0  0  0
  193.8480  174.6430  144.4770 C   0  0  0  0  0  0  0  0  0  0  0  0
  197.7030  171.3410  143.9970 C   0  0  0  0  0  0  0  0  0  0  0  0
  197.8700  170.4010  142.8670 C   0  0  0  0  0  3  0  0  0  0  0  0
  197.7370  172.6180  143.7670 N   0  0  0  0  0  0  0  0  0  0  0  0
  197.1910  168.5250  144.3240 C   0  0  0  0  0  2  0  0  0  0  0  0
  197.6690  169.0870  143.0220 C   0  0  0  0  0  3  0  0  0  0  0  0
  197.3800  170.8030  145.3740 C   0  0  0  0  0  2  0  0  0  0  0  0
  197.7850  169.3270  145.4920 C   0  0  0  0  0  2  0  0  0  0  0  0
  190.9250  170.5160  137.9000 C   0  0  0  0  0  0  0  0  0  0  0  0
  190.7350  169.8470  138.9580 O   0  0  0  0  0  0  0  0  0  0  0  0
  190.4440  170.0490  136.6680 O   0  0  0  0  0  0  0  0  0  0  0  0
  190.0460  171.1290  134.6570 O   0  0  0  0  0  1  0  0  0  0  0  0
  191.0060  170.4570  135.4170 C   0  0  2  0  0  3  0  0  0  0  0  0
  192.9980  169.1830  134.7330 N   0  0  0  0  0  1  0  0  0  0  0  0
  191.5450  169.2650  134.6260 C   0  0  0  0  0  2  0  0  0  0  0  0
  188.1380  176.6740  141.6630 C   0  0  0  0  0  2  0  0  0  0  0  0
  185.7140  177.5260  141.7380 C   0  0  0  0  0  0  0  0  0  0  0  0
  184.0390  179.4580  144.3240 O   0  0  0  0  0  0  0  0  0  0  0  0
  185.5600  177.1680  140.5350 O   0  0  0  0  0  0  0  0  0  0  0  0
  184.8660  178.6750  143.7770 C   0  0  0  0  0  0  0  0  0  0  0  0
  183.4500  178.6060  141.7020 C   0  0  0  0  0  1  0  0  0  0  0  0
  186.0360  178.1610  144.5770 C   0  0  2  0  0  3  0  0  0  0  0  0
  184.6720  178.2510  142.4150 N   0  0  0  0  0  0  0  0  0  0  0  0
  186.9870  177.2470  142.4310 C   0  0  0  0  0  0  0  0  0  0  0  0
  187.1370  177.5790  143.7240 C   0  0  0  0  0  3  0  0  0  0  0  0
  185.5600  177.1300  145.5890 C   0  0  0  0  0  1  0  0  0  0  0  0
  1  4  1  0  0  0  0
  2 29  1  0  0  0  0
  2 15  1  0  0  0  0
  3 44  1  6  0  0  0
  3  6  1  0  0  0  0
  7  2  2  0  0  0  0
  8 18  2  0  0  0  0
  8  7  1  0  0  0  0
  9  5  1  6  0  0  0
  9 14  1  0  0  0  0
  9 21  1  0  0  0  0
 10 28  1  0  0  0  0
 11 24  1  1  0  0  0
 11 19  1  0  0  0  0
 12 37  1  1  0  0  0
 12 11  1  0  0  0  0
 12  5  1  0  0  0  0
 13 22  1  0  0  0  0
 14 19  1  6  0  0  0
 14 27  1  0  0  0  0
 15  1  2  0  0  0  0
 17 20  1  0  0  0  0
 17  4  1  0  0  0  0
 18 26  1  0  0  0  0
 21  8  1  0  0  0  0
 22  3  1  0  0  0  0
 23  6  1  0  0  0  0
 23 10  1  0  0  0  0
 24 13  1  0  0  0  0
 25 15  1  0  0  0  0
 26 10  2  0  0  0  0
 26 29  1  0  0  0  0
 27 18  1  0  0  0  0
 28 16  1  0  0  0  0
 28 20  2  0  0  0  0
 29 17  2  0  0  0  0
 30 35  1  0  0  0  0
 31 34  2  0  0  0  0
 31 30  1  0  0  0  0
 32 30  2  0  0  0  0
 32 25  1  0  0  0  0
 33 36  1  0  0  0  0
 34 33  1  0  0  0  0
 35 36  1  0  0  0  0
 37 38  2  0  0  0  0
 39 37  1  0  0  0  0
 41 40  1  6  0  0  0
 41 39  1  0  0  0  0
 43 42  1  0  0  0  0
 43 41  1  0  0  0  0
 44 52  1  0  0  0  0
 45 51  1  0  0  0  0
 45 52  1  0  0  0  0
 47 45  2  0  0  0  0
 48 46  2  0  0  0  0
 48 50  1  0  0  0  0
 49 51  1  0  0  0  0
 50 54  1  1  0  0  0
 51 48  1  0  0  0  0
 52 53  2  0  0  0  0
 53 50  1  0  0  0  0
M  END
>  <MODEL>
5

>  <REMARK>
 VINA RESULT:      -8.3      2.929      9.900
  Name = 
  7 active torsions:
  status: ('A' for Active; 'I' for Inactive)
    1  A    between atoms: C_4  and  C_45
    2  A    between atoms: C_10  and  C_15
    3  A    between atoms: N_11  and  N_46
    4  A    between atoms: C_14  and  C_23
    5  A    between atoms: C_14  and  O_42
    6  A    between atoms: C_15  and  O_42
    7  A    between atoms: C_45  and  C_47
                            x       y       z     vdW  Elec       q    Type
                         _______ _______ _______ _____ _____    ______ ____

>  <TORSDO>
F 7

$$$$
=
 OpenBabel11042417393D

 54 61  0  0  1  0  0  0  0  0999 V2000
  185.9700  178.4850  146.0530 N   0  0  0  0  0  0  0  0  0  0  0  0
  186.8030  177.0080  144.3360 C   0  0  0  0  0  0  0  0  0  0  0  0
  193.0860  173.5070  144.2800 C   0  0  2  0  0  3  0  0  0  0  0  0
  187.1410  178.2690  146.8050 N   0  0  0  0  0  2  0  0  0  0  0  0
  188.4050  173.2470  139.5580 C   0  0  0  0  0  2  0  0  0  0  0  0
  192.4890  174.8230  144.8250 C   0  0  0  0  0  2  0  0  0  0  0  0
  186.6030  176.2940  143.1430 C   0  0  0  0  0  3  0  0  0  0  0  0
  187.6180  175.4930  142.6070 C   0  0  0  0  0  0  0  0  0  0  0  0
  188.6460  174.4140  140.5460 C   0  0  2  0  0  3  0  0  0  0  0  0
  190.1880  175.7210  145.3270 C   0  0  0  0  0  0  0  0  0  0  0  0
  190.5090  172.1050  140.5560 C   0  0  2  0  0  3  0  0  0  0  0  0
  189.6940  172.4440  139.2600 C   0  0  2  0  0  3  0  0  0  0  0  0
  192.9760  171.8250  141.9900 S   0  0  0  0  0  0  0  0  0  0  0  0
  189.8350  174.0590  141.4410 C   0  0  2  0  0  3  0  0  0  0  0  0
  185.7530  177.9090  144.9120 C   0  0  0  0  0  0  0  0  0  0  0  0
  191.4840  176.1180  147.4810 C   0  0  0  0  0  1  0  0  0  0  0  0
  188.1850  177.4530  146.2870 C   0  0  0  0  0  0  0  0  0  0  0  0
  188.8500  175.4010  143.2690 C   0  0  0  0  0  0  0  0  0  0  0  0
  189.8950  172.6760  141.6930 O   0  0  0  0  0  0  0  0  0  0  0  0
  189.3450  177.2450  147.0320 C   0  0  0  0  0  3  0  0  0  0  0  0
  187.3620  174.6950  141.3510 C   0  0  0  0  0  2  0  0  0  0  0  0
  192.2130  173.0390  143.1160 C   0  0  0  0  0  2  0  0  0  0  0  0
  191.0670  174.6980  144.9390 O   0  0  0  0  0  0  0  0  0  0  0  0
  192.0310  172.4100  140.5110 C   0  0  0  0  0  2  0  0  0  0  0  0
  184.5510  178.2670  144.2120 N   0  0  0  0  0  2  0  0  0  0  0  0
  189.0280  175.9860  144.5380 C   0  0  0  0  0  0  0  0  0  0  0  0
  189.9290  174.7960  142.6410 O   0  0  0  0  0  0  0  0  0  0  0  0
  190.3480  176.3950  146.5560 C   0  0  0  0  0  0  0  0  0  0  0  0
  188.0110  176.8270  145.0470 C   0  0  0  0  0  0  0  0  0  0  0  0
  183.1800  178.2470  142.2940 C   0  0  0  0  0  0  0  0  0  0  0  0
  183.0010  177.9400  140.8580 C   0  0  0  0  0  3  0  0  0  0  0  0
  184.3010  177.9390  142.8710 N   0  0  0  0  0  0  0  0  0  0  0  0
  180.9330  179.2910  140.8240 C   0  0  0  0  0  2  0  0  0  0  0  0
  181.9400  178.3930  140.1790 C   0  0  0  0  0  3  0  0  0  0  0  0
  182.1060  179.0150  143.0330 C   0  0  0  0  0  2  0  0  0  0  0  0
  180.7590  178.9090  142.3030 C   0  0  0  0  0  2  0  0  0  0  0  0
  190.4810  172.9980  138.1130 C   0  0  0  0  0  0  0  0  0  0  0  0
  190.4870  174.2400  137.8670 O   0  0  0  0  0  0  0  0  0  0  0  0
  191.2830  172.1210  137.3670 O   0  0  0  0  0  0  0  0  0  0  0  0
  189.4290  171.5040  136.1210 O   0  0  0  0  0  1  0  0  0  0  0  0
  190.7340  171.1500  136.4710 C   0  0  2  0  0  3  0  0  0  0  0  0
  191.6740  169.6770  138.2040 N   0  0  0  0  0  1  0  0  0  0  0  0
  190.7390  169.7510  137.0850 C   0  0  0  0  0  2  0  0  0  0  0  0
  193.0570  172.4610  145.3880 C   0  0  0  0  0  2  0  0  0  0  0  0
  195.5430  171.8810  145.0860 C   0  0  0  0  0  0  0  0  0  0  0  0
  197.0540  168.7580  143.9940 O   0  0  0  0  0  0  0  0  0  0  0  0
  195.8400  173.0960  145.2680 O   0  0  0  0  0  0  0  0  0  0  0  0
  196.2100  169.5580  144.4870 C   0  0  0  0  0  0  0  0  0  0  0  0
  197.9350  171.3860  144.5130 C   0  0  0  0  0  1  0  0  0  0  0  0
  194.8440  169.0470  144.8680 C   0  0  2  0  0  3  0  0  0  0  0  0
  196.5630  170.9360  144.7150 N   0  0  0  0  0  0  0  0  0  0  0  0
  194.1390  171.4420  145.2010 C   0  0  0  0  0  0  0  0  0  0  0  0
  193.8240  170.1440  145.0590 C   0  0  0  0  0  3  0  0  0  0  0  0
  194.9390  168.1970  146.1260 C   0  0  0  0  0  1  0  0  0  0  0  0
  1  4  1  0  0  0  0
  2 15  1  0  0  0  0
  2 29  1  0  0  0  0
  3  6  1  0  0  0  0
  3 44  1  1  0  0  0
  6 23  1  0  0  0  0
  7  2  2  0  0  0  0
  8  7  1  0  0  0  0
  8 18  2  0  0  0  0
  9  5  1  6  0  0  0
  9 21  1  0  0  0  0
  9 14  1  0  0  0  0
 10 28  1  0  0  0  0
 11 24  1  6  0  0  0
 11 19  1  0  0  0  0
 12 37  1  6  0  0  0
 12  5  1  0  0  0  0
 12 11  1  0  0  0  0
 13 22  1  0  0  0  0
 14 19  1  1  0  0  0
 14 27  1  0  0  0  0
 15  1  2  0  0  0  0
 17  4  1  0  0  0  0
 17 20  1  0  0  0  0
 18 26  1  0  0  0  0
 21  8  1  0  0  0  0
 22  3  1  0  0  0  0
 23 10  1  0  0  0  0
 24 13  1  0  0  0  0
 25 15  1  0  0  0  0
 26 29  1  0  0  0  0
 26 10  2  0  0  0  0
 27 18  1  0  0  0  0
 28 20  2  0  0  0  0
 28 16  1  0  0  0  0
 29 17  2  0  0  0  0
 30 32  2  0  0  0  0
 30 35  1  0  0  0  0
 31 30  1  0  0  0  0
 32 25  1  0  0  0  0
 33 36  1  0  0  0  0
 34 33  1  0  0  0  0
 34 31  2  0  0  0  0
 36 35  1  0  0  0  0
 38 37  2  0  0  0  0
 39 37  1  0  0  0  0
 41 40  1  1  0  0  0
 41 43  1  0  0  0  0
 41 39  1  0  0  0  0
 43 42  1  0  0  0  0
 45 52  1  0  0  0  0
 45 47  2  0  0  0  0
 46 48  2  0  0  0  0
 48 51  1  0  0  0  0
 48 50  1  0  0  0  0
 49 51  1  0  0  0  0
 50 53  1  0  0  0  0
 50 54  1  1  0  0  0
 51 45  1  0  0  0  0
 52 44  1  0  0  0  0
 53 52  2  0  0  0  0
M  END
>  <MODEL>
6

>  <REMARK>
 VINA RESULT:      -8.0      1.422      2.019
  Name = 
  7 active torsions:
  status: ('A' for Active; 'I' for Inactive)
    1  A    between atoms: C_4  and  C_45
    2  A    between atoms: C_10  and  C_15
    3  A    between atoms: N_11  and  N_46
    4  A    between atoms: C_14  and  C_23
    5  A    between atoms: C_14  and  O_42
    6  A    between atoms: C_15  and  O_42
    7  A    between atoms: C_45  and  C_47
                            x       y       z     vdW  Elec       q    Type
                         _______ _______ _______ _____ _____    ______ ____

>  <TORSDO>
F 7

$$$$
=
 OpenBabel11042417393D

 54 61  0  0  1  0  0  0  0  0999 V2000
  190.7940  170.8080  136.1710 N   0  0  0  0  0  0  0  0  0  0  0  0
  191.9690  171.1770  138.2450 C   0  0  0  0  0  0  0  0  0  0  0  0
  190.0430  175.5540  143.6190 C   0  0  2  0  0  3  0  0  0  0  0  0
  189.7940  171.7120  136.5780 N   0  0  0  0  0  2  0  0  0  0  0  0
  195.4560  171.6860  143.4540 C   0  0  0  0  0  2  0  0  0  0  0  0
  189.9100  175.4640  142.0830 C   0  0  0  0  0  2  0  0  0  0  0  0
  193.0060  170.8450  139.1330 C   0  0  0  0  0  3  0  0  0  0  0  0
  193.1520  171.5160  140.3510 C   0  0  0  0  0  0  0  0  0  0  0  0
  194.7000  172.2570  142.2300 C   0  0  2  0  0  3  0  0  0  0  0  0
  190.0760  173.6590  140.3320 C   0  0  0  0  0  0  0  0  0  0  0  0
  193.8430  173.0530  144.9560 C   0  0  2  0  0  3  0  0  0  0  0  0
  195.3180  172.5820  144.7090 C   0  0  2  0  0  3  0  0  0  0  0  0
  191.9150  175.0420  145.6980 S   0  0  0  0  0  0  0  0  0  0  0  0
  193.5300  173.1060  142.7300 C   0  0  2  0  0  3  0  0  0  0  0  0
  191.8130  170.5080  136.9140 C   0  0  0  0  0  0  0  0  0  0  0  0
  187.8320  174.7650  139.8620 C   0  0  0  0  0  1  0  0  0  0  0  0
  189.9130  172.4030  137.8160 C   0  0  0  0  0  0  0  0  0  0  0  0
  192.2510  172.5340  140.6930 C   0  0  0  0  0  0  0  0  0  0  0  0
  192.9940  172.5930  143.9260 O   0  0  0  0  0  0  0  0  0  0  0  0
  188.9230  173.3000  138.2140 C   0  0  0  0  0  3  0  0  0  0  0  0
  194.2440  171.1060  141.3100 C   0  0  0  0  0  2  0  0  0  0  0  0
  191.2390  174.6980  144.0410 C   0  0  0  0  0  2  0  0  0  0  0  0
  190.0620  174.1040  141.6630 O   0  0  0  0  0  0  0  0  0  0  0  0
  193.6420  174.5690  145.2320 C   0  0  0  0  0  2  0  0  0  0  0  0
  192.7990  169.6260  136.3540 N   0  0  0  0  0  2  0  0  0  0  0  0
  191.1190  172.7890  139.8940 C   0  0  0  0  0  0  0  0  0  0  0  0
  192.5120  173.3510  141.7840 O   0  0  0  0  0  0  0  0  0  0  0  0
  189.0040  173.9350  139.4580 C   0  0  0  0  0  0  0  0  0  0  0  0
  191.0080  172.1320  138.6460 C   0  0  0  0  0  0  0  0  0  0  0  0
  195.1230  170.0060  136.4500 C   0  0  0  0  0  0  0  0  0  0  0  0
  196.4220  169.8020  137.1280 C   0  0  0  0  0  3  0  0  0  0  0  0
  194.0670  169.4150  136.9160 N   0  0  0  0  0  0  0  0  0  0  0  0
  197.4160  171.6160  135.7770 C   0  0  0  0  0  2  0  0  0  0  0  0
  197.5000  170.5220  136.7940 C   0  0  0  0  0  3  0  0  0  0  0  0
  195.0280  170.9860  135.3000 C   0  0  0  0  0  2  0  0  0  0  0  0
  196.4090  171.2360  134.6800 C   0  0  0  0  0  2  0  0  0  0  0  0
  196.3710  173.6430  144.7940 C   0  0  0  0  0  0  0  0  0  0  0  0
  196.9340  173.9150  145.8950 O   0  0  0  0  0  0  0  0  0  0  0  0
  196.7840  174.2710  143.6100 O   0  0  0  0  0  0  0  0  0  0  0  0
  195.9060  176.4030  143.8400 O   0  0  0  0  0  1  0  0  0  0  0  0
  197.0580  175.6740  143.5380 C   0  0  2  0  0  3  0  0  0  0  0  0
  196.4980  176.6310  141.3410 N   0  0  0  0  0  1  0  0  0  0  0  0
  197.5740  176.0770  142.1570 C   0  0  0  0  0  2  0  0  0  0  0  0
  188.7740  174.9970  144.2530 C   0  0  0  0  0  2  0  0  0  0  0  0
  186.7430  176.4930  143.7530 C   0  0  0  0  0  0  0  0  0  0  0  0
  185.6900  179.5590  145.4020 O   0  0  0  0  0  0  0  0  0  0  0  0
  186.5210  175.8240  142.7040 O   0  0  0  0  0  0  0  0  0  0  0  0
  186.2430  178.4360  145.2270 C   0  0  0  0  0  0  0  0  0  0  0  0
  184.9400  178.1100  143.1010 C   0  0  0  0  0  1  0  0  0  0  0  0
  187.1650  177.8930  146.2880 C   0  0  2  0  0  3  0  0  0  0  0  0
  185.9650  177.6680  144.0400 N   0  0  0  0  0  0  0  0  0  0  0  0
  187.8420  176.0970  144.6580 C   0  0  0  0  0  0  0  0  0  0  0  0
  188.0500  176.7730  145.8000 C   0  0  0  0  0  3  0  0  0  0  0  0
  186.3570  177.4330  147.4920 C   0  0  0  0  0  1  0  0  0  0  0  0
  1  4  1  0  0  0  0
  1 15  2  0  0  0  0
  2 29  2  0  0  0  0
  2  7  1  0  0  0  0
  3 22  1  0  0  0  0
  3 44  1  1  0  0  0
  4 17  1  0  0  0  0
  5 12  1  0  0  0  0
  6  3  1  0  0  0  0
  7  8  2  0  0  0  0
  8 18  1  0  0  0  0
  8 21  1  0  0  0  0
  9 21  1  6  0  0  0
  9 14  1  0  0  0  0
  9  5  1  0  0  0  0
 10 23  1  0  0  0  0
 11 24  1  6  0  0  0
 12 37  1  6  0  0  0
 12 11  1  0  0  0  0
 14 27  1  6  0  0  0
 14 19  1  0  0  0  0
 15  2  1  0  0  0  0
 17 20  2  0  0  0  0
 17 29  1  0  0  0  0
 18 27  1  0  0  0  0
 19 11  1  0  0  0  0
 20 28  1  0  0  0  0
 22 13  1  0  0  0  0
 23  6  1  0  0  0  0
 24 13  1  0  0  0  0
 25 15  1  0  0  0  0
 25 32  1  0  0  0  0
 26 10  1  0  0  0  0
 26 18  2  0  0  0  0
 28 16  1  0  0  0  0
 28 10  2  0  0  0  0
 29 26  1  0  0  0  0
 30 32  2  0  0  0  0
 30 31  1  0  0  0  0
 33 34  1  0  0  0  0
 34 31  2  0  0  0  0
 35 30  1  0  0  0  0
 36 35  1  0  0  0  0
 36 33  1  0  0  0  0
 37 38  2  0  0  0  0
 39 37  1  0  0  0  0
 41 39  1  0  0  0  0
 41 40  1  6  0  0  0
 42 43  1  0  0  0  0
 43 41  1  0  0  0  0
 44 52  1  0  0  0  0
 45 51  1  0  0  0  0
 45 52  1  0  0  0  0
 47 45  2  0  0  0  0
 48 46  2  0  0  0  0
 48 50  1  0  0  0  0
 49 51  1  0  0  0  0
 50 54  1  1  0  0  0
 51 48  1  0  0  0  0
 52 53  2  0  0  0  0
 53 50  1  0  0  0  0
M  END
>  <MODEL>
7

>  <REMARK>
 VINA RESULT:      -7.9      3.819     10.554
  Name = 
  7 active torsions:
  status: ('A' for Active; 'I' for Inactive)
    1  A    between atoms: C_4  and  C_45
    2  A    between atoms: C_10  and  C_15
    3  A    between atoms: N_11  and  N_46
    4  A    between atoms: C_14  and  C_23
    5  A    between atoms: C_14  and  O_42
    6  A    between atoms: C_15  and  O_42
    7  A    between atoms: C_45  and  C_47
                            x       y       z     vdW  Elec       q    Type
                         _______ _______ _______ _____ _____    ______ ____

>  <TORSDO>
F 7

$$$$
=
 OpenBabel11042417393D

 54 61  0  0  1  0  0  0  0  0999 V2000
  191.2890  171.2820  137.8440 N   0  0  0  0  0  0  0  0  0  0  0  0
  190.6660  172.8530  139.5650 C   0  0  0  0  0  0  0  0  0  0  0  0
  193.6070  173.5480  146.0940 C   0  0  2  0  0  3  0  0  0  0  0  0
  192.2950  170.7650  138.6820 N   0  0  0  0  0  2  0  0  0  0  0  0
  188.6160  177.1940  143.6280 C   0  0  0  0  0  2  0  0  0  0  0  0
  193.3450  172.4460  145.0440 C   0  0  0  0  0  2  0  0  0  0  0  0
  189.9190  173.9660  139.9850 C   0  0  0  0  0  3  0  0  0  0  0  0
  190.0470  174.4690  141.2850 C   0  0  0  0  0  0  0  0  0  0  0  0
  188.9890  175.7510  143.2110 C   0  0  2  0  0  3  0  0  0  0  0  0
  192.8580  172.3490  142.5730 C   0  0  0  0  0  0  0  0  0  0  0  0
  190.4640  177.0370  145.4410 C   0  0  2  0  0  3  0  0  0  0  0  0
  189.0110  177.5120  145.0900 C   0  0  2  0  0  3  0  0  0  0  0  0
  192.3750  175.8500  147.2200 S   0  0  0  0  0  0  0  0  0  0  0  0
  190.1870  175.2950  144.0470 C   0  0  2  0  0  3  0  0  0  0  0  0
  190.5200  172.2640  138.1960 C   0  0  0  0  0  0  0  0  0  0  0  0
  194.8220  170.7580  142.8740 C   0  0  0  0  0  1  0  0  0  0  0  0
  192.4520  171.2620  140.0060 C   0  0  0  0  0  0  0  0  0  0  0  0
  190.9330  173.8550  142.1800 C   0  0  0  0  0  0  0  0  0  0  0  0
  191.0470  176.3680  144.3430 O   0  0  0  0  0  0  0  0  0  0  0  0
  193.4470  170.7450  140.8340 C   0  0  0  0  0  3  0  0  0  0  0  0
  189.2710  175.6970  141.6960 C   0  0  0  0  0  2  0  0  0  0  0  0
  192.6230  174.6900  145.8360 C   0  0  0  0  0  2  0  0  0  0  0  0
  193.1840  173.0390  143.7500 O   0  0  0  0  0  0  0  0  0  0  0  0
  190.6240  176.2280  146.7580 C   0  0  0  0  0  2  0  0  0  0  0  0
  189.4860  172.6520  137.2770 N   0  0  0  0  0  2  0  0  0  0  0  0
  191.7990  172.8330  141.7460 C   0  0  0  0  0  0  0  0  0  0  0  0
  190.9060  174.1990  143.5250 O   0  0  0  0  0  0  0  0  0  0  0  0
  193.6460  171.2730  142.1140 C   0  0  0  0  0  0  0  0  0  0  0  0
  191.6300  172.3080  140.4440 C   0  0  0  0  0  0  0  0  0  0  0  0
  188.1570  174.5650  136.9110 C   0  0  0  0  0  0  0  0  0  0  0  0
  186.9810  175.3880  137.2680 C   0  0  0  0  0  3  0  0  0  0  0  0
  188.4240  173.5060  137.6120 N   0  0  0  0  0  0  0  0  0  0  0  0
  187.2230  176.6530  135.1600 C   0  0  0  0  0  2  0  0  0  0  0  0
  186.5640  176.3830  136.4750 C   0  0  0  0  0  3  0  0  0  0  0  0
  188.9570  174.9040  135.6710 C   0  0  0  0  0  2  0  0  0  0  0  0
  188.7290  176.3640  135.2570 C   0  0  0  0  0  2  0  0  0  0  0  0
  187.9440  177.1560  146.0790 C   0  0  0  0  0  0  0  0  0  0  0  0
  187.3500  176.0380  146.0220 O   0  0  0  0  0  0  0  0  0  0  0  0
  187.6760  178.0510  147.1250 O   0  0  0  0  0  0  0  0  0  0  0  0
  185.5930  177.6640  148.0620 O   0  0  0  0  0  1  0  0  0  0  0  0
  186.3710  178.5890  147.3620 C   0  0  2  0  0  3  0  0  0  0  0  0
  184.4400  178.2020  145.8870 N   0  0  0  0  0  1  0  0  0  0  0  0
  185.6710  178.9670  146.0580 C   0  0  0  0  0  2  0  0  0  0  0  0
  195.0320  174.0590  145.9210 C   0  0  0  0  0  2  0  0  0  0  0  0
  196.2620  174.1040  143.6630 C   0  0  0  0  0  0  0  0  0  0  0  0
  196.2940  176.7020  141.1190 O   0  0  0  0  0  0  0  0  0  0  0  0
  196.8820  173.0520  143.9910 O   0  0  0  0  0  0  0  0  0  0  0  0
  195.8980  175.9990  142.0910 C   0  0  0  0  0  0  0  0  0  0  0  0
  197.6730  174.2900  141.5980 C   0  0  0  0  0  1  0  0  0  0  0  0
  194.6670  176.4200  142.8530 C   0  0  2  0  0  3  0  0  0  0  0  0
  196.5940  174.7890  142.4430 N   0  0  0  0  0  0  0  0  0  0  0  0
  195.2320  174.6600  144.5640 C   0  0  0  0  0  0  0  0  0  0  0  0
  194.5340  175.7480  144.1980 C   0  0  0  0  0  3  0  0  0  0  0  0
  193.4240  176.1640  142.0160 C   0  0  0  0  0  1  0  0  0  0  0  0
  1 15  2  0  0  0  0
  1  4  1  0  0  0  0
  2  7  2  0  0  0  0
  2 29  1  0  0  0  0
  3 44  1  6  0  0  0
  4 17  1  0  0  0  0
  5 12  1  0  0  0  0
  6  3  1  0  0  0  0
  7  8  1  0  0  0  0
  8 21  1  0  0  0  0
  8 18  2  0  0  0  0
  9 21  1  6  0  0  0
  9  5  1  0  0  0  0
  9 14  1  0  0  0  0
 10 23  1  0  0  0  0
 11 24  1  1  0  0  0
 12 11  1  0  0  0  0
 12 37  1  1  0  0  0
 14 27  1  6  0  0  0
 14 19  1  0  0  0  0
 15  2  1  0  0  0  0
 17 29  2  0  0  0  0
 17 20  1  0  0  0  0
 18 27  1  0  0  0  0
 19 11  1  0  0  0  0
 20 28  2  0  0  0  0
 22  3  1  0  0  0  0
 22 13  1  0  0  0  0
 23  6  1  0  0  0  0
 24 13  1  0  0  0  0
 25 32  1  0  0  0  0
 25 15  1  0  0  0  0
 26 18  1  0  0  0  0
 26 10  2  0  0  0  0
 28 10  1  0  0  0  0
 28 16  1  0  0  0  0
 29 26  1  0  0  0  0
 30 31  1  0  0  0  0
 30 32  2  0  0  0  0
 33 36  1  0  0  0  0
 33 34  1  0  0  0  0
 34 31  2  0  0  0  0
 35 30  1  0  0  0  0
 36 35  1  0  0  0  0
 37 39  1  0  0  0  0
 38 37  2  0  0  0  0
 39 41  1  0  0  0  0
 41 40  1  6  0  0  0
 42 43  1  0  0  0  0
 43 41  1  0  0  0  0
 45 47  2  0  0  0  0
 45 52  1  0  0  0  0
 46 48  2  0  0  0  0
 48 51  1  0  0  0  0
 48 50  1  0  0  0  0
 49 51  1  0  0  0  0
 50 54  1  6  0  0  0
 50 53  1  0  0  0  0
 51 45  1  0  0  0  0
 52 44  1  0  0  0  0
 53 52  2  0  0  0  0
M  END
>  <MODEL>
8

>  <REMARK>
 VINA RESULT:      -7.8      3.258      7.586
  Name = 
  7 active torsions:
  status: ('A' for Active; 'I' for Inactive)
    1  A    between atoms: C_4  and  C_45
    2  A    between atoms: C_10  and  C_15
    3  A    between atoms: N_11  and  N_46
    4  A    between atoms: C_14  and  C_23
    5  A    between atoms: C_14  and  O_42
    6  A    between atoms: C_15  and  O_42
    7  A    between atoms: C_45  and  C_47
                            x       y       z     vdW  Elec       q    Type
                         _______ _______ _______ _____ _____    ______ ____

>  <TORSDO>
F 7

$$$$
=
 OpenBabel11042417393D

 54 61  0  0  1  0  0  0  0  0999 V2000
  187.8480  176.5930  141.8010 N   0  0  0  0  0  0  0  0  0  0  0  0
  190.0100  175.6670  142.3410 C   0  0  0  0  0  0  0  0  0  0  0  0
  193.2420  170.0510  139.2160 C   0  0  2  0  0  3  0  0  0  0  0  0
  187.6910  175.6290  140.7860 N   0  0  0  0  0  2  0  0  0  0  0  0
  195.7050  173.7360  144.1810 C   0  0  0  0  0  2  0  0  0  0  0  0
  191.8140  170.5480  139.5320 C   0  0  0  0  0  2  0  0  0  0  0  0
  191.2200  175.7350  143.0500 C   0  0  0  0  0  3  0  0  0  0  0  0
  192.2100  174.7620  142.8770 C   0  0  0  0  0  0  0  0  0  0  0  0
  194.2070  173.5240  143.8530 C   0  0  2  0  0  3  0  0  0  0  0  0
  190.7210  172.7500  140.0850 C   0  0  0  0  0  0  0  0  0  0  0  0
  196.2510  172.0460  142.2910 C   0  0  2  0  0  3  0  0  0  0  0  0
  196.5850  172.5420  143.7410 C   0  0  2  0  0  3  0  0  0  0  0  0
  195.8430  169.9620  140.3640 S   0  0  0  0  0  0  0  0  0  0  0  0
  194.0980  172.5910  142.6460 C   0  0  2  0  0  3  0  0  0  0  0  0
  188.9120  176.6680  142.5360 C   0  0  0  0  0  0  0  0  0  0  0  0
  189.3340  171.8450  138.1520 C   0  0  0  0  0  1  0  0  0  0  0  0
  188.6850  174.6320  140.5830 C   0  0  0  0  0  0  0  0  0  0  0  0
  191.9920  173.7040  141.9830 C   0  0  0  0  0  0  0  0  0  0  0  0
  195.1690  172.7760  141.7520 O   0  0  0  0  0  0  0  0  0  0  0  0
  188.5240  173.6780  139.5800 C   0  0  0  0  0  3  0  0  0  0  0  0
  193.5230  174.8850  143.6120 C   0  0  0  0  0  2  0  0  0  0  0  0
  194.2070  170.7450  140.1790 C   0  0  0  0  0  2  0  0  0  0  0  0
  191.8250  171.9680  139.7120 O   0  0  0  0  0  0  0  0  0  0  0  0
  196.0530  170.5150  142.1170 C   0  0  0  0  0  2  0  0  0  0  0  0
  188.9200  177.6510  143.5840 N   0  0  0  0  0  2  0  0  0  0  0  0
  190.8550  173.6890  141.1520 C   0  0  0  0  0  0  0  0  0  0  0  0
  192.8610  172.6220  141.9660 O   0  0  0  0  0  0  0  0  0  0  0  0
  189.5270  172.7340  139.3350 C   0  0  0  0  0  0  0  0  0  0  0  0
  189.8440  174.6550  141.3680 C   0  0  0  0  0  0  0  0  0  0  0  0
  189.7890  176.8920  145.6400 C   0  0  0  0  0  0  0  0  0  0  0  0
  190.8580  176.9210  146.6620 C   0  0  0  0  0  3  0  0  0  0  0  0
  189.8700  177.6850  144.6160 N   0  0  0  0  0  0  0  0  0  0  0  0
  189.9370  174.8730  147.6900 C   0  0  0  0  0  2  0  0  0  0  0  0
  190.9110  176.0070  147.6380 C   0  0  0  0  0  3  0  0  0  0  0  0
  188.6850  175.8610  145.7440 C   0  0  0  0  0  2  0  0  0  0  0  0
  188.5630  175.3370  147.1820 C   0  0  0  0  0  2  0  0  0  0  0  0
  196.7040  171.4800  144.7890 C   0  0  0  0  0  0  0  0  0  0  0  0
  197.8210  170.9400  145.0470 O   0  0  0  0  0  0  0  0  0  0  0  0
  195.5660  171.1540  145.5420 O   0  0  0  0  0  0  0  0  0  0  0  0
  193.6990  169.9280  144.9280 O   0  0  0  0  0  1  0  0  0  0  0  0
  194.9670  169.8550  145.5090 C   0  0  2  0  0  3  0  0  0  0  0  0
  196.1790  168.9870  147.4660 N   0  0  0  0  0  1  0  0  0  0  0  0
  194.8570  169.2490  146.9070 C   0  0  0  0  0  2  0  0  0  0  0  0
  193.5900  170.4390  137.7840 C   0  0  0  0  0  2  0  0  0  0  0  0
  192.6140  172.5290  136.6490 C   0  0  0  0  0  0  0  0  0  0  0  0
  193.9300  175.9180  136.5610 O   0  0  0  0  0  0  0  0  0  0  0  0
  191.7460  171.8050  136.0820 O   0  0  0  0  0  0  0  0  0  0  0  0
  193.7190  174.7380  136.9600 C   0  0  0  0  0  0  0  0  0  0  0  0
  191.8320  174.5050  135.3150 C   0  0  0  0  0  1  0  0  0  0  0  0
  194.5050  174.2020  138.1290 C   0  0  2  0  0  3  0  0  0  0  0  0
  192.7110  173.9280  136.3260 N   0  0  0  0  0  0  0  0  0  0  0  0
  193.5650  171.9260  137.6040 C   0  0  0  0  0  0  0  0  0  0  0  0
  194.4550  172.6980  138.2480 C   0  0  0  0  0  3  0  0  0  0  0  0
  194.0200  174.8450  139.4200 C   0  0  0  0  0  1  0  0  0  0  0  0
  1 15  2  0  0  0  0
  2 15  1  0  0  0  0
  2  7  1  0  0  0  0
  3 44  1  6  0  0  0
  3  6  1  0  0  0  0
  3 22  1  0  0  0  0
  4  1  1  0  0  0  0
  6 23  1  0  0  0  0
  8  7  2  0  0  0  0
  8 21  1  0  0  0  0
  9 21  1  6  0  0  0
  9  5  1  0  0  0  0
 10 26  1  0  0  0  0
 11 24  1  1  0  0  0
 11 12  1  0  0  0  0
 12  5  1  0  0  0  0
 12 37  1  1  0  0  0
 13 24  1  0  0  0  0
 14 19  1  6  0  0  0
 14  9  1  0  0  0  0
 15 25  1  0  0  0  0
 16 28  1  0  0  0  0
 17  4  1  0  0  0  0
 17 29  1  0  0  0  0
 18  8  1  0  0  0  0
 19 11  1  0  0  0  0
 20 17  2  0  0  0  0
 22 13  1  0  0  0  0
 23 10  1  0  0  0  0
 25 32  1  0  0  0  0
 26 29  1  0  0  0  0
 26 18  2  0  0  0  0
 27 18  1  0  0  0  0
 27 14  1  0  0  0  0
 28 20  1  0  0  0  0
 28 10  2  0  0  0  0
 29  2  2  0  0  0  0
 30 35  1  0  0  0  0
 30 31  1  0  0  0  0
 31 34  2  0  0  0  0
 32 30  2  0  0  0  0
 34 33  1  0  0  0  0
 35 36  1  0  0  0  0
 36 33  1  0  0  0  0
 37 38  2  0  0  0  0
 37 39  1  0  0  0  0
 41 40  1  1  0  0  0
 41 39  1  0  0  0  0
 41 43  1  0  0  0  0
 43 42  1  0  0  0  0
 45 52  1  0  0  0  0
 46 48  2  0  0  0  0
 47 45  2  0  0  0  0
 48 50  1  0  0  0  0
 49 51  1  0  0  0  0
 50 53  1  0  0  0  0
 50 54  1  1  0  0  0
 51 45  1  0  0  0  0
 51 48  1  0  0  0  0
 52 44  1  0  0  0  0
 52 53  2  0  0  0  0
M  END
>  <MODEL>
9

>  <REMARK>
 VINA RESULT:      -7.1      3.290      8.182
  Name = 
  7 active torsions:
  status: ('A' for Active; 'I' for Inactive)
    1  A    between atoms: C_4  and  C_45
    2  A    between atoms: C_10  and  C_15
    3  A    between atoms: N_11  and  N_46
    4  A    between atoms: C_14  and  C_23
    5  A    between atoms: C_14  and  O_42
    6  A    between atoms: C_15  and  O_42
    7  A    between atoms: C_45  and  C_47
                            x       y       z     vdW  Elec       q    Type
                         _______ _______ _______ _____ _____    ______ ____

>  <TORSDO>
F 7

$$$$
