=
 OpenBabel11042419263D

 40 49  0  0  1  0  0  0  0  0999 V2000
  189.6590  170.2260  137.9580 O   0  0  0  0  0  1  0  0  0  0  0  0
  189.5440  174.0860  142.5660 C   0  0  0  0  0  0  0  0  0  0  0  0
  191.6580  172.6860  140.7080 N   0  0  0  0  0  0  0  0  0  0  0  0
  188.3690  172.3620  139.5210 N   0  0  0  0  0  0  0  0  0  0  0  0
  190.3770  172.9440  140.3970 C   0  0  0  0  0  0  0  0  0  0  0  0
  192.2690  173.2970  141.6980 N   0  0  0  0  0  0  0  0  0  0  0  0
  188.6720  175.0940  143.1020 C   0  0  0  0  0  3  0  0  0  0  0  0
  190.3790  173.6190  143.5620 C   0  0  0  0  0  0  0  0  0  0  0  0
  189.6940  172.1530  139.4270 C   0  0  0  0  0  0  0  0  0  0  0  0
  190.3350  171.0440  138.8570 C   0  0  0  0  0  0  0  0  0  0  0  0
  189.6180  175.0580  145.4810 C   0  0  0  0  0  3  0  0  0  0  0  0
  188.7060  175.5790  144.4890 C   0  0  0  0  0  0  0  0  0  0  0  0
  192.7420  173.5980  144.4220 C   0  0  1  0  0  3  0  0  0  0  0  0
  189.4100  173.5450  141.1810 C   0  0  0  0  0  0  0  0  0  0  0  0
  193.5870  172.7290  143.5860 N   0  0  0  0  0  2  0  0  0  0  0  0
  193.5830  171.2060  141.2760 S   0  0  0  0  0  0  0  0  0  0  0  0
  193.3000  172.6100  142.1960 C   0  0  0  0  0  0  0  0  0  0  0  0
  191.2820  173.0660  144.5110 C   0  0  1  0  0  3  0  0  0  0  0  0
  190.4030  174.0870  144.9410 C   0  0  0  0  0  0  0  0  0  0  0  0
  191.6530  170.7300  139.2910 C   0  0  0  0  0  0  0  0  0  0  0  0
  188.1940  173.2100  140.5740 C   0  0  0  0  0  3  0  0  0  0  0  0
  192.2630  171.5570  140.2670 C   0  0  0  0  0  0  0  0  0  0  0  0
  186.3710  178.2170  144.7410 C   0  0  0  0  0  0  0  0  0  0  0  0
  187.1320  177.3740  144.0160 N   0  0  0  0  0  0  0  0  0  0  0  0
  187.5010  176.9110  146.1310 N   0  0  0  0  0  0  0  0  0  0  0  0
  186.6070  177.9180  146.0930 C   0  0  0  0  0  0  0  0  0  0  0  0
  187.7860  176.6090  144.8750 N   0  0  0  0  0  0  0  0  0  0  0  0
  185.5690  179.2940  144.0510 C   0  0  0  0  0  3  0  0  0  0  0  0
  184.8020  178.7710  142.8590 C   0  0  0  0  0  2  0  0  0  0  0  0
  184.0720  179.0980  144.1510 C   0  0  0  0  0  2  0  0  0  0  0  0
  186.9710  179.0870  148.3460 C   0  0  0  0  0  1  0  0  0  0  0  0
  186.0510  178.5060  147.3290 C   0  0  0  0  0  0  0  0  0  0  0  0
  184.8200  178.4750  147.5820 O   0  0  0  0  0  0  0  0  0  0  0  0
  192.8320  168.5650  138.4700 N   0  0  0  0  0  0  0  0  0  0  0  0
  192.3070  169.5290  138.8350 C   0  0  0  0  0  0  0  0  0  0  0  0
  193.3670  173.6840  145.8060 C   0  0  0  0  0  2  0  0  0  0  0  0
  193.6480  176.0670  145.1920 C   0  0  1  0  0  3  0  0  0  0  0  0
  194.5460  177.1610  145.7350 C   0  0  0  0  0  2  0  0  0  0  0  0
  194.7040  175.7310  146.2080 C   0  0  1  0  0  3  0  0  0  0  0  0
  193.3250  175.1090  146.3220 C   0  0  2  0  0  3  0  0  0  0  0  0
  1 10  1  0  0  0  0
  2  7  2  0  0  0  0
  2  8  1  0  0  0  0
  3  6  1  0  0  0  0
  4 21  2  0  0  0  0
  5  3  1  0  0  0  0
  5 14  2  0  0  0  0
  6 17  2  0  0  0  0
  7 12  1  0  0  0  0
  8 19  2  0  0  0  0
  9  4  1  0  0  0  0
  9  5  1  0  0  0  0
 10 20  1  0  0  0  0
 10  9  2  0  0  0  0
 12 27  1  0  0  0  0
 12 11  2  0  0  0  0
 13 18  1  0  0  0  0
 13 36  1  1  0  0  0
 14  2  1  0  0  0  0
 15 13  1  0  0  0  0
 16 17  1  0  0  0  0
 17 15  1  0  0  0  0
 18  8  1  6  0  0  0
 18 19  1  0  0  0  0
 19 11  1  0  0  0  0
 20 22  2  0  0  0  0
 21 14  1  0  0  0  0
 22  3  1  0  0  0  0
 22 16  1  0  0  0  0
 23 26  1  0  0  0  0
 24 23  2  0  0  0  0
 24 27  1  0  0  0  0
 26 25  2  0  0  0  0
 26 32  1  0  0  0  0
 27 25  1  0  0  0  0
 28 30  1  0  0  0  0
 28 23  1  0  0  0  0
 29 28  1  0  0  0  0
 29 30  1  0  0  0  0
 32 33  2  0  0  0  0
 32 31  1  0  0  0  0
 34 35  3  0  0  0  0
 35 20  1  0  0  0  0
 37 38  1  1  0  0  0
 37 39  1  0  0  0  0
 37 40  1  0  0  0  0
 39 38  1  1  0  0  0
 39 40  1  0  0  0  0
 40 36  1  6  0  0  0
M  END
>  <MODEL>
1

>  <REMARK>
 VINA RESULT:      -8.3      0.000      0.000
  Name = 
  6 active torsions:
  status: ('A' for Active; 'I' for Inactive)
    1  A    between atoms: C_5  and  C_15
    2  A    between atoms: C_17  and  C_22
    3  A    between atoms: C_17  and  C_27
    4  A    between atoms: C_19  and  C_28
    5  A    between atoms: C_24  and  N_38
    6  A    between atoms: C_26  and  C_37
                            x       y       z     vdW  Elec       q    Type
                         _______ _______ _______ _____ _____    ______ ____

>  <TORSDO>
F 6

$$$$
=
 OpenBabel11042419263D

 40 49  0  0  1  0  0  0  0  0999 V2000
  195.2580  175.2470  146.4320 O   0  0  0  0  0  1  0  0  0  0  0  0
  189.8560  175.3530  143.7950 C   0  0  0  0  0  0  0  0  0  0  0  0
  192.1220  173.2780  144.4580 N   0  0  0  0  0  0  0  0  0  0  0  0
  192.5390  176.3370  146.1300 N   0  0  0  0  0  0  0  0  0  0  0  0
  191.8750  174.4200  145.1200 C   0  0  0  0  0  0  0  0  0  0  0  0
  191.2290  172.7260  143.6660 N   0  0  0  0  0  0  0  0  0  0  0  0
  188.6270  176.0910  143.8930 C   0  0  0  0  0  3  0  0  0  0  0  0
  189.9610  174.7930  142.5380 C   0  0  0  0  0  0  0  0  0  0  0  0
  192.9140  175.0780  145.8400 C   0  0  0  0  0  0  0  0  0  0  0  0
  194.2220  174.5780  145.7860 C   0  0  0  0  0  0  0  0  0  0  0  0
  187.7840  175.5600  141.5340 C   0  0  0  0  0  3  0  0  0  0  0  0
  187.6200  176.1860  142.8260 C   0  0  0  0  0  0  0  0  0  0  0  0
  189.8860  172.6440  141.2320 C   0  0  1  0  0  3  0  0  0  0  0  0
  190.9000  175.3660  144.8620 C   0  0  0  0  0  0  0  0  0  0  0  0
  191.1110  171.8590  141.4620 N   0  0  0  0  0  2  0  0  0  0  0  0
  193.4390  171.7870  142.9550 S   0  0  0  0  0  0  0  0  0  0  0  0
  191.7600  171.9380  142.7280 C   0  0  0  0  0  0  0  0  0  0  0  0
  190.1690  174.1740  141.2740 C   0  0  1  0  0  3  0  0  0  0  0  0
  188.9720  174.8990  141.4730 C   0  0  0  0  0  0  0  0  0  0  0  0
  194.4740  173.4310  144.9840 C   0  0  0  0  0  0  0  0  0  0  0  0
  191.3190  176.5120  145.5480 C   0  0  0  0  0  3  0  0  0  0  0  0
  193.3910  172.8380  144.2890 C   0  0  0  0  0  0  0  0  0  0  0  0
  184.9540  178.1230  144.0950 C   0  0  0  0  0  0  0  0  0  0  0  0
  186.1450  177.5090  144.2390 N   0  0  0  0  0  0  0  0  0  0  0  0
  185.4780  177.1420  142.1780 N   0  0  0  0  0  0  0  0  0  0  0  0
  184.5310  177.8890  142.7770 C   0  0  0  0  0  0  0  0  0  0  0  0
  186.4270  176.9410  143.0770 N   0  0  0  0  0  0  0  0  0  0  0  0
  184.3000  178.7890  145.2820 C   0  0  0  0  0  3  0  0  0  0  0  0
  184.2980  177.9090  146.5110 C   0  0  0  0  0  2  0  0  0  0  0  0
  185.2540  179.0860  146.4180 C   0  0  0  0  0  2  0  0  0  0  0  0
  183.2890  178.2790  140.5680 C   0  0  0  0  0  1  0  0  0  0  0  0
  183.3150  178.3200  142.0560 C   0  0  0  0  0  0  0  0  0  0  0  0
  182.3160  178.7820  142.6610 O   0  0  0  0  0  0  0  0  0  0  0  0
  196.9010  172.5720  144.6330 N   0  0  0  0  0  0  0  0  0  0  0  0
  195.8200  172.9540  144.7890 C   0  0  0  0  0  0  0  0  0  0  0  0
  189.3080  172.2420  139.8840 C   0  0  0  0  0  2  0  0  0  0  0  0
  189.0730  173.6240  137.8430 C   0  0  1  0  0  3  0  0  0  0  0  0
  189.5160  173.4100  136.4090 C   0  0  0  0  0  2  0  0  0  0  0  0
  189.6590  172.3020  137.4330 C   0  0  1  0  0  3  0  0  0  0  0  0
  190.0590  172.9240  138.7570 C   0  0  2  0  0  3  0  0  0  0  0  0
  2  7  1  0  0  0  0
  2 14  1  0  0  0  0
  3  5  1  0  0  0  0
  5  9  1  0  0  0  0
  6  3  1  0  0  0  0
  8  2  2  0  0  0  0
  9  4  1  0  0  0  0
 10  9  2  0  0  0  0
 10  1  1  0  0  0  0
 11 12  1  0  0  0  0
 12 27  1  0  0  0  0
 12  7  2  0  0  0  0
 13 36  1  6  0  0  0
 13 18  1  0  0  0  0
 13 15  1  0  0  0  0
 14  5  2  0  0  0  0
 14 21  1  0  0  0  0
 15 17  1  0  0  0  0
 16 22  1  0  0  0  0
 17 16  1  0  0  0  0
 17  6  2  0  0  0  0
 18 19  1  6  0  0  0
 18  8  1  0  0  0  0
 19 11  2  0  0  0  0
 19  8  1  0  0  0  0
 20 10  1  0  0  0  0
 21  4  2  0  0  0  0
 22  3  1  0  0  0  0
 22 20  2  0  0  0  0
 23 24  2  0  0  0  0
 23 28  1  0  0  0  0
 25 26  2  0  0  0  0
 25 27  1  0  0  0  0
 26 23  1  0  0  0  0
 27 24  1  0  0  0  0
 28 30  1  0  0  0  0
 28 29  1  0  0  0  0
 30 29  1  0  0  0  0
 31 32  1  0  0  0  0
 32 33  2  0  0  0  0
 32 26  1  0  0  0  0
 34 35  3  0  0  0  0
 35 20  1  0  0  0  0
 37 38  1  6  0  0  0
 37 40  1  0  0  0  0
 39 38  1  6  0  0  0
 39 37  1  0  0  0  0
 39 40  1  0  0  0  0
 40 36  1  1  0  0  0
M  END
>  <MODEL>
2

>  <REMARK>
 VINA RESULT:      -8.1      2.745      5.918
  Name = 
  6 active torsions:
  status: ('A' for Active; 'I' for Inactive)
    1  A    between atoms: C_5  and  C_15
    2  A    between atoms: C_17  and  C_22
    3  A    between atoms: C_17  and  C_27
    4  A    between atoms: C_19  and  C_28
    5  A    between atoms: C_24  and  N_38
    6  A    between atoms: C_26  and  C_37
                            x       y       z     vdW  Elec       q    Type
                         _______ _______ _______ _____ _____    ______ ____

>  <TORSDO>
F 6

$$$$
=
 OpenBabel11042419263D

 40 49  0  0  1  0  0  0  0  0999 V2000
  186.2730  178.2910  147.0640 O   0  0  0  0  0  1  0  0  0  0  0  0
  190.2940  174.5690  144.5880 C   0  0  0  0  0  0  0  0  0  0  0  0
  188.4220  176.9420  143.7220 N   0  0  0  0  0  0  0  0  0  0  0  0
  188.6910  176.6160  147.2070 N   0  0  0  0  0  0  0  0  0  0  0  0
  188.9100  176.7260  144.9540 C   0  0  0  0  0  0  0  0  0  0  0  0
  188.9480  176.3770  142.6580 N   0  0  0  0  0  0  0  0  0  0  0  0
  191.4770  173.8530  144.9760 C   0  0  0  0  0  3  0  0  0  0  0  0
  189.7200  173.9560  143.4920 C   0  0  0  0  0  0  0  0  0  0  0  0
  188.2230  177.2210  146.1010 C   0  0  0  0  0  0  0  0  0  0  0  0
  186.9850  177.8610  145.9490 C   0  0  0  0  0  0  0  0  0  0  0  0
  191.3690  172.0910  143.1220 C   0  0  0  0  0  3  0  0  0  0  0  0
  192.0110  172.6760  144.2760 C   0  0  0  0  0  0  0  0  0  0  0  0
  189.2790  174.1510  141.0230 C   0  0  1  0  0  3  0  0  0  0  0  0
  189.7250  175.6960  145.3850 C   0  0  0  0  0  0  0  0  0  0  0  0
  188.2230  175.1440  140.7660 N   0  0  0  0  0  2  0  0  0  0  0  0
  186.6230  177.0360  141.9970 S   0  0  0  0  0  0  0  0  0  0  0  0
  188.0970  176.2660  141.6350 C   0  0  0  0  0  0  0  0  0  0  0  0
  189.0470  173.4020  142.3680 C   0  0  1  0  0  3  0  0  0  0  0  0
  190.2390  172.7800  142.8060 C   0  0  0  0  0  0  0  0  0  0  0  0
  186.4400  177.9730  144.6390 C   0  0  0  0  0  0  0  0  0  0  0  0
  189.6060  175.7010  146.7790 C   0  0  0  0  0  3  0  0  0  0  0  0
  187.1780  177.4470  143.5490 C   0  0  0  0  0  0  0  0  0  0  0  0
  195.2330  171.8670  145.4750 C   0  0  0  0  0  0  0  0  0  0  0  0
  194.3200  172.7580  145.0410 N   0  0  0  0  0  0  0  0  0  0  0  0
  193.3620  170.7820  144.9910 N   0  0  0  0  0  0  0  0  0  0  0  0
  194.6170  170.6050  145.4440 C   0  0  0  0  0  0  0  0  0  0  0  0
  193.2180  172.0780  144.7680 N   0  0  0  0  0  0  0  0  0  0  0  0
  196.6420  172.3170  145.7790 C   0  0  0  0  0  3  0  0  0  0  0  0
  197.1640  173.3090  144.7660 C   0  0  0  0  0  2  0  0  0  0  0  0
  196.7490  173.7790  146.1500 C   0  0  0  0  0  2  0  0  0  0  0  0
  194.9750  168.7830  147.2120 C   0  0  0  0  0  1  0  0  0  0  0  0
  195.1260  169.2670  145.8120 C   0  0  0  0  0  0  0  0  0  0  0  0
  195.7430  168.5440  144.9900 O   0  0  0  0  0  0  0  0  0  0  0  0
  184.0510  178.9280  144.2820 N   0  0  0  0  0  0  0  0  0  0  0  0
  185.1140  178.5030  144.4400 C   0  0  0  0  0  0  0  0  0  0  0  0
  189.3070  173.1710  139.8610 C   0  0  0  0  0  2  0  0  0  0  0  0
  190.6550  172.2490  138.0000 C   0  0  1  0  0  3  0  0  0  0  0  0
  191.9080  171.3940  137.9730 C   0  0  0  0  0  2  0  0  0  0  0  0
  191.1990  171.6810  139.2810 C   0  0  1  0  0  3  0  0  0  0  0  0
  190.6920  173.1110  139.2470 C   0  0  2  0  0  3  0  0  0  0  0  0
  2  7  1  0  0  0  0
  2 14  1  0  0  0  0
  3  5  1  0  0  0  0
  5 14  2  0  0  0  0
  5  9  1  0  0  0  0
  6  3  1  0  0  0  0
  8  2  2  0  0  0  0
  9  4  1  0  0  0  0
 10  9  2  0  0  0  0
 10  1  1  0  0  0  0
 11 12  1  0  0  0  0
 12 27  1  0  0  0  0
 12  7  2  0  0  0  0
 13 36  1  6  0  0  0
 13 18  1  0  0  0  0
 14 21  1  0  0  0  0
 15 13  1  0  0  0  0
 15 17  1  0  0  0  0
 16 22  1  0  0  0  0
 17 16  1  0  0  0  0
 17  6  2  0  0  0  0
 18 19  1  6  0  0  0
 18  8  1  0  0  0  0
 19 11  2  0  0  0  0
 19  8  1  0  0  0  0
 20 10  1  0  0  0  0
 21  4  2  0  0  0  0
 22  3  1  0  0  0  0
 22 20  2  0  0  0  0
 23 28  1  0  0  0  0
 24 23  2  0  0  0  0
 25 26  2  0  0  0  0
 26 23  1  0  0  0  0
 26 32  1  0  0  0  0
 27 25  1  0  0  0  0
 27 24  1  0  0  0  0
 28 30  1  0  0  0  0
 29 28  1  0  0  0  0
 29 30  1  0  0  0  0
 32 31  1  0  0  0  0
 33 32  2  0  0  0  0
 34 35  3  0  0  0  0
 35 20  1  0  0  0  0
 37 38  1  6  0  0  0
 37 40  1  0  0  0  0
 37 39  1  0  0  0  0
 39 38  1  6  0  0  0
 40 39  1  0  0  0  0
 40 36  1  1  0  0  0
M  END
>  <MODEL>
3

>  <REMARK>
 VINA RESULT:      -7.9      2.992      9.118
  Name = 
  6 active torsions:
  status: ('A' for Active; 'I' for Inactive)
    1  A    between atoms: C_5  and  C_15
    2  A    between atoms: C_17  and  C_22
    3  A    between atoms: C_17  and  C_27
    4  A    between atoms: C_19  and  C_28
    5  A    between atoms: C_24  and  N_38
    6  A    between atoms: C_26  and  C_37
                            x       y       z     vdW  Elec       q    Type
                         _______ _______ _______ _____ _____    ______ ____

>  <TORSDO>
F 6

$$$$
=
 OpenBabel11042419263D

 40 49  0  0  1  0  0  0  0  0999 V2000
  190.4540  170.3930  137.1620 O   0  0  0  0  0  1  0  0  0  0  0  0
  189.1240  174.3680  141.4720 C   0  0  0  0  0  0  0  0  0  0  0  0
  191.6680  173.1390  140.0930 N   0  0  0  0  0  0  0  0  0  0  0  0
  188.6980  172.4290  138.3600 N   0  0  0  0  0  0  0  0  0  0  0  0
  190.4450  173.2490  139.5470 C   0  0  0  0  0  0  0  0  0  0  0  0
  192.0260  173.8440  141.1430 N   0  0  0  0  0  0  0  0  0  0  0  0
  188.0740  175.2940  141.7920 C   0  0  0  0  0  3  0  0  0  0  0  0
  189.8060  174.0240  142.6230 C   0  0  0  0  0  0  0  0  0  0  0  0
  190.0320  172.3600  138.5130 C   0  0  0  0  0  0  0  0  0  0  0  0
  190.8720  171.3070  138.1240 C   0  0  0  0  0  0  0  0  0  0  0  0
  188.5700  175.4370  144.3000 C   0  0  0  0  0  3  0  0  0  0  0  0
  187.8070  175.8250  143.1360 C   0  0  0  0  0  0  0  0  0  0  0  0
  191.9640  174.2830  143.8890 C   0  0  1  0  0  3  0  0  0  0  0  0
  189.2980  173.7710  140.1150 C   0  0  0  0  0  0  0  0  0  0  0  0
  193.0280  173.4810  143.2620 N   0  0  0  0  0  2  0  0  0  0  0  0
  193.5940  171.8920  141.0690 S   0  0  0  0  0  0  0  0  0  0  0  0
  193.0120  173.2870  141.8510 C   0  0  0  0  0  0  0  0  0  0  0  0
  190.5710  173.6020  143.7450 C   0  0  1  0  0  3  0  0  0  0  0  0
  189.5330  174.5370  143.9590 C   0  0  0  0  0  0  0  0  0  0  0  0
  192.1130  171.1490  138.8000 C   0  0  0  0  0  0  0  0  0  0  0  0
  188.2510  173.2880  139.3200 C   0  0  0  0  0  3  0  0  0  0  0  0
  192.4510  172.0680  139.8250 C   0  0  0  0  0  0  0  0  0  0  0  0
  185.5080  178.3120  144.1370 C   0  0  0  0  0  0  0  0  0  0  0  0
  186.6310  177.5930  144.3260 N   0  0  0  0  0  0  0  0  0  0  0  0
  185.7330  176.8950  142.4470 N   0  0  0  0  0  0  0  0  0  0  0  0
  184.9360  177.8660  142.9330 C   0  0  0  0  0  0  0  0  0  0  0  0
  186.7360  176.7640  143.3000 N   0  0  0  0  0  0  0  0  0  0  0  0
  185.0480  179.2890  145.1930 C   0  0  0  0  0  3  0  0  0  0  0  0
  184.0650  178.6740  146.1620 C   0  0  0  0  0  2  0  0  0  0  0  0
  185.5000  178.9320  146.5910 C   0  0  0  0  0  2  0  0  0  0  0  0
  183.6890  178.2920  140.7340 C   0  0  0  0  0  1  0  0  0  0  0  0
  183.7120  178.2910  142.2230 C   0  0  0  0  0  0  0  0  0  0  0  0
  182.7030  178.7160  142.8390 O   0  0  0  0  0  0  0  0  0  0  0  0
  193.6290  169.0960  138.3130 N   0  0  0  0  0  0  0  0  0  0  0  0
  192.9550  170.0100  138.5300 C   0  0  0  0  0  0  0  0  0  0  0  0
  192.3150  174.4800  145.3550 C   0  0  0  0  0  2  0  0  0  0  0  0
  192.5050  176.1670  147.1580 C   0  0  1  0  0  3  0  0  0  0  0  0
  191.4760  176.8020  148.0740 C   0  0  0  0  0  2  0  0  0  0  0  0
  191.0890  175.6610  147.1550 C   0  0  1  0  0  3  0  0  0  0  0  0
  191.8300  175.8320  145.8420 C   0  0  2  0  0  3  0  0  0  0  0  0
  1 10  1  0  0  0  0
  2  7  2  0  0  0  0
  2  8  1  0  0  0  0
  3  6  1  0  0  0  0
  4  9  1  0  0  0  0
  4 21  2  0  0  0  0
  5  3  1  0  0  0  0
  5 14  2  0  0  0  0
  6 17  2  0  0  0  0
  7 12  1  0  0  0  0
  8 19  2  0  0  0  0
  9  5  1  0  0  0  0
 10  9  2  0  0  0  0
 10 20  1  0  0  0  0
 12 27  1  0  0  0  0
 12 11  2  0  0  0  0
 13 36  1  1  0  0  0
 14  2  1  0  0  0  0
 15 13  1  0  0  0  0
 16 17  1  0  0  0  0
 17 15  1  0  0  0  0
 18  8  1  6  0  0  0
 18 13  1  0  0  0  0
 18 19  1  0  0  0  0
 19 11  1  0  0  0  0
 20 22  2  0  0  0  0
 21 14  1  0  0  0  0
 22  3  1  0  0  0  0
 22 16  1  0  0  0  0
 23 24  2  0  0  0  0
 23 28  1  0  0  0  0
 25 26  2  0  0  0  0
 25 27  1  0  0  0  0
 26 23  1  0  0  0  0
 27 24  1  0  0  0  0
 28 29  1  0  0  0  0
 28 30  1  0  0  0  0
 29 30  1  0  0  0  0
 31 32  1  0  0  0  0
 32 33  2  0  0  0  0
 32 26  1  0  0  0  0
 34 35  3  0  0  0  0
 35 20  1  0  0  0  0
 37 38  1  6  0  0  0
 39 37  1  0  0  0  0
 39 38  1  6  0  0  0
 40 36  1  1  0  0  0
 40 39  1  0  0  0  0
 40 37  1  0  0  0  0
M  END
>  <MODEL>
4

>  <REMARK>
 VINA RESULT:      -7.9      1.529      2.511
  Name = 
  6 active torsions:
  status: ('A' for Active; 'I' for Inactive)
    1  A    between atoms: C_5  and  C_15
    2  A    between atoms: C_17  and  C_22
    3  A    between atoms: C_17  and  C_27
    4  A    between atoms: C_19  and  C_28
    5  A    between atoms: C_24  and  N_38
    6  A    between atoms: C_26  and  C_37
                            x       y       z     vdW  Elec       q    Type
                         _______ _______ _______ _____ _____    ______ ____

>  <TORSDO>
F 6

$$$$
=
 OpenBabel11042419263D

 40 49  0  0  1  0  0  0  0  0999 V2000
  186.2610  177.8220  147.1850 O   0  0  0  0  0  1  0  0  0  0  0  0
  190.2270  174.1450  144.5580 C   0  0  0  0  0  0  0  0  0  0  0  0
  188.4050  176.5910  143.7950 N   0  0  0  0  0  0  0  0  0  0  0  0
  188.6460  176.0970  147.2630 N   0  0  0  0  0  0  0  0  0  0  0  0
  188.8820  176.3080  145.0190 C   0  0  0  0  0  0  0  0  0  0  0  0
  188.9270  176.0660  142.7080 N   0  0  0  0  0  0  0  0  0  0  0  0
  191.3940  173.3890  144.9190 C   0  0  0  0  0  3  0  0  0  0  0  0
  189.6490  173.5950  143.4320 C   0  0  0  0  0  0  0  0  0  0  0  0
  188.1970  176.7620  146.1840 C   0  0  0  0  0  0  0  0  0  0  0  0
  186.9720  177.4310  146.0550 C   0  0  0  0  0  0  0  0  0  0  0  0
  191.2640  171.7180  142.9830 C   0  0  0  0  0  3  0  0  0  0  0  0
  191.9100  172.2360  144.1680 C   0  0  0  0  0  0  0  0  0  0  0  0
  189.2270  173.9140  140.9730 C   0  0  1  0  0  3  0  0  0  0  0  0
  189.6750  175.2440  145.4050 C   0  0  0  0  0  0  0  0  0  0  0  0
  188.1910  174.9380  140.7570 N   0  0  0  0  0  2  0  0  0  0  0  0
  186.6200  176.8000  142.0670 S   0  0  0  0  0  0  0  0  0  0  0  0
  188.0810  176.0200  141.6770 C   0  0  0  0  0  0  0  0  0  0  0  0
  188.9730  173.1070  142.2790 C   0  0  1  0  0  3  0  0  0  0  0  0
  190.1490  172.4420  142.6940 C   0  0  0  0  0  0  0  0  0  0  0  0
  186.4380  177.6150  144.7490 C   0  0  0  0  0  0  0  0  0  0  0  0
  189.5460  175.1850  146.7970 C   0  0  0  0  0  3  0  0  0  0  0  0
  187.1720  177.1270  143.6400 C   0  0  0  0  0  0  0  0  0  0  0  0
  194.4450  170.0670  145.3260 C   0  0  0  0  0  0  0  0  0  0  0  0
  193.1830  170.3020  144.9160 N   0  0  0  0  0  0  0  0  0  0  0  0
  194.2460  172.2230  144.8510 N   0  0  0  0  0  0  0  0  0  0  0  0
  195.1230  171.2970  145.2820 C   0  0  0  0  0  0  0  0  0  0  0  0
  193.1030  171.5930  144.6370 N   0  0  0  0  0  0  0  0  0  0  0  0
  194.8380  168.6940  145.8160 C   0  0  0  0  0  3  0  0  0  0  0  0
  195.3590  168.7120  147.2340 C   0  0  0  0  0  2  0  0  0  0  0  0
  193.9690  168.1760  146.9400 C   0  0  0  0  0  2  0  0  0  0  0  0
  196.8340  173.0040  146.1380 C   0  0  0  0  0  1  0  0  0  0  0  0
  196.5210  171.6470  145.6080 C   0  0  0  0  0  0  0  0  0  0  0  0
  197.4700  170.8530  145.3940 O   0  0  0  0  0  0  0  0  0  0  0  0
  184.0690  178.6320  144.4240 N   0  0  0  0  0  0  0  0  0  0  0  0
  185.1230  178.1790  144.5680 C   0  0  0  0  0  0  0  0  0  0  0  0
  189.2430  172.9890  139.7660 C   0  0  0  0  0  2  0  0  0  0  0  0
  190.5150  172.3280  137.7460 C   0  0  1  0  0  3  0  0  0  0  0  0
  191.7560  171.4780  137.5540 C   0  0  0  0  0  2  0  0  0  0  0  0
  191.0970  171.5830  138.9150 C   0  0  1  0  0  3  0  0  0  0  0  0
  190.6050  173.0070  139.0990 C   0  0  2  0  0  3  0  0  0  0  0  0
  2  7  1  0  0  0  0
  2 14  1  0  0  0  0
  3  5  1  0  0  0  0
  5 14  2  0  0  0  0
  5  9  1  0  0  0  0
  6  3  1  0  0  0  0
  8  2  2  0  0  0  0
  9  4  1  0  0  0  0
 10  9  2  0  0  0  0
 10  1  1  0  0  0  0
 11 12  1  0  0  0  0
 12 27  1  0  0  0  0
 12  7  2  0  0  0  0
 13 36  1  6  0  0  0
 13 18  1  0  0  0  0
 14 21  1  0  0  0  0
 15 13  1  0  0  0  0
 15 17  1  0  0  0  0
 16 22  1  0  0  0  0
 17 16  1  0  0  0  0
 17  6  2  0  0  0  0
 18 19  1  6  0  0  0
 18  8  1  0  0  0  0
 19 11  2  0  0  0  0
 19  8  1  0  0  0  0
 20 10  1  0  0  0  0
 21  4  2  0  0  0  0
 22  3  1  0  0  0  0
 22 20  2  0  0  0  0
 23 28  1  0  0  0  0
 24 23  2  0  0  0  0
 25 26  2  0  0  0  0
 26 23  1  0  0  0  0
 26 32  1  0  0  0  0
 27 25  1  0  0  0  0
 27 24  1  0  0  0  0
 28 30  1  0  0  0  0
 28 29  1  0  0  0  0
 30 29  1  0  0  0  0
 32 31  1  0  0  0  0
 33 32  2  0  0  0  0
 34 35  3  0  0  0  0
 35 20  1  0  0  0  0
 37 38  1  6  0  0  0
 37 39  1  0  0  0  0
 37 40  1  0  0  0  0
 39 38  1  6  0  0  0
 39 40  1  0  0  0  0
 40 36  1  1  0  0  0
M  END
>  <MODEL>
5

>  <REMARK>
 VINA RESULT:      -7.8      3.231      9.210
  Name = 
  6 active torsions:
  status: ('A' for Active; 'I' for Inactive)
    1  A    between atoms: C_5  and  C_15
    2  A    between atoms: C_17  and  C_22
    3  A    between atoms: C_17  and  C_27
    4  A    between atoms: C_19  and  C_28
    5  A    between atoms: C_24  and  N_38
    6  A    between atoms: C_26  and  C_37
                            x       y       z     vdW  Elec       q    Type
                         _______ _______ _______ _____ _____    ______ ____

>  <TORSDO>
F 6

$$$$
=
 OpenBabel11042419263D

 40 49  0  0  1  0  0  0  0  0999 V2000
  189.7680  170.5910  136.8720 O   0  0  0  0  0  1  0  0  0  0  0  0
  189.6290  174.1970  141.6810 C   0  0  0  0  0  0  0  0  0  0  0  0
  191.6990  173.1920  139.5390 N   0  0  0  0  0  0  0  0  0  0  0  0
  188.3770  172.4530  138.6780 N   0  0  0  0  0  0  0  0  0  0  0  0
  190.3690  173.2780  139.3770 C   0  0  0  0  0  0  0  0  0  0  0  0
  192.3260  173.8410  140.4960 N   0  0  0  0  0  0  0  0  0  0  0  0
  188.6910  175.0470  142.3600 C   0  0  0  0  0  3  0  0  0  0  0  0
  190.6230  173.8120  142.5580 C   0  0  0  0  0  0  0  0  0  0  0  0
  189.7000  172.4400  138.4380 C   0  0  0  0  0  0  0  0  0  0  0  0
  190.4200  171.4580  137.7430 C   0  0  0  0  0  0  0  0  0  0  0  0
  189.8860  175.0450  144.6240 C   0  0  0  0  0  3  0  0  0  0  0  0
  188.8090  175.4730  143.7610 C   0  0  0  0  0  0  0  0  0  0  0  0
  193.0470  174.0920  143.1700 C   0  0  1  0  0  3  0  0  0  0  0  0
  189.4200  173.7020  140.2880 C   0  0  0  0  0  0  0  0  0  0  0  0
  193.9070  173.3870  142.2030 N   0  0  0  0  0  2  0  0  0  0  0  0
  193.8590  171.9780  139.8230 S   0  0  0  0  0  0  0  0  0  0  0  0
  193.4890  173.2870  140.8450 C   0  0  0  0  0  0  0  0  0  0  0  0
  191.6920  173.3540  143.3770 C   0  0  1  0  0  3  0  0  0  0  0  0
  190.7340  174.2190  143.9520 C   0  0  0  0  0  0  0  0  0  0  0  0
  191.8080  171.3170  138.0210 C   0  0  0  0  0  0  0  0  0  0  0  0
  188.2030  173.2230  139.7900 C   0  0  0  0  0  3  0  0  0  0  0  0
  192.4010  172.1810  138.9750 C   0  0  0  0  0  0  0  0  0  0  0  0
  186.4780  177.2900  145.6940 C   0  0  0  0  0  0  0  0  0  0  0  0
  187.4330  176.3490  145.5680 N   0  0  0  0  0  0  0  0  0  0  0  0
  187.1340  177.2290  143.5780 N   0  0  0  0  0  0  0  0  0  0  0  0
  186.2890  177.8530  144.4200 C   0  0  0  0  0  0  0  0  0  0  0  0
  187.8040  176.3440  144.2980 N   0  0  0  0  0  0  0  0  0  0  0  0
  185.7720  177.4780  147.0150 C   0  0  0  0  0  3  0  0  0  0  0  0
  185.9220  178.8820  147.5570 C   0  0  0  0  0  2  0  0  0  0  0  0
  184.6020  178.4350  146.9510 C   0  0  0  0  0  2  0  0  0  0  0  0
  184.1130  178.5660  143.2680 C   0  0  0  0  0  1  0  0  0  0  0  0
  185.3840  178.9250  143.9570 C   0  0  0  0  0  0  0  0  0  0  0  0
  185.6840  180.1400  144.0690 O   0  0  0  0  0  0  0  0  0  0  0  0
  193.1760  169.3790  136.9610 N   0  0  0  0  0  0  0  0  0  0  0  0
  192.5670  170.2420  137.4330 C   0  0  0  0  0  0  0  0  0  0  0  0
  193.8010  174.2070  144.4850 C   0  0  0  0  0  2  0  0  0  0  0  0
  194.6990  175.7600  146.1920 C   0  0  1  0  0  3  0  0  0  0  0  0
  194.1030  176.9700  146.8840 C   0  0  0  0  0  2  0  0  0  0  0  0
  193.2500  176.1020  145.9830 C   0  0  1  0  0  3  0  0  0  0  0  0
  194.0970  175.6600  144.8040 C   0  0  2  0  0  3  0  0  0  0  0  0
  1 10  1  0  0  0  0
  2  7  2  0  0  0  0
  2  8  1  0  0  0  0
  3  6  1  0  0  0  0
  4 21  2  0  0  0  0
  5  3  1  0  0  0  0
  5 14  2  0  0  0  0
  6 17  2  0  0  0  0
  7 12  1  0  0  0  0
  8 19  2  0  0  0  0
  9  4  1  0  0  0  0
  9  5  1  0  0  0  0
 10 20  1  0  0  0  0
 10  9  2  0  0  0  0
 12 27  1  0  0  0  0
 12 11  2  0  0  0  0
 13 18  1  0  0  0  0
 13 36  1  1  0  0  0
 14  2  1  0  0  0  0
 15 13  1  0  0  0  0
 16 17  1  0  0  0  0
 17 15  1  0  0  0  0
 18  8  1  6  0  0  0
 18 19  1  0  0  0  0
 19 11  1  0  0  0  0
 20 22  2  0  0  0  0
 21 14  1  0  0  0  0
 22  3  1  0  0  0  0
 22 16  1  0  0  0  0
 23 28  1  0  0  0  0
 24 23  2  0  0  0  0
 25 27  1  0  0  0  0
 25 26  2  0  0  0  0
 26 23  1  0  0  0  0
 27 24  1  0  0  0  0
 28 29  1  0  0  0  0
 30 28  1  0  0  0  0
 30 29  1  0  0  0  0
 31 32  1  0  0  0  0
 32 33  2  0  0  0  0
 32 26  1  0  0  0  0
 34 35  3  0  0  0  0
 35 20  1  0  0  0  0
 37 38  1  6  0  0  0
 39 37  1  0  0  0  0
 39 38  1  6  0  0  0
 40 36  1  1  0  0  0
 40 39  1  0  0  0  0
 40 37  1  0  0  0  0
M  END
>  <MODEL>
6

>  <REMARK>
 VINA RESULT:      -7.7      1.248      2.056
  Name = 
  6 active torsions:
  status: ('A' for Active; 'I' for Inactive)
    1  A    between atoms: C_5  and  C_15
    2  A    between atoms: C_17  and  C_22
    3  A    between atoms: C_17  and  C_27
    4  A    between atoms: C_19  and  C_28
    5  A    between atoms: C_24  and  N_38
    6  A    between atoms: C_26  and  C_37
                            x       y       z     vdW  Elec       q    Type
                         _______ _______ _______ _____ _____    ______ ____

>  <TORSDO>
F 6

$$$$
=
 OpenBabel11042419263D

 40 49  0  0  1  0  0  0  0  0999 V2000
  184.4930  179.4240  144.7150 O   0  0  0  0  0  1  0  0  0  0  0  0
  188.3790  175.4090  142.4950 C   0  0  0  0  0  0  0  0  0  0  0  0
  187.2740  176.3350  145.2890 N   0  0  0  0  0  0  0  0  0  0  0  0
  185.4070  177.5960  142.5960 N   0  0  0  0  0  0  0  0  0  0  0  0
  186.6410  176.4460  144.1100 C   0  0  0  0  0  0  0  0  0  0  0  0
  188.2880  175.5150  145.4590 N   0  0  0  0  0  0  0  0  0  0  0  0
  188.5540  174.6300  141.3010 C   0  0  0  0  0  3  0  0  0  0  0  0
  189.5960  175.5680  143.1270 C   0  0  0  0  0  0  0  0  0  0  0  0
  185.6550  177.4550  143.9100 C   0  0  0  0  0  0  0  0  0  0  0  0
  185.4060  178.3950  144.9210 C   0  0  0  0  0  0  0  0  0  0  0  0
  191.0710  174.2460  141.5740 C   0  0  0  0  0  3  0  0  0  0  0  0
  189.8320  174.0550  140.8560 C   0  0  0  0  0  0  0  0  0  0  0  0
  190.9800  174.9050  145.1200 C   0  0  1  0  0  3  0  0  0  0  0  0
  187.0870  176.0640  142.8580 C   0  0  0  0  0  0  0  0  0  0  0  0
  190.4910  175.5800  146.3340 N   0  0  0  0  0  2  0  0  0  0  0  0
  188.4730  177.2120  147.2920 S   0  0  0  0  0  0  0  0  0  0  0  0
  189.1020  175.8690  146.4560 C   0  0  0  0  0  0  0  0  0  0  0  0
  190.7970  175.7940  143.8560 C   0  0  1  0  0  3  0  0  0  0  0  0
  190.8670  175.0120  142.6800 C   0  0  0  0  0  0  0  0  0  0  0  0
  186.1750  178.3190  146.1160 C   0  0  0  0  0  0  0  0  0  0  0  0
  186.2650  176.7500  141.9570 C   0  0  0  0  0  3  0  0  0  0  0  0
  187.1440  177.2930  146.2360 C   0  0  0  0  0  0  0  0  0  0  0  0
  189.7550  171.5940  138.3250 C   0  0  0  0  0  0  0  0  0  0  0  0
  189.6730  171.9670  139.6170 N   0  0  0  0  0  0  0  0  0  0  0  0
  190.0500  173.7870  138.4470 N   0  0  0  0  0  0  0  0  0  0  0  0
  189.9940  172.7600  137.5790 C   0  0  0  0  0  0  0  0  0  0  0  0
  189.8480  173.2780  139.6510 N   0  0  0  0  0  0  0  0  0  0  0  0
  189.6940  170.1310  137.9550 C   0  0  0  0  0  3  0  0  0  0  0  0
  191.0420  169.5800  137.5500 C   0  0  0  0  0  2  0  0  0  0  0  0
  190.4500  169.2300  138.9050 C   0  0  0  0  0  2  0  0  0  0  0  0
  191.4230  172.5170  135.4630 C   0  0  0  0  0  1  0  0  0  0  0  0
  190.1660  172.9650  136.1250 C   0  0  0  0  0  0  0  0  0  0  0  0
  189.3050  173.5650  135.4350 O   0  0  0  0  0  0  0  0  0  0  0  0
  185.9540  180.1510  147.9450 N   0  0  0  0  0  0  0  0  0  0  0  0
  186.0520  179.3360  147.1310 C   0  0  0  0  0  0  0  0  0  0  0  0
  192.4470  174.5580  145.3240 C   0  0  0  0  0  2  0  0  0  0  0  0
  193.5690  176.7650  145.3140 C   0  0  1  0  0  3  0  0  0  0  0  0
  194.9410  177.2140  145.7780 C   0  0  0  0  0  2  0  0  0  0  0  0
  194.5780  175.7440  145.7610 C   0  0  1  0  0  3  0  0  0  0  0  0
  193.1270  175.6050  146.1840 C   0  0  2  0  0  3  0  0  0  0  0  0
  1 10  1  0  0  0  0
  2 14  1  0  0  0  0
  2  8  1  0  0  0  0
  3  6  1  0  0  0  0
  3 22  1  0  0  0  0
  4  9  1  0  0  0  0
  5  3  1  0  0  0  0
  6 17  2  0  0  0  0
  7  2  2  0  0  0  0
  8 18  1  0  0  0  0
  9  5  1  0  0  0  0
  9 10  2  0  0  0  0
 10 20  1  0  0  0  0
 11 19  1  0  0  0  0
 12  7  1  0  0  0  0
 12 11  2  0  0  0  0
 13 36  1  1  0  0  0
 13 15  1  0  0  0  0
 14  5  2  0  0  0  0
 15 17  1  0  0  0  0
 17 16  1  0  0  0  0
 18 19  1  6  0  0  0
 18 13  1  0  0  0  0
 19  8  2  0  0  0  0
 20 22  2  0  0  0  0
 20 35  1  0  0  0  0
 21  4  2  0  0  0  0
 21 14  1  0  0  0  0
 22 16  1  0  0  0  0
 23 24  2  0  0  0  0
 24 27  1  0  0  0  0
 25 27  1  0  0  0  0
 26 23  1  0  0  0  0
 26 25  2  0  0  0  0
 27 12  1  0  0  0  0
 28 23  1  0  0  0  0
 28 30  1  0  0  0  0
 29 28  1  0  0  0  0
 29 30  1  0  0  0  0
 31 32  1  0  0  0  0
 32 26  1  0  0  0  0
 33 32  2  0  0  0  0
 35 34  3  0  0  0  0
 37 39  1  0  0  0  0
 37 38  1  1  0  0  0
 37 40  1  0  0  0  0
 39 38  1  1  0  0  0
 39 40  1  0  0  0  0
 40 36  1  6  0  0  0
M  END
>  <MODEL>
7

>  <REMARK>
 VINA RESULT:      -7.4      2.548      8.538
  Name = 
  6 active torsions:
  status: ('A' for Active; 'I' for Inactive)
    1  A    between atoms: C_5  and  C_15
    2  A    between atoms: C_17  and  C_22
    3  A    between atoms: C_17  and  C_27
    4  A    between atoms: C_19  and  C_28
    5  A    between atoms: C_24  and  N_38
    6  A    between atoms: C_26  and  C_37
                            x       y       z     vdW  Elec       q    Type
                         _______ _______ _______ _____ _____    ______ ____

>  <TORSDO>
F 6

$$$$
=
 OpenBabel11042419263D

 40 49  0  0  1  0  0  0  0  0999 V2000
  196.1790  172.1470  145.5640 O   0  0  0  0  0  1  0  0  0  0  0  0
  190.7190  174.0710  143.9420 C   0  0  0  0  0  0  0  0  0  0  0  0
  192.4970  171.4940  143.6600 N   0  0  0  0  0  0  0  0  0  0  0  0
  193.7700  173.7820  145.9990 N   0  0  0  0  0  0  0  0  0  0  0  0
  192.5860  172.4160  144.6330 C   0  0  0  0  0  0  0  0  0  0  0  0
  191.4290  171.3850  142.9020 N   0  0  0  0  0  0  0  0  0  0  0  0
  189.7090  174.9700  144.4270 C   0  0  0  0  0  3  0  0  0  0  0  0
  190.5690  173.8970  142.5810 C   0  0  0  0  0  0  0  0  0  0  0  0
  193.8130  172.6180  145.3290 C   0  0  0  0  0  0  0  0  0  0  0  0
  194.9600  171.9120  144.9360 C   0  0  0  0  0  0  0  0  0  0  0  0
  188.5420  175.3330  142.1770 C   0  0  0  0  0  3  0  0  0  0  0  0
  188.6530  175.5690  143.5980 C   0  0  0  0  0  0  0  0  0  0  0  0
  189.8750  172.2860  140.7790 C   0  0  1  0  0  3  0  0  0  0  0  0
  191.8360  173.5660  144.7940 C   0  0  0  0  0  0  0  0  0  0  0  0
  190.9010  171.2460  140.5940 N   0  0  0  0  0  2  0  0  0  0  0  0
  193.2830  170.2870  141.6240 S   0  0  0  0  0  0  0  0  0  0  0  0
  191.6700  170.8210  141.7150 C   0  0  0  0  0  0  0  0  0  0  0  0
  190.5060  173.6500  141.1820 C   0  0  1  0  0  3  0  0  0  0  0  0
  189.5330  174.5020  141.7540 C   0  0  0  0  0  0  0  0  0  0  0  0
  194.8600  171.0270  143.8280 C   0  0  0  0  0  0  0  0  0  0  0  0
  192.5720  174.3540  145.6860 C   0  0  0  0  0  3  0  0  0  0  0  0
  193.6080  170.8860  143.1800 C   0  0  0  0  0  0  0  0  0  0  0  0
  186.4930  177.3600  145.7420 C   0  0  0  0  0  0  0  0  0  0  0  0
  187.4340  176.4220  145.5240 N   0  0  0  0  0  0  0  0  0  0  0  0
  186.9690  177.3260  143.5780 N   0  0  0  0  0  0  0  0  0  0  0  0
  186.1980  177.9380  144.4960 C   0  0  0  0  0  0  0  0  0  0  0  0
  187.6970  176.4330  144.2280 N   0  0  0  0  0  0  0  0  0  0  0  0
  185.9010  177.5310  147.1210 C   0  0  0  0  0  3  0  0  0  0  0  0
  185.8730  178.9770  147.5630 C   0  0  0  0  0  2  0  0  0  0  0  0
  184.5900  178.2860  147.1320 C   0  0  0  0  0  2  0  0  0  0  0  0
  183.9530  178.6660  143.4950 C   0  0  0  0  0  1  0  0  0  0  0  0
  185.2570  179.0150  144.1230 C   0  0  0  0  0  0  0  0  0  0  0  0
  185.5500  180.2290  144.2630 O   0  0  0  0  0  0  0  0  0  0  0  0
  196.9770  169.8560  142.8800 N   0  0  0  0  0  0  0  0  0  0  0  0
  196.0350  170.3770  143.3020 C   0  0  0  0  0  0  0  0  0  0  0  0
  189.0910  172.4190  139.4820 C   0  0  0  0  0  2  0  0  0  0  0  0
  188.9560  173.7770  137.4160 C   0  0  1  0  0  3  0  0  0  0  0  0
  189.5960  173.6230  136.0500 C   0  0  0  0  0  2  0  0  0  0  0  0
  189.7360  172.5330  137.0930 C   0  0  1  0  0  3  0  0  0  0  0  0
  189.8940  173.1900  138.4520 C   0  0  2  0  0  3  0  0  0  0  0  0
  2  7  1  0  0  0  0
  2 14  1  0  0  0  0
  3  5  1  0  0  0  0
  5 14  2  0  0  0  0
  5  9  1  0  0  0  0
  6  3  1  0  0  0  0
  8  2  2  0  0  0  0
  9  4  1  0  0  0  0
 10  9  2  0  0  0  0
 10  1  1  0  0  0  0
 11 12  1  0  0  0  0
 12 27  1  0  0  0  0
 12  7  2  0  0  0  0
 13 36  1  6  0  0  0
 13 18  1  0  0  0  0
 14 21  1  0  0  0  0
 15 13  1  0  0  0  0
 15 17  1  0  0  0  0
 16 17  1  0  0  0  0
 16 22  1  0  0  0  0
 17  6  2  0  0  0  0
 18 19  1  6  0  0  0
 18  8  1  0  0  0  0
 19 11  2  0  0  0  0
 19  8  1  0  0  0  0
 20 10  1  0  0  0  0
 21  4  2  0  0  0  0
 22  3  1  0  0  0  0
 22 20  2  0  0  0  0
 23 28  1  0  0  0  0
 24 23  2  0  0  0  0
 25 27  1  0  0  0  0
 25 26  2  0  0  0  0
 26 23  1  0  0  0  0
 27 24  1  0  0  0  0
 28 30  1  0  0  0  0
 28 29  1  0  0  0  0
 30 29  1  0  0  0  0
 31 32  1  0  0  0  0
 32 33  2  0  0  0  0
 32 26  1  0  0  0  0
 34 35  3  0  0  0  0
 35 20  1  0  0  0  0
 37 38  1  6  0  0  0
 37 40  1  0  0  0  0
 39 38  1  6  0  0  0
 39 37  1  0  0  0  0
 39 40  1  0  0  0  0
 40 36  1  1  0  0  0
M  END
>  <MODEL>
8

>  <REMARK>
 VINA RESULT:      -7.3      2.448      5.462
  Name = 
  6 active torsions:
  status: ('A' for Active; 'I' for Inactive)
    1  A    between atoms: C_5  and  C_15
    2  A    between atoms: C_17  and  C_22
    3  A    between atoms: C_17  and  C_27
    4  A    between atoms: C_19  and  C_28
    5  A    between atoms: C_24  and  N_38
    6  A    between atoms: C_26  and  C_37
                            x       y       z     vdW  Elec       q    Type
                         _______ _______ _______ _____ _____    ______ ____

>  <TORSDO>
F 6

$$$$
=
 OpenBabel11042419263D

 40 49  0  0  1  0  0  0  0  0999 V2000
  184.7570  178.0410  144.5550 O   0  0  0  0  0  1  0  0  0  0  0  0
  189.6870  175.2360  142.5590 C   0  0  0  0  0  0  0  0  0  0  0  0
  188.3680  176.0370  145.2980 N   0  0  0  0  0  0  0  0  0  0  0  0
  186.1810  176.3920  142.5750 N   0  0  0  0  0  0  0  0  0  0  0  0
  187.7240  175.8320  144.1380 C   0  0  0  0  0  0  0  0  0  0  0  0
  189.5890  175.5920  145.5030 N   0  0  0  0  0  0  0  0  0  0  0  0
  190.0870  174.4390  141.4330 C   0  0  0  0  0  3  0  0  0  0  0  0
  190.7970  175.8250  143.1290 C   0  0  0  0  0  0  0  0  0  0  0  0
  186.4700  176.4620  143.8860 C   0  0  0  0  0  0  0  0  0  0  0  0
  185.9480  177.3700  144.8170 C   0  0  0  0  0  0  0  0  0  0  0  0
  192.6000  174.8820  141.6460 C   0  0  0  0  0  3  0  0  0  0  0  0
  191.4770  174.2480  140.9950 C   0  0  0  0  0  0  0  0  0  0  0  0
  192.3340  175.8180  145.1210 C   0  0  1  0  0  3  0  0  0  0  0  0
  188.2570  175.4890  142.9100 C   0  0  0  0  0  0  0  0  0  0  0  0
  191.6670  176.4210  146.2870 N   0  0  0  0  0  2  0  0  0  0  0  0
  189.2470  177.4310  147.1700 S   0  0  0  0  0  0  0  0  0  0  0  0
  190.2580  176.2760  146.4340 C   0  0  0  0  0  0  0  0  0  0  0  0
  191.8730  176.4810  143.7900 C   0  0  1  0  0  3  0  0  0  0  0  0
  192.1750  175.6500  142.6860 C   0  0  0  0  0  0  0  0  0  0  0  0
  186.7100  177.6520  145.9850 C   0  0  0  0  0  0  0  0  0  0  0  0
  187.2550  175.7960  141.9820 C   0  0  0  0  0  3  0  0  0  0  0  0
  187.9520  176.9940  146.1610 C   0  0  0  0  0  0  0  0  0  0  0  0
  191.6050  171.7450  138.5070 C   0  0  0  0  0  0  0  0  0  0  0  0
  191.1150  172.2480  139.6560 N   0  0  0  0  0  0  0  0  0  0  0  0
  192.6030  173.6820  138.9130 N   0  0  0  0  0  0  0  0  0  0  0  0
  192.5550  172.6640  138.0320 C   0  0  0  0  0  0  0  0  0  0  0  0
  191.7270  173.4030  139.8640 N   0  0  0  0  0  0  0  0  0  0  0  0
  191.1760  170.3750  138.0380 C   0  0  0  0  0  3  0  0  0  0  0  0
  189.6930  170.1430  138.2100 C   0  0  0  0  0  2  0  0  0  0  0  0
  190.2680  170.4020  136.8280 C   0  0  0  0  0  2  0  0  0  0  0  0
  192.9340  173.3380  135.5880 C   0  0  0  0  0  1  0  0  0  0  0  0
  193.4020  172.6470  136.8210 C   0  0  0  0  0  0  0  0  0  0  0  0
  194.4850  172.0120  136.7790 O   0  0  0  0  0  0  0  0  0  0  0  0
  185.9410  179.4920  147.6510 N   0  0  0  0  0  0  0  0  0  0  0  0
  186.2830  178.6730  146.9090 C   0  0  0  0  0  0  0  0  0  0  0  0
  193.8370  175.9650  145.3000 C   0  0  0  0  0  2  0  0  0  0  0  0
  195.6950  174.5600  146.1390 C   0  0  1  0  0  3  0  0  0  0  0  0
  196.8510  173.8720  145.4390 C   0  0  0  0  0  2  0  0  0  0  0  0
  195.9410  174.8140  144.6780 C   0  0  1  0  0  3  0  0  0  0  0  0
  194.5220  174.6180  145.1800 C   0  0  2  0  0  3  0  0  0  0  0  0
  1 10  1  0  0  0  0
  2 14  1  0  0  0  0
  2  8  1  0  0  0  0
  3  6  1  0  0  0  0
  3 22  1  0  0  0  0
  4  9  1  0  0  0  0
  5  3  1  0  0  0  0
  6 17  2  0  0  0  0
  7  2  2  0  0  0  0
  8 18  1  0  0  0  0
  9  5  1  0  0  0  0
  9 10  2  0  0  0  0
 10 20  1  0  0  0  0
 11 19  1  0  0  0  0
 12  7  1  0  0  0  0
 12 11  2  0  0  0  0
 13 36  1  1  0  0  0
 13 15  1  0  0  0  0
 14  5  2  0  0  0  0
 15 17  1  0  0  0  0
 17 16  1  0  0  0  0
 18 19  1  6  0  0  0
 18 13  1  0  0  0  0
 19  8  2  0  0  0  0
 20 22  2  0  0  0  0
 20 35  1  0  0  0  0
 21  4  2  0  0  0  0
 21 14  1  0  0  0  0
 22 16  1  0  0  0  0
 23 24  2  0  0  0  0
 24 27  1  0  0  0  0
 25 27  1  0  0  0  0
 26 23  1  0  0  0  0
 26 25  2  0  0  0  0
 27 12  1  0  0  0  0
 28 29  1  0  0  0  0
 28 23  1  0  0  0  0
 30 28  1  0  0  0  0
 30 29  1  0  0  0  0
 31 32  1  0  0  0  0
 32 26  1  0  0  0  0
 33 32  2  0  0  0  0
 35 34  3  0  0  0  0
 37 38  1  6  0  0  0
 39 40  1  0  0  0  0
 39 38  1  6  0  0  0
 39 37  1  0  0  0  0
 40 36  1  1  0  0  0
 40 37  1  0  0  0  0
M  END
>  <MODEL>
9

>  <REMARK>
 VINA RESULT:      -7.2      2.700      8.500
  Name = 
  6 active torsions:
  status: ('A' for Active; 'I' for Inactive)
    1  A    between atoms: C_5  and  C_15
    2  A    between atoms: C_17  and  C_22
    3  A    between atoms: C_17  and  C_27
    4  A    between atoms: C_19  and  C_28
    5  A    between atoms: C_24  and  N_38
    6  A    between atoms: C_26  and  C_37
                            x       y       z     vdW  Elec       q    Type
                         _______ _______ _______ _____ _____    ______ ____

>  <TORSDO>
F 6

$$$$
