=
 OpenBabel11042413523D

 70 78  0  0  1  0  0  0  0  0999 V2000
  188.4510  172.8350  140.3940 C   0  0  0  0  0  2  0  0  0  0  0  0
  192.8990  174.2780  139.9770 C   0  0  0  0  0  2  0  0  0  0  0  0
  190.6860  172.2870  140.6560 C   0  0  1  0  0  3  0  0  0  0  0  0
  192.0280  173.7630  138.8420 C   0  0  0  0  0  2  0  0  0  0  0  0
  189.8100  173.3950  140.0140 C   0  0  1  0  0  3  0  0  0  0  0  0
  189.5760  173.0560  142.7040 C   0  0  0  0  0  0  0  0  0  0  0  0
  193.7610  173.1590  140.5490 C   0  0  2  0  0  3  0  0  0  0  0  0
  194.1370  173.4780  141.9900 C   0  0  0  0  0  2  0  0  0  0  0  0
  190.9190  172.7660  139.2220 C   0  0  2  0  0  0  0  0  0  0  0  0
  188.2640  173.1420  141.9000 C   0  0  1  0  0  3  0  0  0  0  0  0
  191.9940  172.5710  142.8850 C   0  0  0  0  0  2  0  0  0  0  0  0
  190.7530  172.8040  142.0750 C   0  0  0  0  0  0  0  0  0  0  0  0
  192.9070  173.7880  142.8490 C   0  0  1  0  0  3  0  0  0  0  0  0
  189.8700  170.9500  136.1590 N   0  0  0  0  0  2  0  0  0  0  0  0
  189.9780  172.0950  136.9850 C   0  0  0  0  0  3  0  0  0  0  0  0
  190.5340  171.7890  138.1470 C   0  0  0  0  0  0  0  0  0  0  0  0
  190.8720  170.3380  138.2220 C   0  0  0  0  0  2  0  0  0  0  0  0
  190.5010  169.8200  136.8290 C   0  0  2  0  0  3  0  0  0  0  0  0
  191.7430  169.3600  136.0550 C   0  0  0  0  0  3  0  0  0  0  0  0
  194.2550  168.9900  136.3130 C   0  0  0  0  0  2  0  0  0  0  0  0
  193.6200  170.1660  134.5130 C   0  0  0  0  0  2  0  0  0  0  0  0
  192.1630  170.3610  134.9580 C   0  0  0  0  0  2  0  0  0  0  0  0
  192.8910  169.0090  137.0170 C   0  0  0  0  0  2  0  0  0  0  0  0
  194.1050  168.9110  134.9160 O   0  0  0  0  0  0  0  0  0  0  0  0
  189.5690  173.2310  144.0950 O   0  0  0  0  0  0  0  0  0  0  0  0
  189.3650  172.1620  145.0070 C   0  0  0  0  0  1  0  0  0  0  0  0
  195.0100  172.9620  139.7050 C   0  0  0  0  0  2  0  0  0  0  0  0
  195.0270  171.5540  139.1190 C   0  0  0  0  0  2  0  0  0  0  0  0
  197.3460  171.0220  138.7890 F   0  0  0  0  0  0  0  0  0  0  0  0
  196.2430  170.7510  139.5850 C   0  0  2  0  0  3  0  0  0  0  0  0
  195.9410  169.2400  139.6260 C   0  0  1  0  0  3  0  0  0  0  0  0
  196.9920  168.4060  138.8850 C   0  0  0  0  0  1  0  0  0  0  0  0
  195.6850  168.7560  140.9350 O   0  0  0  0  0  0  0  0  0  0  0  0
  195.9610  169.7870  141.8510 C   0  0  0  0  0  2  0  0  0  0  0  0
  193.3020  168.1900  144.9200 C   0  0  0  0  0  2  0  0  0  0  0  0
  195.1340  168.2830  145.0580 S   0  0  0  0  0  0  0  0  0  0  0  0
  194.7950  169.9920  142.8010 C   0  0  1  0  0  3  0  0  0  0  0  0
  192.6970  168.9320  143.7170 C   0  0  0  0  0  2  0  0  0  0  0  0
  192.8560  169.4570  141.3050 C   0  0  0  0  0  1  0  0  0  0  0  0
  193.6490  169.0070  142.5200 C   0  0  1  0  0  3  0  0  0  0  0  0
  195.7710  170.8170  144.7830 O   0  0  0  0  0  0  0  0  0  0  0  0
  195.2920  169.8540  144.2080 C   0  0  0  0  0  0  0  0  0  0  0  0
  187.6560  174.5320  142.0530 C   0  0  0  0  0  2  0  0  0  0  0  0
  188.6510  175.6060  141.6370 C   0  0  0  0  0  2  0  0  0  0  0  0
  189.9150  177.5740  142.4360 C   0  0  1  0  0  3  0  0  0  0  0  0
  190.2240  178.2720  143.6700 N   0  0  0  0  0  1  0  0  0  0  0  0
  188.6550  176.7530  142.6340 C   0  0  1  0  0  3  0  0  0  0  0  0
  188.5940  178.0690  141.8880 C   0  0  0  0  0  2  0  0  0  0  0  0
  193.2770  174.2310  144.2710 C   0  0  1  0  0  3  0  0  0  0  0  0
  192.9120  176.7040  143.8550 F   0  0  0  0  0  0  0  0  0  0  0  0
  194.9050  177.5000  145.5640 C   0  0  0  0  0  1  0  0  0  0  0  0
  194.8700  176.0200  145.2270 C   0  0  1  0  0  3  0  0  0  0  0  0
  193.7440  175.6920  144.3160 C   0  0  1  0  0  0  0  0  0  0  0  0
  195.0580  175.8450  143.8400 O   0  0  0  0  0  0  0  0  0  0  0  0
  192.0670  174.0260  145.1810 C   0  0  0  0  0  2  0  0  0  0  0  0
  188.8560  176.9870  146.7350 C   0  0  0  0  0  0  0  0  0  0  0  0
  191.0420  176.7880  147.5020 N   0  0  0  0  0  0  0  0  0  0  0  0
  192.0930  174.9400  146.3130 N   0  0  0  0  0  2  0  0  0  0  0  0
  189.4520  175.6490  145.9020 S   0  0  0  0  0  0  0  0  0  0  0  0
  189.8630  177.4660  147.5720 C   0  0  0  0  0  0  0  0  0  0  0  0
  190.9700  175.7650  146.6250 C   0  0  0  0  0  0  0  0  0  0  0  0
  189.7040  178.6510  148.4570 C   0  0  0  0  0  1  0  0  0  0  0  0
  187.4770  177.5530  146.5920 C   0  0  2  0  0  3  0  0  0  0  0  0
  185.9280  177.8520  148.3820 O   0  0  0  0  0  1  0  0  0  0  0  0
  186.5210  176.8870  147.5630 C   0  0  0  0  0  2  0  0  0  0  0  0
  187.0000  177.3700  145.2320 N   0  0  0  0  0  2  0  0  0  0  0  0
  186.2270  178.5480  144.8890 C   0  0  0  0  0  2  0  0  0  0  0  0
  184.8910  178.1210  144.3040 C   0  0  0  0  0  2  0  0  0  0  0  0
  184.2890  178.1930  141.9950 O   0  0  0  0  0  1  0  0  0  0  0  0
  185.0840  177.5200  142.9230 C   0  0  0  0  0  2  0  0  0  0  0  0
  1 10  1  0  0  0  0
  2  7  1  0  0  0  0
  3 12  1  1  0  0  0
  4  9  1  0  0  0  0
  4  2  1  0  0  0  0
  5  1  1  6  0  0  0
  5  3  1  0  0  0  0
  6 25  1  0  0  0  0
  7 27  1  6  0  0  0
  7  8  1  0  0  0  0
  8 13  1  0  0  0  0
  9 16  1  6  0  0  0
  9  5  1  0  0  0  0
  9  3  1  0  0  0  0
 10 43  1  6  0  0  0
 10  6  1  0  0  0  0
 12  6  2  0  0  0  0
 12 11  1  0  0  0  0
 13 11  1  0  0  0  0
 13 49  1  1  0  0  0
 14 18  1  0  0  0  0
 14 15  1  0  0  0  0
 15 16  2  0  0  0  0
 16 17  1  0  0  0  0
 18 19  1  6  0  0  0
 18 17  1  0  0  0  0
 19 23  1  0  0  0  0
 20 23  1  0  0  0  0
 21 24  1  0  0  0  0
 21 22  1  0  0  0  0
 22 19  1  0  0  0  0
 24 20  1  0  0  0  0
 25 26  1  0  0  0  0
 28 30  1  0  0  0  0
 28 27  1  0  0  0  0
 30 29  1  6  0  0  0
 30 31  1  0  0  0  0
 31 32  1  1  0  0  0
 31 33  1  0  0  0  0
 33 34  1  0  0  0  0
 35 36  1  0  0  0  0
 37 34  1  6  0  0  0
 37 42  1  0  0  0  0
 38 35  1  0  0  0  0
 40 39  1  6  0  0  0
 40 37  1  0  0  0  0
 40 38  1  0  0  0  0
 42 41  2  0  0  0  0
 42 36  1  0  0  0  0
 44 43  1  0  0  0  0
 45 47  1  0  0  0  0
 45 46  1  1  0  0  0
 47 44  1  6  0  0  0
 48 45  1  0  0  0  0
 48 47  1  0  0  0  0
 49 53  1  0  0  0  0
 49 55  1  1  0  0  0
 52 51  1  6  0  0  0
 53 50  1  6  0  0  0
 53 52  1  0  0  0  0
 54 53  1  0  0  0  0
 54 52  1  0  0  0  0
 55 58  1  0  0  0  0
 56 60  2  0  0  0  0
 57 60  1  0  0  0  0
 58 61  1  0  0  0  0
 59 61  1  0  0  0  0
 59 56  1  0  0  0  0
 60 62  1  0  0  0  0
 61 57  2  0  0  0  0
 63 56  1  0  0  0  0
 63 65  1  1  0  0  0
 65 64  1  0  0  0  0
 66 63  1  0  0  0  0
 67 66  1  0  0  0  0
 68 67  1  0  0  0  0
 69 70  1  0  0  0  0
 70 68  1  0  0  0  0
M  END
>  <MODEL>
1

>  <REMARK>
 VINA RESULT:      -5.8      0.000      0.000
  Name = 
  23 active torsions:
  status: ('A' for Active; 'I' for Inactive)
    1  A    between atoms: C_1  and  C_60
    2  A    between atoms: C_1  and  C_62
    3  A    between atoms: C_2  and  C_8
    4  A    between atoms: C_2  and  C_66
    5  A    between atoms: C_2  and  C_68
    6  A    between atoms: C_7  and  C_43
    7  A    between atoms: C_7  and  C_48
    8  A    between atoms: C_8  and  N_35
    9  A    between atoms: C_9  and  C_47
   10  A    between atoms: C_14  and  C_49
   11  A    between atoms: C_14  and  C_51
   12  A    between atoms: C_17  and  CA_40
   13  A    between atoms: C_20  and  O_36
   14  A    between atoms: C_21  and  CA_40
   15  A    between atoms: C_25  and  O_38
   16  A    between atoms: C_25  and  C_48
   17  A    between atoms: C_27  and  C_33
   18  A    between atoms: C_29  and  C_56
   19  A    between atoms: C_30  and  C_43
   20  A    between atoms: O_38  and  C_56
   21  A    between atoms: C_39  and  C_51
   22  A    between atoms: CA_40  and  N_42
   23  A    between atoms: N_42  and  C_60
                            x       y       z     vdW  Elec       q    Type
                         _______ _______ _______ _____ _____    ______ ____

>  <TORSDO>
F 23

$$$$
=
 OpenBabel11042413523D

 70 78  0  0  1  0  0  0  0  0999 V2000
  192.2510  171.8710  139.3780 C   0  0  0  0  0  2  0  0  0  0  0  0
  194.0800  175.8470  141.0770 C   0  0  0  0  0  2  0  0  0  0  0  0
  193.4120  172.8680  141.1170 C   0  0  1  0  0  3  0  0  0  0  0  0
  194.7260  174.9550  140.0280 C   0  0  0  0  0  2  0  0  0  0  0  0
  192.9410  173.1910  139.6740 C   0  0  1  0  0  3  0  0  0  0  0  0
  191.0000  172.6370  141.5000 C   0  0  0  0  0  0  0  0  0  0  0  0
  194.6010  175.5110  142.4690 C   0  0  2  0  0  3  0  0  0  0  0  0
  193.5770  175.9180  143.5200 C   0  0  0  0  0  2  0  0  0  0  0  0
  194.3610  173.4620  140.0740 C   0  0  2  0  0  0  0  0  0  0  0  0
  190.9070  171.9060  140.1460 C   0  0  1  0  0  3  0  0  0  0  0  0
  192.2820  173.8030  143.2640 C   0  0  0  0  0  2  0  0  0  0  0  0
  192.1600  173.2300  141.8820 C   0  0  0  0  0  0  0  0  0  0  0  0
  192.1950  175.3210  143.2360 C   0  0  1  0  0  3  0  0  0  0  0  0
  196.8430  170.7800  139.4160 N   0  0  0  0  0  2  0  0  0  0  0  0
  195.9930  171.5510  140.2450 C   0  0  0  0  0  3  0  0  0  0  0  0
  195.4160  172.5240  139.5570 C   0  0  0  0  0  0  0  0  0  0  0  0
  195.8420  172.5040  138.1280 C   0  0  0  0  0  2  0  0  0  0  0  0
  196.7280  171.2570  138.0430 C   0  0  2  0  0  3  0  0  0  0  0  0
  196.0960  170.1820  137.1510 C   0  0  0  0  0  3  0  0  0  0  0  0
  196.4420  168.9280  134.9550 C   0  0  0  0  0  2  0  0  0  0  0  0
  194.4030  169.8050  135.2690 C   0  0  0  0  0  2  0  0  0  0  0  0
  194.7820  170.6530  136.4920 C   0  0  0  0  0  2  0  0  0  0  0  0
  197.1170  169.6430  136.1340 C   0  0  0  0  0  2  0  0  0  0  0  0
  195.1100  168.5920  135.2590 O   0  0  0  0  0  0  0  0  0  0  0  0
  189.8910  172.6910  142.3550 O   0  0  0  0  0  0  0  0  0  0  0  0
  189.3890  171.5550  143.0430 C   0  0  0  0  0  1  0  0  0  0  0  0
  195.9300  176.2040  142.7240 C   0  0  0  0  0  2  0  0  0  0  0  0
  196.6290  175.5700  143.9220 C   0  0  0  0  0  2  0  0  0  0  0  0
  197.3600  174.0250  142.2340 F   0  0  0  0  0  0  0  0  0  0  0  0
  197.6520  174.5140  143.4990 C   0  0  2  0  0  3  0  0  0  0  0  0
  197.7460  173.3720  144.5310 C   0  0  1  0  0  3  0  0  0  0  0  0
  197.4320  173.8360  145.9570 C   0  0  0  0  0  1  0  0  0  0  0  0
  197.0060  172.2200  144.1580 O   0  0  0  0  0  0  0  0  0  0  0  0
  197.1300  171.2630  145.1810 C   0  0  0  0  0  2  0  0  0  0  0  0
  193.9490  169.1110  143.1100 C   0  0  0  0  0  2  0  0  0  0  0  0
  195.7490  168.8310  142.8540 S   0  0  0  0  0  0  0  0  0  0  0  0
  195.8990  170.3780  145.2450 C   0  0  1  0  0  3  0  0  0  0  0  0
  193.5890  170.0210  144.2960 C   0  0  0  0  0  2  0  0  0  0  0  0
  194.0930  172.0890  145.5570 C   0  0  0  0  0  1  0  0  0  0  0  0
  194.6750  171.0540  144.6080 C   0  0  1  0  0  3  0  0  0  0  0  0
  196.7380  168.1740  145.1980 O   0  0  0  0  0  0  0  0  0  0  0  0
  196.2070  169.0760  144.5700 C   0  0  0  0  0  0  0  0  0  0  0  0
  189.8510  172.5730  139.2720 C   0  0  0  0  0  2  0  0  0  0  0  0
  190.2530  172.5230  137.8050 C   0  0  0  0  0  2  0  0  0  0  0  0
  189.0010  173.8180  136.1120 C   0  0  1  0  0  3  0  0  0  0  0  0
  189.2160  174.8620  135.1280 N   0  0  0  0  0  1  0  0  0  0  0  0
  190.0990  173.8890  137.1570 C   0  0  1  0  0  3  0  0  0  0  0  0
  188.7230  174.4400  137.4630 C   0  0  0  0  0  2  0  0  0  0  0  0
  191.1250  175.8220  144.2150 C   0  0  1  0  0  3  0  0  0  0  0  0
  192.4600  177.0680  145.9720 F   0  0  0  0  0  0  0  0  0  0  0  0
  191.2770  175.7810  148.0860 C   0  0  0  0  0  1  0  0  0  0  0  0
  191.0070  175.1920  146.7130 C   0  0  1  0  0  3  0  0  0  0  0  0
  191.6720  175.9730  145.6400 C   0  0  1  0  0  0  0  0  0  0  0  0
  192.2210  174.7740  146.1290 O   0  0  0  0  0  0  0  0  0  0  0  0
  190.5780  177.1550  143.7070 C   0  0  0  0  0  2  0  0  0  0  0  0
  186.1460  177.7150  142.4690 C   0  0  0  0  0  0  0  0  0  0  0  0
  187.0970  178.3010  144.5070 N   0  0  0  0  0  0  0  0  0  0  0  0
  189.4270  177.5880  144.4850 N   0  0  0  0  0  2  0  0  0  0  0  0
  187.7170  177.1160  142.3640 S   0  0  0  0  0  0  0  0  0  0  0  0
  185.9890  178.3170  143.7160 C   0  0  0  0  0  0  0  0  0  0  0  0
  188.1280  177.6780  143.8980 C   0  0  0  0  0  0  0  0  0  0  0  0
  184.7290  178.9690  144.1640 C   0  0  0  0  0  1  0  0  0  0  0  0
  185.1040  177.6110  141.3980 C   0  0  2  0  0  3  0  0  0  0  0  0
  186.1270  177.0060  139.3290 O   0  0  0  0  0  1  0  0  0  0  0  0
  185.6530  178.0930  140.0680 C   0  0  0  0  0  2  0  0  0  0  0  0
  183.9360  178.3970  141.7580 N   0  0  0  0  0  2  0  0  0  0  0  0
  182.9850  178.2690  140.6710 C   0  0  0  0  0  2  0  0  0  0  0  0
  181.6020  178.0000  141.2410 C   0  0  0  0  0  2  0  0  0  0  0  0
  179.7830  179.2030  142.2120 O   0  0  0  0  0  1  0  0  0  0  0  0
  180.7640  179.2660  141.2220 C   0  0  0  0  0  2  0  0  0  0  0  0
  1 10  1  0  0  0  0
  2  7  1  0  0  0  0
  3 12  1  1  0  0  0
  4  9  1  0  0  0  0
  4  2  1  0  0  0  0
  5  1  1  6  0  0  0
  5  9  1  0  0  0  0
  5  3  1  0  0  0  0
  6 12  2  0  0  0  0
  6 25  1  0  0  0  0
  7 27  1  1  0  0  0
  7  8  1  0  0  0  0
  9 16  1  6  0  0  0
  9  3  1  0  0  0  0
 10 43  1  6  0  0  0
 10  6  1  0  0  0  0
 12 11  1  0  0  0  0
 13 11  1  0  0  0  0
 13  8  1  0  0  0  0
 13 49  1  1  0  0  0
 14 15  1  0  0  0  0
 16 15  2  0  0  0  0
 17 16  1  0  0  0  0
 18 19  1  6  0  0  0
 18 17  1  0  0  0  0
 18 14  1  0  0  0  0
 20 24  1  0  0  0  0
 20 23  1  0  0  0  0
 21 22  1  0  0  0  0
 22 19  1  0  0  0  0
 23 19  1  0  0  0  0
 24 21  1  0  0  0  0
 25 26  1  0  0  0  0
 27 28  1  0  0  0  0
 30 29  1  6  0  0  0
 30 28  1  0  0  0  0
 30 31  1  0  0  0  0
 31 32  1  1  0  0  0
 33 31  1  0  0  0  0
 33 34  1  0  0  0  0
 35 38  1  0  0  0  0
 36 35  1  0  0  0  0
 36 42  1  0  0  0  0
 37 34  1  6  0  0  0
 38 40  1  0  0  0  0
 40 37  1  0  0  0  0
 40 39  1  1  0  0  0
 42 41  2  0  0  0  0
 42 37  1  0  0  0  0
 44 43  1  0  0  0  0
 45 46  1  6  0  0  0
 45 47  1  0  0  0  0
 45 48  1  0  0  0  0
 47 48  1  0  0  0  0
 47 44  1  1  0  0  0
 49 55  1  6  0  0  0
 49 53  1  0  0  0  0
 52 51  1  1  0  0  0
 53 50  1  1  0  0  0
 53 54  1  0  0  0  0
 53 52  1  0  0  0  0
 54 52  1  0  0  0  0
 55 58  1  0  0  0  0
 56 60  2  0  0  0  0
 59 56  1  0  0  0  0
 59 61  1  0  0  0  0
 60 62  1  0  0  0  0
 60 57  1  0  0  0  0
 61 58  1  0  0  0  0
 61 57  2  0  0  0  0
 63 65  1  6  0  0  0
 63 66  1  0  0  0  0
 63 56  1  0  0  0  0
 64 65  1  0  0  0  0
 67 68  1  0  0  0  0
 67 66  1  0  0  0  0
 70 68  1  0  0  0  0
 70 69  1  0  0  0  0
M  END
>  <MODEL>
2

>  <REMARK>
 VINA RESULT:      -5.7      2.517      4.679
  Name = 
  23 active torsions:
  status: ('A' for Active; 'I' for Inactive)
    1  A    between atoms: C_1  and  C_60
    2  A    between atoms: C_1  and  C_62
    3  A    between atoms: C_2  and  C_8
    4  A    between atoms: C_2  and  C_66
    5  A    between atoms: C_2  and  C_68
    6  A    between atoms: C_7  and  C_43
    7  A    between atoms: C_7  and  C_48
    8  A    between atoms: C_8  and  N_35
    9  A    between atoms: C_9  and  C_47
   10  A    between atoms: C_14  and  C_49
   11  A    between atoms: C_14  and  C_51
   12  A    between atoms: C_17  and  CA_40
   13  A    between atoms: C_20  and  O_36
   14  A    between atoms: C_21  and  CA_40
   15  A    between atoms: C_25  and  O_38
   16  A    between atoms: C_25  and  C_48
   17  A    between atoms: C_27  and  C_33
   18  A    between atoms: C_29  and  C_56
   19  A    between atoms: C_30  and  C_43
   20  A    between atoms: O_38  and  C_56
   21  A    between atoms: C_39  and  C_51
   22  A    between atoms: CA_40  and  N_42
   23  A    between atoms: N_42  and  C_60
                            x       y       z     vdW  Elec       q    Type
                         _______ _______ _______ _____ _____    ______ ____

>  <TORSDO>
F 23

$$$$
=
 OpenBabel11042413523D

 70 78  0  0  1  0  0  0  0  0999 V2000
  188.8180  174.3950  139.9210 C   0  0  0  0  0  2  0  0  0  0  0  0
  189.9850  172.8430  144.1950 C   0  0  0  0  0  2  0  0  0  0  0  0
  190.2450  174.6260  141.7310 C   0  0  1  0  0  3  0  0  0  0  0  0
  188.8480  173.8030  143.8840 C   0  0  0  0  0  2  0  0  0  0  0  0
  188.9260  173.9020  141.3530 C   0  0  1  0  0  3  0  0  0  0  0  0
  191.1340  173.2620  139.8970 C   0  0  0  0  0  0  0  0  0  0  0  0
  191.2450  173.6040  144.5910 C   0  0  2  0  0  3  0  0  0  0  0  0
  192.4760  172.7560  144.3050 C   0  0  0  0  0  2  0  0  0  0  0  0
  189.0100  174.6820  142.6320 C   0  0  2  0  0  0  0  0  0  0  0  0
  189.8510  173.5800  139.1050 C   0  0  1  0  0  3  0  0  0  0  0  0
  192.5560  173.4490  141.9120 C   0  0  0  0  0  2  0  0  0  0  0  0
  191.2480  173.6280  141.1990 C   0  0  0  0  0  0  0  0  0  0  0  0
  192.5060  172.2580  142.8560 C   0  0  1  0  0  3  0  0  0  0  0  0
  186.7380  177.6090  142.4060 N   0  0  0  0  0  2  0  0  0  0  0  0
  187.1970  176.3230  142.0330 C   0  0  0  0  0  3  0  0  0  0  0  0
  188.3080  176.0100  142.6800 C   0  0  0  0  0  0  0  0  0  0  0  0
  188.7290  177.1080  143.5980 C   0  0  0  0  0  2  0  0  0  0  0  0
  187.5970  178.1300  143.4630 C   0  0  2  0  0  3  0  0  0  0  0  0
  186.8120  178.2730  144.7730 C   0  0  0  0  0  3  0  0  0  0  0  0
  185.7720  176.9010  146.6560 C   0  0  0  0  0  2  0  0  0  0  0  0
  184.4530  178.4690  145.7460 C   0  0  0  0  0  2  0  0  0  0  0  0
  185.3680  178.7690  144.5490 C   0  0  0  0  0  2  0  0  0  0  0  0
  186.8800  176.9750  145.5970 C   0  0  0  0  0  2  0  0  0  0  0  0
  185.2070  178.1680  146.8920 O   0  0  0  0  0  0  0  0  0  0  0  0
  192.2030  172.5960  139.2800 O   0  0  0  0  0  0  0  0  0  0  0  0
  193.0280  173.2050  138.2980 C   0  0  0  0  0  1  0  0  0  0  0  0
  191.1940  173.9910  146.0610 C   0  0  0  0  0  2  0  0  0  0  0  0
  191.0510  175.5030  146.1980 C   0  0  0  0  0  2  0  0  0  0  0  0
  191.7200  176.9750  147.9740 F   0  0  0  0  0  0  0  0  0  0  0  0
  192.2020  176.1200  146.9940 C   0  0  2  0  0  3  0  0  0  0  0  0
  193.2060  176.8400  146.0720 C   0  0  1  0  0  3  0  0  0  0  0  0
  194.5060  177.2180  146.7900 C   0  0  0  0  0  1  0  0  0  0  0  0
  193.4380  176.1510  144.8530 O   0  0  0  0  0  0  0  0  0  0  0  0
  194.8190  176.1690  144.5890 C   0  0  0  0  0  2  0  0  0  0  0  0
  197.7990  174.4630  141.8970 C   0  0  0  0  0  2  0  0  0  0  0  0
  197.9370  174.5030  143.7300 S   0  0  0  0  0  0  0  0  0  0  0  0
  195.1740  175.1710  143.5020 C   0  0  1  0  0  3  0  0  0  0  0  0
  196.4290  174.8750  141.3340 C   0  0  0  0  0  2  0  0  0  0  0  0
  194.5250  176.4500  141.4460 C   0  0  0  0  0  1  0  0  0  0  0  0
  195.6870  175.8690  142.2320 C   0  0  1  0  0  3  0  0  0  0  0  0
  195.8380  173.2270  144.6600 O   0  0  0  0  0  0  0  0  0  0  0  0
  196.1950  174.2150  144.0410 C   0  0  0  0  0  0  0  0  0  0  0  0
  189.2020  172.2840  138.6330 C   0  0  0  0  0  2  0  0  0  0  0  0
  189.6970  171.9060  137.2440 C   0  0  0  0  0  2  0  0  0  0  0  0
  191.1020  170.2160  136.1160 C   0  0  1  0  0  3  0  0  0  0  0  0
  191.0290  168.8470  135.6380 N   0  0  0  0  0  1  0  0  0  0  0  0
  190.0380  170.4270  137.1760 C   0  0  1  0  0  3  0  0  0  0  0  0
  191.4810  170.2240  137.5810 C   0  0  0  0  0  2  0  0  0  0  0  0
  193.6750  171.3010  142.5860 C   0  0  1  0  0  3  0  0  0  0  0  0
  193.8280  168.7720  142.6410 F   0  0  0  0  0  0  0  0  0  0  0  0
  191.2900  168.3890  141.6740 C   0  0  0  0  0  1  0  0  0  0  0  0
  191.8270  169.8060  141.5870 C   0  0  1  0  0  3  0  0  0  0  0  0
  193.1940  169.9090  142.1560 C   0  0  1  0  0  0  0  0  0  0  0  0
  192.9760  169.8280  140.7690 O   0  0  0  0  0  0  0  0  0  0  0  0
  194.5740  171.9130  141.5130 C   0  0  0  0  0  2  0  0  0  0  0  0
  196.6830  171.8200  137.3860 C   0  0  0  0  0  0  0  0  0  0  0  0
  196.6250  170.1000  138.9490 N   0  0  0  0  0  0  0  0  0  0  0  0
  195.4530  170.9150  140.9240 N   0  0  0  0  0  2  0  0  0  0  0  0
  195.9210  172.5160  138.7180 S   0  0  0  0  0  0  0  0  0  0  0  0
  197.0070  170.5020  137.7050 C   0  0  0  0  0  0  0  0  0  0  0  0
  196.0130  171.0970  139.6220 C   0  0  0  0  0  0  0  0  0  0  0  0
  197.6830  169.5690  136.7650 C   0  0  0  0  0  1  0  0  0  0  0  0
  196.9610  172.5110  136.0870 C   0  0  2  0  0  3  0  0  0  0  0  0
  197.9390  174.4500  135.1000 O   0  0  0  0  0  1  0  0  0  0  0  0
  197.6620  173.8360  136.3240 C   0  0  0  0  0  2  0  0  0  0  0  0
  195.7200  172.7360  135.3650 N   0  0  0  0  0  2  0  0  0  0  0  0
  195.3630  174.1290  135.5560 C   0  0  0  0  0  2  0  0  0  0  0  0
  193.9470  174.3580  135.0560 C   0  0  0  0  0  2  0  0  0  0  0  0
  191.9960  175.6490  135.5360 O   0  0  0  0  0  1  0  0  0  0  0  0
  193.3890  175.6550  135.6170 C   0  0  0  0  0  2  0  0  0  0  0  0
  2  7  1  0  0  0  0
  3 12  1  1  0  0  0
  3  9  1  0  0  0  0
  4  2  1  0  0  0  0
  5  1  1  6  0  0  0
  5  3  1  0  0  0  0
  5  9  1  0  0  0  0
  6 12  2  0  0  0  0
  7 27  1  1  0  0  0
  8  7  1  0  0  0  0
  9 16  1  1  0  0  0
  9  4  1  0  0  0  0
 10 43  1  1  0  0  0
 10  6  1  0  0  0  0
 10  1  1  0  0  0  0
 11 13  1  0  0  0  0
 12 11  1  0  0  0  0
 13 49  1  1  0  0  0
 13  8  1  0  0  0  0
 14 18  1  0  0  0  0
 15 14  1  0  0  0  0
 15 16  2  0  0  0  0
 16 17  1  0  0  0  0
 18 17  1  0  0  0  0
 18 19  1  1  0  0  0
 19 23  1  0  0  0  0
 20 24  1  0  0  0  0
 21 24  1  0  0  0  0
 22 19  1  0  0  0  0
 22 21  1  0  0  0  0
 23 20  1  0  0  0  0
 25  6  1  0  0  0  0
 26 25  1  0  0  0  0
 27 28  1  0  0  0  0
 28 30  1  0  0  0  0
 30 29  1  1  0  0  0
 31 32  1  1  0  0  0
 31 30  1  0  0  0  0
 33 31  1  0  0  0  0
 34 33  1  0  0  0  0
 35 36  1  0  0  0  0
 36 42  1  0  0  0  0
 37 42  1  0  0  0  0
 37 34  1  1  0  0  0
 38 35  1  0  0  0  0
 38 40  1  0  0  0  0
 40 39  1  6  0  0  0
 40 37  1  0  0  0  0
 42 41  2  0  0  0  0
 44 43  1  0  0  0  0
 45 46  1  1  0  0  0
 45 47  1  0  0  0  0
 45 48  1  0  0  0  0
 47 44  1  6  0  0  0
 47 48  1  0  0  0  0
 49 55  1  6  0  0  0
 52 51  1  1  0  0  0
 52 53  1  0  0  0  0
 53 49  1  0  0  0  0
 53 50  1  1  0  0  0
 54 52  1  0  0  0  0
 54 53  1  0  0  0  0
 56 60  2  0  0  0  0
 56 59  1  0  0  0  0
 57 61  2  0  0  0  0
 58 55  1  0  0  0  0
 59 61  1  0  0  0  0
 60 57  1  0  0  0  0
 61 58  1  0  0  0  0
 62 60  1  0  0  0  0
 63 65  1  1  0  0  0
 63 56  1  0  0  0  0
 64 65  1  0  0  0  0
 66 67  1  0  0  0  0
 66 63  1  0  0  0  0
 68 67  1  0  0  0  0
 68 70  1  0  0  0  0
 69 70  1  0  0  0  0
M  END
>  <MODEL>
3

>  <REMARK>
 VINA RESULT:      -5.0      3.113      9.725
  Name = 
  23 active torsions:
  status: ('A' for Active; 'I' for Inactive)
    1  A    between atoms: C_1  and  C_60
    2  A    between atoms: C_1  and  C_62
    3  A    between atoms: C_2  and  C_8
    4  A    between atoms: C_2  and  C_66
    5  A    between atoms: C_2  and  C_68
    6  A    between atoms: C_7  and  C_43
    7  A    between atoms: C_7  and  C_48
    8  A    between atoms: C_8  and  N_35
    9  A    between atoms: C_9  and  C_47
   10  A    between atoms: C_14  and  C_49
   11  A    between atoms: C_14  and  C_51
   12  A    between atoms: C_17  and  CA_40
   13  A    between atoms: C_20  and  O_36
   14  A    between atoms: C_21  and  CA_40
   15  A    between atoms: C_25  and  O_38
   16  A    between atoms: C_25  and  C_48
   17  A    between atoms: C_27  and  C_33
   18  A    between atoms: C_29  and  C_56
   19  A    between atoms: C_30  and  C_43
   20  A    between atoms: O_38  and  C_56
   21  A    between atoms: C_39  and  C_51
   22  A    between atoms: CA_40  and  N_42
   23  A    between atoms: N_42  and  C_60
                            x       y       z     vdW  Elec       q    Type
                         _______ _______ _______ _____ _____    ______ ____

>  <TORSDO>
F 23

$$$$
=
 OpenBabel11042413523D

 70 78  0  0  1  0  0  0  0  0999 V2000
  194.2510  174.9910  145.6440 C   0  0  0  0  0  2  0  0  0  0  0  0
  191.5790  173.8030  141.9710 C   0  0  0  0  0  2  0  0  0  0  0  0
  192.3730  173.8450  144.9190 C   0  0  1  0  0  3  0  0  0  0  0  0
  191.5290  175.1330  142.7060 C   0  0  0  0  0  2  0  0  0  0  0  0
  193.4080  174.8710  144.3870 C   0  0  1  0  0  3  0  0  0  0  0  0
  194.3780  172.4570  145.1850 C   0  0  0  0  0  0  0  0  0  0  0  0
  190.5230  172.8460  142.5100 C   0  0  2  0  0  3  0  0  0  0  0  0
  190.9460  171.4060  142.2510 C   0  0  0  0  0  2  0  0  0  0  0  0
  191.9420  175.1180  144.1880 C   0  0  2  0  0  0  0  0  0  0  0  0
  195.1110  173.7060  145.7110 C   0  0  1  0  0  3  0  0  0  0  0  0
  192.3680  171.3210  144.2970 C   0  0  0  0  0  2  0  0  0  0  0  0
  193.1290  172.5610  144.6620 C   0  0  0  0  0  0  0  0  0  0  0  0
  192.3500  171.1150  142.7890 C   0  0  1  0  0  3  0  0  0  0  0  0
  190.2280  178.0530  145.6830 N   0  0  0  0  0  2  0  0  0  0  0  0
  190.9250  177.3740  144.6540 C   0  0  0  0  0  3  0  0  0  0  0  0
  191.2930  176.1660  145.0490 C   0  0  0  0  0  0  0  0  0  0  0  0
  190.8610  175.8980  146.4510 C   0  0  0  0  0  2  0  0  0  0  0  0
  190.0600  177.1510  146.8160 C   0  0  2  0  0  3  0  0  0  0  0  0
  188.5770  176.8250  147.0290 C   0  0  0  0  0  3  0  0  0  0  0  0
  186.4300  176.2870  145.7580 C   0  0  0  0  0  2  0  0  0  0  0  0
  186.2620  177.8760  147.3290 C   0  0  0  0  0  2  0  0  0  0  0  0
  187.7730  178.0320  147.5590 C   0  0  0  0  0  2  0  0  0  0  0  0
  187.9640  176.2060  145.7610 C   0  0  0  0  0  2  0  0  0  0  0  0
  185.9310  176.5410  147.0490 O   0  0  0  0  0  0  0  0  0  0  0  0
  194.9880  171.1960  145.2460 O   0  0  0  0  0  0  0  0  0  0  0  0
  196.2590  170.9820  145.8430 C   0  0  0  0  0  1  0  0  0  0  0  0
  189.1720  173.1270  141.8710 C   0  0  0  0  0  2  0  0  0  0  0  0
  189.2740  174.3360  140.9470 C   0  0  0  0  0  2  0  0  0  0  0  0
  187.7350  175.7460  139.7580 F   0  0  0  0  0  0  0  0  0  0  0  0
  188.0220  175.2130  141.0060 C   0  0  2  0  0  3  0  0  0  0  0  0
  188.1590  176.3220  142.0690 C   0  0  1  0  0  3  0  0  0  0  0  0
  189.0820  177.4610  141.6220 C   0  0  0  0  0  1  0  0  0  0  0  0
  186.9090  176.7920  142.5490 O   0  0  0  0  0  0  0  0  0  0  0  0
  187.0450  178.1510  142.8860 C   0  0  0  0  0  2  0  0  0  0  0  0
  182.7220  178.7330  142.9700 C   0  0  0  0  0  2  0  0  0  0  0  0
  183.8130  178.7290  144.4510 S   0  0  0  0  0  0  0  0  0  0  0  0
  185.8280  178.9420  142.4450 C   0  0  1  0  0  3  0  0  0  0  0  0
  183.4530  178.7430  141.6180 C   0  0  0  0  0  2  0  0  0  0  0  0
  185.3090  177.8430  140.2520 C   0  0  0  0  0  1  0  0  0  0  0  0
  184.8260  178.0670  141.6750 C   0  0  1  0  0  3  0  0  0  0  0  0
  185.5840  180.6310  144.0720 O   0  0  0  0  0  0  0  0  0  0  0  0
  185.1890  179.5560  143.6540 C   0  0  0  0  0  0  0  0  0  0  0  0
  196.3940  173.9230  144.9150 C   0  0  0  0  0  2  0  0  0  0  0  0
  196.1290  173.8110  143.4210 C   0  0  0  0  0  2  0  0  0  0  0  0
  196.0050  175.9560  142.2000 C   0  0  1  0  0  3  0  0  0  0  0  0
  196.5780  176.6100  141.0380 N   0  0  0  0  0  1  0  0  0  0  0  0
  196.9340  174.8450  142.6510 C   0  0  1  0  0  3  0  0  0  0  0  0
  196.9070  176.1620  143.3970 C   0  0  0  0  0  2  0  0  0  0  0  0
  192.8390  169.7060  142.4280 C   0  0  1  0  0  3  0  0  0  0  0  0
  190.7430  168.3420  142.0160 F   0  0  0  0  0  0  0  0  0  0  0  0
  190.6180  168.9530  139.3450 C   0  0  0  0  0  1  0  0  0  0  0  0
  191.9060  169.3300  140.0530 C   0  0  1  0  0  3  0  0  0  0  0  0
  191.8630  168.9780  141.4950 C   0  0  1  0  0  0  0  0  0  0  0  0
  192.5280  168.1680  140.5570 O   0  0  0  0  0  0  0  0  0  0  0  0
  194.2190  169.8150  141.7800 C   0  0  0  0  0  2  0  0  0  0  0  0
  195.6610  171.9730  137.9390 C   0  0  0  0  0  0  0  0  0  0  0  0
  195.5860  172.8680  140.0840 N   0  0  0  0  0  0  0  0  0  0  0  0
  194.5950  171.2030  141.5620 N   0  0  0  0  0  2  0  0  0  0  0  0
  194.9010  170.7740  138.8470 S   0  0  0  0  0  0  0  0  0  0  0  0
  195.9470  173.0450  138.7830 C   0  0  0  0  0  0  0  0  0  0  0  0
  195.0030  171.6660  140.2730 C   0  0  0  0  0  0  0  0  0  0  0  0
  196.6310  174.2880  138.3330 C   0  0  0  0  0  1  0  0  0  0  0  0
  195.9680  171.8900  136.4760 C   0  0  2  0  0  3  0  0  0  0  0  0
  197.7580  172.1070  134.9150 O   0  0  0  0  0  1  0  0  0  0  0  0
  197.4660  171.8070  136.2480 C   0  0  0  0  0  2  0  0  0  0  0  0
  195.4310  173.0500  135.7860 N   0  0  0  0  0  2  0  0  0  0  0  0
  193.9890  172.8980  135.7540 C   0  0  0  0  0  2  0  0  0  0  0  0
  193.4360  173.5940  134.5220 C   0  0  0  0  0  2  0  0  0  0  0  0
  191.0820  173.1950  134.5130 O   0  0  0  0  0  1  0  0  0  0  0  0
  192.0530  174.1540  134.8040 C   0  0  0  0  0  2  0  0  0  0  0  0
  1 10  1  0  0  0  0
  2  7  1  0  0  0  0
  2  4  1  0  0  0  0
  3 12  1  6  0  0  0
  4  9  1  0  0  0  0
  5  3  1  0  0  0  0
  5  1  1  1  0  0  0
  6 25  1  0  0  0  0
  6 10  1  0  0  0  0
  7 27  1  6  0  0  0
  8  7  1  0  0  0  0
  8 13  1  0  0  0  0
  9  5  1  0  0  0  0
  9  3  1  0  0  0  0
  9 16  1  1  0  0  0
 10 43  1  6  0  0  0
 11 12  1  0  0  0  0
 12  6  2  0  0  0  0
 13 49  1  1  0  0  0
 13 11  1  0  0  0  0
 14 18  1  0  0  0  0
 15 16  2  0  0  0  0
 15 14  1  0  0  0  0
 16 17  1  0  0  0  0
 17 18  1  0  0  0  0
 18 19  1  6  0  0  0
 19 22  1  0  0  0  0
 20 23  1  0  0  0  0
 20 24  1  0  0  0  0
 21 22  1  0  0  0  0
 23 19  1  0  0  0  0
 24 21  1  0  0  0  0
 25 26  1  0  0  0  0
 28 30  1  0  0  0  0
 28 27  1  0  0  0  0
 30 29  1  6  0  0  0
 30 31  1  0  0  0  0
 31 32  1  6  0  0  0
 31 33  1  0  0  0  0
 33 34  1  0  0  0  0
 35 36  1  0  0  0  0
 37 34  1  1  0  0  0
 37 42  1  0  0  0  0
 38 40  1  0  0  0  0
 38 35  1  0  0  0  0
 40 39  1  6  0  0  0
 40 37  1  0  0  0  0
 42 41  2  0  0  0  0
 42 36  1  0  0  0  0
 44 43  1  0  0  0  0
 45 46  1  6  0  0  0
 45 47  1  0  0  0  0
 45 48  1  0  0  0  0
 47 48  1  0  0  0  0
 47 44  1  1  0  0  0
 49 55  1  6  0  0  0
 52 51  1  6  0  0  0
 52 54  1  0  0  0  0
 52 53  1  0  0  0  0
 53 50  1  1  0  0  0
 53 49  1  0  0  0  0
 54 53  1  0  0  0  0
 56 60  2  0  0  0  0
 56 59  1  0  0  0  0
 57 61  2  0  0  0  0
 58 55  1  0  0  0  0
 59 61  1  0  0  0  0
 60 57  1  0  0  0  0
 61 58  1  0  0  0  0
 62 60  1  0  0  0  0
 63 65  1  1  0  0  0
 63 56  1  0  0  0  0
 64 65  1  0  0  0  0
 66 63  1  0  0  0  0
 67 66  1  0  0  0  0
 68 70  1  0  0  0  0
 68 67  1  0  0  0  0
 69 70  1  0  0  0  0
M  END
>  <MODEL>
4

>  <REMARK>
 VINA RESULT:      -4.5      3.100     10.617
  Name = 
  23 active torsions:
  status: ('A' for Active; 'I' for Inactive)
    1  A    between atoms: C_1  and  C_60
    2  A    between atoms: C_1  and  C_62
    3  A    between atoms: C_2  and  C_8
    4  A    between atoms: C_2  and  C_66
    5  A    between atoms: C_2  and  C_68
    6  A    between atoms: C_7  and  C_43
    7  A    between atoms: C_7  and  C_48
    8  A    between atoms: C_8  and  N_35
    9  A    between atoms: C_9  and  C_47
   10  A    between atoms: C_14  and  C_49
   11  A    between atoms: C_14  and  C_51
   12  A    between atoms: C_17  and  CA_40
   13  A    between atoms: C_20  and  O_36
   14  A    between atoms: C_21  and  CA_40
   15  A    between atoms: C_25  and  O_38
   16  A    between atoms: C_25  and  C_48
   17  A    between atoms: C_27  and  C_33
   18  A    between atoms: C_29  and  C_56
   19  A    between atoms: C_30  and  C_43
   20  A    between atoms: O_38  and  C_56
   21  A    between atoms: C_39  and  C_51
   22  A    between atoms: CA_40  and  N_42
   23  A    between atoms: N_42  and  C_60
                            x       y       z     vdW  Elec       q    Type
                         _______ _______ _______ _____ _____    ______ ____

>  <TORSDO>
F 23

$$$$
=
 OpenBabel11042413523D

 70 78  0  0  1  0  0  0  0  0999 V2000
  192.5470  174.3170  145.6740 C   0  0  0  0  0  2  0  0  0  0  0  0
  190.0560  175.2650  141.8090 C   0  0  0  0  0  2  0  0  0  0  0  0
  190.6000  173.9060  144.4890 C   0  0  1  0  0  3  0  0  0  0  0  0
  190.1230  176.1370  143.0530 C   0  0  0  0  0  2  0  0  0  0  0  0
  191.8040  174.8850  144.4780 C   0  0  1  0  0  3  0  0  0  0  0  0
  192.3710  172.2430  144.1510 C   0  0  0  0  0  0  0  0  0  0  0  0
  188.8400  174.3470  141.8560 C   0  0  2  0  0  3  0  0  0  0  0  0
  189.0860  173.1130  140.9980 C   0  0  0  0  0  2  0  0  0  0  0  0
  190.4050  175.4200  144.3840 C   0  0  2  0  0  0  0  0  0  0  0  0
  193.2190  173.0110  145.1840 C   0  0  1  0  0  3  0  0  0  0  0  0
  190.3090  171.9320  142.8210 C   0  0  0  0  0  2  0  0  0  0  0  0
  191.1960  172.7580  143.7070 C   0  0  0  0  0  0  0  0  0  0  0  0
  190.3890  172.4020  141.3770 C   0  0  1  0  0  3  0  0  0  0  0  0
  189.1650  177.6730  147.0610 N   0  0  0  0  0  2  0  0  0  0  0  0
  189.9280  177.3660  145.9090 C   0  0  0  0  0  3  0  0  0  0  0  0
  189.8330  176.0810  145.6070 C   0  0  0  0  0  0  0  0  0  0  0  0
  188.9550  175.3590  146.5730 C   0  0  0  0  0  2  0  0  0  0  0  0
  188.4420  176.4790  147.4830 C   0  0  2  0  0  3  0  0  0  0  0  0
  186.9300  176.6820  147.3240 C   0  0  0  0  0  3  0  0  0  0  0  0
  185.1310  177.1230  145.5690 C   0  0  0  0  0  2  0  0  0  0  0  0
  185.0740  178.4430  147.3790 C   0  0  0  0  0  2  0  0  0  0  0  0
  186.4420  178.0140  147.9310 C   0  0  0  0  0  2  0  0  0  0  0  0
  186.5040  176.4990  145.8570 C   0  0  0  0  0  2  0  0  0  0  0  0
  184.4210  177.3650  146.7590 O   0  0  0  0  0  0  0  0  0  0  0  0
  192.8010  171.0010  143.6630 O   0  0  0  0  0  0  0  0  0  0  0  0
  192.5530  169.7780  144.3390 C   0  0  0  0  0  1  0  0  0  0  0  0
  187.5970  175.0840  141.3830 C   0  0  0  0  0  2  0  0  0  0  0  0
  187.9080  176.5670  141.2010 C   0  0  0  0  0  2  0  0  0  0  0  0
  186.1060  176.8560  142.7630 F   0  0  0  0  0  0  0  0  0  0  0  0
  186.7730  177.4590  141.7070 C   0  0  2  0  0  3  0  0  0  0  0  0
  185.7970  177.8310  140.5720 C   0  0  1  0  0  3  0  0  0  0  0  0
  186.3010  177.3970  139.1920 C   0  0  0  0  0  1  0  0  0  0  0  0
  184.4640  177.4140  140.8220 O   0  0  0  0  0  0  0  0  0  0  0  0
  183.6240  178.5390  140.7410 C   0  0  0  0  0  2  0  0  0  0  0  0
  179.6750  179.9520  141.9410 C   0  0  0  0  0  2  0  0  0  0  0  0
  180.3190  179.9660  140.2190 S   0  0  0  0  0  0  0  0  0  0  0  0
  182.2810  178.2580  141.3880 C   0  0  1  0  0  3  0  0  0  0  0  0
  180.5370  179.1850  142.9570 C   0  0  0  0  0  2  0  0  0  0  0  0
  182.8090  178.6910  143.8000 C   0  0  0  0  0  1  0  0  0  0  0  0
  182.0240  179.1760  142.5940 C   0  0  1  0  0  3  0  0  0  0  0  0
  180.9160  177.4760  139.6310 O   0  0  0  0  0  0  0  0  0  0  0  0
  181.2070  178.4140  140.3540 C   0  0  0  0  0  0  0  0  0  0  0  0
  194.5810  173.3460  144.5860 C   0  0  0  0  0  2  0  0  0  0  0  0
  195.3680  172.0780  144.2890 C   0  0  0  0  0  2  0  0  0  0  0  0
  196.3230  170.1080  145.4360 C   0  0  1  0  0  3  0  0  0  0  0  0
  196.4970  169.5770  146.7750 N   0  0  0  0  0  1  0  0  0  0  0  0
  196.1220  171.6090  145.5220 C   0  0  1  0  0  3  0  0  0  0  0  0
  197.4640  171.0450  145.1080 C   0  0  0  0  0  2  0  0  0  0  0  0
  190.7140  171.2300  140.4420 C   0  0  1  0  0  3  0  0  0  0  0  0
  190.8480  172.6670  138.3580 F   0  0  0  0  0  0  0  0  0  0  0  0
  189.9630  170.6860  136.6800 C   0  0  0  0  0  1  0  0  0  0  0  0
  189.8150  170.4130  138.1660 C   0  0  1  0  0  3  0  0  0  0  0  0
  190.3430  171.5340  138.9840 C   0  0  1  0  0  0  0  0  0  0  0  0
  188.9660  171.3810  138.7430 O   0  0  0  0  0  0  0  0  0  0  0  0
  192.2020  170.9050  140.5590 C   0  0  0  0  0  2  0  0  0  0  0  0
  195.5550  172.6190  137.8540 C   0  0  0  0  0  0  0  0  0  0  0  0
  194.1550  170.8300  137.3570 N   0  0  0  0  0  0  0  0  0  0  0  0
  192.7400  170.4180  139.2980 N   0  0  0  0  0  2  0  0  0  0  0  0
  194.6840  172.3850  139.2770 S   0  0  0  0  0  0  0  0  0  0  0  0
  195.1380  171.6670  136.9240 C   0  0  0  0  0  0  0  0  0  0  0  0
  193.8000  171.1050  138.6300 C   0  0  0  0  0  0  0  0  0  0  0  0
  195.6800  171.5730  135.5420 C   0  0  0  0  0  1  0  0  0  0  0  0
  196.5960  173.6720  137.6370 C   0  0  2  0  0  3  0  0  0  0  0  0
  197.8530  171.8970  138.6170 O   0  0  0  0  0  1  0  0  0  0  0  0
  197.9330  173.2290  138.2030 C   0  0  0  0  0  2  0  0  0  0  0  0
  196.1870  174.9160  138.2680 N   0  0  0  0  0  2  0  0  0  0  0  0
  197.1740  175.2230  139.2850 C   0  0  0  0  0  2  0  0  0  0  0  0
  196.5110  175.9970  140.4120 C   0  0  0  0  0  2  0  0  0  0  0  0
  196.7850  176.3850  142.7530 O   0  0  0  0  0  1  0  0  0  0  0  0
  196.9000  175.4120  141.7590 C   0  0  0  0  0  2  0  0  0  0  0  0
  2  7  1  0  0  0  0
  2  4  1  0  0  0  0
  3 12  1  6  0  0  0
  4  9  1  0  0  0  0
  5  3  1  0  0  0  0
  5  1  1  1  0  0  0
  6 10  1  0  0  0  0
  7 27  1  6  0  0  0
  8 13  1  0  0  0  0
  8  7  1  0  0  0  0
  9  5  1  0  0  0  0
  9  3  1  0  0  0  0
  9 16  1  1  0  0  0
 10 43  1  6  0  0  0
 10  1  1  0  0  0  0
 11 12  1  0  0  0  0
 12  6  2  0  0  0  0
 13 49  1  6  0  0  0
 13 11  1  0  0  0  0
 14 18  1  0  0  0  0
 15 14  1  0  0  0  0
 16 15  2  0  0  0  0
 16 17  1  0  0  0  0
 17 18  1  0  0  0  0
 18 19  1  6  0  0  0
 19 22  1  0  0  0  0
 20 23  1  0  0  0  0
 20 24  1  0  0  0  0
 21 22  1  0  0  0  0
 23 19  1  0  0  0  0
 24 21  1  0  0  0  0
 25  6  1  0  0  0  0
 25 26  1  0  0  0  0
 28 27  1  0  0  0  0
 28 30  1  0  0  0  0
 30 29  1  1  0  0  0
 31 32  1  6  0  0  0
 31 33  1  0  0  0  0
 31 30  1  0  0  0  0
 34 33  1  0  0  0  0
 35 38  1  0  0  0  0
 36 42  1  0  0  0  0
 36 35  1  0  0  0  0
 37 34  1  6  0  0  0
 37 40  1  0  0  0  0
 40 38  1  0  0  0  0
 40 39  1  1  0  0  0
 41 42  2  0  0  0  0
 42 37  1  0  0  0  0
 44 43  1  0  0  0  0
 45 47  1  0  0  0  0
 45 46  1  1  0  0  0
 47 44  1  6  0  0  0
 48 45  1  0  0  0  0
 48 47  1  0  0  0  0
 49 55  1  6  0  0  0
 52 51  1  6  0  0  0
 52 54  1  0  0  0  0
 52 53  1  0  0  0  0
 53 50  1  6  0  0  0
 53 49  1  0  0  0  0
 54 53  1  0  0  0  0
 56 59  1  0  0  0  0
 57 61  2  0  0  0  0
 58 55  1  0  0  0  0
 60 57  1  0  0  0  0
 60 56  2  0  0  0  0
 61 59  1  0  0  0  0
 61 58  1  0  0  0  0
 62 60  1  0  0  0  0
 63 56  1  0  0  0  0
 63 65  1  1  0  0  0
 63 66  1  0  0  0  0
 65 64  1  0  0  0  0
 66 67  1  0  0  0  0
 67 68  1  0  0  0  0
 68 70  1  0  0  0  0
 70 69  1  0  0  0  0
M  END
>  <MODEL>
5

>  <REMARK>
 VINA RESULT:      -4.4      3.392     11.567
  Name = 
  23 active torsions:
  status: ('A' for Active; 'I' for Inactive)
    1  A    between atoms: C_1  and  C_60
    2  A    between atoms: C_1  and  C_62
    3  A    between atoms: C_2  and  C_8
    4  A    between atoms: C_2  and  C_66
    5  A    between atoms: C_2  and  C_68
    6  A    between atoms: C_7  and  C_43
    7  A    between atoms: C_7  and  C_48
    8  A    between atoms: C_8  and  N_35
    9  A    between atoms: C_9  and  C_47
   10  A    between atoms: C_14  and  C_49
   11  A    between atoms: C_14  and  C_51
   12  A    between atoms: C_17  and  CA_40
   13  A    between atoms: C_20  and  O_36
   14  A    between atoms: C_21  and  CA_40
   15  A    between atoms: C_25  and  O_38
   16  A    between atoms: C_25  and  C_48
   17  A    between atoms: C_27  and  C_33
   18  A    between atoms: C_29  and  C_56
   19  A    between atoms: C_30  and  C_43
   20  A    between atoms: O_38  and  C_56
   21  A    between atoms: C_39  and  C_51
   22  A    between atoms: CA_40  and  N_42
   23  A    between atoms: N_42  and  C_60
                            x       y       z     vdW  Elec       q    Type
                         _______ _______ _______ _____ _____    ______ ____

>  <TORSDO>
F 23

$$$$
=
 OpenBabel11042413523D

 70 78  0  0  1  0  0  0  0  0999 V2000
  184.3450  178.4850  143.9270 C   0  0  0  0  0  2  0  0  0  0  0  0
  187.0280  177.6720  140.1620 C   0  0  0  0  0  2  0  0  0  0  0  0
  184.9660  176.9600  142.2980 C   0  0  1  0  0  3  0  0  0  0  0  0
  185.7070  178.4240  140.1590 C   0  0  0  0  0  2  0  0  0  0  0  0
  185.1260  178.4690  142.6260 C   0  0  1  0  0  3  0  0  0  0  0  0
  186.1440  176.7090  144.4350 C   0  0  0  0  0  0  0  0  0  0  0  0
  186.8180  176.2050  139.8030 C   0  0  2  0  0  3  0  0  0  0  0  0
  187.9460  175.3620  140.3820 C   0  0  0  0  0  2  0  0  0  0  0  0
  184.6940  178.0440  141.2530 C   0  0  2  0  0  0  0  0  0  0  0  0
  185.2690  177.8480  144.9940 C   0  0  1  0  0  3  0  0  0  0  0  0
  186.8460  175.1910  142.6130 C   0  0  0  0  0  2  0  0  0  0  0  0
  186.1080  176.3980  143.1140 C   0  0  0  0  0  0  0  0  0  0  0  0
  188.1210  175.5930  141.8870 C   0  0  1  0  0  3  0  0  0  0  0  0
  181.2100  177.9140  139.9770 N   0  0  0  0  0  2  0  0  0  0  0  0
  182.5840  177.5680  139.9650 C   0  0  0  0  0  3  0  0  0  0  0  0
  183.2490  178.2400  140.8910 C   0  0  0  0  0  0  0  0  0  0  0  0
  182.3470  179.1510  141.6540 C   0  0  0  0  0  2  0  0  0  0  0  0
  180.9630  178.8350  141.0790 C   0  0  2  0  0  3  0  0  0  0  0  0
  180.0550  178.1840  142.1300 C   0  0  0  0  0  3  0  0  0  0  0  0
  177.6920  177.2850  142.4720 C   0  0  0  0  0  2  0  0  0  0  0  0
  178.4410  178.6890  144.0510 C   0  0  0  0  0  2  0  0  0  0  0  0
  179.6840  179.1490  143.2750 C   0  0  0  0  0  2  0  0  0  0  0  0
  178.8260  177.5370  141.4690 C   0  0  0  0  0  2  0  0  0  0  0  0
  178.1620  177.3360  143.7970 O   0  0  0  0  0  0  0  0  0  0  0  0
  186.9820  175.9750  145.2870 O   0  0  0  0  0  0  0  0  0  0  0  0
  188.3030  176.3830  145.6100 C   0  0  0  0  0  1  0  0  0  0  0  0
  186.7430  176.0310  138.2950 C   0  0  0  0  0  2  0  0  0  0  0  0
  187.6420  174.8790  137.8580 C   0  0  0  0  0  2  0  0  0  0  0  0
  187.9260  176.0820  135.7980 F   0  0  0  0  0  0  0  0  0  0  0  0
  188.5830  175.2820  136.7210 C   0  0  2  0  0  3  0  0  0  0  0  0
  189.2100  174.0480  136.0420 C   0  0  1  0  0  3  0  0  0  0  0  0
  188.9710  174.0180  134.5280 C   0  0  0  0  0  1  0  0  0  0  0  0
  190.5750  173.8570  136.3810 O   0  0  0  0  0  0  0  0  0  0  0  0
  190.8530  172.4780  136.3410 C   0  0  0  0  0  2  0  0  0  0  0  0
  193.1280  169.8730  139.0000 C   0  0  0  0  0  2  0  0  0  0  0  0
  192.3570  169.3450  137.4160 S   0  0  0  0  0  0  0  0  0  0  0  0
  192.1500  172.1680  137.0650 C   0  0  1  0  0  3  0  0  0  0  0  0
  193.1280  171.3890  139.2560 C   0  0  0  0  0  2  0  0  0  0  0  0
  191.8630  173.5120  139.1620 C   0  0  0  0  0  1  0  0  0  0  0  0
  191.9530  172.1080  138.5890 C   0  0  1  0  0  3  0  0  0  0  0  0
  193.3950  170.8660  135.5430 O   0  0  0  0  0  0  0  0  0  0  0  0
  192.6950  170.8740  136.5420 C   0  0  0  0  0  0  0  0  0  0  0  0
  186.1570  178.9320  145.5950 C   0  0  0  0  0  2  0  0  0  0  0  0
  185.7920  179.1840  147.0510 C   0  0  0  0  0  2  0  0  0  0  0  0
  188.0500  179.4280  148.0250 C   0  0  1  0  0  3  0  0  0  0  0  0
  189.1930  178.6160  148.4020 N   0  0  0  0  0  1  0  0  0  0  0  0
  186.8130  178.5500  147.9810 C   0  0  1  0  0  3  0  0  0  0  0  0
  187.0540  179.4650  149.1630 C   0  0  0  0  0  2  0  0  0  0  0  0
  189.3310  174.8440  142.4610 C   0  0  1  0  0  3  0  0  0  0  0  0
  189.1770  173.0470  140.6800 F   0  0  0  0  0  0  0  0  0  0  0  0
  190.4290  171.1380  142.2000 C   0  0  0  0  0  1  0  0  0  0  0  0
  190.0110  172.4010  142.9310 C   0  0  1  0  0  3  0  0  0  0  0  0
  189.3650  173.3760  142.0160 C   0  0  1  0  0  0  0  0  0  0  0  0
  188.6100  172.5460  142.8640 O   0  0  0  0  0  0  0  0  0  0  0  0
  190.6060  175.5650  142.0270 C   0  0  0  0  0  2  0  0  0  0  0  0
  194.6490  175.8970  144.2710 C   0  0  0  0  0  0  0  0  0  0  0  0
  192.7270  177.1340  144.6930 N   0  0  0  0  0  0  0  0  0  0  0  0
  191.0510  176.5130  143.0370 N   0  0  0  0  0  2  0  0  0  0  0  0
  193.5990  175.4390  143.0350 S   0  0  0  0  0  0  0  0  0  0  0  0
  194.0020  176.8390  145.0690 C   0  0  0  0  0  0  0  0  0  0  0  0
  192.3640  176.4390  143.5950 C   0  0  0  0  0  0  0  0  0  0  0  0
  194.6190  177.4650  146.2690 C   0  0  0  0  0  1  0  0  0  0  0  0
  196.0380  175.3730  144.4670 C   0  0  2  0  0  3  0  0  0  0  0  0
  196.2820  176.8220  142.5870 O   0  0  0  0  0  1  0  0  0  0  0  0
  196.9840  175.9650  143.4390 C   0  0  0  0  0  2  0  0  0  0  0  0
  196.0460  173.9240  144.3620 N   0  0  0  0  0  2  0  0  0  0  0  0
  195.8760  173.3980  145.7030 C   0  0  0  0  0  2  0  0  0  0  0  0
  196.6300  172.0850  145.8280 C   0  0  0  0  0  2  0  0  0  0  0  0
  194.8130  170.5350  145.8130 O   0  0  0  0  0  1  0  0  0  0  0  0
  195.9070  170.9830  145.0720 C   0  0  0  0  0  2  0  0  0  0  0  0
  1 10  1  0  0  0  0
  3  5  1  0  0  0  0
  3 12  1  6  0  0  0
  4  2  1  0  0  0  0
  4  9  1  0  0  0  0
  5  1  1  1  0  0  0
  6 10  1  0  0  0  0
  6 25  1  0  0  0  0
  7 27  1  6  0  0  0
  7  2  1  0  0  0  0
  7  8  1  0  0  0  0
  8 13  1  0  0  0  0
  9 16  1  6  0  0  0
  9  3  1  0  0  0  0
  9  5  1  0  0  0  0
 10 43  1  6  0  0  0
 11 12  1  0  0  0  0
 12  6  2  0  0  0  0
 13 49  1  1  0  0  0
 13 11  1  0  0  0  0
 14 18  1  0  0  0  0
 15 14  1  0  0  0  0
 15 16  2  0  0  0  0
 16 17  1  0  0  0  0
 18 17  1  0  0  0  0
 18 19  1  1  0  0  0
 19 22  1  0  0  0  0
 20 24  1  0  0  0  0
 22 21  1  0  0  0  0
 23 19  1  0  0  0  0
 23 20  1  0  0  0  0
 24 21  1  0  0  0  0
 25 26  1  0  0  0  0
 28 27  1  0  0  0  0
 30 29  1  6  0  0  0
 30 28  1  0  0  0  0
 31 32  1  6  0  0  0
 31 33  1  0  0  0  0
 31 30  1  0  0  0  0
 34 33  1  0  0  0  0
 35 38  1  0  0  0  0
 36 35  1  0  0  0  0
 37 34  1  6  0  0  0
 37 40  1  0  0  0  0
 40 39  1  1  0  0  0
 40 38  1  0  0  0  0
 41 42  2  0  0  0  0
 42 37  1  0  0  0  0
 42 36  1  0  0  0  0
 43 44  1  0  0  0  0
 45 46  1  1  0  0  0
 45 48  1  0  0  0  0
 47 44  1  6  0  0  0
 47 45  1  0  0  0  0
 47 48  1  0  0  0  0
 49 55  1  6  0  0  0
 52 51  1  6  0  0  0
 53 50  1  6  0  0  0
 53 49  1  0  0  0  0
 53 54  1  0  0  0  0
 53 52  1  0  0  0  0
 54 52  1  0  0  0  0
 55 58  1  0  0  0  0
 56 63  1  0  0  0  0
 56 60  2  0  0  0  0
 57 60  1  0  0  0  0
 58 61  1  0  0  0  0
 59 61  1  0  0  0  0
 59 56  1  0  0  0  0
 60 62  1  0  0  0  0
 61 57  2  0  0  0  0
 63 65  1  6  0  0  0
 64 65  1  0  0  0  0
 66 63  1  0  0  0  0
 66 67  1  0  0  0  0
 67 68  1  0  0  0  0
 70 69  1  0  0  0  0
 70 68  1  0  0  0  0
M  END
>  <MODEL>
6

>  <REMARK>
 VINA RESULT:      -4.2      3.505      9.407
  Name = 
  23 active torsions:
  status: ('A' for Active; 'I' for Inactive)
    1  A    between atoms: C_1  and  C_60
    2  A    between atoms: C_1  and  C_62
    3  A    between atoms: C_2  and  C_8
    4  A    between atoms: C_2  and  C_66
    5  A    between atoms: C_2  and  C_68
    6  A    between atoms: C_7  and  C_43
    7  A    between atoms: C_7  and  C_48
    8  A    between atoms: C_8  and  N_35
    9  A    between atoms: C_9  and  C_47
   10  A    between atoms: C_14  and  C_49
   11  A    between atoms: C_14  and  C_51
   12  A    between atoms: C_17  and  CA_40
   13  A    between atoms: C_20  and  O_36
   14  A    between atoms: C_21  and  CA_40
   15  A    between atoms: C_25  and  O_38
   16  A    between atoms: C_25  and  C_48
   17  A    between atoms: C_27  and  C_33
   18  A    between atoms: C_29  and  C_56
   19  A    between atoms: C_30  and  C_43
   20  A    between atoms: O_38  and  C_56
   21  A    between atoms: C_39  and  C_51
   22  A    between atoms: CA_40  and  N_42
   23  A    between atoms: N_42  and  C_60
                            x       y       z     vdW  Elec       q    Type
                         _______ _______ _______ _____ _____    ______ ____

>  <TORSDO>
F 23

$$$$
=
 OpenBabel11042413523D

 70 78  0  0  1  0  0  0  0  0999 V2000
  192.4010  175.6440  145.6740 C   0  0  0  0  0  2  0  0  0  0  0  0
  190.1530  172.0480  143.6610 C   0  0  0  0  0  2  0  0  0  0  0  0
  192.0830  174.4120  143.7390 C   0  0  1  0  0  3  0  0  0  0  0  0
  191.3850  171.9360  144.5450 C   0  0  0  0  0  2  0  0  0  0  0  0
  191.7410  174.3440  145.2510 C   0  0  1  0  0  3  0  0  0  0  0  0
  190.7570  176.4710  143.8670 C   0  0  0  0  0  0  0  0  0  0  0  0
  190.5430  172.0770  142.1880 C   0  0  2  0  0  3  0  0  0  0  0  0
  189.4620  172.7800  141.3780 C   0  0  0  0  0  2  0  0  0  0  0  0
  192.3320  173.1480  144.5640 C   0  0  2  0  0  0  0  0  0  0  0  0
  191.4580  176.7790  145.2040 C   0  0  1  0  0  3  0  0  0  0  0  0
  190.3760  175.0440  141.8830 C   0  0  0  0  0  2  0  0  0  0  0  0
  190.9390  175.2730  143.2550 C   0  0  0  0  0  0  0  0  0  0  0  0
  189.1350  174.1670  141.9410 C   0  0  1  0  0  3  0  0  0  0  0  0
  195.7820  172.7330  145.8730 N   0  0  0  0  0  2  0  0  0  0  0  0
  194.5050  173.3430  145.8220 C   0  0  0  0  0  3  0  0  0  0  0  0
  193.7760  172.8350  144.8420 C   0  0  0  0  0  0  0  0  0  0  0  0
  194.5260  171.7810  144.0980 C   0  0  0  0  0  2  0  0  0  0  0  0
  195.8380  171.6680  144.8790 C   0  0  2  0  0  3  0  0  0  0  0  0
  195.9670  170.3010  145.5630 C   0  0  0  0  0  3  0  0  0  0  0  0
  195.0410  168.9240  147.5020 C   0  0  0  0  0  2  0  0  0  0  0  0
  197.2750  169.0060  147.3420 C   0  0  0  0  0  2  0  0  0  0  0  0
  197.3160  170.1250  146.2900 C   0  0  0  0  0  2  0  0  0  0  0  0
  194.7560  170.0270  146.4720 C   0  0  0  0  0  2  0  0  0  0  0  0
  196.1680  168.1660  147.1380 O   0  0  0  0  0  0  0  0  0  0  0  0
  189.9280  177.4270  143.2630 O   0  0  0  0  0  0  0  0  0  0  0  0
  190.2660  178.8030  143.1850 C   0  0  0  0  0  1  0  0  0  0  0  0
  190.7660  170.6670  141.6670 C   0  0  0  0  0  2  0  0  0  0  0  0
  192.0840  170.5960  140.9020 C   0  0  0  0  0  2  0  0  0  0  0  0
  192.6200  169.0940  142.6980 F   0  0  0  0  0  0  0  0  0  0  0  0
  192.9890  169.4750  141.4170 C   0  0  2  0  0  3  0  0  0  0  0  0
  194.4760  169.8790  141.3620 C   0  0  1  0  0  3  0  0  0  0  0  0
  195.3260  168.9010  140.5440 C   0  0  0  0  0  1  0  0  0  0  0  0
  194.6740  171.2290  140.9730 O   0  0  0  0  0  0  0  0  0  0  0  0
  195.9010  171.3190  140.2910 C   0  0  0  0  0  2  0  0  0  0  0  0
  194.7830  175.0390  138.3030 C   0  0  0  0  0  2  0  0  0  0  0  0
  193.7840  174.1950  139.5960 S   0  0  0  0  0  0  0  0  0  0  0  0
  196.2240  172.7610  139.9480 C   0  0  1  0  0  3  0  0  0  0  0  0
  196.1990  174.4750  138.0960 C   0  0  0  0  0  2  0  0  0  0  0  0
  197.6240  172.4640  137.8890 C   0  0  0  0  0  1  0  0  0  0  0  0
  196.3030  172.9840  138.4290 C   0  0  1  0  0  3  0  0  0  0  0  0
  195.3170  174.0210  141.7220 O   0  0  0  0  0  0  0  0  0  0  0  0
  195.1870  173.6470  140.5690 C   0  0  0  0  0  0  0  0  0  0  0  0
  190.4140  177.0390  146.2850 C   0  0  0  0  0  2  0  0  0  0  0  0
  189.2290  176.0960  146.1310 C   0  0  0  0  0  2  0  0  0  0  0  0
  187.0530  176.3870  147.2630 C   0  0  1  0  0  3  0  0  0  0  0  0
  185.6620  176.6560  146.9480 N   0  0  0  0  0  1  0  0  0  0  0  0
  187.9220  176.8690  146.1180 C   0  0  1  0  0  3  0  0  0  0  0  0
  187.8100  177.6910  147.3840 C   0  0  0  0  0  2  0  0  0  0  0  0
  187.9630  174.8370  141.2110 C   0  0  1  0  0  3  0  0  0  0  0  0
  187.7810  177.3550  141.4390 F   0  0  0  0  0  0  0  0  0  0  0  0
  185.6410  177.2560  143.1520 C   0  0  0  0  0  1  0  0  0  0  0  0
  186.3470  175.9370  142.8940 C   0  0  1  0  0  3  0  0  0  0  0  0
  187.4730  176.0960  141.9390 C   0  0  1  0  0  0  0  0  0  0  0  0
  187.6870  176.0240  143.3270 O   0  0  0  0  0  0  0  0  0  0  0  0
  188.3990  175.1780  139.7870 C   0  0  0  0  0  2  0  0  0  0  0  0
  190.4980  173.1600  136.1790 C   0  0  0  0  0  0  0  0  0  0  0  0
  188.2510  172.9840  136.7480 N   0  0  0  0  0  0  0  0  0  0  0  0
  187.9020  174.2000  138.8310 N   0  0  0  0  0  2  0  0  0  0  0  0
  190.3940  173.9700  137.6530 S   0  0  0  0  0  0  0  0  0  0  0  0
  189.2310  172.6790  135.8540 C   0  0  0  0  0  0  0  0  0  0  0  0
  188.7370  173.6940  137.7880 C   0  0  0  0  0  0  0  0  0  0  0  0
  188.9330  171.9190  134.6100 C   0  0  0  0  0  1  0  0  0  0  0  0
  191.7460  172.9930  135.3680 C   0  0  2  0  0  3  0  0  0  0  0  0
  192.4610  171.1970  136.7650 O   0  0  0  0  0  1  0  0  0  0  0  0
  192.8640  172.4170  136.2170 C   0  0  0  0  0  2  0  0  0  0  0  0
  192.1590  174.2720  134.8170 N   0  0  0  0  0  2  0  0  0  0  0  0
  193.3620  174.6710  135.5220 C   0  0  0  0  0  2  0  0  0  0  0  0
  194.4470  175.0120  134.5140 C   0  0  0  0  0  2  0  0  0  0  0  0
  196.5240  176.1110  134.9340 O   0  0  0  0  0  1  0  0  0  0  0  0
  195.1430  176.3050  134.9000 C   0  0  0  0  0  2  0  0  0  0  0  0
  2  4  1  0  0  0  0
  3 12  1  6  0  0  0
  3  9  1  0  0  0  0
  3  5  1  0  0  0  0
  4  9  1  0  0  0  0
  5  1  1  1  0  0  0
  6 10  1  0  0  0  0
  7 27  1  6  0  0  0
  7  2  1  0  0  0  0
  8 13  1  0  0  0  0
  8  7  1  0  0  0  0
  9 16  1  1  0  0  0
  9  5  1  0  0  0  0
 10  1  1  0  0  0  0
 10 43  1  1  0  0  0
 11 13  1  0  0  0  0
 11 12  1  0  0  0  0
 12  6  2  0  0  0  0
 13 49  1  6  0  0  0
 15 14  1  0  0  0  0
 16 15  2  0  0  0  0
 17 16  1  0  0  0  0
 17 18  1  0  0  0  0
 18 19  1  1  0  0  0
 18 14  1  0  0  0  0
 19 22  1  0  0  0  0
 19 23  1  0  0  0  0
 22 21  1  0  0  0  0
 23 20  1  0  0  0  0
 24 21  1  0  0  0  0
 24 20  1  0  0  0  0
 25  6  1  0  0  0  0
 26 25  1  0  0  0  0
 28 30  1  0  0  0  0
 28 27  1  0  0  0  0
 30 29  1  1  0  0  0
 31 32  1  6  0  0  0
 31 30  1  0  0  0  0
 33 31  1  0  0  0  0
 34 33  1  0  0  0  0
 35 36  1  0  0  0  0
 36 42  1  0  0  0  0
 37 34  1  6  0  0  0
 37 42  1  0  0  0  0
 38 35  1  0  0  0  0
 38 40  1  0  0  0  0
 40 39  1  1  0  0  0
 40 37  1  0  0  0  0
 42 41  2  0  0  0  0
 44 43  1  0  0  0  0
 45 46  1  6  0  0  0
 45 48  1  0  0  0  0
 47 44  1  1  0  0  0
 47 45  1  0  0  0  0
 47 48  1  0  0  0  0
 49 55  1  6  0  0  0
 49 53  1  0  0  0  0
 52 51  1  1  0  0  0
 52 54  1  0  0  0  0
 53 50  1  6  0  0  0
 53 52  1  0  0  0  0
 53 54  1  0  0  0  0
 56 59  1  0  0  0  0
 57 61  2  0  0  0  0
 58 55  1  0  0  0  0
 59 61  1  0  0  0  0
 60 56  2  0  0  0  0
 60 57  1  0  0  0  0
 61 58  1  0  0  0  0
 62 60  1  0  0  0  0
 63 56  1  0  0  0  0
 63 65  1  1  0  0  0
 65 64  1  0  0  0  0
 66 63  1  0  0  0  0
 66 67  1  0  0  0  0
 68 70  1  0  0  0  0
 68 67  1  0  0  0  0
 70 69  1  0  0  0  0
M  END
>  <MODEL>
7

>  <REMARK>
 VINA RESULT:      -3.9      3.041      8.469
  Name = 
  23 active torsions:
  status: ('A' for Active; 'I' for Inactive)
    1  A    between atoms: C_1  and  C_60
    2  A    between atoms: C_1  and  C_62
    3  A    between atoms: C_2  and  C_8
    4  A    between atoms: C_2  and  C_66
    5  A    between atoms: C_2  and  C_68
    6  A    between atoms: C_7  and  C_43
    7  A    between atoms: C_7  and  C_48
    8  A    between atoms: C_8  and  N_35
    9  A    between atoms: C_9  and  C_47
   10  A    between atoms: C_14  and  C_49
   11  A    between atoms: C_14  and  C_51
   12  A    between atoms: C_17  and  CA_40
   13  A    between atoms: C_20  and  O_36
   14  A    between atoms: C_21  and  CA_40
   15  A    between atoms: C_25  and  O_38
   16  A    between atoms: C_25  and  C_48
   17  A    between atoms: C_27  and  C_33
   18  A    between atoms: C_29  and  C_56
   19  A    between atoms: C_30  and  C_43
   20  A    between atoms: O_38  and  C_56
   21  A    between atoms: C_39  and  C_51
   22  A    between atoms: CA_40  and  N_42
   23  A    between atoms: N_42  and  C_60
                            x       y       z     vdW  Elec       q    Type
                         _______ _______ _______ _____ _____    ______ ____

>  <TORSDO>
F 23

$$$$
=
 OpenBabel11042413523D

 70 78  0  0  1  0  0  0  0  0999 V2000
  192.8190  174.3730  145.1100 C   0  0  0  0  0  2  0  0  0  0  0  0
  190.2270  171.2020  142.8150 C   0  0  0  0  0  2  0  0  0  0  0  0
  192.3070  173.4240  143.0600 C   0  0  1  0  0  3  0  0  0  0  0  0
  191.5010  170.9070  143.5920 C   0  0  0  0  0  2  0  0  0  0  0  0
  192.0530  173.1790  144.5710 C   0  0  1  0  0  3  0  0  0  0  0  0
  191.1250  175.5200  143.5390 C   0  0  0  0  0  0  0  0  0  0  0  0
  190.5290  171.4030  141.3340 C   0  0  2  0  0  3  0  0  0  0  0  0
  189.4480  172.2650  140.6960 C   0  0  0  0  0  2  0  0  0  0  0  0
  192.5230  172.0510  143.7000 C   0  0  2  0  0  0  0  0  0  0  0  0
  191.9240  175.6110  144.8540 C   0  0  1  0  0  3  0  0  0  0  0  0
  190.5350  174.3890  141.4210 C   0  0  0  0  0  2  0  0  0  0  0  0
  191.1930  174.4040  142.7690 C   0  0  0  0  0  0  0  0  0  0  0  0
  189.2450  173.5830  141.4510 C   0  0  1  0  0  3  0  0  0  0  0  0
  196.1410  171.6170  144.4120 N   0  0  0  0  0  2  0  0  0  0  0  0
  194.9490  172.3720  144.2940 C   0  0  0  0  0  3  0  0  0  0  0  0
  193.9580  171.6240  143.8360 C   0  0  0  0  0  0  0  0  0  0  0  0
  194.4050  170.2230  143.5870 C   0  0  0  0  0  2  0  0  0  0  0  0
  195.8560  170.2260  144.0780 C   0  0  2  0  0  3  0  0  0  0  0  0
  196.0320  169.3300  145.3100 C   0  0  0  0  0  3  0  0  0  0  0  0
  195.3530  169.1190  147.7610 C   0  0  0  0  0  2  0  0  0  0  0  0
  197.5390  168.8830  147.3300 C   0  0  0  0  0  2  0  0  0  0  0  0
  197.4670  169.3730  145.8750 C   0  0  0  0  0  2  0  0  0  0  0  0
  194.9600  169.6380  146.3700 C   0  0  0  0  0  2  0  0  0  0  0  0
  196.3830  168.1660  147.6770 O   0  0  0  0  0  0  0  0  0  0  0  0
  190.3250  176.5920  143.1190 O   0  0  0  0  0  0  0  0  0  0  0  0
  190.8400  177.8920  142.8750 C   0  0  0  0  0  1  0  0  0  0  0  0
  190.6290  170.0620  140.6240 C   0  0  0  0  0  2  0  0  0  0  0  0
  191.5010  170.1950  139.3800 C   0  0  0  0  0  2  0  0  0  0  0  0
  190.3140  168.1890  138.8000 F   0  0  0  0  0  0  0  0  0  0  0  0
  191.0870  169.2160  138.2800 C   0  0  2  0  0  3  0  0  0  0  0  0
  192.3120  168.6640  137.5240 C   0  0  1  0  0  3  0  0  0  0  0  0
  192.2150  168.8660  136.0080 C   0  0  0  0  0  1  0  0  0  0  0  0
  193.5480  169.1180  138.0550 O   0  0  0  0  0  0  0  0  0  0  0  0
  194.5860  168.6410  137.2340 C   0  0  0  0  0  2  0  0  0  0  0  0
  197.4710  171.6650  138.4880 C   0  0  0  0  0  2  0  0  0  0  0  0
  195.7620  171.5030  139.1470 S   0  0  0  0  0  0  0  0  0  0  0  0
  195.9410  168.9840  137.8230 C   0  0  1  0  0  3  0  0  0  0  0  0
  197.9410  170.5040  137.5950 C   0  0  0  0  0  2  0  0  0  0  0  0
  197.3850  168.9260  135.7740 C   0  0  0  0  0  1  0  0  0  0  0  0
  196.7920  169.8170  136.8520 C   0  0  1  0  0  3  0  0  0  0  0  0
  195.5800  169.0830  140.1520 O   0  0  0  0  0  0  0  0  0  0  0  0
  195.7340  169.7110  139.1180 C   0  0  0  0  0  0  0  0  0  0  0  0
  190.9670  175.7850  146.0280 C   0  0  0  0  0  2  0  0  0  0  0  0
  190.3690  177.1850  146.0350 C   0  0  0  0  0  2  0  0  0  0  0  0
  187.9690  177.2820  146.6150 C   0  0  1  0  0  3  0  0  0  0  0  0
  187.0700  177.9750  147.5190 N   0  0  0  0  0  1  0  0  0  0  0  0
  189.3770  177.3420  147.1750 C   0  0  1  0  0  3  0  0  0  0  0  0
  188.5600  176.0760  147.3110 C   0  0  0  0  0  2  0  0  0  0  0  0
  188.0770  174.4070  140.8940 C   0  0  1  0  0  3  0  0  0  0  0  0
  188.0000  176.8950  141.3720 F   0  0  0  0  0  0  0  0  0  0  0  0
  186.1210  176.6690  143.3560 C   0  0  0  0  0  1  0  0  0  0  0  0
  186.7460  175.3700  142.8820 C   0  0  1  0  0  3  0  0  0  0  0  0
  187.7300  175.5990  141.7950 C   0  0  1  0  0  0  0  0  0  0  0  0
  188.1350  175.3950  143.1260 O   0  0  0  0  0  0  0  0  0  0  0  0
  188.4370  174.8850  139.4880 C   0  0  0  0  0  2  0  0  0  0  0  0
  191.3820  173.2700  136.2920 C   0  0  0  0  0  0  0  0  0  0  0  0
  189.1490  172.6740  136.5430 N   0  0  0  0  0  0  0  0  0  0  0  0
  188.2780  173.8210  138.5080 N   0  0  0  0  0  2  0  0  0  0  0  0
  190.9130  174.0590  137.7050 S   0  0  0  0  0  0  0  0  0  0  0  0
  190.2890  172.5520  135.8090 C   0  0  0  0  0  0  0  0  0  0  0  0
  189.3360  173.4730  137.6140 C   0  0  0  0  0  0  0  0  0  0  0  0
  190.3240  171.7370  134.5650 C   0  0  0  0  0  1  0  0  0  0  0  0
  192.7430  173.3350  135.6730 C   0  0  2  0  0  3  0  0  0  0  0  0
  194.6810  172.0570  135.1250 O   0  0  0  0  0  1  0  0  0  0  0  0
  193.4160  171.9760  135.7120 C   0  0  0  0  0  2  0  0  0  0  0  0
  193.5650  174.3080  136.3740 N   0  0  0  0  0  2  0  0  0  0  0  0
  194.0020  175.2830  135.3940 C   0  0  0  0  0  2  0  0  0  0  0  0
  193.5230  176.6640  135.8090 C   0  0  0  0  0  2  0  0  0  0  0  0
  191.9640  177.9350  134.5230 O   0  0  0  0  0  1  0  0  0  0  0  0
  192.0710  176.8640  135.4110 C   0  0  0  0  0  2  0  0  0  0  0  0
  2  4  1  0  0  0  0
  3 12  1  6  0  0  0
  3  9  1  0  0  0  0
  3  5  1  0  0  0  0
  4  9  1  0  0  0  0
  5  1  1  1  0  0  0
  6 10  1  0  0  0  0
  7 27  1  6  0  0  0
  7  2  1  0  0  0  0
  8  7  1  0  0  0  0
  8 13  1  0  0  0  0
  9 16  1  1  0  0  0
  9  5  1  0  0  0  0
 10  1  1  0  0  0  0
 10 43  1  1  0  0  0
 11 13  1  0  0  0  0
 11 12  1  0  0  0  0
 12  6  2  0  0  0  0
 13 49  1  6  0  0  0
 15 14  1  0  0  0  0
 16 15  2  0  0  0  0
 17 16  1  0  0  0  0
 17 18  1  0  0  0  0
 18 14  1  0  0  0  0
 18 19  1  1  0  0  0
 19 22  1  0  0  0  0
 19 23  1  0  0  0  0
 21 24  1  0  0  0  0
 22 21  1  0  0  0  0
 23 20  1  0  0  0  0
 24 20  1  0  0  0  0
 25  6  1  0  0  0  0
 26 25  1  0  0  0  0
 28 27  1  0  0  0  0
 30 29  1  1  0  0  0
 30 28  1  0  0  0  0
 31 32  1  6  0  0  0
 31 33  1  0  0  0  0
 31 30  1  0  0  0  0
 34 33  1  0  0  0  0
 35 36  1  0  0  0  0
 37 34  1  6  0  0  0
 37 42  1  0  0  0  0
 38 35  1  0  0  0  0
 40 39  1  6  0  0  0
 40 38  1  0  0  0  0
 40 37  1  0  0  0  0
 42 36  1  0  0  0  0
 42 41  2  0  0  0  0
 43 44  1  0  0  0  0
 45 47  1  0  0  0  0
 45 48  1  0  0  0  0
 45 46  1  1  0  0  0
 47 44  1  6  0  0  0
 47 48  1  0  0  0  0
 49 55  1  6  0  0  0
 49 53  1  0  0  0  0
 52 54  1  0  0  0  0
 52 51  1  1  0  0  0
 53 50  1  6  0  0  0
 53 52  1  0  0  0  0
 53 54  1  0  0  0  0
 56 59  1  0  0  0  0
 57 61  2  0  0  0  0
 58 55  1  0  0  0  0
 60 56  2  0  0  0  0
 60 57  1  0  0  0  0
 61 59  1  0  0  0  0
 61 58  1  0  0  0  0
 62 60  1  0  0  0  0
 63 65  1  1  0  0  0
 63 56  1  0  0  0  0
 63 66  1  0  0  0  0
 64 65  1  0  0  0  0
 67 68  1  0  0  0  0
 67 66  1  0  0  0  0
 69 70  1  0  0  0  0
 70 68  1  0  0  0  0
M  END
>  <MODEL>
8

>  <REMARK>
 VINA RESULT:      -3.4      3.070      8.295
  Name = 
  23 active torsions:
  status: ('A' for Active; 'I' for Inactive)
    1  A    between atoms: C_1  and  C_60
    2  A    between atoms: C_1  and  C_62
    3  A    between atoms: C_2  and  C_8
    4  A    between atoms: C_2  and  C_66
    5  A    between atoms: C_2  and  C_68
    6  A    between atoms: C_7  and  C_43
    7  A    between atoms: C_7  and  C_48
    8  A    between atoms: C_8  and  N_35
    9  A    between atoms: C_9  and  C_47
   10  A    between atoms: C_14  and  C_49
   11  A    between atoms: C_14  and  C_51
   12  A    between atoms: C_17  and  CA_40
   13  A    between atoms: C_20  and  O_36
   14  A    between atoms: C_21  and  CA_40
   15  A    between atoms: C_25  and  O_38
   16  A    between atoms: C_25  and  C_48
   17  A    between atoms: C_27  and  C_33
   18  A    between atoms: C_29  and  C_56
   19  A    between atoms: C_30  and  C_43
   20  A    between atoms: O_38  and  C_56
   21  A    between atoms: C_39  and  C_51
   22  A    between atoms: CA_40  and  N_42
   23  A    between atoms: N_42  and  C_60
                            x       y       z     vdW  Elec       q    Type
                         _______ _______ _______ _____ _____    ______ ____

>  <TORSDO>
F 23

$$$$
=
 OpenBabel11042413523D

 70 78  0  0  1  0  0  0  0  0999 V2000
  192.3120  174.7670  145.5070 C   0  0  0  0  0  2  0  0  0  0  0  0
  189.7410  175.9300  141.7550 C   0  0  0  0  0  2  0  0  0  0  0  0
  190.3490  174.4080  144.3310 C   0  0  1  0  0  3  0  0  0  0  0  0
  189.8200  176.7210  143.0510 C   0  0  0  0  0  2  0  0  0  0  0  0
  191.5410  175.4010  144.3640 C   0  0  1  0  0  3  0  0  0  0  0  0
  192.1340  172.7950  143.8550 C   0  0  0  0  0  0  0  0  0  0  0  0
  188.5370  174.9960  141.7620 C   0  0  2  0  0  3  0  0  0  0  0  0
  188.7830  173.8230  140.8230 C   0  0  0  0  0  2  0  0  0  0  0  0
  190.1340  175.9230  144.3280 C   0  0  2  0  0  0  0  0  0  0  0  0
  192.9910  173.5050  144.9220 C   0  0  1  0  0  3  0  0  0  0  0  0
  190.0530  172.5430  142.5440 C   0  0  0  0  0  2  0  0  0  0  0  0
  190.9450  173.3210  143.4660 C   0  0  0  0  0  0  0  0  0  0  0  0
  190.1010  173.1060  141.1320 C   0  0  1  0  0  3  0  0  0  0  0  0
  189.2320  177.8780  147.3530 N   0  0  0  0  0  2  0  0  0  0  0  0
  190.0790  177.5170  146.2770 C   0  0  0  0  0  3  0  0  0  0  0  0
  189.5760  176.4960  145.6010 C   0  0  0  0  0  0  0  0  0  0  0  0
  188.2790  176.0450  146.1840 C   0  0  0  0  0  2  0  0  0  0  0  0
  188.0270  177.0590  147.3030 C   0  0  2  0  0  3  0  0  0  0  0  0
  186.7990  177.9280  147.0050 C   0  0  0  0  0  3  0  0  0  0  0  0
  184.3530  178.2500  147.6580 C   0  0  0  0  0  2  0  0  0  0  0  0
  184.7730  178.1650  145.4580 C   0  0  0  0  0  2  0  0  0  0  0  0
  186.2250  177.6820  145.5940 C   0  0  0  0  0  2  0  0  0  0  0  0
  185.7430  177.7850  148.1150 C   0  0  0  0  0  2  0  0  0  0  0  0
  184.4370  179.0440  146.5000 O   0  0  0  0  0  0  0  0  0  0  0  0
  192.5700  171.5930  143.2800 O   0  0  0  0  0  0  0  0  0  0  0  0
  192.7710  170.4050  144.0320 C   0  0  0  0  0  1  0  0  0  0  0  0
  187.2770  175.7460  141.3600 C   0  0  0  0  0  2  0  0  0  0  0  0
  187.6460  177.0880  140.7380 C   0  0  0  0  0  2  0  0  0  0  0  0
  186.4760  178.1040  142.5740 F   0  0  0  0  0  0  0  0  0  0  0  0
  186.7270  178.2150  141.2140 C   0  0  2  0  0  3  0  0  0  0  0  0
  185.4140  178.2540  140.4060 C   0  0  1  0  0  3  0  0  0  0  0  0
  185.5150  177.4990  139.0760 C   0  0  0  0  0  1  0  0  0  0  0  0
  184.2790  177.8690  141.1660 O   0  0  0  0  0  0  0  0  0  0  0  0
  183.3060  178.8780  141.0510 C   0  0  0  0  0  2  0  0  0  0  0  0
  179.0110  179.5290  141.4630 C   0  0  0  0  0  2  0  0  0  0  0  0
  179.9310  179.5510  139.8710 S   0  0  0  0  0  0  0  0  0  0  0  0
  181.9490  178.3740  141.5060 C   0  0  1  0  0  3  0  0  0  0  0  0
  179.8130  179.0320  142.6770 C   0  0  0  0  0  2  0  0  0  0  0  0
  181.9560  179.0790  143.9120 C   0  0  0  0  0  1  0  0  0  0  0  0
  181.3150  179.3040  142.5530 C   0  0  1  0  0  3  0  0  0  0  0  0
  181.0870  177.2020  139.6500 O   0  0  0  0  0  0  0  0  0  0  0  0
  181.0620  178.2300  140.3070 C   0  0  0  0  0  0  0  0  0  0  0  0
  194.3380  173.8960  144.3230 C   0  0  0  0  0  2  0  0  0  0  0  0
  194.3480  173.6660  142.8190 C   0  0  0  0  0  2  0  0  0  0  0  0
  195.4160  172.4230  140.9690 C   0  0  1  0  0  3  0  0  0  0  0  0
  196.2600  171.2630  140.7490 N   0  0  0  0  0  1  0  0  0  0  0  0
  195.5900  172.8970  142.3990 C   0  0  1  0  0  3  0  0  0  0  0  0
  196.2780  173.6300  141.2670 C   0  0  0  0  0  2  0  0  0  0  0  0
  190.4230  172.0010  140.1170 C   0  0  1  0  0  3  0  0  0  0  0  0
  190.2590  173.5160  138.0910 F   0  0  0  0  0  0  0  0  0  0  0  0
  189.3370  171.5400  136.4270 C   0  0  0  0  0  1  0  0  0  0  0  0
  189.3550  171.2070  137.9080 C   0  0  1  0  0  3  0  0  0  0  0  0
  189.8900  172.3310  138.7170 C   0  0  1  0  0  0  0  0  0  0  0  0
  188.5090  172.0950  138.6040 O   0  0  0  0  0  0  0  0  0  0  0  0
  191.9360  171.7940  140.0800 C   0  0  0  0  0  2  0  0  0  0  0  0
  194.3410  171.1820  136.1630 C   0  0  0  0  0  0  0  0  0  0  0  0
  193.1960  169.5450  137.3540 N   0  0  0  0  0  0  0  0  0  0  0  0
  192.2880  170.5750  139.3680 N   0  0  0  0  0  2  0  0  0  0  0  0
  193.8240  171.9850  137.5510 S   0  0  0  0  0  0  0  0  0  0  0  0
  193.9160  169.8560  136.2410 C   0  0  0  0  0  0  0  0  0  0  0  0
  193.0600  170.6150  138.1660 C   0  0  0  0  0  0  0  0  0  0  0  0
  194.1800  168.8430  135.1840 C   0  0  0  0  0  1  0  0  0  0  0  0
  195.1230  171.7980  135.0450 C   0  0  2  0  0  3  0  0  0  0  0  0
  196.8330  171.0370  136.5240 O   0  0  0  0  0  1  0  0  0  0  0  0
  196.6130  171.6370  135.2820 C   0  0  0  0  0  2  0  0  0  0  0  0
  194.7970  173.2090  134.9250 N   0  0  0  0  0  2  0  0  0  0  0  0
  196.0160  173.9510  135.1830 C   0  0  0  0  0  2  0  0  0  0  0  0
  195.6770  175.4190  135.3860 C   0  0  0  0  0  2  0  0  0  0  0  0
  196.4170  177.6370  134.8990 O   0  0  0  0  0  1  0  0  0  0  0  0
  196.8140  176.2990  134.8960 C   0  0  0  0  0  2  0  0  0  0  0  0
  2  7  1  0  0  0  0
  2  4  1  0  0  0  0
  3 12  1  6  0  0  0
  3  5  1  0  0  0  0
  4  9  1  0  0  0  0
  5  1  1  1  0  0  0
  6 10  1  0  0  0  0
  7 27  1  6  0  0  0
  8 13  1  0  0  0  0
  8  7  1  0  0  0  0
  9  3  1  0  0  0  0
  9  5  1  0  0  0  0
  9 16  1  1  0  0  0
 10 43  1  6  0  0  0
 10  1  1  0  0  0  0
 11 12  1  0  0  0  0
 12  6  2  0  0  0  0
 13 49  1  6  0  0  0
 13 11  1  0  0  0  0
 15 14  1  0  0  0  0
 16 17  1  0  0  0  0
 16 15  2  0  0  0  0
 17 18  1  0  0  0  0
 18 19  1  6  0  0  0
 18 14  1  0  0  0  0
 19 23  1  0  0  0  0
 20 23  1  0  0  0  0
 21 22  1  0  0  0  0
 21 24  1  0  0  0  0
 22 19  1  0  0  0  0
 24 20  1  0  0  0  0
 25  6  1  0  0  0  0
 25 26  1  0  0  0  0
 28 30  1  0  0  0  0
 28 27  1  0  0  0  0
 30 29  1  1  0  0  0
 31 32  1  6  0  0  0
 31 33  1  0  0  0  0
 31 30  1  0  0  0  0
 34 33  1  0  0  0  0
 35 38  1  0  0  0  0
 36 42  1  0  0  0  0
 36 35  1  0  0  0  0
 37 34  1  6  0  0  0
 37 40  1  0  0  0  0
 40 38  1  0  0  0  0
 40 39  1  1  0  0  0
 41 42  2  0  0  0  0
 42 37  1  0  0  0  0
 44 43  1  0  0  0  0
 45 46  1  1  0  0  0
 45 48  1  0  0  0  0
 45 47  1  0  0  0  0
 47 44  1  6  0  0  0
 48 47  1  0  0  0  0
 49 55  1  6  0  0  0
 52 51  1  6  0  0  0
 52 54  1  0  0  0  0
 52 53  1  0  0  0  0
 53 50  1  6  0  0  0
 53 49  1  0  0  0  0
 54 53  1  0  0  0  0
 56 60  2  0  0  0  0
 56 59  1  0  0  0  0
 57 61  2  0  0  0  0
 58 55  1  0  0  0  0
 59 61  1  0  0  0  0
 60 57  1  0  0  0  0
 61 58  1  0  0  0  0
 62 60  1  0  0  0  0
 63 65  1  1  0  0  0
 63 56  1  0  0  0  0
 65 64  1  0  0  0  0
 66 63  1  0  0  0  0
 66 67  1  0  0  0  0
 67 68  1  0  0  0  0
 70 69  1  0  0  0  0
 70 68  1  0  0  0  0
M  END
>  <MODEL>
9

>  <REMARK>
 VINA RESULT:      -3.4      3.683     11.939
  Name = 
  23 active torsions:
  status: ('A' for Active; 'I' for Inactive)
    1  A    between atoms: C_1  and  C_60
    2  A    between atoms: C_1  and  C_62
    3  A    between atoms: C_2  and  C_8
    4  A    between atoms: C_2  and  C_66
    5  A    between atoms: C_2  and  C_68
    6  A    between atoms: C_7  and  C_43
    7  A    between atoms: C_7  and  C_48
    8  A    between atoms: C_8  and  N_35
    9  A    between atoms: C_9  and  C_47
   10  A    between atoms: C_14  and  C_49
   11  A    between atoms: C_14  and  C_51
   12  A    between atoms: C_17  and  CA_40
   13  A    between atoms: C_20  and  O_36
   14  A    between atoms: C_21  and  CA_40
   15  A    between atoms: C_25  and  O_38
   16  A    between atoms: C_25  and  C_48
   17  A    between atoms: C_27  and  C_33
   18  A    between atoms: C_29  and  C_56
   19  A    between atoms: C_30  and  C_43
   20  A    between atoms: O_38  and  C_56
   21  A    between atoms: C_39  and  C_51
   22  A    between atoms: CA_40  and  N_42
   23  A    between atoms: N_42  and  C_60
                            x       y       z     vdW  Elec       q    Type
                         _______ _______ _______ _____ _____    ______ ____

>  <TORSDO>
F 23

$$$$
