=
 OpenBabel11042416373D

 32 37  0  0  1  0  0  0  0  0999 V2000
  189.3250  175.1830  144.9270 C   0  0  0  0  0  0  0  0  0  0  0  0
  187.3360  176.4340  144.3370 C   0  0  0  0  0  0  0  0  0  0  0  0
  190.1410  174.6630  145.9400 C   0  0  0  0  0  3  0  0  0  0  0  0
  188.1510  175.9030  145.2840 C   0  0  0  0  0  0  0  0  0  0  0  0
  186.1630  177.1580  144.6710 C   0  0  0  0  0  0  0  0  0  0  0  0
  186.6320  177.7040  139.7140 N   0  0  0  0  0  2  0  0  0  0  0  0
  187.6650  176.2680  142.9780 C   0  0  2  0  0  3  0  0  0  0  0  0
  184.8560  178.2170  141.3200 C   0  0  0  0  0  2  0  0  0  0  0  0
  185.7090  177.5380  142.3540 C   0  0  0  0  0  0  0  0  0  0  0  0
  187.8500  176.0620  146.6510 C   0  0  0  0  0  0  0  0  0  0  0  0
  185.3980  177.6790  143.6690 N   0  0  0  0  0  0  0  0  0  0  0  0
  186.6230  176.7990  147.0960 C   0  0  0  0  0  3  0  0  0  0  0  0
  188.6760  175.5460  147.5990 N   0  0  0  0  0  0  0  0  0  0  0  0
  188.8090  175.5370  142.6370 O   0  0  0  0  0  0  0  0  0  0  0  0
  189.6410  175.0040  143.6270 C   0  0  0  0  0  0  0  0  0  0  0  0
  186.8640  176.8330  141.9820 C   0  0  0  0  0  0  0  0  0  0  0  0
  185.8000  177.3510  145.9580 C   0  0  0  0  0  0  0  0  0  0  0  0
  189.7990  174.8580  147.2750 C   0  0  0  0  0  3  0  0  0  0  0  0
  185.1850  177.7320  139.9080 C   0  0  0  0  0  2  0  0  0  0  0  0
  187.1810  176.6200  140.5260 C   0  0  0  0  0  2  0  0  0  0  0  0
  192.4150  174.0720  141.1660 C   0  0  0  0  0  0  0  0  0  0  0  0
  193.6400  171.0450  142.9630 O   0  0  0  0  0  1  0  0  0  0  0  0
  192.3000  174.2070  139.9600 O   0  0  0  0  0  0  0  0  0  0  0  0
  191.4290  171.8660  142.7450 C   0  0  0  0  0  3  0  0  0  0  0  0
  190.8580  174.2330  143.2070 C   0  0  1  0  0  3  0  0  0  0  0  0
  193.3950  173.0480  141.6840 C   0  0  0  0  0  2  0  0  0  0  0  0
  190.4880  172.8060  142.8960 C   0  0  0  0  0  3  0  0  0  0  0  0
  191.6040  174.9610  142.0740 C   0  0  1  0  0  3  0  0  0  0  0  0
  192.6390  176.2380  142.7560 Cl  0  0  0  0  0  0  0  0  0  0  0  0
  192.8860  172.2120  142.8620 C   0  0  2  0  0  3  0  0  0  0  0  0
  184.5660  178.1540  146.2730 C   0  0  0  0  0  2  0  0  0  0  0  0
  184.5710  178.6050  147.5940 O   0  0  0  0  0  1  0  0  0  0  0  0
  1  4  1  0  0  0  0
  1  3  1  0  0  0  0
  2  5  1  0  0  0  0
  2  4  2  0  0  0  0
  3 18  2  0  0  0  0
  4 10  1  0  0  0  0
  5 17  1  0  0  0  0
  6 19  1  0  0  0  0
  6 20  1  0  0  0  0
  7 16  1  1  0  0  0
  7  2  1  0  0  0  0
  8  9  1  0  0  0  0
  9 11  1  0  0  0  0
 10 12  1  0  0  0  0
 10 13  2  0  0  0  0
 11  5  2  0  0  0  0
 14  7  1  0  0  0  0
 14 15  1  0  0  0  0
 15  1  2  0  0  0  0
 16  9  2  0  0  0  0
 17 31  1  0  0  0  0
 17 12  2  0  0  0  0
 18 13  1  0  0  0  0
 19  8  1  0  0  0  0
 20 16  1  0  0  0  0
 21 26  1  0  0  0  0
 21 28  1  0  0  0  0
 23 21  2  0  0  0  0
 24 30  1  0  0  0  0
 24 27  2  0  0  0  0
 25 15  1  6  0  0  0
 26 30  1  0  0  0  0
 27 25  1  0  0  0  0
 28 29  1  1  0  0  0
 28 25  1  0  0  0  0
 30 22  1  6  0  0  0
 31 32  1  0  0  0  0
M  END
>  <MODEL>
1

>  <REMARK>
 VINA RESULT:      -8.2      0.000      0.000
  Name = 
  2 active torsions:
  status: ('A' for Active; 'I' for Inactive)
    1  A    between atoms: C_13  and  C_29
    2  A    between atoms: C_16  and  C_27
                            x       y       z     vdW  Elec       q    Type
                         _______ _______ _______ _____ _____    ______ ____

>  <TORSDO>
F 2

$$$$
=
 OpenBabel11042416373D

 32 37  0  0  1  0  0  0  0  0999 V2000
  189.5720  175.6170  144.4430 C   0  0  0  0  0  0  0  0  0  0  0  0
  187.3460  176.5600  144.2850 C   0  0  0  0  0  0  0  0  0  0  0  0
  190.5980  175.1310  145.2640 C   0  0  0  0  0  3  0  0  0  0  0  0
  188.3640  176.0720  145.0400 C   0  0  0  0  0  0  0  0  0  0  0  0
  186.1350  177.0220  144.8600 C   0  0  0  0  0  0  0  0  0  0  0  0
  185.7870  178.2240  140.0090 N   0  0  0  0  0  2  0  0  0  0  0  0
  187.4970  176.6160  142.8860 C   0  0  2  0  0  3  0  0  0  0  0  0
  184.2050  178.2250  141.8790 C   0  0  0  0  0  2  0  0  0  0  0  0
  185.2960  177.5880  142.6940 C   0  0  0  0  0  0  0  0  0  0  0  0
  188.2430  176.0140  146.4420 C   0  0  0  0  0  0  0  0  0  0  0  0
  185.1610  177.5160  144.0440 N   0  0  0  0  0  0  0  0  0  0  0  0
  186.9930  176.4660  147.1350 C   0  0  0  0  0  3  0  0  0  0  0  0
  189.2690  175.5420  147.1990 N   0  0  0  0  0  0  0  0  0  0  0  0
  188.6800  176.1420  142.3070 O   0  0  0  0  0  0  0  0  0  0  0  0
  189.7200  175.6510  143.1020 C   0  0  0  0  0  0  0  0  0  0  0  0
  186.4810  177.1460  142.0870 C   0  0  0  0  0  0  0  0  0  0  0  0
  185.9380  176.9960  146.1960 C   0  0  0  0  0  0  0  0  0  0  0  0
  190.4280  175.1040  146.6450 C   0  0  0  0  0  3  0  0  0  0  0  0
  184.3980  177.9760  140.3830 C   0  0  0  0  0  2  0  0  0  0  0  0
  186.6120  177.1650  140.5870 C   0  0  0  0  0  2  0  0  0  0  0  0
  192.5880  173.1690  142.6110 C   0  0  0  0  0  0  0  0  0  0  0  0
  194.6570  175.2840  140.3450 O   0  0  0  0  0  1  0  0  0  0  0  0
  192.9930  172.4440  143.5030 O   0  0  0  0  0  0  0  0  0  0  0  0
  193.3120  175.9310  142.1840 C   0  0  0  0  0  3  0  0  0  0  0  0
  190.9700  175.1600  142.4300 C   0  0  1  0  0  3  0  0  0  0  0  0
  193.5280  173.5120  141.4810 C   0  0  0  0  0  2  0  0  0  0  0  0
  192.1470  176.0090  142.8370 C   0  0  0  0  0  3  0  0  0  0  0  0
  191.1590  173.6510  142.6630 C   0  0  1  0  0  3  0  0  0  0  0  0
  190.1680  172.7320  141.5050 Cl  0  0  0  0  0  0  0  0  0  0  0  0
  193.4880  174.9770  141.0360 C   0  0  2  0  0  3  0  0  0  0  0  0
  184.6510  177.5270  146.7710 C   0  0  0  0  0  2  0  0  0  0  0  0
  184.8690  178.6680  147.5460 O   0  0  0  0  0  1  0  0  0  0  0  0
  1  4  1  0  0  0  0
  1  3  1  0  0  0  0
  2  5  1  0  0  0  0
  2  4  2  0  0  0  0
  3 18  2  0  0  0  0
  4 10  1  0  0  0  0
  5 17  1  0  0  0  0
  6 19  1  0  0  0  0
  6 20  1  0  0  0  0
  7 16  1  1  0  0  0
  7  2  1  0  0  0  0
  8  9  1  0  0  0  0
  9 11  1  0  0  0  0
 10 12  1  0  0  0  0
 10 13  2  0  0  0  0
 11  5  2  0  0  0  0
 14  7  1  0  0  0  0
 14 15  1  0  0  0  0
 15  1  2  0  0  0  0
 16  9  2  0  0  0  0
 17 31  1  0  0  0  0
 17 12  2  0  0  0  0
 18 13  1  0  0  0  0
 19  8  1  0  0  0  0
 20 16  1  0  0  0  0
 21 28  1  0  0  0  0
 21 23  2  0  0  0  0
 24 27  2  0  0  0  0
 25 28  1  0  0  0  0
 25 27  1  0  0  0  0
 25 15  1  1  0  0  0
 26 21  1  0  0  0  0
 28 29  1  6  0  0  0
 30 22  1  1  0  0  0
 30 26  1  0  0  0  0
 30 24  1  0  0  0  0
 31 32  1  0  0  0  0
M  END
>  <MODEL>
2

>  <REMARK>
 VINA RESULT:      -7.7      1.246      1.964
  Name = 
  2 active torsions:
  status: ('A' for Active; 'I' for Inactive)
    1  A    between atoms: C_13  and  C_29
    2  A    between atoms: C_16  and  C_27
                            x       y       z     vdW  Elec       q    Type
                         _______ _______ _______ _____ _____    ______ ____

>  <TORSDO>
F 2

$$$$
=
 OpenBabel11042416373D

 32 37  0  0  1  0  0  0  0  0999 V2000
  191.4780  175.5080  145.1420 C   0  0  0  0  0  0  0  0  0  0  0  0
  189.6900  175.3510  143.5140 C   0  0  0  0  0  0  0  0  0  0  0  0
  191.8990  175.9590  146.3990 C   0  0  0  0  0  3  0  0  0  0  0  0
  190.1400  175.7600  144.7280 C   0  0  0  0  0  0  0  0  0  0  0  0
  188.3620  175.5960  143.0810 C   0  0  0  0  0  0  0  0  0  0  0  0
  190.6800  173.6760  139.0760 N   0  0  0  0  0  2  0  0  0  0  0  0
  190.5690  174.6660  142.6530 C   0  0  2  0  0  3  0  0  0  0  0  0
  188.3410  174.1640  139.6150 C   0  0  0  0  0  2  0  0  0  0  0  0
  188.8210  174.5210  140.9940 C   0  0  0  0  0  0  0  0  0  0  0  0
  189.2850  176.4560  145.6050 C   0  0  0  0  0  0  0  0  0  0  0  0
  187.9810  175.1720  141.8420 N   0  0  0  0  0  0  0  0  0  0  0  0
  187.8610  176.7450  145.2370 C   0  0  0  0  0  3  0  0  0  0  0  0
  189.7410  176.8810  146.8130 N   0  0  0  0  0  0  0  0  0  0  0  0
  191.8750  174.4010  143.0800 O   0  0  0  0  0  0  0  0  0  0  0  0
  192.3230  174.8380  144.3310 C   0  0  0  0  0  0  0  0  0  0  0  0
  190.1440  174.2640  141.3840 C   0  0  0  0  0  0  0  0  0  0  0  0
  187.4780  176.2510  143.8640 C   0  0  0  0  0  0  0  0  0  0  0  0
  191.0140  176.6480  147.2220 C   0  0  0  0  0  3  0  0  0  0  0  0
  189.3070  173.2100  138.9100 C   0  0  0  0  0  2  0  0  0  0  0  0
  191.0610  173.4890  140.4760 C   0  0  0  0  0  2  0  0  0  0  0  0
  196.1190  175.0210  143.9050 C   0  0  0  0  0  0  0  0  0  0  0  0
  197.0010  172.4360  146.4400 O   0  0  0  0  0  1  0  0  0  0  0  0
  196.6540  175.1930  142.8230 O   0  0  0  0  0  0  0  0  0  0  0  0
  195.1550  172.5120  144.9590 C   0  0  0  0  0  3  0  0  0  0  0  0
  193.7350  174.5320  144.7370 C   0  0  1  0  0  3  0  0  0  0  0  0
  196.9060  174.3350  144.9950 C   0  0  0  0  0  2  0  0  0  0  0  0
  194.0550  173.0860  144.4570 C   0  0  0  0  0  3  0  0  0  0  0  0
  194.7160  175.5370  144.1090 C   0  0  1  0  0  3  0  0  0  0  0  0
  194.7540  177.0300  145.0770 Cl  0  0  0  0  0  0  0  0  0  0  0  0
  196.1160  173.3010  145.8030 C   0  0  2  0  0  3  0  0  0  0  0  0
  186.0870  176.5210  143.3540 C   0  0  0  0  0  2  0  0  0  0  0  0
  185.3770  177.3570  144.2180 O   0  0  0  0  0  1  0  0  0  0  0  0
  1  3  1  0  0  0  0
  2  4  2  0  0  0  0
  3 18  2  0  0  0  0
  4  1  1  0  0  0  0
  4 10  1  0  0  0  0
  5  2  1  0  0  0  0
  5 17  1  0  0  0  0
  6 20  1  0  0  0  0
  7 16  1  6  0  0  0
  7 14  1  0  0  0  0
  7  2  1  0  0  0  0
  8  9  1  0  0  0  0
  9 16  2  0  0  0  0
  9 11  1  0  0  0  0
 10 13  2  0  0  0  0
 11  5  2  0  0  0  0
 12 10  1  0  0  0  0
 13 18  1  0  0  0  0
 14 15  1  0  0  0  0
 15  1  2  0  0  0  0
 17 12  2  0  0  0  0
 19  6  1  0  0  0  0
 19  8  1  0  0  0  0
 20 16  1  0  0  0  0
 21 28  1  0  0  0  0
 21 26  1  0  0  0  0
 23 21  2  0  0  0  0
 24 30  1  0  0  0  0
 25 15  1  6  0  0  0
 26 30  1  0  0  0  0
 27 25  1  0  0  0  0
 27 24  2  0  0  0  0
 28 25  1  0  0  0  0
 28 29  1  1  0  0  0
 30 22  1  6  0  0  0
 31 17  1  0  0  0  0
 31 32  1  0  0  0  0
M  END
>  <MODEL>
3

>  <REMARK>
 VINA RESULT:      -7.6      3.037      3.897
  Name = 
  2 active torsions:
  status: ('A' for Active; 'I' for Inactive)
    1  A    between atoms: C_13  and  C_29
    2  A    between atoms: C_16  and  C_27
                            x       y       z     vdW  Elec       q    Type
                         _______ _______ _______ _____ _____    ______ ____

>  <TORSDO>
F 2

$$$$
=
 OpenBabel11042416373D

 32 37  0  0  1  0  0  0  0  0999 V2000
  187.1910  176.5660  141.8860 C   0  0  0  0  0  0  0  0  0  0  0  0
  188.2480  174.7200  140.7260 C   0  0  0  0  0  0  0  0  0  0  0  0
  186.4410  177.7460  141.7990 C   0  0  0  0  0  3  0  0  0  0  0  0
  187.5160  175.8620  140.6920 C   0  0  0  0  0  0  0  0  0  0  0  0
  188.5860  174.0060  139.5480 C   0  0  0  0  0  0  0  0  0  0  0  0
  191.1350  171.7200  143.2040 N   0  0  0  0  0  2  0  0  0  0  0  0
  188.6920  174.2280  141.9680 C   0  0  0  0  0  0  0  0  0  0  0  0
  190.6810  171.1850  140.8580 C   0  0  0  0  0  2  0  0  0  0  0  0
  189.7860  172.3930  140.8430 C   0  0  0  0  0  0  0  0  0  0  0  0
  187.0660  176.3820  139.4620 C   0  0  0  0  0  0  0  0  0  0  0  0
  189.3390  172.8740  139.6530 N   0  0  0  0  0  0  0  0  0  0  0  0
  187.3640  175.6860  138.1690 C   0  0  0  0  0  2  0  0  0  0  0  0
  186.3480  177.5360  139.4280 N   0  0  0  0  0  0  0  0  0  0  0  0
  188.3460  174.9130  143.1380 O   0  0  0  0  0  0  0  0  0  0  0  0
  187.5980  176.0930  143.0820 C   0  0  0  0  0  0  0  0  0  0  0  0
  189.4770  173.0730  142.0300 C   0  0  0  0  0  0  0  0  0  0  0  0
  188.1900  174.4340  138.3290 C   0  0  0  0  0  0  0  0  0  0  0  0
  186.0300  178.2180  140.5570 C   0  0  0  0  0  3  0  0  0  0  0  0
  190.8600  170.6310  142.2720 C   0  0  0  0  0  2  0  0  0  0  0  0
  189.9160  172.5120  143.3570 C   0  0  0  0  0  2  0  0  0  0  0  0
  187.8100  176.5770  146.8690 C   0  0  0  0  0  0  0  0  0  0  0  0
  185.0290  179.0380  147.1860 O   0  0  0  0  0  1  0  0  0  0  0  0
  188.0680  175.6660  147.6380 O   0  0  0  0  0  0  0  0  0  0  0  0
  185.2260  177.1780  145.7320 C   0  0  0  0  0  3  0  0  0  0  0  0
  187.2580  176.7920  144.3670 C   0  0  1  0  0  3  0  0  0  0  0  0
  187.0370  177.7630  147.3950 C   0  0  0  0  0  2  0  0  0  0  0  0
  185.8390  176.4810  144.7680 C   0  0  0  0  0  3  0  0  0  0  0  0
  188.3090  176.4890  145.4490 C   0  0  1  0  0  3  0  0  0  0  0  0
  189.7200  177.5530  145.2360 Cl  0  0  0  0  0  0  0  0  0  0  0  0
  185.9430  178.2810  146.4570 C   0  0  2  0  0  3  0  0  0  0  0  0
  188.5980  173.6670  137.1000 C   0  0  0  0  0  2  0  0  0  0  0  0
  189.4080  174.4350  136.2620 O   0  0  0  0  0  1  0  0  0  0  0  0
  1 15  2  0  0  0  0
  2  7  1  0  0  0  0
  3  1  1  0  0  0  0
  4  2  2  0  0  0  0
  4  1  1  0  0  0  0
  5 11  1  0  0  0  0
  5  2  1  0  0  0  0
  6 20  1  0  0  0  0
  7 16  2  0  0  0  0
  7 14  1  0  0  0  0
  8 19  1  0  0  0  0
  9  8  1  0  0  0  0
  9 16  1  0  0  0  0
 10  4  1  0  0  0  0
 11  9  2  0  0  0  0
 12 17  1  0  0  0  0
 12 10  1  0  0  0  0
 13 10  2  0  0  0  0
 13 18  1  0  0  0  0
 15 14  1  0  0  0  0
 16 20  1  0  0  0  0
 17  5  2  0  0  0  0
 18  3  2  0  0  0  0
 19  6  1  0  0  0  0
 21 26  1  0  0  0  0
 21 23  2  0  0  0  0
 24 30  1  0  0  0  0
 25 15  1  6  0  0  0
 25 27  1  0  0  0  0
 25 28  1  0  0  0  0
 27 24  2  0  0  0  0
 28 29  1  1  0  0  0
 28 21  1  0  0  0  0
 30 22  1  1  0  0  0
 30 26  1  0  0  0  0
 31 17  1  0  0  0  0
 32 31  1  0  0  0  0
M  END
>  <MODEL>
4

>  <REMARK>
 VINA RESULT:      -7.5      2.599      7.603
  Name = 
  2 active torsions:
  status: ('A' for Active; 'I' for Inactive)
    1  A    between atoms: C_13  and  C_29
    2  A    between atoms: C_16  and  C_27
                            x       y       z     vdW  Elec       q    Type
                         _______ _______ _______ _____ _____    ______ ____

>  <TORSDO>
F 2

$$$$
=
 OpenBabel11042416373D

 32 37  0  0  1  0  0  0  0  0999 V2000
  187.3920  176.4910  141.5270 C   0  0  0  0  0  0  0  0  0  0  0  0
  185.7710  177.4590  143.0460 C   0  0  0  0  0  0  0  0  0  0  0  0
  187.7520  176.2030  140.2040 C   0  0  0  0  0  3  0  0  0  0  0  0
  186.1670  177.1670  141.7800 C   0  0  0  0  0  0  0  0  0  0  0  0
  184.5520  178.1290  143.3200 C   0  0  0  0  0  0  0  0  0  0  0  0
  186.3060  176.7800  147.8140 N   0  0  0  0  0  2  0  0  0  0  0  0
  186.5940  177.0800  144.1240 C   0  0  0  0  0  0  0  0  0  0  0  0
  184.4890  178.2420  147.0670 C   0  0  0  0  0  2  0  0  0  0  0  0
  184.9850  178.0060  145.6680 C   0  0  0  0  0  0  0  0  0  0  0  0
  185.3580  177.5270  140.6830 C   0  0  0  0  0  0  0  0  0  0  0  0
  184.2090  178.3760  144.6160 N   0  0  0  0  0  0  0  0  0  0  0  0
  184.0610  178.2510  140.8780 C   0  0  0  0  0  2  0  0  0  0  0  0
  185.7460  177.2180  139.4170 N   0  0  0  0  0  0  0  0  0  0  0  0
  187.8090  176.4380  143.8630 O   0  0  0  0  0  0  0  0  0  0  0  0
  188.1950  176.1380  142.5530 C   0  0  0  0  0  0  0  0  0  0  0  0
  186.1960  177.3360  145.4390 C   0  0  0  0  0  0  0  0  0  0  0  0
  183.7230  178.5130  142.3240 C   0  0  0  0  0  0  0  0  0  0  0  0
  186.9110  176.5730  139.1600 C   0  0  0  0  0  3  0  0  0  0  0  0
  185.5910  178.0190  148.1030 C   0  0  0  0  0  2  0  0  0  0  0  0
  187.0910  176.9790  146.5960 C   0  0  0  0  0  2  0  0  0  0  0  0
  190.7840  173.4150  143.2610 C   0  0  0  0  0  0  0  0  0  0  0  0
  193.5860  174.9110  141.3120 O   0  0  0  0  0  1  0  0  0  0  0  0
  190.8660  172.8460  144.3370 O   0  0  0  0  0  0  0  0  0  0  0  0
  191.9100  175.9870  142.5930 C   0  0  0  0  0  3  0  0  0  0  0  0
  189.5060  175.4430  142.3290 C   0  0  1  0  0  3  0  0  0  0  0  0
  192.0100  173.4700  142.3830 C   0  0  0  0  0  2  0  0  0  0  0  0
  190.6350  176.2690  142.8890 C   0  0  0  0  0  3  0  0  0  0  0  0
  189.4540  173.9950  142.8500 C   0  0  1  0  0  3  0  0  0  0  0  0
  188.6830  172.9450  141.6380 Cl  0  0  0  0  0  0  0  0  0  0  0  0
  192.2530  174.8230  141.7080 C   0  0  2  0  0  3  0  0  0  0  0  0
  182.4210  179.1920  142.6580 C   0  0  0  0  0  2  0  0  0  0  0  0
  181.3850  178.7480  141.8340 O   0  0  0  0  0  1  0  0  0  0  0  0
  1  4  1  0  0  0  0
  1 15  2  0  0  0  0
  2  5  1  0  0  0  0
  2  7  1  0  0  0  0
  3  1  1  0  0  0  0
  4  2  2  0  0  0  0
  5 11  1  0  0  0  0
  6 19  1  0  0  0  0
  7 16  2  0  0  0  0
  8 19  1  0  0  0  0
  9  8  1  0  0  0  0
 10 12  1  0  0  0  0
 10  4  1  0  0  0  0
 11  9  2  0  0  0  0
 12 17  1  0  0  0  0
 13 10  2  0  0  0  0
 14  7  1  0  0  0  0
 15 14  1  0  0  0  0
 16  9  1  0  0  0  0
 16 20  1  0  0  0  0
 17 31  1  0  0  0  0
 17  5  2  0  0  0  0
 18 13  1  0  0  0  0
 18  3  2  0  0  0  0
 20  6  1  0  0  0  0
 21 23  2  0  0  0  0
 24 27  2  0  0  0  0
 25 15  1  1  0  0  0
 25 28  1  0  0  0  0
 25 27  1  0  0  0  0
 26 21  1  0  0  0  0
 28 29  1  6  0  0  0
 28 21  1  0  0  0  0
 30 22  1  1  0  0  0
 30 26  1  0  0  0  0
 30 24  1  0  0  0  0
 32 31  1  0  0  0  0
M  END
>  <MODEL>
5

>  <REMARK>
 VINA RESULT:      -7.4      2.091      4.946
  Name = 
  2 active torsions:
  status: ('A' for Active; 'I' for Inactive)
    1  A    between atoms: C_13  and  C_29
    2  A    between atoms: C_16  and  C_27
                            x       y       z     vdW  Elec       q    Type
                         _______ _______ _______ _____ _____    ______ ____

>  <TORSDO>
F 2

$$$$
=
 OpenBabel11042416373D

 32 37  0  0  1  0  0  0  0  0999 V2000
  190.1010  173.9670  142.9320 C   0  0  0  0  0  0  0  0  0  0  0  0
  188.4750  175.6690  143.5080 C   0  0  0  0  0  0  0  0  0  0  0  0
  191.1050  173.0920  143.3670 C   0  0  0  0  0  3  0  0  0  0  0  0
  189.4470  174.7980  143.8840 C   0  0  0  0  0  0  0  0  0  0  0  0
  187.8140  176.5090  144.4400 C   0  0  0  0  0  0  0  0  0  0  0  0
  186.1760  178.0330  139.9580 N   0  0  0  0  0  2  0  0  0  0  0  0
  188.1130  175.7460  142.1500 C   0  0  2  0  0  3  0  0  0  0  0  0
  185.5030  178.5060  142.2660 C   0  0  0  0  0  2  0  0  0  0  0  0
  186.5060  177.4680  142.6830 C   0  0  0  0  0  0  0  0  0  0  0  0
  189.8350  174.7070  145.2350 C   0  0  0  0  0  0  0  0  0  0  0  0
  186.8580  177.3720  143.9920 N   0  0  0  0  0  0  0  0  0  0  0  0
  189.1810  175.5460  146.2910 C   0  0  0  0  0  3  0  0  0  0  0  0
  190.8220  173.8490  145.6080 N   0  0  0  0  0  0  0  0  0  0  0  0
  188.7440  174.9050  141.2260 O   0  0  0  0  0  0  0  0  0  0  0  0
  189.7490  174.0220  141.6310 C   0  0  0  0  0  0  0  0  0  0  0  0
  187.1400  176.6570  141.7290 C   0  0  0  0  0  0  0  0  0  0  0  0
  188.1240  176.4800  145.7550 C   0  0  0  0  0  0  0  0  0  0  0  0
  191.4540  173.0490  144.7130 C   0  0  0  0  0  3  0  0  0  0  0  0
  185.0310  178.2910  140.8270 C   0  0  0  0  0  2  0  0  0  0  0  0
  186.7120  176.7130  140.2870 C   0  0  0  0  0  2  0  0  0  0  0  0
  191.5650  173.4090  138.3220 C   0  0  0  0  0  0  0  0  0  0  0  0
  191.2010  169.7010  138.2640 O   0  0  0  0  0  1  0  0  0  0  0  0
  191.4740  174.1660  137.3700 O   0  0  0  0  0  0  0  0  0  0  0  0
  189.6870  171.3430  139.0530 C   0  0  0  0  0  3  0  0  0  0  0  0
  190.3970  173.1460  140.5980 C   0  0  1  0  0  3  0  0  0  0  0  0
  191.9270  171.9680  138.0620 C   0  0  0  0  0  2  0  0  0  0  0  0
  189.3490  172.3690  139.8430 C   0  0  0  0  0  3  0  0  0  0  0  0
  191.3500  173.9630  139.7080 C   0  0  1  0  0  3  0  0  0  0  0  0
  192.9170  174.1660  140.5280 Cl  0  0  0  0  0  0  0  0  0  0  0  0
  191.1260  170.9490  138.8780 C   0  0  2  0  0  3  0  0  0  0  0  0
  187.4240  177.4120  146.7080 C   0  0  0  0  0  2  0  0  0  0  0  0
  186.3440  176.7880  147.3340 O   0  0  0  0  0  1  0  0  0  0  0  0
  1  3  1  0  0  0  0
  1  4  1  0  0  0  0
  2  4  2  0  0  0  0
  2  5  1  0  0  0  0
  3 18  2  0  0  0  0
  4 10  1  0  0  0  0
  5 17  1  0  0  0  0
  6 20  1  0  0  0  0
  6 19  1  0  0  0  0
  7 14  1  6  0  0  0
  7  2  1  0  0  0  0
  8  9  1  0  0  0  0
  9 11  1  0  0  0  0
 10 13  2  0  0  0  0
 10 12  1  0  0  0  0
 11  5  2  0  0  0  0
 14 15  1  0  0  0  0
 15  1  2  0  0  0  0
 16  7  1  0  0  0  0
 16  9  2  0  0  0  0
 17 12  2  0  0  0  0
 17 31  1  0  0  0  0
 18 13  1  0  0  0  0
 19  8  1  0  0  0  0
 20 16  1  0  0  0  0
 21 28  1  0  0  0  0
 23 21  2  0  0  0  0
 24 27  2  0  0  0  0
 25 15  1  1  0  0  0
 26 21  1  0  0  0  0
 26 30  1  0  0  0  0
 27 25  1  0  0  0  0
 28 29  1  1  0  0  0
 28 25  1  0  0  0  0
 30 22  1  6  0  0  0
 30 24  1  0  0  0  0
 31 32  1  0  0  0  0
M  END
>  <MODEL>
6

>  <REMARK>
 VINA RESULT:      -7.1      2.225      2.735
  Name = 
  2 active torsions:
  status: ('A' for Active; 'I' for Inactive)
    1  A    between atoms: C_13  and  C_29
    2  A    between atoms: C_16  and  C_27
                            x       y       z     vdW  Elec       q    Type
                         _______ _______ _______ _____ _____    ______ ____

>  <TORSDO>
F 2

$$$$
=
 OpenBabel11042416373D

 32 37  0  0  1  0  0  0  0  0999 V2000
  187.8570  175.6230  140.8530 C   0  0  0  0  0  0  0  0  0  0  0  0
  189.2850  173.6730  140.6710 C   0  0  0  0  0  0  0  0  0  0  0  0
  187.0180  176.5410  140.2090 C   0  0  0  0  0  3  0  0  0  0  0  0
  188.4570  174.5810  140.0920 C   0  0  0  0  0  0  0  0  0  0  0  0
  189.8960  172.6300  139.9300 C   0  0  0  0  0  0  0  0  0  0  0  0
  191.9840  172.3610  144.4750 N   0  0  0  0  0  2  0  0  0  0  0  0
  189.5520  173.7720  142.0500 C   0  0  0  0  0  0  0  0  0  0  0  0
  192.0060  170.9060  142.5060 C   0  0  0  0  0  2  0  0  0  0  0  0
  191.0090  171.8520  141.8980 C   0  0  0  0  0  0  0  0  0  0  0  0
  188.1800  174.5100  138.7130 C   0  0  0  0  0  0  0  0  0  0  0  0
  190.7300  171.7630  140.5710 N   0  0  0  0  0  0  0  0  0  0  0  0
  188.7690  173.4320  137.8550 C   0  0  0  0  0  2  0  0  0  0  0  0
  187.3650  175.4300  138.1310 N   0  0  0  0  0  0  0  0  0  0  0  0
  188.9370  174.7850  142.7940 O   0  0  0  0  0  0  0  0  0  0  0  0
  188.0940  175.7160  142.1780 C   0  0  0  0  0  0  0  0  0  0  0  0
  190.4280  172.8740  142.6650 C   0  0  0  0  0  0  0  0  0  0  0  0
  189.6780  172.4900  138.6040 C   0  0  0  0  0  0  0  0  0  0  0  0
  186.7860  176.4290  138.8420 C   0  0  0  0  0  3  0  0  0  0  0  0
  191.9890  170.9700  144.0330 C   0  0  0  0  0  2  0  0  0  0  0  0
  190.6820  172.9410  144.1480 C   0  0  0  0  0  2  0  0  0  0  0  0
  187.2920  177.4110  145.5110 C   0  0  0  0  0  0  0  0  0  0  0  0
  184.7110  179.7730  144.2280 O   0  0  0  0  0  1  0  0  0  0  0  0
  187.2650  176.8060  146.5690 O   0  0  0  0  0  0  0  0  0  0  0  0
  185.1680  177.5470  143.5600 C   0  0  0  0  0  3  0  0  0  0  0  0
  187.4650  176.7860  143.0220 C   0  0  1  0  0  3  0  0  0  0  0  0
  186.4900  178.6840  145.3900 C   0  0  0  0  0  2  0  0  0  0  0  0
  185.9720  176.5890  143.0840 C   0  0  0  0  0  3  0  0  0  0  0  0
  188.1550  176.8770  144.3950 C   0  0  1  0  0  3  0  0  0  0  0  0
  189.6400  177.8480  144.2600 Cl  0  0  0  0  0  0  0  0  0  0  0  0
  185.7350  178.8430  144.0680 C   0  0  2  0  0  3  0  0  0  0  0  0
  190.3710  171.3890  137.8460 C   0  0  0  0  0  2  0  0  0  0  0  0
  189.5570  170.2630  137.7170 O   0  0  0  0  0  1  0  0  0  0  0  0
  1 15  2  0  0  0  0
  2  7  1  0  0  0  0
  3  1  1  0  0  0  0
  4  2  2  0  0  0  0
  4  1  1  0  0  0  0
  5 11  1  0  0  0  0
  5  2  1  0  0  0  0
  7 16  2  0  0  0  0
  7 14  1  0  0  0  0
  8 19  1  0  0  0  0
  9  8  1  0  0  0  0
  9 16  1  0  0  0  0
 10  4  1  0  0  0  0
 11  9  2  0  0  0  0
 12 17  1  0  0  0  0
 12 10  1  0  0  0  0
 13 10  2  0  0  0  0
 13 18  1  0  0  0  0
 15 14  1  0  0  0  0
 16 20  1  0  0  0  0
 17  5  2  0  0  0  0
 18  3  2  0  0  0  0
 19  6  1  0  0  0  0
 20  6  1  0  0  0  0
 21 23  2  0  0  0  0
 24 30  1  0  0  0  0
 25 15  1  6  0  0  0
 25 27  1  0  0  0  0
 25 28  1  0  0  0  0
 26 21  1  0  0  0  0
 27 24  2  0  0  0  0
 28 29  1  6  0  0  0
 28 21  1  0  0  0  0
 30 22  1  1  0  0  0
 30 26  1  0  0  0  0
 31 17  1  0  0  0  0
 32 31  1  0  0  0  0
M  END
>  <MODEL>
7

>  <REMARK>
 VINA RESULT:      -7.0      2.937      8.107
  Name = 
  2 active torsions:
  status: ('A' for Active; 'I' for Inactive)
    1  A    between atoms: C_13  and  C_29
    2  A    between atoms: C_16  and  C_27
                            x       y       z     vdW  Elec       q    Type
                         _______ _______ _______ _____ _____    ______ ____

>  <TORSDO>
F 2

$$$$
=
 OpenBabel11042416373D

 32 37  0  0  1  0  0  0  0  0999 V2000
  190.9530  175.9830  145.0250 C   0  0  0  0  0  0  0  0  0  0  0  0
  193.0090  175.1330  144.0640 C   0  0  0  0  0  0  0  0  0  0  0  0
  190.2980  176.5090  146.1460 C   0  0  0  0  0  3  0  0  0  0  0  0
  192.3350  175.6550  145.1200 C   0  0  0  0  0  0  0  0  0  0  0  0
  194.3850  174.7970  144.1390 C   0  0  0  0  0  0  0  0  0  0  0  0
  192.8890  173.0750  139.6790 N   0  0  0  0  0  2  0  0  0  0  0  0
  192.3230  174.9140  142.8540 C   0  0  2  0  0  3  0  0  0  0  0  0
  195.0760  173.3590  140.7460 C   0  0  0  0  0  2  0  0  0  0  0  0
  194.3450  174.0310  141.8740 C   0  0  0  0  0  0  0  0  0  0  0  0
  192.9950  175.8770  146.3450 C   0  0  0  0  0  0  0  0  0  0  0  0
  194.9960  174.2610  143.0440 N   0  0  0  0  0  0  0  0  0  0  0  0
  194.4510  175.5640  146.5110 C   0  0  0  0  0  3  0  0  0  0  0  0
  192.3150  176.3820  147.4080 N   0  0  0  0  0  0  0  0  0  0  0  0
  190.9710  175.2630  142.7630 O   0  0  0  0  0  0  0  0  0  0  0  0
  190.2910  175.7910  143.8650 C   0  0  0  0  0  0  0  0  0  0  0  0
  192.9820  174.3460  141.7610 C   0  0  0  0  0  0  0  0  0  0  0  0
  195.0920  174.9830  145.2750 C   0  0  0  0  0  0  0  0  0  0  0  0
  190.9980  176.6990  147.3330 C   0  0  0  0  0  3  0  0  0  0  0  0
  194.2850  173.4290  139.4390 C   0  0  0  0  0  2  0  0  0  0  0  0
  192.2700  174.1520  140.4490 C   0  0  0  0  0  2  0  0  0  0  0  0
  187.1470  176.5300  141.8170 C   0  0  0  0  0  0  0  0  0  0  0  0
  185.0600  177.8370  144.6140 O   0  0  0  0  0  1  0  0  0  0  0  0
  187.1890  176.9590  140.6770 O   0  0  0  0  0  0  0  0  0  0  0  0
  187.3860  178.0810  144.2400 C   0  0  0  0  0  3  0  0  0  0  0  0
  188.8390  176.1440  143.7150 C   0  0  1  0  0  3  0  0  0  0  0  0
  185.9100  176.7960  142.6400 C   0  0  0  0  0  2  0  0  0  0  0  0
  188.6190  177.5950  144.0550 C   0  0  0  0  0  3  0  0  0  0  0  0
  188.3150  175.7260  142.3300 C   0  0  1  0  0  3  0  0  0  0  0  0
  187.9010  173.9950  142.3390 Cl  0  0  0  0  0  0  0  0  0  0  0  0
  186.1810  177.1960  144.0930 C   0  0  2  0  0  3  0  0  0  0  0  0
  196.5420  174.5810  145.3260 C   0  0  0  0  0  2  0  0  0  0  0  0
  196.8160  173.7910  146.4440 O   0  0  0  0  0  1  0  0  0  0  0  0
  1  4  1  0  0  0  0
  1  3  1  0  0  0  0
  2  5  1  0  0  0  0
  2  4  2  0  0  0  0
  3 18  2  0  0  0  0
  4 10  1  0  0  0  0
  5 17  1  0  0  0  0
  6 20  1  0  0  0  0
  7 16  1  1  0  0  0
  7  2  1  0  0  0  0
  8  9  1  0  0  0  0
  9 11  1  0  0  0  0
 10 12  1  0  0  0  0
 10 13  2  0  0  0  0
 11  5  2  0  0  0  0
 14  7  1  0  0  0  0
 14 15  1  0  0  0  0
 15  1  2  0  0  0  0
 16  9  2  0  0  0  0
 17 31  1  0  0  0  0
 17 12  2  0  0  0  0
 18 13  1  0  0  0  0
 19  6  1  0  0  0  0
 19  8  1  0  0  0  0
 20 16  1  0  0  0  0
 21 28  1  0  0  0  0
 21 26  1  0  0  0  0
 23 21  2  0  0  0  0
 25 15  1  6  0  0  0
 25 27  1  0  0  0  0
 26 30  1  0  0  0  0
 27 24  2  0  0  0  0
 28 29  1  1  0  0  0
 28 25  1  0  0  0  0
 30 24  1  0  0  0  0
 30 22  1  6  0  0  0
 31 32  1  0  0  0  0
M  END
>  <MODEL>
8

>  <REMARK>
 VINA RESULT:      -7.0      3.304      7.324
  Name = 
  2 active torsions:
  status: ('A' for Active; 'I' for Inactive)
    1  A    between atoms: C_13  and  C_29
    2  A    between atoms: C_16  and  C_27
                            x       y       z     vdW  Elec       q    Type
                         _______ _______ _______ _____ _____    ______ ____

>  <TORSDO>
F 2

$$$$
=
 OpenBabel11042416373D

 32 37  0  0  1  0  0  0  0  0999 V2000
  188.3890  176.3480  142.1870 C   0  0  0  0  0  0  0  0  0  0  0  0
  188.1490  175.2920  140.0190 C   0  0  0  0  0  0  0  0  0  0  0  0
  188.0200  177.3930  143.0430 C   0  0  0  0  0  3  0  0  0  0  0  0
  187.8140  176.2810  140.8880 C   0  0  0  0  0  0  0  0  0  0  0  0
  187.5900  175.2100  138.7190 C   0  0  0  0  0  0  0  0  0  0  0  0
  191.1340  171.6710  138.8150 N   0  0  0  0  0  2  0  0  0  0  0  0
  189.0840  174.3180  140.4190 C   0  0  0  0  0  0  0  0  0  0  0  0
  189.3320  172.2300  137.2530 C   0  0  0  0  0  2  0  0  0  0  0  0
  188.8940  173.2590  138.2570 C   0  0  0  0  0  0  0  0  0  0  0  0
  186.8880  177.2740  140.5100 C   0  0  0  0  0  0  0  0  0  0  0  0
  187.9840  174.1990  137.8920 N   0  0  0  0  0  0  0  0  0  0  0  0
  186.2370  177.2570  139.1610 C   0  0  0  0  0  2  0  0  0  0  0  0
  186.5670  178.2740  141.3730 N   0  0  0  0  0  0  0  0  0  0  0  0
  189.6240  174.3780  141.7080 O   0  0  0  0  0  0  0  0  0  0  0  0
  189.2740  175.4100  142.5850 C   0  0  0  0  0  0  0  0  0  0  0  0
  189.4730  173.3090  139.5340 C   0  0  0  0  0  0  0  0  0  0  0  0
  186.6920  176.1190  138.2820 C   0  0  0  0  0  0  0  0  0  0  0  0
  187.1070  178.3520  142.6160 C   0  0  0  0  0  3  0  0  0  0  0  0
  190.1380  171.1080  137.9080 C   0  0  0  0  0  2  0  0  0  0  0  0
  190.4350  172.2350  139.9680 C   0  0  0  0  0  2  0  0  0  0  0  0
  192.2240  175.2430  145.0120 C   0  0  0  0  0  0  0  0  0  0  0  0
  190.2360  174.9180  148.1470 O   0  0  0  0  0  1  0  0  0  0  0  0
  193.2650  174.6670  144.7460 O   0  0  0  0  0  0  0  0  0  0  0  0
  189.7980  174.0280  145.9970 C   0  0  0  0  0  3  0  0  0  0  0  0
  189.8870  175.4300  143.9550 C   0  0  1  0  0  3  0  0  0  0  0  0
  191.8530  175.4230  146.4640 C   0  0  0  0  0  2  0  0  0  0  0  0
  189.5790  174.1460  144.6820 C   0  0  0  0  0  3  0  0  0  0  0  0
  191.3840  175.7780  143.8800 C   0  0  1  0  0  3  0  0  0  0  0  0
  191.5890  177.5420  143.7550 Cl  0  0  0  0  0  0  0  0  0  0  0  0
  190.3780  175.1680  146.7850 C   0  0  2  0  0  3  0  0  0  0  0  0
  186.1470  176.0170  136.8810 C   0  0  0  0  0  2  0  0  0  0  0  0
  186.9040  176.7680  135.9810 O   0  0  0  0  0  1  0  0  0  0  0  0
  1 15  2  0  0  0  0
  1  3  1  0  0  0  0
  2  7  1  0  0  0  0
  2  4  2  0  0  0  0
  4  1  1  0  0  0  0
  5  2  1  0  0  0  0
  6 20  1  0  0  0  0
  7 14  1  0  0  0  0
  8 19  1  0  0  0  0
  8  9  1  0  0  0  0
  9 16  1  0  0  0  0
 10  4  1  0  0  0  0
 10 13  2  0  0  0  0
 11  9  2  0  0  0  0
 11  5  1  0  0  0  0
 12 10  1  0  0  0  0
 13 18  1  0  0  0  0
 14 15  1  0  0  0  0
 16 20  1  0  0  0  0
 16  7  2  0  0  0  0
 17  5  2  0  0  0  0
 17 12  1  0  0  0  0
 18  3  2  0  0  0  0
 19  6  1  0  0  0  0
 21 26  1  0  0  0  0
 23 21  2  0  0  0  0
 24 30  1  0  0  0  0
 25 15  1  6  0  0  0
 25 27  1  0  0  0  0
 26 30  1  0  0  0  0
 27 24  2  0  0  0  0
 28 29  1  1  0  0  0
 28 25  1  0  0  0  0
 28 21  1  0  0  0  0
 30 22  1  1  0  0  0
 31 17  1  0  0  0  0
 32 31  1  0  0  0  0
M  END
>  <MODEL>
9

>  <REMARK>
 VINA RESULT:      -6.9      3.244      6.042
  Name = 
  2 active torsions:
  status: ('A' for Active; 'I' for Inactive)
    1  A    between atoms: C_13  and  C_29
    2  A    between atoms: C_16  and  C_27
                            x       y       z     vdW  Elec       q    Type
                         _______ _______ _______ _____ _____    ______ ____

>  <TORSDO>
F 2

$$$$
