=
 OpenBabel11042415573D

 52 57  0  0  1  0  0  0  0  0999 V2000
  194.3450  173.4020  144.2870 C   0  0  2  0  0  3  0  0  0  0  0  0
  193.1930  175.7060  146.3170 C   0  0  0  0  0  2  0  0  0  0  0  0
  191.9300  176.4400  145.8650 C   0  0  0  0  0  2  0  0  0  0  0  0
  193.0100  173.9500  144.8060 C   0  0  1  0  0  3  0  0  0  0  0  0
  193.0370  174.3120  146.1820 O   0  0  0  0  0  0  0  0  0  0  0  0
  191.3400  175.8060  144.5990 C   0  0  2  0  0  3  0  0  0  0  0  0
  192.3750  174.9750  143.8480 C   0  0  0  0  0  2  0  0  0  0  0  0
  190.6730  176.8350  143.6810 C   0  0  2  0  0  3  0  0  0  0  0  0
  191.3510  178.2000  143.7630 C   0  0  0  0  0  1  0  0  0  0  0  0
  188.1870  177.1480  143.0330 C   0  0  0  0  0  0  0  0  0  0  0  0
  184.9650  177.5860  145.8000 C   0  0  1  0  0  3  0  0  0  0  0  0
  187.0030  177.4750  143.7950 C   0  0  0  0  0  0  0  0  0  0  0  0
  185.2560  177.8700  142.1370 N   0  0  0  0  0  0  0  0  0  0  0  0
  185.9860  177.7080  140.9060 C   0  0  0  0  0  3  0  0  0  0  0  0
  185.6350  177.7700  143.3750 C   0  0  0  0  0  0  0  0  0  0  0  0
  188.7090  177.1960  145.2110 O   0  0  0  0  0  0  0  0  0  0  0  0
  184.6740  177.9790  144.4180 N   0  0  0  0  0  2  0  0  0  0  0  0
  189.2440  176.9410  143.9710 N   0  0  0  0  0  0  0  0  0  0  0  0
  187.3590  177.4960  145.0720 C   0  0  0  0  0  0  0  0  0  0  0  0
  188.3260  177.1180  141.7150 C   0  0  0  0  0  3  0  0  0  0  0  0
  187.2720  177.3890  140.7290 C   0  0  0  0  0  3  0  0  0  0  0  0
  186.4250  177.8850  146.1840 C   0  0  0  0  0  2  0  0  0  0  0  0
  184.0250  178.3000  146.7450 C   0  0  0  0  0  1  0  0  0  0  0  0
  194.2080  171.9990  143.6730 C   0  0  1  0  0  3  0  0  0  0  0  0
  194.9820  170.1030  145.1260 N   0  0  0  0  0  0  0  0  0  0  0  0
  193.8770  169.5530  144.3070 C   0  0  0  0  0  0  0  0  0  0  0  0
  193.8230  170.9500  144.7460 C   0  0  2  0  0  3  0  0  0  0  0  0
  194.2730  169.2430  143.0030 O   0  0  0  0  0  1  0  0  0  0  0  0
  193.0460  168.6330  144.9550 O   0  0  0  0  0  1  0  0  0  0  0  0
  194.8120  169.8000  146.5410 C   0  0  0  0  0  2  0  0  0  0  0  0
  197.0080  168.6250  147.4990 C   0  0  0  0  0  3  0  0  0  0  0  0
  196.0200  169.1600  147.0580 C   0  0  0  0  0  0  0  0  0  0  0  0
  193.3240  172.0100  142.5840 O   0  0  0  0  0  0  0  0  0  0  0  0
  194.1090  172.3690  141.4860 C   0  0  0  0  0  2  0  0  0  0  0  0
  193.3860  173.4140  140.6640 C   0  0  0  0  0  2  0  0  0  0  0  0
  192.6830  172.7330  139.5100 C   0  0  0  0  0  2  0  0  0  0  0  0
  192.0710  173.7300  138.6550 N   0  0  0  0  0  2  0  0  0  0  0  0
  190.7410  173.2440  138.3410 C   0  0  0  0  0  2  0  0  0  0  0  0
  190.3600  172.1230  139.2860 C   0  0  0  0  0  2  0  0  0  0  0  0
  189.0090  172.3380  139.7730 N   0  0  0  0  0  2  0  0  0  0  0  0
  189.9870  171.3670  142.2920 C   0  0  0  0  0  1  0  0  0  0  0  0
  189.1020  172.6720  141.4690 S   0  0  0  0  0  0  0  0  0  0  0  0
  189.8360  173.9650  141.6720 O   0  0  0  0  0  0  0  0  0  0  0  0
  187.7200  172.7900  142.0500 O   0  0  0  0  0  0  0  0  0  0  0  0
  195.4930  173.5400  145.2970 C   0  0  0  0  0  2  0  0  0  0  0  0
  196.3570  174.7710  145.0570 C   0  0  0  0  0  2  0  0  0  0  0  0
  195.9050  176.5140  141.7220 C   0  0  0  0  0  3  0  0  0  0  0  0
  196.4230  175.0720  143.6020 C   0  0  0  0  0  0  0  0  0  0  0  0
  197.2170  174.5070  141.3830 C   0  0  0  0  0  3  0  0  0  0  0  0
  195.8130  176.2230  143.0870 C   0  0  0  0  0  3  0  0  0  0  0  0
  197.1280  174.2180  142.7480 C   0  0  0  0  0  3  0  0  0  0  0  0
  196.6050  175.6550  140.8700 C   0  0  0  0  0  3  0  0  0  0  0  0
  1 45  1  1  0  0  0
  3  2  1  0  0  0  0
  4  1  1  6  0  0  0
  4  5  1  0  0  0  0
  5  2  1  0  0  0  0
  6  8  1  6  0  0  0
  6  3  1  0  0  0  0
  7  6  1  0  0  0  0
  7  4  1  0  0  0  0
  8  9  1  1  0  0  0
  8 18  1  0  0  0  0
 10 12  1  0  0  0  0
 10 18  1  0  0  0  0
 11 22  1  0  0  0  0
 11 23  1  1  0  0  0
 12 19  2  0  0  0  0
 13 15  2  0  0  0  0
 14 13  1  0  0  0  0
 15 12  1  0  0  0  0
 15 17  1  0  0  0  0
 17 11  1  0  0  0  0
 18 16  1  0  0  0  0
 19 16  1  0  0  0  0
 19 22  1  0  0  0  0
 20 10  2  0  0  0  0
 21 14  2  0  0  0  0
 21 20  1  0  0  0  0
 24 33  1  6  0  0  0
 24  1  1  0  0  0  0
 25 30  1  0  0  0  0
 26 27  1  0  0  0  0
 26 29  1  0  0  0  0
 26 25  1  0  0  0  0
 27 24  1  6  0  0  0
 27 25  1  0  0  0  0
 28 26  1  0  0  0  0
 30 32  1  0  0  0  0
 32 31  3  0  0  0  0
 34 33  1  0  0  0  0
 35 34  1  0  0  0  0
 36 35  1  0  0  0  0
 37 36  1  0  0  0  0
 38 37  1  0  0  0  0
 38 39  1  0  0  0  0
 39 40  1  0  0  0  0
 40 42  1  0  0  0  0
 42 43  2  0  0  0  0
 42 44  2  0  0  0  0
 42 41  1  0  0  0  0
 46 45  1  0  0  0  0
 47 50  1  0  0  0  0
 48 46  1  0  0  0  0
 49 51  2  0  0  0  0
 50 48  2  0  0  0  0
 51 48  1  0  0  0  0
 52 49  1  0  0  0  0
 52 47  2  0  0  0  0
M  END
>  <MODEL>
1

>  <REMARK>
 VINA RESULT:      -6.6      0.000      0.000
  Name = 
  19 active torsions:
  status: ('A' for Active; 'I' for Inactive)
    1  A    between atoms: C_2  and  N_14
    2  A    between atoms: C_2  and  C_25
    3  A    between atoms: C_3  and  C_15
    4  A    between atoms: C_3  and  C_35
    5  A    between atoms: C_5  and  N_23
    6  A    between atoms: C_5  and  C_32
    7  A    between atoms: C_15  and  C_28
    8  A    between atoms: C_15  and  C_30
    9  A    between atoms: S_16  and  N_49
   10  A    between atoms: N_20  and  C_24
   11  A    between atoms: N_20  and  C_48
   12  A    between atoms: C_21  and  C_33
   13  A    between atoms: C_21  and  O_42
   14  A    between atoms: C_22  and  C_30
   15  A    between atoms: C_24  and  C_41
   16  A    between atoms: C_26  and  C_35
   17  A    between atoms: C_30  and  O_42
   18  A    between atoms: C_33  and  C_48
   19  A    between atoms: C_41  and  N_49
                            x       y       z     vdW  Elec       q    Type
                         _______ _______ _______ _____ _____    ______ ____

>  <TORSDO>
F 19

$$$$
=
 OpenBabel11042415573D

 52 57  0  0  1  0  0  0  0  0999 V2000
  190.1190  175.2570  143.4240 C   0  0  2  0  0  3  0  0  0  0  0  0
  188.9290  173.1800  141.1810 C   0  0  0  0  0  2  0  0  0  0  0  0
  189.5750  171.7950  141.1280 C   0  0  0  0  0  2  0  0  0  0  0  0
  189.7840  173.7690  143.2610 C   0  0  1  0  0  3  0  0  0  0  0  0
  188.6010  173.5280  142.5070 O   0  0  0  0  0  0  0  0  0  0  0  0
  190.5570  171.5920  142.2890 C   0  0  2  0  0  3  0  0  0  0  0  0
  191.0140  172.9220  142.8820 C   0  0  0  0  0  2  0  0  0  0  0  0
  191.7490  170.7100  141.9060 C   0  0  2  0  0  3  0  0  0  0  0  0
  191.3080  169.3290  141.4290 C   0  0  0  0  0  1  0  0  0  0  0  0
  194.0110  171.1530  143.0810 C   0  0  0  0  0  0  0  0  0  0  0  0
  195.2280  169.4300  146.7930 C   0  0  1  0  0  3  0  0  0  0  0  0
  194.6640  170.5520  144.2240 C   0  0  0  0  0  0  0  0  0  0  0  0
  196.9180  171.4870  144.2440 N   0  0  0  0  0  0  0  0  0  0  0  0
  196.9010  172.3060  143.0600 C   0  0  0  0  0  3  0  0  0  0  0  0
  196.0000  170.7410  144.7820 C   0  0  0  0  0  0  0  0  0  0  0  0
  192.6120  169.6860  144.0350 O   0  0  0  0  0  0  0  0  0  0  0  0
  196.2980  170.0300  145.9900 N   0  0  0  0  0  2  0  0  0  0  0  0
  192.6950  170.6040  143.0160 N   0  0  0  0  0  0  0  0  0  0  0  0
  193.8040  169.6920  144.7510 C   0  0  0  0  0  0  0  0  0  0  0  0
  194.5290  171.9910  142.1940 C   0  0  0  0  0  3  0  0  0  0  0  0
  195.8990  172.5200  142.2020 C   0  0  0  0  0  3  0  0  0  0  0  0
  194.1390  168.7960  145.9110 C   0  0  0  0  0  2  0  0  0  0  0  0
  195.8090  168.3900  147.7250 C   0  0  0  0  0  1  0  0  0  0  0  0
  188.8910  176.1620  143.2260 C   0  0  1  0  0  3  0  0  0  0  0  0
  188.3920  176.3040  145.6830 N   0  0  0  0  0  0  0  0  0  0  0  0
  187.3150  177.0680  145.0120 C   0  0  0  0  0  0  0  0  0  0  0  0
  188.6690  177.0840  144.4500 C   0  0  2  0  0  3  0  0  0  0  0  0
  186.3350  176.2440  144.4520 O   0  0  0  0  0  1  0  0  0  0  0  0
  186.8750  178.2120  145.6870 O   0  0  0  0  0  1  0  0  0  0  0  0
  188.9900  177.0560  146.7780 C   0  0  0  0  0  2  0  0  0  0  0  0
  191.1290  175.7660  147.7160 C   0  0  0  0  0  3  0  0  0  0  0  0
  190.1630  176.3450  147.2830 C   0  0  0  0  0  0  0  0  0  0  0  0
  188.9790  176.8730  142.0200 O   0  0  0  0  0  0  0  0  0  0  0  0
  187.7930  176.5810  141.3430 C   0  0  0  0  0  2  0  0  0  0  0  0
  187.1890  177.8580  140.8020 C   0  0  0  0  0  2  0  0  0  0  0  0
  185.9770  178.2200  141.6340 C   0  0  0  0  0  2  0  0  0  0  0  0
  184.7730  178.0250  140.8530 N   0  0  0  0  0  2  0  0  0  0  0  0
  183.6570  178.1790  141.7680 C   0  0  0  0  0  2  0  0  0  0  0  0
  182.3690  178.3590  140.9920 C   0  0  0  0  0  2  0  0  0  0  0  0
  181.3150  178.7870  141.8950 N   0  0  0  0  0  2  0  0  0  0  0  0
  178.4700  179.1650  141.9880 C   0  0  0  0  0  1  0  0  0  0  0  0
  179.9120  179.1380  140.9450 S   0  0  0  0  0  0  0  0  0  0  0  0
  180.0790  180.4850  140.3060 O   0  0  0  0  0  0  0  0  0  0  0  0
  179.7390  178.0980  139.8730 O   0  0  0  0  0  0  0  0  0  0  0  0
  191.3590  175.6920  142.6330 C   0  0  0  0  0  2  0  0  0  0  0  0
  192.1250  176.8300  143.2940 C   0  0  0  0  0  2  0  0  0  0  0  0
  194.4670  176.5520  146.2620 C   0  0  0  0  0  3  0  0  0  0  0  0
  193.1000  176.2850  144.2760 C   0  0  0  0  0  0  0  0  0  0  0  0
  194.4160  174.4250  145.1050 C   0  0  0  0  0  3  0  0  0  0  0  0
  193.5730  177.0830  145.3250 C   0  0  0  0  0  3  0  0  0  0  0  0
  193.5200  174.9540  144.1710 C   0  0  0  0  0  3  0  0  0  0  0  0
  194.8900  175.2240  146.1500 C   0  0  0  0  0  3  0  0  0  0  0  0
  1 45  1  6  0  0  0
  2  5  1  0  0  0  0
  3  2  1  0  0  0  0
  3  6  1  0  0  0  0
  4  1  1  6  0  0  0
  5  4  1  0  0  0  0
  6  8  1  6  0  0  0
  6  7  1  0  0  0  0
  7  4  1  0  0  0  0
  8  9  1  1  0  0  0
  8 18  1  0  0  0  0
 10 12  1  0  0  0  0
 11 23  1  1  0  0  0
 12 19  2  0  0  0  0
 12 15  1  0  0  0  0
 13 15  2  0  0  0  0
 14 13  1  0  0  0  0
 15 17  1  0  0  0  0
 16 19  1  0  0  0  0
 17 11  1  0  0  0  0
 18 10  1  0  0  0  0
 18 16  1  0  0  0  0
 19 22  1  0  0  0  0
 20 21  1  0  0  0  0
 20 10  2  0  0  0  0
 21 14  2  0  0  0  0
 22 11  1  0  0  0  0
 24 33  1  6  0  0  0
 24  1  1  0  0  0  0
 25 30  1  0  0  0  0
 26 25  1  0  0  0  0
 26 29  1  0  0  0  0
 27 24  1  6  0  0  0
 27 26  1  0  0  0  0
 27 25  1  0  0  0  0
 28 26  1  0  0  0  0
 30 32  1  0  0  0  0
 32 31  3  0  0  0  0
 34 33  1  0  0  0  0
 35 34  1  0  0  0  0
 35 36  1  0  0  0  0
 37 36  1  0  0  0  0
 37 38  1  0  0  0  0
 39 38  1  0  0  0  0
 39 40  1  0  0  0  0
 42 40  1  0  0  0  0
 42 41  1  0  0  0  0
 43 42  2  0  0  0  0
 44 42  2  0  0  0  0
 45 46  1  0  0  0  0
 46 48  1  0  0  0  0
 48 50  1  0  0  0  0
 49 52  2  0  0  0  0
 50 47  2  0  0  0  0
 51 48  2  0  0  0  0
 51 49  1  0  0  0  0
 52 47  1  0  0  0  0
M  END
>  <MODEL>
2

>  <REMARK>
 VINA RESULT:      -6.6      3.291      9.067
  Name = 
  19 active torsions:
  status: ('A' for Active; 'I' for Inactive)
    1  A    between atoms: C_2  and  N_14
    2  A    between atoms: C_2  and  C_25
    3  A    between atoms: C_3  and  C_15
    4  A    between atoms: C_3  and  C_35
    5  A    between atoms: C_5  and  N_23
    6  A    between atoms: C_5  and  C_32
    7  A    between atoms: C_15  and  C_28
    8  A    between atoms: C_15  and  C_30
    9  A    between atoms: S_16  and  N_49
   10  A    between atoms: N_20  and  C_24
   11  A    between atoms: N_20  and  C_48
   12  A    between atoms: C_21  and  C_33
   13  A    between atoms: C_21  and  O_42
   14  A    between atoms: C_22  and  C_30
   15  A    between atoms: C_24  and  C_41
   16  A    between atoms: C_26  and  C_35
   17  A    between atoms: C_30  and  O_42
   18  A    between atoms: C_33  and  C_48
   19  A    between atoms: C_41  and  N_49
                            x       y       z     vdW  Elec       q    Type
                         _______ _______ _______ _____ _____    ______ ____

>  <TORSDO>
F 19

$$$$
=
 OpenBabel11042415573D

 52 57  0  0  1  0  0  0  0  0999 V2000
  190.0100  175.3380  145.2510 C   0  0  2  0  0  3  0  0  0  0  0  0
  192.6550  176.5690  146.7510 C   0  0  0  0  0  2  0  0  0  0  0  0
  194.0030  175.9600  146.3600 C   0  0  0  0  0  2  0  0  0  0  0  0
  191.4670  175.7110  144.9470 C   0  0  1  0  0  3  0  0  0  0  0  0
  191.9030  176.8950  145.6040 O   0  0  0  0  0  0  0  0  0  0  0  0
  193.8560  174.9910  145.1810 C   0  0  2  0  0  3  0  0  0  0  0  0
  192.4190  174.5020  145.0260 C   0  0  0  0  0  2  0  0  0  0  0  0
  194.8410  173.8210  145.2530 C   0  0  2  0  0  3  0  0  0  0  0  0
  196.0800  174.1670  146.0740 C   0  0  0  0  0  1  0  0  0  0  0  0
  195.6860  174.1720  142.8320 C   0  0  0  0  0  0  0  0  0  0  0  0
  195.7590  171.1700  139.7970 C   0  0  1  0  0  3  0  0  0  0  0  0
  195.6360  173.3530  141.6410 C   0  0  0  0  0  0  0  0  0  0  0  0
  196.4080  174.7980  139.8310 N   0  0  0  0  0  0  0  0  0  0  0  0
  196.6130  176.0420  140.5240 C   0  0  0  0  0  3  0  0  0  0  0  0
  196.0100  173.6370  140.2580 C   0  0  0  0  0  0  0  0  0  0  0  0
  194.8450  172.1640  143.3600 O   0  0  0  0  0  0  0  0  0  0  0  0
  195.9030  172.5510  139.3280 N   0  0  0  0  0  2  0  0  0  0  0  0
  195.2100  173.3690  143.9120 N   0  0  0  0  0  0  0  0  0  0  0  0
  195.1310  172.1810  141.9990 C   0  0  0  0  0  0  0  0  0  0  0  0
  196.0230  175.4500  142.9290 C   0  0  0  0  0  3  0  0  0  0  0  0
  196.4550  176.3160  141.8240 C   0  0  0  0  0  3  0  0  0  0  0  0
  194.8350  171.0760  141.0240 C   0  0  0  0  0  2  0  0  0  0  0  0
  195.2240  170.3020  138.6800 C   0  0  0  0  0  1  0  0  0  0  0  0
  189.2450  174.8800  143.9990 C   0  0  1  0  0  3  0  0  0  0  0  0
  187.5480  176.6110  143.3460 N   0  0  0  0  0  0  0  0  0  0  0  0
  187.8300  175.8430  142.1110 C   0  0  0  0  0  0  0  0  0  0  0  0
  188.9070  176.0770  143.0760 C   0  0  2  0  0  3  0  0  0  0  0  0
  187.1730  174.6090  142.0810 O   0  0  0  0  0  1  0  0  0  0  0  0
  187.8410  176.5860  140.9260 O   0  0  0  0  0  1  0  0  0  0  0  0
  187.6290  178.0480  143.1210 C   0  0  0  0  0  2  0  0  0  0  0  0
  185.2300  179.1550  143.4990 C   0  0  0  0  0  3  0  0  0  0  0  0
  186.3180  178.6570  143.3380 C   0  0  0  0  0  0  0  0  0  0  0  0
  189.9380  173.8590  143.3310 O   0  0  0  0  0  0  0  0  0  0  0  0
  189.3910  172.6710  143.8210 C   0  0  0  0  0  2  0  0  0  0  0  0
  189.6900  171.5400  142.8620 C   0  0  0  0  0  2  0  0  0  0  0  0
  191.1570  171.5850  142.4910 C   0  0  0  0  0  2  0  0  0  0  0  0
  191.6000  170.2650  142.0910 N   0  0  0  0  0  2  0  0  0  0  0  0
  190.8220  169.9040  140.9210 C   0  0  0  0  0  2  0  0  0  0  0  0
  191.3170  170.6690  139.7110 C   0  0  0  0  0  2  0  0  0  0  0  0
  190.2010  171.3480  139.0770 N   0  0  0  0  0  2  0  0  0  0  0  0
  192.2950  173.2870  139.3930 C   0  0  0  0  0  1  0  0  0  0  0  0
  190.5770  173.0360  139.0050 S   0  0  0  0  0  0  0  0  0  0  0  0
  190.3100  173.5370  137.6160 O   0  0  0  0  0  0  0  0  0  0  0  0
  189.7230  173.7990  139.9790 O   0  0  0  0  0  0  0  0  0  0  0  0
  189.2760  176.3920  146.0900 C   0  0  0  0  0  2  0  0  0  0  0  0
  188.1040  175.8220  146.8790 C   0  0  0  0  0  2  0  0  0  0  0  0
  184.6800  177.4070  146.5100 C   0  0  0  0  0  3  0  0  0  0  0  0
  186.9940  176.8110  146.9280 C   0  0  0  0  0  0  0  0  0  0  0  0
  186.1640  178.9930  147.5810 C   0  0  0  0  0  3  0  0  0  0  0  0
  185.7260  176.4810  146.4330 C   0  0  0  0  0  3  0  0  0  0  0  0
  187.2090  178.0660  147.5070 C   0  0  0  0  0  3  0  0  0  0  0  0
  184.9000  178.6630  147.0830 C   0  0  0  0  0  3  0  0  0  0  0  0
  1 45  1  6  0  0  0
  3  2  1  0  0  0  0
  4  7  1  0  0  0  0
  4  1  1  1  0  0  0
  4  5  1  0  0  0  0
  5  2  1  0  0  0  0
  6  8  1  1  0  0  0
  6  3  1  0  0  0  0
  7  6  1  0  0  0  0
  8  9  1  6  0  0  0
 10 20  2  0  0  0  0
 10 18  1  0  0  0  0
 11 23  1  6  0  0  0
 11 22  1  0  0  0  0
 12 19  2  0  0  0  0
 12 10  1  0  0  0  0
 13 15  2  0  0  0  0
 13 14  1  0  0  0  0
 14 21  2  0  0  0  0
 15 12  1  0  0  0  0
 16 18  1  0  0  0  0
 17 11  1  0  0  0  0
 17 15  1  0  0  0  0
 18  8  1  0  0  0  0
 19 16  1  0  0  0  0
 21 20  1  0  0  0  0
 22 19  1  0  0  0  0
 24 33  1  6  0  0  0
 24  1  1  0  0  0  0
 26 27  1  0  0  0  0
 26 25  1  0  0  0  0
 27 25  1  0  0  0  0
 27 24  1  1  0  0  0
 28 26  1  0  0  0  0
 29 26  1  0  0  0  0
 30 32  1  0  0  0  0
 30 25  1  0  0  0  0
 32 31  3  0  0  0  0
 33 34  1  0  0  0  0
 35 34  1  0  0  0  0
 36 35  1  0  0  0  0
 37 36  1  0  0  0  0
 38 37  1  0  0  0  0
 39 38  1  0  0  0  0
 40 39  1  0  0  0  0
 42 40  1  0  0  0  0
 42 41  1  0  0  0  0
 42 44  2  0  0  0  0
 43 42  2  0  0  0  0
 45 46  1  0  0  0  0
 46 48  1  0  0  0  0
 47 52  1  0  0  0  0
 48 51  2  0  0  0  0
 50 47  2  0  0  0  0
 50 48  1  0  0  0  0
 51 49  1  0  0  0  0
 52 49  2  0  0  0  0
M  END
>  <MODEL>
3

>  <REMARK>
 VINA RESULT:      -6.5      2.315      8.800
  Name = 
  19 active torsions:
  status: ('A' for Active; 'I' for Inactive)
    1  A    between atoms: C_2  and  N_14
    2  A    between atoms: C_2  and  C_25
    3  A    between atoms: C_3  and  C_15
    4  A    between atoms: C_3  and  C_35
    5  A    between atoms: C_5  and  N_23
    6  A    between atoms: C_5  and  C_32
    7  A    between atoms: C_15  and  C_28
    8  A    between atoms: C_15  and  C_30
    9  A    between atoms: S_16  and  N_49
   10  A    between atoms: N_20  and  C_24
   11  A    between atoms: N_20  and  C_48
   12  A    between atoms: C_21  and  C_33
   13  A    between atoms: C_21  and  O_42
   14  A    between atoms: C_22  and  C_30
   15  A    between atoms: C_24  and  C_41
   16  A    between atoms: C_26  and  C_35
   17  A    between atoms: C_30  and  O_42
   18  A    between atoms: C_33  and  C_48
   19  A    between atoms: C_41  and  N_49
                            x       y       z     vdW  Elec       q    Type
                         _______ _______ _______ _____ _____    ______ ____

>  <TORSDO>
F 19

$$$$
=
 OpenBabel11042415573D

 52 57  0  0  1  0  0  0  0  0999 V2000
  192.7730  174.5460  142.9990 C   0  0  2  0  0  3  0  0  0  0  0  0
  191.6170  177.5930  143.3690 C   0  0  0  0  0  2  0  0  0  0  0  0
  190.7120  177.8350  144.5780 C   0  0  0  0  0  2  0  0  0  0  0  0
  192.4770  175.5650  144.1070 C   0  0  1  0  0  3  0  0  0  0  0  0
  192.7870  176.9060  143.7480 O   0  0  0  0  0  0  0  0  0  0  0  0
  190.6730  176.6090  145.4990 C   0  0  2  0  0  3  0  0  0  0  0  0
  191.1040  175.3400  144.7690 C   0  0  0  0  0  2  0  0  0  0  0  0
  189.3150  176.4290  146.1830 C   0  0  2  0  0  3  0  0  0  0  0  0
  189.0230  174.9650  146.4970 C   0  0  0  0  0  1  0  0  0  0  0  0
  187.0190  177.5740  145.8490 C   0  0  0  0  0  0  0  0  0  0  0  0
  185.1680  178.3090  142.0730 C   0  0  1  0  0  3  0  0  0  0  0  0
  186.1660  177.7570  144.6960 C   0  0  0  0  0  0  0  0  0  0  0  0
  184.0740  178.6560  145.5750 N   0  0  0  0  0  0  0  0  0  0  0  0
  184.3370  178.6630  146.9910 C   0  0  0  0  0  3  0  0  0  0  0  0
  184.8140  178.2970  144.5700 C   0  0  0  0  0  0  0  0  0  0  0  0
  188.0860  176.8300  144.0250 O   0  0  0  0  0  0  0  0  0  0  0  0
  184.2880  178.4070  143.2410 N   0  0  0  0  0  2  0  0  0  0  0  0
  188.2460  177.0170  145.3780 N   0  0  0  0  0  0  0  0  0  0  0  0
  186.8340  177.3010  143.6460 C   0  0  0  0  0  0  0  0  0  0  0  0
  186.7240  177.7920  147.1230 C   0  0  0  0  0  3  0  0  0  0  0  0
  185.4490  178.3040  147.6400 C   0  0  0  0  0  3  0  0  0  0  0  0
  186.2510  177.2330  142.2620 C   0  0  0  0  0  2  0  0  0  0  0  0
  184.3480  178.0070  140.8380 C   0  0  0  0  0  1  0  0  0  0  0  0
  193.4340  173.2660  143.5360 C   0  0  1  0  0  3  0  0  0  0  0  0
  195.9040  173.6030  143.8320 N   0  0  0  0  0  0  0  0  0  0  0  0
  195.5370  172.5080  144.7590 C   0  0  0  0  0  0  0  0  0  0  0  0
  194.5860  173.5970  144.5160 C   0  0  2  0  0  3  0  0  0  0  0  0
  195.3770  171.2810  144.1100 O   0  0  0  0  0  1  0  0  0  0  0  0
  196.2190  172.4970  145.9800 O   0  0  0  0  0  1  0  0  0  0  0  0
  196.6960  174.6320  144.4930 C   0  0  0  0  0  2  0  0  0  0  0  0
  196.9900  176.7180  142.8550 C   0  0  0  0  0  3  0  0  0  0  0  0
  196.8550  175.7810  143.6040 C   0  0  0  0  0  0  0  0  0  0  0  0
  192.4790  172.4020  144.0930 O   0  0  0  0  0  0  0  0  0  0  0  0
  191.7770  171.8870  143.0010 C   0  0  0  0  0  2  0  0  0  0  0  0
  190.2910  171.9400  143.2810 C   0  0  0  0  0  2  0  0  0  0  0  0
  189.5390  171.6970  141.9890 C   0  0  0  0  0  2  0  0  0  0  0  0
  189.6380  172.8670  141.1400 N   0  0  0  0  0  2  0  0  0  0  0  0
  188.5010  172.8210  140.2400 C   0  0  0  0  0  2  0  0  0  0  0  0
  188.6650  173.8520  139.1420 C   0  0  0  0  0  2  0  0  0  0  0  0
  189.9640  173.6870  138.5140 N   0  0  0  0  0  2  0  0  0  0  0  0
  189.5850  172.4470  135.9510 C   0  0  0  0  0  1  0  0  0  0  0  0
  189.7770  173.9880  136.8190 S   0  0  0  0  0  0  0  0  0  0  0  0
  188.5520  174.8270  136.6050 O   0  0  0  0  0  0  0  0  0  0  0  0
  190.9780  174.7200  136.2880 O   0  0  0  0  0  0  0  0  0  0  0  0
  193.4790  175.1600  141.7830 C   0  0  0  0  0  2  0  0  0  0  0  0
  193.7680  174.1470  140.6820 C   0  0  0  0  0  2  0  0  0  0  0  0
  197.0960  175.3880  139.3580 C   0  0  0  0  0  3  0  0  0  0  0  0
  195.2070  174.2000  140.3070 C   0  0  0  0  0  0  0  0  0  0  0  0
  197.4020  173.1730  140.2890 C   0  0  0  0  0  3  0  0  0  0  0  0
  195.7360  175.3350  139.6810 C   0  0  0  0  0  3  0  0  0  0  0  0
  196.0430  173.1220  140.6140 C   0  0  0  0  0  3  0  0  0  0  0  0
  197.9290  174.3060  139.6600 C   0  0  0  0  0  3  0  0  0  0  0  0
  1 45  1  6  0  0  0
  1 24  1  0  0  0  0
  2  5  1  0  0  0  0
  2  3  1  0  0  0  0
  3  6  1  0  0  0  0
  4  1  1  6  0  0  0
  4  7  1  0  0  0  0
  5  4  1  0  0  0  0
  6  8  1  6  0  0  0
  7  6  1  0  0  0  0
  8  9  1  6  0  0  0
 10 20  2  0  0  0  0
 11 23  1  6  0  0  0
 11 22  1  0  0  0  0
 11 17  1  0  0  0  0
 12 10  1  0  0  0  0
 13 14  1  0  0  0  0
 14 21  2  0  0  0  0
 15 12  1  0  0  0  0
 15 13  2  0  0  0  0
 16 18  1  0  0  0  0
 17 15  1  0  0  0  0
 18 10  1  0  0  0  0
 18  8  1  0  0  0  0
 19 16  1  0  0  0  0
 19 12  2  0  0  0  0
 20 21  1  0  0  0  0
 22 19  1  0  0  0  0
 24 33  1  1  0  0  0
 25 30  1  0  0  0  0
 25 27  1  0  0  0  0
 25 26  1  0  0  0  0
 26 29  1  0  0  0  0
 27 24  1  6  0  0  0
 27 26  1  0  0  0  0
 28 26  1  0  0  0  0
 31 32  3  0  0  0  0
 32 30  1  0  0  0  0
 34 35  1  0  0  0  0
 34 33  1  0  0  0  0
 36 35  1  0  0  0  0
 37 36  1  0  0  0  0
 38 37  1  0  0  0  0
 39 38  1  0  0  0  0
 40 39  1  0  0  0  0
 41 42  1  0  0  0  0
 42 40  1  0  0  0  0
 43 42  2  0  0  0  0
 44 42  2  0  0  0  0
 46 45  1  0  0  0  0
 47 52  2  0  0  0  0
 47 50  1  0  0  0  0
 48 51  1  0  0  0  0
 48 46  1  0  0  0  0
 49 51  2  0  0  0  0
 50 48  2  0  0  0  0
 52 49  1  0  0  0  0
M  END
>  <MODEL>
4

>  <REMARK>
 VINA RESULT:      -6.4      2.229      4.070
  Name = 
  19 active torsions:
  status: ('A' for Active; 'I' for Inactive)
    1  A    between atoms: C_2  and  N_14
    2  A    between atoms: C_2  and  C_25
    3  A    between atoms: C_3  and  C_15
    4  A    between atoms: C_3  and  C_35
    5  A    between atoms: C_5  and  N_23
    6  A    between atoms: C_5  and  C_32
    7  A    between atoms: C_15  and  C_28
    8  A    between atoms: C_15  and  C_30
    9  A    between atoms: S_16  and  N_49
   10  A    between atoms: N_20  and  C_24
   11  A    between atoms: N_20  and  C_48
   12  A    between atoms: C_21  and  C_33
   13  A    between atoms: C_21  and  O_42
   14  A    between atoms: C_22  and  C_30
   15  A    between atoms: C_24  and  C_41
   16  A    between atoms: C_26  and  C_35
   17  A    between atoms: C_30  and  O_42
   18  A    between atoms: C_33  and  C_48
   19  A    between atoms: C_41  and  N_49
                            x       y       z     vdW  Elec       q    Type
                         _______ _______ _______ _____ _____    ______ ____

>  <TORSDO>
F 19

$$$$
=
 OpenBabel11042415573D

 52 57  0  0  1  0  0  0  0  0999 V2000
  189.1030  176.6700  143.3440 C   0  0  2  0  0  3  0  0  0  0  0  0
  188.1680  174.9640  140.7030 C   0  0  0  0  0  2  0  0  0  0  0  0
  189.0470  173.7730  140.3170 C   0  0  0  0  0  2  0  0  0  0  0  0
  189.0310  175.2200  142.8460 C   0  0  1  0  0  3  0  0  0  0  0  0
  187.8660  174.9370  142.0790 O   0  0  0  0  0  0  0  0  0  0  0  0
  190.1190  173.5030  141.3800 C   0  0  2  0  0  3  0  0  0  0  0  0
  190.3660  174.7270  142.2570 C   0  0  0  0  0  2  0  0  0  0  0  0
  191.4230  172.9700  140.7810 C   0  0  2  0  0  3  0  0  0  0  0  0
  191.3040  171.5080  140.3620 C   0  0  0  0  0  1  0  0  0  0  0  0
  193.7000  173.9640  141.5050 C   0  0  0  0  0  0  0  0  0  0  0  0
  195.8410  172.8810  145.0360 C   0  0  1  0  0  3  0  0  0  0  0  0
  194.6420  173.6170  142.5460 C   0  0  0  0  0  0  0  0  0  0  0  0
  196.6190  174.9790  142.1080 N   0  0  0  0  0  0  0  0  0  0  0  0
  196.2370  175.6610  140.8990 C   0  0  0  0  0  3  0  0  0  0  0  0
  195.9800  174.1210  142.8440 C   0  0  0  0  0  0  0  0  0  0  0  0
  192.8190  172.3470  142.7790 O   0  0  0  0  0  0  0  0  0  0  0  0
  196.6140  173.6020  144.0200 N   0  0  0  0  0  2  0  0  0  0  0  0
  192.5380  173.1610  141.7080 N   0  0  0  0  0  0  0  0  0  0  0  0
  194.0820  172.6580  143.2690 C   0  0  0  0  0  0  0  0  0  0  0  0
  193.8770  174.8000  140.4910 C   0  0  0  0  0  3  0  0  0  0  0  0
  195.0860  175.5890  140.2220 C   0  0  0  0  0  3  0  0  0  0  0  0
  194.7830  171.9620  144.4020 C   0  0  0  0  0  2  0  0  0  0  0  0
  196.7730  172.0710  145.9090 C   0  0  0  0  0  1  0  0  0  0  0  0
  187.7150  177.3180  143.4730 C   0  0  1  0  0  3  0  0  0  0  0  0
  186.8520  176.4500  145.6660 N   0  0  0  0  0  0  0  0  0  0  0  0
  185.9580  177.5730  145.3020 C   0  0  0  0  0  0  0  0  0  0  0  0
  187.3790  177.6400  144.9500 C   0  0  2  0  0  3  0  0  0  0  0  0
  185.0140  177.2200  144.3330 O   0  0  0  0  0  1  0  0  0  0  0  0
  185.5110  178.3600  146.3690 O   0  0  0  0  0  1  0  0  0  0  0  0
  187.3310  176.5610  147.0370 C   0  0  0  0  0  2  0  0  0  0  0  0
  189.0190  174.5670  147.5840 C   0  0  0  0  0  3  0  0  0  0  0  0
  188.2510  175.4630  147.3300 C   0  0  0  0  0  0  0  0  0  0  0  0
  187.6010  178.4370  142.6350 O   0  0  0  0  0  0  0  0  0  0  0  0
  187.0110  177.9530  141.4650 C   0  0  0  0  0  2  0  0  0  0  0  0
  185.5070  177.9300  141.6280 C   0  0  0  0  0  2  0  0  0  0  0  0
  184.8630  178.1900  140.2830 C   0  0  0  0  0  2  0  0  0  0  0  0
  183.5960  178.8670  140.4710 N   0  0  0  0  0  2  0  0  0  0  0  0
  182.7530  177.9630  141.2320 C   0  0  0  0  0  2  0  0  0  0  0  0
  181.4680  178.6610  141.6290 C   0  0  0  0  0  2  0  0  0  0  0  0
  180.6740  178.9250  140.4420 N   0  0  0  0  0  2  0  0  0  0  0  0
  178.3300  177.2670  140.5150 C   0  0  0  0  0  1  0  0  0  0  0  0
  179.0050  178.8680  140.8970 S   0  0  0  0  0  0  0  0  0  0  0  0
  178.8930  179.1070  142.3740 O   0  0  0  0  0  0  0  0  0  0  0  0
  178.2320  179.9290  140.1630 O   0  0  0  0  0  0  0  0  0  0  0  0
  190.1310  177.5220  142.5880 C   0  0  0  0  0  2  0  0  0  0  0  0
  191.0730  178.2850  143.5110 C   0  0  0  0  0  2  0  0  0  0  0  0
  193.5910  175.8500  144.9580 C   0  0  0  0  0  3  0  0  0  0  0  0
  191.7510  177.3420  144.4400 C   0  0  0  0  0  0  0  0  0  0  0  0
  191.8550  176.2460  146.6000 C   0  0  0  0  0  3  0  0  0  0  0  0
  192.9440  176.7120  144.0660 C   0  0  0  0  0  3  0  0  0  0  0  0
  191.2100  177.1110  145.7090 C   0  0  0  0  0  3  0  0  0  0  0  0
  193.0460  175.6160  146.2240 C   0  0  0  0  0  3  0  0  0  0  0  0
  1 45  1  6  0  0  0
  1 24  1  0  0  0  0
  2  5  1  0  0  0  0
  3  2  1  0  0  0  0
  3  6  1  0  0  0  0
  4  1  1  6  0  0  0
  5  4  1  0  0  0  0
  6  8  1  6  0  0  0
  6  7  1  0  0  0  0
  7  4  1  0  0  0  0
  8  9  1  1  0  0  0
  8 18  1  0  0  0  0
 10 18  1  0  0  0  0
 10 12  1  0  0  0  0
 11 23  1  6  0  0  0
 12 15  1  0  0  0  0
 12 19  2  0  0  0  0
 13 15  2  0  0  0  0
 14 13  1  0  0  0  0
 15 17  1  0  0  0  0
 16 19  1  0  0  0  0
 17 11  1  0  0  0  0
 18 16  1  0  0  0  0
 19 22  1  0  0  0  0
 20 10  2  0  0  0  0
 21 20  1  0  0  0  0
 21 14  2  0  0  0  0
 22 11  1  0  0  0  0
 24 33  1  6  0  0  0
 25 30  1  0  0  0  0
 26 25  1  0  0  0  0
 26 29  1  0  0  0  0
 27 24  1  6  0  0  0
 27 26  1  0  0  0  0
 27 25  1  0  0  0  0
 28 26  1  0  0  0  0
 30 32  1  0  0  0  0
 32 31  3  0  0  0  0
 34 35  1  0  0  0  0
 34 33  1  0  0  0  0
 36 37  1  0  0  0  0
 36 35  1  0  0  0  0
 37 38  1  0  0  0  0
 38 39  1  0  0  0  0
 40 42  1  0  0  0  0
 40 39  1  0  0  0  0
 41 42  1  0  0  0  0
 42 43  2  0  0  0  0
 44 42  2  0  0  0  0
 45 46  1  0  0  0  0
 46 48  1  0  0  0  0
 47 52  1  0  0  0  0
 48 51  2  0  0  0  0
 50 48  1  0  0  0  0
 50 47  2  0  0  0  0
 51 49  1  0  0  0  0
 52 49  2  0  0  0  0
M  END
>  <MODEL>
5

>  <REMARK>
 VINA RESULT:      -6.4      3.720      9.126
  Name = 
  19 active torsions:
  status: ('A' for Active; 'I' for Inactive)
    1  A    between atoms: C_2  and  N_14
    2  A    between atoms: C_2  and  C_25
    3  A    between atoms: C_3  and  C_15
    4  A    between atoms: C_3  and  C_35
    5  A    between atoms: C_5  and  N_23
    6  A    between atoms: C_5  and  C_32
    7  A    between atoms: C_15  and  C_28
    8  A    between atoms: C_15  and  C_30
    9  A    between atoms: S_16  and  N_49
   10  A    between atoms: N_20  and  C_24
   11  A    between atoms: N_20  and  C_48
   12  A    between atoms: C_21  and  C_33
   13  A    between atoms: C_21  and  O_42
   14  A    between atoms: C_22  and  C_30
   15  A    between atoms: C_24  and  C_41
   16  A    between atoms: C_26  and  C_35
   17  A    between atoms: C_30  and  O_42
   18  A    between atoms: C_33  and  C_48
   19  A    between atoms: C_41  and  N_49
                            x       y       z     vdW  Elec       q    Type
                         _______ _______ _______ _____ _____    ______ ____

>  <TORSDO>
F 19

$$$$
=
 OpenBabel11042415573D

 52 57  0  0  1  0  0  0  0  0999 V2000
  193.8980  173.7420  142.9340 C   0  0  2  0  0  3  0  0  0  0  0  0
  190.7070  173.5930  143.6800 C   0  0  0  0  0  2  0  0  0  0  0  0
  189.8740  174.8340  143.3550 C   0  0  0  0  0  2  0  0  0  0  0  0
  192.5380  174.1770  142.3730 C   0  0  1  0  0  3  0  0  0  0  0  0
  191.5030  173.2210  142.5780 O   0  0  0  0  0  0  0  0  0  0  0  0
  190.6900  175.8590  142.5580 C   0  0  2  0  0  3  0  0  0  0  0  0
  192.1910  175.6370  142.7200 C   0  0  0  0  0  2  0  0  0  0  0  0
  190.3000  177.3040  142.8840 C   0  0  2  0  0  3  0  0  0  0  0  0
  191.2600  177.9460  143.8810 C   0  0  0  0  0  1  0  0  0  0  0  0
  187.7420  177.5480  142.5790 C   0  0  0  0  0  0  0  0  0  0  0  0
  184.9140  177.9150  145.7570 C   0  0  1  0  0  3  0  0  0  0  0  0
  186.6630  177.8480  143.4950 C   0  0  0  0  0  0  0  0  0  0  0  0
  184.6980  178.1870  142.0880 N   0  0  0  0  0  0  0  0  0  0  0  0
  185.2570  178.0390  140.7700 C   0  0  0  0  0  3  0  0  0  0  0  0
  185.2440  178.1040  143.2640 C   0  0  0  0  0  0  0  0  0  0  0  0
  188.5530  177.6210  144.6660 O   0  0  0  0  0  0  0  0  0  0  0  0
  184.4280  178.2930  144.4270 N   0  0  0  0  0  2  0  0  0  0  0  0
  188.9210  177.3740  143.3650 N   0  0  0  0  0  0  0  0  0  0  0  0
  187.1880  177.8850  144.7110 C   0  0  0  0  0  0  0  0  0  0  0  0
  187.7010  177.5150  141.2540 C   0  0  0  0  0  3  0  0  0  0  0  0
  186.5160  177.7530  140.4200 C   0  0  0  0  0  3  0  0  0  0  0  0
  186.4040  178.2550  145.9390 C   0  0  0  0  0  2  0  0  0  0  0  0
  184.0920  178.6080  146.8200 C   0  0  0  0  0  1  0  0  0  0  0  0
  194.8780  173.3080  141.8320 C   0  0  1  0  0  3  0  0  0  0  0  0
  196.4430  171.4840  142.5630 N   0  0  0  0  0  0  0  0  0  0  0  0
  196.2950  171.3200  141.0980 C   0  0  0  0  0  0  0  0  0  0  0  0
  195.1530  171.7850  141.8900 C   0  0  2  0  0  3  0  0  0  0  0  0
  197.0610  172.2360  140.3710 O   0  0  0  0  0  1  0  0  0  0  0  0
  196.2760  170.0000  140.6370 O   0  0  0  0  0  1  0  0  0  0  0  0
  196.2440  170.2280  143.2720 C   0  0  0  0  0  2  0  0  0  0  0  0
  197.1760  170.4310  145.7650 C   0  0  0  0  0  3  0  0  0  0  0  0
  196.7630  170.3420  144.6340 C   0  0  0  0  0  0  0  0  0  0  0  0
  194.4370  173.7310  140.5690 O   0  0  0  0  0  0  0  0  0  0  0  0
  195.2200  174.8480  140.2690 C   0  0  0  0  0  2  0  0  0  0  0  0
  194.8020  175.4170  138.9310 C   0  0  0  0  0  2  0  0  0  0  0  0
  194.0740  174.3460  138.1470 C   0  0  0  0  0  2  0  0  0  0  0  0
  193.1660  174.9650  137.2030 N   0  0  0  0  0  2  0  0  0  0  0  0
  191.9870  174.1220  137.1500 C   0  0  0  0  0  2  0  0  0  0  0  0
  191.5210  173.7910  138.5530 C   0  0  0  0  0  2  0  0  0  0  0  0
  190.2080  173.1730  138.4940 N   0  0  0  0  0  2  0  0  0  0  0  0
  192.0080  171.2360  139.6160 C   0  0  0  0  0  1  0  0  0  0  0  0
  190.3050  171.6420  139.2970 S   0  0  0  0  0  0  0  0  0  0  0  0
  189.5690  171.7270  140.6010 O   0  0  0  0  0  0  0  0  0  0  0  0
  189.6830  170.5710  138.4450 O   0  0  0  0  0  0  0  0  0  0  0  0
  193.7850  172.7550  144.1040 C   0  0  0  0  0  2  0  0  0  0  0  0
  194.5530  173.2020  145.3420 C   0  0  0  0  0  2  0  0  0  0  0  0
  192.0910  175.6360  146.8850 C   0  0  0  0  0  3  0  0  0  0  0  0
  193.9570  174.4510  145.8880 C   0  0  0  0  0  0  0  0  0  0  0  0
  194.1920  176.7800  146.5140 C   0  0  0  0  0  3  0  0  0  0  0  0
  192.6340  174.4650  146.3450 C   0  0  0  0  0  3  0  0  0  0  0  0
  194.7360  175.6090  145.9770 C   0  0  0  0  0  3  0  0  0  0  0  0
  192.8700  176.7940  146.9670 C   0  0  0  0  0  3  0  0  0  0  0  0
  1 45  1  1  0  0  0
  3  2  1  0  0  0  0
  4  5  1  0  0  0  0
  4  7  1  0  0  0  0
  4  1  1  1  0  0  0
  5  2  1  0  0  0  0
  6  7  1  0  0  0  0
  6  8  1  1  0  0  0
  6  3  1  0  0  0  0
  8 18  1  0  0  0  0
  8  9  1  1  0  0  0
 10 18  1  0  0  0  0
 10 12  1  0  0  0  0
 11 22  1  0  0  0  0
 11 23  1  1  0  0  0
 12 19  2  0  0  0  0
 13 15  2  0  0  0  0
 14 13  1  0  0  0  0
 15 12  1  0  0  0  0
 15 17  1  0  0  0  0
 16 19  1  0  0  0  0
 17 11  1  0  0  0  0
 18 16  1  0  0  0  0
 19 22  1  0  0  0  0
 20 10  2  0  0  0  0
 21 14  2  0  0  0  0
 21 20  1  0  0  0  0
 24 33  1  6  0  0  0
 24  1  1  0  0  0  0
 25 30  1  0  0  0  0
 26 27  1  0  0  0  0
 26 25  1  0  0  0  0
 27 24  1  6  0  0  0
 27 25  1  0  0  0  0
 28 26  1  0  0  0  0
 29 26  1  0  0  0  0
 30 32  1  0  0  0  0
 32 31  3  0  0  0  0
 34 33  1  0  0  0  0
 35 34  1  0  0  0  0
 36 35  1  0  0  0  0
 37 36  1  0  0  0  0
 38 37  1  0  0  0  0
 38 39  1  0  0  0  0
 40 39  1  0  0  0  0
 40 42  1  0  0  0  0
 42 41  1  0  0  0  0
 42 43  2  0  0  0  0
 44 42  2  0  0  0  0
 45 46  1  0  0  0  0
 46 48  1  0  0  0  0
 47 52  1  0  0  0  0
 48 51  2  0  0  0  0
 48 50  1  0  0  0  0
 49 52  2  0  0  0  0
 50 47  2  0  0  0  0
 51 49  1  0  0  0  0
M  END
>  <MODEL>
6

>  <REMARK>
 VINA RESULT:      -6.3      2.004      3.076
  Name = 
  19 active torsions:
  status: ('A' for Active; 'I' for Inactive)
    1  A    between atoms: C_2  and  N_14
    2  A    between atoms: C_2  and  C_25
    3  A    between atoms: C_3  and  C_15
    4  A    between atoms: C_3  and  C_35
    5  A    between atoms: C_5  and  N_23
    6  A    between atoms: C_5  and  C_32
    7  A    between atoms: C_15  and  C_28
    8  A    between atoms: C_15  and  C_30
    9  A    between atoms: S_16  and  N_49
   10  A    between atoms: N_20  and  C_24
   11  A    between atoms: N_20  and  C_48
   12  A    between atoms: C_21  and  C_33
   13  A    between atoms: C_21  and  O_42
   14  A    between atoms: C_22  and  C_30
   15  A    between atoms: C_24  and  C_41
   16  A    between atoms: C_26  and  C_35
   17  A    between atoms: C_30  and  O_42
   18  A    between atoms: C_33  and  C_48
   19  A    between atoms: C_41  and  N_49
                            x       y       z     vdW  Elec       q    Type
                         _______ _______ _______ _____ _____    ______ ____

>  <TORSDO>
F 19

$$$$
=
 OpenBabel11042415573D

 52 57  0  0  1  0  0  0  0  0999 V2000
  189.6750  175.3660  145.2870 C   0  0  2  0  0  3  0  0  0  0  0  0
  192.1000  176.2060  147.3310 C   0  0  0  0  0  2  0  0  0  0  0  0
  193.4780  176.4160  146.7000 C   0  0  0  0  0  2  0  0  0  0  0  0
  190.9050  176.2810  145.3380 C   0  0  1  0  0  3  0  0  0  0  0  0
  191.1070  176.8960  146.6060 O   0  0  0  0  0  0  0  0  0  0  0  0
  193.4040  176.3640  145.1690 C   0  0  2  0  0  3  0  0  0  0  0  0
  192.1480  175.6440  144.6880 C   0  0  0  0  0  2  0  0  0  0  0  0
  194.6670  175.7700  144.5390 C   0  0  2  0  0  3  0  0  0  0  0  0
  195.7980  176.7910  144.4550 C   0  0  0  0  0  1  0  0  0  0  0  0
  194.2520  173.8210  142.8880 C   0  0  0  0  0  0  0  0  0  0  0  0
  193.8330  174.2310  138.6590 C   0  0  1  0  0  3  0  0  0  0  0  0
  194.2510  173.7330  141.4440 C   0  0  0  0  0  0  0  0  0  0  0  0
  194.0990  171.3500  140.9420 N   0  0  0  0  0  0  0  0  0  0  0  0
  194.1190  170.7750  142.2620 C   0  0  0  0  0  3  0  0  0  0  0  0
  194.1400  172.5860  140.5470 C   0  0  0  0  0  0  0  0  0  0  0  0
  194.4980  175.8750  142.0310 O   0  0  0  0  0  0  0  0  0  0  0  0
  194.0950  172.8720  139.1430 N   0  0  0  0  0  2  0  0  0  0  0  0
  194.3730  175.2030  143.2230 N   0  0  0  0  0  0  0  0  0  0  0  0
  194.4020  174.9660  140.9830 C   0  0  0  0  0  0  0  0  0  0  0  0
  194.2310  172.8260  143.7650 C   0  0  0  0  0  3  0  0  0  0  0  0
  194.1710  171.3940  143.4460 C   0  0  0  0  0  3  0  0  0  0  0  0
  194.5400  175.2910  139.5220 C   0  0  0  0  0  2  0  0  0  0  0  0
  194.2760  174.3570  137.2190 C   0  0  0  0  0  1  0  0  0  0  0  0
  188.9980  175.3660  143.9070 C   0  0  1  0  0  3  0  0  0  0  0  0
  187.3920  177.1890  143.2710 N   0  0  0  0  0  0  0  0  0  0  0  0
  188.1850  176.9110  142.0510 C   0  0  0  0  0  0  0  0  0  0  0  0
  188.8240  176.8060  143.3650 C   0  0  2  0  0  3  0  0  0  0  0  0
  187.7640  175.7580  141.3830 O   0  0  0  0  0  1  0  0  0  0  0  0
  188.4910  178.0260  141.2630 O   0  0  0  0  0  1  0  0  0  0  0  0
  187.3350  178.6130  143.5690 C   0  0  0  0  0  2  0  0  0  0  0  0
  184.7960  179.4150  143.7380 C   0  0  0  0  0  3  0  0  0  0  0  0
  185.9420  179.0430  143.6650 C   0  0  0  0  0  0  0  0  0  0  0  0
  189.6790  174.5280  143.0110 O   0  0  0  0  0  0  0  0  0  0  0  0
  189.5830  173.2510  143.5680 C   0  0  0  0  0  2  0  0  0  0  0  0
  188.9690  172.3020  142.5610 C   0  0  0  0  0  2  0  0  0  0  0  0
  190.0630  171.4400  141.9670 C   0  0  0  0  0  2  0  0  0  0  0  0
  190.6360  172.1030  140.8140 N   0  0  0  0  0  2  0  0  0  0  0  0
  189.5270  172.4560  139.9470 C   0  0  0  0  0  2  0  0  0  0  0  0
  189.8210  173.7580  139.2300 C   0  0  0  0  0  2  0  0  0  0  0  0
  188.7350  174.0630  138.3160 N   0  0  0  0  0  2  0  0  0  0  0  0
  188.4610  175.2440  135.7130 C   0  0  0  0  0  1  0  0  0  0  0  0
  189.3830  174.0960  136.7120 S   0  0  0  0  0  0  0  0  0  0  0  0
  190.8150  174.5400  136.7730 O   0  0  0  0  0  0  0  0  0  0  0  0
  189.3150  172.7250  136.0980 O   0  0  0  0  0  0  0  0  0  0  0  0
  188.7130  175.5740  146.4640 C   0  0  0  0  0  2  0  0  0  0  0  0
  188.5860  177.0330  146.8840 C   0  0  0  0  0  2  0  0  0  0  0  0
  184.8150  176.9300  146.5120 C   0  0  0  0  0  3  0  0  0  0  0  0
  187.1530  177.4300  146.9190 C   0  0  0  0  0  0  0  0  0  0  0  0
  185.4430  179.0390  147.5210 C   0  0  0  0  0  3  0  0  0  0  0  0
  186.1630  176.5590  146.4480 C   0  0  0  0  0  3  0  0  0  0  0  0
  186.7900  178.6690  147.4600 C   0  0  0  0  0  3  0  0  0  0  0  0
  184.4560  178.1700  147.0470 C   0  0  0  0  0  3  0  0  0  0  0  0
  1 45  1  1  0  0  0
  3  2  1  0  0  0  0
  4  1  1  1  0  0  0
  4  5  1  0  0  0  0
  5  2  1  0  0  0  0
  6  8  1  1  0  0  0
  6  3  1  0  0  0  0
  7  6  1  0  0  0  0
  7  4  1  0  0  0  0
  8  9  1  6  0  0  0
 10 18  1  0  0  0  0
 10 20  2  0  0  0  0
 11 23  1  6  0  0  0
 11 17  1  0  0  0  0
 11 22  1  0  0  0  0
 12 10  1  0  0  0  0
 13 14  1  0  0  0  0
 14 21  2  0  0  0  0
 15 13  2  0  0  0  0
 15 12  1  0  0  0  0
 16 18  1  0  0  0  0
 17 15  1  0  0  0  0
 18  8  1  0  0  0  0
 19 12  2  0  0  0  0
 19 16  1  0  0  0  0
 21 20  1  0  0  0  0
 22 19  1  0  0  0  0
 24 33  1  6  0  0  0
 24  1  1  0  0  0  0
 25 27  1  0  0  0  0
 25 30  1  0  0  0  0
 26 25  1  0  0  0  0
 26 27  1  0  0  0  0
 27 24  1  1  0  0  0
 28 26  1  0  0  0  0
 29 26  1  0  0  0  0
 30 32  1  0  0  0  0
 32 31  3  0  0  0  0
 33 34  1  0  0  0  0
 35 34  1  0  0  0  0
 36 35  1  0  0  0  0
 37 36  1  0  0  0  0
 38 37  1  0  0  0  0
 39 38  1  0  0  0  0
 40 39  1  0  0  0  0
 41 42  1  0  0  0  0
 42 43  2  0  0  0  0
 42 40  1  0  0  0  0
 44 42  2  0  0  0  0
 45 46  1  0  0  0  0
 46 48  1  0  0  0  0
 47 52  1  0  0  0  0
 48 51  2  0  0  0  0
 50 47  2  0  0  0  0
 50 48  1  0  0  0  0
 51 49  1  0  0  0  0
 52 49  2  0  0  0  0
M  END
>  <MODEL>
7

>  <REMARK>
 VINA RESULT:      -6.3      2.681      8.643
  Name = 
  19 active torsions:
  status: ('A' for Active; 'I' for Inactive)
    1  A    between atoms: C_2  and  N_14
    2  A    between atoms: C_2  and  C_25
    3  A    between atoms: C_3  and  C_15
    4  A    between atoms: C_3  and  C_35
    5  A    between atoms: C_5  and  N_23
    6  A    between atoms: C_5  and  C_32
    7  A    between atoms: C_15  and  C_28
    8  A    between atoms: C_15  and  C_30
    9  A    between atoms: S_16  and  N_49
   10  A    between atoms: N_20  and  C_24
   11  A    between atoms: N_20  and  C_48
   12  A    between atoms: C_21  and  C_33
   13  A    between atoms: C_21  and  O_42
   14  A    between atoms: C_22  and  C_30
   15  A    between atoms: C_24  and  C_41
   16  A    between atoms: C_26  and  C_35
   17  A    between atoms: C_30  and  O_42
   18  A    between atoms: C_33  and  C_48
   19  A    between atoms: C_41  and  N_49
                            x       y       z     vdW  Elec       q    Type
                         _______ _______ _______ _____ _____    ______ ____

>  <TORSDO>
F 19

$$$$
=
 OpenBabel11042415573D

 52 57  0  0  1  0  0  0  0  0999 V2000
  193.5390  173.2700  142.7970 C   0  0  2  0  0  3  0  0  0  0  0  0
  190.3480  173.3460  143.5540 C   0  0  0  0  0  2  0  0  0  0  0  0
  189.6090  174.6520  143.2560 C   0  0  0  0  0  2  0  0  0  0  0  0
  192.2130  173.8160  142.2500 C   0  0  1  0  0  3  0  0  0  0  0  0
  191.1110  172.9370  142.4420 O   0  0  0  0  0  0  0  0  0  0  0  0
  190.4970  175.6290  142.4750 C   0  0  2  0  0  3  0  0  0  0  0  0
  191.9770  175.2910  142.6260 C   0  0  0  0  0  2  0  0  0  0  0  0
  190.2170  177.0920  142.8280 C   0  0  2  0  0  3  0  0  0  0  0  0
  191.2850  177.6730  143.7510 C   0  0  0  0  0  1  0  0  0  0  0  0
  187.6690  177.5320  142.7220 C   0  0  0  0  0  0  0  0  0  0  0  0
  185.1080  177.9610  146.1110 C   0  0  1  0  0  3  0  0  0  0  0  0
  186.6830  177.8680  143.7250 C   0  0  0  0  0  0  0  0  0  0  0  0
  184.6540  178.4090  142.4810 N   0  0  0  0  0  0  0  0  0  0  0  0
  185.1070  178.2780  141.1210 C   0  0  0  0  0  3  0  0  0  0  0  0
  185.2740  178.2350  143.6090 C   0  0  0  0  0  0  0  0  0  0  0  0
  188.6280  177.4550  144.7450 O   0  0  0  0  0  0  0  0  0  0  0  0
  184.5580  178.4310  144.8360 N   0  0  0  0  0  2  0  0  0  0  0  0
  188.8840  177.2390  143.4120 N   0  0  0  0  0  0  0  0  0  0  0  0
  187.2930  177.8140  144.9000 C   0  0  0  0  0  0  0  0  0  0  0  0
  187.5320  177.5600  141.4040 C   0  0  0  0  0  3  0  0  0  0  0  0
  186.3130  177.9190  140.6680 C   0  0  0  0  0  3  0  0  0  0  0  0
  186.6280  178.1850  146.1960 C   0  0  0  0  0  2  0  0  0  0  0  0
  184.4170  178.6650  147.2570 C   0  0  0  0  0  1  0  0  0  0  0  0
  194.2470  172.3370  141.8020 C   0  0  1  0  0  3  0  0  0  0  0  0
  195.9130  174.1000  141.1520 N   0  0  0  0  0  0  0  0  0  0  0  0
  196.1930  172.9420  140.2710 C   0  0  0  0  0  0  0  0  0  0  0  0
  195.7420  172.7100  141.6460 C   0  0  2  0  0  3  0  0  0  0  0  0
  195.2880  172.8380  139.2110 O   0  0  0  0  0  1  0  0  0  0  0  0
  197.5420  172.7180  139.9800 O   0  0  0  0  0  1  0  0  0  0  0  0
  197.1230  174.6060  141.7840 C   0  0  0  0  0  2  0  0  0  0  0  0
  196.5630  176.7960  143.2030 C   0  0  0  0  0  3  0  0  0  0  0  0
  196.8100  175.8000  142.5670 C   0  0  0  0  0  0  0  0  0  0  0  0
  194.0570  170.9910  142.1500 O   0  0  0  0  0  0  0  0  0  0  0  0
  193.3270  170.4450  141.0930 C   0  0  0  0  0  2  0  0  0  0  0  0
  193.5220  168.9440  141.0620 C   0  0  0  0  0  2  0  0  0  0  0  0
  192.2530  168.2940  140.5540 C   0  0  0  0  0  2  0  0  0  0  0  0
  192.0120  168.6980  139.1840 N   0  0  0  0  0  2  0  0  0  0  0  0
  190.5730  168.8010  139.0310 C   0  0  0  0  0  2  0  0  0  0  0  0
  190.2370  169.6920  137.8530 C   0  0  0  0  0  2  0  0  0  0  0  0
  191.0110  170.9180  137.9380 N   0  0  0  0  0  2  0  0  0  0  0  0
  190.8550  173.7700  137.6400 C   0  0  0  0  0  1  0  0  0  0  0  0
  189.9410  172.2440  137.6340 S   0  0  0  0  0  0  0  0  0  0  0  0
  189.3040  172.0590  136.2880 O   0  0  0  0  0  0  0  0  0  0  0  0
  188.8680  172.2950  138.6870 O   0  0  0  0  0  0  0  0  0  0  0  0
  193.4230  172.7070  144.2200 C   0  0  0  0  0  2  0  0  0  0  0  0
  194.4210  173.3220  145.1920 C   0  0  0  0  0  2  0  0  0  0  0  0
  191.9580  175.6650  146.8690 C   0  0  0  0  0  3  0  0  0  0  0  0
  193.8320  174.5310  145.8300 C   0  0  0  0  0  0  0  0  0  0  0  0
  194.0940  176.7880  146.6730 C   0  0  0  0  0  3  0  0  0  0  0  0
  192.4950  174.5350  146.2430 C   0  0  0  0  0  3  0  0  0  0  0  0
  194.6320  175.6570  146.0500 C   0  0  0  0  0  3  0  0  0  0  0  0
  192.7570  176.7920  147.0820 C   0  0  0  0  0  3  0  0  0  0  0  0
  1 45  1  1  0  0  0
  3  2  1  0  0  0  0
  4  5  1  0  0  0  0
  4  7  1  0  0  0  0
  4  1  1  1  0  0  0
  5  2  1  0  0  0  0
  6  7  1  0  0  0  0
  6  8  1  1  0  0  0
  6  3  1  0  0  0  0
  8 18  1  0  0  0  0
  8  9  1  1  0  0  0
 10 18  1  0  0  0  0
 10 12  1  0  0  0  0
 11 22  1  0  0  0  0
 11 23  1  1  0  0  0
 12 19  2  0  0  0  0
 13 15  2  0  0  0  0
 14 13  1  0  0  0  0
 15 12  1  0  0  0  0
 15 17  1  0  0  0  0
 16 19  1  0  0  0  0
 17 11  1  0  0  0  0
 18 16  1  0  0  0  0
 19 22  1  0  0  0  0
 20 10  2  0  0  0  0
 21 14  2  0  0  0  0
 21 20  1  0  0  0  0
 24 33  1  1  0  0  0
 24  1  1  0  0  0  0
 25 27  1  0  0  0  0
 25 30  1  0  0  0  0
 26 25  1  0  0  0  0
 26 27  1  0  0  0  0
 27 24  1  6  0  0  0
 28 26  1  0  0  0  0
 29 26  1  0  0  0  0
 30 32  1  0  0  0  0
 32 31  3  0  0  0  0
 34 33  1  0  0  0  0
 35 34  1  0  0  0  0
 36 35  1  0  0  0  0
 37 36  1  0  0  0  0
 38 37  1  0  0  0  0
 39 40  1  0  0  0  0
 39 38  1  0  0  0  0
 42 41  1  0  0  0  0
 42 40  1  0  0  0  0
 42 44  2  0  0  0  0
 43 42  2  0  0  0  0
 45 46  1  0  0  0  0
 46 48  1  0  0  0  0
 47 52  1  0  0  0  0
 48 51  2  0  0  0  0
 48 50  1  0  0  0  0
 49 52  2  0  0  0  0
 50 47  2  0  0  0  0
 51 49  1  0  0  0  0
M  END
>  <MODEL>
8

>  <REMARK>
 VINA RESULT:      -6.2      2.270      4.083
  Name = 
  19 active torsions:
  status: ('A' for Active; 'I' for Inactive)
    1  A    between atoms: C_2  and  N_14
    2  A    between atoms: C_2  and  C_25
    3  A    between atoms: C_3  and  C_15
    4  A    between atoms: C_3  and  C_35
    5  A    between atoms: C_5  and  N_23
    6  A    between atoms: C_5  and  C_32
    7  A    between atoms: C_15  and  C_28
    8  A    between atoms: C_15  and  C_30
    9  A    between atoms: S_16  and  N_49
   10  A    between atoms: N_20  and  C_24
   11  A    between atoms: N_20  and  C_48
   12  A    between atoms: C_21  and  C_33
   13  A    between atoms: C_21  and  O_42
   14  A    between atoms: C_22  and  C_30
   15  A    between atoms: C_24  and  C_41
   16  A    between atoms: C_26  and  C_35
   17  A    between atoms: C_30  and  O_42
   18  A    between atoms: C_33  and  C_48
   19  A    between atoms: C_41  and  N_49
                            x       y       z     vdW  Elec       q    Type
                         _______ _______ _______ _____ _____    ______ ____

>  <TORSDO>
F 19

$$$$
=
 OpenBabel11042415573D

 52 57  0  0  1  0  0  0  0  0999 V2000
  188.8960  175.6920  143.4320 C   0  0  2  0  0  3  0  0  0  0  0  0
  191.2450  177.9590  143.7480 C   0  0  0  0  0  2  0  0  0  0  0  0
  192.5370  177.5090  144.4320 C   0  0  0  0  0  2  0  0  0  0  0  0
  190.4220  175.8230  143.3480 C   0  0  1  0  0  3  0  0  0  0  0  0
  190.8590  177.0390  142.7520 O   0  0  0  0  0  0  0  0  0  0  0  0
  192.5380  175.9950  144.6790 C   0  0  2  0  0  3  0  0  0  0  0  0
  191.1270  175.4170  144.6560 C   0  0  0  0  0  2  0  0  0  0  0  0
  193.2830  175.6070  145.9600 C   0  0  2  0  0  3  0  0  0  0  0  0
  194.0840  176.7740  146.5310 C   0  0  0  0  0  1  0  0  0  0  0  0
  195.3190  174.3880  144.9290 C   0  0  0  0  0  0  0  0  0  0  0  0
  196.0640  170.1930  145.1970 C   0  0  1  0  0  3  0  0  0  0  0  0
  195.6550  172.9910  144.7670 C   0  0  0  0  0  0  0  0  0  0  0  0
  197.6390  172.9630  143.3460 N   0  0  0  0  0  0  0  0  0  0  0  0
  197.8120  174.3650  143.0660 C   0  0  0  0  0  3  0  0  0  0  0  0
  196.7560  172.3370  144.0640 C   0  0  0  0  0  0  0  0  0  0  0  0
  193.7780  173.1410  145.9700 O   0  0  0  0  0  0  0  0  0  0  0  0
  196.8310  170.9100  144.1750 N   0  0  0  0  0  2  0  0  0  0  0  0
  194.1400  174.4450  145.7310 N   0  0  0  0  0  0  0  0  0  0  0  0
  194.7170  172.2940  145.3930 C   0  0  0  0  0  0  0  0  0  0  0  0
  195.9180  175.4390  144.3840 C   0  0  0  0  0  3  0  0  0  0  0  0
  197.0930  175.4040  143.5040 C   0  0  0  0  0  3  0  0  0  0  0  0
  194.6590  170.7920  145.3830 C   0  0  0  0  0  2  0  0  0  0  0  0
  195.9580  168.7300  144.8270 C   0  0  0  0  0  1  0  0  0  0  0  0
  188.2510  175.4210  142.0630 C   0  0  1  0  0  3  0  0  0  0  0  0
  189.4320  173.2570  141.5840 N   0  0  0  0  0  0  0  0  0  0  0  0
  188.4960  173.4610  140.4540 C   0  0  0  0  0  0  0  0  0  0  0  0
  188.1110  173.9020  141.7970 C   0  0  2  0  0  3  0  0  0  0  0  0
  188.9680  174.3880  139.5210 O   0  0  0  0  0  1  0  0  0  0  0  0
  187.8960  172.3010  139.9510 O   0  0  0  0  0  1  0  0  0  0  0  0
  189.3220  171.9180  142.1460 C   0  0  0  0  0  2  0  0  0  0  0  0
  191.6790  171.1800  143.1560 C   0  0  0  0  0  3  0  0  0  0  0  0
  190.6120  171.5050  142.6950 C   0  0  0  0  0  0  0  0  0  0  0  0
  187.0350  176.1090  141.9340 O   0  0  0  0  0  0  0  0  0  0  0  0
  187.1470  176.8170  140.7350 C   0  0  0  0  0  2  0  0  0  0  0  0
  186.2850  178.0600  140.7970 C   0  0  0  0  0  2  0  0  0  0  0  0
  185.2680  177.8990  141.9060 C   0  0  0  0  0  2  0  0  0  0  0  0
  183.9310  177.9160  141.3490 N   0  0  0  0  0  2  0  0  0  0  0  0
  183.1060  178.6640  142.2780 C   0  0  0  0  0  2  0  0  0  0  0  0
  181.6400  178.4020  141.9980 C   0  0  0  0  0  2  0  0  0  0  0  0
  181.3300  178.7950  140.6350 N   0  0  0  0  0  2  0  0  0  0  0  0
  178.9040  177.7410  139.5150 C   0  0  0  0  0  1  0  0  0  0  0  0
  179.6180  179.0220  140.5240 S   0  0  0  0  0  0  0  0  0  0  0  0
  179.0250  178.9490  141.9000 O   0  0  0  0  0  0  0  0  0  0  0  0
  179.3120  180.3660  139.9230 O   0  0  0  0  0  0  0  0  0  0  0  0
  188.2330  176.8210  144.2320 C   0  0  0  0  0  2  0  0  0  0  0  0
  187.9590  176.4490  145.6830 C   0  0  0  0  0  2  0  0  0  0  0  0
  184.4820  177.9090  146.0700 C   0  0  0  0  0  3  0  0  0  0  0  0
  186.8080  177.2360  146.2030 C   0  0  0  0  0  0  0  0  0  0  0  0
  185.8770  178.7220  147.8760 C   0  0  0  0  0  3  0  0  0  0  0  0
  185.5670  177.1890  145.5570 C   0  0  0  0  0  3  0  0  0  0  0  0
  186.9600  178.0000  147.3650 C   0  0  0  0  0  3  0  0  0  0  0  0
  184.6380  178.6770  147.2280 C   0  0  0  0  0  3  0  0  0  0  0  0
  1 45  1  6  0  0  0
  2  3  1  0  0  0  0
  3  6  1  0  0  0  0
  4  1  1  1  0  0  0
  4  7  1  0  0  0  0
  5  4  1  0  0  0  0
  5  2  1  0  0  0  0
  6  8  1  1  0  0  0
  7  6  1  0  0  0  0
  8  9  1  6  0  0  0
 10 18  1  0  0  0  0
 11 23  1  6  0  0  0
 11 22  1  0  0  0  0
 12 10  1  0  0  0  0
 12 19  2  0  0  0  0
 13 15  2  0  0  0  0
 14 13  1  0  0  0  0
 14 21  2  0  0  0  0
 15 17  1  0  0  0  0
 15 12  1  0  0  0  0
 17 11  1  0  0  0  0
 18  8  1  0  0  0  0
 18 16  1  0  0  0  0
 19 16  1  0  0  0  0
 20 10  2  0  0  0  0
 21 20  1  0  0  0  0
 22 19  1  0  0  0  0
 24 33  1  1  0  0  0
 24  1  1  0  0  0  0
 25 27  1  0  0  0  0
 25 30  1  0  0  0  0
 26 25  1  0  0  0  0
 26 27  1  0  0  0  0
 27 24  1  6  0  0  0
 28 26  1  0  0  0  0
 29 26  1  0  0  0  0
 30 32  1  0  0  0  0
 32 31  3  0  0  0  0
 34 35  1  0  0  0  0
 34 33  1  0  0  0  0
 35 36  1  0  0  0  0
 37 36  1  0  0  0  0
 37 38  1  0  0  0  0
 39 38  1  0  0  0  0
 40 39  1  0  0  0  0
 41 42  1  0  0  0  0
 42 40  1  0  0  0  0
 42 43  2  0  0  0  0
 44 42  2  0  0  0  0
 45 46  1  0  0  0  0
 46 48  1  0  0  0  0
 47 52  1  0  0  0  0
 48 51  2  0  0  0  0
 50 47  2  0  0  0  0
 50 48  1  0  0  0  0
 51 49  1  0  0  0  0
 52 49  2  0  0  0  0
M  END
>  <MODEL>
9

>  <REMARK>
 VINA RESULT:      -6.1      3.441      9.455
  Name = 
  19 active torsions:
  status: ('A' for Active; 'I' for Inactive)
    1  A    between atoms: C_2  and  N_14
    2  A    between atoms: C_2  and  C_25
    3  A    between atoms: C_3  and  C_15
    4  A    between atoms: C_3  and  C_35
    5  A    between atoms: C_5  and  N_23
    6  A    between atoms: C_5  and  C_32
    7  A    between atoms: C_15  and  C_28
    8  A    between atoms: C_15  and  C_30
    9  A    between atoms: S_16  and  N_49
   10  A    between atoms: N_20  and  C_24
   11  A    between atoms: N_20  and  C_48
   12  A    between atoms: C_21  and  C_33
   13  A    between atoms: C_21  and  O_42
   14  A    between atoms: C_22  and  C_30
   15  A    between atoms: C_24  and  C_41
   16  A    between atoms: C_26  and  C_35
   17  A    between atoms: C_30  and  O_42
   18  A    between atoms: C_33  and  C_48
   19  A    between atoms: C_41  and  N_49
                            x       y       z     vdW  Elec       q    Type
                         _______ _______ _______ _____ _____    ______ ____

>  <TORSDO>
F 19

$$$$
