=
 OpenBabel11042417203D

 26 29  0  0  1  0  0  0  0  0999 V2000
  187.6110  175.8360  143.5060 C   0  0  2  0  0  3  0  0  0  0  0  0
  189.3500  174.5060  140.6950 C   0  0  0  0  0  2  0  0  0  0  0  0
  188.7100  175.1500  142.7680 C   0  0  0  0  0  0  0  0  0  0  0  0
  190.0490  172.3390  141.5240 N   0  0  0  0  0  0  0  0  0  0  0  0
  186.8400  176.3510  142.2980 C   0  0  0  0  0  0  0  0  0  0  0  0
  190.7280  172.6640  144.5720 C   0  0  0  0  0  3  0  0  0  0  0  0
  189.9890  173.7510  144.3470 C   0  0  0  0  0  3  0  0  0  0  0  0
  185.7610  176.9930  142.3940 O   0  0  0  0  0  0  0  0  0  0  0  0
  188.5680  175.3080  141.3900 C   0  0  0  0  0  0  0  0  0  0  0  0
  189.5940  174.2110  143.0200 C   0  0  2  0  0  3  0  0  0  0  0  0
  190.4890  171.4130  142.3230 C   0  0  0  0  0  0  0  0  0  0  0  0
  190.3780  170.0550  141.9150 N   0  0  0  0  0  1  0  0  0  0  0  0
  190.2030  173.7720  141.7140 C   0  0  2  0  0  3  0  0  0  0  0  0
  191.1180  171.6990  143.5820 N   0  0  0  0  0  2  0  0  0  0  0  0
  187.4130  176.0290  141.0190 N   0  0  0  0  0  2  0  0  0  0  0  0
  190.0250  177.6620  145.9040 C   0  0  0  0  0  2  0  0  0  0  0  0
  187.3440  177.0560  145.7540 C   0  0  2  0  0  3  0  0  0  0  0  0
  189.5070  176.7480  147.0260 C   0  0  1  0  0  3  0  0  0  0  0  0
  189.5940  177.1560  144.5280 C   0  0  0  0  0  2  0  0  0  0  0  0
  188.0600  177.0310  144.3830 C   0  0  1  0  0  3  0  0  0  0  0  0
  188.0940  176.2050  146.7720 C   0  0  0  0  0  2  0  0  0  0  0  0
  192.1130  176.4180  147.1480 C   0  0  0  0  0  1  0  0  0  0  0  0
  190.6470  175.3580  147.2920 S   0  0  0  0  0  0  0  0  0  0  0  0
  185.9570  176.6330  145.6640 N   0  0  0  0  0  2  0  0  0  0  0  0
  184.0750  178.3140  146.0830 N   0  0  0  0  0  0  0  0  0  0  0  0
  184.9270  177.5530  145.8930 C   0  0  0  0  0  0  0  0  0  0  0  0
  1  5  1  6  0  0  0
  1 20  1  0  0  0  0
  2  9  1  0  0  0  0
  3 10  1  0  0  0  0
  3  1  1  0  0  0  0
  4 13  1  0  0  0  0
  4 11  2  0  0  0  0
  5  8  2  0  0  0  0
  7  6  2  0  0  0  0
  9  3  2  0  0  0  0
 10  7  1  1  0  0  0
 11 14  1  0  0  0  0
 12 11  1  0  0  0  0
 13  2  1  6  0  0  0
 13 10  1  0  0  0  0
 14  6  1  0  0  0  0
 15  9  1  0  0  0  0
 15  5  1  0  0  0  0
 16 18  1  0  0  0  0
 17 24  1  6  0  0  0
 17 21  1  0  0  0  0
 18 23  1  6  0  0  0
 19 16  1  0  0  0  0
 20 19  1  1  0  0  0
 20 17  1  0  0  0  0
 21 18  1  0  0  0  0
 22 23  1  0  0  0  0
 24 26  1  0  0  0  0
 26 25  3  0  0  0  0
M  END
>  <MODEL>
1

>  <REMARK>
 VINA RESULT:      -6.5      0.000      0.000
  Name = 
  4 active torsions:
  status: ('A' for Active; 'I' for Inactive)
    1  A    between atoms: C_2  and  C_15
    2  A    between atoms: C_4  and  N_12
    3  A    between atoms: S_6  and  C_8
    4  A    between atoms: C_10  and  N_12
                            x       y       z     vdW  Elec       q    Type
                         _______ _______ _______ _____ _____    ______ ____

>  <TORSDO>
F 4

$$$$
=
 OpenBabel11042417203D

 26 29  0  0  1  0  0  0  0  0999 V2000
  191.2990  174.2420  144.4690 C   0  0  2  0  0  3  0  0  0  0  0  0
  189.4450  171.9090  142.5160 C   0  0  0  0  0  2  0  0  0  0  0  0
  190.1740  173.7390  143.6310 C   0  0  0  0  0  0  0  0  0  0  0  0
  188.8050  173.2600  140.6080 N   0  0  0  0  0  0  0  0  0  0  0  0
  192.0100  172.9120  144.6820 C   0  0  0  0  0  0  0  0  0  0  0  0
  188.2640  176.1720  141.6470 C   0  0  0  0  0  3  0  0  0  0  0  0
  188.9820  175.6620  142.6470 C   0  0  0  0  0  3  0  0  0  0  0  0
  193.0860  172.8030  145.3260 O   0  0  0  0  0  0  0  0  0  0  0  0
  190.2510  172.3580  143.4580 C   0  0  0  0  0  0  0  0  0  0  0  0
  189.3110  174.2480  142.7800 C   0  0  2  0  0  3  0  0  0  0  0  0
  188.4100  174.2740  139.8990 C   0  0  0  0  0  0  0  0  0  0  0  0
  188.5150  174.1940  138.4820 N   0  0  0  0  0  1  0  0  0  0  0  0
  188.6470  173.1120  142.0460 C   0  0  2  0  0  3  0  0  0  0  0  0
  187.8370  175.4580  140.4750 N   0  0  0  0  0  2  0  0  0  0  0  0
  191.3810  171.7730  144.0680 N   0  0  0  0  0  2  0  0  0  0  0  0
  188.7600  175.7080  146.9820 C   0  0  0  0  0  2  0  0  0  0  0  0
  191.2430  176.3300  145.9700 C   0  0  2  0  0  3  0  0  0  0  0  0
  188.8210  177.0220  146.1860 C   0  0  1  0  0  3  0  0  0  0  0  0
  189.4060  174.5570  146.2110 C   0  0  0  0  0  2  0  0  0  0  0  0
  190.8810  174.8320  145.8390 C   0  0  1  0  0  3  0  0  0  0  0  0
  190.1310  177.2070  145.4070 C   0  0  0  0  0  2  0  0  0  0  0  0
  186.2070  176.7900  146.3460 C   0  0  0  0  0  1  0  0  0  0  0  0
  187.4170  177.1370  145.0390 S   0  0  0  0  0  0  0  0  0  0  0  0
  192.5110  176.6520  145.3370 N   0  0  0  0  0  2  0  0  0  0  0  0
  194.7090  175.9670  146.4510 N   0  0  0  0  0  0  0  0  0  0  0  0
  193.7150  176.2770  145.9470 C   0  0  0  0  0  0  0  0  0  0  0  0
  1  3  1  6  0  0  0
  1  5  1  0  0  0  0
  1 20  1  0  0  0  0
  2  9  1  0  0  0  0
  4 13  1  0  0  0  0
  5  8  2  0  0  0  0
  6  7  2  0  0  0  0
  9  3  2  0  0  0  0
  9 15  1  0  0  0  0
 10  7  1  1  0  0  0
 10  3  1  0  0  0  0
 11 14  1  0  0  0  0
 11  4  2  0  0  0  0
 12 11  1  0  0  0  0
 13  2  1  1  0  0  0
 13 10  1  0  0  0  0
 14  6  1  0  0  0  0
 15  5  1  0  0  0  0
 17 24  1  6  0  0  0
 18 23  1  6  0  0  0
 18 16  1  0  0  0  0
 19 16  1  0  0  0  0
 20 17  1  0  0  0  0
 20 19  1  6  0  0  0
 21 17  1  0  0  0  0
 21 18  1  0  0  0  0
 23 22  1  0  0  0  0
 24 26  1  0  0  0  0
 26 25  3  0  0  0  0
M  END
>  <MODEL>
2

>  <REMARK>
 VINA RESULT:      -6.3      2.938      5.156
  Name = 
  4 active torsions:
  status: ('A' for Active; 'I' for Inactive)
    1  A    between atoms: C_2  and  C_15
    2  A    between atoms: C_4  and  N_12
    3  A    between atoms: S_6  and  C_8
    4  A    between atoms: C_10  and  N_12
                            x       y       z     vdW  Elec       q    Type
                         _______ _______ _______ _____ _____    ______ ____

>  <TORSDO>
F 4

$$$$
=
 OpenBabel11042417203D

 26 29  0  0  1  0  0  0  0  0999 V2000
  186.7900  176.9060  143.9970 C   0  0  2  0  0  3  0  0  0  0  0  0
  187.3830  176.8470  140.4840 C   0  0  0  0  0  2  0  0  0  0  0  0
  187.4960  176.5710  142.7280 C   0  0  0  0  0  0  0  0  0  0  0  0
  187.9370  174.5170  140.1150 N   0  0  0  0  0  0  0  0  0  0  0  0
  185.7900  177.9000  143.4230 C   0  0  0  0  0  0  0  0  0  0  0  0
  189.5280  173.5110  142.6260 C   0  0  0  0  0  3  0  0  0  0  0  0
  188.9420  174.6070  143.1050 C   0  0  0  0  0  3  0  0  0  0  0  0
  184.9060  178.4650  144.1180 O   0  0  0  0  0  0  0  0  0  0  0  0
  186.9810  177.2990  141.6560 C   0  0  0  0  0  0  0  0  0  0  0  0
  188.2520  175.5930  142.2810 C   0  0  2  0  0  3  0  0  0  0  0  0
  188.4380  173.3310  140.2900 C   0  0  0  0  0  0  0  0  0  0  0  0
  187.9940  172.2740  139.4470 N   0  0  0  0  0  1  0  0  0  0  0  0
  188.3690  175.7320  140.7860 C   0  0  2  0  0  3  0  0  0  0  0  0
  189.4480  173.0450  141.2690 N   0  0  0  0  0  2  0  0  0  0  0  0
  185.9000  178.1340  142.0080 N   0  0  0  0  0  2  0  0  0  0  0  0
  190.0780  177.5240  145.9260 C   0  0  0  0  0  2  0  0  0  0  0  0
  187.4260  177.0450  146.4860 C   0  0  2  0  0  3  0  0  0  0  0  0
  189.8060  176.2180  146.6900 C   0  0  1  0  0  3  0  0  0  0  0  0
  189.1670  177.6580  144.7060 C   0  0  0  0  0  2  0  0  0  0  0  0
  187.6650  177.6080  145.0650 C   0  0  1  0  0  3  0  0  0  0  0  0
  188.3200  175.8380  146.7470 C   0  0  0  0  0  2  0  0  0  0  0  0
  192.2530  175.2730  146.8860 C   0  0  0  0  0  1  0  0  0  0  0  0
  190.7500  174.8470  145.9620 S   0  0  0  0  0  0  0  0  0  0  0  0
  186.0330  176.7030  146.7210 N   0  0  0  0  0  2  0  0  0  0  0  0
  184.3930  178.4930  147.5260 N   0  0  0  0  0  0  0  0  0  0  0  0
  185.1350  177.6830  147.1620 C   0  0  0  0  0  0  0  0  0  0  0  0
  1  3  1  6  0  0  0
  1 20  1  0  0  0  0
  2  9  1  0  0  0  0
  4 11  2  0  0  0  0
  4 13  1  0  0  0  0
  5  1  1  0  0  0  0
  5  8  2  0  0  0  0
  6  7  2  0  0  0  0
  9 15  1  0  0  0  0
  9  3  2  0  0  0  0
 10  3  1  0  0  0  0
 10  7  1  1  0  0  0
 11 14  1  0  0  0  0
 12 11  1  0  0  0  0
 13  2  1  6  0  0  0
 13 10  1  0  0  0  0
 14  6  1  0  0  0  0
 15  5  1  0  0  0  0
 16 18  1  0  0  0  0
 17 24  1  6  0  0  0
 17 21  1  0  0  0  0
 18 23  1  6  0  0  0
 18 21  1  0  0  0  0
 19 16  1  0  0  0  0
 20 19  1  6  0  0  0
 20 17  1  0  0  0  0
 23 22  1  0  0  0  0
 24 26  1  0  0  0  0
 26 25  3  0  0  0  0
M  END
>  <MODEL>
3

>  <REMARK>
 VINA RESULT:      -6.3      1.559      2.170
  Name = 
  4 active torsions:
  status: ('A' for Active; 'I' for Inactive)
    1  A    between atoms: C_2  and  C_15
    2  A    between atoms: C_4  and  N_12
    3  A    between atoms: S_6  and  C_8
    4  A    between atoms: C_10  and  N_12
                            x       y       z     vdW  Elec       q    Type
                         _______ _______ _______ _____ _____    ______ ____

>  <TORSDO>
F 4

$$$$
=
 OpenBabel11042417203D

 26 29  0  0  1  0  0  0  0  0999 V2000
  190.7670  176.4810  145.2360 C   0  0  2  0  0  3  0  0  0  0  0  0
  193.9940  175.6750  146.5130 C   0  0  0  0  0  2  0  0  0  0  0  0
  192.1410  175.9020  145.2340 C   0  0  0  0  0  0  0  0  0  0  0  0
  195.4230  176.2350  144.6380 N   0  0  0  0  0  0  0  0  0  0  0  0
  190.6990  176.8500  146.7110 C   0  0  0  0  0  0  0  0  0  0  0  0
  193.8620  175.5200  142.0100 C   0  0  0  0  0  3  0  0  0  0  0  0
  192.8720  175.5710  142.9010 C   0  0  0  0  0  3  0  0  0  0  0  0
  189.7090  177.4290  147.2300 O   0  0  0  0  0  0  0  0  0  0  0  0
  192.6990  175.9230  146.5110 C   0  0  0  0  0  0  0  0  0  0  0  0
  193.0740  175.6490  144.3430 C   0  0  2  0  0  3  0  0  0  0  0  0
  195.8590  176.3590  143.4200 C   0  0  0  0  0  0  0  0  0  0  0  0
  197.0070  177.1660  143.1880 N   0  0  0  0  0  1  0  0  0  0  0  0
  194.3560  175.3500  145.0750 C   0  0  2  0  0  3  0  0  0  0  0  0
  195.2590  175.6880  142.3010 N   0  0  0  0  0  2  0  0  0  0  0  0
  191.8670  176.5200  147.4830 N   0  0  0  0  0  2  0  0  0  0  0  0
  189.3060  173.3570  143.4970 C   0  0  0  0  0  2  0  0  0  0  0  0
  188.6750  176.0180  143.8130 C   0  0  2  0  0  3  0  0  0  0  0  0
  189.2730  174.1710  142.1940 C   0  0  1  0  0  3  0  0  0  0  0  0
  190.1410  174.0550  144.5710 C   0  0  0  0  0  2  0  0  0  0  0  0
  189.6350  175.4780  144.8990 C   0  0  1  0  0  3  0  0  0  0  0  0
  189.1940  175.6880  142.4180 C   0  0  0  0  0  2  0  0  0  0  0  0
  190.3540  172.0130  141.1490 C   0  0  0  0  0  1  0  0  0  0  0  0
  190.7240  173.7900  141.1690 S   0  0  0  0  0  0  0  0  0  0  0  0
  188.4380  177.4460  143.9410 N   0  0  0  0  0  2  0  0  0  0  0  0
  186.4060  178.2980  145.2390 N   0  0  0  0  0  0  0  0  0  0  0  0
  187.3260  177.9130  144.6510 C   0  0  0  0  0  0  0  0  0  0  0  0
  1  3  1  1  0  0  0
  1  5  1  0  0  0  0
  3  9  2  0  0  0  0
  4 13  1  0  0  0  0
  5  8  2  0  0  0  0
  5 15  1  0  0  0  0
  6 14  1  0  0  0  0
  6  7  2  0  0  0  0
  9  2  1  0  0  0  0
  9 15  1  0  0  0  0
 10  7  1  1  0  0  0
 10 13  1  0  0  0  0
 10  3  1  0  0  0  0
 11  4  2  0  0  0  0
 12 11  1  0  0  0  0
 13  2  1  1  0  0  0
 14 11  1  0  0  0  0
 16 19  1  0  0  0  0
 17 24  1  6  0  0  0
 17 20  1  0  0  0  0
 18 23  1  1  0  0  0
 18 21  1  0  0  0  0
 18 16  1  0  0  0  0
 20 19  1  6  0  0  0
 20  1  1  0  0  0  0
 21 17  1  0  0  0  0
 22 23  1  0  0  0  0
 24 26  1  0  0  0  0
 26 25  3  0  0  0  0
M  END
>  <MODEL>
4

>  <REMARK>
 VINA RESULT:      -6.1      3.769      5.585
  Name = 
  4 active torsions:
  status: ('A' for Active; 'I' for Inactive)
    1  A    between atoms: C_2  and  C_15
    2  A    between atoms: C_4  and  N_12
    3  A    between atoms: S_6  and  C_8
    4  A    between atoms: C_10  and  N_12
                            x       y       z     vdW  Elec       q    Type
                         _______ _______ _______ _____ _____    ______ ____

>  <TORSDO>
F 4

$$$$
=
 OpenBabel11042417203D

 26 29  0  0  1  0  0  0  0  0999 V2000
  189.9890  176.1100  143.9530 C   0  0  2  0  0  3  0  0  0  0  0  0
  192.7130  176.3130  146.2410 C   0  0  0  0  0  2  0  0  0  0  0  0
  191.3160  175.7750  144.5440 C   0  0  0  0  0  0  0  0  0  0  0  0
  194.6180  176.3210  144.7440 N   0  0  0  0  0  0  0  0  0  0  0  0
  189.4780  176.9950  145.0820 C   0  0  0  0  0  0  0  0  0  0  0  0
  193.9250  174.4540  142.3170 C   0  0  0  0  0  3  0  0  0  0  0  0
  192.7150  174.6970  142.8200 C   0  0  0  0  0  3  0  0  0  0  0  0
  188.3640  177.5800  145.0460 O   0  0  0  0  0  0  0  0  0  0  0  0
  191.4710  176.3550  145.8020 C   0  0  0  0  0  0  0  0  0  0  0  0
  192.4780  175.3400  144.1070 C   0  0  2  0  0  3  0  0  0  0  0  0
  195.3920  176.0370  143.7400 C   0  0  0  0  0  0  0  0  0  0  0  0
  196.5360  176.8510  143.5120 N   0  0  0  0  0  1  0  0  0  0  0  0
  193.4920  175.5240  145.2050 C   0  0  2  0  0  3  0  0  0  0  0  0
  195.1680  174.9150  142.8710 N   0  0  0  0  0  2  0  0  0  0  0  0
  190.3730  177.1490  146.1970 N   0  0  0  0  0  2  0  0  0  0  0  0
  189.1780  172.4230  143.1400 C   0  0  0  0  0  2  0  0  0  0  0  0
  188.3190  174.9300  142.3940 C   0  0  2  0  0  3  0  0  0  0  0  0
  189.3960  172.7640  141.6570 C   0  0  1  0  0  3  0  0  0  0  0  0
  189.6940  173.5370  144.0510 C   0  0  0  0  0  2  0  0  0  0  0  0
  189.0340  174.9050  143.7650 C   0  0  1  0  0  3  0  0  0  0  0  0
  189.1680  174.2460  141.3280 C   0  0  0  0  0  2  0  0  0  0  0  0
  191.0390  173.4050  139.7060 C   0  0  0  0  0  1  0  0  0  0  0  0
  191.0670  172.2820  141.1320 S   0  0  0  0  0  0  0  0  0  0  0  0
  187.9670  176.2760  141.9750 N   0  0  0  0  0  2  0  0  0  0  0  0
  185.6060  177.1700  142.3840 N   0  0  0  0  0  0  0  0  0  0  0  0
  186.6740  176.7650  142.1990 C   0  0  0  0  0  0  0  0  0  0  0  0
  1  3  1  1  0  0  0
  1  5  1  0  0  0  0
  3  9  2  0  0  0  0
  4 13  1  0  0  0  0
  5 15  1  0  0  0  0
  6  7  2  0  0  0  0
  6 14  1  0  0  0  0
  8  5  2  0  0  0  0
  9 15  1  0  0  0  0
  9  2  1  0  0  0  0
 10  7  1  1  0  0  0
 10  3  1  0  0  0  0
 10 13  1  0  0  0  0
 11  4  2  0  0  0  0
 12 11  1  0  0  0  0
 13  2  1  1  0  0  0
 14 11  1  0  0  0  0
 16 19  1  0  0  0  0
 17 24  1  6  0  0  0
 17 20  1  0  0  0  0
 18 23  1  1  0  0  0
 18 16  1  0  0  0  0
 20  1  1  0  0  0  0
 20 19  1  6  0  0  0
 21 18  1  0  0  0  0
 21 17  1  0  0  0  0
 22 23  1  0  0  0  0
 24 26  1  0  0  0  0
 26 25  3  0  0  0  0
M  END
>  <MODEL>
5

>  <REMARK>
 VINA RESULT:      -5.9      3.346      5.363
  Name = 
  4 active torsions:
  status: ('A' for Active; 'I' for Inactive)
    1  A    between atoms: C_2  and  C_15
    2  A    between atoms: C_4  and  N_12
    3  A    between atoms: S_6  and  C_8
    4  A    between atoms: C_10  and  N_12
                            x       y       z     vdW  Elec       q    Type
                         _______ _______ _______ _____ _____    ______ ____

>  <TORSDO>
F 4

$$$$
=
 OpenBabel11042417203D

 26 29  0  0  1  0  0  0  0  0999 V2000
  188.1190  175.7710  143.3940 C   0  0  2  0  0  3  0  0  0  0  0  0
  189.1450  174.1050  140.4160 C   0  0  0  0  0  2  0  0  0  0  0  0
  189.0180  174.9950  142.4930 C   0  0  0  0  0  0  0  0  0  0  0  0
  190.0760  172.0480  141.2950 N   0  0  0  0  0  0  0  0  0  0  0  0
  187.0630  176.1430  142.3620 C   0  0  0  0  0  0  0  0  0  0  0  0
  191.4750  172.7290  144.0210 C   0  0  0  0  0  3  0  0  0  0  0  0
  190.6790  173.7860  143.8600 C   0  0  0  0  0  3  0  0  0  0  0  0
  186.0260  176.7990  142.6450 O   0  0  0  0  0  0  0  0  0  0  0  0
  188.5390  174.9890  141.1840 C   0  0  0  0  0  0  0  0  0  0  0  0
  189.9590  174.0870  142.6280 C   0  0  2  0  0  3  0  0  0  0  0  0
  190.7200  171.2210  142.0630 C   0  0  0  0  0  0  0  0  0  0  0  0
  190.5440  169.8240  141.8570 N   0  0  0  0  0  1  0  0  0  0  0  0
  190.2390  173.4930  141.2730 C   0  0  2  0  0  3  0  0  0  0  0  0
  191.6330  171.6510  143.0860 N   0  0  0  0  0  2  0  0  0  0  0  0
  187.3120  175.6680  141.0280 N   0  0  0  0  0  2  0  0  0  0  0  0
  190.9710  178.3210  143.9140 C   0  0  0  0  0  2  0  0  0  0  0  0
  189.2090  176.8660  145.4490 C   0  0  2  0  0  3  0  0  0  0  0  0
  191.6290  177.3030  144.8600 C   0  0  1  0  0  3  0  0  0  0  0  0
  189.8440  177.6830  143.1030 C   0  0  0  0  0  2  0  0  0  0  0  0
  188.7410  177.0590  143.9880 C   0  0  1  0  0  3  0  0  0  0  0  0
  190.6330  176.3230  145.4950 C   0  0  0  0  0  2  0  0  0  0  0  0
  193.5480  175.6330  145.5260 C   0  0  0  0  0  1  0  0  0  0  0  0
  192.9220  176.3690  143.9900 S   0  0  0  0  0  0  0  0  0  0  0  0
  188.3160  176.0100  146.2110 N   0  0  0  0  0  2  0  0  0  0  0  0
  186.3260  177.0210  147.4600 N   0  0  0  0  0  0  0  0  0  0  0  0
  187.2270  176.5640  146.8940 C   0  0  0  0  0  0  0  0  0  0  0  0
  1  5  1  6  0  0  0
  1 20  1  0  0  0  0
  2  9  1  0  0  0  0
  3 10  1  0  0  0  0
  3  1  1  0  0  0  0
  4 11  2  0  0  0  0
  5  8  2  0  0  0  0
  7  6  2  0  0  0  0
  9  3  2  0  0  0  0
 10  7  1  6  0  0  0
 11 14  1  0  0  0  0
 12 11  1  0  0  0  0
 13  2  1  6  0  0  0
 13  4  1  0  0  0  0
 13 10  1  0  0  0  0
 14  6  1  0  0  0  0
 15  9  1  0  0  0  0
 15  5  1  0  0  0  0
 16 18  1  0  0  0  0
 17 21  1  0  0  0  0
 17 24  1  6  0  0  0
 18 23  1  6  0  0  0
 18 21  1  0  0  0  0
 19 16  1  0  0  0  0
 20 19  1  6  0  0  0
 20 17  1  0  0  0  0
 23 22  1  0  0  0  0
 24 26  1  0  0  0  0
 26 25  3  0  0  0  0
M  END
>  <MODEL>
6

>  <REMARK>
 VINA RESULT:      -5.9      1.441      1.737
  Name = 
  4 active torsions:
  status: ('A' for Active; 'I' for Inactive)
    1  A    between atoms: C_2  and  C_15
    2  A    between atoms: C_4  and  N_12
    3  A    between atoms: S_6  and  C_8
    4  A    between atoms: C_10  and  N_12
                            x       y       z     vdW  Elec       q    Type
                         _______ _______ _______ _____ _____    ______ ____

>  <TORSDO>
F 4

$$$$
=
 OpenBabel11042417203D

 26 29  0  0  1  0  0  0  0  0999 V2000
  191.9660  175.0220  142.3670 C   0  0  2  0  0  3  0  0  0  0  0  0
  188.5490  174.4130  141.5640 C   0  0  0  0  0  2  0  0  0  0  0  0
  190.4880  175.0290  142.5560 C   0  0  0  0  0  0  0  0  0  0  0  0
  187.5210  176.5330  142.1300 N   0  0  0  0  0  0  0  0  0  0  0  0
  192.0150  174.1200  141.1420 C   0  0  0  0  0  0  0  0  0  0  0  0
  189.0160  177.6690  144.6460 C   0  0  0  0  0  3  0  0  0  0  0  0
  189.8940  176.7730  144.1970 C   0  0  0  0  0  3  0  0  0  0  0  0
  193.0850  173.8230  140.5490 O   0  0  0  0  0  0  0  0  0  0  0  0
  189.8540  174.2280  141.6070 C   0  0  0  0  0  0  0  0  0  0  0  0
  189.6020  175.7880  143.1620 C   0  0  2  0  0  3  0  0  0  0  0  0
  187.2490  177.6360  142.7590 C   0  0  0  0  0  0  0  0  0  0  0  0
  186.4210  178.5990  142.1170 N   0  0  0  0  0  1  0  0  0  0  0  0
  188.2320  175.3900  142.6810 C   0  0  2  0  0  3  0  0  0  0  0  0
  187.7140  177.9150  144.0890 N   0  0  0  0  0  2  0  0  0  0  0  0
  190.7400  173.6430  140.6780 N   0  0  0  0  0  2  0  0  0  0  0  0
  192.6310  174.1650  146.0740 C   0  0  0  0  0  2  0  0  0  0  0  0
  194.0000  175.2160  143.9290 C   0  0  2  0  0  3  0  0  0  0  0  0
  193.1080  175.6140  146.2620 C   0  0  1  0  0  3  0  0  0  0  0  0
  191.9020  173.9850  144.7420 C   0  0  0  0  0  2  0  0  0  0  0  0
  192.7690  174.3730  143.5220 C   0  0  1  0  0  3  0  0  0  0  0  0
  193.6190  176.2650  144.9680 C   0  0  0  0  0  2  0  0  0  0  0  0
  191.1910  175.2910  148.0330 C   0  0  0  0  0  1  0  0  0  0  0  0
  191.7810  176.6350  146.9650 S   0  0  0  0  0  0  0  0  0  0  0  0
  194.6460  175.8450  142.7890 N   0  0  0  0  0  2  0  0  0  0  0  0
  197.0140  176.7830  143.0120 N   0  0  0  0  0  0  0  0  0  0  0  0
  195.9420  176.3580  142.9110 C   0  0  0  0  0  0  0  0  0  0  0  0
  1  5  1  6  0  0  0
  1  3  1  0  0  0  0
  1 20  1  0  0  0  0
  2  9  1  0  0  0  0
  3 10  1  0  0  0  0
  4 13  1  0  0  0  0
  4 11  2  0  0  0  0
  7  6  2  0  0  0  0
  8  5  2  0  0  0  0
  9  3  2  0  0  0  0
 10  7  1  1  0  0  0
 11 14  1  0  0  0  0
 12 11  1  0  0  0  0
 13  2  1  6  0  0  0
 13 10  1  0  0  0  0
 14  6  1  0  0  0  0
 15  5  1  0  0  0  0
 15  9  1  0  0  0  0
 16 18  1  0  0  0  0
 17 24  1  6  0  0  0
 17 21  1  0  0  0  0
 18 23  1  6  0  0  0
 19 16  1  0  0  0  0
 20 17  1  0  0  0  0
 20 19  1  1  0  0  0
 21 18  1  0  0  0  0
 23 22  1  0  0  0  0
 24 26  1  0  0  0  0
 26 25  3  0  0  0  0
M  END
>  <MODEL>
7

>  <REMARK>
 VINA RESULT:      -5.6      3.259      6.110
  Name = 
  4 active torsions:
  status: ('A' for Active; 'I' for Inactive)
    1  A    between atoms: C_2  and  C_15
    2  A    between atoms: C_4  and  N_12
    3  A    between atoms: S_6  and  C_8
    4  A    between atoms: C_10  and  N_12
                            x       y       z     vdW  Elec       q    Type
                         _______ _______ _______ _____ _____    ______ ____

>  <TORSDO>
F 4

$$$$
=
 OpenBabel11042417203D

 26 29  0  0  1  0  0  0  0  0999 V2000
  189.3070  174.6050  145.6860 C   0  0  2  0  0  3  0  0  0  0  0  0
  188.0990  177.9040  145.0860 C   0  0  0  0  0  2  0  0  0  0  0  0
  189.0400  175.8520  144.9140 C   0  0  0  0  0  0  0  0  0  0  0  0
  187.0290  177.6550  142.9270 N   0  0  0  0  0  0  0  0  0  0  0  0
  188.8980  175.1200  147.0590 C   0  0  0  0  0  0  0  0  0  0  0  0
  188.7200  175.6010  141.2620 C   0  0  0  0  0  3  0  0  0  0  0  0
  189.1340  175.3420  142.5020 C   0  0  0  0  0  3  0  0  0  0  0  0
  188.9080  174.4020  148.0930 O   0  0  0  0  0  0  0  0  0  0  0  0
  188.5990  176.8780  145.7480 C   0  0  0  0  0  0  0  0  0  0  0  0
  188.8250  176.1750  143.6580 C   0  0  2  0  0  3  0  0  0  0  0  0
  186.8020  177.2740  141.7060 C   0  0  0  0  0  0  0  0  0  0  0  0
  185.5250  177.5410  141.1370 N   0  0  0  0  0  1  0  0  0  0  0  0
  188.3080  177.5890  143.6160 C   0  0  2  0  0  3  0  0  0  0  0  0
  187.7920  176.6320  140.8880 N   0  0  0  0  0  2  0  0  0  0  0  0
  188.4650  176.4910  147.0990 N   0  0  0  0  0  2  0  0  0  0  0  0
  193.0860  175.0950  145.0640 C   0  0  0  0  0  2  0  0  0  0  0  0
  191.1450  173.2110  144.5500 C   0  0  2  0  0  3  0  0  0  0  0  0
  192.8140  174.8410  143.5730 C   0  0  1  0  0  3  0  0  0  0  0  0
  191.7890  175.3350  145.8360 C   0  0  0  0  0  2  0  0  0  0  0  0
  190.7900  174.1610  145.7180 C   0  0  1  0  0  3  0  0  0  0  0  0
  191.5530  174.0030  143.3130 C   0  0  0  0  0  2  0  0  0  0  0  0
  194.1920  176.0860  141.7110 C   0  0  0  0  0  1  0  0  0  0  0  0
  192.6870  176.4130  142.6720 S   0  0  0  0  0  0  0  0  0  0  0  0
  190.0650  172.2940  144.2300 N   0  0  0  0  0  2  0  0  0  0  0  0
  190.0670  171.0350  142.0040 N   0  0  0  0  0  0  0  0  0  0  0  0
  190.0660  171.6060  143.0120 C   0  0  0  0  0  0  0  0  0  0  0  0
  1  3  1  6  0  0  0
  1 20  1  0  0  0  0
  1  5  1  0  0  0  0
  2  9  1  0  0  0  0
  3  9  2  0  0  0  0
  4 13  1  0  0  0  0
  5 15  1  0  0  0  0
  5  8  2  0  0  0  0
  6  7  2  0  0  0  0
  9 15  1  0  0  0  0
 10  7  1  6  0  0  0
 10  3  1  0  0  0  0
 11  4  2  0  0  0  0
 12 11  1  0  0  0  0
 13 10  1  0  0  0  0
 13  2  1  1  0  0  0
 14  6  1  0  0  0  0
 14 11  1  0  0  0  0
 16 19  1  0  0  0  0
 17 24  1  6  0  0  0
 17 20  1  0  0  0  0
 18 23  1  6  0  0  0
 18 16  1  0  0  0  0
 20 19  1  6  0  0  0
 21 18  1  0  0  0  0
 21 17  1  0  0  0  0
 22 23  1  0  0  0  0
 25 26  3  0  0  0  0
 26 24  1  0  0  0  0
M  END
>  <MODEL>
8

>  <REMARK>
 VINA RESULT:      -5.5      2.500      5.736
  Name = 
  4 active torsions:
  status: ('A' for Active; 'I' for Inactive)
    1  A    between atoms: C_2  and  C_15
    2  A    between atoms: C_4  and  N_12
    3  A    between atoms: S_6  and  C_8
    4  A    between atoms: C_10  and  N_12
                            x       y       z     vdW  Elec       q    Type
                         _______ _______ _______ _____ _____    ______ ____

>  <TORSDO>
F 4

$$$$
=
 OpenBabel11042417203D

 26 29  0  0  1  0  0  0  0  0999 V2000
  186.3730  177.7170  142.5090 C   0  0  2  0  0  3  0  0  0  0  0  0
  189.8980  177.2000  142.4200 C   0  0  0  0  0  2  0  0  0  0  0  0
  187.7460  177.5070  143.0520 C   0  0  0  0  0  0  0  0  0  0  0  0
  190.1800  175.4270  144.0480 N   0  0  0  0  0  0  0  0  0  0  0  0
  186.7570  177.9390  141.0530 C   0  0  0  0  0  0  0  0  0  0  0  0
  188.0890  175.9030  146.3400 C   0  0  0  0  0  3  0  0  0  0  0  0
  187.5780  176.6430  145.3560 C   0  0  0  0  0  3  0  0  0  0  0  0
  185.9110  178.1320  140.1410 O   0  0  0  0  0  0  0  0  0  0  0  0
  188.7090  177.6360  142.0520 C   0  0  0  0  0  0  0  0  0  0  0  0
  188.2820  176.9570  144.1190 C   0  0  2  0  0  3  0  0  0  0  0  0
  190.0310  174.7110  145.1210 C   0  0  0  0  0  0  0  0  0  0  0  0
  190.6260  173.4190  145.1640 N   0  0  0  0  0  1  0  0  0  0  0  0
  189.7610  176.8100  143.8810 C   0  0  2  0  0  3  0  0  0  0  0  0
  189.3280  175.1770  146.2830 N   0  0  0  0  0  2  0  0  0  0  0  0
  188.1670  177.8860  140.7730 N   0  0  0  0  0  2  0  0  0  0  0  0
  185.2410  180.1350  145.2980 C   0  0  0  0  0  2  0  0  0  0  0  0
  184.1200  178.7410  143.2070 C   0  0  2  0  0  3  0  0  0  0  0  0
  184.2020  179.0800  145.7110 C   0  0  1  0  0  3  0  0  0  0  0  0
  186.2750  179.5550  144.3330 C   0  0  0  0  0  2  0  0  0  0  0  0
  185.6410  178.9700  143.0510 C   0  0  1  0  0  3  0  0  0  0  0  0
  183.8000  178.1360  144.5690 C   0  0  0  0  0  2  0  0  0  0  0  0
  185.9420  179.4150  147.6540 C   0  0  0  0  0  1  0  0  0  0  0  0
  184.8140  178.1000  147.1140 S   0  0  0  0  0  0  0  0  0  0  0  0
  183.5700  177.9160  142.1440 N   0  0  0  0  0  2  0  0  0  0  0  0
  181.3970  178.6010  140.9830 N   0  0  0  0  0  0  0  0  0  0  0  0
  182.3810  178.2910  141.5080 C   0  0  0  0  0  0  0  0  0  0  0  0
  1  5  1  6  0  0  0
  1 20  1  0  0  0  0
  1  3  1  0  0  0  0
  3 10  1  0  0  0  0
  4 11  2  0  0  0  0
  7  6  2  0  0  0  0
  8  5  2  0  0  0  0
  9  2  1  0  0  0  0
  9  3  2  0  0  0  0
 10  7  1  1  0  0  0
 11 12  1  0  0  0  0
 11 14  1  0  0  0  0
 13  2  1  6  0  0  0
 13  4  1  0  0  0  0
 13 10  1  0  0  0  0
 14  6  1  0  0  0  0
 15  5  1  0  0  0  0
 15  9  1  0  0  0  0
 16 18  1  0  0  0  0
 17 24  1  6  0  0  0
 17 21  1  0  0  0  0
 18 23  1  1  0  0  0
 19 16  1  0  0  0  0
 20 17  1  0  0  0  0
 20 19  1  1  0  0  0
 21 18  1  0  0  0  0
 23 22  1  0  0  0  0
 25 26  3  0  0  0  0
 26 24  1  0  0  0  0
M  END
>  <MODEL>
9

>  <REMARK>
 VINA RESULT:      -5.4      2.964      4.346
  Name = 
  4 active torsions:
  status: ('A' for Active; 'I' for Inactive)
    1  A    between atoms: C_2  and  C_15
    2  A    between atoms: C_4  and  N_12
    3  A    between atoms: S_6  and  C_8
    4  A    between atoms: C_10  and  N_12
                            x       y       z     vdW  Elec       q    Type
                         _______ _______ _______ _____ _____    ______ ____

>  <TORSDO>
F 4

$$$$
