=
 OpenBabel11042418493D

 60 66  0  0  1  0  0  0  0  0999 V2000
  188.9060  174.2300  142.3390 C   0  0  2  0  0  3  0  0  0  0  0  0
  190.2610  173.5940  139.8950 O   0  0  0  0  0  0  0  0  0  0  0  0
  190.3380  174.3610  142.1030 N   0  0  0  0  0  2  0  0  0  0  0  0
  190.9550  174.0060  140.8640 C   0  0  0  0  0  0  0  0  0  0  0  0
  192.4300  174.1430  140.7130 C   0  0  0  0  0  2  0  0  0  0  0  0
  192.9040  175.2390  141.5430 N   0  0  0  0  0  2  0  0  0  0  0  0
  194.5860  174.8870  141.9480 S   0  0  0  0  0  0  0  0  0  0  0  0
  196.8570  173.6130  146.0370 C   0  0  0  0  0  2  0  0  0  0  0  0
  195.7280  174.1610  145.1530 C   0  0  2  0  0  3  0  0  0  0  0  0
  193.3150  174.6390  145.3440 C   0  0  0  0  0  0  0  0  0  0  0  0
  196.8620  172.0870  146.0790 C   0  0  0  0  0  2  0  0  0  0  0  0
  195.8660  172.0530  143.8110 C   0  0  0  0  0  3  0  0  0  0  0  0
  194.1170  173.6840  143.2310 C   0  0  1  0  0  3  0  0  0  0  0  0
  197.0010  171.5590  144.6570 C   0  0  0  0  0  2  0  0  0  0  0  0
  194.5780  174.4660  145.9340 O   0  0  0  0  0  0  0  0  0  0  0  0
  195.3260  173.2650  144.0070 C   0  0  0  0  0  0  0  0  0  0  0  0
  193.0980  174.2660  144.1140 N   0  0  0  0  0  0  0  0  0  0  0  0
  192.6460  176.3470  147.0230 C   0  0  0  0  0  1  0  0  0  0  0  0
  192.1780  175.2010  146.1410 C   0  0  1  0  0  3  0  0  0  0  0  0
  188.8810  176.7170  145.9460 C   0  0  0  0  0  2  0  0  0  0  0  0
  190.9490  175.5930  145.3080 C   0  0  0  0  0  3  0  0  0  0  0  0
  189.5700  177.5160  144.8620 C   0  0  0  0  0  2  0  0  0  0  0  0
  189.6240  175.3990  146.0370 C   0  0  0  0  0  2  0  0  0  0  0  0
  191.0050  177.0420  144.8590 C   0  0  0  0  0  2  0  0  0  0  0  0
  188.5170  172.7580  142.2790 C   0  0  0  0  0  2  0  0  0  0  0  0
  189.3330  172.1400  144.4290 O   0  0  0  0  0  0  0  0  0  0  0  0
  189.3630  171.9320  143.1890 C   0  0  0  0  0  0  0  0  0  0  0  0
  190.1790  170.9390  142.6510 O   0  0  0  0  0  0  0  0  0  0  0  0
  191.5910  170.9620  142.8050 C   0  0  0  0  0  2  0  0  0  0  0  0
  192.2060  169.8310  142.0050 C   0  0  0  0  0  2  0  0  0  0  0  0
  191.7290  168.6060  138.7880 C   0  0  0  0  0  2  0  0  0  0  0  0
  191.8530  168.3800  140.1530 O   0  0  0  0  0  0  0  0  0  0  0  0
  191.6450  170.0960  138.5950 C   0  0  1  0  0  0  0  0  0  0  0  0
  191.3900  169.5600  140.7540 C   0  0  2  0  0  3  0  0  0  0  0  0
  191.4990  170.6510  139.8710 O   0  0  0  0  0  0  0  0  0  0  0  0
  193.6810  171.3590  138.8880 O   0  0  0  0  0  1  0  0  0  0  0  0
  192.9310  170.6480  137.9480 C   0  0  1  0  0  3  0  0  0  0  0  0
  193.7920  169.5480  137.3330 C   0  0  0  0  0  2  0  0  0  0  0  0
  195.1890  170.0700  137.0640 C   0  0  0  0  0  1  0  0  0  0  0  0
  189.5160  169.5530  137.6330 O   0  0  0  0  0  0  0  0  0  0  0  0
  190.4270  170.4160  137.7460 C   0  0  0  0  0  0  0  0  0  0  0  0
  190.2740  171.6250  137.0510 O   0  0  0  0  0  0  0  0  0  0  0  0
  190.0580  171.7240  135.6480 C   0  0  0  0  0  2  0  0  0  0  0  0
  189.4940  172.9620  135.3410 O   0  0  0  0  0  0  0  0  0  0  0  0
  189.9250  173.8070  136.3630 C   0  0  0  0  0  1  0  0  0  0  0  0
  188.1470  175.0170  141.2740 C   0  0  0  0  0  2  0  0  0  0  0  0
  186.7880  176.0640  143.0110 C   0  0  0  0  0  2  0  0  0  0  0  0
  185.7960  178.1790  142.2030 C   0  0  2  0  0  3  0  0  0  0  0  0
  185.3840  177.3480  144.4260 O   0  0  0  0  0  0  0  0  0  0  0  0
  187.3550  176.1620  141.8250 C   0  0  2  0  0  3  0  0  0  0  0  0
  187.0410  177.7040  140.9430 S   0  0  0  0  0  0  0  0  0  0  0  0
  185.9580  177.2090  143.3170 C   0  0  0  0  0  0  0  0  0  0  0  0
  183.2900  178.3450  142.3230 C   0  0  0  0  0  3  0  0  0  0  0  0
  182.3040  178.2560  141.3570 C   0  0  0  0  0  0  0  0  0  0  0  0
  184.4400  178.0960  141.6650 N   0  0  0  0  0  0  0  0  0  0  0  0
  184.1740  177.8880  140.3860 N   0  0  0  0  0  0  0  0  0  0  0  0
  182.8710  177.9670  140.1690 N   0  0  0  0  0  0  0  0  0  0  0  0
  180.3270  179.7000  140.9640 C   0  0  0  0  0  2  0  0  0  0  0  0
  180.8300  178.4010  141.5650 C   0  0  0  0  0  3  0  0  0  0  0  0
  180.1300  178.3990  140.2190 C   0  0  0  0  0  2  0  0  0  0  0  0
  1 46  1  6  0  0  0
  2  4  2  0  0  0  0
  3  1  1  0  0  0  0
  4  3  1  0  0  0  0
  5  4  1  0  0  0  0
  5  6  1  0  0  0  0
  6  7  1  0  0  0  0
  8 11  1  0  0  0  0
  9 15  1  0  0  0  0
  9  8  1  1  0  0  0
 10 15  1  0  0  0  0
 10 19  1  0  0  0  0
 12 16  2  0  0  0  0
 12 14  1  0  0  0  0
 13  7  1  6  0  0  0
 13 16  1  0  0  0  0
 13 17  1  0  0  0  0
 14 11  1  0  0  0  0
 16  9  1  0  0  0  0
 17 10  2  0  0  0  0
 19 18  1  6  0  0  0
 20 23  1  0  0  0  0
 21 23  1  0  0  0  0
 21 19  1  0  0  0  0
 22 20  1  0  0  0  0
 24 22  1  0  0  0  0
 24 21  1  0  0  0  0
 25  1  1  0  0  0  0
 25 27  1  0  0  0  0
 27 26  2  0  0  0  0
 28 29  1  0  0  0  0
 28 27  1  0  0  0  0
 30 29  1  0  0  0  0
 31 32  1  0  0  0  0
 32 34  1  0  0  0  0
 33 41  1  6  0  0  0
 33 31  1  0  0  0  0
 33 35  1  0  0  0  0
 34 30  1  1  0  0  0
 35 34  1  0  0  0  0
 37 33  1  0  0  0  0
 37 36  1  1  0  0  0
 38 37  1  0  0  0  0
 39 38  1  0  0  0  0
 40 41  2  0  0  0  0
 42 41  1  0  0  0  0
 43 42  1  0  0  0  0
 44 43  1  0  0  0  0
 44 45  1  0  0  0  0
 47 52  1  0  0  0  0
 48 55  1  6  0  0  0
 48 52  1  0  0  0  0
 50 46  1  6  0  0  0
 50 47  1  0  0  0  0
 51 50  1  0  0  0  0
 51 48  1  0  0  0  0
 52 49  2  0  0  0  0
 54 59  1  0  0  0  0
 54 53  2  0  0  0  0
 55 53  1  0  0  0  0
 56 55  1  0  0  0  0
 57 56  2  0  0  0  0
 57 54  1  0  0  0  0
 58 59  1  0  0  0  0
 60 58  1  0  0  0  0
 60 59  1  0  0  0  0
M  END
>  <MODEL>
1

>  <REMARK>
 VINA RESULT:      -6.4      0.000      0.000
  Name = 
  23 active torsions:
  status: ('A' for Active; 'I' for Inactive)
    1  A    between atoms: C_1  and  C_31
    2  A    between atoms: C_1  and  N_52
    3  A    between atoms: C_1  and  C_56
    4  A    between atoms: O_3  and  C_39
    5  A    between atoms: N_4  and  C_32
    6  A    between atoms: N_4  and  S_54
    7  A    between atoms: C_9  and  N_16
    8  A    between atoms: O_11  and  C_39
    9  A    between atoms: O_11  and  C_57
   10  A    between atoms: C_14  and  C_33
   11  A    between atoms: C_17  and  C_18
   12  A    between atoms: C_18  and  C_24
   13  A    between atoms: C_19  and  O_30
   14  A    between atoms: C_19  and  C_31
   15  A    between atoms: C_22  and  C_55
   16  A    between atoms: C_22  and  C_57
   17  A    between atoms: C_23  and  C_55
   18  A    between atoms: C_29  and  S_54
   19  A    between atoms: O_30  and  C_41
   20  A    between atoms: C_32  and  C_53
   21  A    between atoms: C_41  and  C_58
   22  A    between atoms: C_42  and  C_58
   23  A    between atoms: C_45  and  C_56
                            x       y       z     vdW  Elec       q    Type
                         _______ _______ _______ _____ _____    ______ ____

>  <TORSDO>
F 23

$$$$
=
 OpenBabel11042418493D

 60 66  0  0  1  0  0  0  0  0999 V2000
  192.0620  171.7700  141.8040 C   0  0  2  0  0  3  0  0  0  0  0  0
  191.2240  173.5760  139.7440 O   0  0  0  0  0  0  0  0  0  0  0  0
  190.6920  171.9570  141.3460 N   0  0  0  0  0  2  0  0  0  0  0  0
  190.3380  172.8920  140.3240 C   0  0  0  0  0  0  0  0  0  0  0  0
  188.9090  173.0430  139.9320 C   0  0  0  0  0  2  0  0  0  0  0  0
  188.1170  173.3860  141.1010 N   0  0  0  0  0  2  0  0  0  0  0  0
  188.1240  175.1470  141.2290 S   0  0  0  0  0  0  0  0  0  0  0  0
  190.9590  178.4040  143.4330 C   0  0  0  0  0  2  0  0  0  0  0  0
  189.7380  177.4980  143.2230 C   0  0  2  0  0  3  0  0  0  0  0  0
  187.8870  176.5710  144.5650 C   0  0  0  0  0  0  0  0  0  0  0  0
  192.1500  177.6360  144.0000 C   0  0  0  0  0  2  0  0  0  0  0  0
  191.3170  175.5850  142.8900 C   0  0  0  0  0  3  0  0  0  0  0  0
  188.9010  175.1110  142.8750 C   0  0  1  0  0  3  0  0  0  0  0  0
  192.4960  176.4960  143.0500 C   0  0  0  0  0  2  0  0  0  0  0  0
  188.8690  177.5520  144.3490 O   0  0  0  0  0  0  0  0  0  0  0  0
  190.0610  176.0560  142.9150 C   0  0  0  0  0  0  0  0  0  0  0  0
  187.9100  175.4480  143.9050 N   0  0  0  0  0  0  0  0  0  0  0  0
  187.4200  177.3670  146.8750 C   0  0  0  0  0  1  0  0  0  0  0  0
  186.8280  176.7780  145.6040 C   0  0  1  0  0  3  0  0  0  0  0  0
  185.4400  179.8410  144.2290 C   0  0  0  0  0  2  0  0  0  0  0  0
  185.6100  177.5790  145.1220 C   0  0  0  0  0  3  0  0  0  0  0  0
  184.8930  178.8610  143.2150 C   0  0  0  0  0  2  0  0  0  0  0  0
  185.6520  179.0530  145.5070 C   0  0  0  0  0  2  0  0  0  0  0  0
  185.4470  177.5130  143.6140 C   0  0  0  0  0  2  0  0  0  0  0  0
  192.7430  170.7150  140.9410 C   0  0  0  0  0  2  0  0  0  0  0  0
  194.3420  172.4280  140.5200 O   0  0  0  0  0  0  0  0  0  0  0  0
  193.9390  171.2690  140.2430 C   0  0  0  0  0  0  0  0  0  0  0  0
  194.5960  170.4930  139.2900 O   0  0  0  0  0  0  0  0  0  0  0  0
  193.9240  169.9710  138.1530 C   0  0  0  0  0  2  0  0  0  0  0  0
  194.5230  170.5640  136.8940 C   0  0  0  0  0  2  0  0  0  0  0  0
  193.7120  173.1340  134.6990 C   0  0  0  0  0  2  0  0  0  0  0  0
  193.6800  171.7860  135.0350 O   0  0  0  0  0  0  0  0  0  0  0  0
  194.2530  173.8720  135.8940 C   0  0  1  0  0  0  0  0  0  0  0  0
  193.7160  171.7670  136.4370 C   0  0  2  0  0  3  0  0  0  0  0  0
  194.2970  172.9460  136.9420 O   0  0  0  0  0  0  0  0  0  0  0  0
  195.6230  175.6970  135.1080 O   0  0  0  0  0  1  0  0  0  0  0  0
  195.6760  174.4000  135.6260 C   0  0  1  0  0  3  0  0  0  0  0  0
  196.5500  174.3850  136.8780 C   0  0  0  0  0  2  0  0  0  0  0  0
  197.4330  175.6150  136.9110 C   0  0  0  0  0  1  0  0  0  0  0  0
  193.3040  175.4620  137.4180 O   0  0  0  0  0  0  0  0  0  0  0  0
  193.3060  175.0070  136.2430 C   0  0  0  0  0  0  0  0  0  0  0  0
  192.4050  175.5630  135.3230 O   0  0  0  0  0  0  0  0  0  0  0  0
  190.9980  175.3500  135.3470 C   0  0  0  0  0  2  0  0  0  0  0  0
  190.7010  174.2310  136.1250 O   0  0  0  0  0  0  0  0  0  0  0  0
  189.3470  174.3670  136.4300 C   0  0  0  0  0  1  0  0  0  0  0  0
  192.0480  171.3250  143.2640 C   0  0  0  0  0  2  0  0  0  0  0  0
  192.4120  173.0930  144.9080 C   0  0  0  0  0  2  0  0  0  0  0  0
  194.8250  173.5470  145.2000 C   0  0  2  0  0  3  0  0  0  0  0  0
  193.1440  174.7710  146.4160 O   0  0  0  0  0  0  0  0  0  0  0  0
  192.9320  172.1480  144.1500 C   0  0  2  0  0  3  0  0  0  0  0  0
  194.7270  171.9950  144.2270 S   0  0  0  0  0  0  0  0  0  0  0  0
  193.4270  173.8670  145.5900 C   0  0  0  0  0  0  0  0  0  0  0  0
  195.6020  174.6390  143.0730 C   0  0  0  0  0  3  0  0  0  0  0  0
  196.0090  175.9290  142.7840 C   0  0  0  0  0  0  0  0  0  0  0  0
  195.3810  174.6380  144.4030 N   0  0  0  0  0  0  0  0  0  0  0  0
  195.6220  175.8460  144.8860 N   0  0  0  0  0  0  0  0  0  0  0  0
  196.0210  176.6560  143.9180 N   0  0  0  0  0  0  0  0  0  0  0  0
  197.1780  175.4020  140.6620 C   0  0  0  0  0  2  0  0  0  0  0  0
  196.4270  176.4590  141.4500 C   0  0  0  0  0  3  0  0  0  0  0  0
  195.7240  175.6780  140.3560 C   0  0  0  0  0  2  0  0  0  0  0  0
  1 25  1  6  0  0  0
  1 46  1  0  0  0  0
  2  4  2  0  0  0  0
  3  1  1  0  0  0  0
  4  3  1  0  0  0  0
  5  4  1  0  0  0  0
  5  6  1  0  0  0  0
  6  7  1  0  0  0  0
  8 11  1  0  0  0  0
  9  8  1  1  0  0  0
  9 15  1  0  0  0  0
 10 19  1  0  0  0  0
 12 16  2  0  0  0  0
 12 14  1  0  0  0  0
 13  7  1  6  0  0  0
 13 16  1  0  0  0  0
 13 17  1  0  0  0  0
 14 11  1  0  0  0  0
 15 10  1  0  0  0  0
 16  9  1  0  0  0  0
 17 10  2  0  0  0  0
 19 18  1  1  0  0  0
 20 23  1  0  0  0  0
 21 23  1  0  0  0  0
 21 19  1  0  0  0  0
 22 24  1  0  0  0  0
 22 20  1  0  0  0  0
 24 21  1  0  0  0  0
 27 26  2  0  0  0  0
 27 25  1  0  0  0  0
 28 27  1  0  0  0  0
 29 28  1  0  0  0  0
 30 29  1  0  0  0  0
 31 32  1  0  0  0  0
 31 33  1  0  0  0  0
 32 34  1  0  0  0  0
 33 41  1  1  0  0  0
 33 35  1  0  0  0  0
 34 30  1  6  0  0  0
 34 35  1  0  0  0  0
 37 36  1  1  0  0  0
 37 33  1  0  0  0  0
 37 38  1  0  0  0  0
 38 39  1  0  0  0  0
 41 40  2  0  0  0  0
 42 43  1  0  0  0  0
 42 41  1  0  0  0  0
 43 44  1  0  0  0  0
 44 45  1  0  0  0  0
 47 52  1  0  0  0  0
 48 55  1  6  0  0  0
 48 52  1  0  0  0  0
 50 46  1  6  0  0  0
 50 51  1  0  0  0  0
 50 47  1  0  0  0  0
 51 48  1  0  0  0  0
 52 49  2  0  0  0  0
 53 55  1  0  0  0  0
 54 53  2  0  0  0  0
 54 57  1  0  0  0  0
 55 56  1  0  0  0  0
 57 56  2  0  0  0  0
 58 59  1  0  0  0  0
 59 54  1  0  0  0  0
 60 58  1  0  0  0  0
 60 59  1  0  0  0  0
M  END
>  <MODEL>
2

>  <REMARK>
 VINA RESULT:      -6.2      2.896      7.607
  Name = 
  23 active torsions:
  status: ('A' for Active; 'I' for Inactive)
    1  A    between atoms: C_1  and  C_31
    2  A    between atoms: C_1  and  N_52
    3  A    between atoms: C_1  and  C_56
    4  A    between atoms: O_3  and  C_39
    5  A    between atoms: N_4  and  C_32
    6  A    between atoms: N_4  and  S_54
    7  A    between atoms: C_9  and  N_16
    8  A    between atoms: O_11  and  C_39
    9  A    between atoms: O_11  and  C_57
   10  A    between atoms: C_14  and  C_33
   11  A    between atoms: C_17  and  C_18
   12  A    between atoms: C_18  and  C_24
   13  A    between atoms: C_19  and  O_30
   14  A    between atoms: C_19  and  C_31
   15  A    between atoms: C_22  and  C_55
   16  A    between atoms: C_22  and  C_57
   17  A    between atoms: C_23  and  C_55
   18  A    between atoms: C_29  and  S_54
   19  A    between atoms: O_30  and  C_41
   20  A    between atoms: C_32  and  C_53
   21  A    between atoms: C_41  and  C_58
   22  A    between atoms: C_42  and  C_58
   23  A    between atoms: C_45  and  C_56
                            x       y       z     vdW  Elec       q    Type
                         _______ _______ _______ _____ _____    ______ ____

>  <TORSDO>
F 23

$$$$
=
 OpenBabel11042418493D

 60 66  0  0  1  0  0  0  0  0999 V2000
  192.0090  171.3300  141.4770 C   0  0  2  0  0  3  0  0  0  0  0  0
  191.0660  173.4710  139.8220 O   0  0  0  0  0  0  0  0  0  0  0  0
  190.6210  171.5650  141.1020 N   0  0  0  0  0  2  0  0  0  0  0  0
  190.2140  172.6660  140.2880 C   0  0  0  0  0  0  0  0  0  0  0  0
  188.7710  172.8510  139.9720 C   0  0  0  0  0  2  0  0  0  0  0  0
  188.0780  173.3630  141.1430 N   0  0  0  0  0  2  0  0  0  0  0  0
  188.3950  175.1000  141.2100 S   0  0  0  0  0  0  0  0  0  0  0  0
  191.2660  178.2740  143.4860 C   0  0  0  0  0  2  0  0  0  0  0  0
  190.0600  177.3470  143.2790 C   0  0  2  0  0  3  0  0  0  0  0  0
  188.3190  176.2650  144.6520 C   0  0  0  0  0  0  0  0  0  0  0  0
  192.5100  177.5050  143.9240 C   0  0  0  0  0  2  0  0  0  0  0  0
  191.6690  175.5160  142.7110 C   0  0  0  0  0  3  0  0  0  0  0  0
  189.2710  174.9670  142.8000 C   0  0  1  0  0  3  0  0  0  0  0  0
  192.8290  176.4500  142.8710 C   0  0  0  0  0  2  0  0  0  0  0  0
  189.2590  177.2900  144.4540 O   0  0  0  0  0  0  0  0  0  0  0  0
  190.4040  175.9430  142.8440 C   0  0  0  0  0  0  0  0  0  0  0  0
  188.3340  175.1950  143.9080 N   0  0  0  0  0  0  0  0  0  0  0  0
  187.9370  175.9420  147.0880 C   0  0  0  0  0  1  0  0  0  0  0  0
  187.3190  176.3590  145.7630 C   0  0  1  0  0  3  0  0  0  0  0  0
  184.2980  178.2760  146.3950 C   0  0  0  0  0  2  0  0  0  0  0  0
  186.6130  177.7180  145.8700 C   0  0  0  0  0  3  0  0  0  0  0  0
  185.2130  178.9450  147.3970 C   0  0  0  0  0  2  0  0  0  0  0  0
  185.1960  177.7210  145.3080 C   0  0  0  0  0  2  0  0  0  0  0  0
  186.5260  178.2010  147.3070 C   0  0  0  0  0  2  0  0  0  0  0  0
  192.6520  170.3850  140.4680 C   0  0  0  0  0  2  0  0  0  0  0  0
  194.4570  171.9370  140.5110 O   0  0  0  0  0  0  0  0  0  0  0  0
  193.9500  170.9230  139.9670 C   0  0  0  0  0  0  0  0  0  0  0  0
  194.5840  170.2930  138.8980 O   0  0  0  0  0  0  0  0  0  0  0  0
  193.8630  169.8120  137.7740 C   0  0  0  0  0  2  0  0  0  0  0  0
  194.0930  170.7320  136.5920 C   0  0  0  0  0  2  0  0  0  0  0  0
  192.1140  172.9730  134.8200 C   0  0  0  0  0  2  0  0  0  0  0  0
  192.9850  171.8910  134.8340 O   0  0  0  0  0  0  0  0  0  0  0  0
  191.7470  173.2610  136.2510 C   0  0  1  0  0  0  0  0  0  0  0  0
  192.7730  171.2780  136.0780 C   0  0  2  0  0  3  0  0  0  0  0  0
  192.2450  172.1950  137.0070 O   0  0  0  0  0  0  0  0  0  0  0  0
  193.3680  174.3030  137.7040 O   0  0  0  0  0  1  0  0  0  0  0  0
  192.3950  174.5720  136.7380 C   0  0  1  0  0  3  0  0  0  0  0  0
  193.0150  175.3760  135.5980 C   0  0  0  0  0  2  0  0  0  0  0  0
  192.2270  176.6500  135.3710 C   0  0  0  0  0  1  0  0  0  0  0  0
  189.5960  172.2620  136.6010 O   0  0  0  0  0  0  0  0  0  0  0  0
  190.2340  173.3220  136.3700 C   0  0  0  0  0  0  0  0  0  0  0  0
  189.5010  174.5070  136.2060 O   0  0  0  0  0  0  0  0  0  0  0  0
  188.2650  174.7840  136.8540 C   0  0  0  0  0  2  0  0  0  0  0  0
  187.6870  175.9280  136.3050 O   0  0  0  0  0  0  0  0  0  0  0  0
  186.4240  175.9980  136.8900 C   0  0  0  0  0  1  0  0  0  0  0  0
  192.0570  170.7180  142.8740 C   0  0  0  0  0  2  0  0  0  0  0  0
  192.3050  172.5420  144.4780 C   0  0  0  0  0  2  0  0  0  0  0  0
  194.6720  172.8310  145.1310 C   0  0  2  0  0  3  0  0  0  0  0  0
  192.9290  174.2410  146.0100 O   0  0  0  0  0  0  0  0  0  0  0  0
  192.8570  171.5210  143.8540 C   0  0  2  0  0  3  0  0  0  0  0  0
  194.6000  171.2400  144.2210 S   0  0  0  0  0  0  0  0  0  0  0  0
  193.2620  173.2740  145.2790 C   0  0  0  0  0  0  0  0  0  0  0  0
  195.5100  173.9600  143.0470 C   0  0  0  0  0  3  0  0  0  0  0  0
  196.2370  175.1200  142.8440 C   0  0  0  0  0  0  0  0  0  0  0  0
  195.4330  173.8320  144.3860 N   0  0  0  0  0  0  0  0  0  0  0  0
  196.0540  174.8500  144.9580 N   0  0  0  0  0  0  0  0  0  0  0  0
  196.5680  175.6500  144.0380 N   0  0  0  0  0  0  0  0  0  0  0  0
  196.8820  174.6020  140.5080 C   0  0  0  0  0  2  0  0  0  0  0  0
  196.6520  175.6980  141.5300 C   0  0  0  0  0  3  0  0  0  0  0  0
  195.5940  175.3910  140.4880 C   0  0  0  0  0  2  0  0  0  0  0  0
  1 25  1  6  0  0  0
  1 46  1  0  0  0  0
  2  4  2  0  0  0  0
  3  1  1  0  0  0  0
  4  3  1  0  0  0  0
  5  4  1  0  0  0  0
  5  6  1  0  0  0  0
  6  7  1  0  0  0  0
  8 11  1  0  0  0  0
  9  8  1  1  0  0  0
  9 15  1  0  0  0  0
 10 19  1  0  0  0  0
 12 16  2  0  0  0  0
 12 14  1  0  0  0  0
 13  7  1  6  0  0  0
 13 16  1  0  0  0  0
 13 17  1  0  0  0  0
 14 11  1  0  0  0  0
 15 10  1  0  0  0  0
 16  9  1  0  0  0  0
 17 10  2  0  0  0  0
 19 21  1  0  0  0  0
 19 18  1  1  0  0  0
 20 22  1  0  0  0  0
 21 24  1  0  0  0  0
 23 21  1  0  0  0  0
 23 20  1  0  0  0  0
 24 22  1  0  0  0  0
 27 25  1  0  0  0  0
 27 26  2  0  0  0  0
 28 27  1  0  0  0  0
 29 28  1  0  0  0  0
 30 29  1  0  0  0  0
 31 32  1  0  0  0  0
 31 33  1  0  0  0  0
 32 34  1  0  0  0  0
 33 41  1  1  0  0  0
 33 37  1  0  0  0  0
 33 35  1  0  0  0  0
 34 30  1  1  0  0  0
 34 35  1  0  0  0  0
 37 36  1  1  0  0  0
 38 37  1  0  0  0  0
 39 38  1  0  0  0  0
 41 40  2  0  0  0  0
 42 41  1  0  0  0  0
 42 43  1  0  0  0  0
 44 43  1  0  0  0  0
 44 45  1  0  0  0  0
 47 52  1  0  0  0  0
 48 55  1  6  0  0  0
 48 52  1  0  0  0  0
 50 46  1  6  0  0  0
 50 51  1  0  0  0  0
 50 47  1  0  0  0  0
 51 48  1  0  0  0  0
 52 49  2  0  0  0  0
 53 55  1  0  0  0  0
 54 53  2  0  0  0  0
 54 57  1  0  0  0  0
 55 56  1  0  0  0  0
 57 56  2  0  0  0  0
 58 59  1  0  0  0  0
 59 54  1  0  0  0  0
 60 58  1  0  0  0  0
 60 59  1  0  0  0  0
M  END
>  <MODEL>
3

>  <REMARK>
 VINA RESULT:      -6.0      3.111      7.532
  Name = 
  23 active torsions:
  status: ('A' for Active; 'I' for Inactive)
    1  A    between atoms: C_1  and  C_31
    2  A    between atoms: C_1  and  N_52
    3  A    between atoms: C_1  and  C_56
    4  A    between atoms: O_3  and  C_39
    5  A    between atoms: N_4  and  C_32
    6  A    between atoms: N_4  and  S_54
    7  A    between atoms: C_9  and  N_16
    8  A    between atoms: O_11  and  C_39
    9  A    between atoms: O_11  and  C_57
   10  A    between atoms: C_14  and  C_33
   11  A    between atoms: C_17  and  C_18
   12  A    between atoms: C_18  and  C_24
   13  A    between atoms: C_19  and  O_30
   14  A    between atoms: C_19  and  C_31
   15  A    between atoms: C_22  and  C_55
   16  A    between atoms: C_22  and  C_57
   17  A    between atoms: C_23  and  C_55
   18  A    between atoms: C_29  and  S_54
   19  A    between atoms: O_30  and  C_41
   20  A    between atoms: C_32  and  C_53
   21  A    between atoms: C_41  and  C_58
   22  A    between atoms: C_42  and  C_58
   23  A    between atoms: C_45  and  C_56
                            x       y       z     vdW  Elec       q    Type
                         _______ _______ _______ _____ _____    ______ ____

>  <TORSDO>
F 23

$$$$
=
 OpenBabel11042418493D

 60 66  0  0  1  0  0  0  0  0999 V2000
  189.6200  175.7680  146.1800 C   0  0  2  0  0  3  0  0  0  0  0  0
  190.6350  176.7300  143.6790 O   0  0  0  0  0  0  0  0  0  0  0  0
  189.6050  175.0370  144.9200 N   0  0  0  0  0  2  0  0  0  0  0  0
  190.1100  175.5840  143.7010 C   0  0  0  0  0  0  0  0  0  0  0  0
  190.0320  174.7810  142.4490 C   0  0  0  0  0  2  0  0  0  0  0  0
  189.2980  173.5530  142.7040 N   0  0  0  0  0  2  0  0  0  0  0  0
  188.9100  172.8490  141.1310 S   0  0  0  0  0  0  0  0  0  0  0  0
  191.3390  168.8460  139.8790 C   0  0  0  0  0  2  0  0  0  0  0  0
  190.7680  170.2630  139.7310 C   0  0  2  0  0  3  0  0  0  0  0  0
  191.1430  172.2560  138.3260 C   0  0  0  0  0  0  0  0  0  0  0  0
  192.6160  168.8270  140.7150 C   0  0  0  0  0  2  0  0  0  0  0  0
  191.8050  170.8230  141.9390 C   0  0  0  0  0  3  0  0  0  0  0  0
  190.6640  172.6210  140.7040 C   0  0  1  0  0  3  0  0  0  0  0  0
  192.3120  169.4200  142.0860 C   0  0  0  0  0  2  0  0  0  0  0  0
  191.2230  170.8680  138.5260 O   0  0  0  0  0  0  0  0  0  0  0  0
  191.0540  171.1880  140.8890 C   0  0  0  0  0  0  0  0  0  0  0  0
  190.9050  173.0600  139.3230 N   0  0  0  0  0  0  0  0  0  0  0  0
  190.8870  171.9110  135.8760 C   0  0  0  0  0  1  0  0  0  0  0  0
  191.3900  172.8400  136.9690 C   0  0  1  0  0  3  0  0  0  0  0  0
  190.9620  175.7750  134.8700 C   0  0  0  0  0  2  0  0  0  0  0  0
  190.8600  174.2700  136.7850 C   0  0  0  0  0  3  0  0  0  0  0  0
  189.5160  175.5470  135.2500 C   0  0  0  0  0  2  0  0  0  0  0  0
  191.7930  175.1730  135.9850 C   0  0  0  0  0  2  0  0  0  0  0  0
  189.5110  174.2910  136.0900 C   0  0  0  0  0  2  0  0  0  0  0  0
  190.7180  175.2070  147.0760 C   0  0  0  0  0  2  0  0  0  0  0  0
  191.2130  177.1150  148.4110 O   0  0  0  0  0  0  0  0  0  0  0  0
  191.6280  176.2830  147.5640 C   0  0  0  0  0  0  0  0  0  0  0  0
  192.9300  176.3550  147.0720 O   0  0  0  0  0  0  0  0  0  0  0  0
  193.2900  175.8000  145.8150 C   0  0  0  0  0  2  0  0  0  0  0  0
  194.6690  176.2900  145.4220 C   0  0  0  0  0  2  0  0  0  0  0  0
  196.7270  174.0930  143.6840 C   0  0  0  0  0  2  0  0  0  0  0  0
  196.5000  175.3510  144.2280 O   0  0  0  0  0  0  0  0  0  0  0  0
  195.6100  173.2020  144.1580 C   0  0  1  0  0  0  0  0  0  0  0  0
  195.6350  175.1230  145.3080 C   0  0  2  0  0  3  0  0  0  0  0  0
  194.9140  173.9270  145.1310 O   0  0  0  0  0  0  0  0  0  0  0  0
  193.5660  173.7380  142.9890 O   0  0  0  0  0  1  0  0  0  0  0  0
  194.6480  172.8540  143.0040 C   0  0  1  0  0  3  0  0  0  0  0  0
  195.3400  172.8710  141.6430 C   0  0  0  0  0  2  0  0  0  0  0  0
  195.7020  171.4600  141.2260 C   0  0  0  0  0  1  0  0  0  0  0  0
  197.4030  171.9630  145.1560 O   0  0  0  0  0  0  0  0  0  0  0  0
  196.2040  171.9460  144.7700 C   0  0  0  0  0  0  0  0  0  0  0  0
  195.4880  170.7470  144.9040 O   0  0  0  0  0  0  0  0  0  0  0  0
  194.4680  170.5240  145.8700 C   0  0  0  0  0  2  0  0  0  0  0  0
  194.8640  169.5210  146.7550 O   0  0  0  0  0  0  0  0  0  0  0  0
  195.4570  168.5530  145.9460 C   0  0  0  0  0  1  0  0  0  0  0  0
  188.2630  175.6260  146.8620 C   0  0  0  0  0  2  0  0  0  0  0  0
  186.2270  176.8870  147.3370 C   0  0  0  0  0  2  0  0  0  0  0  0
  186.0620  178.8810  145.8850 C   0  0  2  0  0  3  0  0  0  0  0  0
  184.3620  178.3420  147.5030 O   0  0  0  0  0  0  0  0  0  0  0  0
  187.3870  176.8320  146.7150 C   0  0  2  0  0  3  0  0  0  0  0  0
  187.7700  178.2480  145.6650 S   0  0  0  0  0  0  0  0  0  0  0  0
  185.4660  178.0620  146.9710 C   0  0  0  0  0  0  0  0  0  0  0  0
  185.6600  178.1070  143.5270 C   0  0  0  0  0  3  0  0  0  0  0  0
  184.5360  178.1210  142.7220 C   0  0  0  0  0  0  0  0  0  0  0  0
  185.2800  178.7300  144.6600 N   0  0  0  0  0  0  0  0  0  0  0  0
  184.0090  179.0820  144.5580 N   0  0  0  0  0  0  0  0  0  0  0  0
  183.5290  178.7330  143.3750 N   0  0  0  0  0  0  0  0  0  0  0  0
  184.4170  178.7330  140.3220 C   0  0  0  0  0  2  0  0  0  0  0  0
  184.4280  177.5960  141.3260 C   0  0  0  0  0  3  0  0  0  0  0  0
  185.6860  177.9480  140.5570 C   0  0  0  0  0  2  0  0  0  0  0  0
  1 46  1  1  0  0  0
  1 25  1  0  0  0  0
  2  4  2  0  0  0  0
  3  1  1  0  0  0  0
  4  3  1  0  0  0  0
  5  6  1  0  0  0  0
  5  4  1  0  0  0  0
  7  6  1  0  0  0  0
  8 11  1  0  0  0  0
  9  8  1  1  0  0  0
  9 16  1  0  0  0  0
 10 15  1  0  0  0  0
 10 17  2  0  0  0  0
 11 14  1  0  0  0  0
 12 14  1  0  0  0  0
 13 16  1  0  0  0  0
 13  7  1  6  0  0  0
 15  9  1  0  0  0  0
 16 12  2  0  0  0  0
 17 13  1  0  0  0  0
 19 18  1  6  0  0  0
 19 10  1  0  0  0  0
 20 22  1  0  0  0  0
 20 23  1  0  0  0  0
 21 19  1  0  0  0  0
 22 24  1  0  0  0  0
 23 21  1  0  0  0  0
 24 21  1  0  0  0  0
 25 27  1  0  0  0  0
 27 26  2  0  0  0  0
 28 27  1  0  0  0  0
 29 28  1  0  0  0  0
 30 29  1  0  0  0  0
 31 33  1  0  0  0  0
 31 32  1  0  0  0  0
 32 34  1  0  0  0  0
 33 41  1  1  0  0  0
 33 35  1  0  0  0  0
 34 30  1  6  0  0  0
 35 34  1  0  0  0  0
 37 36  1  6  0  0  0
 37 33  1  0  0  0  0
 38 37  1  0  0  0  0
 39 38  1  0  0  0  0
 41 42  1  0  0  0  0
 41 40  2  0  0  0  0
 42 43  1  0  0  0  0
 43 44  1  0  0  0  0
 45 44  1  0  0  0  0
 48 55  1  6  0  0  0
 48 52  1  0  0  0  0
 50 46  1  6  0  0  0
 50 47  1  0  0  0  0
 51 48  1  0  0  0  0
 51 50  1  0  0  0  0
 52 47  1  0  0  0  0
 52 49  2  0  0  0  0
 53 55  1  0  0  0  0
 54 57  1  0  0  0  0
 54 53  2  0  0  0  0
 56 55  1  0  0  0  0
 57 56  2  0  0  0  0
 58 60  1  0  0  0  0
 58 59  1  0  0  0  0
 59 54  1  0  0  0  0
 60 59  1  0  0  0  0
M  END
>  <MODEL>
4

>  <REMARK>
 VINA RESULT:      -6.0      2.589      7.152
  Name = 
  23 active torsions:
  status: ('A' for Active; 'I' for Inactive)
    1  A    between atoms: C_1  and  C_31
    2  A    between atoms: C_1  and  N_52
    3  A    between atoms: C_1  and  C_56
    4  A    between atoms: O_3  and  C_39
    5  A    between atoms: N_4  and  C_32
    6  A    between atoms: N_4  and  S_54
    7  A    between atoms: C_9  and  N_16
    8  A    between atoms: O_11  and  C_39
    9  A    between atoms: O_11  and  C_57
   10  A    between atoms: C_14  and  C_33
   11  A    between atoms: C_17  and  C_18
   12  A    between atoms: C_18  and  C_24
   13  A    between atoms: C_19  and  O_30
   14  A    between atoms: C_19  and  C_31
   15  A    between atoms: C_22  and  C_55
   16  A    between atoms: C_22  and  C_57
   17  A    between atoms: C_23  and  C_55
   18  A    between atoms: C_29  and  S_54
   19  A    between atoms: O_30  and  C_41
   20  A    between atoms: C_32  and  C_53
   21  A    between atoms: C_41  and  C_58
   22  A    between atoms: C_42  and  C_58
   23  A    between atoms: C_45  and  C_56
                            x       y       z     vdW  Elec       q    Type
                         _______ _______ _______ _____ _____    ______ ____

>  <TORSDO>
F 23

$$$$
=
 OpenBabel11042418493D

 60 66  0  0  1  0  0  0  0  0999 V2000
  192.3370  173.3870  141.0210 C   0  0  2  0  0  3  0  0  0  0  0  0
  190.8550  175.5100  142.2470 O   0  0  0  0  0  0  0  0  0  0  0  0
  190.8870  173.4450  141.1500 N   0  0  0  0  0  2  0  0  0  0  0  0
  190.2100  174.5270  141.7930 C   0  0  0  0  0  0  0  0  0  0  0  0
  188.7260  174.4980  141.9080 C   0  0  0  0  0  2  0  0  0  0  0  0
  188.3090  175.3120  143.0370 N   0  0  0  0  0  2  0  0  0  0  0  0
  187.3620  176.6520  142.3840 S   0  0  0  0  0  0  0  0  0  0  0  0
  184.8230  177.0960  146.4890 C   0  0  0  0  0  2  0  0  0  0  0  0
  186.0340  176.7910  145.5960 C   0  0  2  0  0  3  0  0  0  0  0  0
  188.4730  176.5160  145.8420 C   0  0  0  0  0  0  0  0  0  0  0  0
  184.6650  178.5920  146.7480 C   0  0  0  0  0  2  0  0  0  0  0  0
  185.7380  179.0510  144.5630 C   0  0  0  0  0  3  0  0  0  0  0  0
  187.6610  177.6920  143.8480 C   0  0  1  0  0  3  0  0  0  0  0  0
  184.5280  179.3090  145.4100 C   0  0  0  0  0  2  0  0  0  0  0  0
  187.1780  176.4820  146.3840 O   0  0  0  0  0  0  0  0  0  0  0  0
  186.3880  177.8790  144.6120 C   0  0  0  0  0  0  0  0  0  0  0  0
  188.6990  177.0840  144.6910 N   0  0  0  0  0  0  0  0  0  0  0  0
  189.2450  174.6460  147.2880 C   0  0  0  0  0  1  0  0  0  0  0  0
  189.6290  175.9510  146.6080 C   0  0  1  0  0  3  0  0  0  0  0  0
  193.1760  175.1740  146.4790 C   0  0  0  0  0  2  0  0  0  0  0  0
  190.9230  175.8060  145.7940 C   0  0  0  0  0  3  0  0  0  0  0  0
  192.6880  174.2110  145.4200 C   0  0  0  0  0  2  0  0  0  0  0  0
  192.1670  176.3030  146.5220 C   0  0  0  0  0  2  0  0  0  0  0  0
  191.1850  174.3650  145.3950 C   0  0  0  0  0  2  0  0  0  0  0  0
  192.7530  174.0270  139.7010 C   0  0  0  0  0  2  0  0  0  0  0  0
  194.7930  174.9750  138.9210 O   0  0  0  0  0  0  0  0  0  0  0  0
  193.9680  174.8770  139.8650 C   0  0  0  0  0  0  0  0  0  0  0  0
  194.1740  175.5500  141.0680 O   0  0  0  0  0  0  0  0  0  0  0  0
  195.2800  176.4210  141.2610 C   0  0  0  0  0  2  0  0  0  0  0  0
  196.4650  175.6280  141.7740 C   0  0  0  0  0  2  0  0  0  0  0  0
  197.2070  174.1500  144.8300 C   0  0  0  0  0  2  0  0  0  0  0  0
  197.0390  175.2920  144.0580 O   0  0  0  0  0  0  0  0  0  0  0  0
  196.7430  172.9850  143.9990 C   0  0  1  0  0  0  0  0  0  0  0  0
  196.1130  174.9230  143.0710 C   0  0  2  0  0  3  0  0  0  0  0  0
  196.1200  173.5300  142.8700 O   0  0  0  0  0  0  0  0  0  0  0  0
  197.9280  170.8950  144.2330 O   0  0  0  0  0  1  0  0  0  0  0  0
  197.9320  172.1130  143.5480 C   0  0  1  0  0  3  0  0  0  0  0  0
  197.9270  171.8530  142.0430 C   0  0  0  0  0  2  0  0  0  0  0  0
  197.2730  170.5190  141.7480 C   0  0  0  0  0  1  0  0  0  0  0  0
  195.8110  172.1900  146.0600 O   0  0  0  0  0  0  0  0  0  0  0  0
  195.7440  172.1710  144.8030 C   0  0  0  0  0  0  0  0  0  0  0  0
  194.7570  171.3680  144.2100 O   0  0  0  0  0  0  0  0  0  0  0  0
  193.8830  170.5060  144.9290 C   0  0  0  0  0  2  0  0  0  0  0  0
  192.8330  170.1010  144.1060 O   0  0  0  0  0  0  0  0  0  0  0  0
  193.2960  168.9390  143.4920 C   0  0  0  0  0  1  0  0  0  0  0  0
  192.7880  171.9290  141.0610 C   0  0  0  0  0  2  0  0  0  0  0  0
  193.5870  170.9090  138.9920 C   0  0  0  0  0  2  0  0  0  0  0  0
  191.6960  170.2930  137.5220 C   0  0  2  0  0  3  0  0  0  0  0  0
  193.9850  169.9110  136.8780 O   0  0  0  0  0  0  0  0  0  0  0  0
  192.5650  171.1960  139.7740 C   0  0  2  0  0  3  0  0  0  0  0  0
  190.9470  170.7090  139.1440 S   0  0  0  0  0  0  0  0  0  0  0  0
  193.1660  170.3230  137.7370 C   0  0  0  0  0  0  0  0  0  0  0  0
  190.1630  171.9500  136.4160 C   0  0  0  0  0  3  0  0  0  0  0  0
  190.3460  172.8310  135.3660 C   0  0  0  0  0  0  0  0  0  0  0  0
  191.3230  171.2690  136.5000 N   0  0  0  0  0  0  0  0  0  0  0  0
  192.1590  171.7150  135.5770 N   0  0  0  0  0  0  0  0  0  0  0  0
  191.5830  172.6650  134.8580 N   0  0  0  0  0  0  0  0  0  0  0  0
  189.0850  174.9200  135.8000 C   0  0  0  0  0  2  0  0  0  0  0  0
  189.3420  173.7930  134.8180 C   0  0  0  0  0  3  0  0  0  0  0  0
  189.9980  175.1460  134.6170 C   0  0  0  0  0  2  0  0  0  0  0  0
  1 25  1  6  0  0  0
  1 46  1  0  0  0  0
  1  3  1  0  0  0  0
  3  4  1  0  0  0  0
  4  5  1  0  0  0  0
  4  2  2  0  0  0  0
  5  6  1  0  0  0  0
  7  6  1  0  0  0  0
  8 11  1  0  0  0  0
  9 15  1  0  0  0  0
  9  8  1  1  0  0  0
 10 15  1  0  0  0  0
 10 19  1  0  0  0  0
 12 16  2  0  0  0  0
 12 14  1  0  0  0  0
 13  7  1  6  0  0  0
 13 16  1  0  0  0  0
 13 17  1  0  0  0  0
 14 11  1  0  0  0  0
 16  9  1  0  0  0  0
 17 10  2  0  0  0  0
 19 18  1  6  0  0  0
 20 23  1  0  0  0  0
 21 23  1  0  0  0  0
 21 19  1  0  0  0  0
 22 20  1  0  0  0  0
 24 22  1  0  0  0  0
 24 21  1  0  0  0  0
 25 27  1  0  0  0  0
 26 27  2  0  0  0  0
 27 28  1  0  0  0  0
 28 29  1  0  0  0  0
 29 30  1  0  0  0  0
 32 31  1  0  0  0  0
 33 41  1  1  0  0  0
 33 31  1  0  0  0  0
 34 30  1  6  0  0  0
 34 32  1  0  0  0  0
 35 34  1  0  0  0  0
 35 33  1  0  0  0  0
 37 33  1  0  0  0  0
 37 36  1  1  0  0  0
 38 37  1  0  0  0  0
 39 38  1  0  0  0  0
 41 40  2  0  0  0  0
 42 41  1  0  0  0  0
 42 43  1  0  0  0  0
 44 43  1  0  0  0  0
 45 44  1  0  0  0  0
 47 50  1  0  0  0  0
 48 55  1  6  0  0  0
 48 52  1  0  0  0  0
 48 51  1  0  0  0  0
 49 52  2  0  0  0  0
 50 46  1  6  0  0  0
 51 50  1  0  0  0  0
 52 47  1  0  0  0  0
 53 55  1  0  0  0  0
 54 53  2  0  0  0  0
 56 55  1  0  0  0  0
 57 54  1  0  0  0  0
 57 56  2  0  0  0  0
 59 54  1  0  0  0  0
 59 58  1  0  0  0  0
 60 59  1  0  0  0  0
 60 58  1  0  0  0  0
M  END
>  <MODEL>
5

>  <REMARK>
 VINA RESULT:      -5.9      3.063      8.521
  Name = 
  23 active torsions:
  status: ('A' for Active; 'I' for Inactive)
    1  A    between atoms: C_1  and  C_31
    2  A    between atoms: C_1  and  N_52
    3  A    between atoms: C_1  and  C_56
    4  A    between atoms: O_3  and  C_39
    5  A    between atoms: N_4  and  C_32
    6  A    between atoms: N_4  and  S_54
    7  A    between atoms: C_9  and  N_16
    8  A    between atoms: O_11  and  C_39
    9  A    between atoms: O_11  and  C_57
   10  A    between atoms: C_14  and  C_33
   11  A    between atoms: C_17  and  C_18
   12  A    between atoms: C_18  and  C_24
   13  A    between atoms: C_19  and  O_30
   14  A    between atoms: C_19  and  C_31
   15  A    between atoms: C_22  and  C_55
   16  A    between atoms: C_22  and  C_57
   17  A    between atoms: C_23  and  C_55
   18  A    between atoms: C_29  and  S_54
   19  A    between atoms: O_30  and  C_41
   20  A    between atoms: C_32  and  C_53
   21  A    between atoms: C_41  and  C_58
   22  A    between atoms: C_42  and  C_58
   23  A    between atoms: C_45  and  C_56
                            x       y       z     vdW  Elec       q    Type
                         _______ _______ _______ _____ _____    ______ ____

>  <TORSDO>
F 23

$$$$
=
 OpenBabel11042418493D

 60 66  0  0  1  0  0  0  0  0999 V2000
  190.5670  172.7260  139.4000 C   0  0  2  0  0  3  0  0  0  0  0  0
  188.0670  173.9780  138.7740 O   0  0  0  0  0  0  0  0  0  0  0  0
  189.9440  173.8030  140.1580 N   0  0  0  0  0  2  0  0  0  0  0  0
  188.7010  174.3990  139.7780 C   0  0  0  0  0  0  0  0  0  0  0  0
  188.1450  175.5160  140.5910 C   0  0  0  0  0  2  0  0  0  0  0  0
  188.2380  175.1820  142.0030 N   0  0  0  0  0  2  0  0  0  0  0  0
  186.6930  175.6220  142.7370 S   0  0  0  0  0  0  0  0  0  0  0  0
  185.2690  177.5350  146.9580 C   0  0  0  0  0  2  0  0  0  0  0  0
  186.1890  176.8040  145.9700 C   0  0  2  0  0  3  0  0  0  0  0  0
  188.5690  176.1760  145.8010 C   0  0  0  0  0  0  0  0  0  0  0  0
  185.3500  179.0510  146.8010 C   0  0  0  0  0  2  0  0  0  0  0  0
  185.9200  178.7430  144.4110 C   0  0  0  0  0  3  0  0  0  0  0  0
  187.4480  176.9300  143.7530 C   0  0  1  0  0  3  0  0  0  0  0  0
  184.9840  179.4170  145.3680 C   0  0  0  0  0  2  0  0  0  0  0  0
  187.4440  176.5100  146.5730 O   0  0  0  0  0  0  0  0  0  0  0  0
  186.4230  177.5260  144.6650 C   0  0  0  0  0  0  0  0  0  0  0  0
  188.5790  176.3830  144.5140 N   0  0  0  0  0  0  0  0  0  0  0  0
  189.9560  174.1440  146.1680 C   0  0  0  0  0  1  0  0  0  0  0  0
  189.8010  175.6290  146.4550 C   0  0  1  0  0  3  0  0  0  0  0  0
  193.4280  175.8380  146.5230 C   0  0  0  0  0  2  0  0  0  0  0  0
  191.0880  176.4040  146.1380 C   0  0  0  0  0  3  0  0  0  0  0  0
  193.2080  176.0760  145.0460 C   0  0  0  0  0  2  0  0  0  0  0  0
  192.1580  176.2870  147.2180 C   0  0  0  0  0  2  0  0  0  0  0  0
  191.7170  175.9520  144.8330 C   0  0  0  0  0  2  0  0  0  0  0  0
  190.0260  171.3870  139.8890 C   0  0  0  0  0  2  0  0  0  0  0  0
  191.4030  169.7010  140.8520 O   0  0  0  0  0  0  0  0  0  0  0  0
  190.8640  170.8290  140.9890 C   0  0  0  0  0  0  0  0  0  0  0  0
  191.0370  171.5650  142.1600 O   0  0  0  0  0  0  0  0  0  0  0  0
  191.7400  171.0450  143.2780 C   0  0  0  0  0  2  0  0  0  0  0  0
  192.0250  172.1620  144.2620 C   0  0  0  0  0  2  0  0  0  0  0  0
  195.3320  171.9220  143.2220 C   0  0  0  0  0  2  0  0  0  0  0  0
  193.9900  172.1170  142.9220 O   0  0  0  0  0  0  0  0  0  0  0  0
  195.4520  171.9260  144.7220 C   0  0  1  0  0  0  0  0  0  0  0  0
  193.4410  172.6780  144.0850 C   0  0  2  0  0  3  0  0  0  0  0  0
  194.2120  172.3460  145.2160 O   0  0  0  0  0  0  0  0  0  0  0  0
  197.0040  170.4940  145.8920 O   0  0  0  0  0  1  0  0  0  0  0  0
  195.7580  170.5140  145.2600 C   0  0  1  0  0  3  0  0  0  0  0  0
  194.6870  170.0130  146.2260 C   0  0  0  0  0  2  0  0  0  0  0  0
  195.2790  168.9880  147.1720 C   0  0  0  0  0  1  0  0  0  0  0  0
  196.4560  173.4750  146.2520 O   0  0  0  0  0  0  0  0  0  0  0  0
  196.5340  172.9110  145.1290 C   0  0  0  0  0  0  0  0  0  0  0  0
  197.6120  173.2500  144.2970 O   0  0  0  0  0  0  0  0  0  0  0  0
  197.7460  174.4950  143.6220 C   0  0  0  0  0  2  0  0  0  0  0  0
  196.4890  175.0700  143.4330 O   0  0  0  0  0  0  0  0  0  0  0  0
  196.7290  176.4430  143.4310 C   0  0  0  0  0  1  0  0  0  0  0  0
  192.0790  172.7830  139.5950 C   0  0  0  0  0  2  0  0  0  0  0  0
  192.3150  174.1860  137.6100 C   0  0  0  0  0  2  0  0  0  0  0  0
  194.3890  175.5280  137.7160 C   0  0  2  0  0  3  0  0  0  0  0  0
  192.8880  175.6530  135.8370 O   0  0  0  0  0  0  0  0  0  0  0  0
  192.7430  173.8790  138.8190 C   0  0  2  0  0  3  0  0  0  0  0  0
  194.1760  174.8120  139.3920 S   0  0  0  0  0  0  0  0  0  0  0  0
  193.1570  175.1710  136.9660 C   0  0  0  0  0  0  0  0  0  0  0  0
  195.6380  173.7840  136.4050 C   0  0  0  0  0  3  0  0  0  0  0  0
  196.8990  173.7720  135.8380 C   0  0  0  0  0  0  0  0  0  0  0  0
  195.5600  174.9670  137.0460 N   0  0  0  0  0  0  0  0  0  0  0  0
  196.6880  175.6350  136.8660 N   0  0  0  0  0  0  0  0  0  0  0  0
  197.5330  174.9220  136.1400 N   0  0  0  0  0  0  0  0  0  0  0  0
  197.9080  171.5110  135.9590 C   0  0  0  0  0  2  0  0  0  0  0  0
  197.5170  172.6610  135.0510 C   0  0  0  0  0  3  0  0  0  0  0  0
  196.6380  171.4290  135.1440 C   0  0  0  0  0  2  0  0  0  0  0  0
  1 46  1  1  0  0  0
  1 25  1  0  0  0  0
  1  3  1  0  0  0  0
  2  4  2  0  0  0  0
  4  3  1  0  0  0  0
  4  5  1  0  0  0  0
  5  6  1  0  0  0  0
  6  7  1  0  0  0  0
  9 15  1  0  0  0  0
  9  8  1  1  0  0  0
 10 19  1  0  0  0  0
 10 15  1  0  0  0  0
 11  8  1  0  0  0  0
 12 16  2  0  0  0  0
 12 14  1  0  0  0  0
 13  7  1  1  0  0  0
 13 17  1  0  0  0  0
 13 16  1  0  0  0  0
 14 11  1  0  0  0  0
 16  9  1  0  0  0  0
 17 10  2  0  0  0  0
 19 18  1  6  0  0  0
 20 23  1  0  0  0  0
 21 19  1  0  0  0  0
 21 23  1  0  0  0  0
 22 20  1  0  0  0  0
 24 22  1  0  0  0  0
 24 21  1  0  0  0  0
 25 27  1  0  0  0  0
 26 27  2  0  0  0  0
 27 28  1  0  0  0  0
 28 29  1  0  0  0  0
 29 30  1  0  0  0  0
 31 33  1  0  0  0  0
 32 31  1  0  0  0  0
 32 34  1  0  0  0  0
 33 41  1  1  0  0  0
 33 35  1  0  0  0  0
 33 37  1  0  0  0  0
 34 30  1  1  0  0  0
 34 35  1  0  0  0  0
 37 36  1  1  0  0  0
 37 38  1  0  0  0  0
 38 39  1  0  0  0  0
 41 40  2  0  0  0  0
 42 41  1  0  0  0  0
 43 42  1  0  0  0  0
 44 43  1  0  0  0  0
 45 44  1  0  0  0  0
 47 50  1  0  0  0  0
 48 55  1  6  0  0  0
 48 51  1  0  0  0  0
 49 52  2  0  0  0  0
 50 51  1  0  0  0  0
 50 46  1  6  0  0  0
 52 47  1  0  0  0  0
 52 48  1  0  0  0  0
 53 55  1  0  0  0  0
 54 57  1  0  0  0  0
 54 53  2  0  0  0  0
 56 55  1  0  0  0  0
 57 56  2  0  0  0  0
 59 60  1  0  0  0  0
 59 54  1  0  0  0  0
 59 58  1  0  0  0  0
 60 58  1  0  0  0  0
M  END
>  <MODEL>
6

>  <REMARK>
 VINA RESULT:      -5.8      3.000      9.269
  Name = 
  23 active torsions:
  status: ('A' for Active; 'I' for Inactive)
    1  A    between atoms: C_1  and  C_31
    2  A    between atoms: C_1  and  N_52
    3  A    between atoms: C_1  and  C_56
    4  A    between atoms: O_3  and  C_39
    5  A    between atoms: N_4  and  C_32
    6  A    between atoms: N_4  and  S_54
    7  A    between atoms: C_9  and  N_16
    8  A    between atoms: O_11  and  C_39
    9  A    between atoms: O_11  and  C_57
   10  A    between atoms: C_14  and  C_33
   11  A    between atoms: C_17  and  C_18
   12  A    between atoms: C_18  and  C_24
   13  A    between atoms: C_19  and  O_30
   14  A    between atoms: C_19  and  C_31
   15  A    between atoms: C_22  and  C_55
   16  A    between atoms: C_22  and  C_57
   17  A    between atoms: C_23  and  C_55
   18  A    between atoms: C_29  and  S_54
   19  A    between atoms: O_30  and  C_41
   20  A    between atoms: C_32  and  C_53
   21  A    between atoms: C_41  and  C_58
   22  A    between atoms: C_42  and  C_58
   23  A    between atoms: C_45  and  C_56
                            x       y       z     vdW  Elec       q    Type
                         _______ _______ _______ _____ _____    ______ ____

>  <TORSDO>
F 23

$$$$
=
 OpenBabel11042418493D

 60 66  0  0  1  0  0  0  0  0999 V2000
  190.1900  172.5410  142.7280 C   0  0  2  0  0  3  0  0  0  0  0  0
  190.0170  175.3730  142.3330 O   0  0  0  0  0  0  0  0  0  0  0  0
  188.9590  173.3000  142.5570 N   0  0  0  0  0  2  0  0  0  0  0  0
  188.9410  174.7180  142.3840 C   0  0  0  0  0  0  0  0  0  0  0  0
  187.6370  175.4230  142.2430 C   0  0  0  0  0  2  0  0  0  0  0  0
  187.7480  176.4520  141.2220 N   0  0  0  0  0  2  0  0  0  0  0  0
  187.2220  177.9680  141.9590 S   0  0  0  0  0  0  0  0  0  0  0  0
  184.3540  179.3310  145.6220 C   0  0  0  0  0  2  0  0  0  0  0  0
  184.7450  178.9940  144.1770 C   0  0  2  0  0  3  0  0  0  0  0  0
  183.6190  178.4400  142.0520 C   0  0  0  0  0  0  0  0  0  0  0  0
  184.0680  178.0780  146.4450 C   0  0  0  0  0  2  0  0  0  0  0  0
  185.6490  176.8160  145.0160 C   0  0  0  0  0  3  0  0  0  0  0  0
  185.6830  177.2280  142.5890 C   0  0  1  0  0  3  0  0  0  0  0  0
  185.3040  177.1870  146.4270 C   0  0  0  0  0  2  0  0  0  0  0  0
  183.6080  179.0420  143.3220 O   0  0  0  0  0  0  0  0  0  0  0  0
  185.4430  177.6670  144.0000 C   0  0  0  0  0  0  0  0  0  0  0  0
  184.5570  177.5980  141.7220 N   0  0  0  0  0  0  0  0  0  0  0  0
  182.3270  177.5420  140.1260 C   0  0  0  0  0  1  0  0  0  0  0  0
  182.5160  178.7140  141.0760 C   0  0  1  0  0  3  0  0  0  0  0  0
  178.9980  179.5540  140.7300 C   0  0  0  0  0  2  0  0  0  0  0  0
  181.1890  179.1430  141.7180 C   0  0  0  0  0  3  0  0  0  0  0  0
  178.8780  178.4710  141.7800 C   0  0  0  0  0  2  0  0  0  0  0  0
  180.3910  180.1330  140.8780 C   0  0  0  0  0  2  0  0  0  0  0  0
  180.2830  177.9570  141.9940 C   0  0  0  0  0  2  0  0  0  0  0  0
  190.0720  171.2120  141.9910 C   0  0  0  0  0  2  0  0  0  0  0  0
  191.4970  172.1820  140.3490 O   0  0  0  0  0  0  0  0  0  0  0  0
  191.0390  171.1280  140.8590 C   0  0  0  0  0  0  0  0  0  0  0  0
  191.4220  169.8770  140.3770 O   0  0  0  0  0  0  0  0  0  0  0  0
  190.8160  169.2950  139.2320 C   0  0  0  0  0  2  0  0  0  0  0  0
  191.6990  169.5220  138.0210 C   0  0  0  0  0  2  0  0  0  0  0  0
  191.4220  171.1950  134.9880 C   0  0  0  0  0  2  0  0  0  0  0  0
  191.3470  170.0180  135.7210 O   0  0  0  0  0  0  0  0  0  0  0  0
  191.5950  172.3180  135.9750 C   0  0  1  0  0  0  0  0  0  0  0  0
  191.0050  170.4270  137.0190 C   0  0  2  0  0  3  0  0  0  0  0  0
  191.3870  171.7630  137.2430 O   0  0  0  0  0  0  0  0  0  0  0  0
  193.1490  173.7380  134.7930 O   0  0  0  0  0  1  0  0  0  0  0  0
  193.0200  172.9050  135.9070 C   0  0  1  0  0  3  0  0  0  0  0  0
  193.3920  173.6780  137.1700 C   0  0  0  0  0  2  0  0  0  0  0  0
  193.4710  175.1610  136.8680 C   0  0  0  0  0  1  0  0  0  0  0  0
  190.1080  173.5170  134.5260 O   0  0  0  0  0  0  0  0  0  0  0  0
  190.5520  173.3860  135.6970 C   0  0  0  0  0  0  0  0  0  0  0  0
  190.0720  174.2620  136.6820 O   0  0  0  0  0  0  0  0  0  0  0  0
  188.7040  174.3870  137.0500 C   0  0  0  0  0  2  0  0  0  0  0  0
  188.2780  173.2250  137.6940 O   0  0  0  0  0  0  0  0  0  0  0  0
  188.3420  173.5340  139.0520 C   0  0  0  0  0  1  0  0  0  0  0  0
  190.4280  172.2950  144.2160 C   0  0  0  0  0  2  0  0  0  0  0  0
  191.8160  174.0700  145.1560 C   0  0  0  0  0  2  0  0  0  0  0  0
  194.2090  173.4510  145.0910 C   0  0  2  0  0  3  0  0  0  0  0  0
  193.4670  175.5670  145.9680 O   0  0  0  0  0  0  0  0  0  0  0  0
  191.7360  172.8320  144.7110 C   0  0  2  0  0  3  0  0  0  0  0  0
  193.2890  171.9150  144.6900 S   0  0  0  0  0  0  0  0  0  0  0  0
  193.1780  174.4530  145.4640 C   0  0  0  0  0  0  0  0  0  0  0  0
  194.8410  173.5260  142.6580 C   0  0  0  0  0  3  0  0  0  0  0  0
  195.6840  174.3550  141.9410 C   0  0  0  0  0  0  0  0  0  0  0  0
  194.9720  173.9270  143.9380 N   0  0  0  0  0  0  0  0  0  0  0  0
  195.8210  174.9400  143.9930 N   0  0  0  0  0  0  0  0  0  0  0  0
  196.2840  175.2170  142.7850 N   0  0  0  0  0  0  0  0  0  0  0  0
  195.6400  175.6370  139.8200 C   0  0  0  0  0  2  0  0  0  0  0  0
  195.9530  174.3040  140.4710 C   0  0  0  0  0  3  0  0  0  0  0  0
  197.0720  175.2690  140.1300 C   0  0  0  0  0  2  0  0  0  0  0  0
  1 25  1  6  0  0  0
  1 46  1  0  0  0  0
  2  4  2  0  0  0  0
  3  1  1  0  0  0  0
  4  3  1  0  0  0  0
  5  4  1  0  0  0  0
  6  7  1  0  0  0  0
  6  5  1  0  0  0  0
  8 11  1  0  0  0  0
  9  8  1  1  0  0  0
 10 15  1  0  0  0  0
 12 14  1  0  0  0  0
 13  7  1  6  0  0  0
 13 16  1  0  0  0  0
 14 11  1  0  0  0  0
 15  9  1  0  0  0  0
 16  9  1  0  0  0  0
 16 12  2  0  0  0  0
 17 10  2  0  0  0  0
 17 13  1  0  0  0  0
 19 18  1  1  0  0  0
 19 21  1  0  0  0  0
 19 10  1  0  0  0  0
 20 23  1  0  0  0  0
 20 22  1  0  0  0  0
 21 24  1  0  0  0  0
 22 24  1  0  0  0  0
 23 21  1  0  0  0  0
 26 27  2  0  0  0  0
 27 25  1  0  0  0  0
 28 27  1  0  0  0  0
 29 28  1  0  0  0  0
 30 29  1  0  0  0  0
 31 32  1  0  0  0  0
 31 33  1  0  0  0  0
 32 34  1  0  0  0  0
 33 41  1  6  0  0  0
 33 35  1  0  0  0  0
 34 35  1  0  0  0  0
 34 30  1  1  0  0  0
 37 36  1  6  0  0  0
 37 33  1  0  0  0  0
 37 38  1  0  0  0  0
 39 38  1  0  0  0  0
 40 41  2  0  0  0  0
 41 42  1  0  0  0  0
 42 43  1  0  0  0  0
 43 44  1  0  0  0  0
 44 45  1  0  0  0  0
 47 52  1  0  0  0  0
 48 55  1  6  0  0  0
 48 52  1  0  0  0  0
 50 46  1  6  0  0  0
 50 47  1  0  0  0  0
 51 50  1  0  0  0  0
 51 48  1  0  0  0  0
 52 49  2  0  0  0  0
 53 55  1  0  0  0  0
 54 53  2  0  0  0  0
 54 57  1  0  0  0  0
 55 56  1  0  0  0  0
 57 56  2  0  0  0  0
 58 60  1  0  0  0  0
 58 59  1  0  0  0  0
 59 54  1  0  0  0  0
 60 59  1  0  0  0  0
M  END
>  <MODEL>
7

>  <REMARK>
 VINA RESULT:      -5.8      2.219      8.957
  Name = 
  23 active torsions:
  status: ('A' for Active; 'I' for Inactive)
    1  A    between atoms: C_1  and  C_31
    2  A    between atoms: C_1  and  N_52
    3  A    between atoms: C_1  and  C_56
    4  A    between atoms: O_3  and  C_39
    5  A    between atoms: N_4  and  C_32
    6  A    between atoms: N_4  and  S_54
    7  A    between atoms: C_9  and  N_16
    8  A    between atoms: O_11  and  C_39
    9  A    between atoms: O_11  and  C_57
   10  A    between atoms: C_14  and  C_33
   11  A    between atoms: C_17  and  C_18
   12  A    between atoms: C_18  and  C_24
   13  A    between atoms: C_19  and  O_30
   14  A    between atoms: C_19  and  C_31
   15  A    between atoms: C_22  and  C_55
   16  A    between atoms: C_22  and  C_57
   17  A    between atoms: C_23  and  C_55
   18  A    between atoms: C_29  and  S_54
   19  A    between atoms: O_30  and  C_41
   20  A    between atoms: C_32  and  C_53
   21  A    between atoms: C_41  and  C_58
   22  A    between atoms: C_42  and  C_58
   23  A    between atoms: C_45  and  C_56
                            x       y       z     vdW  Elec       q    Type
                         _______ _______ _______ _____ _____    ______ ____

>  <TORSDO>
F 23

$$$$
=
 OpenBabel11042418493D

 60 66  0  0  1  0  0  0  0  0999 V2000
  189.8670  175.4620  145.7300 C   0  0  2  0  0  3  0  0  0  0  0  0
  190.7400  176.2900  143.1290 O   0  0  0  0  0  0  0  0  0  0  0  0
  189.8020  174.6580  144.5170 N   0  0  0  0  0  2  0  0  0  0  0  0
  190.2370  175.1390  143.2440 C   0  0  0  0  0  0  0  0  0  0  0  0
  190.1110  174.2630  142.0470 C   0  0  0  0  0  2  0  0  0  0  0  0
  188.8090  173.6170  142.0520 N   0  0  0  0  0  2  0  0  0  0  0  0
  188.3790  173.3130  140.3660 S   0  0  0  0  0  0  0  0  0  0  0  0
  190.1070  169.4610  137.9840 C   0  0  0  0  0  2  0  0  0  0  0  0
  189.8240  170.9420  138.2700 C   0  0  2  0  0  3  0  0  0  0  0  0
  190.6740  173.1450  137.5520 C   0  0  0  0  0  0  0  0  0  0  0  0
  191.2890  168.9370  138.7970 C   0  0  0  0  0  2  0  0  0  0  0  0
  190.7720  170.5980  140.5600 C   0  0  0  0  0  3  0  0  0  0  0  0
  190.0870  172.8730  139.9190 C   0  0  1  0  0  3  0  0  0  0  0  0
  190.9950  169.1430  140.2780 C   0  0  0  0  0  2  0  0  0  0  0  0
  190.4770  171.7740  137.3170 O   0  0  0  0  0  0  0  0  0  0  0  0
  190.1870  171.4030  139.6610 C   0  0  0  0  0  0  0  0  0  0  0  0
  190.5130  173.6460  138.7450 N   0  0  0  0  0  0  0  0  0  0  0  0
  189.9770  174.8790  135.9110 C   0  0  0  0  0  1  0  0  0  0  0  0
  191.1300  174.0440  136.4450 C   0  0  1  0  0  3  0  0  0  0  0  0
  194.7350  174.4810  136.5710 C   0  0  0  0  0  2  0  0  0  0  0  0
  192.3460  174.9150  136.7930 C   0  0  0  0  0  3  0  0  0  0  0  0
  194.3770  175.7200  135.7820 C   0  0  0  0  0  2  0  0  0  0  0  0
  193.5100  174.1350  137.3930 C   0  0  0  0  0  2  0  0  0  0  0  0
  192.8810  175.6540  135.5800 C   0  0  0  0  0  2  0  0  0  0  0  0
  190.9790  174.9330  146.6280 C   0  0  0  0  0  2  0  0  0  0  0  0
  191.3740  176.8570  147.9740 O   0  0  0  0  0  0  0  0  0  0  0  0
  191.8400  176.0380  147.1400 C   0  0  0  0  0  0  0  0  0  0  0  0
  193.1520  176.1510  146.6860 O   0  0  0  0  0  0  0  0  0  0  0  0
  193.4660  176.7400  145.4320 C   0  0  0  0  0  2  0  0  0  0  0  0
  194.9590  176.9840  145.3470 C   0  0  0  0  0  2  0  0  0  0  0  0
  195.0350  175.2660  142.3270 C   0  0  0  0  0  2  0  0  0  0  0  0
  195.1490  176.4560  143.0350 O   0  0  0  0  0  0  0  0  0  0  0  0
  194.9470  174.1570  143.3410 C   0  0  1  0  0  0  0  0  0  0  0  0
  195.5890  176.0710  144.3110 C   0  0  2  0  0  3  0  0  0  0  0  0
  195.2390  174.7350  144.5820 O   0  0  0  0  0  0  0  0  0  0  0  0
  193.2950  172.7770  142.2490 O   0  0  0  0  0  1  0  0  0  0  0  0
  193.5280  173.5550  143.3860 C   0  0  1  0  0  3  0  0  0  0  0  0
  193.2910  172.7140  144.6380 C   0  0  0  0  0  2  0  0  0  0  0  0
  192.6410  171.3970  144.2650 C   0  0  0  0  0  1  0  0  0  0  0  0
  196.4910  173.0850  141.8530 O   0  0  0  0  0  0  0  0  0  0  0  0
  195.9800  173.0970  143.0040 C   0  0  0  0  0  0  0  0  0  0  0  0
  196.3780  172.1010  143.9090 O   0  0  0  0  0  0  0  0  0  0  0  0
  197.2870  172.3090  144.9840 C   0  0  0  0  0  2  0  0  0  0  0  0
  196.7650  171.7660  146.1590 O   0  0  0  0  0  0  0  0  0  0  0  0
  196.3170  170.4990  145.7900 C   0  0  0  0  0  1  0  0  0  0  0  0
  188.5270  175.3890  146.4560 C   0  0  0  0  0  2  0  0  0  0  0  0
  186.5870  176.7700  146.9950 C   0  0  0  0  0  2  0  0  0  0  0  0
  186.3380  178.6180  145.3720 C   0  0  2  0  0  3  0  0  0  0  0  0
  184.7910  178.3060  147.1920 O   0  0  0  0  0  0  0  0  0  0  0  0
  187.6770  176.6090  146.2730 C   0  0  2  0  0  3  0  0  0  0  0  0
  187.9950  177.9000  145.0540 S   0  0  0  0  0  0  0  0  0  0  0  0
  185.8280  177.9330  146.5880 C   0  0  0  0  0  0  0  0  0  0  0  0
  184.4370  179.1830  143.8260 C   0  0  0  0  0  3  0  0  0  0  0  0
  183.9690  178.5850  142.6700 C   0  0  0  0  0  0  0  0  0  0  0  0
  185.4330  178.3790  144.2500 N   0  0  0  0  0  0  0  0  0  0  0  0
  185.5720  177.3730  143.4020 N   0  0  0  0  0  0  0  0  0  0  0  0
  184.6790  177.4660  142.4300 N   0  0  0  0  0  0  0  0  0  0  0  0
  182.7790  178.2760  140.5170 C   0  0  0  0  0  2  0  0  0  0  0  0
  182.8270  179.0470  141.8220 C   0  0  0  0  0  3  0  0  0  0  0  0
  181.8410  177.9090  141.6430 C   0  0  0  0  0  2  0  0  0  0  0  0
  1 46  1  1  0  0  0
  1 25  1  0  0  0  0
  2  4  2  0  0  0  0
  3  1  1  0  0  0  0
  4  3  1  0  0  0  0
  5  6  1  0  0  0  0
  5  4  1  0  0  0  0
  7  6  1  0  0  0  0
  8 11  1  0  0  0  0
  9  8  1  6  0  0  0
  9 16  1  0  0  0  0
 10 17  2  0  0  0  0
 11 14  1  0  0  0  0
 13  7  1  6  0  0  0
 14 12  1  0  0  0  0
 15 10  1  0  0  0  0
 15  9  1  0  0  0  0
 16 13  1  0  0  0  0
 16 12  2  0  0  0  0
 17 13  1  0  0  0  0
 19 18  1  1  0  0  0
 19 21  1  0  0  0  0
 19 10  1  0  0  0  0
 20 23  1  0  0  0  0
 21 23  1  0  0  0  0
 22 20  1  0  0  0  0
 24 22  1  0  0  0  0
 24 21  1  0  0  0  0
 25 27  1  0  0  0  0
 27 26  2  0  0  0  0
 28 27  1  0  0  0  0
 29 28  1  0  0  0  0
 30 29  1  0  0  0  0
 31 32  1  0  0  0  0
 31 33  1  0  0  0  0
 32 34  1  0  0  0  0
 33 41  1  6  0  0  0
 33 37  1  0  0  0  0
 33 35  1  0  0  0  0
 34 35  1  0  0  0  0
 34 30  1  1  0  0  0
 37 36  1  6  0  0  0
 37 38  1  0  0  0  0
 39 38  1  0  0  0  0
 40 41  2  0  0  0  0
 41 42  1  0  0  0  0
 42 43  1  0  0  0  0
 43 44  1  0  0  0  0
 45 44  1  0  0  0  0
 48 55  1  6  0  0  0
 48 52  1  0  0  0  0
 50 46  1  6  0  0  0
 50 47  1  0  0  0  0
 51 48  1  0  0  0  0
 51 50  1  0  0  0  0
 52 47  1  0  0  0  0
 52 49  2  0  0  0  0
 53 55  1  0  0  0  0
 54 53  2  0  0  0  0
 56 55  1  0  0  0  0
 57 54  1  0  0  0  0
 57 56  2  0  0  0  0
 58 60  1  0  0  0  0
 58 59  1  0  0  0  0
 59 54  1  0  0  0  0
 60 59  1  0  0  0  0
M  END
>  <MODEL>
8

>  <REMARK>
 VINA RESULT:      -5.7      2.505      7.255
  Name = 
  23 active torsions:
  status: ('A' for Active; 'I' for Inactive)
    1  A    between atoms: C_1  and  C_31
    2  A    between atoms: C_1  and  N_52
    3  A    between atoms: C_1  and  C_56
    4  A    between atoms: O_3  and  C_39
    5  A    between atoms: N_4  and  C_32
    6  A    between atoms: N_4  and  S_54
    7  A    between atoms: C_9  and  N_16
    8  A    between atoms: O_11  and  C_39
    9  A    between atoms: O_11  and  C_57
   10  A    between atoms: C_14  and  C_33
   11  A    between atoms: C_17  and  C_18
   12  A    between atoms: C_18  and  C_24
   13  A    between atoms: C_19  and  O_30
   14  A    between atoms: C_19  and  C_31
   15  A    between atoms: C_22  and  C_55
   16  A    between atoms: C_22  and  C_57
   17  A    between atoms: C_23  and  C_55
   18  A    between atoms: C_29  and  S_54
   19  A    between atoms: O_30  and  C_41
   20  A    between atoms: C_32  and  C_53
   21  A    between atoms: C_41  and  C_58
   22  A    between atoms: C_42  and  C_58
   23  A    between atoms: C_45  and  C_56
                            x       y       z     vdW  Elec       q    Type
                         _______ _______ _______ _____ _____    ______ ____

>  <TORSDO>
F 23

$$$$
=
 OpenBabel11042418493D

 60 66  0  0  1  0  0  0  0  0999 V2000
  196.3580  173.7240  140.5350 C   0  0  2  0  0  3  0  0  0  0  0  0
  197.9400  172.3540  142.4920 O   0  0  0  0  0  0  0  0  0  0  0  0
  196.3620  172.2860  140.7680 N   0  0  0  0  0  2  0  0  0  0  0  0
  197.1930  171.6620  141.7490 C   0  0  0  0  0  0  0  0  0  0  0  0
  197.1580  170.1820  141.9060 C   0  0  0  0  0  2  0  0  0  0  0  0
  196.5630  169.8420  143.1880 N   0  0  0  0  0  2  0  0  0  0  0  0
  194.8550  169.5030  142.8890 S   0  0  0  0  0  0  0  0  0  0  0  0
  195.3150  174.1040  144.3420 C   0  0  0  0  0  2  0  0  0  0  0  0
  194.5970  172.8020  143.9620 C   0  0  2  0  0  3  0  0  0  0  0  0
  192.3750  171.7740  144.2680 C   0  0  0  0  0  0  0  0  0  0  0  0
  195.8610  174.0620  145.7660 C   0  0  0  0  0  2  0  0  0  0  0  0
  196.0920  171.6040  145.5720 C   0  0  0  0  0  3  0  0  0  0  0  0
  194.3340  170.3070  144.4360 C   0  0  1  0  0  3  0  0  0  0  0  0
  196.8130  172.8790  145.8920 C   0  0  0  0  0  2  0  0  0  0  0  0
  193.1970  172.9110  144.1940 O   0  0  0  0  0  0  0  0  0  0  0  0
  195.1190  171.5640  144.6490 C   0  0  0  0  0  0  0  0  0  0  0  0
  192.8930  170.5850  144.3970 N   0  0  0  0  0  0  0  0  0  0  0  0
  190.4530  173.1700  145.0050 C   0  0  0  0  0  1  0  0  0  0  0  0
  190.8840  171.9160  144.2610 C   0  0  1  0  0  3  0  0  0  0  0  0
  188.5580  173.2410  141.8040 C   0  0  0  0  0  2  0  0  0  0  0  0
  190.2440  171.8370  142.8680 C   0  0  0  0  0  3  0  0  0  0  0  0
  189.8140  173.2430  140.9610 C   0  0  0  0  0  2  0  0  0  0  0  0
  188.7550  172.1670  142.8550 C   0  0  0  0  0  2  0  0  0  0  0  0
  190.9180  172.7700  141.8780 C   0  0  0  0  0  2  0  0  0  0  0  0
  194.9500  174.1710  140.1610 C   0  0  0  0  0  2  0  0  0  0  0  0
  195.2570  176.4200  140.8780 O   0  0  0  0  0  0  0  0  0  0  0  0
  194.5420  175.3860  140.9220 C   0  0  0  0  0  0  0  0  0  0  0  0
  193.3710  175.3610  141.6780 O   0  0  0  0  0  0  0  0  0  0  0  0
  193.0720  176.3660  142.6350 C   0  0  0  0  0  2  0  0  0  0  0  0
  191.8460  175.9610  143.4290 C   0  0  0  0  0  2  0  0  0  0  0  0
  189.3360  178.2980  142.8670 C   0  0  0  0  0  2  0  0  0  0  0  0
  190.6470  177.8760  142.6840 O   0  0  0  0  0  0  0  0  0  0  0  0
  188.5970  177.1650  143.5260 C   0  0  1  0  0  0  0  0  0  0  0  0
  190.5850  176.4760  142.7590 C   0  0  2  0  0  3  0  0  0  0  0  0
  189.4560  176.0610  143.4900 O   0  0  0  0  0  0  0  0  0  0  0  0
  186.9360  177.9210  145.1050 O   0  0  0  0  0  1  0  0  0  0  0  0
  188.2620  177.4970  144.9940 C   0  0  1  0  0  3  0  0  0  0  0  0
  188.5010  176.3140  145.9290 C   0  0  0  0  0  2  0  0  0  0  0  0
  189.6680  176.6060  146.8500 C   0  0  0  0  0  1  0  0  0  0  0  0
  186.7400  175.7750  142.9170 O   0  0  0  0  0  0  0  0  0  0  0  0
  187.3360  176.8690  142.7330 C   0  0  0  0  0  0  0  0  0  0  0  0
  186.8120  177.7490  141.7740 O   0  0  0  0  0  0  0  0  0  0  0  0
  185.7150  178.6260  142.0020 C   0  0  0  0  0  2  0  0  0  0  0  0
  184.5140  177.9270  141.8710 O   0  0  0  0  0  0  0  0  0  0  0  0
  183.7740  178.2880  142.9970 C   0  0  0  0  0  1  0  0  0  0  0  0
  197.3300  174.0540  139.4070 C   0  0  0  0  0  2  0  0  0  0  0  0
  196.3950  175.0830  137.3990 C   0  0  0  0  0  2  0  0  0  0  0  0
  195.3510  173.3830  135.9380 C   0  0  2  0  0  3  0  0  0  0  0  0
  195.3600  175.7220  135.3640 O   0  0  0  0  0  0  0  0  0  0  0  0
  196.7150  173.9780  138.0430 C   0  0  2  0  0  3  0  0  0  0  0  0
  196.2960  172.4410  137.1960 S   0  0  0  0  0  0  0  0  0  0  0  0
  195.6930  174.8110  136.1630 C   0  0  0  0  0  0  0  0  0  0  0  0
  193.2890  172.5680  137.1220 C   0  0  0  0  0  3  0  0  0  0  0  0
  191.9400  172.7520  136.8750 C   0  0  0  0  0  0  0  0  0  0  0  0
  193.9130  173.1840  136.0980 N   0  0  0  0  0  0  0  0  0  0  0  0
  193.0080  173.7190  135.2940 N   0  0  0  0  0  0  0  0  0  0  0  0
  191.7890  173.4600  135.7380 N   0  0  0  0  0  0  0  0  0  0  0  0
  190.3600  170.8660  137.1750 C   0  0  0  0  0  2  0  0  0  0  0  0
  190.8010  172.2240  137.6870 C   0  0  0  0  0  3  0  0  0  0  0  0
  191.2370  170.9590  138.4020 C   0  0  0  0  0  2  0  0  0  0  0  0
  1 46  1  6  0  0  0
  1  3  1  0  0  0  0
  3  4  1  0  0  0  0
  4  5  1  0  0  0  0
  4  2  2  0  0  0  0
  5  6  1  0  0  0  0
  7  6  1  0  0  0  0
  8 11  1  0  0  0  0
  9 15  1  0  0  0  0
  9  8  1  1  0  0  0
  9 16  1  0  0  0  0
 10 17  2  0  0  0  0
 11 14  1  0  0  0  0
 12 14  1  0  0  0  0
 13  7  1  6  0  0  0
 13 16  1  0  0  0  0
 15 10  1  0  0  0  0
 16 12  2  0  0  0  0
 17 13  1  0  0  0  0
 19 10  1  0  0  0  0
 19 18  1  6  0  0  0
 20 23  1  0  0  0  0
 21 19  1  0  0  0  0
 22 20  1  0  0  0  0
 22 24  1  0  0  0  0
 23 21  1  0  0  0  0
 24 21  1  0  0  0  0
 25  1  1  0  0  0  0
 25 27  1  0  0  0  0
 26 27  2  0  0  0  0
 27 28  1  0  0  0  0
 28 29  1  0  0  0  0
 29 30  1  0  0  0  0
 31 33  1  0  0  0  0
 32 34  1  0  0  0  0
 32 31  1  0  0  0  0
 33 41  1  6  0  0  0
 33 37  1  0  0  0  0
 34 30  1  1  0  0  0
 34 35  1  0  0  0  0
 35 33  1  0  0  0  0
 37 36  1  6  0  0  0
 37 38  1  0  0  0  0
 38 39  1  0  0  0  0
 41 40  2  0  0  0  0
 42 43  1  0  0  0  0
 42 41  1  0  0  0  0
 44 43  1  0  0  0  0
 44 45  1  0  0  0  0
 47 50  1  0  0  0  0
 48 55  1  1  0  0  0
 48 52  1  0  0  0  0
 48 51  1  0  0  0  0
 49 52  2  0  0  0  0
 50 46  1  1  0  0  0
 51 50  1  0  0  0  0
 52 47  1  0  0  0  0
 54 53  2  0  0  0  0
 54 59  1  0  0  0  0
 55 53  1  0  0  0  0
 56 57  2  0  0  0  0
 56 55  1  0  0  0  0
 57 54  1  0  0  0  0
 58 59  1  0  0  0  0
 58 60  1  0  0  0  0
 59 60  1  0  0  0  0
M  END
>  <MODEL>
9

>  <REMARK>
 VINA RESULT:      -5.7      4.120      8.622
  Name = 
  23 active torsions:
  status: ('A' for Active; 'I' for Inactive)
    1  A    between atoms: C_1  and  C_31
    2  A    between atoms: C_1  and  N_52
    3  A    between atoms: C_1  and  C_56
    4  A    between atoms: O_3  and  C_39
    5  A    between atoms: N_4  and  C_32
    6  A    between atoms: N_4  and  S_54
    7  A    between atoms: C_9  and  N_16
    8  A    between atoms: O_11  and  C_39
    9  A    between atoms: O_11  and  C_57
   10  A    between atoms: C_14  and  C_33
   11  A    between atoms: C_17  and  C_18
   12  A    between atoms: C_18  and  C_24
   13  A    between atoms: C_19  and  O_30
   14  A    between atoms: C_19  and  C_31
   15  A    between atoms: C_22  and  C_55
   16  A    between atoms: C_22  and  C_57
   17  A    between atoms: C_23  and  C_55
   18  A    between atoms: C_29  and  S_54
   19  A    between atoms: O_30  and  C_41
   20  A    between atoms: C_32  and  C_53
   21  A    between atoms: C_41  and  C_58
   22  A    between atoms: C_42  and  C_58
   23  A    between atoms: C_45  and  C_56
                            x       y       z     vdW  Elec       q    Type
                         _______ _______ _______ _____ _____    ______ ____

>  <TORSDO>
F 23

$$$$
