=
 OpenBabel11042413403D

 42 47  0  0  1  0  0  0  0  0999 V2000
  191.5810  175.5090  145.3600 C   0  0  2  0  0  3  0  0  0  0  0  0
  191.3290  173.4420  143.8630 C   0  0  0  0  0  0  0  0  0  0  0  0
  192.0060  172.7140  144.6400 O   0  0  0  0  0  0  0  0  0  0  0  0
  190.3620  171.4020  142.7690 C   0  0  0  0  0  1  0  0  0  0  0  0
  189.5750  175.0410  142.2700 C   0  0  0  0  0  0  0  0  0  0  0  0
  189.9520  173.6630  141.7770 C   0  0  0  0  0  2  0  0  0  0  0  0
  190.4990  172.8460  142.8560 N   0  0  0  0  0  0  0  0  0  0  0  0
  190.2670  175.6160  143.2650 C   0  0  0  0  0  3  0  0  0  0  0  0
  191.4380  174.9490  143.9360 C   0  0  1  0  0  3  0  0  0  0  0  0
  188.4500  175.8280  141.6520 C   0  0  0  0  0  2  0  0  0  0  0  0
  187.0610  175.3660  142.0770 C   0  0  0  0  0  2  0  0  0  0  0  0
  186.7160  175.9300  143.3720 N   0  0  0  0  0  2  0  0  0  0  0  0
  186.6680  177.3760  143.2180 C   0  0  0  0  0  2  0  0  0  0  0  0
  185.2250  177.8770  143.1390 C   0  0  2  0  0  3  0  0  0  0  0  0
  183.4120  178.3180  141.4390 N   0  0  0  0  0  0  0  0  0  0  0  0
  182.3110  178.5680  140.5070 N   0  0  0  0  0  2  0  0  0  0  0  0
  182.0020  178.2800  141.7860 C   0  0  0  0  0  2  0  0  0  0  0  0
  184.7970  178.2080  141.7430 C   0  0  0  0  0  0  0  0  0  0  0  0
  185.6500  178.3900  140.8340 O   0  0  0  0  0  0  0  0  0  0  0  0
  184.9500  178.9930  144.0980 C   0  0  0  0  0  0  0  0  0  0  0  0
  185.4770  180.1200  143.9090 O   0  0  0  0  0  0  0  0  0  0  0  0
  184.1210  178.7990  145.1960 O   0  0  0  0  0  1  0  0  0  0  0  0
  190.2710  175.9780  145.9120 C   0  0  0  0  0  0  0  0  0  0  0  0
  188.6240  177.7210  146.2920 C   0  0  0  0  0  3  0  0  0  0  0  0
  188.1990  175.4660  147.0660 C   0  0  0  0  0  3  0  0  0  0  0  0
  186.5380  177.2130  147.4560 N   0  0  0  0  0  1  0  0  0  0  0  0
  189.8580  177.3130  145.7800 C   0  0  0  0  0  3  0  0  0  0  0  0
  187.7940  176.7980  146.9350 C   0  0  0  0  0  0  0  0  0  0  0  0
  189.4340  175.0570  146.5540 C   0  0  0  0  0  3  0  0  0  0  0  0
  192.5600  176.5120  145.4430 O   0  0  0  0  0  0  0  0  0  0  0  0
  194.5800  175.6350  146.4300 C   0  0  0  0  0  2  0  0  0  0  0  0
  193.7710  175.8700  145.1730 C   0  0  1  0  0  0  0  0  0  0  0  0
  194.5690  176.5970  144.1050 C   0  0  1  0  0  3  0  0  0  0  0  0
  194.8820  176.8400  145.5680 C   0  0  2  0  0  3  0  0  0  0  0  0
  194.9150  174.7440  142.5250 C   0  0  0  0  0  3  0  0  0  0  0  0
  196.6500  176.4600  142.7920 C   0  0  0  0  0  3  0  0  0  0  0  0
  197.4960  172.1640  141.6860 C   0  0  0  0  0  1  0  0  0  0  0  0
  197.6750  175.9190  142.2050 N   0  0  0  0  0  0  0  0  0  0  0  0
  195.5620  173.7840  141.8670 C   0  0  0  0  0  3  0  0  0  0  0  0
  197.9410  174.5140  142.0470 C   0  0  0  0  0  3  0  0  0  0  0  0
  195.5940  175.6610  143.4840 C   0  0  1  0  0  3  0  0  0  0  0  0
  197.0170  173.5490  141.9310 C   0  0  0  0  0  0  0  0  0  0  0  0
  1 30  1  6  0  0  0
  1 23  1  0  0  0  0
  2  9  1  0  0  0  0
  2  3  2  0  0  0  0
  4  7  1  0  0  0  0
  5  8  2  0  0  0  0
  6  5  1  0  0  0  0
  6  7  1  0  0  0  0
  7  2  1  0  0  0  0
  8  9  1  0  0  0  0
  9  1  1  1  0  0  0
 10 11  1  0  0  0  0
 10  5  1  0  0  0  0
 11 12  1  0  0  0  0
 13 12  1  0  0  0  0
 14 13  1  6  0  0  0
 14 20  1  0  0  0  0
 15 18  1  0  0  0  0
 15 17  1  0  0  0  0
 16 15  1  0  0  0  0
 16 17  1  0  0  0  0
 18 14  1  0  0  0  0
 19 18  2  0  0  0  0
 20 22  1  0  0  0  0
 21 20  2  0  0  0  0
 23 29  1  0  0  0  0
 24 28  2  0  0  0  0
 27 23  2  0  0  0  0
 27 24  1  0  0  0  0
 28 25  1  0  0  0  0
 28 26  1  0  0  0  0
 29 25  2  0  0  0  0
 32 30  1  1  0  0  0
 32 34  1  0  0  0  0
 32 31  1  0  0  0  0
 33 41  1  6  0  0  0
 33 32  1  0  0  0  0
 33 34  1  0  0  0  0
 34 31  1  6  0  0  0
 36 41  1  0  0  0  0
 37 42  1  0  0  0  0
 38 36  2  0  0  0  0
 39 42  1  0  0  0  0
 39 35  2  0  0  0  0
 40 38  1  0  0  0  0
 41 35  1  6  0  0  0
 42 40  2  0  0  0  0
M  END
>  <MODEL>
1

>  <REMARK>
 VINA RESULT:      -7.2      0.000      0.000
  Name = 
  12 active torsions:
  status: ('A' for Active; 'I' for Inactive)
    1  A    between atoms: C_3  and  C_8
    2  A    between atoms: C_6  and  C_32
    3  A    between atoms: C_8  and  O_11
    4  A    between atoms: C_8  and  C_39
    5  A    between atoms: O_11  and  C_12
    6  A    between atoms: N_19  and  C_27
    7  A    between atoms: N_19  and  C_29
    8  A    between atoms: C_20  and  C_41
    9  A    between atoms: C_24  and  C_38
   10  A    between atoms: C_27  and  C_32
   11  A    between atoms: C_29  and  C_38
   12  A    between atoms: C_32  and  C_35
                            x       y       z     vdW  Elec       q    Type
                         _______ _______ _______ _____ _____    ______ ____

>  <TORSDO>
F 12

$$$$
=
 OpenBabel11042413403D

 42 47  0  0  1  0  0  0  0  0999 V2000
  192.0380  174.3690  143.8060 C   0  0  2  0  0  3  0  0  0  0  0  0
  191.6080  172.8980  141.7500 C   0  0  0  0  0  0  0  0  0  0  0  0
  192.5590  172.1160  142.0270 O   0  0  0  0  0  0  0  0  0  0  0  0
  190.6100  171.1690  140.2300 C   0  0  0  0  0  1  0  0  0  0  0  0
  189.2970  174.5210  141.3050 C   0  0  0  0  0  0  0  0  0  0  0  0
  189.6730  173.4900  140.2660 C   0  0  0  0  0  2  0  0  0  0  0  0
  190.5990  172.5010  140.8120 N   0  0  0  0  0  0  0  0  0  0  0  0
  190.1740  174.8720  142.2570 C   0  0  0  0  0  3  0  0  0  0  0  0
  191.5580  174.2860  142.3480 C   0  0  1  0  0  3  0  0  0  0  0  0
  187.9590  175.2100  141.2960 C   0  0  0  0  0  2  0  0  0  0  0  0
  187.9800  176.6190  141.8790 C   0  0  0  0  0  2  0  0  0  0  0  0
  187.4690  176.6090  143.2400 N   0  0  0  0  0  2  0  0  0  0  0  0
  186.0240  176.7680  143.1630 C   0  0  0  0  0  2  0  0  0  0  0  0
  185.6430  178.2140  142.8460 C   0  0  2  0  0  3  0  0  0  0  0  0
  185.1410  178.3990  145.3140 N   0  0  0  0  0  0  0  0  0  0  0  0
  184.8520  178.4320  146.7470 N   0  0  0  0  0  2  0  0  0  0  0  0
  184.9360  177.2290  146.1490 C   0  0  0  0  0  2  0  0  0  0  0  0
  185.4140  179.0410  144.0740 C   0  0  0  0  0  0  0  0  0  0  0  0
  185.4620  180.2980  144.0220 O   0  0  0  0  0  0  0  0  0  0  0  0
  184.5060  178.3100  141.8760 C   0  0  0  0  0  0  0  0  0  0  0  0
  184.7450  178.4160  140.6460 O   0  0  0  0  0  0  0  0  0  0  0  0
  183.1890  178.2840  142.3200 O   0  0  0  0  0  1  0  0  0  0  0  0
  191.0950  175.1540  144.6630 C   0  0  0  0  0  0  0  0  0  0  0  0
  189.3090  175.2730  146.3040 C   0  0  0  0  0  3  0  0  0  0  0  0
  190.2960  177.3090  145.4400 C   0  0  0  0  0  3  0  0  0  0  0  0
  188.4980  177.4390  147.0880 N   0  0  0  0  0  1  0  0  0  0  0  0
  190.1690  174.5170  145.5030 C   0  0  0  0  0  3  0  0  0  0  0  0
  189.3720  176.6700  146.2730 C   0  0  0  0  0  0  0  0  0  0  0  0
  191.1560  176.5530  144.6390 C   0  0  0  0  0  3  0  0  0  0  0  0
  193.3500  174.8590  143.9070 O   0  0  0  0  0  0  0  0  0  0  0  0
  194.5040  174.8980  146.0270 C   0  0  0  0  0  2  0  0  0  0  0  0
  193.9670  174.0690  144.8810 C   0  0  1  0  0  0  0  0  0  0  0  0
  195.0250  173.1610  144.2840 C   0  0  1  0  0  3  0  0  0  0  0  0
  195.4370  174.4760  144.9140 C   0  0  2  0  0  3  0  0  0  0  0  0
  194.3550  170.8920  144.9570 C   0  0  0  0  0  3  0  0  0  0  0  0
  196.7220  171.5350  145.0270 C   0  0  0  0  0  3  0  0  0  0  0  0
  194.8460  168.5060  147.8010 C   0  0  0  0  0  1  0  0  0  0  0  0
  197.2540  170.5780  145.7250 N   0  0  0  0  0  0  0  0  0  0  0  0
  194.3440  169.7650  145.6650 C   0  0  0  0  0  3  0  0  0  0  0  0
  196.6040  169.7680  146.7210 C   0  0  0  0  0  3  0  0  0  0  0  0
  195.3170  172.0000  145.2220 C   0  0  1  0  0  3  0  0  0  0  0  0
  195.3070  169.4260  146.7290 C   0  0  0  0  0  0  0  0  0  0  0  0
  1 30  1  6  0  0  0
  1 23  1  0  0  0  0
  2  3  2  0  0  0  0
  2  9  1  0  0  0  0
  4  7  1  0  0  0  0
  5  8  2  0  0  0  0
  6  7  1  0  0  0  0
  6  5  1  0  0  0  0
  7  2  1  0  0  0  0
  8  9  1  0  0  0  0
  9  1  1  1  0  0  0
 10  5  1  0  0  0  0
 10 11  1  0  0  0  0
 11 12  1  0  0  0  0
 13 12  1  0  0  0  0
 14 13  1  1  0  0  0
 14 18  1  0  0  0  0
 15 17  1  0  0  0  0
 15 16  1  0  0  0  0
 17 16  1  0  0  0  0
 18 15  1  0  0  0  0
 19 18  2  0  0  0  0
 20 22  1  0  0  0  0
 20 14  1  0  0  0  0
 21 20  2  0  0  0  0
 23 27  1  0  0  0  0
 25 28  2  0  0  0  0
 27 24  2  0  0  0  0
 28 24  1  0  0  0  0
 28 26  1  0  0  0  0
 29 23  2  0  0  0  0
 29 25  1  0  0  0  0
 32 30  1  6  0  0  0
 32 34  1  0  0  0  0
 32 31  1  0  0  0  0
 33 32  1  0  0  0  0
 33 34  1  0  0  0  0
 33 41  1  1  0  0  0
 34 31  1  1  0  0  0
 35 39  2  0  0  0  0
 36 41  1  0  0  0  0
 36 38  2  0  0  0  0
 38 40  1  0  0  0  0
 39 42  1  0  0  0  0
 40 42  2  0  0  0  0
 41 35  1  6  0  0  0
 42 37  1  0  0  0  0
M  END
>  <MODEL>
2

>  <REMARK>
 VINA RESULT:      -7.1      2.777      3.589
  Name = 
  12 active torsions:
  status: ('A' for Active; 'I' for Inactive)
    1  A    between atoms: C_3  and  C_8
    2  A    between atoms: C_6  and  C_32
    3  A    between atoms: C_8  and  O_11
    4  A    between atoms: C_8  and  C_39
    5  A    between atoms: O_11  and  C_12
    6  A    between atoms: N_19  and  C_27
    7  A    between atoms: N_19  and  C_29
    8  A    between atoms: C_20  and  C_41
    9  A    between atoms: C_24  and  C_38
   10  A    between atoms: C_27  and  C_32
   11  A    between atoms: C_29  and  C_38
   12  A    between atoms: C_32  and  C_35
                            x       y       z     vdW  Elec       q    Type
                         _______ _______ _______ _____ _____    ______ ____

>  <TORSDO>
F 12

$$$$
=
 OpenBabel11042413403D

 42 47  0  0  1  0  0  0  0  0999 V2000
  193.7560  174.6160  145.6260 C   0  0  2  0  0  3  0  0  0  0  0  0
  194.6340  176.0250  143.6710 C   0  0  0  0  0  0  0  0  0  0  0  0
  195.2950  176.7870  144.4290 O   0  0  0  0  0  0  0  0  0  0  0  0
  196.0000  176.7740  141.7040 C   0  0  0  0  0  1  0  0  0  0  0  0
  193.3520  174.1210  141.9680 C   0  0  0  0  0  0  0  0  0  0  0  0
  193.9700  175.3520  141.3470 C   0  0  0  0  0  2  0  0  0  0  0  0
  194.9080  175.9940  142.2640 N   0  0  0  0  0  0  0  0  0  0  0  0
  193.1470  174.0620  143.2910 C   0  0  0  0  0  3  0  0  0  0  0  0
  193.5000  175.1900  144.2240 C   0  0  1  0  0  3  0  0  0  0  0  0
  192.9170  172.9430  141.1380 C   0  0  0  0  0  2  0  0  0  0  0  0
  192.3020  173.3200  139.7950 C   0  0  0  0  0  2  0  0  0  0  0  0
  191.3140  172.3320  139.3970 N   0  0  0  0  0  2  0  0  0  0  0  0
  190.5710  171.9550  140.5910 C   0  0  0  0  0  2  0  0  0  0  0  0
  189.5140  173.0040  140.9390 C   0  0  2  0  0  3  0  0  0  0  0  0
  189.4000  172.2700  143.3520 N   0  0  0  0  0  0  0  0  0  0  0  0
  189.4070  171.8470  144.7530 N   0  0  0  0  0  2  0  0  0  0  0  0
  190.5940  171.9980  144.1330 C   0  0  0  0  0  2  0  0  0  0  0  0
  188.7220  172.6530  142.1610 C   0  0  0  0  0  0  0  0  0  0  0  0
  187.4640  172.6930  142.1470 O   0  0  0  0  0  0  0  0  0  0  0  0
  188.6390  173.3470  139.7740 C   0  0  0  0  0  0  0  0  0  0  0  0
  188.3740  174.5530  139.5280 O   0  0  0  0  0  1  0  0  0  0  0  0
  188.1150  172.3500  138.9600 O   0  0  0  0  0  0  0  0  0  0  0  0
  194.7750  173.5190  145.6050 C   0  0  0  0  0  0  0  0  0  0  0  0
  197.0730  172.7460  145.7330 C   0  0  0  0  0  3  0  0  0  0  0  0
  195.2730  171.1490  145.4600 C   0  0  0  0  0  3  0  0  0  0  0  0
  197.5820  170.3630  145.5840 N   0  0  0  0  0  1  0  0  0  0  0  0
  196.1440  173.7900  145.7420 C   0  0  0  0  0  3  0  0  0  0  0  0
  196.6370  171.4250  145.5920 C   0  0  0  0  0  0  0  0  0  0  0  0
  194.3440  172.1930  145.4680 C   0  0  0  0  0  3  0  0  0  0  0  0
  192.5720  174.2040  146.2580 O   0  0  0  0  0  0  0  0  0  0  0  0
  192.1620  176.4610  147.0070 C   0  0  0  0  0  2  0  0  0  0  0  0
  191.7020  175.2930  146.1620 C   0  0  1  0  0  0  0  0  0  0  0  0
  190.2680  174.8970  146.4620 C   0  0  1  0  0  3  0  0  0  0  0  0
  191.1170  175.5140  147.5540 C   0  0  2  0  0  3  0  0  0  0  0  0
  188.9210  175.5230  144.5020 C   0  0  0  0  0  3  0  0  0  0  0  0
  188.0980  176.0280  146.7580 C   0  0  0  0  0  3  0  0  0  0  0  0
  187.1390  178.5060  143.1070 C   0  0  0  0  0  1  0  0  0  0  0  0
  187.1270  176.8580  146.5260 N   0  0  0  0  0  0  0  0  0  0  0  0
  188.1220  176.2620  143.7350 C   0  0  0  0  0  3  0  0  0  0  0  0
  186.9930  177.7400  145.3970 C   0  0  0  0  0  3  0  0  0  0  0  0
  189.3050  175.9230  145.8850 C   0  0  1  0  0  3  0  0  0  0  0  0
  187.4580  177.5080  144.1600 C   0  0  0  0  0  0  0  0  0  0  0  0
  1 30  1  6  0  0  0
  2  9  1  0  0  0  0
  2  3  2  0  0  0  0
  4  7  1  0  0  0  0
  5  8  2  0  0  0  0
  6  5  1  0  0  0  0
  6  7  1  0  0  0  0
  7  2  1  0  0  0  0
  8  9  1  0  0  0  0
  9  1  1  1  0  0  0
 10  5  1  0  0  0  0
 11 10  1  0  0  0  0
 12 11  1  0  0  0  0
 12 13  1  0  0  0  0
 14 13  1  6  0  0  0
 14 18  1  0  0  0  0
 15 17  1  0  0  0  0
 15 16  1  0  0  0  0
 17 16  1  0  0  0  0
 18 15  1  0  0  0  0
 19 18  2  0  0  0  0
 20 14  1  0  0  0  0
 21 20  1  0  0  0  0
 22 20  2  0  0  0  0
 23  1  1  0  0  0  0
 23 27  1  0  0  0  0
 24 27  2  0  0  0  0
 25 29  1  0  0  0  0
 25 28  2  0  0  0  0
 26 28  1  0  0  0  0
 28 24  1  0  0  0  0
 29 23  2  0  0  0  0
 32 30  1  6  0  0  0
 32 33  1  0  0  0  0
 32 31  1  0  0  0  0
 32 34  1  0  0  0  0
 33 41  1  6  0  0  0
 33 34  1  0  0  0  0
 34 31  1  6  0  0  0
 37 42  1  0  0  0  0
 38 36  2  0  0  0  0
 39 42  1  0  0  0  0
 39 35  2  0  0  0  0
 40 38  1  0  0  0  0
 41 35  1  6  0  0  0
 41 36  1  0  0  0  0
 42 40  2  0  0  0  0
M  END
>  <MODEL>
3

>  <REMARK>
 VINA RESULT:      -7.0      3.156      7.586
  Name = 
  12 active torsions:
  status: ('A' for Active; 'I' for Inactive)
    1  A    between atoms: C_3  and  C_8
    2  A    between atoms: C_6  and  C_32
    3  A    between atoms: C_8  and  O_11
    4  A    between atoms: C_8  and  C_39
    5  A    between atoms: O_11  and  C_12
    6  A    between atoms: N_19  and  C_27
    7  A    between atoms: N_19  and  C_29
    8  A    between atoms: C_20  and  C_41
    9  A    between atoms: C_24  and  C_38
   10  A    between atoms: C_27  and  C_32
   11  A    between atoms: C_29  and  C_38
   12  A    between atoms: C_32  and  C_35
                            x       y       z     vdW  Elec       q    Type
                         _______ _______ _______ _____ _____    ______ ____

>  <TORSDO>
F 12

$$$$
=
 OpenBabel11042413403D

 42 47  0  0  1  0  0  0  0  0999 V2000
  191.0620  174.9910  144.1650 C   0  0  2  0  0  3  0  0  0  0  0  0
  193.4480  175.0850  145.1010 C   0  0  0  0  0  0  0  0  0  0  0  0
  193.1120  174.5500  146.1930 O   0  0  0  0  0  0  0  0  0  0  0  0
  195.8520  174.5200  145.5450 C   0  0  0  0  0  1  0  0  0  0  0  0
  194.2220  176.0370  142.5190 C   0  0  0  0  0  0  0  0  0  0  0  0
  195.2530  176.0080  143.6230 C   0  0  0  0  0  2  0  0  0  0  0  0
  194.8290  175.1440  144.7220 N   0  0  0  0  0  0  0  0  0  0  0  0
  192.9190  175.9050  142.8070 C   0  0  0  0  0  3  0  0  0  0  0  0
  192.4080  175.7310  144.2130 C   0  0  1  0  0  3  0  0  0  0  0  0
  194.6030  176.2460  141.0780 C   0  0  0  0  0  2  0  0  0  0  0  0
  195.1770  175.0070  140.4000 C   0  0  0  0  0  2  0  0  0  0  0  0
  194.3360  174.6060  139.2850 N   0  0  0  0  0  2  0  0  0  0  0  0
  193.3840  173.6260  139.7880 C   0  0  0  0  0  2  0  0  0  0  0  0
  191.9910  173.8540  139.2010 C   0  0  2  0  0  3  0  0  0  0  0  0
  189.5880  173.1130  139.4250 N   0  0  0  0  0  0  0  0  0  0  0  0
  188.1810  172.7180  139.4920 N   0  0  0  0  0  2  0  0  0  0  0  0
  188.5620  173.5240  138.4830 C   0  0  0  0  0  2  0  0  0  0  0  0
  190.9220  173.0900  139.9190 C   0  0  0  0  0  0  0  0  0  0  0  0
  191.1900  172.4280  140.9560 O   0  0  0  0  0  0  0  0  0  0  0  0
  191.9480  173.6370  137.7200 C   0  0  0  0  0  0  0  0  0  0  0  0
  191.7100  174.6060  136.9550 O   0  0  0  0  0  0  0  0  0  0  0  0
  192.1680  172.3750  137.1810 O   0  0  0  0  0  1  0  0  0  0  0  0
  190.0760  175.6760  143.2710 C   0  0  0  0  0  0  0  0  0  0  0  0
  188.1920  175.6180  141.7410 C   0  0  0  0  0  3  0  0  0  0  0  0
  189.1930  177.7390  142.3460 C   0  0  0  0  0  3  0  0  0  0  0  0
  187.3000  177.6890  140.8040 N   0  0  0  0  0  1  0  0  0  0  0  0
  189.1090  174.9520  142.5580 C   0  0  0  0  0  3  0  0  0  0  0  0
  188.2330  177.0110  141.6350 C   0  0  0  0  0  0  0  0  0  0  0  0
  190.1110  177.0720  143.1630 C   0  0  0  0  0  3  0  0  0  0  0  0
  190.5270  174.7730  145.4450 O   0  0  0  0  0  0  0  0  0  0  0  0
  190.5680  176.8130  146.7350 C   0  0  0  0  0  2  0  0  0  0  0  0
  189.8190  175.9370  145.7540 C   0  0  1  0  0  0  0  0  0  0  0  0
  188.4070  175.6310  146.2200 C   0  0  1  0  0  3  0  0  0  0  0  0
  189.4960  175.8740  147.2450 C   0  0  2  0  0  3  0  0  0  0  0  0
  186.6880  176.7270  144.8440 C   0  0  0  0  0  3  0  0  0  0  0  0
  186.6620  177.0100  147.2820 C   0  0  0  0  0  3  0  0  0  0  0  0
  185.1580  180.1100  144.3640 C   0  0  0  0  0  1  0  0  0  0  0  0
  185.8340  177.9970  147.4430 N   0  0  0  0  0  0  0  0  0  0  0  0
  185.8510  177.6790  144.4370 C   0  0  0  0  0  3  0  0  0  0  0  0
  185.5430  179.0460  146.5010 C   0  0  0  0  0  3  0  0  0  0  0  0
  187.5240  176.8600  146.0710 C   0  0  1  0  0  3  0  0  0  0  0  0
  185.5800  178.9330  145.1650 C   0  0  0  0  0  0  0  0  0  0  0  0
  1 30  1  1  0  0  0
  2  3  2  0  0  0  0
  5  8  2  0  0  0  0
  5  6  1  0  0  0  0
  6  7  1  0  0  0  0
  7  2  1  0  0  0  0
  7  4  1  0  0  0  0
  8  9  1  0  0  0  0
  9  1  1  6  0  0  0
  9  2  1  0  0  0  0
 10  5  1  0  0  0  0
 11 10  1  0  0  0  0
 12 13  1  0  0  0  0
 12 11  1  0  0  0  0
 14 13  1  1  0  0  0
 14 18  1  0  0  0  0
 15 16  1  0  0  0  0
 15 18  1  0  0  0  0
 17 15  1  0  0  0  0
 17 16  1  0  0  0  0
 18 19  2  0  0  0  0
 20 14  1  0  0  0  0
 21 20  2  0  0  0  0
 22 20  1  0  0  0  0
 23  1  1  0  0  0  0
 24 27  1  0  0  0  0
 25 29  2  0  0  0  0
 26 28  1  0  0  0  0
 27 23  2  0  0  0  0
 28 24  2  0  0  0  0
 28 25  1  0  0  0  0
 29 23  1  0  0  0  0
 32 30  1  6  0  0  0
 32 33  1  0  0  0  0
 32 31  1  0  0  0  0
 32 34  1  0  0  0  0
 33 41  1  6  0  0  0
 33 34  1  0  0  0  0
 34 31  1  6  0  0  0
 36 38  2  0  0  0  0
 37 42  1  0  0  0  0
 39 35  2  0  0  0  0
 39 42  1  0  0  0  0
 40 38  1  0  0  0  0
 41 35  1  6  0  0  0
 41 36  1  0  0  0  0
 42 40  2  0  0  0  0
M  END
>  <MODEL>
4

>  <REMARK>
 VINA RESULT:      -6.9      3.002      7.984
  Name = 
  12 active torsions:
  status: ('A' for Active; 'I' for Inactive)
    1  A    between atoms: C_3  and  C_8
    2  A    between atoms: C_6  and  C_32
    3  A    between atoms: C_8  and  O_11
    4  A    between atoms: C_8  and  C_39
    5  A    between atoms: O_11  and  C_12
    6  A    between atoms: N_19  and  C_27
    7  A    between atoms: N_19  and  C_29
    8  A    between atoms: C_20  and  C_41
    9  A    between atoms: C_24  and  C_38
   10  A    between atoms: C_27  and  C_32
   11  A    between atoms: C_29  and  C_38
   12  A    between atoms: C_32  and  C_35
                            x       y       z     vdW  Elec       q    Type
                         _______ _______ _______ _____ _____    ______ ____

>  <TORSDO>
F 12

$$$$
=
 OpenBabel11042413403D

 42 47  0  0  1  0  0  0  0  0999 V2000
  193.7910  174.4460  145.6600 C   0  0  2  0  0  3  0  0  0  0  0  0
  194.2080  175.6940  143.4590 C   0  0  0  0  0  0  0  0  0  0  0  0
  194.7570  176.6710  144.0380 O   0  0  0  0  0  0  0  0  0  0  0  0
  195.2340  176.3920  141.2780 C   0  0  0  0  0  1  0  0  0  0  0  0
  193.2110  173.3510  142.1600 C   0  0  0  0  0  0  0  0  0  0  0  0
  193.5140  174.5730  141.3240 C   0  0  0  0  0  2  0  0  0  0  0  0
  194.3710  175.5090  142.0460 N   0  0  0  0  0  0  0  0  0  0  0  0
  193.1260  173.4490  143.4940 C   0  0  0  0  0  3  0  0  0  0  0  0
  193.3140  174.7490  144.2310 C   0  0  1  0  0  3  0  0  0  0  0  0
  192.9610  172.0030  141.5390 C   0  0  0  0  0  2  0  0  0  0  0  0
  192.7030  172.0470  140.0370 C   0  0  0  0  0  2  0  0  0  0  0  0
  191.4090  171.4600  139.7300 N   0  0  0  0  0  2  0  0  0  0  0  0
  190.6420  171.4290  140.9660 C   0  0  0  0  0  2  0  0  0  0  0  0
  189.3310  172.2040  140.8240 C   0  0  2  0  0  3  0  0  0  0  0  0
  189.1250  173.6410  138.7580 N   0  0  0  0  0  0  0  0  0  0  0  0
  188.9730  174.4170  137.5270 N   0  0  0  0  0  2  0  0  0  0  0  0
  188.5960  173.1240  137.5080 C   0  0  0  0  0  2  0  0  0  0  0  0
  189.5030  173.5170  140.1240 C   0  0  0  0  0  0  0  0  0  0  0  0
  189.9770  174.5130  140.7310 O   0  0  0  0  0  0  0  0  0  0  0  0
  188.6010  172.3430  142.1240 C   0  0  0  0  0  0  0  0  0  0  0  0
  187.4480  172.8450  142.1380 O   0  0  0  0  0  0  0  0  0  0  0  0
  189.1830  171.9250  143.3140 O   0  0  0  0  0  1  0  0  0  0  0  0
  194.7520  173.2990  145.7000 C   0  0  0  0  0  0  0  0  0  0  0  0
  195.2220  170.9180  145.7610 C   0  0  0  0  0  3  0  0  0  0  0  0
  197.0460  172.5090  145.6970 C   0  0  0  0  0  3  0  0  0  0  0  0
  197.5280  170.1160  145.7620 N   0  0  0  0  0  1  0  0  0  0  0  0
  194.3030  171.9700  145.7390 C   0  0  0  0  0  3  0  0  0  0  0  0
  196.5940  171.1870  145.7400 C   0  0  0  0  0  0  0  0  0  0  0  0
  196.1270  173.5630  145.6750 C   0  0  0  0  0  3  0  0  0  0  0  0
  192.7220  174.2490  146.5480 O   0  0  0  0  0  0  0  0  0  0  0  0
  192.1860  176.5260  147.1440 C   0  0  0  0  0  2  0  0  0  0  0  0
  191.8430  175.3100  146.3120 C   0  0  1  0  0  0  0  0  0  0  0  0
  190.3940  174.8890  146.4790 C   0  0  1  0  0  3  0  0  0  0  0  0
  191.1110  175.5770  147.6240 C   0  0  2  0  0  3  0  0  0  0  0  0
  189.2190  175.3730  144.3730 C   0  0  0  0  0  3  0  0  0  0  0  0
  188.1940  176.0000  146.5130 C   0  0  0  0  0  3  0  0  0  0  0  0
  187.5360  178.2380  142.6470 C   0  0  0  0  0  1  0  0  0  0  0  0
  187.2380  176.7980  146.1460 N   0  0  0  0  0  0  0  0  0  0  0  0
  188.4840  176.0520  143.4950 C   0  0  0  0  0  3  0  0  0  0  0  0
  187.1950  177.6090  144.9580 C   0  0  0  0  0  3  0  0  0  0  0  0
  189.4750  175.8630  145.7580 C   0  0  1  0  0  3  0  0  0  0  0  0
  187.7710  177.3100  143.7830 C   0  0  0  0  0  0  0  0  0  0  0  0
  1 23  1  0  0  0  0
  1 30  1  1  0  0  0
  2  3  2  0  0  0  0
  2  9  1  0  0  0  0
  4  7  1  0  0  0  0
  5  8  2  0  0  0  0
  6  7  1  0  0  0  0
  6  5  1  0  0  0  0
  7  2  1  0  0  0  0
  8  9  1  0  0  0  0
  9  1  1  1  0  0  0
 10  5  1  0  0  0  0
 11 10  1  0  0  0  0
 12 11  1  0  0  0  0
 12 13  1  0  0  0  0
 14 13  1  1  0  0  0
 14 20  1  0  0  0  0
 15 18  1  0  0  0  0
 16 15  1  0  0  0  0
 17 16  1  0  0  0  0
 17 15  1  0  0  0  0
 18 19  2  0  0  0  0
 18 14  1  0  0  0  0
 20 21  2  0  0  0  0
 20 22  1  0  0  0  0
 23 27  1  0  0  0  0
 25 28  2  0  0  0  0
 27 24  2  0  0  0  0
 28 24  1  0  0  0  0
 28 26  1  0  0  0  0
 29 25  1  0  0  0  0
 29 23  2  0  0  0  0
 32 33  1  0  0  0  0
 32 30  1  1  0  0  0
 32 31  1  0  0  0  0
 32 34  1  0  0  0  0
 33 41  1  6  0  0  0
 33 34  1  0  0  0  0
 34 31  1  6  0  0  0
 37 42  1  0  0  0  0
 38 36  2  0  0  0  0
 39 42  1  0  0  0  0
 39 35  2  0  0  0  0
 40 38  1  0  0  0  0
 41 35  1  6  0  0  0
 41 36  1  0  0  0  0
 42 40  2  0  0  0  0
M  END
>  <MODEL>
5

>  <REMARK>
 VINA RESULT:      -6.6      3.283      7.372
  Name = 
  12 active torsions:
  status: ('A' for Active; 'I' for Inactive)
    1  A    between atoms: C_3  and  C_8
    2  A    between atoms: C_6  and  C_32
    3  A    between atoms: C_8  and  O_11
    4  A    between atoms: C_8  and  C_39
    5  A    between atoms: O_11  and  C_12
    6  A    between atoms: N_19  and  C_27
    7  A    between atoms: N_19  and  C_29
    8  A    between atoms: C_20  and  C_41
    9  A    between atoms: C_24  and  C_38
   10  A    between atoms: C_27  and  C_32
   11  A    between atoms: C_29  and  C_38
   12  A    between atoms: C_32  and  C_35
                            x       y       z     vdW  Elec       q    Type
                         _______ _______ _______ _____ _____    ______ ____

>  <TORSDO>
F 12

$$$$
=
 OpenBabel11042413403D

 42 47  0  0  1  0  0  0  0  0999 V2000
  192.3740  173.8320  145.6900 C   0  0  2  0  0  3  0  0  0  0  0  0
  192.1030  172.0520  143.8640 C   0  0  0  0  0  0  0  0  0  0  0  0
  192.5800  171.1370  144.5910 O   0  0  0  0  0  0  0  0  0  0  0  0
  191.0760  170.3340  142.3500 C   0  0  0  0  0  1  0  0  0  0  0  0
  190.7790  174.0800  142.3460 C   0  0  0  0  0  0  0  0  0  0  0  0
  191.0640  172.7490  141.6890 C   0  0  0  0  0  2  0  0  0  0  0  0
  191.3600  171.7210  142.6830 N   0  0  0  0  0  0  0  0  0  0  0  0
  191.3850  174.4100  143.4960 C   0  0  0  0  0  3  0  0  0  0  0  0
  192.3690  173.5050  144.1880 C   0  0  1  0  0  3  0  0  0  0  0  0
  189.8460  175.0890  141.7310 C   0  0  0  0  0  2  0  0  0  0  0  0
  188.4050  174.6080  141.6060 C   0  0  0  0  0  2  0  0  0  0  0  0
  187.6760  174.8740  142.8350 N   0  0  0  0  0  2  0  0  0  0  0  0
  186.8490  176.0500  142.6050 C   0  0  0  0  0  2  0  0  0  0  0  0
  187.2900  177.2170  143.4890 C   0  0  2  0  0  3  0  0  0  0  0  0
  185.3540  177.9390  144.9400 N   0  0  0  0  0  0  0  0  0  0  0  0
  184.2480  178.3020  145.8260 N   0  0  0  0  0  2  0  0  0  0  0  0
  184.9530  177.1930  146.1190 C   0  0  0  0  0  2  0  0  0  0  0  0
  186.1750  178.1670  143.8000 C   0  0  0  0  0  0  0  0  0  0  0  0
  185.9550  179.1660  143.0650 O   0  0  0  0  0  0  0  0  0  0  0  0
  188.5010  177.9170  142.9550 C   0  0  0  0  0  0  0  0  0  0  0  0
  189.4870  178.1170  143.7100 O   0  0  0  0  0  1  0  0  0  0  0  0
  188.5480  178.3490  141.6350 O   0  0  0  0  0  0  0  0  0  0  0  0
  191.3040  174.8130  146.0540 C   0  0  0  0  0  0  0  0  0  0  0  0
  190.5910  177.0410  146.7020 C   0  0  0  0  0  3  0  0  0  0  0  0
  188.9460  175.2940  146.3700 C   0  0  0  0  0  3  0  0  0  0  0  0
  188.2210  177.5320  147.0250 N   0  0  0  0  0  1  0  0  0  0  0  0
  191.6110  176.1420  146.3800 C   0  0  0  0  0  3  0  0  0  0  0  0
  189.2580  176.6180  146.6970 C   0  0  0  0  0  0  0  0  0  0  0  0
  189.9670  174.3950  146.0470 C   0  0  0  0  0  3  0  0  0  0  0  0
  193.6340  174.2580  146.1390 O   0  0  0  0  0  0  0  0  0  0  0  0
  195.5370  173.0300  145.3030 C   0  0  0  0  0  2  0  0  0  0  0  0
  194.4920  174.0940  145.0480 C   0  0  1  0  0  0  0  0  0  0  0  0
  195.1080  175.4110  144.6120 C   0  0  1  0  0  3  0  0  0  0  0  0
  195.8890  174.4840  145.5220 C   0  0  2  0  0  3  0  0  0  0  0  0
  194.6080  175.9060  142.2550 C   0  0  0  0  0  3  0  0  0  0  0  0
  196.9240  176.0130  143.0580 C   0  0  0  0  0  3  0  0  0  0  0  0
  195.7650  174.9230  138.8330 C   0  0  0  0  0  1  0  0  0  0  0  0
  197.6050  176.0530  141.9530 N   0  0  0  0  0  0  0  0  0  0  0  0
  194.7630  175.9140  140.9330 C   0  0  0  0  0  3  0  0  0  0  0  0
  197.2140  175.5210  140.6750 C   0  0  0  0  0  3  0  0  0  0  0  0
  195.6130  175.3100  143.1810 C   0  0  1  0  0  3  0  0  0  0  0  0
  195.9550  175.4190  140.2200 C   0  0  0  0  0  0  0  0  0  0  0  0
  1 23  1  0  0  0  0
  1 30  1  6  0  0  0
  2  9  1  0  0  0  0
  2  3  2  0  0  0  0
  4  7  1  0  0  0  0
  5  8  2  0  0  0  0
  6  5  1  0  0  0  0
  6  7  1  0  0  0  0
  7  2  1  0  0  0  0
  8  9  1  0  0  0  0
  9  1  1  1  0  0  0
 10  5  1  0  0  0  0
 11 10  1  0  0  0  0
 11 12  1  0  0  0  0
 13 12  1  0  0  0  0
 14 13  1  6  0  0  0
 14 18  1  0  0  0  0
 15 16  1  0  0  0  0
 15 17  1  0  0  0  0
 16 17  1  0  0  0  0
 18 15  1  0  0  0  0
 19 18  2  0  0  0  0
 20 14  1  0  0  0  0
 20 21  1  0  0  0  0
 22 20  2  0  0  0  0
 23 27  1  0  0  0  0
 25 28  2  0  0  0  0
 27 24  2  0  0  0  0
 28 24  1  0  0  0  0
 28 26  1  0  0  0  0
 29 23  2  0  0  0  0
 29 25  1  0  0  0  0
 32 31  1  0  0  0  0
 32 34  1  0  0  0  0
 32 30  1  1  0  0  0
 33 41  1  6  0  0  0
 33 32  1  0  0  0  0
 33 34  1  0  0  0  0
 34 31  1  6  0  0  0
 36 41  1  0  0  0  0
 37 42  1  0  0  0  0
 38 36  2  0  0  0  0
 39 35  2  0  0  0  0
 40 38  1  0  0  0  0
 41 35  1  6  0  0  0
 42 40  2  0  0  0  0
 42 39  1  0  0  0  0
M  END
>  <MODEL>
6

>  <REMARK>
 VINA RESULT:      -6.6      1.999      2.577
  Name = 
  12 active torsions:
  status: ('A' for Active; 'I' for Inactive)
    1  A    between atoms: C_3  and  C_8
    2  A    between atoms: C_6  and  C_32
    3  A    between atoms: C_8  and  O_11
    4  A    between atoms: C_8  and  C_39
    5  A    between atoms: O_11  and  C_12
    6  A    between atoms: N_19  and  C_27
    7  A    between atoms: N_19  and  C_29
    8  A    between atoms: C_20  and  C_41
    9  A    between atoms: C_24  and  C_38
   10  A    between atoms: C_27  and  C_32
   11  A    between atoms: C_29  and  C_38
   12  A    between atoms: C_32  and  C_35
                            x       y       z     vdW  Elec       q    Type
                         _______ _______ _______ _____ _____    ______ ____

>  <TORSDO>
F 12

$$$$
=
 OpenBabel11042413403D

 42 47  0  0  1  0  0  0  0  0999 V2000
  194.1960  172.5300  144.7240 C   0  0  2  0  0  3  0  0  0  0  0  0
  194.6210  174.8850  145.6450 C   0  0  0  0  0  0  0  0  0  0  0  0
  195.8570  174.8320  145.3980 O   0  0  0  0  0  0  0  0  0  0  0  0
  194.7480  177.3860  145.8140 C   0  0  0  0  0  1  0  0  0  0  0  0
  191.7840  175.0800  145.9360 C   0  0  0  0  0  0  0  0  0  0  0  0
  192.6490  176.1940  146.4780 C   0  0  0  0  0  2  0  0  0  0  0  0
  193.9920  176.1470  145.9080 N   0  0  0  0  0  0  0  0  0  0  0  0
  192.3310  173.9040  145.5970 C   0  0  0  0  0  3  0  0  0  0  0  0
  193.8020  173.6170  145.7370 C   0  0  1  0  0  3  0  0  0  0  0  0
  190.2930  175.2280  145.7880 C   0  0  0  0  0  2  0  0  0  0  0  0
  189.5010  174.8260  147.0270 C   0  0  0  0  0  2  0  0  0  0  0  0
  188.2110  175.4960  147.0410 N   0  0  0  0  0  2  0  0  0  0  0  0
  188.3140  176.6540  146.1650 C   0  0  0  0  0  2  0  0  0  0  0  0
  186.9540  177.0180  145.5670 C   0  0  2  0  0  3  0  0  0  0  0  0
  187.9630  177.7580  143.3740 N   0  0  0  0  0  0  0  0  0  0  0  0
  188.5850  178.1240  142.1010 N   0  0  0  0  0  2  0  0  0  0  0  0
  188.9770  176.9770  142.6880 C   0  0  0  0  0  2  0  0  0  0  0  0
  187.0550  178.0020  144.4420 C   0  0  0  0  0  0  0  0  0  0  0  0
  186.3460  179.0420  144.4310 O   0  0  0  0  0  0  0  0  0  0  0  0
  185.9640  177.4420  146.6060 C   0  0  0  0  0  0  0  0  0  0  0  0
  186.3350  178.1780  147.5570 O   0  0  0  0  0  1  0  0  0  0  0  0
  184.6380  177.0320  146.5340 O   0  0  0  0  0  0  0  0  0  0  0  0
  195.0750  171.4850  145.3370 C   0  0  0  0  0  0  0  0  0  0  0  0
  197.2700  170.5670  145.8200 C   0  0  0  0  0  3  0  0  0  0  0  0
  195.2850  169.4530  146.6480 C   0  0  0  0  0  3  0  0  0  0  0  0
  197.4890  168.5210  147.1350 N   0  0  0  0  0  1  0  0  0  0  0  0
  196.4720  171.5480  145.2260 C   0  0  0  0  0  3  0  0  0  0  0  0
  196.6770  169.5190  146.5310 C   0  0  0  0  0  0  0  0  0  0  0  0
  194.4860  170.4350  146.0530 C   0  0  0  0  0  3  0  0  0  0  0  0
  194.7720  173.0670  143.5620 O   0  0  0  0  0  0  0  0  0  0  0  0
  194.4640  171.3670  141.8770 C   0  0  0  0  0  2  0  0  0  0  0  0
  193.9550  172.6430  142.5120 C   0  0  1  0  0  0  0  0  0  0  0  0
  193.7320  173.7430  141.4910 C   0  0  1  0  0  3  0  0  0  0  0  0
  194.8010  172.6980  141.2430 C   0  0  2  0  0  3  0  0  0  0  0  0
  191.3000  174.0680  141.3110 C   0  0  0  0  0  3  0  0  0  0  0  0
  192.6730  173.9840  139.2780 C   0  0  0  0  0  3  0  0  0  0  0  0
  188.3670  172.6400  139.4740 C   0  0  0  0  0  1  0  0  0  0  0  0
  191.7840  173.8410  138.3420 N   0  0  0  0  0  0  0  0  0  0  0  0
  190.0670  173.9330  140.8280 C   0  0  0  0  0  3  0  0  0  0  0  0
  190.4830  173.2390  138.4680 C   0  0  0  0  0  3  0  0  0  0  0  0
  192.4920  173.4500  140.6610 C   0  0  1  0  0  3  0  0  0  0  0  0
  189.7220  173.2400  139.5730 C   0  0  0  0  0  0  0  0  0  0  0  0
  1 30  1  6  0  0  0
  1 23  1  0  0  0  0
  2  9  1  0  0  0  0
  2  7  1  0  0  0  0
  3  2  2  0  0  0  0
  4  7  1  0  0  0  0
  5  6  1  0  0  0  0
  7  6  1  0  0  0  0
  8  9  1  0  0  0  0
  8  5  2  0  0  0  0
  9  1  1  6  0  0  0
 10  5  1  0  0  0  0
 10 11  1  0  0  0  0
 11 12  1  0  0  0  0
 13 12  1  0  0  0  0
 14 13  1  1  0  0  0
 14 20  1  0  0  0  0
 15 18  1  0  0  0  0
 16 17  1  0  0  0  0
 16 15  1  0  0  0  0
 17 15  1  0  0  0  0
 18 14  1  0  0  0  0
 19 18  2  0  0  0  0
 20 21  1  0  0  0  0
 22 20  2  0  0  0  0
 23 29  1  0  0  0  0
 24 28  2  0  0  0  0
 27 23  2  0  0  0  0
 27 24  1  0  0  0  0
 28 25  1  0  0  0  0
 28 26  1  0  0  0  0
 29 25  2  0  0  0  0
 31 32  1  0  0  0  0
 32 30  1  1  0  0  0
 33 41  1  6  0  0  0
 33 32  1  0  0  0  0
 34 33  1  0  0  0  0
 34 31  1  6  0  0  0
 34 32  1  0  0  0  0
 37 42  1  0  0  0  0
 38 40  1  0  0  0  0
 38 36  2  0  0  0  0
 39 35  2  0  0  0  0
 40 42  2  0  0  0  0
 41 36  1  6  0  0  0
 41 35  1  0  0  0  0
 42 39  1  0  0  0  0
M  END
>  <MODEL>
7

>  <REMARK>
 VINA RESULT:      -6.5      3.226      6.368
  Name = 
  12 active torsions:
  status: ('A' for Active; 'I' for Inactive)
    1  A    between atoms: C_3  and  C_8
    2  A    between atoms: C_6  and  C_32
    3  A    between atoms: C_8  and  O_11
    4  A    between atoms: C_8  and  C_39
    5  A    between atoms: O_11  and  C_12
    6  A    between atoms: N_19  and  C_27
    7  A    between atoms: N_19  and  C_29
    8  A    between atoms: C_20  and  C_41
    9  A    between atoms: C_24  and  C_38
   10  A    between atoms: C_27  and  C_32
   11  A    between atoms: C_29  and  C_38
   12  A    between atoms: C_32  and  C_35
                            x       y       z     vdW  Elec       q    Type
                         _______ _______ _______ _____ _____    ______ ____

>  <TORSDO>
F 12

$$$$
=
 OpenBabel11042413403D

 42 47  0  0  1  0  0  0  0  0999 V2000
  192.0910  175.7720  142.8640 C   0  0  2  0  0  3  0  0  0  0  0  0
  191.1430  173.5870  143.8150 C   0  0  0  0  0  0  0  0  0  0  0  0
  191.8010  173.6900  144.8870 O   0  0  0  0  0  0  0  0  0  0  0  0
  189.5940  171.9420  144.9060 C   0  0  0  0  0  1  0  0  0  0  0  0
  189.4660  173.5270  141.5010 C   0  0  0  0  0  0  0  0  0  0  0  0
  189.4560  172.3410  142.4380 C   0  0  0  0  0  2  0  0  0  0  0  0
  190.0310  172.6860  143.7350 N   0  0  0  0  0  0  0  0  0  0  0  0
  190.4400  174.4450  141.5840 C   0  0  0  0  0  3  0  0  0  0  0  0
  191.5630  174.3570  142.5830 C   0  0  1  0  0  3  0  0  0  0  0  0
  188.4220  173.7060  140.4320 C   0  0  0  0  0  2  0  0  0  0  0  0
  188.5780  172.7640  139.2440 C   0  0  0  0  0  2  0  0  0  0  0  0
  189.4960  173.3300  138.2690 N   0  0  0  0  0  2  0  0  0  0  0  0
  190.3080  172.2380  137.7520 C   0  0  0  0  0  2  0  0  0  0  0  0
  190.9230  171.4190  138.8880 C   0  0  2  0  0  3  0  0  0  0  0  0
  192.7430  171.5540  140.6340 N   0  0  0  0  0  0  0  0  0  0  0  0
  193.7630  171.5780  141.6820 N   0  0  0  0  0  2  0  0  0  0  0  0
  192.7120  170.7520  141.8450 C   0  0  0  0  0  2  0  0  0  0  0  0
  192.2140  171.9920  139.3880 C   0  0  0  0  0  0  0  0  0  0  0  0
  192.8380  172.8550  138.7170 O   0  0  0  0  0  0  0  0  0  0  0  0
  191.0380  169.9650  138.5530 C   0  0  0  0  0  0  0  0  0  0  0  0
  190.3820  169.1200  139.2160 O   0  0  0  0  0  1  0  0  0  0  0  0
  191.8600  169.5370  137.5180 O   0  0  0  0  0  0  0  0  0  0  0  0
  193.5870  175.8270  142.8440 C   0  0  0  0  0  0  0  0  0  0  0  0
  195.6960  175.9530  141.6480 C   0  0  0  0  0  3  0  0  0  0  0  0
  195.6800  175.9030  144.0690 C   0  0  0  0  0  3  0  0  0  0  0  0
  197.8060  176.0260  142.8740 N   0  0  0  0  0  1  0  0  0  0  0  0
  194.3000  175.8890  141.6380 C   0  0  0  0  0  3  0  0  0  0  0  0
  196.3860  175.9600  142.8630 C   0  0  0  0  0  0  0  0  0  0  0  0
  194.2830  175.8380  144.0590 C   0  0  0  0  0  3  0  0  0  0  0  0
  191.5750  176.3060  144.0550 O   0  0  0  0  0  0  0  0  0  0  0  0
  191.0070  178.6270  143.7130 C   0  0  0  0  0  2  0  0  0  0  0  0
  190.5600  177.1820  143.6600 C   0  0  1  0  0  0  0  0  0  0  0  0
  189.2790  176.9490  144.4390 C   0  0  1  0  0  3  0  0  0  0  0  0
  190.2270  178.0480  144.8720 C   0  0  2  0  0  3  0  0  0  0  0  0
  187.4860  176.4760  142.8220 C   0  0  0  0  0  3  0  0  0  0  0  0
  187.0860  178.0530  144.6600 C   0  0  0  0  0  3  0  0  0  0  0  0
  185.0780  178.3170  140.6240 C   0  0  0  0  0  1  0  0  0  0  0  0
  185.9870  178.6400  144.2950 N   0  0  0  0  0  0  0  0  0  0  0  0
  186.4560  176.7140  142.0130 C   0  0  0  0  0  3  0  0  0  0  0  0
  185.5080  178.8230  142.9500 C   0  0  0  0  0  3  0  0  0  0  0  0
  188.0910  177.5290  143.6870 C   0  0  1  0  0  3  0  0  0  0  0  0
  185.7360  177.9970  141.9170 C   0  0  0  0  0  0  0  0  0  0  0  0
  1 30  1  1  0  0  0
  2  3  2  0  0  0  0
  5  8  2  0  0  0  0
  5  6  1  0  0  0  0
  6  7  1  0  0  0  0
  7  2  1  0  0  0  0
  7  4  1  0  0  0  0
  8  9  1  0  0  0  0
  9  1  1  1  0  0  0
  9  2  1  0  0  0  0
 10  5  1  0  0  0  0
 11 10  1  0  0  0  0
 12 11  1  0  0  0  0
 13 12  1  0  0  0  0
 14 13  1  6  0  0  0
 14 18  1  0  0  0  0
 15 16  1  0  0  0  0
 15 17  1  0  0  0  0
 16 17  1  0  0  0  0
 18 15  1  0  0  0  0
 19 18  2  0  0  0  0
 20 14  1  0  0  0  0
 20 21  1  0  0  0  0
 22 20  2  0  0  0  0
 23  1  1  0  0  0  0
 23 29  1  0  0  0  0
 24 28  2  0  0  0  0
 27 24  1  0  0  0  0
 27 23  2  0  0  0  0
 28 26  1  0  0  0  0
 28 25  1  0  0  0  0
 29 25  2  0  0  0  0
 32 31  1  0  0  0  0
 32 30  1  1  0  0  0
 32 33  1  0  0  0  0
 32 34  1  0  0  0  0
 33 41  1  6  0  0  0
 33 34  1  0  0  0  0
 34 31  1  6  0  0  0
 37 42  1  0  0  0  0
 38 36  2  0  0  0  0
 39 35  2  0  0  0  0
 40 38  1  0  0  0  0
 41 35  1  1  0  0  0
 41 36  1  0  0  0  0
 42 39  1  0  0  0  0
 42 40  2  0  0  0  0
M  END
>  <MODEL>
8

>  <REMARK>
 VINA RESULT:      -6.5      2.903      8.427
  Name = 
  12 active torsions:
  status: ('A' for Active; 'I' for Inactive)
    1  A    between atoms: C_3  and  C_8
    2  A    between atoms: C_6  and  C_32
    3  A    between atoms: C_8  and  O_11
    4  A    between atoms: C_8  and  C_39
    5  A    between atoms: O_11  and  C_12
    6  A    between atoms: N_19  and  C_27
    7  A    between atoms: N_19  and  C_29
    8  A    between atoms: C_20  and  C_41
    9  A    between atoms: C_24  and  C_38
   10  A    between atoms: C_27  and  C_32
   11  A    between atoms: C_29  and  C_38
   12  A    between atoms: C_32  and  C_35
                            x       y       z     vdW  Elec       q    Type
                         _______ _______ _______ _____ _____    ______ ____

>  <TORSDO>
F 12

$$$$
=
 OpenBabel11042413403D

 42 47  0  0  1  0  0  0  0  0999 V2000
  190.1510  175.0290  143.3800 C   0  0  2  0  0  3  0  0  0  0  0  0
  191.0990  176.2390  145.4320 C   0  0  0  0  0  0  0  0  0  0  0  0
  190.1590  177.0800  145.4550 O   0  0  0  0  0  0  0  0  0  0  0  0
  191.6730  176.7950  147.8110 C   0  0  0  0  0  1  0  0  0  0  0  0
  193.0600  174.1610  145.5190 C   0  0  0  0  0  0  0  0  0  0  0  0
  193.1940  175.3280  146.4690 C   0  0  0  0  0  2  0  0  0  0  0  0
  191.9400  176.0680  146.5810 N   0  0  0  0  0  0  0  0  0  0  0  0
  192.2260  174.2350  144.4710 C   0  0  0  0  0  3  0  0  0  0  0  0
  191.3960  175.4550  144.1730 C   0  0  1  0  0  3  0  0  0  0  0  0
  193.8670  172.9010  145.6850 C   0  0  0  0  0  2  0  0  0  0  0  0
  193.5190  171.8020  144.6870 C   0  0  0  0  0  2  0  0  0  0  0  0
  194.7060  171.3880  143.9580 N   0  0  0  0  0  2  0  0  0  0  0  0
  194.9210  172.3550  142.8910 C   0  0  0  0  0  2  0  0  0  0  0  0
  196.4010  172.7140  142.7590 C   0  0  2  0  0  3  0  0  0  0  0  0
  196.1480  175.0840  143.5920 N   0  0  0  0  0  0  0  0  0  0  0  0
  195.9450  176.4650  144.0290 N   0  0  0  0  0  2  0  0  0  0  0  0
  195.1580  175.9930  143.0430 C   0  0  0  0  0  2  0  0  0  0  0  0
  196.8150  173.8300  143.6690 C   0  0  0  0  0  0  0  0  0  0  0  0
  197.7460  173.6700  144.5010 O   0  0  0  0  0  0  0  0  0  0  0  0
  196.8110  172.9560  141.3400 C   0  0  0  0  0  0  0  0  0  0  0  0
  197.9260  172.5380  140.9340 O   0  0  0  0  0  1  0  0  0  0  0  0
  195.9730  173.6370  140.4650 O   0  0  0  0  0  0  0  0  0  0  0  0
  190.3710  173.7470  142.6380 C   0  0  0  0  0  0  0  0  0  0  0  0
  190.1100  171.3430  142.4210 C   0  0  0  0  0  3  0  0  0  0  0  0
  191.2440  172.5980  140.6880 C   0  0  0  0  0  3  0  0  0  0  0  0
  190.9890  170.1800  140.4630 N   0  0  0  0  0  1  0  0  0  0  0  0
  189.9030  172.5230  143.1400 C   0  0  0  0  0  3  0  0  0  0  0  0
  190.7800  171.3800  141.1950 C   0  0  0  0  0  0  0  0  0  0  0  0
  191.0380  173.7790  141.4080 C   0  0  0  0  0  3  0  0  0  0  0  0
  189.6900  176.0420  142.5250 O   0  0  0  0  0  0  0  0  0  0  0  0
  187.4320  175.3260  142.0660 C   0  0  0  0  0  2  0  0  0  0  0  0
  188.3470  176.2300  142.8620 C   0  0  1  0  0  0  0  0  0  0  0  0
  187.9400  177.6890  142.7650 C   0  0  1  0  0  3  0  0  0  0  0  0
  187.6470  176.7520  141.6100 C   0  0  2  0  0  3  0  0  0  0  0  0
  187.0640  178.3130  144.9770 C   0  0  0  0  0  3  0  0  0  0  0  0
  185.8800  179.0290  142.9500 C   0  0  0  0  0  3  0  0  0  0  0  0
  183.8530  178.2060  146.9000 C   0  0  0  0  0  1  0  0  0  0  0  0
  184.7350  179.4260  143.4160 N   0  0  0  0  0  0  0  0  0  0  0  0
  186.1640  178.5460  145.9300 C   0  0  0  0  0  3  0  0  0  0  0  0
  184.0860  178.9750  144.6180 C   0  0  0  0  0  3  0  0  0  0  0  0
  186.6840  177.9420  143.5840 C   0  0  1  0  0  3  0  0  0  0  0  0
  184.7030  178.5470  145.7300 C   0  0  0  0  0  0  0  0  0  0  0  0
  1 30  1  6  0  0  0
  2  3  2  0  0  0  0
  2  7  1  0  0  0  0
  5 10  1  0  0  0  0
  5  6  1  0  0  0  0
  6  7  1  0  0  0  0
  7  4  1  0  0  0  0
  8  5  2  0  0  0  0
  9  1  1  1  0  0  0
  9  8  1  0  0  0  0
  9  2  1  0  0  0  0
 11 10  1  0  0  0  0
 12 11  1  0  0  0  0
 13 12  1  0  0  0  0
 14 13  1  6  0  0  0
 14 18  1  0  0  0  0
 15 18  1  0  0  0  0
 15 16  1  0  0  0  0
 17 15  1  0  0  0  0
 17 16  1  0  0  0  0
 18 19  2  0  0  0  0
 20 14  1  0  0  0  0
 21 20  1  0  0  0  0
 22 20  2  0  0  0  0
 23 27  1  0  0  0  0
 23  1  1  0  0  0  0
 24 27  2  0  0  0  0
 25 28  2  0  0  0  0
 25 29  1  0  0  0  0
 26 28  1  0  0  0  0
 28 24  1  0  0  0  0
 29 23  2  0  0  0  0
 31 32  1  0  0  0  0
 32 30  1  6  0  0  0
 33 32  1  0  0  0  0
 33 41  1  1  0  0  0
 34 31  1  1  0  0  0
 34 33  1  0  0  0  0
 34 32  1  0  0  0  0
 35 39  2  0  0  0  0
 36 38  2  0  0  0  0
 38 40  1  0  0  0  0
 40 42  2  0  0  0  0
 41 36  1  6  0  0  0
 41 35  1  0  0  0  0
 42 39  1  0  0  0  0
 42 37  1  0  0  0  0
M  END
>  <MODEL>
9

>  <REMARK>
 VINA RESULT:      -6.5      2.675      9.775
  Name = 
  12 active torsions:
  status: ('A' for Active; 'I' for Inactive)
    1  A    between atoms: C_3  and  C_8
    2  A    between atoms: C_6  and  C_32
    3  A    between atoms: C_8  and  O_11
    4  A    between atoms: C_8  and  C_39
    5  A    between atoms: O_11  and  C_12
    6  A    between atoms: N_19  and  C_27
    7  A    between atoms: N_19  and  C_29
    8  A    between atoms: C_20  and  C_41
    9  A    between atoms: C_24  and  C_38
   10  A    between atoms: C_27  and  C_32
   11  A    between atoms: C_29  and  C_38
   12  A    between atoms: C_32  and  C_35
                            x       y       z     vdW  Elec       q    Type
                         _______ _______ _______ _____ _____    ______ ____

>  <TORSDO>
F 12

$$$$
