=
 OpenBabel11042415333D

 47 53  0  0  1  0  0  0  0  0999 V2000
  192.0710  172.9430  143.2520 S   0  0  0  0  0  0  0  0  0  0  0  0
  193.9310  172.4740  141.6480 C   0  0  0  0  0  0  0  0  0  0  0  0
  188.5510  174.1510  139.1820 C   0  0  0  0  0  2  0  0  0  0  0  0
  192.5750  172.7920  141.6540 C   0  0  0  0  0  0  0  0  0  0  0  0
  189.7680  173.2680  139.1240 C   0  0  1  0  0  3  0  0  0  0  0  0
  194.7060  172.2510  140.3740 C   0  0  0  0  0  2  0  0  0  0  0  0
  193.7900  171.9980  139.1650 C   0  0  0  0  0  2  0  0  0  0  0  0
  192.6140  172.9680  139.1990 C   0  0  1  0  0  3  0  0  0  0  0  0
  190.5850  173.2490  137.8630 C   0  0  0  0  0  0  0  0  0  0  0  0
  194.5150  172.4340  142.9190 C   0  0  0  0  0  3  0  0  0  0  0  0
  188.2960  174.3010  140.6860 C   0  0  1  0  0  3  0  0  0  0  0  0
  189.5350  173.7470  141.3990 C   0  0  0  0  0  2  0  0  0  0  0  0
  193.5920  172.6980  143.9270 C   0  0  0  0  0  0  0  0  0  0  0  0
  191.8690  173.0090  137.9310 N   0  0  0  0  0  0  0  0  0  0  0  0
  191.7200  172.6940  140.4230 C   0  0  2  0  0  3  0  0  0  0  0  0
  190.5790  173.6930  140.3100 C   0  0  1  0  0  3  0  0  0  0  0  0
  188.1330  175.7090  141.0180 N   0  0  0  0  0  2  0  0  0  0  0  0
  186.5950  175.3350  142.7380 O   0  0  0  0  0  0  0  0  0  0  0  0
  187.2400  176.1600  142.0380 C   0  0  0  0  0  0  0  0  0  0  0  0
  187.0360  177.6190  142.2410 C   0  0  0  0  0  2  0  0  0  0  0  0
  187.8610  178.0870  143.4270 C   0  0  0  0  0  2  0  0  0  0  0  0
  187.3740  177.1850  145.8150 C   0  0  0  0  0  0  0  0  0  0  0  0
  185.9640  178.6410  147.2430 C   0  0  0  0  0  2  0  0  0  0  0  0
  185.1270  178.9210  145.9910 C   0  0  0  0  0  2  0  0  0  0  0  0
  187.0380  178.0810  144.6720 C   0  0  0  0  0  0  0  0  0  0  0  0
  186.0060  178.9300  144.7720 C   0  0  0  0  0  3  0  0  0  0  0  0
  186.8510  177.4460  147.0240 C   0  0  0  0  0  3  0  0  0  0  0  0
  189.6680  176.3580  146.3600 C   0  0  0  0  0  2  0  0  0  0  0  0
  188.3530  176.0540  145.6540 C   0  0  0  0  0  3  0  0  0  0  0  0
  188.6640  175.4350  147.0060 C   0  0  0  0  0  2  0  0  0  0  0  0
  189.5730  172.2240  135.8610 C   0  0  0  0  0  1  0  0  0  0  0  0
  189.9460  173.3600  136.6260 O   0  0  0  0  0  0  0  0  0  0  0  0
  193.8670  172.6550  145.3940 C   0  0  0  0  0  2  0  0  0  0  0  0
  193.8260  174.0450  146.0180 C   0  0  0  0  0  2  0  0  0  0  0  0
  195.1690  174.7460  145.8940 C   0  0  0  0  0  2  0  0  0  0  0  0
  194.9910  176.1360  145.3030 C   0  0  0  0  0  2  0  0  0  0  0  0
  194.9370  176.0560  143.8080 C   0  0  0  0  0  0  0  0  0  0  0  0
  196.1330  175.7900  143.1100 C   0  0  0  0  0  0  0  0  0  0  0  0
  197.3040  175.5760  143.8330 O   0  0  0  0  0  1  0  0  0  0  0  0
  196.1370  175.7420  141.6970 C   0  0  0  0  0  0  0  0  0  0  0  0
  193.7640  176.2360  141.6920 C   0  0  0  0  0  3  0  0  0  0  0  0
  194.9470  175.9720  141.0070 C   0  0  0  0  0  3  0  0  0  0  0  0
  193.7340  176.2770  143.0860 C   0  0  0  0  0  0  0  0  0  0  0  0
  192.4140  176.5500  143.6900 C   0  0  0  0  0  3  0  0  0  0  0  0
  191.2700  176.6440  143.0240 C   0  0  0  0  0  2  0  0  0  0  0  0
  197.3030  175.3770  139.5130 C   0  0  0  0  0  1  0  0  0  0  0  0
  197.2800  175.4790  140.9280 O   0  0  0  0  0  0  0  0  0  0  0  0
  1 13  1  0  0  0  0
  2  4  2  0  0  0  0
  2 10  1  0  0  0  0
  3 11  1  0  0  0  0
  4  1  1  0  0  0  0
  5  3  1  6  0  0  0
  5 16  1  0  0  0  0
  6  2  1  0  0  0  0
  7  6  1  0  0  0  0
  8  7  1  6  0  0  0
  8 15  1  0  0  0  0
  9 14  2  0  0  0  0
  9  5  1  0  0  0  0
 10 13  2  0  0  0  0
 11 17  1  6  0  0  0
 11 12  1  0  0  0  0
 13 33  1  0  0  0  0
 14  8  1  0  0  0  0
 15  4  1  1  0  0  0
 16 15  1  0  0  0  0
 16 12  1  1  0  0  0
 17 19  1  0  0  0  0
 19 20  1  0  0  0  0
 19 18  2  0  0  0  0
 20 21  1  0  0  0  0
 21 25  1  0  0  0  0
 22 27  2  0  0  0  0
 24 23  1  0  0  0  0
 25 26  2  0  0  0  0
 25 22  1  0  0  0  0
 26 24  1  0  0  0  0
 27 23  1  0  0  0  0
 28 30  1  0  0  0  0
 29 22  1  0  0  0  0
 29 28  1  0  0  0  0
 29 30  1  0  0  0  0
 31 32  1  0  0  0  0
 32  9  1  0  0  0  0
 33 34  1  0  0  0  0
 35 34  1  0  0  0  0
 36 35  1  0  0  0  0
 37 36  1  0  0  0  0
 38 37  1  0  0  0  0
 38 39  1  0  0  0  0
 40 38  2  0  0  0  0
 41 43  1  0  0  0  0
 42 41  2  0  0  0  0
 42 40  1  0  0  0  0
 43 44  1  0  0  0  0
 43 37  2  0  0  0  0
 45 44  2  0  0  0  0
 46 47  1  0  0  0  0
 47 40  1  0  0  0  0
M  END
>  <MODEL>
1

>  <REMARK>
 VINA RESULT:      -7.2      0.000      0.000
  Name = 
  13 active torsions:
  status: ('A' for Active; 'I' for Inactive)
    1  A    between atoms: C_2  and  C_46
    2  A    between atoms: N_4  and  C_34
    3  A    between atoms: C_5  and  C_24
    4  A    between atoms: C_6  and  C_20
    5  A    between atoms: C_7  and  C_39
    6  A    between atoms: C_7  and  C_43
    7  A    between atoms: C_11  and  C_14
    8  A    between atoms: C_11  and  C_32
    9  A    between atoms: C_14  and  C_29
   10  A    between atoms: C_24  and  C_41
   11  A    between atoms: C_25  and  O_44
   12  A    between atoms: O_27  and  C_30
   13  A    between atoms: C_41  and  C_43
                            x       y       z     vdW  Elec       q    Type
                         _______ _______ _______ _____ _____    ______ ____

>  <TORSDO>
F 13

$$$$
=
 OpenBabel11042415333D

 47 53  0  0  1  0  0  0  0  0999 V2000
  188.5010  177.4650  144.9500 S   0  0  0  0  0  0  0  0  0  0  0  0
  186.3820  177.9650  146.1820 C   0  0  0  0  0  0  0  0  0  0  0  0
  185.9370  177.4720  140.0660 C   0  0  0  0  0  2  0  0  0  0  0  0
  186.8600  177.8310  144.8800 C   0  0  0  0  0  0  0  0  0  0  0  0
  185.5320  178.1840  141.3280 C   0  0  1  0  0  3  0  0  0  0  0  0
  184.9460  178.3080  146.4880 C   0  0  0  0  0  2  0  0  0  0  0  0
  184.2090  178.8900  145.2700 C   0  0  0  0  0  2  0  0  0  0  0  0
  184.5670  178.0920  144.0220 C   0  0  1  0  0  3  0  0  0  0  0  0
  184.0670  178.3210  141.6390 C   0  0  0  0  0  0  0  0  0  0  0  0
  187.3360  177.7000  147.1700 C   0  0  0  0  0  3  0  0  0  0  0  0
  187.3990  177.0910  140.3320 C   0  0  1  0  0  3  0  0  0  0  0  0
  187.6540  177.3420  141.8220 C   0  0  0  0  0  2  0  0  0  0  0  0
  188.5780  177.3850  146.6280 C   0  0  0  0  0  0  0  0  0  0  0  0
  183.6760  178.3760  142.8850 N   0  0  0  0  0  0  0  0  0  0  0  0
  186.0600  178.2580  143.6820 C   0  0  2  0  0  3  0  0  0  0  0  0
  186.2670  177.4530  142.4090 C   0  0  1  0  0  3  0  0  0  0  0  0
  187.6000  175.6810  140.0350 N   0  0  0  0  0  2  0  0  0  0  0  0
  189.1850  175.3410  141.7180 O   0  0  0  0  0  0  0  0  0  0  0  0
  188.5330  174.8690  140.7490 C   0  0  0  0  0  0  0  0  0  0  0  0
  188.7710  173.4680  140.3140 C   0  0  0  0  0  2  0  0  0  0  0  0
  190.0190  173.4080  139.4520 C   0  0  0  0  0  2  0  0  0  0  0  0
  192.2360  172.5350  140.4890 C   0  0  0  0  0  0  0  0  0  0  0  0
  192.1700  170.2160  141.3640 C   0  0  0  0  0  2  0  0  0  0  0  0
  191.3270  169.8630  140.1340 C   0  0  0  0  0  2  0  0  0  0  0  0
  190.8990  172.2810  139.8820 C   0  0  0  0  0  0  0  0  0  0  0  0
  190.4520  171.0240  139.7550 C   0  0  0  0  0  3  0  0  0  0  0  0
  192.8390  171.5500  141.1750 C   0  0  0  0  0  3  0  0  0  0  0  0
  192.5640  174.7150  141.6660 C   0  0  0  0  0  2  0  0  0  0  0  0
  192.8750  173.8960  140.4210 C   0  0  0  0  0  3  0  0  0  0  0  0
  193.9080  174.0440  141.5240 C   0  0  0  0  0  2  0  0  0  0  0  0
  181.7770  178.2140  140.7290 C   0  0  0  0  0  1  0  0  0  0  0  0
  183.1570  178.5180  140.5970 O   0  0  0  0  0  0  0  0  0  0  0  0
  189.8290  177.1290  147.4030 C   0  0  0  0  0  2  0  0  0  0  0  0
  190.2620  175.6700  147.3120 C   0  0  0  0  0  2  0  0  0  0  0  0
  191.7760  175.5460  147.2530 C   0  0  0  0  0  2  0  0  0  0  0  0
  192.2560  175.5660  145.8110 C   0  0  0  0  0  2  0  0  0  0  0  0
  192.9470  174.2780  145.4810 C   0  0  0  0  0  0  0  0  0  0  0  0
  194.3330  174.1840  145.7220 C   0  0  0  0  0  0  0  0  0  0  0  0
  194.9960  175.2700  146.2870 O   0  0  0  0  0  1  0  0  0  0  0  0
  195.0340  173.0010  145.3910 C   0  0  0  0  0  0  0  0  0  0  0  0
  192.9700  172.0270  144.5770 C   0  0  0  0  0  3  0  0  0  0  0  0
  194.3380  171.9380  144.8170 C   0  0  0  0  0  3  0  0  0  0  0  0
  192.2560  173.1790  144.9040 C   0  0  0  0  0  0  0  0  0  0  0  0
  190.8080  173.1390  144.6140 C   0  0  0  0  0  3  0  0  0  0  0  0
  190.2290  172.3630  143.7070 C   0  0  0  0  0  2  0  0  0  0  0  0
  197.2840  172.1290  144.7290 C   0  0  0  0  0  1  0  0  0  0  0  0
  196.4100  172.8240  145.6030 O   0  0  0  0  0  0  0  0  0  0  0  0
  1 13  1  0  0  0  0
  2  6  1  0  0  0  0
  2 10  1  0  0  0  0
  3 11  1  0  0  0  0
  4  1  1  0  0  0  0
  4  2  2  0  0  0  0
  5  3  1  6  0  0  0
  5  9  1  0  0  0  0
  5 16  1  0  0  0  0
  7  6  1  0  0  0  0
  8  7  1  1  0  0  0
  9 14  2  0  0  0  0
 11 17  1  1  0  0  0
 11 12  1  0  0  0  0
 13 10  2  0  0  0  0
 13 33  1  0  0  0  0
 14  8  1  0  0  0  0
 15  8  1  0  0  0  0
 15  4  1  1  0  0  0
 16 12  1  6  0  0  0
 16 15  1  0  0  0  0
 17 19  1  0  0  0  0
 19 18  2  0  0  0  0
 20 19  1  0  0  0  0
 21 25  1  0  0  0  0
 21 20  1  0  0  0  0
 22 27  2  0  0  0  0
 24 23  1  0  0  0  0
 25 22  1  0  0  0  0
 26 25  2  0  0  0  0
 26 24  1  0  0  0  0
 27 23  1  0  0  0  0
 29 22  1  0  0  0  0
 29 30  1  0  0  0  0
 29 28  1  0  0  0  0
 30 28  1  0  0  0  0
 32 31  1  0  0  0  0
 32  9  1  0  0  0  0
 34 33  1  0  0  0  0
 35 34  1  0  0  0  0
 36 35  1  0  0  0  0
 37 38  1  0  0  0  0
 37 36  1  0  0  0  0
 38 39  1  0  0  0  0
 40 47  1  0  0  0  0
 40 38  2  0  0  0  0
 41 42  2  0  0  0  0
 41 43  1  0  0  0  0
 42 40  1  0  0  0  0
 43 37  2  0  0  0  0
 44 43  1  0  0  0  0
 45 44  2  0  0  0  0
 46 47  1  0  0  0  0
M  END
>  <MODEL>
2

>  <REMARK>
 VINA RESULT:      -7.2      2.465      7.481
  Name = 
  13 active torsions:
  status: ('A' for Active; 'I' for Inactive)
    1  A    between atoms: C_2  and  C_46
    2  A    between atoms: N_4  and  C_34
    3  A    between atoms: C_5  and  C_24
    4  A    between atoms: C_6  and  C_20
    5  A    between atoms: C_7  and  C_39
    6  A    between atoms: C_7  and  C_43
    7  A    between atoms: C_11  and  C_14
    8  A    between atoms: C_11  and  C_32
    9  A    between atoms: C_14  and  C_29
   10  A    between atoms: C_24  and  C_41
   11  A    between atoms: C_25  and  O_44
   12  A    between atoms: O_27  and  C_30
   13  A    between atoms: C_41  and  C_43
                            x       y       z     vdW  Elec       q    Type
                         _______ _______ _______ _____ _____    ______ ____

>  <TORSDO>
F 13

$$$$
=
 OpenBabel11042415333D

 47 53  0  0  1  0  0  0  0  0999 V2000
  193.8240  171.3060  144.4590 S   0  0  0  0  0  0  0  0  0  0  0  0
  194.4860  170.8870  142.0840 C   0  0  0  0  0  0  0  0  0  0  0  0
  188.9390  173.3910  142.9740 C   0  0  0  0  0  2  0  0  0  0  0  0
  193.3970  171.3280  142.8320 C   0  0  0  0  0  0  0  0  0  0  0  0
  189.7970  172.4120  142.2200 C   0  0  1  0  0  3  0  0  0  0  0  0
  194.4440  170.7670  140.5810 C   0  0  0  0  0  2  0  0  0  0  0  0
  193.0080  170.7710  140.0320 C   0  0  0  0  0  2  0  0  0  0  0  0
  192.1850  171.8340  140.7500 C   0  0  1  0  0  3  0  0  0  0  0  0
  189.8280  172.4880  140.7190 C   0  0  0  0  0  0  0  0  0  0  0  0
  195.6300  170.6170  142.8440 C   0  0  0  0  0  3  0  0  0  0  0  0
  189.5270  173.3570  144.3900 C   0  0  1  0  0  3  0  0  0  0  0  0
  190.8540  172.5950  144.2960 C   0  0  0  0  0  2  0  0  0  0  0  0
  195.4160  170.8260  144.2030 C   0  0  0  0  0  0  0  0  0  0  0  0
  190.9070  172.1200  140.0780 N   0  0  0  0  0  0  0  0  0  0  0  0
  192.0250  171.4810  142.2400 C   0  0  2  0  0  3  0  0  0  0  0  0
  191.1600  172.5910  142.8180 C   0  0  1  0  0  3  0  0  0  0  0  0
  189.7770  174.7150  144.8500 N   0  0  0  0  0  2  0  0  0  0  0  0
  189.1010  174.3120  147.0510 O   0  0  0  0  0  0  0  0  0  0  0  0
  189.5130  175.1340  146.1900 C   0  0  0  0  0  0  0  0  0  0  0  0
  189.6810  176.5650  146.5570 C   0  0  0  0  0  2  0  0  0  0  0  0
  189.0040  177.4400  145.5180 C   0  0  0  0  0  2  0  0  0  0  0  0
  186.5150  177.5620  144.7800 C   0  0  0  0  0  0  0  0  0  0  0  0
  184.8460  177.1800  146.5720 C   0  0  0  0  0  2  0  0  0  0  0  0
  185.7550  178.0090  147.4840 C   0  0  0  0  0  2  0  0  0  0  0  0
  187.5580  177.6160  145.8440 C   0  0  0  0  0  0  0  0  0  0  0  0
  187.1960  177.7830  147.1240 C   0  0  0  0  0  3  0  0  0  0  0  0
  185.2330  177.3710  145.1310 C   0  0  0  0  0  3  0  0  0  0  0  0
  186.7250  176.2730  142.6490 C   0  0  0  0  0  2  0  0  0  0  0  0
  186.8870  177.6290  143.3230 C   0  0  0  0  0  3  0  0  0  0  0  0
  185.6720  177.3380  142.4600 C   0  0  0  0  0  2  0  0  0  0  0  0
  188.5830  173.9850  139.2060 C   0  0  0  0  0  1  0  0  0  0  0  0
  188.6660  172.8280  140.0220 O   0  0  0  0  0  0  0  0  0  0  0  0
  196.4010  170.5570  145.2920 C   0  0  0  0  0  2  0  0  0  0  0  0
  197.4390  171.6680  145.4040 C   0  0  0  0  0  2  0  0  0  0  0  0
  196.8520  172.9090  146.0560 C   0  0  0  0  0  2  0  0  0  0  0  0
  197.1500  174.1420  145.2180 C   0  0  0  0  0  2  0  0  0  0  0  0
  196.0390  174.3810  144.2410 C   0  0  0  0  0  0  0  0  0  0  0  0
  196.2940  174.1590  142.8730 C   0  0  0  0  0  0  0  0  0  0  0  0
  197.5490  173.6950  142.4850 O   0  0  0  0  0  1  0  0  0  0  0  0
  195.2870  174.4080  141.9120 C   0  0  0  0  0  0  0  0  0  0  0  0
  193.7900  175.1040  143.6860 C   0  0  0  0  0  3  0  0  0  0  0  0
  194.0470  174.8820  142.3360 C   0  0  0  0  0  3  0  0  0  0  0  0
  194.7650  174.8550  144.6530 C   0  0  0  0  0  0  0  0  0  0  0  0
  194.3610  175.1150  146.0500 C   0  0  0  0  0  3  0  0  0  0  0  0
  193.1120  175.1310  146.4970 C   0  0  0  0  0  2  0  0  0  0  0  0
  196.1170  175.1080  139.6560 C   0  0  0  0  0  1  0  0  0  0  0  0
  195.4570  174.2090  140.5330 O   0  0  0  0  0  0  0  0  0  0  0  0
  2  4  2  0  0  0  0
  2 10  1  0  0  0  0
  3 11  1  0  0  0  0
  4  1  1  0  0  0  0
  5 16  1  0  0  0  0
  5  3  1  1  0  0  0
  6  2  1  0  0  0  0
  7  6  1  0  0  0  0
  8  7  1  6  0  0  0
  8 15  1  0  0  0  0
  9  5  1  0  0  0  0
 10 13  2  0  0  0  0
 11 17  1  6  0  0  0
 12 11  1  0  0  0  0
 13  1  1  0  0  0  0
 13 33  1  0  0  0  0
 14  9  2  0  0  0  0
 14  8  1  0  0  0  0
 15 16  1  0  0  0  0
 15  4  1  1  0  0  0
 16 12  1  1  0  0  0
 17 19  1  0  0  0  0
 19 20  1  0  0  0  0
 19 18  2  0  0  0  0
 21 25  1  0  0  0  0
 21 20  1  0  0  0  0
 22 27  2  0  0  0  0
 22 25  1  0  0  0  0
 23 24  1  0  0  0  0
 25 26  2  0  0  0  0
 26 24  1  0  0  0  0
 27 23  1  0  0  0  0
 28 29  1  0  0  0  0
 29 22  1  0  0  0  0
 30 28  1  0  0  0  0
 30 29  1  0  0  0  0
 31 32  1  0  0  0  0
 32  9  1  0  0  0  0
 33 34  1  0  0  0  0
 34 35  1  0  0  0  0
 36 35  1  0  0  0  0
 37 43  1  0  0  0  0
 37 36  1  0  0  0  0
 38 37  2  0  0  0  0
 39 38  1  0  0  0  0
 40 42  2  0  0  0  0
 40 38  1  0  0  0  0
 41 43  2  0  0  0  0
 42 41  1  0  0  0  0
 43 44  1  0  0  0  0
 44 45  2  0  0  0  0
 46 47  1  0  0  0  0
 47 40  1  0  0  0  0
M  END
>  <MODEL>
3

>  <REMARK>
 VINA RESULT:      -7.1      2.080      3.084
  Name = 
  13 active torsions:
  status: ('A' for Active; 'I' for Inactive)
    1  A    between atoms: C_2  and  C_46
    2  A    between atoms: N_4  and  C_34
    3  A    between atoms: C_5  and  C_24
    4  A    between atoms: C_6  and  C_20
    5  A    between atoms: C_7  and  C_39
    6  A    between atoms: C_7  and  C_43
    7  A    between atoms: C_11  and  C_14
    8  A    between atoms: C_11  and  C_32
    9  A    between atoms: C_14  and  C_29
   10  A    between atoms: C_24  and  C_41
   11  A    between atoms: C_25  and  O_44
   12  A    between atoms: O_27  and  C_30
   13  A    between atoms: C_41  and  C_43
                            x       y       z     vdW  Elec       q    Type
                         _______ _______ _______ _____ _____    ______ ____

>  <TORSDO>
F 13

$$$$
=
 OpenBabel11042415333D

 47 53  0  0  1  0  0  0  0  0999 V2000
  188.2700  174.4560  142.2830 S   0  0  0  0  0  0  0  0  0  0  0  0
  187.4350  176.2660  140.7710 C   0  0  0  0  0  0  0  0  0  0  0  0
  187.1160  177.3840  146.8110 C   0  0  0  0  0  2  0  0  0  0  0  0
  187.5280  175.9580  142.1270 C   0  0  0  0  0  0  0  0  0  0  0  0
  186.4770  177.4850  145.4540 C   0  0  1  0  0  3  0  0  0  0  0  0
  186.8050  177.5400  140.2690 C   0  0  0  0  0  2  0  0  0  0  0  0
  185.9340  178.2240  141.3360 C   0  0  0  0  0  2  0  0  0  0  0  0
  186.6470  178.1880  142.6830 C   0  0  1  0  0  3  0  0  0  0  0  0
  186.0400  178.8370  144.9620 C   0  0  0  0  0  0  0  0  0  0  0  0
  188.0230  175.3170  139.9280 C   0  0  0  0  0  3  0  0  0  0  0  0
  187.8530  176.0410  146.7540 C   0  0  1  0  0  3  0  0  0  0  0  0
  187.8380  175.5950  145.2870 C   0  0  0  0  0  2  0  0  0  0  0  0
  188.5550  174.2440  140.6380 C   0  0  0  0  0  0  0  0  0  0  0  0
  186.0380  179.0860  143.6780 N   0  0  0  0  0  0  0  0  0  0  0  0
  186.7940  176.7380  143.1800 C   0  0  2  0  0  3  0  0  0  0  0  0
  187.4760  176.8520  144.5340 C   0  0  1  0  0  3  0  0  0  0  0  0
  189.2290  176.2170  147.1950 N   0  0  0  0  0  2  0  0  0  0  0  0
  189.8290  173.9790  146.8890 O   0  0  0  0  0  0  0  0  0  0  0  0
  190.1580  175.1350  147.2680 C   0  0  0  0  0  0  0  0  0  0  0  0
  191.5110  175.3660  147.8390 C   0  0  0  0  0  2  0  0  0  0  0  0
  192.1010  176.6350  147.2500 C   0  0  0  0  0  2  0  0  0  0  0  0
  192.7050  176.4230  144.7310 C   0  0  0  0  0  0  0  0  0  0  0  0
  195.1280  176.4280  144.2060 C   0  0  0  0  0  2  0  0  0  0  0  0
  195.3170  175.5550  145.4500 C   0  0  0  0  0  2  0  0  0  0  0  0
  193.0780  176.3050  146.1700 C   0  0  0  0  0  0  0  0  0  0  0  0
  194.3220  175.9390  146.5090 C   0  0  0  0  0  3  0  0  0  0  0  0
  193.6780  176.4650  143.8070 C   0  0  0  0  0  3  0  0  0  0  0  0
  190.9600  178.0290  143.9440 C   0  0  0  0  0  2  0  0  0  0  0  0
  191.2690  176.5830  144.3110 C   0  0  0  0  0  3  0  0  0  0  0  0
  191.1960  177.0100  142.8550 C   0  0  0  0  0  2  0  0  0  0  0  0
  185.1770  179.4150  147.1990 C   0  0  0  0  0  1  0  0  0  0  0  0
  185.5210  179.7660  145.8680 O   0  0  0  0  0  0  0  0  0  0  0  0
  189.1800  173.0260  140.0410 C   0  0  0  0  0  2  0  0  0  0  0  0
  190.2820  172.4620  140.9300 C   0  0  0  0  0  2  0  0  0  0  0  0
  191.6590  172.7680  140.3650 C   0  0  0  0  0  2  0  0  0  0  0  0
  192.2360  174.0150  141.0150 C   0  0  0  0  0  2  0  0  0  0  0  0
  193.6400  173.7560  141.4710 C   0  0  0  0  0  0  0  0  0  0  0  0
  194.6950  174.0540  140.5840 C   0  0  0  0  0  0  0  0  0  0  0  0
  194.3970  174.6060  139.3410 O   0  0  0  0  0  1  0  0  0  0  0  0
  196.0330  173.7910  140.9570 C   0  0  0  0  0  0  0  0  0  0  0  0
  195.2540  172.9310  143.0840 C   0  0  0  0  0  3  0  0  0  0  0  0
  196.2910  173.2270  142.2060 C   0  0  0  0  0  3  0  0  0  0  0  0
  193.9260  173.1920  142.7420 C   0  0  0  0  0  0  0  0  0  0  0  0
  192.9210  172.8470  143.7690 C   0  0  0  0  0  3  0  0  0  0  0  0
  193.1940  172.4090  144.9920 C   0  0  0  0  0  2  0  0  0  0  0  0
  197.8790  175.2720  140.1410 C   0  0  0  0  0  1  0  0  0  0  0  0
  197.1400  174.0610  140.1370 O   0  0  0  0  0  0  0  0  0  0  0  0
  2  4  2  0  0  0  0
  4  1  1  0  0  0  0
  5  3  1  1  0  0  0
  6  2  1  0  0  0  0
  6  7  1  0  0  0  0
  8  7  1  6  0  0  0
  8 15  1  0  0  0  0
  8 14  1  0  0  0  0
  9  5  1  0  0  0  0
  9 32  1  0  0  0  0
 10 13  2  0  0  0  0
 10  2  1  0  0  0  0
 11  3  1  0  0  0  0
 11 17  1  6  0  0  0
 12 11  1  0  0  0  0
 13  1  1  0  0  0  0
 14  9  2  0  0  0  0
 15  4  1  6  0  0  0
 15 16  1  0  0  0  0
 16 12  1  1  0  0  0
 16  5  1  0  0  0  0
 17 19  1  0  0  0  0
 18 19  2  0  0  0  0
 19 20  1  0  0  0  0
 21 20  1  0  0  0  0
 22 25  1  0  0  0  0
 23 24  1  0  0  0  0
 24 26  1  0  0  0  0
 25 26  2  0  0  0  0
 25 21  1  0  0  0  0
 27 23  1  0  0  0  0
 27 22  2  0  0  0  0
 28 29  1  0  0  0  0
 29 22  1  0  0  0  0
 30 28  1  0  0  0  0
 30 29  1  0  0  0  0
 32 31  1  0  0  0  0
 33 13  1  0  0  0  0
 33 34  1  0  0  0  0
 35 34  1  0  0  0  0
 35 36  1  0  0  0  0
 36 37  1  0  0  0  0
 37 43  1  0  0  0  0
 38 40  1  0  0  0  0
 38 37  2  0  0  0  0
 39 38  1  0  0  0  0
 40 42  2  0  0  0  0
 42 41  1  0  0  0  0
 43 41  2  0  0  0  0
 43 44  1  0  0  0  0
 44 45  2  0  0  0  0
 47 46  1  0  0  0  0
 47 40  1  0  0  0  0
M  END
>  <MODEL>
4

>  <REMARK>
 VINA RESULT:      -6.8      2.556      6.983
  Name = 
  13 active torsions:
  status: ('A' for Active; 'I' for Inactive)
    1  A    between atoms: C_2  and  C_46
    2  A    between atoms: N_4  and  C_34
    3  A    between atoms: C_5  and  C_24
    4  A    between atoms: C_6  and  C_20
    5  A    between atoms: C_7  and  C_39
    6  A    between atoms: C_7  and  C_43
    7  A    between atoms: C_11  and  C_14
    8  A    between atoms: C_11  and  C_32
    9  A    between atoms: C_14  and  C_29
   10  A    between atoms: C_24  and  C_41
   11  A    between atoms: C_25  and  O_44
   12  A    between atoms: O_27  and  C_30
   13  A    between atoms: C_41  and  C_43
                            x       y       z     vdW  Elec       q    Type
                         _______ _______ _______ _____ _____    ______ ____

>  <TORSDO>
F 13

$$$$
=
 OpenBabel11042415333D

 47 53  0  0  1  0  0  0  0  0999 V2000
  194.8160  175.0780  141.2310 S   0  0  0  0  0  0  0  0  0  0  0  0
  196.0900  173.9930  143.0900 C   0  0  0  0  0  0  0  0  0  0  0  0
  191.1140  177.2260  144.7090 C   0  0  0  0  0  2  0  0  0  0  0  0
  195.0090  174.8480  142.8860 C   0  0  0  0  0  0  0  0  0  0  0  0
  192.5390  176.8370  144.9950 C   0  0  1  0  0  3  0  0  0  0  0  0
  196.5550  173.5840  144.4650 C   0  0  0  0  0  2  0  0  0  0  0  0
  196.0070  174.5060  145.5670 C   0  0  0  0  0  2  0  0  0  0  0  0
  194.5370  174.8100  145.3020 C   0  0  1  0  0  3  0  0  0  0  0  0
  192.8730  176.2670  146.3460 C   0  0  0  0  0  0  0  0  0  0  0  0
  196.6670  173.5110  141.9100 C   0  0  0  0  0  3  0  0  0  0  0  0
  191.0610  177.2670  143.1770 C   0  0  1  0  0  3  0  0  0  0  0  0
  192.3580  176.6210  142.6760 C   0  0  0  0  0  2  0  0  0  0  0  0
  196.0430  174.0210  140.7760 C   0  0  0  0  0  0  0  0  0  0  0  0
  193.8600  175.4170  146.4590 N   0  0  0  0  0  0  0  0  0  0  0  0
  194.3780  175.6250  144.0050 C   0  0  2  0  0  3  0  0  0  0  0  0
  192.8850  175.8900  143.8870 C   0  0  1  0  0  3  0  0  0  0  0  0
  189.9200  176.4960  142.7050 N   0  0  0  0  0  2  0  0  0  0  0  0
  188.7860  178.3360  141.8170 O   0  0  0  0  0  0  0  0  0  0  0  0
  188.7990  177.1000  142.0580 C   0  0  0  0  0  0  0  0  0  0  0  0
  187.6180  176.2680  141.7090 C   0  0  0  0  0  2  0  0  0  0  0  0
  186.9000  175.8450  142.9780 C   0  0  0  0  0  2  0  0  0  0  0  0
  185.9310  177.3650  144.8500 C   0  0  0  0  0  0  0  0  0  0  0  0
  184.7680  179.4110  144.0740 C   0  0  0  0  0  2  0  0  0  0  0  0
  184.1770  178.5530  142.9520 C   0  0  0  0  0  2  0  0  0  0  0  0
  185.9620  176.9150  143.4300 C   0  0  0  0  0  0  0  0  0  0  0  0
  185.1670  177.5050  142.5260 C   0  0  0  0  0  3  0  0  0  0  0  0
  185.3510  178.5380  145.1510 C   0  0  0  0  0  3  0  0  0  0  0  0
  187.9480  177.1940  146.3160 C   0  0  0  0  0  2  0  0  0  0  0  0
  186.6120  176.5710  145.9320 C   0  0  0  0  0  3  0  0  0  0  0  0
  186.7380  177.4070  147.1940 C   0  0  0  0  0  2  0  0  0  0  0  0
  191.1070  176.0680  148.0560 C   0  0  0  0  0  1  0  0  0  0  0  0
  192.2110  176.7460  147.4790 O   0  0  0  0  0  0  0  0  0  0  0  0
  196.4600  173.7720  139.3630 C   0  0  0  0  0  2  0  0  0  0  0  0
  195.8810  172.4700  138.8230 C   0  0  0  0  0  2  0  0  0  0  0  0
  194.4730  172.6700  138.2880 C   0  0  0  0  0  2  0  0  0  0  0  0
  193.5530  171.5670  138.7850 C   0  0  0  0  0  2  0  0  0  0  0  0
  192.5260  172.1340  139.7180 C   0  0  0  0  0  0  0  0  0  0  0  0
  191.4280  172.8210  139.1630 C   0  0  0  0  0  0  0  0  0  0  0  0
  191.3200  172.9170  137.7770 O   0  0  0  0  0  1  0  0  0  0  0  0
  190.4540  173.4050  140.0050 C   0  0  0  0  0  0  0  0  0  0  0  0
  191.6840  172.6200  141.9400 C   0  0  0  0  0  3  0  0  0  0  0  0
  190.6010  173.2970  141.3880 C   0  0  0  0  0  3  0  0  0  0  0  0
  192.6520  172.0280  141.1280 C   0  0  0  0  0  0  0  0  0  0  0  0
  193.7400  171.3250  141.8380 C   0  0  0  0  0  3  0  0  0  0  0  0
  193.8840  171.2680  143.1560 C   0  0  0  0  0  2  0  0  0  0  0  0
  188.2260  173.5090  138.8690 C   0  0  0  0  0  1  0  0  0  0  0  0
  189.3300  174.1010  139.5350 O   0  0  0  0  0  0  0  0  0  0  0  0
  1  4  1  0  0  0  0
  2  6  1  0  0  0  0
  4  2  2  0  0  0  0
  5  3  1  1  0  0  0
  5  9  1  0  0  0  0
  6  7  1  0  0  0  0
  8  7  1  1  0  0  0
  8 14  1  0  0  0  0
  9 14  2  0  0  0  0
  9 32  1  0  0  0  0
 10  2  1  0  0  0  0
 11 17  1  6  0  0  0
 11  3  1  0  0  0  0
 12 11  1  0  0  0  0
 13  1  1  0  0  0  0
 13 10  2  0  0  0  0
 15  4  1  6  0  0  0
 15  8  1  0  0  0  0
 16 12  1  6  0  0  0
 16 15  1  0  0  0  0
 16  5  1  0  0  0  0
 18 19  2  0  0  0  0
 19 17  1  0  0  0  0
 20 19  1  0  0  0  0
 20 21  1  0  0  0  0
 21 25  1  0  0  0  0
 22 27  2  0  0  0  0
 22 29  1  0  0  0  0
 23 27  1  0  0  0  0
 24 23  1  0  0  0  0
 25 22  1  0  0  0  0
 26 24  1  0  0  0  0
 26 25  2  0  0  0  0
 28 30  1  0  0  0  0
 29 28  1  0  0  0  0
 29 30  1  0  0  0  0
 32 31  1  0  0  0  0
 33 13  1  0  0  0  0
 34 33  1  0  0  0  0
 35 36  1  0  0  0  0
 35 34  1  0  0  0  0
 36 37  1  0  0  0  0
 37 43  1  0  0  0  0
 38 37  2  0  0  0  0
 38 40  1  0  0  0  0
 39 38  1  0  0  0  0
 40 42  2  0  0  0  0
 42 41  1  0  0  0  0
 43 44  1  0  0  0  0
 43 41  2  0  0  0  0
 44 45  2  0  0  0  0
 46 47  1  0  0  0  0
 47 40  1  0  0  0  0
M  END
>  <MODEL>
5

>  <REMARK>
 VINA RESULT:      -6.8      2.352      5.940
  Name = 
  13 active torsions:
  status: ('A' for Active; 'I' for Inactive)
    1  A    between atoms: C_2  and  C_46
    2  A    between atoms: N_4  and  C_34
    3  A    between atoms: C_5  and  C_24
    4  A    between atoms: C_6  and  C_20
    5  A    between atoms: C_7  and  C_39
    6  A    between atoms: C_7  and  C_43
    7  A    between atoms: C_11  and  C_14
    8  A    between atoms: C_11  and  C_32
    9  A    between atoms: C_14  and  C_29
   10  A    between atoms: C_24  and  C_41
   11  A    between atoms: C_25  and  O_44
   12  A    between atoms: O_27  and  C_30
   13  A    between atoms: C_41  and  C_43
                            x       y       z     vdW  Elec       q    Type
                         _______ _______ _______ _____ _____    ______ ____

>  <TORSDO>
F 13

$$$$
=
 OpenBabel11042415333D

 47 53  0  0  1  0  0  0  0  0999 V2000
  188.5680  173.9610  142.3530 S   0  0  0  0  0  0  0  0  0  0  0  0
  187.8210  175.5650  140.5850 C   0  0  0  0  0  0  0  0  0  0  0  0
  187.0600  177.3750  146.4140 C   0  0  0  0  0  2  0  0  0  0  0  0
  187.8210  175.4190  141.9700 C   0  0  0  0  0  0  0  0  0  0  0  0
  186.5170  177.3040  145.0130 C   0  0  1  0  0  3  0  0  0  0  0  0
  187.2120  176.7580  139.8940 C   0  0  0  0  0  2  0  0  0  0  0  0
  186.2600  177.5450  140.8090 C   0  0  0  0  0  2  0  0  0  0  0  0
  186.8750  177.6810  142.1970 C   0  0  1  0  0  3  0  0  0  0  0  0
  186.1000  178.5800  144.3360 C   0  0  0  0  0  0  0  0  0  0  0  0
  188.4790  174.5360  139.9020 C   0  0  0  0  0  3  0  0  0  0  0  0
  187.8160  176.0500  146.5660 C   0  0  1  0  0  3  0  0  0  0  0  0
  187.9100  175.4350  145.1660 C   0  0  0  0  0  2  0  0  0  0  0  0
  188.9720  173.5650  140.7690 C   0  0  0  0  0  0  0  0  0  0  0  0
  186.1860  178.6760  143.0340 N   0  0  0  0  0  0  0  0  0  0  0  0
  187.0050  176.3020  142.8710 C   0  0  2  0  0  3  0  0  0  0  0  0
  187.5870  176.5880  144.2460 C   0  0  1  0  0  3  0  0  0  0  0  0
  189.1540  176.3040  147.0780 N   0  0  0  0  0  2  0  0  0  0  0  0
  189.8760  174.0920  146.8700 O   0  0  0  0  0  0  0  0  0  0  0  0
  190.1280  175.2710  147.2330 C   0  0  0  0  0  0  0  0  0  0  0  0
  191.4340  175.5840  147.8710 C   0  0  0  0  0  2  0  0  0  0  0  0
  192.0520  176.7960  147.1970 C   0  0  0  0  0  2  0  0  0  0  0  0
  192.6810  176.4700  144.6970 C   0  0  0  0  0  0  0  0  0  0  0  0
  195.1070  176.3010  144.2160 C   0  0  0  0  0  2  0  0  0  0  0  0
  195.2180  175.4540  145.4870 C   0  0  0  0  0  2  0  0  0  0  0  0
  193.0220  176.3710  146.1440 C   0  0  0  0  0  0  0  0  0  0  0  0
  194.2330  175.9330  146.5160 C   0  0  0  0  0  3  0  0  0  0  0  0
  193.6700  176.4210  143.7890 C   0  0  0  0  0  3  0  0  0  0  0  0
  191.0640  178.1600  143.8160 C   0  0  0  0  0  2  0  0  0  0  0  0
  191.2660  176.7130  144.2460 C   0  0  0  0  0  3  0  0  0  0  0  0
  191.2430  177.0820  142.7730 C   0  0  0  0  0  2  0  0  0  0  0  0
  184.2680  179.4210  145.7560 C   0  0  0  0  0  1  0  0  0  0  0  0
  185.5070  179.5960  145.0880 O   0  0  0  0  0  0  0  0  0  0  0  0
  189.6530  172.2990  140.3650 C   0  0  0  0  0  2  0  0  0  0  0  0
  190.7910  171.9400  141.3130 C   0  0  0  0  0  2  0  0  0  0  0  0
  192.0540  172.7170  140.9800 C   0  0  0  0  0  2  0  0  0  0  0  0
  192.4610  173.5970  142.1510 C   0  0  0  0  0  2  0  0  0  0  0  0
  193.6730  173.0300  142.8250 C   0  0  0  0  0  0  0  0  0  0  0  0
  193.5010  172.3620  144.0550 C   0  0  0  0  0  0  0  0  0  0  0  0
  192.2160  172.2240  144.5750 O   0  0  0  0  0  1  0  0  0  0  0  0
  194.6200  171.8430  144.7460 C   0  0  0  0  0  0  0  0  0  0  0  0
  196.0670  172.6680  142.9860 C   0  0  0  0  0  3  0  0  0  0  0  0
  195.8920  172.0090  144.1980 C   0  0  0  0  0  3  0  0  0  0  0  0
  194.9760  173.1790  142.2810 C   0  0  0  0  0  0  0  0  0  0  0  0
  195.2950  173.8420  140.9990 C   0  0  0  0  0  3  0  0  0  0  0  0
  195.0720  175.1200  140.7210 C   0  0  0  0  0  2  0  0  0  0  0  0
  194.5830  169.7520  146.1210 C   0  0  0  0  0  1  0  0  0  0  0  0
  194.5360  171.1620  145.9690 O   0  0  0  0  0  0  0  0  0  0  0  0
  2  4  2  0  0  0  0
  3 11  1  0  0  0  0
  4  1  1  0  0  0  0
  5  3  1  1  0  0  0
  6  2  1  0  0  0  0
  6  7  1  0  0  0  0
  8  7  1  6  0  0  0
  8 15  1  0  0  0  0
  8 14  1  0  0  0  0
  9  5  1  0  0  0  0
  9 32  1  0  0  0  0
 10  2  1  0  0  0  0
 10 13  2  0  0  0  0
 11 17  1  6  0  0  0
 12 11  1  0  0  0  0
 13  1  1  0  0  0  0
 14  9  2  0  0  0  0
 15  4  1  6  0  0  0
 15 16  1  0  0  0  0
 16  5  1  0  0  0  0
 16 12  1  1  0  0  0
 17 19  1  0  0  0  0
 18 19  2  0  0  0  0
 19 20  1  0  0  0  0
 21 20  1  0  0  0  0
 22 25  1  0  0  0  0
 23 24  1  0  0  0  0
 24 26  1  0  0  0  0
 25 26  2  0  0  0  0
 25 21  1  0  0  0  0
 27 23  1  0  0  0  0
 27 22  2  0  0  0  0
 28 29  1  0  0  0  0
 29 22  1  0  0  0  0
 30 28  1  0  0  0  0
 30 29  1  0  0  0  0
 32 31  1  0  0  0  0
 33 13  1  0  0  0  0
 33 34  1  0  0  0  0
 35 34  1  0  0  0  0
 35 36  1  0  0  0  0
 36 37  1  0  0  0  0
 37 38  1  0  0  0  0
 38 39  1  0  0  0  0
 38 40  2  0  0  0  0
 40 47  1  0  0  0  0
 41 42  2  0  0  0  0
 42 40  1  0  0  0  0
 43 37  2  0  0  0  0
 43 41  1  0  0  0  0
 44 43  1  0  0  0  0
 45 44  2  0  0  0  0
 47 46  1  0  0  0  0
M  END
>  <MODEL>
6

>  <REMARK>
 VINA RESULT:      -6.8      2.881      6.977
  Name = 
  13 active torsions:
  status: ('A' for Active; 'I' for Inactive)
    1  A    between atoms: C_2  and  C_46
    2  A    between atoms: N_4  and  C_34
    3  A    between atoms: C_5  and  C_24
    4  A    between atoms: C_6  and  C_20
    5  A    between atoms: C_7  and  C_39
    6  A    between atoms: C_7  and  C_43
    7  A    between atoms: C_11  and  C_14
    8  A    between atoms: C_11  and  C_32
    9  A    between atoms: C_14  and  C_29
   10  A    between atoms: C_24  and  C_41
   11  A    between atoms: C_25  and  O_44
   12  A    between atoms: O_27  and  C_30
   13  A    between atoms: C_41  and  C_43
                            x       y       z     vdW  Elec       q    Type
                         _______ _______ _______ _____ _____    ______ ____

>  <TORSDO>
F 13

$$$$
=
 OpenBabel11042415333D

 47 53  0  0  1  0  0  0  0  0999 V2000
  190.2950  174.2730  145.7070 S   0  0  0  0  0  0  0  0  0  0  0  0
  192.1250  175.8610  146.3290 C   0  0  0  0  0  0  0  0  0  0  0  0
  193.8460  170.6960  143.4660 C   0  0  0  0  0  2  0  0  0  0  0  0
  191.9450  174.5950  145.7760 C   0  0  0  0  0  0  0  0  0  0  0  0
  194.1090  171.7140  144.5420 C   0  0  1  0  0  3  0  0  0  0  0  0
  193.4880  176.4640  146.5530 C   0  0  0  0  0  2  0  0  0  0  0  0
  194.6090  175.4120  146.5090 C   0  0  0  0  0  2  0  0  0  0  0  0
  194.3660  174.4480  145.3530 C   0  0  1  0  0  3  0  0  0  0  0  0
  195.4480  172.3980  144.5740 C   0  0  0  0  0  0  0  0  0  0  0  0
  190.9310  176.5380  146.6060 C   0  0  0  0  0  3  0  0  0  0  0  0
  192.3150  170.6090  143.4320 C   0  0  1  0  0  3  0  0  0  0  0  0
  191.7900  171.7800  144.2710 C   0  0  0  0  0  2  0  0  0  0  0  0
  189.8120  175.7750  146.2900 C   0  0  0  0  0  0  0  0  0  0  0  0
  195.5390  173.6140  145.0470 N   0  0  0  0  0  0  0  0  0  0  0  0
  193.0820  173.6310  145.5900 C   0  0  2  0  0  3  0  0  0  0  0  0
  192.9840  172.6940  144.3970 C   0  0  1  0  0  3  0  0  0  0  0  0
  191.8470  170.7440  142.0610 N   0  0  0  0  0  2  0  0  0  0  0  0
  190.8090  168.6510  141.9940 O   0  0  0  0  0  0  0  0  0  0  0  0
  191.1230  169.7110  141.3900 C   0  0  0  0  0  0  0  0  0  0  0  0
  190.7790  169.8710  139.9530 C   0  0  0  0  0  2  0  0  0  0  0  0
  191.5850  171.0140  139.3610 C   0  0  0  0  0  2  0  0  0  0  0  0
  191.2260  173.3690  138.3230 C   0  0  0  0  0  0  0  0  0  0  0  0
  188.9970  173.7660  137.3130 C   0  0  0  0  0  2  0  0  0  0  0  0
  188.4110  172.9970  138.5010 C   0  0  0  0  0  2  0  0  0  0  0  0
  190.6800  172.1010  138.8850 C   0  0  0  0  0  0  0  0  0  0  0  0
  189.3540  171.9080  138.9280 C   0  0  0  0  0  3  0  0  0  0  0  0
  190.4220  174.1590  137.5940 C   0  0  0  0  0  3  0  0  0  0  0  0
  193.4740  173.3910  137.2310 C   0  0  0  0  0  2  0  0  0  0  0  0
  192.6780  173.7290  138.4850 C   0  0  0  0  0  3  0  0  0  0  0  0
  193.0600  174.8190  137.4980 C   0  0  0  0  0  2  0  0  0  0  0  0
  197.8970  172.1100  144.5890 C   0  0  0  0  0  1  0  0  0  0  0  0
  196.5950  171.6830  144.2220 O   0  0  0  0  0  0  0  0  0  0  0  0
  188.3910  176.1670  146.5350 C   0  0  0  0  0  2  0  0  0  0  0  0
  187.7790  176.8610  145.3240 C   0  0  0  0  0  2  0  0  0  0  0  0
  188.7880  177.7660  144.6360 C   0  0  0  0  0  2  0  0  0  0  0  0
  188.7720  177.5350  143.1340 C   0  0  0  0  0  2  0  0  0  0  0  0
  189.8320  176.5460  142.7530 C   0  0  0  0  0  0  0  0  0  0  0  0
  191.1810  176.9380  142.8680 C   0  0  0  0  0  0  0  0  0  0  0  0
  191.4770  178.2070  143.3610 O   0  0  0  0  0  1  0  0  0  0  0  0
  192.2150  176.0520  142.4850 C   0  0  0  0  0  0  0  0  0  0  0  0
  190.5490  174.4030  141.8710 C   0  0  0  0  0  3  0  0  0  0  0  0
  191.8790  174.7940  141.9860 C   0  0  0  0  0  3  0  0  0  0  0  0
  189.5130  175.2560  142.2520 C   0  0  0  0  0  0  0  0  0  0  0  0
  188.1470  174.7160  142.0950 C   0  0  0  0  0  3  0  0  0  0  0  0
  187.8380  173.4280  142.0050 C   0  0  0  0  0  2  0  0  0  0  0  0
  194.4770  176.4020  141.4730 C   0  0  0  0  0  1  0  0  0  0  0  0
  193.5800  176.3610  142.5720 O   0  0  0  0  0  0  0  0  0  0  0  0
  1  4  1  0  0  0  0
  1 13  1  0  0  0  0
  2  6  1  0  0  0  0
  2 10  1  0  0  0  0
  4  2  2  0  0  0  0
  5  3  1  6  0  0  0
  5  9  1  0  0  0  0
  7  6  1  0  0  0  0
  8 15  1  0  0  0  0
  8  7  1  1  0  0  0
  9 14  2  0  0  0  0
 11 17  1  6  0  0  0
 11  3  1  0  0  0  0
 11 12  1  0  0  0  0
 13 33  1  0  0  0  0
 13 10  2  0  0  0  0
 14  8  1  0  0  0  0
 15  4  1  6  0  0  0
 16 12  1  1  0  0  0
 16  5  1  0  0  0  0
 16 15  1  0  0  0  0
 19 18  2  0  0  0  0
 19 17  1  0  0  0  0
 20 19  1  0  0  0  0
 21 20  1  0  0  0  0
 22 29  1  0  0  0  0
 22 25  1  0  0  0  0
 23 27  1  0  0  0  0
 23 24  1  0  0  0  0
 24 26  1  0  0  0  0
 25 26  2  0  0  0  0
 25 21  1  0  0  0  0
 27 22  2  0  0  0  0
 28 30  1  0  0  0  0
 28 29  1  0  0  0  0
 30 29  1  0  0  0  0
 32  9  1  0  0  0  0
 32 31  1  0  0  0  0
 34 33  1  0  0  0  0
 35 34  1  0  0  0  0
 36 35  1  0  0  0  0
 37 38  1  0  0  0  0
 37 36  1  0  0  0  0
 38 39  1  0  0  0  0
 40 47  1  0  0  0  0
 40 38  2  0  0  0  0
 41 42  2  0  0  0  0
 41 43  1  0  0  0  0
 42 40  1  0  0  0  0
 43 37  2  0  0  0  0
 44 43  1  0  0  0  0
 45 44  2  0  0  0  0
 46 47  1  0  0  0  0
M  END
>  <MODEL>
7

>  <REMARK>
 VINA RESULT:      -6.7      2.677      7.361
  Name = 
  13 active torsions:
  status: ('A' for Active; 'I' for Inactive)
    1  A    between atoms: C_2  and  C_46
    2  A    between atoms: N_4  and  C_34
    3  A    between atoms: C_5  and  C_24
    4  A    between atoms: C_6  and  C_20
    5  A    between atoms: C_7  and  C_39
    6  A    between atoms: C_7  and  C_43
    7  A    between atoms: C_11  and  C_14
    8  A    between atoms: C_11  and  C_32
    9  A    between atoms: C_14  and  C_29
   10  A    between atoms: C_24  and  C_41
   11  A    between atoms: C_25  and  O_44
   12  A    between atoms: O_27  and  C_30
   13  A    between atoms: C_41  and  C_43
                            x       y       z     vdW  Elec       q    Type
                         _______ _______ _______ _____ _____    ______ ____

>  <TORSDO>
F 13

$$$$
=
 OpenBabel11042415333D

 47 53  0  0  1  0  0  0  0  0999 V2000
  188.7110  177.4460  145.1340 S   0  0  0  0  0  0  0  0  0  0  0  0
  186.5420  178.0910  146.2000 C   0  0  0  0  0  0  0  0  0  0  0  0
  186.3930  176.9870  140.1500 C   0  0  0  0  0  2  0  0  0  0  0  0
  187.0820  177.8210  144.9440 C   0  0  0  0  0  0  0  0  0  0  0  0
  185.9380  177.8280  141.3110 C   0  0  1  0  0  3  0  0  0  0  0  0
  185.0990  178.4800  146.3970 C   0  0  0  0  0  2  0  0  0  0  0  0
  184.4320  178.9430  145.0910 C   0  0  0  0  0  2  0  0  0  0  0  0
  184.8390  178.0190  143.9490 C   0  0  1  0  0  3  0  0  0  0  0  0
  184.4620  178.0110  141.5320 C   0  0  0  0  0  0  0  0  0  0  0  0
  187.4420  177.9180  147.2580 C   0  0  0  0  0  3  0  0  0  0  0  0
  187.8340  176.6190  140.5270 C   0  0  1  0  0  3  0  0  0  0  0  0
  188.0180  177.0160  141.9960 C   0  0  0  0  0  2  0  0  0  0  0  0
  188.7040  177.5350  146.8130 C   0  0  0  0  0  0  0  0  0  0  0  0
  184.0100  178.1960  142.7460 N   0  0  0  0  0  0  0  0  0  0  0  0
  186.3500  178.1330  143.6700 C   0  0  2  0  0  3  0  0  0  0  0  0
  186.6070  177.2010  142.4970 C   0  0  1  0  0  3  0  0  0  0  0  0
  188.0260  175.1830  140.3840 N   0  0  0  0  0  2  0  0  0  0  0  0
  188.0840  175.2180  138.0480 O   0  0  0  0  0  0  0  0  0  0  0  0
  188.1130  174.5420  139.1100 C   0  0  0  0  0  0  0  0  0  0  0  0
  188.1910  173.0590  139.0390 C   0  0  0  0  0  2  0  0  0  0  0  0
  189.6280  172.6370  138.7840 C   0  0  0  0  0  2  0  0  0  0  0  0
  190.3130  170.1790  139.2730 C   0  0  0  0  0  0  0  0  0  0  0  0
  191.5250  169.8080  141.4030 C   0  0  0  0  0  2  0  0  0  0  0  0
  190.5620  170.8180  142.0340 C   0  0  0  0  0  2  0  0  0  0  0  0
  190.0360  171.5670  139.7410 C   0  0  0  0  0  0  0  0  0  0  0  0
  190.1960  171.8790  141.0350 C   0  0  0  0  0  3  0  0  0  0  0  0
  191.0030  169.3470  140.0700 C   0  0  0  0  0  3  0  0  0  0  0  0
  191.0810  169.8000  136.9260 C   0  0  0  0  0  2  0  0  0  0  0  0
  189.9090  169.7280  137.8960 C   0  0  0  0  0  3  0  0  0  0  0  0
  190.6710  168.4710  137.5130 C   0  0  0  0  0  2  0  0  0  0  0  0
  182.2030  178.2600  140.5730 C   0  0  0  0  0  1  0  0  0  0  0  0
  183.6080  178.1110  140.4310 O   0  0  0  0  0  0  0  0  0  0  0  0
  189.9110  177.3450  147.6730 C   0  0  0  0  0  2  0  0  0  0  0  0
  190.6240  176.0340  147.3650 C   0  0  0  0  0  2  0  0  0  0  0  0
  192.0550  176.2760  146.9150 C   0  0  0  0  0  2  0  0  0  0  0  0
  192.7150  174.9670  146.5120 C   0  0  0  0  0  2  0  0  0  0  0  0
  192.9960  174.9630  145.0400 C   0  0  0  0  0  0  0  0  0  0  0  0
  194.1190  175.6760  144.5740 C   0  0  0  0  0  0  0  0  0  0  0  0
  194.9400  176.3220  145.4950 O   0  0  0  0  0  1  0  0  0  0  0  0
  194.4020  175.7320  143.1900 C   0  0  0  0  0  0  0  0  0  0  0  0
  192.4410  174.3770  142.7520 C   0  0  0  0  0  3  0  0  0  0  0  0
  193.5520  175.0810  142.2970 C   0  0  0  0  0  3  0  0  0  0  0  0
  192.1480  174.2990  144.1140 C   0  0  0  0  0  0  0  0  0  0  0  0
  190.9520  173.5070  144.4680 C   0  0  0  0  0  3  0  0  0  0  0  0
  189.7000  173.9470  144.4200 C   0  0  0  0  0  2  0  0  0  0  0  0
  195.8490  176.4260  141.2690 C   0  0  0  0  0  1  0  0  0  0  0  0
  195.5000  176.4140  142.6440 O   0  0  0  0  0  0  0  0  0  0  0  0
  1 13  1  0  0  0  0
  2  6  1  0  0  0  0
  2 10  1  0  0  0  0
  3 11  1  0  0  0  0
  4  1  1  0  0  0  0
  4  2  2  0  0  0  0
  5  3  1  6  0  0  0
  5  9  1  0  0  0  0
  5 16  1  0  0  0  0
  7  6  1  0  0  0  0
  8  7  1  1  0  0  0
  9 14  2  0  0  0  0
 11 17  1  1  0  0  0
 11 12  1  0  0  0  0
 13 10  2  0  0  0  0
 13 33  1  0  0  0  0
 14  8  1  0  0  0  0
 15  8  1  0  0  0  0
 15  4  1  1  0  0  0
 16 12  1  6  0  0  0
 16 15  1  0  0  0  0
 18 19  2  0  0  0  0
 19 17  1  0  0  0  0
 20 19  1  0  0  0  0
 21 20  1  0  0  0  0
 21 25  1  0  0  0  0
 22 25  1  0  0  0  0
 22 27  2  0  0  0  0
 23 24  1  0  0  0  0
 25 26  2  0  0  0  0
 26 24  1  0  0  0  0
 27 23  1  0  0  0  0
 28 30  1  0  0  0  0
 28 29  1  0  0  0  0
 29 22  1  0  0  0  0
 30 29  1  0  0  0  0
 32 31  1  0  0  0  0
 32  9  1  0  0  0  0
 34 33  1  0  0  0  0
 35 34  1  0  0  0  0
 36 35  1  0  0  0  0
 37 36  1  0  0  0  0
 38 37  1  0  0  0  0
 38 39  1  0  0  0  0
 40 38  2  0  0  0  0
 41 43  1  0  0  0  0
 42 41  2  0  0  0  0
 42 40  1  0  0  0  0
 43 44  1  0  0  0  0
 43 37  2  0  0  0  0
 45 44  2  0  0  0  0
 46 47  1  0  0  0  0
 47 40  1  0  0  0  0
M  END
>  <MODEL>
8

>  <REMARK>
 VINA RESULT:      -6.7      2.495      7.533
  Name = 
  13 active torsions:
  status: ('A' for Active; 'I' for Inactive)
    1  A    between atoms: C_2  and  C_46
    2  A    between atoms: N_4  and  C_34
    3  A    between atoms: C_5  and  C_24
    4  A    between atoms: C_6  and  C_20
    5  A    between atoms: C_7  and  C_39
    6  A    between atoms: C_7  and  C_43
    7  A    between atoms: C_11  and  C_14
    8  A    between atoms: C_11  and  C_32
    9  A    between atoms: C_14  and  C_29
   10  A    between atoms: C_24  and  C_41
   11  A    between atoms: C_25  and  O_44
   12  A    between atoms: O_27  and  C_30
   13  A    between atoms: C_41  and  C_43
                            x       y       z     vdW  Elec       q    Type
                         _______ _______ _______ _____ _____    ______ ____

>  <TORSDO>
F 13

$$$$
=
 OpenBabel11042415333D

 47 53  0  0  1  0  0  0  0  0999 V2000
  188.3190  176.8510  145.0440 S   0  0  0  0  0  0  0  0  0  0  0  0
  186.2100  177.4280  146.2590 C   0  0  0  0  0  0  0  0  0  0  0  0
  185.9440  177.5420  140.1140 C   0  0  0  0  0  2  0  0  0  0  0  0
  186.7210  177.3710  144.9640 C   0  0  0  0  0  0  0  0  0  0  0  0
  185.5580  178.1700  141.4260 C   0  0  1  0  0  3  0  0  0  0  0  0
  184.8010  177.8730  146.5570 C   0  0  0  0  0  2  0  0  0  0  0  0
  184.1620  178.6290  145.3800 C   0  0  0  0  0  2  0  0  0  0  0  0
  184.4930  177.9190  144.0720 C   0  0  1  0  0  3  0  0  0  0  0  0
  184.1010  178.4120  141.7080 C   0  0  0  0  0  0  0  0  0  0  0  0
  187.1010  176.9880  147.2440 C   0  0  0  0  0  3  0  0  0  0  0  0
  187.3550  177.0060  140.3830 C   0  0  1  0  0  3  0  0  0  0  0  0
  187.5780  177.0940  141.8970 C   0  0  0  0  0  2  0  0  0  0  0  0
  188.3280  176.6100  146.7080 C   0  0  0  0  0  0  0  0  0  0  0  0
  183.6720  178.3870  142.9430 N   0  0  0  0  0  0  0  0  0  0  0  0
  186.0060  177.9780  143.7900 C   0  0  2  0  0  3  0  0  0  0  0  0
  186.1870  177.2780  142.4530 C   0  0  1  0  0  3  0  0  0  0  0  0
  187.4400  175.6160  139.9590 N   0  0  0  0  0  2  0  0  0  0  0  0
  189.3190  175.1220  141.2580 O   0  0  0  0  0  0  0  0  0  0  0  0
  188.4680  174.7340  140.4130 C   0  0  0  0  0  0  0  0  0  0  0  0
  188.5620  173.3630  139.8480 C   0  0  0  0  0  2  0  0  0  0  0  0
  188.7400  172.3600  140.9730 C   0  0  0  0  0  2  0  0  0  0  0  0
  190.7250  171.7500  142.5370 C   0  0  0  0  0  0  0  0  0  0  0  0
  192.7040  170.7600  141.4200 C   0  0  0  0  0  2  0  0  0  0  0  0
  192.4740  171.7720  140.2930 C   0  0  0  0  0  2  0  0  0  0  0  0
  190.1880  172.0590  141.1810 C   0  0  0  0  0  0  0  0  0  0  0  0
  191.0030  172.0260  140.1180 C   0  0  0  0  0  3  0  0  0  0  0  0
  191.9210  171.1500  142.6440 C   0  0  0  0  0  3  0  0  0  0  0  0
  190.7340  172.7530  144.8260 C   0  0  0  0  0  2  0  0  0  0  0  0
  189.9120  172.0190  143.7750 C   0  0  0  0  0  3  0  0  0  0  0  0
  189.7460  173.5160  143.9760 C   0  0  0  0  0  2  0  0  0  0  0  0
  181.9450  178.2480  140.5220 C   0  0  0  0  0  1  0  0  0  0  0  0
  183.2500  178.7860  140.6650 O   0  0  0  0  0  0  0  0  0  0  0  0
  189.5230  176.1700  147.4900 C   0  0  0  0  0  2  0  0  0  0  0  0
  190.8040  176.8170  146.9770 C   0  0  0  0  0  2  0  0  0  0  0  0
  191.8720  175.7750  146.6870 C   0  0  0  0  0  2  0  0  0  0  0  0
  193.0470  176.4070  145.9580 C   0  0  0  0  0  2  0  0  0  0  0  0
  193.3590  175.6300  144.7150 C   0  0  0  0  0  0  0  0  0  0  0  0
  194.4490  174.7360  144.7430 C   0  0  0  0  0  0  0  0  0  0  0  0
  195.1670  174.5820  145.9270 O   0  0  0  0  0  1  0  0  0  0  0  0
  194.8030  174.0090  143.5830 C   0  0  0  0  0  0  0  0  0  0  0  0
  192.9920  175.0790  142.3810 C   0  0  0  0  0  3  0  0  0  0  0  0
  194.0670  174.1970  142.4140 C   0  0  0  0  0  3  0  0  0  0  0  0
  192.6170  175.7990  143.5160 C   0  0  0  0  0  0  0  0  0  0  0  0
  191.4490  176.6880  143.3530 C   0  0  0  0  0  3  0  0  0  0  0  0
  191.4960  178.0130  143.3000 C   0  0  0  0  0  2  0  0  0  0  0  0
  196.0360  172.1020  142.5310 C   0  0  0  0  0  1  0  0  0  0  0  0
  195.8680  173.0970  143.5280 O   0  0  0  0  0  0  0  0  0  0  0  0
  1 13  1  0  0  0  0
  2  6  1  0  0  0  0
  2 10  1  0  0  0  0
  3 11  1  0  0  0  0
  4  1  1  0  0  0  0
  4  2  2  0  0  0  0
  5  3  1  6  0  0  0
  5  9  1  0  0  0  0
  5 16  1  0  0  0  0
  7  6  1  0  0  0  0
  8  7  1  1  0  0  0
  9 14  2  0  0  0  0
 11 17  1  1  0  0  0
 11 12  1  0  0  0  0
 13 10  2  0  0  0  0
 13 33  1  0  0  0  0
 14  8  1  0  0  0  0
 15  8  1  0  0  0  0
 15  4  1  1  0  0  0
 16 12  1  6  0  0  0
 16 15  1  0  0  0  0
 17 19  1  0  0  0  0
 19 18  2  0  0  0  0
 20 19  1  0  0  0  0
 20 21  1  0  0  0  0
 21 25  1  0  0  0  0
 22 27  2  0  0  0  0
 22 29  1  0  0  0  0
 23 27  1  0  0  0  0
 24 23  1  0  0  0  0
 25 22  1  0  0  0  0
 26 24  1  0  0  0  0
 26 25  2  0  0  0  0
 29 30  1  0  0  0  0
 29 28  1  0  0  0  0
 30 28  1  0  0  0  0
 31 32  1  0  0  0  0
 32  9  1  0  0  0  0
 34 33  1  0  0  0  0
 35 34  1  0  0  0  0
 36 35  1  0  0  0  0
 37 38  1  0  0  0  0
 37 36  1  0  0  0  0
 38 39  1  0  0  0  0
 40 38  2  0  0  0  0
 41 42  2  0  0  0  0
 41 43  1  0  0  0  0
 42 40  1  0  0  0  0
 43 37  2  0  0  0  0
 44 43  1  0  0  0  0
 45 44  2  0  0  0  0
 46 47  1  0  0  0  0
 47 40  1  0  0  0  0
M  END
>  <MODEL>
9

>  <REMARK>
 VINA RESULT:      -6.7      2.373      6.946
  Name = 
  13 active torsions:
  status: ('A' for Active; 'I' for Inactive)
    1  A    between atoms: C_2  and  C_46
    2  A    between atoms: N_4  and  C_34
    3  A    between atoms: C_5  and  C_24
    4  A    between atoms: C_6  and  C_20
    5  A    between atoms: C_7  and  C_39
    6  A    between atoms: C_7  and  C_43
    7  A    between atoms: C_11  and  C_14
    8  A    between atoms: C_11  and  C_32
    9  A    between atoms: C_14  and  C_29
   10  A    between atoms: C_24  and  C_41
   11  A    between atoms: C_25  and  O_44
   12  A    between atoms: O_27  and  C_30
   13  A    between atoms: C_41  and  C_43
                            x       y       z     vdW  Elec       q    Type
                         _______ _______ _______ _____ _____    ______ ____

>  <TORSDO>
F 13

$$$$
