=
 OpenBabel11042414563D

 39 44  0  0  1  0  0  0  0  0999 V2000
  188.3330  175.9810  141.3820 C   0  0  0  0  0  3  0  0  0  0  0  0
  189.7110  173.5050  143.6100 C   0  0  0  0  0  3  0  0  0  0  0  0
  188.6920  175.6910  143.5060 C   0  0  0  0  0  0  0  0  0  0  0  0
  188.9350  174.7280  141.5270 C   0  0  0  0  0  0  0  0  0  0  0  0
  189.3110  174.8040  145.6450 C   0  0  0  0  0  0  0  0  0  0  0  0
  189.1550  174.5600  142.8860 C   0  0  0  0  0  0  0  0  0  0  0  0
  188.2010  176.5540  142.6000 N   0  0  0  0  0  0  0  0  0  0  0  0
  189.7850  173.6380  145.0070 C   0  0  0  0  0  3  0  0  0  0  0  0
  188.7500  175.8500  144.8910 C   0  0  0  0  0  3  0  0  0  0  0  0
  189.8510  172.0270  138.3610 C   0  0  0  0  0  3  0  0  0  0  0  0
  188.5210  172.1980  138.7510 C   0  0  0  0  0  3  0  0  0  0  0  0
  190.8390  172.7180  138.9900 N   0  0  0  0  0  0  0  0  0  0  0  0
  188.2240  173.0830  139.7880 C   0  0  0  0  0  3  0  0  0  0  0  0
  189.2500  173.7900  140.4280 C   0  0  0  0  0  0  0  0  0  0  0  0
  190.5690  173.5850  140.0020 C   0  0  0  0  0  3  0  0  0  0  0  0
  189.4110  174.9450  147.4240 S   0  0  0  0  0  0  0  0  0  0  0  0
  190.3240  176.5140  147.3280 C   0  0  0  0  0  2  0  0  0  0  0  0
  191.7390  176.2810  147.5780 N   0  0  0  0  0  2  0  0  0  0  0  0
  193.9980  176.8670  146.7780 C   0  0  0  0  0  3  0  0  0  0  0  0
  195.7380  176.3820  143.4760 C   0  0  0  0  0  1  0  0  0  0  0  0
  194.6630  176.3290  144.5080 C   0  0  0  0  0  0  0  0  0  0  0  0
  192.4410  175.7600  145.3020 C   0  0  0  0  0  3  0  0  0  0  0  0
  192.7350  176.3100  146.5510 C   0  0  0  0  0  0  0  0  0  0  0  0
  194.9530  176.8760  145.7620 C   0  0  0  0  0  3  0  0  0  0  0  0
  193.3880  175.7570  144.2650 C   0  0  0  0  0  0  0  0  0  0  0  0
  193.3520  173.8510  142.6350 O   0  0  0  0  0  1  0  0  0  0  0  0
  192.3270  175.8250  142.1360 O   0  0  0  0  0  0  0  0  0  0  0  0
  192.9990  175.1530  142.9660 C   0  0  0  0  0  0  0  0  0  0  0  0
  187.5770  177.8420  142.8650 C   0  0  0  0  0  2  0  0  0  0  0  0
  185.1060  178.5030  142.9480 C   0  0  2  0  0  3  0  0  0  0  0  0
  185.2950  177.1130  142.8180 O   0  0  0  0  0  0  0  0  0  0  0  0
  186.2310  177.9250  142.1500 C   0  0  2  0  0  3  0  0  0  0  0  0
  185.4530  178.9250  144.3710 C   0  0  0  0  0  2  0  0  0  0  0  0
  184.2020  178.8850  145.2270 C   0  0  0  0  0  2  0  0  0  0  0  0
  184.5330  178.4130  146.5620 N   0  0  0  0  0  0  0  0  0  0  0  0
  186.1990  176.8930  147.2390 N   0  0  0  0  0  2  0  0  0  0  0  0
  185.6320  179.1650  147.0060 N   0  0  0  0  0  2  0  0  0  0  0  0
  186.4980  178.2320  147.7060 C   0  0  0  0  0  2  0  0  0  0  0  0
  185.0150  177.0500  146.4180 C   0  0  0  0  0  2  0  0  0  0  0  0
  1  4  2  0  0  0  0
  1  7  1  0  0  0  0
  2  8  1  0  0  0  0
  3  9  2  0  0  0  0
  4  6  1  0  0  0  0
  5 16  1  0  0  0  0
  6  3  1  0  0  0  0
  6  2  2  0  0  0  0
  7 29  1  0  0  0  0
  7  3  1  0  0  0  0
  8  5  2  0  0  0  0
  9  5  1  0  0  0  0
 10 11  2  0  0  0  0
 10 12  1  0  0  0  0
 11 13  1  0  0  0  0
 12 15  2  0  0  0  0
 13 14  2  0  0  0  0
 14  4  1  0  0  0  0
 15 14  1  0  0  0  0
 17 16  1  0  0  0  0
 17 18  1  0  0  0  0
 20 21  1  0  0  0  0
 21 24  1  0  0  0  0
 22 23  2  0  0  0  0
 23 19  1  0  0  0  0
 23 18  1  0  0  0  0
 24 19  2  0  0  0  0
 25 21  2  0  0  0  0
 25 22  1  0  0  0  0
 26 28  1  0  0  0  0
 27 28  2  0  0  0  0
 28 25  1  0  0  0  0
 30 33  1  1  0  0  0
 31 30  1  0  0  0  0
 32 31  1  0  0  0  0
 32 29  1  1  0  0  0
 32 30  1  0  0  0  0
 33 34  1  0  0  0  0
 34 35  1  0  0  0  0
 35 37  1  0  0  0  0
 36 38  1  0  0  0  0
 37 38  1  0  0  0  0
 39 35  1  0  0  0  0
 39 36  1  0  0  0  0
M  END
>  <MODEL>
1

>  <REMARK>
 VINA RESULT:      -7.6      0.000      0.000
  Name = 
  11 active torsions:
  status: ('A' for Active; 'I' for Inactive)
    1  A    between atoms: N_1  and  C_11
    2  A    between atoms: N_2  and  C_6
    3  A    between atoms: N_2  and  C_26
    4  A    between atoms: C_6  and  S_16
    5  A    between atoms: C_9  and  C_33
    6  A    between atoms: C_11  and  C_28
    7  A    between atoms: C_12  and  S_16
    8  A    between atoms: C_15  and  C_28
    9  A    between atoms: C_18  and  N_19
   10  A    between atoms: C_18  and  C_39
   11  A    between atoms: C_31  and  C_34
                            x       y       z     vdW  Elec       q    Type
                         _______ _______ _______ _____ _____    ______ ____

>  <TORSDO>
F 11

$$$$
=
 OpenBabel11042414563D

 39 44  0  0  1  0  0  0  0  0999 V2000
  191.1580  174.0330  143.4370 C   0  0  0  0  0  3  0  0  0  0  0  0
  189.9600  177.4080  143.0310 C   0  0  0  0  0  3  0  0  0  0  0  0
  189.6190  175.1160  142.3500 C   0  0  0  0  0  0  0  0  0  0  0  0
  191.2940  175.3820  143.7730 C   0  0  0  0  0  0  0  0  0  0  0  0
  188.1730  176.8120  141.4670 C   0  0  0  0  0  0  0  0  0  0  0  0
  190.3050  176.0560  143.0730 C   0  0  0  0  0  0  0  0  0  0  0  0
  190.1360  173.8940  142.5620 N   0  0  0  0  0  0  0  0  0  0  0  0
  188.8780  177.7800  142.2150 C   0  0  0  0  0  3  0  0  0  0  0  0
  188.5400  175.4560  141.5340 C   0  0  0  0  0  3  0  0  0  0  0  0
  194.1810  176.9960  146.4610 C   0  0  0  0  0  3  0  0  0  0  0  0
  194.4760  176.9310  145.0980 C   0  0  0  0  0  3  0  0  0  0  0  0
  192.9820  176.5460  146.9190 N   0  0  0  0  0  0  0  0  0  0  0  0
  193.5300  176.4030  144.2200 C   0  0  0  0  0  3  0  0  0  0  0  0
  192.2980  175.9420  144.7040 C   0  0  0  0  0  0  0  0  0  0  0  0
  192.0470  176.0280  146.0800 C   0  0  0  0  0  3  0  0  0  0  0  0
  186.7980  177.3120  140.4410 S   0  0  0  0  0  0  0  0  0  0  0  0
  186.1440  178.4240  141.7210 C   0  0  0  0  0  2  0  0  0  0  0  0
  185.3140  177.6740  142.6540 N   0  0  0  0  0  2  0  0  0  0  0  0
  184.4510  178.3050  144.8770 C   0  0  0  0  0  3  0  0  0  0  0  0
  185.8720  177.9850  148.3480 C   0  0  0  0  0  1  0  0  0  0  0  0
  185.7770  177.8790  146.8630 C   0  0  0  0  0  0  0  0  0  0  0  0
  186.6200  177.2660  144.6710 C   0  0  0  0  0  3  0  0  0  0  0  0
  185.4570  177.7560  144.0750 C   0  0  0  0  0  0  0  0  0  0  0  0
  184.6130  178.3660  146.2600 C   0  0  0  0  0  3  0  0  0  0  0  0
  186.8040  177.3160  146.0630 C   0  0  0  0  0  0  0  0  0  0  0  0
  188.1610  175.4640  147.0730 O   0  0  0  0  0  1  0  0  0  0  0  0
  189.0920  177.5080  146.6860 O   0  0  0  0  0  0  0  0  0  0  0  0
  188.0680  176.7740  146.6210 C   0  0  0  0  0  0  0  0  0  0  0  0
  189.6570  172.6330  142.0150 C   0  0  0  0  0  2  0  0  0  0  0  0
  190.7630  171.4270  140.0470 C   0  0  2  0  0  3  0  0  0  0  0  0
  190.3750  170.5480  141.0780 O   0  0  0  0  0  0  0  0  0  0  0  0
  190.8330  171.8140  141.4900 C   0  0  2  0  0  3  0  0  0  0  0  0
  189.5230  171.8960  139.2960 C   0  0  0  0  0  2  0  0  0  0  0  0
  189.9340  172.4690  137.9540 C   0  0  0  0  0  2  0  0  0  0  0  0
  189.5950  173.8820  137.8960 N   0  0  0  0  0  0  0  0  0  0  0  0
  188.4240  175.0720  136.2360 N   0  0  0  0  0  2  0  0  0  0  0  0
  188.2660  174.0060  138.3270 N   0  0  0  0  0  2  0  0  0  0  0  0
  187.6550  175.0000  137.4620 C   0  0  0  0  0  2  0  0  0  0  0  0
  189.5950  174.2580  136.4930 C   0  0  0  0  0  2  0  0  0  0  0  0
  1  4  2  0  0  0  0
  2  6  1  0  0  0  0
  3  7  1  0  0  0  0
  3  6  2  0  0  0  0
  4 14  1  0  0  0  0
  5  9  2  0  0  0  0
  5  8  1  0  0  0  0
  6  4  1  0  0  0  0
  7  1  1  0  0  0  0
  8  2  2  0  0  0  0
  9  3  1  0  0  0  0
 10 12  1  0  0  0  0
 11 10  2  0  0  0  0
 13 14  2  0  0  0  0
 13 11  1  0  0  0  0
 14 15  1  0  0  0  0
 15 12  2  0  0  0  0
 16  5  1  0  0  0  0
 16 17  1  0  0  0  0
 17 18  1  0  0  0  0
 18 23  1  0  0  0  0
 19 24  1  0  0  0  0
 21 20  1  0  0  0  0
 22 25  2  0  0  0  0
 23 22  1  0  0  0  0
 23 19  2  0  0  0  0
 24 21  2  0  0  0  0
 25 28  1  0  0  0  0
 25 21  1  0  0  0  0
 28 27  2  0  0  0  0
 28 26  1  0  0  0  0
 29  7  1  0  0  0  0
 30 33  1  6  0  0  0
 30 31  1  0  0  0  0
 30 32  1  0  0  0  0
 31 32  1  0  0  0  0
 32 29  1  6  0  0  0
 34 33  1  0  0  0  0
 35 34  1  0  0  0  0
 35 37  1  0  0  0  0
 36 39  1  0  0  0  0
 36 38  1  0  0  0  0
 38 37  1  0  0  0  0
 39 35  1  0  0  0  0
M  END
>  <MODEL>
2

>  <REMARK>
 VINA RESULT:      -7.3      2.686      7.989
  Name = 
  11 active torsions:
  status: ('A' for Active; 'I' for Inactive)
    1  A    between atoms: N_1  and  C_11
    2  A    between atoms: N_2  and  C_6
    3  A    between atoms: N_2  and  C_26
    4  A    between atoms: C_6  and  S_16
    5  A    between atoms: C_9  and  C_33
    6  A    between atoms: C_11  and  C_28
    7  A    between atoms: C_12  and  S_16
    8  A    between atoms: C_15  and  C_28
    9  A    between atoms: C_18  and  N_19
   10  A    between atoms: C_18  and  C_39
   11  A    between atoms: C_31  and  C_34
                            x       y       z     vdW  Elec       q    Type
                         _______ _______ _______ _____ _____    ______ ____

>  <TORSDO>
F 11

$$$$
=
 OpenBabel11042414563D

 39 44  0  0  1  0  0  0  0  0999 V2000
  188.4670  174.7430  141.0190 C   0  0  0  0  0  3  0  0  0  0  0  0
  190.5570  173.2830  143.5660 C   0  0  0  0  0  3  0  0  0  0  0  0
  188.7590  174.8460  143.1690 C   0  0  0  0  0  0  0  0  0  0  0  0
  189.5070  173.8640  141.3310 C   0  0  0  0  0  0  0  0  0  0  0  0
  189.5280  174.5120  145.4150 C   0  0  0  0  0  0  0  0  0  0  0  0
  189.6780  173.9420  142.7050 C   0  0  0  0  0  0  0  0  0  0  0  0
  188.0310  175.3370  142.1530 N   0  0  0  0  0  0  0  0  0  0  0  0
  190.4730  173.5780  144.9370 C   0  0  0  0  0  3  0  0  0  0  0  0
  188.6510  175.1570  144.5250 C   0  0  0  0  0  3  0  0  0  0  0  0
  191.6380  171.4400  138.5490 C   0  0  0  0  0  3  0  0  0  0  0  0
  191.8060  172.8260  138.5180 C   0  0  0  0  0  3  0  0  0  0  0  0
  190.8000  170.8770  139.4590 N   0  0  0  0  0  0  0  0  0  0  0  0
  191.1080  173.6170  139.4300 C   0  0  0  0  0  3  0  0  0  0  0  0
  190.2470  173.0250  140.3640 C   0  0  0  0  0  0  0  0  0  0  0  0
  190.1110  171.6310  140.3560 C   0  0  0  0  0  3  0  0  0  0  0  0
  189.4380  174.8660  147.1650 S   0  0  0  0  0  0  0  0  0  0  0  0
  189.9090  176.6040  146.9190 C   0  0  0  0  0  2  0  0  0  0  0  0
  191.3540  176.7110  146.7750 N   0  0  0  0  0  2  0  0  0  0  0  0
  191.5670  177.1360  144.3540 C   0  0  0  0  0  3  0  0  0  0  0  0
  194.0880  176.0350  141.7850 C   0  0  0  0  0  1  0  0  0  0  0  0
  193.4160  176.1800  143.1090 C   0  0  0  0  0  0  0  0  0  0  0  0
  193.1960  175.7640  145.4900 C   0  0  0  0  0  3  0  0  0  0  0  0
  192.0350  176.5370  145.5280 C   0  0  0  0  0  0  0  0  0  0  0  0
  192.2530  176.9560  143.1540 C   0  0  0  0  0  3  0  0  0  0  0  0
  193.9050  175.5710  144.2920 C   0  0  0  0  0  0  0  0  0  0  0  0
  195.0880  173.3670  144.0960 O   0  0  0  0  0  0  0  0  0  0  0  0
  196.2470  175.2680  144.5830 O   0  0  0  0  0  1  0  0  0  0  0  0
  195.1310  174.7350  144.3340 C   0  0  0  0  0  0  0  0  0  0  0  0
  186.9280  176.2820  142.2420 C   0  0  0  0  0  2  0  0  0  0  0  0
  186.6530  178.8270  142.2430 C   0  0  2  0  0  3  0  0  0  0  0  0
  186.2590  178.2360  141.0260 O   0  0  0  0  0  0  0  0  0  0  0  0
  187.3540  177.6340  141.6750 C   0  0  2  0  0  3  0  0  0  0  0  0
  185.6020  178.5330  143.3060 C   0  0  0  0  0  2  0  0  0  0  0  0
  185.5740  179.6660  144.3140 C   0  0  0  0  0  2  0  0  0  0  0  0
  185.6270  179.1270  145.6640 N   0  0  0  0  0  0  0  0  0  0  0  0
  184.6310  177.1810  146.5370 N   0  0  0  0  0  2  0  0  0  0  0  0
  186.6050  178.1220  145.6680 N   0  0  0  0  0  2  0  0  0  0  0  0
  186.0740  177.0510  146.4940 C   0  0  0  0  0  2  0  0  0  0  0  0
  184.3620  178.4530  145.8970 C   0  0  0  0  0  2  0  0  0  0  0  0
  1  4  2  0  0  0  0
  1  7  1  0  0  0  0
  2  8  1  0  0  0  0
  3  9  2  0  0  0  0
  4  6  1  0  0  0  0
  5 16  1  0  0  0  0
  6  3  1  0  0  0  0
  6  2  2  0  0  0  0
  7 29  1  0  0  0  0
  7  3  1  0  0  0  0
  8  5  2  0  0  0  0
  9  5  1  0  0  0  0
 10 12  1  0  0  0  0
 11 10  2  0  0  0  0
 11 13  1  0  0  0  0
 12 15  2  0  0  0  0
 13 14  2  0  0  0  0
 14  4  1  0  0  0  0
 15 14  1  0  0  0  0
 17 16  1  0  0  0  0
 18 17  1  0  0  0  0
 19 23  1  0  0  0  0
 20 21  1  0  0  0  0
 21 24  1  0  0  0  0
 21 25  2  0  0  0  0
 22 23  2  0  0  0  0
 23 18  1  0  0  0  0
 24 19  2  0  0  0  0
 25 28  1  0  0  0  0
 25 22  1  0  0  0  0
 26 28  2  0  0  0  0
 28 27  1  0  0  0  0
 30 33  1  1  0  0  0
 31 32  1  0  0  0  0
 31 30  1  0  0  0  0
 32 29  1  1  0  0  0
 32 30  1  0  0  0  0
 33 34  1  0  0  0  0
 34 35  1  0  0  0  0
 35 37  1  0  0  0  0
 35 39  1  0  0  0  0
 37 38  1  0  0  0  0
 38 36  1  0  0  0  0
 39 36  1  0  0  0  0
M  END
>  <MODEL>
3

>  <REMARK>
 VINA RESULT:      -7.0      1.489      1.939
  Name = 
  11 active torsions:
  status: ('A' for Active; 'I' for Inactive)
    1  A    between atoms: N_1  and  C_11
    2  A    between atoms: N_2  and  C_6
    3  A    between atoms: N_2  and  C_26
    4  A    between atoms: C_6  and  S_16
    5  A    between atoms: C_9  and  C_33
    6  A    between atoms: C_11  and  C_28
    7  A    between atoms: C_12  and  S_16
    8  A    between atoms: C_15  and  C_28
    9  A    between atoms: C_18  and  N_19
   10  A    between atoms: C_18  and  C_39
   11  A    between atoms: C_31  and  C_34
                            x       y       z     vdW  Elec       q    Type
                         _______ _______ _______ _____ _____    ______ ____

>  <TORSDO>
F 11

$$$$
=
 OpenBabel11042414563D

 39 44  0  0  1  0  0  0  0  0999 V2000
  187.7540  176.2640  143.3390 C   0  0  0  0  0  3  0  0  0  0  0  0
  189.2480  177.2580  146.4650 C   0  0  0  0  0  3  0  0  0  0  0  0
  189.6570  176.1150  144.3780 C   0  0  0  0  0  0  0  0  0  0  0  0
  187.5960  176.9020  144.5730 C   0  0  0  0  0  0  0  0  0  0  0  0
  191.4400  176.2900  145.9700 C   0  0  0  0  0  0  0  0  0  0  0  0
  188.8190  176.7980  145.2190 C   0  0  0  0  0  0  0  0  0  0  0  0
  189.0150  175.7860  143.2440 N   0  0  0  0  0  0  0  0  0  0  0  0
  190.5780  176.9960  146.8350 C   0  0  0  0  0  3  0  0  0  0  0  0
  190.9820  175.8430  144.7180 C   0  0  0  0  0  3  0  0  0  0  0  0
  184.0340  178.7800  145.9650 C   0  0  0  0  0  3  0  0  0  0  0  0
  184.7980  179.4080  144.9800 C   0  0  0  0  0  3  0  0  0  0  0  0
  184.4280  177.5810  146.4710 N   0  0  0  0  0  0  0  0  0  0  0  0
  185.9630  178.7910  144.5260 C   0  0  0  0  0  3  0  0  0  0  0  0
  186.3610  177.5560  145.0540 C   0  0  0  0  0  0  0  0  0  0  0  0
  185.5610  176.9640  146.0410 C   0  0  0  0  0  3  0  0  0  0  0  0
  193.1290  175.9750  146.4620 S   0  0  0  0  0  0  0  0  0  0  0  0
  193.7330  176.0810  144.7510 C   0  0  0  0  0  2  0  0  0  0  0  0
  195.1200  175.6440  144.6860 N   0  0  0  0  0  2  0  0  0  0  0  0
  196.5970  174.0930  145.9100 C   0  0  0  0  0  3  0  0  0  0  0  0
  196.8080  170.3370  146.0320 C   0  0  0  0  0  1  0  0  0  0  0  0
  196.3280  171.6960  145.6490 C   0  0  0  0  0  0  0  0  0  0  0  0
  194.8830  173.2300  144.4460 C   0  0  0  0  0  3  0  0  0  0  0  0
  195.5440  174.3180  145.0170 C   0  0  0  0  0  0  0  0  0  0  0  0
  196.9850  172.7900  146.2210 C   0  0  0  0  0  3  0  0  0  0  0  0
  195.2560  171.9100  144.7460 C   0  0  0  0  0  0  0  0  0  0  0  0
  193.3990  170.2230  144.7060 O   0  0  0  0  0  1  0  0  0  0  0  0
  194.8610  170.3830  142.9640 O   0  0  0  0  0  0  0  0  0  0  0  0
  194.5040  170.8070  144.0970 C   0  0  0  0  0  0  0  0  0  0  0  0
  189.5740  175.1000  142.0880 C   0  0  0  0  0  2  0  0  0  0  0  0
  188.5210  172.8000  141.6970 C   0  0  2  0  0  3  0  0  0  0  0  0
  189.0970  173.3420  140.5310 O   0  0  0  0  0  0  0  0  0  0  0  0
  188.4930  174.2670  141.4050 C   0  0  2  0  0  3  0  0  0  0  0  0
  189.6300  172.3330  142.6330 C   0  0  0  0  0  2  0  0  0  0  0  0
  190.2170  171.0360  142.1120 C   0  0  0  0  0  2  0  0  0  0  0  0
  191.6450  171.1950  141.8900 N   0  0  0  0  0  0  0  0  0  0  0  0
  192.7790  172.1180  140.0450 N   0  0  0  0  0  2  0  0  0  0  0  0
  191.9690  172.5200  142.2170 N   0  0  0  0  0  2  0  0  0  0  0  0
  192.9290  172.9550  141.2180 C   0  0  0  0  0  2  0  0  0  0  0  0
  191.8650  171.0720  140.4600 C   0  0  0  0  0  2  0  0  0  0  0  0
  1  4  2  0  0  0  0
  2  8  1  0  0  0  0
  3  9  2  0  0  0  0
  3  6  1  0  0  0  0
  4 14  1  0  0  0  0
  4  6  1  0  0  0  0
  5 16  1  0  0  0  0
  5  8  2  0  0  0  0
  6  2  2  0  0  0  0
  7  1  1  0  0  0  0
  7  3  1  0  0  0  0
  9  5  1  0  0  0  0
 10 12  1  0  0  0  0
 11 10  2  0  0  0  0
 13 11  1  0  0  0  0
 13 14  2  0  0  0  0
 14 15  1  0  0  0  0
 15 12  2  0  0  0  0
 17 16  1  0  0  0  0
 18 17  1  0  0  0  0
 18 23  1  0  0  0  0
 19 24  1  0  0  0  0
 21 20  1  0  0  0  0
 21 24  2  0  0  0  0
 22 25  2  0  0  0  0
 22 23  1  0  0  0  0
 23 19  2  0  0  0  0
 25 21  1  0  0  0  0
 27 28  2  0  0  0  0
 28 26  1  0  0  0  0
 28 25  1  0  0  0  0
 29  7  1  0  0  0  0
 30 33  1  1  0  0  0
 31 32  1  0  0  0  0
 31 30  1  0  0  0  0
 32 30  1  0  0  0  0
 32 29  1  1  0  0  0
 34 33  1  0  0  0  0
 35 34  1  0  0  0  0
 35 37  1  0  0  0  0
 36 39  1  0  0  0  0
 36 38  1  0  0  0  0
 38 37  1  0  0  0  0
 39 35  1  0  0  0  0
M  END
>  <MODEL>
4

>  <REMARK>
 VINA RESULT:      -6.9      2.873      6.732
  Name = 
  11 active torsions:
  status: ('A' for Active; 'I' for Inactive)
    1  A    between atoms: N_1  and  C_11
    2  A    between atoms: N_2  and  C_6
    3  A    between atoms: N_2  and  C_26
    4  A    between atoms: C_6  and  S_16
    5  A    between atoms: C_9  and  C_33
    6  A    between atoms: C_11  and  C_28
    7  A    between atoms: C_12  and  S_16
    8  A    between atoms: C_15  and  C_28
    9  A    between atoms: C_18  and  N_19
   10  A    between atoms: C_18  and  C_39
   11  A    between atoms: C_31  and  C_34
                            x       y       z     vdW  Elec       q    Type
                         _______ _______ _______ _____ _____    ______ ____

>  <TORSDO>
F 11

$$$$
=
 OpenBabel11042414563D

 39 44  0  0  1  0  0  0  0  0999 V2000
  187.8590  175.2400  142.5160 C   0  0  0  0  0  3  0  0  0  0  0  0
  190.4920  177.5890  143.2500 C   0  0  0  0  0  3  0  0  0  0  0  0
  190.0230  175.3830  142.3870 C   0  0  0  0  0  0  0  0  0  0  0  0
  188.2140  176.4980  143.0100 C   0  0  0  0  0  0  0  0  0  0  0  0
  192.2990  176.1300  142.4790 C   0  0  0  0  0  0  0  0  0  0  0  0
  189.5960  176.5720  142.9180 C   0  0  0  0  0  0  0  0  0  0  0  0
  188.9770  174.5740  142.1490 N   0  0  0  0  0  0  0  0  0  0  0  0
  191.8590  177.3560  143.0230 C   0  0  0  0  0  3  0  0  0  0  0  0
  191.3740  175.1250  142.1490 C   0  0  0  0  0  3  0  0  0  0  0  0
  185.5090  179.4610  144.4450 C   0  0  0  0  0  3  0  0  0  0  0  0
  186.1540  178.6240  145.3580 C   0  0  0  0  0  3  0  0  0  0  0  0
  185.7470  179.3270  143.1130 N   0  0  0  0  0  0  0  0  0  0  0  0
  187.0390  177.6550  144.8850 C   0  0  0  0  0  3  0  0  0  0  0  0
  187.2760  177.5250  143.5100 C   0  0  0  0  0  0  0  0  0  0  0  0
  186.6060  178.3890  142.6330 C   0  0  0  0  0  3  0  0  0  0  0  0
  194.0430  175.8610  142.1950 S   0  0  0  0  0  0  0  0  0  0  0  0
  194.4490  176.1120  143.9490 C   0  0  0  0  0  2  0  0  0  0  0  0
  193.9890  174.9750  144.7330 N   0  0  0  0  0  2  0  0  0  0  0  0
  191.8320  173.8590  145.1660 C   0  0  0  0  0  3  0  0  0  0  0  0
  188.8760  174.7680  147.3120 C   0  0  0  0  0  1  0  0  0  0  0  0
  190.2180  174.8700  146.6680 C   0  0  0  0  0  0  0  0  0  0  0  0
  192.3400  175.9640  146.2330 C   0  0  0  0  0  3  0  0  0  0  0  0
  192.7100  174.9280  145.3740 C   0  0  0  0  0  0  0  0  0  0  0  0
  190.5950  173.8330  145.8090 C   0  0  0  0  0  3  0  0  0  0  0  0
  191.0990  175.9580  146.8910 C   0  0  0  0  0  0  0  0  0  0  0  0
  189.7200  177.9560  147.5240 O   0  0  0  0  0  0  0  0  0  0  0  0
  191.4750  177.2970  148.8220 O   0  0  0  0  0  1  0  0  0  0  0  0
  190.7800  177.0970  147.7880 C   0  0  0  0  0  0  0  0  0  0  0  0
  189.0140  173.2500  141.5470 C   0  0  0  0  0  2  0  0  0  0  0  0
  188.8720  172.5310  139.0950 C   0  0  2  0  0  3  0  0  0  0  0  0
  188.9730  173.9280  139.2490 O   0  0  0  0  0  0  0  0  0  0  0  0
  188.2310  173.2530  140.2370 C   0  0  2  0  0  3  0  0  0  0  0  0
  190.2260  171.8950  139.3910 C   0  0  0  0  0  2  0  0  0  0  0  0
  190.2270  170.4610  138.9000 C   0  0  0  0  0  2  0  0  0  0  0  0
  191.1620  169.6710  139.6850 N   0  0  0  0  0  0  0  0  0  0  0  0
  193.0100  170.3770  140.9620 N   0  0  0  0  0  2  0  0  0  0  0  0
  190.7440  169.7450  141.0220 N   0  0  0  0  0  2  0  0  0  0  0  0
  191.9560  169.8630  141.8140 C   0  0  0  0  0  2  0  0  0  0  0  0
  192.4410  170.3560  139.6290 C   0  0  0  0  0  2  0  0  0  0  0  0
  1  4  2  0  0  0  0
  3  6  1  0  0  0  0
  4 14  1  0  0  0  0
  5  8  2  0  0  0  0
  6  4  1  0  0  0  0
  6  2  2  0  0  0  0
  7  3  1  0  0  0  0
  7  1  1  0  0  0  0
  8  2  1  0  0  0  0
  9  3  2  0  0  0  0
  9  5  1  0  0  0  0
 10 11  1  0  0  0  0
 12 10  2  0  0  0  0
 13 11  2  0  0  0  0
 14 13  1  0  0  0  0
 15 12  1  0  0  0  0
 15 14  2  0  0  0  0
 16  5  1  0  0  0  0
 16 17  1  0  0  0  0
 17 18  1  0  0  0  0
 18 23  1  0  0  0  0
 19 23  2  0  0  0  0
 19 24  1  0  0  0  0
 21 25  1  0  0  0  0
 21 20  1  0  0  0  0
 22 25  2  0  0  0  0
 23 22  1  0  0  0  0
 24 21  2  0  0  0  0
 25 28  1  0  0  0  0
 26 28  2  0  0  0  0
 28 27  1  0  0  0  0
 29  7  1  0  0  0  0
 30 31  1  0  0  0  0
 30 33  1  1  0  0  0
 30 32  1  0  0  0  0
 31 32  1  0  0  0  0
 32 29  1  1  0  0  0
 34 33  1  0  0  0  0
 34 35  1  0  0  0  0
 35 37  1  0  0  0  0
 36 38  1  0  0  0  0
 37 38  1  0  0  0  0
 39 35  1  0  0  0  0
 39 36  1  0  0  0  0
M  END
>  <MODEL>
5

>  <REMARK>
 VINA RESULT:      -6.9      2.835      7.179
  Name = 
  11 active torsions:
  status: ('A' for Active; 'I' for Inactive)
    1  A    between atoms: N_1  and  C_11
    2  A    between atoms: N_2  and  C_6
    3  A    between atoms: N_2  and  C_26
    4  A    between atoms: C_6  and  S_16
    5  A    between atoms: C_9  and  C_33
    6  A    between atoms: C_11  and  C_28
    7  A    between atoms: C_12  and  S_16
    8  A    between atoms: C_15  and  C_28
    9  A    between atoms: C_18  and  N_19
   10  A    between atoms: C_18  and  C_39
   11  A    between atoms: C_31  and  C_34
                            x       y       z     vdW  Elec       q    Type
                         _______ _______ _______ _____ _____    ______ ____

>  <TORSDO>
F 11

$$$$
=
 OpenBabel11042414563D

 39 44  0  0  1  0  0  0  0  0999 V2000
  190.5820  174.0940  143.5180 C   0  0  0  0  0  3  0  0  0  0  0  0
  189.8180  177.5800  143.0190 C   0  0  0  0  0  3  0  0  0  0  0  0
  189.1760  175.3320  142.4160 C   0  0  0  0  0  0  0  0  0  0  0  0
  190.8950  175.4240  143.8090 C   0  0  0  0  0  0  0  0  0  0  0  0
  187.9450  177.1720  141.4970 C   0  0  0  0  0  0  0  0  0  0  0  0
  189.9880  176.1980  143.1000 C   0  0  0  0  0  0  0  0  0  0  0  0
  189.5360  174.0600  142.6600 N   0  0  0  0  0  0  0  0  0  0  0  0
  188.7790  178.0640  142.2040 C   0  0  0  0  0  3  0  0  0  0  0  0
  188.1370  175.7830  141.6020 C   0  0  0  0  0  3  0  0  0  0  0  0
  194.0160  176.7360  146.3960 C   0  0  0  0  0  3  0  0  0  0  0  0
  192.9550  175.9990  146.9240 C   0  0  0  0  0  3  0  0  0  0  0  0
  194.0470  177.0290  145.0680 N   0  0  0  0  0  0  0  0  0  0  0  0
  191.9350  175.5710  146.0750 C   0  0  0  0  0  3  0  0  0  0  0  0
  191.9760  175.8780  144.7090 C   0  0  0  0  0  0  0  0  0  0  0  0
  193.0620  176.6200  144.2250 C   0  0  0  0  0  3  0  0  0  0  0  0
  186.6280  177.8120  140.4720 S   0  0  0  0  0  0  0  0  0  0  0  0
  185.3650  177.4440  141.7270 C   0  0  0  0  0  2  0  0  0  0  0  0
  185.2690  178.5480  142.6720 N   0  0  0  0  0  2  0  0  0  0  0  0
  184.3690  178.8240  144.9520 C   0  0  0  0  0  3  0  0  0  0  0  0
  185.6840  177.8630  148.3450 C   0  0  0  0  0  1  0  0  0  0  0  0
  185.6250  178.0150  146.8630 C   0  0  0  0  0  0  0  0  0  0  0  0
  186.5050  177.7510  144.6160 C   0  0  0  0  0  3  0  0  0  0  0  0
  185.3760  178.3810  144.0890 C   0  0  0  0  0  0  0  0  0  0  0  0
  184.4950  178.6420  146.3290 C   0  0  0  0  0  3  0  0  0  0  0  0
  186.6520  177.5570  146.0000 C   0  0  0  0  0  0  0  0  0  0  0  0
  189.1080  177.5320  146.5140 O   0  0  0  0  0  0  0  0  0  0  0  0
  187.8250  175.6840  146.8820 O   0  0  0  0  0  1  0  0  0  0  0  0
  187.8820  176.8790  146.4820 C   0  0  0  0  0  0  0  0  0  0  0  0
  188.8920  172.8560  142.1590 C   0  0  0  0  0  2  0  0  0  0  0  0
  190.3110  171.2790  140.7260 C   0  0  2  0  0  3  0  0  0  0  0  0
  190.8570  172.5750  140.8160 O   0  0  0  0  0  0  0  0  0  0  0  0
  189.4510  172.5020  140.7830 C   0  0  2  0  0  3  0  0  0  0  0  0
  190.5190  170.5550  142.0510 C   0  0  0  0  0  2  0  0  0  0  0  0
  191.6240  169.5280  141.8950 C   0  0  0  0  0  2  0  0  0  0  0  0
  192.6540  169.7570  142.8970 N   0  0  0  0  0  0  0  0  0  0  0  0
  194.1220  171.5810  143.1430 N   0  0  0  0  0  2  0  0  0  0  0  0
  192.1050  170.6080  143.8670 N   0  0  0  0  0  2  0  0  0  0  0  0
  193.1620  171.5360  144.2280 C   0  0  0  0  0  2  0  0  0  0  0  0
  193.7080  170.5170  142.2490 C   0  0  0  0  0  2  0  0  0  0  0  0
  1  4  2  0  0  0  0
  2  6  1  0  0  0  0
  3  7  1  0  0  0  0
  3  6  2  0  0  0  0
  4 14  1  0  0  0  0
  5  9  2  0  0  0  0
  5  8  1  0  0  0  0
  6  4  1  0  0  0  0
  7  1  1  0  0  0  0
  8  2  2  0  0  0  0
  9  3  1  0  0  0  0
 10 11  1  0  0  0  0
 12 10  2  0  0  0  0
 13 11  2  0  0  0  0
 14 13  1  0  0  0  0
 15 14  2  0  0  0  0
 15 12  1  0  0  0  0
 16  5  1  0  0  0  0
 16 17  1  0  0  0  0
 17 18  1  0  0  0  0
 18 23  1  0  0  0  0
 19 24  1  0  0  0  0
 21 20  1  0  0  0  0
 22 25  2  0  0  0  0
 23 22  1  0  0  0  0
 23 19  2  0  0  0  0
 24 21  2  0  0  0  0
 25 28  1  0  0  0  0
 25 21  1  0  0  0  0
 28 26  2  0  0  0  0
 28 27  1  0  0  0  0
 29  7  1  0  0  0  0
 30 32  1  0  0  0  0
 30 31  1  0  0  0  0
 30 33  1  1  0  0  0
 32 31  1  0  0  0  0
 32 29  1  1  0  0  0
 34 33  1  0  0  0  0
 34 35  1  0  0  0  0
 35 37  1  0  0  0  0
 36 38  1  0  0  0  0
 37 38  1  0  0  0  0
 39 35  1  0  0  0  0
 39 36  1  0  0  0  0
M  END
>  <MODEL>
6

>  <REMARK>
 VINA RESULT:      -6.8      3.059      8.017
  Name = 
  11 active torsions:
  status: ('A' for Active; 'I' for Inactive)
    1  A    between atoms: N_1  and  C_11
    2  A    between atoms: N_2  and  C_6
    3  A    between atoms: N_2  and  C_26
    4  A    between atoms: C_6  and  S_16
    5  A    between atoms: C_9  and  C_33
    6  A    between atoms: C_11  and  C_28
    7  A    between atoms: C_12  and  S_16
    8  A    between atoms: C_15  and  C_28
    9  A    between atoms: C_18  and  N_19
   10  A    between atoms: C_18  and  C_39
   11  A    between atoms: C_31  and  C_34
                            x       y       z     vdW  Elec       q    Type
                         _______ _______ _______ _____ _____    ______ ____

>  <TORSDO>
F 11

$$$$
=
 OpenBabel11042414563D

 39 44  0  0  1  0  0  0  0  0999 V2000
  192.9270  170.6920  144.1320 C   0  0  0  0  0  3  0  0  0  0  0  0
  194.0930  173.5430  146.0020 C   0  0  0  0  0  3  0  0  0  0  0  0
  192.3950  172.7720  144.4690 C   0  0  0  0  0  0  0  0  0  0  0  0
  193.8770  171.2180  145.0120 C   0  0  0  0  0  0  0  0  0  0  0  0
  192.3190  175.0430  145.2320 C   0  0  0  0  0  0  0  0  0  0  0  0
  193.5210  172.5420  145.2160 C   0  0  0  0  0  0  0  0  0  0  0  0
  192.0380  171.6580  143.8080 N   0  0  0  0  0  0  0  0  0  0  0  0
  193.4770  174.8060  146.0040 C   0  0  0  0  0  3  0  0  0  0  0  0
  191.7600  174.0140  144.4530 C   0  0  0  0  0  3  0  0  0  0  0  0
  197.1500  169.0800  146.7050 C   0  0  0  0  0  3  0  0  0  0  0  0
  197.3900  170.0010  145.6850 C   0  0  0  0  0  3  0  0  0  0  0  0
  195.8820  168.8710  147.1490 N   0  0  0  0  0  0  0  0  0  0  0  0
  196.3170  170.7000  145.1320 C   0  0  0  0  0  3  0  0  0  0  0  0
  195.0150  170.4770  145.5970 C   0  0  0  0  0  0  0  0  0  0  0  0
  194.8230  169.5420  146.6240 C   0  0  0  0  0  3  0  0  0  0  0  0
  191.5510  176.6560  145.2560 S   0  0  0  0  0  0  0  0  0  0  0  0
  190.2280  176.0980  146.3710 C   0  0  0  0  0  2  0  0  0  0  0  0
  189.0200  175.8210  145.6070 N   0  0  0  0  0  2  0  0  0  0  0  0
  187.1990  176.4780  147.1370 C   0  0  0  0  0  3  0  0  0  0  0  0
  184.0120  178.4130  146.6240 C   0  0  0  0  0  1  0  0  0  0  0  0
  185.3120  177.7550  146.3060 C   0  0  0  0  0  0  0  0  0  0  0  0
  187.1050  177.1010  144.8070 C   0  0  0  0  0  3  0  0  0  0  0  0
  187.7660  176.4640  145.8580 C   0  0  0  0  0  0  0  0  0  0  0  0
  185.9800  177.1180  147.3560 C   0  0  0  0  0  3  0  0  0  0  0  0
  185.8770  177.7530  145.0050 C   0  0  0  0  0  0  0  0  0  0  0  0
  185.6780  179.6340  143.3570 O   0  0  0  0  0  1  0  0  0  0  0  0
  184.2720  177.8430  143.2510 O   0  0  0  0  0  0  0  0  0  0  0  0
  185.2370  178.4070  143.8360 C   0  0  0  0  0  0  0  0  0  0  0  0
  190.8750  171.4830  142.9500 C   0  0  0  0  0  2  0  0  0  0  0  0
  190.5510  172.7660  140.7590 C   0  0  2  0  0  3  0  0  0  0  0  0
  190.1640  171.4150  140.6620 O   0  0  0  0  0  0  0  0  0  0  0  0
  191.2730  171.6780  141.4890 C   0  0  2  0  0  3  0  0  0  0  0  0
  189.5100  173.5290  141.5690 C   0  0  0  0  0  2  0  0  0  0  0  0
  189.9180  174.9860  141.6690 C   0  0  0  0  0  2  0  0  0  0  0  0
  188.7750  175.7920  142.0690 N   0  0  0  0  0  0  0  0  0  0  0  0
  188.2730  178.0340  141.5540 N   0  0  0  0  0  2  0  0  0  0  0  0
  187.8690  175.7830  140.9990 N   0  0  0  0  0  2  0  0  0  0  0  0
  187.3350  177.1320  140.9150 C   0  0  0  0  0  2  0  0  0  0  0  0
  189.2450  177.1610  142.1820 C   0  0  0  0  0  2  0  0  0  0  0  0
  1  4  2  0  0  0  0
  2  8  1  0  0  0  0
  3  6  1  0  0  0  0
  4  6  1  0  0  0  0
  4 14  1  0  0  0  0
  5 16  1  0  0  0  0
  5  8  2  0  0  0  0
  6  2  2  0  0  0  0
  7  1  1  0  0  0  0
  7  3  1  0  0  0  0
  9  3  2  0  0  0  0
  9  5  1  0  0  0  0
 10 12  1  0  0  0  0
 11 10  2  0  0  0  0
 13 14  2  0  0  0  0
 13 11  1  0  0  0  0
 14 15  1  0  0  0  0
 15 12  2  0  0  0  0
 16 17  1  0  0  0  0
 18 23  1  0  0  0  0
 18 17  1  0  0  0  0
 19 24  1  0  0  0  0
 21 20  1  0  0  0  0
 21 24  2  0  0  0  0
 22 25  2  0  0  0  0
 22 23  1  0  0  0  0
 23 19  2  0  0  0  0
 25 21  1  0  0  0  0
 26 28  1  0  0  0  0
 27 28  2  0  0  0  0
 28 25  1  0  0  0  0
 29  7  1  0  0  0  0
 30 32  1  0  0  0  0
 30 33  1  1  0  0  0
 31 30  1  0  0  0  0
 31 32  1  0  0  0  0
 32 29  1  1  0  0  0
 33 34  1  0  0  0  0
 34 35  1  0  0  0  0
 35 39  1  0  0  0  0
 36 39  1  0  0  0  0
 37 35  1  0  0  0  0
 38 37  1  0  0  0  0
 38 36  1  0  0  0  0
M  END
>  <MODEL>
7

>  <REMARK>
 VINA RESULT:      -6.8      3.559      7.522
  Name = 
  11 active torsions:
  status: ('A' for Active; 'I' for Inactive)
    1  A    between atoms: N_1  and  C_11
    2  A    between atoms: N_2  and  C_6
    3  A    between atoms: N_2  and  C_26
    4  A    between atoms: C_6  and  S_16
    5  A    between atoms: C_9  and  C_33
    6  A    between atoms: C_11  and  C_28
    7  A    between atoms: C_12  and  S_16
    8  A    between atoms: C_15  and  C_28
    9  A    between atoms: C_18  and  N_19
   10  A    between atoms: C_18  and  C_39
   11  A    between atoms: C_31  and  C_34
                            x       y       z     vdW  Elec       q    Type
                         _______ _______ _______ _____ _____    ______ ____

>  <TORSDO>
F 11

$$$$
=
 OpenBabel11042414563D

 39 44  0  0  1  0  0  0  0  0999 V2000
  188.1050  176.3970  146.0370 C   0  0  0  0  0  3  0  0  0  0  0  0
  187.7630  176.0790  142.4640 C   0  0  0  0  0  3  0  0  0  0  0  0
  189.0540  175.3670  144.3760 C   0  0  0  0  0  0  0  0  0  0  0  0
  187.4140  176.7660  144.8810 C   0  0  0  0  0  0  0  0  0  0  0  0
  189.6370  174.5260  142.2080 C   0  0  0  0  0  0  0  0  0  0  0  0
  188.0310  176.1000  143.8330 C   0  0  0  0  0  0  0  0  0  0  0  0
  189.1050  175.5490  145.7060 N   0  0  0  0  0  0  0  0  0  0  0  0
  188.5820  175.2790  141.6490 C   0  0  0  0  0  3  0  0  0  0  0  0
  189.8810  174.5620  143.5920 C   0  0  0  0  0  3  0  0  0  0  0  0
  184.0700  179.4030  144.7120 C   0  0  0  0  0  3  0  0  0  0  0  0
  184.1100  178.4110  145.6930 C   0  0  0  0  0  3  0  0  0  0  0  0
  185.0910  179.5200  143.8210 N   0  0  0  0  0  0  0  0  0  0  0  0
  185.2060  177.5490  145.7470 C   0  0  0  0  0  3  0  0  0  0  0  0
  186.2520  177.6800  144.8240 C   0  0  0  0  0  0  0  0  0  0  0  0
  186.1680  178.6900  143.8570 C   0  0  0  0  0  3  0  0  0  0  0  0
  190.6600  173.5120  141.1510 S   0  0  0  0  0  0  0  0  0  0  0  0
  190.7430  172.1750  142.3790 C   0  0  0  0  0  2  0  0  0  0  0  0
  192.0580  171.5500  142.3450 N   0  0  0  0  0  2  0  0  0  0  0  0
  192.9200  172.2990  144.5320 C   0  0  0  0  0  3  0  0  0  0  0  0
  196.3830  173.1130  145.7630 C   0  0  0  0  0  1  0  0  0  0  0  0
  195.2940  172.6980  144.8320 C   0  0  0  0  0  0  0  0  0  0  0  0
  194.4360  171.9650  142.6830 C   0  0  0  0  0  3  0  0  0  0  0  0
  193.1390  171.9460  143.1960 C   0  0  0  0  0  0  0  0  0  0  0  0
  193.9920  172.6730  145.3410 C   0  0  0  0  0  3  0  0  0  0  0  0
  195.5310  172.3370  143.4810 C   0  0  0  0  0  0  0  0  0  0  0  0
  197.7010  171.2130  142.9150 O   0  0  0  0  0  1  0  0  0  0  0  0
  197.3020  173.3610  142.2660 O   0  0  0  0  0  0  0  0  0  0  0  0
  196.8800  172.3330  142.8620 C   0  0  0  0  0  0  0  0  0  0  0  0
  190.0180  174.9110  146.6430 C   0  0  0  0  0  2  0  0  0  0  0  0
  191.9690  176.3300  147.4990 C   0  0  2  0  0  3  0  0  0  0  0  0
  191.5510  175.3580  148.4300 O   0  0  0  0  0  0  0  0  0  0  0  0
  190.5330  175.9380  147.6480 C   0  0  2  0  0  3  0  0  0  0  0  0
  192.7270  175.6460  146.3670 C   0  0  0  0  0  2  0  0  0  0  0  0
  194.0420  176.3640  146.1350 C   0  0  0  0  0  2  0  0  0  0  0  0
  194.1240  176.8090  144.7530 N   0  0  0  0  0  0  0  0  0  0  0  0
  195.2750  175.8470  142.9380 N   0  0  0  0  0  2  0  0  0  0  0  0
  193.1960  176.0550  144.0200 N   0  0  0  0  0  2  0  0  0  0  0  0
  193.8410  175.7450  142.7560 C   0  0  0  0  0  2  0  0  0  0  0  0
  195.4330  176.4170  144.2620 C   0  0  0  0  0  2  0  0  0  0  0  0
  2  6  1  0  0  0  0
  3  7  1  0  0  0  0
  4  1  2  0  0  0  0
  5  9  2  0  0  0  0
  6  3  2  0  0  0  0
  6  4  1  0  0  0  0
  7  1  1  0  0  0  0
  7 29  1  0  0  0  0
  8  5  1  0  0  0  0
  8  2  2  0  0  0  0
  9  3  1  0  0  0  0
 10 11  1  0  0  0  0
 11 13  2  0  0  0  0
 12 15  1  0  0  0  0
 12 10  2  0  0  0  0
 14  4  1  0  0  0  0
 14 13  1  0  0  0  0
 15 14  2  0  0  0  0
 16  5  1  0  0  0  0
 16 17  1  0  0  0  0
 18 17  1  0  0  0  0
 18 23  1  0  0  0  0
 19 24  1  0  0  0  0
 21 24  2  0  0  0  0
 21 20  1  0  0  0  0
 22 23  1  0  0  0  0
 22 25  2  0  0  0  0
 23 19  2  0  0  0  0
 25 21  1  0  0  0  0
 27 28  2  0  0  0  0
 28 26  1  0  0  0  0
 28 25  1  0  0  0  0
 30 33  1  6  0  0  0
 30 32  1  0  0  0  0
 30 31  1  0  0  0  0
 32 29  1  6  0  0  0
 32 31  1  0  0  0  0
 34 33  1  0  0  0  0
 35 34  1  0  0  0  0
 36 39  1  0  0  0  0
 37 35  1  0  0  0  0
 38 36  1  0  0  0  0
 38 37  1  0  0  0  0
 39 35  1  0  0  0  0
M  END
>  <MODEL>
8

>  <REMARK>
 VINA RESULT:      -6.7      3.003      6.875
  Name = 
  11 active torsions:
  status: ('A' for Active; 'I' for Inactive)
    1  A    between atoms: N_1  and  C_11
    2  A    between atoms: N_2  and  C_6
    3  A    between atoms: N_2  and  C_26
    4  A    between atoms: C_6  and  S_16
    5  A    between atoms: C_9  and  C_33
    6  A    between atoms: C_11  and  C_28
    7  A    between atoms: C_12  and  S_16
    8  A    between atoms: C_15  and  C_28
    9  A    between atoms: C_18  and  N_19
   10  A    between atoms: C_18  and  C_39
   11  A    between atoms: C_31  and  C_34
                            x       y       z     vdW  Elec       q    Type
                         _______ _______ _______ _____ _____    ______ ____

>  <TORSDO>
F 11

$$$$
=
 OpenBabel11042414563D

 39 44  0  0  1  0  0  0  0  0999 V2000
  192.1720  173.4070  143.8340 C   0  0  0  0  0  3  0  0  0  0  0  0
  192.4150  175.2250  146.9360 C   0  0  0  0  0  3  0  0  0  0  0  0
  191.0370  174.8570  144.9880 C   0  0  0  0  0  0  0  0  0  0  0  0
  192.9140  173.6820  144.9860 C   0  0  0  0  0  0  0  0  0  0  0  0
  190.2770  176.3860  146.6710 C   0  0  0  0  0  0  0  0  0  0  0  0
  192.1750  174.6060  145.7090 C   0  0  0  0  0  0  0  0  0  0  0  0
  191.0350  174.1390  143.8520 N   0  0  0  0  0  0  0  0  0  0  0  0
  191.4480  176.1250  147.4150 C   0  0  0  0  0  3  0  0  0  0  0  0
  190.0580  175.7430  145.4400 C   0  0  0  0  0  3  0  0  0  0  0  0
  196.6690  171.9400  145.9960 C   0  0  0  0  0  3  0  0  0  0  0  0
  196.5760  173.3240  145.8460 C   0  0  0  0  0  3  0  0  0  0  0  0
  195.5680  171.1610  145.8200 N   0  0  0  0  0  0  0  0  0  0  0  0
  195.3450  173.8920  145.5150 C   0  0  0  0  0  3  0  0  0  0  0  0
  194.2180  173.0800  145.3360 C   0  0  0  0  0  0  0  0  0  0  0  0
  194.3610  171.6950  145.4980 C   0  0  0  0  0  3  0  0  0  0  0  0
  189.0590  177.5300  147.3050 S   0  0  0  0  0  0  0  0  0  0  0  0
  187.6770  176.4640  146.7970 C   0  0  0  0  0  2  0  0  0  0  0  0
  186.5190  177.2800  146.4590 N   0  0  0  0  0  2  0  0  0  0  0  0
  184.8120  177.9770  144.8210 C   0  0  0  0  0  3  0  0  0  0  0  0
  184.8750  178.3540  141.0760 C   0  0  0  0  0  1  0  0  0  0  0  0
  185.3550  178.0620  142.4580 C   0  0  0  0  0  0  0  0  0  0  0  0
  187.0270  177.3740  144.0760 C   0  0  0  0  0  3  0  0  0  0  0  0
  186.1090  177.5430  145.1130 C   0  0  0  0  0  0  0  0  0  0  0  0
  184.4390  178.2330  143.5020 C   0  0  0  0  0  3  0  0  0  0  0  0
  186.6740  177.6270  142.7400 C   0  0  0  0  0  0  0  0  0  0  0  0
  188.7430  178.3310  141.5090 O   0  0  0  0  0  1  0  0  0  0  0  0
  187.6600  176.4040  140.9540 O   0  0  0  0  0  0  0  0  0  0  0  0
  187.7080  177.4230  141.6940 C   0  0  0  0  0  0  0  0  0  0  0  0
  189.9830  174.0940  142.8470 C   0  0  0  0  0  2  0  0  0  0  0  0
  189.5280  172.4200  140.9650 C   0  0  2  0  0  3  0  0  0  0  0  0
  188.4430  172.5480  141.8560 O   0  0  0  0  0  0  0  0  0  0  0  0
  189.7250  172.6480  142.4300 C   0  0  2  0  0  3  0  0  0  0  0  0
  189.6030  173.6630  140.0860 C   0  0  0  0  0  2  0  0  0  0  0  0
  190.2630  173.3090  138.7680 C   0  0  0  0  0  2  0  0  0  0  0  0
  189.2800  173.3460  137.6970 N   0  0  0  0  0  0  0  0  0  0  0  0
  187.7770  175.0590  137.1070 N   0  0  0  0  0  2  0  0  0  0  0  0
  189.8530  174.0580  136.6340 N   0  0  0  0  0  2  0  0  0  0  0  0
  188.7900  174.8830  136.0860 C   0  0  0  0  0  2  0  0  0  0  0  0
  188.1740  174.1590  138.1710 C   0  0  0  0  0  2  0  0  0  0  0  0
  1  7  1  0  0  0  0
  1  4  2  0  0  0  0
  2  8  1  0  0  0  0
  3  9  2  0  0  0  0
  3  6  1  0  0  0  0
  4 14  1  0  0  0  0
  4  6  1  0  0  0  0
  5 16  1  0  0  0  0
  5  8  2  0  0  0  0
  6  2  2  0  0  0  0
  7  3  1  0  0  0  0
  9  5  1  0  0  0  0
 11 10  1  0  0  0  0
 12 10  2  0  0  0  0
 13 11  2  0  0  0  0
 14 15  2  0  0  0  0
 14 13  1  0  0  0  0
 15 12  1  0  0  0  0
 17 16  1  0  0  0  0
 18 17  1  0  0  0  0
 19 23  1  0  0  0  0
 20 21  1  0  0  0  0
 21 25  2  0  0  0  0
 21 24  1  0  0  0  0
 22 23  2  0  0  0  0
 23 18  1  0  0  0  0
 24 19  2  0  0  0  0
 25 22  1  0  0  0  0
 26 28  1  0  0  0  0
 27 28  2  0  0  0  0
 28 25  1  0  0  0  0
 29  7  1  0  0  0  0
 30 33  1  6  0  0  0
 30 31  1  0  0  0  0
 30 32  1  0  0  0  0
 31 32  1  0  0  0  0
 32 29  1  6  0  0  0
 34 33  1  0  0  0  0
 35 39  1  0  0  0  0
 35 34  1  0  0  0  0
 36 39  1  0  0  0  0
 37 35  1  0  0  0  0
 38 37  1  0  0  0  0
 38 36  1  0  0  0  0
M  END
>  <MODEL>
9

>  <REMARK>
 VINA RESULT:      -6.7      2.708      7.626
  Name = 
  11 active torsions:
  status: ('A' for Active; 'I' for Inactive)
    1  A    between atoms: N_1  and  C_11
    2  A    between atoms: N_2  and  C_6
    3  A    between atoms: N_2  and  C_26
    4  A    between atoms: C_6  and  S_16
    5  A    between atoms: C_9  and  C_33
    6  A    between atoms: C_11  and  C_28
    7  A    between atoms: C_12  and  S_16
    8  A    between atoms: C_15  and  C_28
    9  A    between atoms: C_18  and  N_19
   10  A    between atoms: C_18  and  C_39
   11  A    between atoms: C_31  and  C_34
                            x       y       z     vdW  Elec       q    Type
                         _______ _______ _______ _____ _____    ______ ____

>  <TORSDO>
F 11

$$$$
