=
 OpenBabel11042418443D

 44 49  0  0  1  0  0  0  0  0999 V2000
  192.5850  174.0020  144.0060 C   0  0  1  0  0  0  0  0  0  0  0  0
  197.1690  172.5510  145.9920 N   0  0  0  0  0  0  0  0  0  0  0  0
  196.7980  173.8790  145.5120 C   0  0  0  0  0  3  0  0  0  0  0  0
  192.3580  172.8940  142.9040 C   0  0  1  0  0  3  0  0  0  0  0  0
  195.1700  172.3710  145.1340 C   0  0  0  0  0  0  0  0  0  0  0  0
  191.1950  173.1810  141.9610 C   0  0  0  0  0  1  0  0  0  0  0  0
  195.4470  173.6240  144.9410 C   0  0  0  0  0  0  0  0  0  0  0  0
  193.7300  172.1200  145.3480 C   0  0  0  0  0  2  0  0  0  0  0  0
  195.7410  176.1010  140.7640 C   0  0  0  0  0  3  0  0  0  0  0  0
  195.1260  176.0700  142.0200 C   0  0  0  0  0  3  0  0  0  0  0  0
  194.2390  174.4910  145.0110 C   0  0  2  0  0  3  0  0  0  0  0  0
  195.6350  175.0050  139.8900 C   0  0  0  0  0  0  0  0  0  0  0  0
  194.9160  173.8700  140.2920 C   0  0  0  0  0  3  0  0  0  0  0  0
  193.6070  172.5950  142.0430 C   0  0  0  0  0  2  0  0  0  0  0  0
  193.1160  173.5360  145.3420 C   0  0  1  0  0  3  0  0  0  0  0  0
  193.7520  174.8390  143.6540 N   0  0  0  0  0  0  0  0  0  0  0  0
  194.3990  174.9400  142.3940 C   0  0  0  0  0  0  0  0  0  0  0  0
  196.2340  171.7130  145.7930 N   0  0  0  0  0  2  0  0  0  0  0  0
  194.2880  173.8430  141.5390 C   0  0  0  0  0  0  0  0  0  0  0  0
  194.3700  175.4190  137.2660 O   0  0  0  0  0  0  0  0  0  0  0  0
  196.2550  175.0020  138.5970 N   0  0  0  0  0  2  0  0  0  0  0  0
  195.6100  175.2130  137.3310 C   0  0  0  0  0  0  0  0  0  0  0  0
  196.3530  175.1880  136.1500 O   0  0  0  0  0  0  0  0  0  0  0  0
  196.9640  176.3520  135.6050 C   0  0  0  0  0  2  0  0  0  0  0  0
  196.0330  177.0300  134.6140 C   0  0  0  0  0  2  0  0  0  0  0  0
  196.0080  178.4300  134.8570 O   0  0  0  0  0  0  0  0  0  0  0  0
  193.7070  178.5330  135.0400 O   0  0  0  0  0  1  0  0  0  0  0  0
  194.8320  180.5260  134.9420 O   0  0  0  0  0  0  0  0  0  0  0  0
  194.8090  179.1370  134.9480 C   0  0  0  0  0  0  0  0  0  0  0  0
  191.3820  174.8880  144.2300 C   0  0  0  0  0  3  0  0  0  0  0  0
  190.9720  175.2240  145.4490 C   0  0  0  0  0  3  0  0  0  0  0  0
  188.8550  176.7720  145.7500 C   0  0  0  0  0  0  0  0  0  0  0  0
  189.8220  176.0650  145.6120 C   0  0  0  0  0  0  0  0  0  0  0  0
  186.5320  176.8280  146.3330 N   0  0  0  0  0  0  0  0  0  0  0  0
  187.6790  177.6320  145.9200 C   0  0  2  0  0  3  0  0  0  0  0  0
  187.4000  178.2990  144.7060 O   0  0  0  0  0  0  0  0  0  0  0  0
  186.1010  177.9160  144.3420 C   0  0  1  0  0  3  0  0  0  0  0  0
  186.3630  176.9580  147.7780 C   0  0  0  0  0  1  0  0  0  0  0  0
  185.4210  177.3990  145.5860 C   0  0  2  0  0  3  0  0  0  0  0  0
  185.6130  180.3510  144.0080 O   0  0  0  0  0  1  0  0  0  0  0  0
  184.5140  178.7640  142.7760 O   0  0  0  0  0  0  0  0  0  0  0  0
  185.3730  179.0290  143.6550 C   0  0  0  0  0  0  0  0  0  0  0  0
  184.8070  178.4530  146.2860 O   0  0  0  0  0  0  0  0  0  0  0  0
  183.5220  178.3150  146.0370 O   0  0  0  0  0  1  0  0  0  0  0  0
  1 30  1  1  0  0  0
  1 15  1  0  0  0  0
  3  2  2  0  0  0  0
  4  6  1  6  0  0  0
  4  1  1  0  0  0  0
  5  8  1  0  0  0  0
  5 18  1  0  0  0  0
  7  5  2  0  0  0  0
  7  3  1  0  0  0  0
  9 10  1  0  0  0  0
 10 17  2  0  0  0  0
 11  7  1  6  0  0  0
 11 15  1  0  0  0  0
 12 13  1  0  0  0  0
 12  9  2  0  0  0  0
 13 19  2  0  0  0  0
 14  4  1  0  0  0  0
 15  8  1  6  0  0  0
 16  1  1  0  0  0  0
 16 11  1  0  0  0  0
 17 16  1  0  0  0  0
 18  2  1  0  0  0  0
 19 14  1  0  0  0  0
 19 17  1  0  0  0  0
 20 22  2  0  0  0  0
 21 12  1  0  0  0  0
 22 21  1  0  0  0  0
 23 22  1  0  0  0  0
 24 23  1  0  0  0  0
 25 26  1  0  0  0  0
 25 24  1  0  0  0  0
 26 29  1  0  0  0  0
 28 29  2  0  0  0  0
 29 27  1  0  0  0  0
 30 31  2  0  0  0  0
 31 33  1  0  0  0  0
 33 32  3  0  0  0  0
 34 38  1  0  0  0  0
 35 32  1  6  0  0  0
 35 34  1  0  0  0  0
 36 35  1  0  0  0  0
 37 42  1  1  0  0  0
 37 36  1  0  0  0  0
 37 39  1  0  0  0  0
 39 43  1  1  0  0  0
 39 34  1  0  0  0  0
 41 42  2  0  0  0  0
 42 40  1  0  0  0  0
 44 43  1  0  0  0  0
M  END
>  <MODEL>
1

>  <REMARK>
 VINA RESULT:      -6.9      0.000      0.000
  Name = 
  11 active torsions:
  status: ('A' for Active; 'I' for Inactive)
    1  A    between atoms: C_2  and  C_12
    2  A    between atoms: O_5  and  C_38
    3  A    between atoms: C_8  and  O_24
    4  A    between atoms: C_8  and  C_36
    5  A    between atoms: C_10  and  C_39
    6  A    between atoms: O_16  and  C_36
    7  A    between atoms: O_16  and  C_42
    8  A    between atoms: C_18  and  C_29
    9  A    between atoms: O_24  and  C_44
   10  A    between atoms: N_25  and  C_26
   11  A    between atoms: C_35  and  C_40
                            x       y       z     vdW  Elec       q    Type
                         _______ _______ _______ _____ _____    ______ ____

>  <TORSDO>
F 11

$$$$
=
 OpenBabel11042418443D

 44 49  0  0  1  0  0  0  0  0999 V2000
  192.8010  174.0210  143.9950 C   0  0  1  0  0  0  0  0  0  0  0  0
  197.1140  172.0260  146.1130 N   0  0  0  0  0  0  0  0  0  0  0  0
  196.8830  173.4170  145.7300 C   0  0  0  0  0  3  0  0  0  0  0  0
  192.5600  173.0310  142.7890 C   0  0  1  0  0  3  0  0  0  0  0  0
  195.1670  172.0890  145.1260 C   0  0  0  0  0  0  0  0  0  0  0  0
  191.4880  173.4920  141.8070 C   0  0  0  0  0  1  0  0  0  0  0  0
  195.5560  173.3250  145.0610 C   0  0  0  0  0  0  0  0  0  0  0  0
  193.7010  171.9440  145.2320 C   0  0  0  0  0  2  0  0  0  0  0  0
  196.3210  176.1040  141.1400 C   0  0  0  0  0  3  0  0  0  0  0  0
  195.6240  176.0220  142.3510 C   0  0  0  0  0  3  0  0  0  0  0  0
  194.4180  174.2840  145.1350 C   0  0  2  0  0  3  0  0  0  0  0  0
  196.1860  175.0970  140.1690 C   0  0  0  0  0  0  0  0  0  0  0  0
  195.3540  173.9980  140.4280 C   0  0  0  0  0  3  0  0  0  0  0  0
  193.8350  172.6980  141.9800 C   0  0  0  0  0  2  0  0  0  0  0  0
  193.2040  173.4030  145.3140 C   0  0  1  0  0  3  0  0  0  0  0  0
  194.0520  174.7810  143.7870 N   0  0  0  0  0  0  0  0  0  0  0  0
  194.7860  174.9310  142.5810 C   0  0  0  0  0  0  0  0  0  0  0  0
  196.1300  171.2910  145.7870 N   0  0  0  0  0  2  0  0  0  0  0  0
  194.6450  173.9220  141.6280 C   0  0  0  0  0  0  0  0  0  0  0  0
  195.0660  175.3970  137.4660 O   0  0  0  0  0  0  0  0  0  0  0  0
  196.8880  175.1470  138.9200 N   0  0  0  0  0  2  0  0  0  0  0  0
  196.3120  175.3010  137.6130 C   0  0  0  0  0  0  0  0  0  0  0  0
  197.1310  175.3400  136.4840 O   0  0  0  0  0  0  0  0  0  0  0  0
  197.1420  174.3020  135.5110 C   0  0  0  0  0  2  0  0  0  0  0  0
  197.9410  173.1100  136.0090 C   0  0  0  0  0  2  0  0  0  0  0  0
  197.0700  172.1690  136.6220 O   0  0  0  0  0  0  0  0  0  0  0  0
  197.9060  171.9030  138.7590 O   0  0  0  0  0  1  0  0  0  0  0  0
  197.4170  169.9960  137.5900 O   0  0  0  0  0  0  0  0  0  0  0  0
  197.4820  171.3790  137.6950 C   0  0  0  0  0  0  0  0  0  0  0  0
  191.6600  174.9840  144.2240 C   0  0  0  0  0  3  0  0  0  0  0  0
  190.7580  174.7920  145.1800 C   0  0  0  0  0  3  0  0  0  0  0  0
  188.7920  176.5250  145.5070 C   0  0  0  0  0  0  0  0  0  0  0  0
  189.6900  175.7330  145.3580 C   0  0  0  0  0  0  0  0  0  0  0  0
  186.5160  176.8050  146.1980 N   0  0  0  0  0  0  0  0  0  0  0  0
  187.7010  177.4880  145.6860 C   0  0  2  0  0  3  0  0  0  0  0  0
  187.4120  178.1130  144.4520 O   0  0  0  0  0  0  0  0  0  0  0  0
  186.0700  177.8220  144.1740 C   0  0  1  0  0  3  0  0  0  0  0  0
  186.4360  177.0230  147.6410 C   0  0  0  0  0  1  0  0  0  0  0  0
  185.4170  177.4280  145.4770 C   0  0  2  0  0  3  0  0  0  0  0  0
  184.4350  178.7080  142.4930 O   0  0  0  0  0  0  0  0  0  0  0  0
  185.7350  180.1400  143.7200 O   0  0  0  0  0  1  0  0  0  0  0  0
  185.3990  178.9560  143.4630 C   0  0  0  0  0  0  0  0  0  0  0  0
  184.9290  178.5650  146.1470 O   0  0  0  0  0  0  0  0  0  0  0  0
  183.6200  178.4210  146.1370 O   0  0  0  0  0  1  0  0  0  0  0  0
  1 30  1  1  0  0  0
  1 15  1  0  0  0  0
  3  2  2  0  0  0  0
  4  6  1  6  0  0  0
  4  1  1  0  0  0  0
  5  8  1  0  0  0  0
  5 18  1  0  0  0  0
  7  5  2  0  0  0  0
  7  3  1  0  0  0  0
  9 10  1  0  0  0  0
 10 17  2  0  0  0  0
 11  7  1  6  0  0  0
 11 15  1  0  0  0  0
 12 13  1  0  0  0  0
 12  9  2  0  0  0  0
 13 19  2  0  0  0  0
 14  4  1  0  0  0  0
 15  8  1  6  0  0  0
 16  1  1  0  0  0  0
 16 11  1  0  0  0  0
 17 16  1  0  0  0  0
 18  2  1  0  0  0  0
 19 14  1  0  0  0  0
 19 17  1  0  0  0  0
 20 22  2  0  0  0  0
 21 12  1  0  0  0  0
 22 21  1  0  0  0  0
 23 22  1  0  0  0  0
 24 25  1  0  0  0  0
 24 23  1  0  0  0  0
 25 26  1  0  0  0  0
 26 29  1  0  0  0  0
 28 29  2  0  0  0  0
 29 27  1  0  0  0  0
 30 31  2  0  0  0  0
 31 33  1  0  0  0  0
 33 32  3  0  0  0  0
 34 38  1  0  0  0  0
 35 32  1  6  0  0  0
 35 34  1  0  0  0  0
 36 35  1  0  0  0  0
 37 42  1  1  0  0  0
 37 36  1  0  0  0  0
 37 39  1  0  0  0  0
 39 43  1  1  0  0  0
 39 34  1  0  0  0  0
 40 42  2  0  0  0  0
 42 41  1  0  0  0  0
 44 43  1  0  0  0  0
M  END
>  <MODEL>
2

>  <REMARK>
 VINA RESULT:      -6.6      1.571      2.865
  Name = 
  11 active torsions:
  status: ('A' for Active; 'I' for Inactive)
    1  A    between atoms: C_2  and  C_12
    2  A    between atoms: O_5  and  C_38
    3  A    between atoms: C_8  and  O_24
    4  A    between atoms: C_8  and  C_36
    5  A    between atoms: C_10  and  C_39
    6  A    between atoms: O_16  and  C_36
    7  A    between atoms: O_16  and  C_42
    8  A    between atoms: C_18  and  C_29
    9  A    between atoms: O_24  and  C_44
   10  A    between atoms: N_25  and  C_26
   11  A    between atoms: C_35  and  C_40
                            x       y       z     vdW  Elec       q    Type
                         _______ _______ _______ _____ _____    ______ ____

>  <TORSDO>
F 11

$$$$
=
 OpenBabel11042418443D

 44 49  0  0  1  0  0  0  0  0999 V2000
  190.3090  172.1670  140.9820 C   0  0  1  0  0  0  0  0  0  0  0  0
  194.2570  169.1060  142.4360 N   0  0  0  0  0  0  0  0  0  0  0  0
  194.1000  170.5320  142.7100 C   0  0  0  0  0  2  0  0  0  0  0  0
  190.2250  171.8540  139.4370 C   0  0  1  0  0  3  0  0  0  0  0  0
  192.4680  169.7580  141.3670 C   0  0  0  0  0  0  0  0  0  0  0  0
  189.3060  172.7900  138.6590 C   0  0  0  0  0  1  0  0  0  0  0  0
  192.8790  170.8560  141.9240 C   0  0  0  0  0  0  0  0  0  0  0  0
  190.9990  169.6930  141.2210 C   0  0  0  0  0  2  0  0  0  0  0  0
  194.2210  175.0430  139.8410 C   0  0  0  0  0  3  0  0  0  0  0  0
  193.3610  174.4740  140.7870 C   0  0  0  0  0  3  0  0  0  0  0  0
  191.7550  171.7590  142.2960 C   0  0  2  0  0  3  0  0  0  0  0  0
  194.2080  174.6000  138.5070 C   0  0  0  0  0  0  0  0  0  0  0  0
  193.3340  173.5700  138.1310 C   0  0  0  0  0  3  0  0  0  0  0  0
  191.5960  171.8280  138.7220 C   0  0  0  0  0  2  0  0  0  0  0  0
  190.5160  170.9890  141.9060 C   0  0  1  0  0  3  0  0  0  0  0  0
  191.5870  172.8410  141.2960 N   0  0  0  0  0  0  0  0  0  0  0  0
  192.4840  173.4650  140.3890 C   0  0  0  0  0  0  0  0  0  0  0  0
  193.3180  168.6750  141.6950 N   0  0  0  0  0  0  0  0  0  0  0  0
  192.4630  173.0120  139.0700 C   0  0  0  0  0  0  0  0  0  0  0  0
  197.1460  174.4780  138.3880 O   0  0  0  0  0  0  0  0  0  0  0  0
  195.0780  175.1580  137.5130 N   0  0  0  0  0  2  0  0  0  0  0  0
  196.5120  175.0760  137.4790 C   0  0  0  0  0  0  0  0  0  0  0  0
  197.2260  175.6680  136.4350 O   0  0  0  0  0  0  0  0  0  0  0  0
  196.6770  175.8370  135.1340 C   0  0  0  0  0  2  0  0  0  0  0  0
  196.2070  177.2680  134.9330 C   0  0  0  0  0  2  0  0  0  0  0  0
  194.8340  177.2760  134.5660 O   0  0  0  0  0  0  0  0  0  0  0  0
  194.4610  179.4710  135.1810 O   0  0  0  0  0  1  0  0  0  0  0  0
  192.6170  178.1400  134.9120 O   0  0  0  0  0  0  0  0  0  0  0  0
  193.9910  178.3370  134.8980 C   0  0  0  0  0  0  0  0  0  0  0  0
  189.1600  173.0050  141.4930 C   0  0  0  0  0  3  0  0  0  0  0  0
  189.3150  174.2810  141.8310 C   0  0  0  0  0  3  0  0  0  0  0  0
  187.2550  175.6710  142.7210 C   0  0  0  0  0  0  0  0  0  0  0  0
  188.1960  175.0350  142.3140 C   0  0  0  0  0  0  0  0  0  0  0  0
  186.2340  177.8370  142.7880 N   0  0  0  0  0  0  0  0  0  0  0  0
  186.1110  176.4450  143.2140 C   0  0  2  0  0  3  0  0  0  0  0  0
  186.0570  176.3660  144.6230 O   0  0  0  0  0  0  0  0  0  0  0  0
  186.1580  177.6830  145.0910 C   0  0  1  0  0  3  0  0  0  0  0  0
  185.3850  178.0460  141.6180 C   0  0  0  0  0  1  0  0  0  0  0  0
  185.7860  178.5950  143.9470 C   0  0  2  0  0  3  0  0  0  0  0  0
  185.4610  179.0650  147.0630 O   0  0  0  0  0  1  0  0  0  0  0  0
  184.5870  176.9730  146.7400 O   0  0  0  0  0  0  0  0  0  0  0  0
  185.3480  177.8870  146.3340 C   0  0  0  0  0  0  0  0  0  0  0  0
  184.3970  178.8140  143.9230 O   0  0  0  0  0  0  0  0  0  0  0  0
  184.2610  180.1120  144.0980 O   0  0  0  0  0  1  0  0  0  0  0  0
  1 16  1  0  0  0  0
  1 30  1  1  0  0  0
  1 15  1  0  0  0  0
  2  3  1  0  0  0  0
  4  6  1  6  0  0  0
  4  1  1  0  0  0  0
  5 18  1  0  0  0  0
  5  7  2  0  0  0  0
  7  3  1  0  0  0  0
  8  5  1  0  0  0  0
  9 10  1  0  0  0  0
 11  7  1  6  0  0  0
 12  9  2  0  0  0  0
 13 12  1  0  0  0  0
 13 19  2  0  0  0  0
 14 19  1  0  0  0  0
 14  4  1  0  0  0  0
 15  8  1  6  0  0  0
 15 11  1  0  0  0  0
 16 11  1  0  0  0  0
 17 10  2  0  0  0  0
 17 16  1  0  0  0  0
 18  2  2  0  0  0  0
 19 17  1  0  0  0  0
 21 12  1  0  0  0  0
 22 21  1  0  0  0  0
 22 20  2  0  0  0  0
 23 22  1  0  0  0  0
 24 23  1  0  0  0  0
 25 24  1  0  0  0  0
 26 29  1  0  0  0  0
 26 25  1  0  0  0  0
 29 28  2  0  0  0  0
 29 27  1  0  0  0  0
 30 31  2  0  0  0  0
 31 33  1  0  0  0  0
 33 32  3  0  0  0  0
 34 35  1  0  0  0  0
 34 39  1  0  0  0  0
 35 32  1  1  0  0  0
 35 36  1  0  0  0  0
 36 37  1  0  0  0  0
 37 42  1  1  0  0  0
 38 34  1  0  0  0  0
 39 43  1  6  0  0  0
 39 37  1  0  0  0  0
 42 41  2  0  0  0  0
 42 40  1  0  0  0  0
 43 44  1  0  0  0  0
M  END
>  <MODEL>
3

>  <REMARK>
 VINA RESULT:      -6.1      2.652      3.578
  Name = 
  11 active torsions:
  status: ('A' for Active; 'I' for Inactive)
    1  A    between atoms: C_2  and  C_12
    2  A    between atoms: O_5  and  C_38
    3  A    between atoms: C_8  and  O_24
    4  A    between atoms: C_8  and  C_36
    5  A    between atoms: C_10  and  C_39
    6  A    between atoms: O_16  and  C_36
    7  A    between atoms: O_16  and  C_42
    8  A    between atoms: C_18  and  C_29
    9  A    between atoms: O_24  and  C_44
   10  A    between atoms: N_25  and  C_26
   11  A    between atoms: C_35  and  C_40
                            x       y       z     vdW  Elec       q    Type
                         _______ _______ _______ _____ _____    ______ ____

>  <TORSDO>
F 11

$$$$
=
 OpenBabel11042418443D

 44 49  0  0  1  0  0  0  0  0999 V2000
  192.5780  173.4170  143.9910 C   0  0  1  0  0  0  0  0  0  0  0  0
  197.5670  173.6940  145.4420 N   0  0  0  0  0  0  0  0  0  0  0  0
  196.8330  174.6540  144.6210 C   0  0  0  0  0  3  0  0  0  0  0  0
  192.5090  171.9580  143.3910 C   0  0  1  0  0  3  0  0  0  0  0  0
  195.5890  172.8370  145.0900 C   0  0  0  0  0  0  0  0  0  0  0  0
  191.2140  171.6500  142.6450 C   0  0  0  0  0  1  0  0  0  0  0  0
  195.5310  173.9570  144.4370 C   0  0  0  0  0  0  0  0  0  0  0  0
  194.2860  172.4180  145.6450 C   0  0  0  0  0  2  0  0  0  0  0  0
  194.7540  174.7140  139.6940 C   0  0  0  0  0  3  0  0  0  0  0  0
  194.3070  175.0370  140.9800 C   0  0  0  0  0  3  0  0  0  0  0  0
  194.1620  174.5450  144.4390 C   0  0  2  0  0  3  0  0  0  0  0  0
  194.8230  173.3730  139.2780 C   0  0  0  0  0  0  0  0  0  0  0  0
  194.4510  172.3550  140.1680 C   0  0  0  0  0  3  0  0  0  0  0  0
  193.6910  171.6000  142.4610 C   0  0  0  0  0  2  0  0  0  0  0  0
  193.3500  173.5890  145.2790 C   0  0  1  0  0  3  0  0  0  0  0  0
  193.4610  174.2660  143.1630 N   0  0  0  0  0  0  0  0  0  0  0  0
  193.9220  174.0120  141.8440 C   0  0  0  0  0  0  0  0  0  0  0  0
  196.8470  172.6830  145.7180 N   0  0  0  0  0  2  0  0  0  0  0  0
  193.9880  172.6760  141.4460 C   0  0  0  0  0  0  0  0  0  0  0  0
  193.2920  173.3210  136.7660 O   0  0  0  0  0  0  0  0  0  0  0  0
  195.2810  173.0060  137.9700 N   0  0  0  0  0  2  0  0  0  0  0  0
  194.5080  172.9960  136.7580 C   0  0  0  0  0  0  0  0  0  0  0  0
  195.0990  172.6200  135.5510 O   0  0  0  0  0  0  0  0  0  0  0  0
  195.7650  173.5480  134.7030 C   0  0  0  0  0  2  0  0  0  0  0  0
  197.2680  173.4900  134.9220 C   0  0  0  0  0  2  0  0  0  0  0  0
  197.7540  174.7800  135.2660 O   0  0  0  0  0  0  0  0  0  0  0  0
  196.1020  176.0700  136.2380 O   0  0  0  0  0  0  0  0  0  0  0  0
  197.9390  175.5950  137.5210 O   0  0  0  0  0  1  0  0  0  0  0  0
  197.2230  175.5030  136.3350 C   0  0  0  0  0  0  0  0  0  0  0  0
  191.2270  174.0800  144.1270 C   0  0  0  0  0  3  0  0  0  0  0  0
  190.8190  175.0250  143.2870 C   0  0  0  0  0  3  0  0  0  0  0  0
  188.4440  176.1350  143.6020 C   0  0  0  0  0  0  0  0  0  0  0  0
  189.5290  175.6280  143.4590 C   0  0  0  0  0  0  0  0  0  0  0  0
  187.2100  178.1870  143.5230 N   0  0  0  0  0  0  0  0  0  0  0  0
  187.1240  176.7500  143.7750 C   0  0  2  0  0  3  0  0  0  0  0  0
  186.6560  176.5090  145.0850 O   0  0  0  0  0  0  0  0  0  0  0  0
  186.4600  177.7690  145.6670 C   0  0  1  0  0  3  0  0  0  0  0  0
  186.7370  178.4550  142.1670 C   0  0  0  0  0  1  0  0  0  0  0  0
  186.3500  178.7700  144.5420 C   0  0  2  0  0  3  0  0  0  0  0  0
  185.0220  178.8740  147.3970 O   0  0  0  0  0  1  0  0  0  0  0  0
  184.5790  176.7350  146.7080 O   0  0  0  0  0  0  0  0  0  0  0  0
  185.2950  177.7640  146.6070 C   0  0  0  0  0  0  0  0  0  0  0  0
  185.0170  178.8740  144.1040 O   0  0  0  0  0  0  0  0  0  0  0  0
  184.7440  180.1600  144.1700 O   0  0  0  0  0  1  0  0  0  0  0  0
  1 30  1  1  0  0  0
  1 15  1  0  0  0  0
  2 18  1  0  0  0  0
  3  2  2  0  0  0  0
  4  6  1  6  0  0  0
  4  1  1  0  0  0  0
  5  8  1  0  0  0  0
  5 18  1  0  0  0  0
  7  3  1  0  0  0  0
  7  5  2  0  0  0  0
  9 10  1  0  0  0  0
 10 17  2  0  0  0  0
 11  7  1  6  0  0  0
 11 15  1  0  0  0  0
 12  9  2  0  0  0  0
 12 13  1  0  0  0  0
 13 19  2  0  0  0  0
 14  4  1  0  0  0  0
 15  8  1  6  0  0  0
 16  1  1  0  0  0  0
 16 11  1  0  0  0  0
 17 16  1  0  0  0  0
 19 17  1  0  0  0  0
 19 14  1  0  0  0  0
 21 12  1  0  0  0  0
 22 20  2  0  0  0  0
 22 21  1  0  0  0  0
 23 22  1  0  0  0  0
 24 25  1  0  0  0  0
 24 23  1  0  0  0  0
 25 26  1  0  0  0  0
 26 29  1  0  0  0  0
 27 29  2  0  0  0  0
 29 28  1  0  0  0  0
 31 33  1  0  0  0  0
 31 30  2  0  0  0  0
 33 32  3  0  0  0  0
 34 35  1  0  0  0  0
 34 39  1  0  0  0  0
 35 32  1  1  0  0  0
 35 36  1  0  0  0  0
 36 37  1  0  0  0  0
 37 42  1  6  0  0  0
 38 34  1  0  0  0  0
 39 43  1  6  0  0  0
 39 37  1  0  0  0  0
 42 41  2  0  0  0  0
 42 40  1  0  0  0  0
 43 44  1  0  0  0  0
M  END
>  <MODEL>
4

>  <REMARK>
 VINA RESULT:      -6.0      1.858      2.621
  Name = 
  11 active torsions:
  status: ('A' for Active; 'I' for Inactive)
    1  A    between atoms: C_2  and  C_12
    2  A    between atoms: O_5  and  C_38
    3  A    between atoms: C_8  and  O_24
    4  A    between atoms: C_8  and  C_36
    5  A    between atoms: C_10  and  C_39
    6  A    between atoms: O_16  and  C_36
    7  A    between atoms: O_16  and  C_42
    8  A    between atoms: C_18  and  C_29
    9  A    between atoms: O_24  and  C_44
   10  A    between atoms: N_25  and  C_26
   11  A    between atoms: C_35  and  C_40
                            x       y       z     vdW  Elec       q    Type
                         _______ _______ _______ _____ _____    ______ ____

>  <TORSDO>
F 11

$$$$
=
 OpenBabel11042418443D

 44 49  0  0  1  0  0  0  0  0999 V2000
  192.8540  174.5070  143.8260 C   0  0  1  0  0  0  0  0  0  0  0  0
  197.7720  175.8740  142.8180 N   0  0  0  0  0  0  0  0  0  0  0  0
  196.5980  176.1310  141.9870 C   0  0  0  0  0  3  0  0  0  0  0  0
  193.0180  172.9710  144.1520 C   0  0  1  0  0  3  0  0  0  0  0  0
  196.0930  174.8570  143.7730 C   0  0  0  0  0  0  0  0  0  0  0  0
  191.7010  172.2100  144.2540 C   0  0  0  0  0  1  0  0  0  0  0  0
  195.5420  175.3810  142.7210 C   0  0  0  0  0  0  0  0  0  0  0  0
  195.1730  174.7630  144.9260 C   0  0  0  0  0  2  0  0  0  0  0  0
  193.2520  173.1860  139.0320 C   0  0  0  0  0  3  0  0  0  0  0  0
  193.1240  174.1700  140.0190 C   0  0  0  0  0  3  0  0  0  0  0  0
  194.1260  175.7770  142.9580 C   0  0  2  0  0  3  0  0  0  0  0  0
  193.5640  171.8600  139.3820 C   0  0  0  0  0  0  0  0  0  0  0  0
  193.7590  171.5320  140.7310 C   0  0  0  0  0  3  0  0  0  0  0  0
  193.9330  172.2100  143.1640 C   0  0  0  0  0  2  0  0  0  0  0  0
  193.8870  175.4430  144.4110 C   0  0  1  0  0  3  0  0  0  0  0  0
  193.1910  174.7660  142.4100 N   0  0  0  0  0  0  0  0  0  0  0  0
  193.3030  173.8190  141.3570 C   0  0  0  0  0  0  0  0  0  0  0  0
  197.4700  175.1730  143.8340 N   0  0  0  0  0  2  0  0  0  0  0  0
  193.6160  172.5090  141.7190 C   0  0  0  0  0  0  0  0  0  0  0  0
  191.4970  170.0430  138.3430 O   0  0  0  0  0  0  0  0  0  0  0  0
  193.7060  170.8290  138.3970 N   0  0  0  0  0  2  0  0  0  0  0  0
  192.6740  169.9590  137.9050 C   0  0  0  0  0  0  0  0  0  0  0  0
  192.9660  169.0010  136.9320 O   0  0  0  0  0  0  0  0  0  0  0  0
  192.1610  168.8160  135.7740 C   0  0  0  0  0  2  0  0  0  0  0  0
  192.1690  170.0670  134.9120 C   0  0  0  0  0  2  0  0  0  0  0  0
  190.8420  170.3910  134.5210 O   0  0  0  0  0  0  0  0  0  0  0  0
  189.3460  171.2260  136.0710 O   0  0  0  0  0  1  0  0  0  0  0  0
  190.3140  172.7340  134.6440 O   0  0  0  0  0  0  0  0  0  0  0  0
  190.1370  171.4390  135.1130 C   0  0  0  0  0  0  0  0  0  0  0  0
  191.4730  175.0440  144.1190 C   0  0  0  0  0  3  0  0  0  0  0  0
  190.5430  175.1480  143.1760 C   0  0  0  0  0  3  0  0  0  0  0  0
  188.1550  176.1030  143.7740 C   0  0  0  0  0  0  0  0  0  0  0  0
  189.2460  175.6670  143.5020 C   0  0  0  0  0  0  0  0  0  0  0  0
  186.6100  177.8950  143.4040 N   0  0  0  0  0  0  0  0  0  0  0  0
  186.8290  176.6330  144.1050 C   0  0  2  0  0  3  0  0  0  0  0  0
  186.7280  176.8230  145.5010 O   0  0  0  0  0  0  0  0  0  0  0  0
  186.4630  178.1860  145.6900 C   0  0  1  0  0  3  0  0  0  0  0  0
  185.7940  177.6390  142.2190 C   0  0  0  0  0  1  0  0  0  0  0  0
  185.9260  178.7240  144.3860 C   0  0  2  0  0  3  0  0  0  0  0  0
  184.5180  177.5440  147.1340 O   0  0  0  0  0  0  0  0  0  0  0  0
  185.7500  179.4180  147.6040 O   0  0  0  0  0  1  0  0  0  0  0  0
  185.5690  178.4140  146.8690 C   0  0  0  0  0  0  0  0  0  0  0  0
  184.5300  178.5630  144.3240 O   0  0  0  0  0  0  0  0  0  0  0  0
  184.0560  179.7890  144.2620 O   0  0  0  0  0  1  0  0  0  0  0  0
  1 30  1  1  0  0  0
  1  4  1  0  0  0  0
  1 15  1  0  0  0  0
  2 18  1  0  0  0  0
  3  7  1  0  0  0  0
  3  2  2  0  0  0  0
  4  6  1  6  0  0  0
  5 18  1  0  0  0  0
  5  8  1  0  0  0  0
  7  5  2  0  0  0  0
  9 12  2  0  0  0  0
  9 10  1  0  0  0  0
 10 17  2  0  0  0  0
 11  7  1  6  0  0  0
 11 15  1  0  0  0  0
 12 13  1  0  0  0  0
 13 19  2  0  0  0  0
 14  4  1  0  0  0  0
 15  8  1  6  0  0  0
 16 11  1  0  0  0  0
 16  1  1  0  0  0  0
 17 19  1  0  0  0  0
 17 16  1  0  0  0  0
 19 14  1  0  0  0  0
 21 12  1  0  0  0  0
 22 20  2  0  0  0  0
 22 21  1  0  0  0  0
 23 22  1  0  0  0  0
 24 23  1  0  0  0  0
 25 24  1  0  0  0  0
 26 25  1  0  0  0  0
 26 29  1  0  0  0  0
 28 29  2  0  0  0  0
 29 27  1  0  0  0  0
 31 33  1  0  0  0  0
 31 30  2  0  0  0  0
 33 32  3  0  0  0  0
 34 35  1  0  0  0  0
 34 39  1  0  0  0  0
 35 32  1  1  0  0  0
 35 36  1  0  0  0  0
 36 37  1  0  0  0  0
 37 42  1  1  0  0  0
 38 34  1  0  0  0  0
 39 43  1  1  0  0  0
 39 37  1  0  0  0  0
 42 40  2  0  0  0  0
 42 41  1  0  0  0  0
 44 43  1  0  0  0  0
M  END
>  <MODEL>
5

>  <REMARK>
 VINA RESULT:      -5.8      3.517      4.565
  Name = 
  11 active torsions:
  status: ('A' for Active; 'I' for Inactive)
    1  A    between atoms: C_2  and  C_12
    2  A    between atoms: O_5  and  C_38
    3  A    between atoms: C_8  and  O_24
    4  A    between atoms: C_8  and  C_36
    5  A    between atoms: C_10  and  C_39
    6  A    between atoms: O_16  and  C_36
    7  A    between atoms: O_16  and  C_42
    8  A    between atoms: C_18  and  C_29
    9  A    between atoms: O_24  and  C_44
   10  A    between atoms: N_25  and  C_26
   11  A    between atoms: C_35  and  C_40
                            x       y       z     vdW  Elec       q    Type
                         _______ _______ _______ _____ _____    ______ ____

>  <TORSDO>
F 11

$$$$
=
 OpenBabel11042418443D

 44 49  0  0  1  0  0  0  0  0999 V2000
  192.7810  173.6690  143.9710 C   0  0  1  0  0  0  0  0  0  0  0  0
  197.7630  172.8710  145.2410 N   0  0  0  0  0  0  0  0  0  0  0  0
  197.1700  174.1060  144.7330 C   0  0  0  0  0  3  0  0  0  0  0  0
  192.5040  172.4460  143.0110 C   0  0  1  0  0  3  0  0  0  0  0  0
  195.6830  172.4150  144.7560 C   0  0  0  0  0  0  0  0  0  0  0  0
  191.1770  172.5270  142.2640 C   0  0  0  0  0  1  0  0  0  0  0  0
  195.7810  173.6660  144.4250 C   0  0  0  0  0  0  0  0  0  0  0  0
  194.3350  172.0430  145.2330 C   0  0  0  0  0  2  0  0  0  0  0  0
  195.1050  175.7590  140.0850 C   0  0  0  0  0  3  0  0  0  0  0  0
  194.7120  175.7850  141.4280 C   0  0  0  0  0  3  0  0  0  0  0  0
  194.5100  174.4120  144.6370 C   0  0  2  0  0  3  0  0  0  0  0  0
  194.9830  174.5810  139.3270 C   0  0  0  0  0  0  0  0  0  0  0  0
  194.4730  173.4230  139.9320 C   0  0  0  0  0  3  0  0  0  0  0  0
  193.6220  172.1930  141.9730 C   0  0  0  0  0  2  0  0  0  0  0  0
  193.5730  173.3850  145.2270 C   0  0  1  0  0  3  0  0  0  0  0  0
  193.7720  174.5810  143.3620 N   0  0  0  0  0  0  0  0  0  0  0  0
  194.1880  174.6280  142.0050 C   0  0  0  0  0  0  0  0  0  0  0  0
  196.9090  171.9300  145.2700 N   0  0  0  0  0  2  0  0  0  0  0  0
  194.0640  173.4510  141.2670 C   0  0  0  0  0  0  0  0  0  0  0  0
  193.2870  174.8150  136.9340 O   0  0  0  0  0  0  0  0  0  0  0  0
  195.3800  174.5190  137.9510 N   0  0  0  0  0  2  0  0  0  0  0  0
  194.5270  174.6430  136.8010 C   0  0  0  0  0  0  0  0  0  0  0  0
  195.0650  174.5680  135.5150 O   0  0  0  0  0  0  0  0  0  0  0  0
  194.5950  173.6420  134.5430 C   0  0  0  0  0  2  0  0  0  0  0  0
  194.5960  172.2300  135.1030 C   0  0  0  0  0  2  0  0  0  0  0  0
  193.2840  171.6880  135.0460 O   0  0  0  0  0  0  0  0  0  0  0  0
  192.4500  171.8250  137.1970 O   0  0  0  0  0  1  0  0  0  0  0  0
  192.2930  169.7950  136.1480 O   0  0  0  0  0  0  0  0  0  0  0  0
  192.6700  171.1310  136.1680 C   0  0  0  0  0  0  0  0  0  0  0  0
  191.5370  174.4480  144.3330 C   0  0  0  0  0  3  0  0  0  0  0  0
  191.4910  175.7740  144.2600 C   0  0  0  0  0  3  0  0  0  0  0  0
  189.2780  177.0540  144.9170 C   0  0  0  0  0  0  0  0  0  0  0  0
  190.2890  176.4700  144.6160 C   0  0  0  0  0  0  0  0  0  0  0  0
  187.1100  176.8390  145.9130 N   0  0  0  0  0  0  0  0  0  0  0  0
  188.0480  177.7640  145.2830 C   0  0  2  0  0  3  0  0  0  0  0  0
  187.4710  178.3390  144.1290 O   0  0  0  0  0  0  0  0  0  0  0  0
  186.1900  177.7800  144.0150 C   0  0  1  0  0  3  0  0  0  0  0  0
  187.1870  177.0070  147.3620 C   0  0  0  0  0  1  0  0  0  0  0  0
  185.8180  177.2330  145.3720 C   0  0  2  0  0  3  0  0  0  0  0  0
  185.3360  180.1190  143.7290 O   0  0  0  0  0  1  0  0  0  0  0  0
  184.2470  178.3530  142.7560 O   0  0  0  0  0  0  0  0  0  0  0  0
  185.2100  178.7630  143.4530 C   0  0  0  0  0  0  0  0  0  0  0  0
  185.2050  178.2290  146.1540 O   0  0  0  0  0  0  0  0  0  0  0  0
  184.0650  177.6950  146.5390 O   0  0  0  0  0  1  0  0  0  0  0  0
  1 30  1  1  0  0  0
  1 15  1  0  0  0  0
  2 18  1  0  0  0  0
  3  2  2  0  0  0  0
  4  6  1  6  0  0  0
  4  1  1  0  0  0  0
  5  8  1  0  0  0  0
  5 18  1  0  0  0  0
  7  3  1  0  0  0  0
  7  5  2  0  0  0  0
  9 10  1  0  0  0  0
 10 17  2  0  0  0  0
 11  7  1  6  0  0  0
 11 15  1  0  0  0  0
 12 13  1  0  0  0  0
 12  9  2  0  0  0  0
 13 19  2  0  0  0  0
 14  4  1  0  0  0  0
 15  8  1  6  0  0  0
 16  1  1  0  0  0  0
 16 11  1  0  0  0  0
 17 16  1  0  0  0  0
 19 14  1  0  0  0  0
 19 17  1  0  0  0  0
 21 12  1  0  0  0  0
 22 20  2  0  0  0  0
 22 21  1  0  0  0  0
 23 22  1  0  0  0  0
 24 25  1  0  0  0  0
 24 23  1  0  0  0  0
 26 25  1  0  0  0  0
 26 29  1  0  0  0  0
 28 29  2  0  0  0  0
 29 27  1  0  0  0  0
 31 30  2  0  0  0  0
 31 33  1  0  0  0  0
 33 32  3  0  0  0  0
 34 38  1  0  0  0  0
 35 32  1  6  0  0  0
 35 34  1  0  0  0  0
 36 35  1  0  0  0  0
 37 42  1  1  0  0  0
 37 36  1  0  0  0  0
 37 39  1  0  0  0  0
 39 34  1  0  0  0  0
 39 43  1  1  0  0  0
 41 42  2  0  0  0  0
 42 40  1  0  0  0  0
 43 44  1  0  0  0  0
M  END
>  <MODEL>
6

>  <REMARK>
 VINA RESULT:      -5.7      1.850      2.868
  Name = 
  11 active torsions:
  status: ('A' for Active; 'I' for Inactive)
    1  A    between atoms: C_2  and  C_12
    2  A    between atoms: O_5  and  C_38
    3  A    between atoms: C_8  and  O_24
    4  A    between atoms: C_8  and  C_36
    5  A    between atoms: C_10  and  C_39
    6  A    between atoms: O_16  and  C_36
    7  A    between atoms: O_16  and  C_42
    8  A    between atoms: C_18  and  C_29
    9  A    between atoms: O_24  and  C_44
   10  A    between atoms: N_25  and  C_26
   11  A    between atoms: C_35  and  C_40
                            x       y       z     vdW  Elec       q    Type
                         _______ _______ _______ _____ _____    ______ ____

>  <TORSDO>
F 11

$$$$
=
 OpenBabel11042418443D

 44 49  0  0  1  0  0  0  0  0999 V2000
  190.6400  173.0840  140.4400 C   0  0  1  0  0  0  0  0  0  0  0  0
  191.3290  169.8560  136.4190 N   0  0  0  0  0  0  0  0  0  0  0  0
  190.7130  169.5420  137.7050 C   0  0  0  0  0  2  0  0  0  0  0  0
  192.0920  173.6790  140.6150 C   0  0  1  0  0  3  0  0  0  0  0  0
  191.5520  171.6310  137.6710 C   0  0  0  0  0  0  0  0  0  0  0  0
  192.2850  174.4930  141.8900 C   0  0  0  0  0  1  0  0  0  0  0  0
  190.9440  170.8020  138.4630 C   0  0  0  0  0  0  0  0  0  0  0  0
  191.1980  173.0430  137.9230 C   0  0  0  0  0  2  0  0  0  0  0  0
  192.3910  169.0290  142.7570 C   0  0  0  0  0  3  0  0  0  0  0  0
  191.3570  169.7080  142.1030 C   0  0  0  0  0  3  0  0  0  0  0  0
  190.0220  171.4910  139.4080 C   0  0  2  0  0  3  0  0  0  0  0  0
  193.7030  169.5330  142.7330 C   0  0  0  0  0  0  0  0  0  0  0  0
  193.9730  170.7200  142.0380 C   0  0  0  0  0  3  0  0  0  0  0  0
  193.2200  172.6230  140.5480 C   0  0  0  0  0  2  0  0  0  0  0  0
  190.1230  172.9490  139.0270 C   0  0  1  0  0  3  0  0  0  0  0  0
  190.6430  171.6380  140.7470 N   0  0  0  0  0  0  0  0  0  0  0  0
  191.6420  170.8980  141.4330 C   0  0  0  0  0  0  0  0  0  0  0  0
  191.7790  171.0450  136.4040 N   0  0  0  0  0  0  0  0  0  0  0  0
  192.9390  171.4090  141.3990 C   0  0  0  0  0  0  0  0  0  0  0  0
  196.5460  169.5000  141.9750 O   0  0  0  0  0  0  0  0  0  0  0  0
  194.7870  168.8600  143.3890 N   0  0  0  0  0  2  0  0  0  0  0  0
  196.1690  168.8680  142.9970 C   0  0  0  0  0  0  0  0  0  0  0  0
  197.1160  168.1660  143.7450 O   0  0  0  0  0  0  0  0  0  0  0  0
  197.4640  168.5320  145.0750 C   0  0  0  0  0  2  0  0  0  0  0  0
  197.6560  170.0350  145.1830 C   0  0  0  0  0  2  0  0  0  0  0  0
  196.6110  170.5990  145.9630 O   0  0  0  0  0  0  0  0  0  0  0  0
  194.5260  171.5760  145.7780 O   0  0  0  0  0  1  0  0  0  0  0  0
  196.2190  172.4990  144.5420 O   0  0  0  0  0  0  0  0  0  0  0  0
  195.7400  171.5550  145.4410 C   0  0  0  0  0  0  0  0  0  0  0  0
  189.5970  173.7750  141.2880 C   0  0  0  0  0  3  0  0  0  0  0  0
  188.7690  174.6830  140.7840 C   0  0  0  0  0  3  0  0  0  0  0  0
  186.9790  175.8450  142.3390 C   0  0  0  0  0  0  0  0  0  0  0  0
  187.7970  175.3140  141.6290 C   0  0  0  0  0  0  0  0  0  0  0  0
  185.8200  177.8870  142.8130 N   0  0  0  0  0  0  0  0  0  0  0  0
  185.9840  176.4890  143.2020 C   0  0  2  0  0  3  0  0  0  0  0  0
  186.3970  176.3990  144.5500 O   0  0  0  0  0  0  0  0  0  0  0  0
  186.5090  177.7180  145.0110 C   0  0  1  0  0  3  0  0  0  0  0  0
  184.6220  178.0060  141.9860 C   0  0  0  0  0  1  0  0  0  0  0  0
  185.6960  178.5880  144.0820 C   0  0  2  0  0  3  0  0  0  0  0  0
  186.0210  179.0750  147.0610 O   0  0  0  0  0  0  0  0  0  0  0  0
  185.9400  176.7870  147.1320 O   0  0  0  0  0  1  0  0  0  0  0  0
  186.1290  177.8300  146.4550 C   0  0  0  0  0  0  0  0  0  0  0  0
  184.3590  178.6550  144.5140 O   0  0  0  0  0  0  0  0  0  0  0  0
  184.0880  179.9430  144.5580 O   0  0  0  0  0  1  0  0  0  0  0  0
  1  4  1  0  0  0  0
  1 16  1  0  0  0  0
  1 30  1  1  0  0  0
  2  3  1  0  0  0  0
  3  7  1  0  0  0  0
  4  6  1  1  0  0  0
  5  8  1  0  0  0  0
  5  7  2  0  0  0  0
 10  9  2  0  0  0  0
 11  7  1  6  0  0  0
 11 16  1  0  0  0  0
 12  9  1  0  0  0  0
 12 21  1  0  0  0  0
 13 12  2  0  0  0  0
 14  4  1  0  0  0  0
 14 19  1  0  0  0  0
 15  8  1  6  0  0  0
 15 11  1  0  0  0  0
 15  1  1  0  0  0  0
 16 17  1  0  0  0  0
 17 10  1  0  0  0  0
 18  2  2  0  0  0  0
 18  5  1  0  0  0  0
 19 17  2  0  0  0  0
 19 13  1  0  0  0  0
 20 22  2  0  0  0  0
 22 21  1  0  0  0  0
 22 23  1  0  0  0  0
 23 24  1  0  0  0  0
 24 25  1  0  0  0  0
 25 26  1  0  0  0  0
 28 29  2  0  0  0  0
 29 27  1  0  0  0  0
 29 26  1  0  0  0  0
 31 30  2  0  0  0  0
 31 33  1  0  0  0  0
 33 32  3  0  0  0  0
 34 35  1  0  0  0  0
 34 39  1  0  0  0  0
 35 32  1  6  0  0  0
 35 36  1  0  0  0  0
 36 37  1  0  0  0  0
 37 42  1  1  0  0  0
 38 34  1  0  0  0  0
 39 43  1  1  0  0  0
 39 37  1  0  0  0  0
 42 40  2  0  0  0  0
 42 41  1  0  0  0  0
 43 44  1  0  0  0  0
M  END
>  <MODEL>
7

>  <REMARK>
 VINA RESULT:      -5.6      4.825      7.434
  Name = 
  11 active torsions:
  status: ('A' for Active; 'I' for Inactive)
    1  A    between atoms: C_2  and  C_12
    2  A    between atoms: O_5  and  C_38
    3  A    between atoms: C_8  and  O_24
    4  A    between atoms: C_8  and  C_36
    5  A    between atoms: C_10  and  C_39
    6  A    between atoms: O_16  and  C_36
    7  A    between atoms: O_16  and  C_42
    8  A    between atoms: C_18  and  C_29
    9  A    between atoms: O_24  and  C_44
   10  A    between atoms: N_25  and  C_26
   11  A    between atoms: C_35  and  C_40
                            x       y       z     vdW  Elec       q    Type
                         _______ _______ _______ _____ _____    ______ ____

>  <TORSDO>
F 11

$$$$
=
 OpenBabel11042418443D

 44 49  0  0  1  0  0  0  0  0999 V2000
  191.8500  175.9860  143.6370 C   0  0  1  0  0  0  0  0  0  0  0  0
  189.5610  174.5320  148.0770 N   0  0  0  0  0  0  0  0  0  0  0  0
  189.3320  173.9780  146.7450 C   0  0  0  0  0  3  0  0  0  0  0  0
  191.6270  177.5490  143.6690 C   0  0  1  0  0  3  0  0  0  0  0  0
  190.7220  175.7480  146.6830 C   0  0  0  0  0  0  0  0  0  0  0  0
  191.9770  178.2560  142.3640 C   0  0  0  0  0  1  0  0  0  0  0  0
  190.1470  174.8900  145.8970 C   0  0  0  0  0  0  0  0  0  0  0  0
  192.0480  176.1830  146.2010 C   0  0  0  0  0  2  0  0  0  0  0  0
  187.0830  175.6780  142.2000 C   0  0  0  0  0  3  0  0  0  0  0  0
  188.2900  175.0670  142.5600 C   0  0  0  0  0  3  0  0  0  0  0  0
  190.9900  174.5460  144.7190 C   0  0  2  0  0  3  0  0  0  0  0  0
  186.8900  177.0540  142.4090 C   0  0  0  0  0  0  0  0  0  0  0  0
  187.9140  177.8130  142.9950 C   0  0  0  0  0  3  0  0  0  0  0  0
  190.1970  177.9750  144.0740 C   0  0  0  0  0  2  0  0  0  0  0  0
  192.2640  175.3290  144.9330 C   0  0  1  0  0  3  0  0  0  0  0  0
  190.5520  175.2890  143.5140 N   0  0  0  0  0  0  0  0  0  0  0  0
  189.3040  175.8420  143.1230 C   0  0  0  0  0  0  0  0  0  0  0  0
  190.3640  175.5170  148.0320 N   0  0  0  0  0  2  0  0  0  0  0  0
  189.1250  177.2090  143.3390 C   0  0  0  0  0  0  0  0  0  0  0  0
  185.9600  177.8500  139.7340 O   0  0  0  0  0  0  0  0  0  0  0  0
  185.6650  177.7110  142.0570 N   0  0  0  0  0  2  0  0  0  0  0  0
  185.2350  178.0820  140.7370 C   0  0  0  0  0  0  0  0  0  0  0  0
  184.0050  178.7140  140.5500 O   0  0  0  0  0  0  0  0  0  0  0  0
  182.7760  177.9980  140.5130 C   0  0  0  0  0  2  0  0  0  0  0  0
  181.8310  178.5010  141.5920 C   0  0  0  0  0  2  0  0  0  0  0  0
  180.4860  178.3510  141.1620 O   0  0  0  0  0  0  0  0  0  0  0  0
  180.0890  180.5240  140.4820 O   0  0  0  0  0  0  0  0  0  0  0  0
  178.3090  179.3600  141.3320 O   0  0  0  0  0  1  0  0  0  0  0  0
  179.6480  179.4510  140.9750 C   0  0  0  0  0  0  0  0  0  0  0  0
  192.7720  175.5280  142.5300 C   0  0  0  0  0  3  0  0  0  0  0  0
  194.0190  175.1370  142.7690 C   0  0  0  0  0  3  0  0  0  0  0  0
  195.5650  174.3590  140.7760 C   0  0  0  0  0  0  0  0  0  0  0  0
  194.8580  174.7140  141.6860 C   0  0  0  0  0  0  0  0  0  0  0  0
  196.5230  174.9880  138.6720 N   0  0  0  0  0  0  0  0  0  0  0  0
  196.4250  173.9260  139.6700 C   0  0  2  0  0  3  0  0  0  0  0  0
  195.8940  172.7530  139.0880 O   0  0  0  0  0  0  0  0  0  0  0  0
  195.6440  173.0650  137.7440 C   0  0  1  0  0  3  0  0  0  0  0  0
  197.7820  175.7020  138.8700 C   0  0  0  0  0  1  0  0  0  0  0  0
  196.4750  174.2780  137.4030 C   0  0  2  0  0  3  0  0  0  0  0  0
  196.4820  170.7360  137.3510 O   0  0  0  0  0  1  0  0  0  0  0  0
  195.5540  171.9440  135.6400 O   0  0  0  0  0  0  0  0  0  0  0  0
  195.8770  171.8840  136.8540 C   0  0  0  0  0  0  0  0  0  0  0  0
  197.7570  173.8910  136.9720 O   0  0  0  0  0  0  0  0  0  0  0  0
  197.8660  174.3940  135.7600 O   0  0  0  0  0  1  0  0  0  0  0  0
  1 30  1  6  0  0  0
  1  4  1  0  0  0  0
  1 15  1  0  0  0  0
  3  2  2  0  0  0  0
  4  6  1  6  0  0  0
  4 14  1  0  0  0  0
  5 18  1  0  0  0  0
  7  5  2  0  0  0  0
  7  3  1  0  0  0  0
  8  5  1  0  0  0  0
  9 12  2  0  0  0  0
  9 10  1  0  0  0  0
 10 17  2  0  0  0  0
 11 15  1  0  0  0  0
 11  7  1  1  0  0  0
 12 13  1  0  0  0  0
 13 19  2  0  0  0  0
 15  8  1  1  0  0  0
 16  1  1  0  0  0  0
 16 11  1  0  0  0  0
 17 19  1  0  0  0  0
 17 16  1  0  0  0  0
 18  2  1  0  0  0  0
 19 14  1  0  0  0  0
 20 22  2  0  0  0  0
 21 12  1  0  0  0  0
 22 21  1  0  0  0  0
 23 22  1  0  0  0  0
 24 23  1  0  0  0  0
 24 25  1  0  0  0  0
 26 25  1  0  0  0  0
 27 29  2  0  0  0  0
 29 26  1  0  0  0  0
 29 28  1  0  0  0  0
 30 31  2  0  0  0  0
 32 33  3  0  0  0  0
 33 31  1  0  0  0  0
 34 38  1  0  0  0  0
 34 35  1  0  0  0  0
 35 32  1  1  0  0  0
 36 35  1  0  0  0  0
 37 42  1  6  0  0  0
 37 36  1  0  0  0  0
 39 43  1  1  0  0  0
 39 37  1  0  0  0  0
 39 34  1  0  0  0  0
 41 42  2  0  0  0  0
 42 40  1  0  0  0  0
 44 43  1  0  0  0  0
M  END
>  <MODEL>
8

>  <REMARK>
 VINA RESULT:      -5.6      3.635     10.917
  Name = 
  11 active torsions:
  status: ('A' for Active; 'I' for Inactive)
    1  A    between atoms: C_2  and  C_12
    2  A    between atoms: O_5  and  C_38
    3  A    between atoms: C_8  and  O_24
    4  A    between atoms: C_8  and  C_36
    5  A    between atoms: C_10  and  C_39
    6  A    between atoms: O_16  and  C_36
    7  A    between atoms: O_16  and  C_42
    8  A    between atoms: C_18  and  C_29
    9  A    between atoms: O_24  and  C_44
   10  A    between atoms: N_25  and  C_26
   11  A    between atoms: C_35  and  C_40
                            x       y       z     vdW  Elec       q    Type
                         _______ _______ _______ _____ _____    ______ ____

>  <TORSDO>
F 11

$$$$
=
 OpenBabel11042418443D

 44 49  0  0  1  0  0  0  0  0999 V2000
  195.5550  173.1560  143.5800 C   0  0  1  0  0  0  0  0  0  0  0  0
  195.2200  169.3130  147.0710 N   0  0  0  0  0  0  0  0  0  0  0  0
  194.2770  169.6120  145.9970 C   0  0  0  0  0  3  0  0  0  0  0  0
  195.7960  174.4060  144.5140 C   0  0  1  0  0  3  0  0  0  0  0  0
  195.9040  171.1620  146.1320 C   0  0  0  0  0  0  0  0  0  0  0  0
  195.6940  175.7490  143.7990 C   0  0  0  0  0  1  0  0  0  0  0  0
  194.8320  170.8830  145.4560 C   0  0  0  0  0  0  0  0  0  0  0  0
  196.9330  171.8580  145.3310 C   0  0  0  0  0  2  0  0  0  0  0  0
  190.7640  173.5000  144.9250 C   0  0  0  0  0  3  0  0  0  0  0  0
  191.7920  172.8510  144.2310 C   0  0  0  0  0  3  0  0  0  0  0  0
  194.9270  171.3160  144.0340 C   0  0  2  0  0  3  0  0  0  0  0  0
  191.0600  174.4970  145.8700 C   0  0  0  0  0  0  0  0  0  0  0  0
  192.3980  174.8310  146.1230 C   0  0  0  0  0  3  0  0  0  0  0  0
  194.8730  174.4540  145.7540 C   0  0  0  0  0  2  0  0  0  0  0  0
  196.3180  171.8950  143.9160 C   0  0  1  0  0  3  0  0  0  0  0  0
  194.2080  172.5940  143.8170 N   0  0  0  0  0  0  0  0  0  0  0  0
  193.1160  173.2120  144.4820 C   0  0  0  0  0  0  0  0  0  0  0  0
  196.1460  170.1830  147.1240 N   0  0  0  0  0  2  0  0  0  0  0  0
  193.4250  174.1980  145.4200 C   0  0  0  0  0  0  0  0  0  0  0  0
  188.7470  175.9730  144.8080 O   0  0  0  0  0  0  0  0  0  0  0  0
  190.0320  175.1780  146.6020 N   0  0  0  0  0  2  0  0  0  0  0  0
  188.9090  175.8870  146.0530 C   0  0  0  0  0  0  0  0  0  0  0  0
  187.9820  176.4980  146.8990 O   0  0  0  0  0  0  0  0  0  0  0  0
  186.6040  176.6160  146.5650 C   0  0  0  0  0  2  0  0  0  0  0  0
  186.2980  178.0110  146.0450 C   0  0  0  0  0  2  0  0  0  0  0  0
  185.9340  177.9440  144.6730 O   0  0  0  0  0  0  0  0  0  0  0  0
  184.0730  178.0590  143.3090 O   0  0  0  0  0  0  0  0  0  0  0  0
  184.4870  179.8640  144.6570 O   0  0  0  0  0  1  0  0  0  0  0  0
  184.8070  178.6000  144.1790 C   0  0  0  0  0  0  0  0  0  0  0  0
  195.7200  173.4590  142.1080 C   0  0  0  0  0  3  0  0  0  0  0  0
  194.6810  173.7160  141.3220 C   0  0  0  0  0  3  0  0  0  0  0  0
  195.0610  174.2310  138.7600 C   0  0  0  0  0  0  0  0  0  0  0  0
  194.8870  173.9950  139.9300 C   0  0  0  0  0  0  0  0  0  0  0  0
  196.3940  175.4400  137.1800 N   0  0  0  0  0  0  0  0  0  0  0  0
  195.2740  174.5170  137.3380 C   0  0  2  0  0  3  0  0  0  0  0  0
  194.0990  175.0710  136.7840 O   0  0  0  0  0  0  0  0  0  0  0  0
  194.4580  176.3340  136.2930 C   0  0  1  0  0  3  0  0  0  0  0  0
  197.5850  174.6760  136.8150 C   0  0  0  0  0  1  0  0  0  0  0  0
  195.9580  176.3380  136.1200 C   0  0  2  0  0  3  0  0  0  0  0  0
  193.7540  177.9630  134.5230 O   0  0  0  0  0  1  0  0  0  0  0  0
  192.9590  175.8150  134.5130 O   0  0  0  0  0  0  0  0  0  0  0  0
  193.6910  176.6810  135.0550 C   0  0  0  0  0  0  0  0  0  0  0  0
  196.3080  175.8530  134.8470 O   0  0  0  0  0  0  0  0  0  0  0  0
  197.4280  176.4790  134.5490 O   0  0  0  0  0  1  0  0  0  0  0  0
  1 30  1  6  0  0  0
  1 16  1  0  0  0  0
  1 15  1  0  0  0  0
  1  4  1  0  0  0  0
  2 18  1  0  0  0  0
  3  2  2  0  0  0  0
  4  6  1  6  0  0  0
  4 14  1  0  0  0  0
  5 18  1  0  0  0  0
  7  3  1  0  0  0  0
  7  5  2  0  0  0  0
  8  5  1  0  0  0  0
  9 12  1  0  0  0  0
 10 17  1  0  0  0  0
 10  9  2  0  0  0  0
 11  7  1  1  0  0  0
 12 13  2  0  0  0  0
 12 21  1  0  0  0  0
 15 11  1  0  0  0  0
 15  8  1  1  0  0  0
 16 11  1  0  0  0  0
 16 17  1  0  0  0  0
 17 19  2  0  0  0  0
 19 14  1  0  0  0  0
 19 13  1  0  0  0  0
 20 22  2  0  0  0  0
 22 21  1  0  0  0  0
 22 23  1  0  0  0  0
 24 23  1  0  0  0  0
 25 24  1  0  0  0  0
 26 25  1  0  0  0  0
 27 29  2  0  0  0  0
 29 28  1  0  0  0  0
 29 26  1  0  0  0  0
 31 30  2  0  0  0  0
 32 33  3  0  0  0  0
 33 31  1  0  0  0  0
 34 35  1  0  0  0  0
 35 32  1  1  0  0  0
 36 35  1  0  0  0  0
 37 42  1  6  0  0  0
 37 36  1  0  0  0  0
 38 34  1  0  0  0  0
 39 43  1  6  0  0  0
 39 37  1  0  0  0  0
 39 34  1  0  0  0  0
 40 42  1  0  0  0  0
 41 42  2  0  0  0  0
 44 43  1  0  0  0  0
M  END
>  <MODEL>
9

>  <REMARK>
 VINA RESULT:      -5.3      1.762      9.974
  Name = 
  11 active torsions:
  status: ('A' for Active; 'I' for Inactive)
    1  A    between atoms: C_2  and  C_12
    2  A    between atoms: O_5  and  C_38
    3  A    between atoms: C_8  and  O_24
    4  A    between atoms: C_8  and  C_36
    5  A    between atoms: C_10  and  C_39
    6  A    between atoms: O_16  and  C_36
    7  A    between atoms: O_16  and  C_42
    8  A    between atoms: C_18  and  C_29
    9  A    between atoms: O_24  and  C_44
   10  A    between atoms: N_25  and  C_26
   11  A    between atoms: C_35  and  C_40
                            x       y       z     vdW  Elec       q    Type
                         _______ _______ _______ _____ _____    ______ ____

>  <TORSDO>
F 11

$$$$
