=
 OpenBabel11042419143D

 46 49  0  0  1  0  0  0  0  0999 V2000
  183.8680  178.6110  140.0470 O   0  0  0  0  0  0  0  0  0  0  0  0
  183.0160  178.2030  140.8860 C   0  0  0  0  0  0  0  0  0  0  0  0
  185.6390  178.6400  142.1220 N   0  0  0  0  0  0  0  0  0  0  0  0
  184.6060  178.4050  142.8720 C   0  0  0  0  0  0  0  0  0  0  0  0
  183.3260  178.1520  142.2840 N   0  0  0  0  0  2  0  0  0  0  0  0
  186.0280  177.3890  148.6290 F   0  0  0  0  0  0  0  0  0  0  0  0
  184.7180  178.3020  144.3390 C   0  0  0  0  0  0  0  0  0  0  0  0
  187.3310  176.0670  145.4380 C   0  0  0  0  0  3  0  0  0  0  0  0
  183.9630  179.1330  145.3320 C   0  0  0  0  0  2  0  0  0  0  0  0
  186.5130  176.7140  144.5580 N   0  0  0  0  0  0  0  0  0  0  0  0
  186.2540  177.2060  147.3030 C   0  0  0  0  0  0  0  0  0  0  0  0
  187.2280  176.2930  146.8260 C   0  0  0  0  0  0  0  0  0  0  0  0
  185.5800  177.5770  145.0320 C   0  0  0  0  0  0  0  0  0  0  0  0
  184.5350  178.7190  146.6180 N   0  0  0  0  0  0  0  0  0  0  0  0
  185.4470  177.8450  146.3640 C   0  0  0  0  0  0  0  0  0  0  0  0
  188.0630  175.5560  147.6760 O   0  0  0  0  0  0  0  0  0  0  0  0
  189.2600  174.9390  147.3020 C   0  0  0  0  0  0  0  0  0  0  0  0
  190.3650  175.5300  147.4140 O   0  0  0  0  0  0  0  0  0  0  0  0
  189.2210  173.7090  146.7280 F   0  0  0  0  0  0  0  0  0  0  0  0
  188.0490  178.1450  141.9990 C   0  0  0  0  0  0  0  0  0  0  0  0
  187.9100  177.5940  140.8760 O   0  0  0  0  0  0  0  0  0  0  0  0
  186.9370  178.7700  142.6350 N   0  0  0  0  0  2  0  0  0  0  0  0
  189.3600  178.0820  142.6970 C   0  0  0  0  0  2  0  0  0  0  0  0
  190.0000  176.8090  142.3980 N   0  0  0  0  0  2  0  0  0  0  0  0
  190.0430  176.0880  143.5720 O   0  0  0  0  0  0  0  0  0  0  0  0
  191.2490  175.6050  144.0840 C   0  0  0  0  0  0  0  0  0  0  0  0
  192.1560  176.4030  144.4410 O   0  0  0  0  0  0  0  0  0  0  0  0
  192.1300  172.4710  142.5320 C   0  0  0  0  0  2  0  0  0  0  0  0
  191.4850  174.1320  144.1850 C   0  0  2  0  0  3  0  0  0  0  0  0
  192.6150  173.7070  143.2630 C   0  0  1  0  0  3  0  0  0  0  0  0
  190.2530  173.3430  143.7670 C   0  0  0  0  0  2  0  0  0  0  0  0
  190.6110  172.5710  142.5020 C   0  0  1  0  0  3  0  0  0  0  0  0
  188.6440  173.2610  140.9890 C   0  0  1  0  0  3  0  0  0  0  0  0
  189.8550  173.5190  138.5650 S   0  0  0  0  0  0  0  0  0  0  0  0
  187.9140  174.0510  141.9630 N   0  0  0  0  0  1  0  0  0  0  0  0
  190.8200  171.3270  139.8340 C   0  0  0  0  0  1  0  0  0  0  0  0
  188.4050  173.8440  139.6150 C   0  0  0  0  0  2  0  0  0  0  0  0
  190.1430  173.3290  141.2400 C   0  0  2  0  0  3  0  0  0  0  0  0
  190.8100  172.8490  139.9530 C   0  0  2  0  0  3  0  0  0  0  0  0
  193.7000  173.1760  145.5060 C   0  0  0  0  0  1  0  0  0  0  0  0
  193.9190  173.4510  144.0190 C   0  0  0  0  0  2  0  0  0  0  0  0
  181.6770  177.7460  140.4130 C   0  0  0  0  0  2  0  0  0  0  0  0
  180.6000  178.5750  141.0170 C   0  0  0  0  0  0  0  0  0  0  0  0
  179.6120  177.9620  141.8370 N   0  0  0  0  0  2  0  0  0  0  0  0
  178.5940  178.7380  142.5120 C   0  0  0  0  0  1  0  0  0  0  0  0
  180.6050  179.8210  140.8440 O   0  0  0  0  0  0  0  0  0  0  0  0
  1  2  2  0  0  0  0
  2  5  1  0  0  0  0
  3 22  1  0  0  0  0
  3  4  2  0  0  0  0
  4  7  1  0  0  0  0
  5  4  1  0  0  0  0
  7 13  2  0  0  0  0
  7  9  1  0  0  0  0
  8 12  1  0  0  0  0
  9 14  1  0  0  0  0
 10 13  1  0  0  0  0
 10  8  2  0  0  0  0
 11  6  1  0  0  0  0
 12 11  2  0  0  0  0
 12 16  1  0  0  0  0
 13 15  1  0  0  0  0
 15 14  2  0  0  0  0
 15 11  1  0  0  0  0
 17 18  2  0  0  0  0
 17 16  1  0  0  0  0
 19 17  1  0  0  0  0
 20 22  1  0  0  0  0
 20 23  1  0  0  0  0
 21 20  2  0  0  0  0
 24 23  1  0  0  0  0
 24 25  1  0  0  0  0
 25 26  1  0  0  0  0
 26 27  2  0  0  0  0
 28 30  1  0  0  0  0
 29 26  1  6  0  0  0
 30 41  1  1  0  0  0
 30 29  1  0  0  0  0
 31 29  1  0  0  0  0
 32 28  1  6  0  0  0
 32 31  1  0  0  0  0
 33 38  1  0  0  0  0
 33 35  1  1  0  0  0
 34 37  1  0  0  0  0
 34 39  1  0  0  0  0
 37 33  1  0  0  0  0
 38 32  1  1  0  0  0
 39 36  1  1  0  0  0
 39 38  1  0  0  0  0
 41 40  1  0  0  0  0
 42  2  1  0  0  0  0
 42 43  1  0  0  0  0
 43 44  1  0  0  0  0
 44 45  1  0  0  0  0
 46 43  2  0  0  0  0
M  END
>  <MODEL>
1

>  <REMARK>
 VINA RESULT:      -7.8      0.000      0.000
  Name = 
  13 active torsions:
  status: ('A' for Active; 'I' for Inactive)
    1  A    between atoms: C_2  and  C_28
    2  A    between atoms: C_2  and  O_34
    3  A    between atoms: O_3  and  C_5
    4  A    between atoms: O_3  and  C_38
    5  A    between atoms: C_7  and  C_11
    6  A    between atoms: C_7  and  N_43
    7  A    between atoms: C_10  and  C_27
    8  A    between atoms: C_12  and  C_36
    9  A    between atoms: C_13  and  C_36
   10  A    between atoms: N_17  and  N_42
   11  A    between atoms: C_25  and  C_33
   12  A    between atoms: C_30  and  C_35
   13  A    between atoms: O_34  and  N_43
                            x       y       z     vdW  Elec       q    Type
                         _______ _______ _______ _____ _____    ______ ____

>  <TORSDO>
F 13

$$$$
=
 OpenBabel11042419143D

 46 49  0  0  1  0  0  0  0  0999 V2000
  186.3080  177.0980  141.2200 O   0  0  0  0  0  0  0  0  0  0  0  0
  186.6500  177.9150  142.1200 C   0  0  0  0  0  0  0  0  0  0  0  0
  188.5800  175.7250  141.8500 N   0  0  0  0  0  0  0  0  0  0  0  0
  188.8700  176.7500  142.5920 C   0  0  0  0  0  0  0  0  0  0  0  0
  187.9230  177.8100  142.7660 N   0  0  0  0  0  2  0  0  0  0  0  0
  193.3550  176.8360  146.6010 F   0  0  0  0  0  0  0  0  0  0  0  0
  190.1330  176.8280  143.3510 C   0  0  0  0  0  0  0  0  0  0  0  0
  189.6790  176.7460  146.9300 C   0  0  0  0  0  3  0  0  0  0  0  0
  191.5090  176.7870  142.7590 C   0  0  0  0  0  3  0  0  0  0  0  0
  189.3190  176.7820  145.6150 N   0  0  0  0  0  0  0  0  0  0  0  0
  192.0340  176.7450  146.3040 C   0  0  0  0  0  0  0  0  0  0  0  0
  191.0370  176.7260  147.3120 C   0  0  0  0  0  0  0  0  0  0  0  0
  190.2860  176.8100  144.6640 C   0  0  1  0  0  3  0  0  0  0  0  0
  192.3790  176.7700  143.9390 N   0  0  0  0  0  0  0  0  0  0  0  0
  191.6150  176.7760  144.9750 C   0  0  0  0  0  0  0  0  0  0  0  0
  191.3360  176.7430  148.6800 O   0  0  0  0  0  0  0  0  0  0  0  0
  191.2680  177.8640  149.5120 C   0  0  0  0  0  0  0  0  0  0  0  0
  191.7620  177.8520  150.6700 O   0  0  0  0  0  0  0  0  0  0  0  0
  190.5830  178.9590  149.0950 F   0  0  0  0  0  0  0  0  0  0  0  0
  189.1700  173.5910  140.7720 C   0  0  0  0  0  0  0  0  0  0  0  0
  188.2940  173.7610  139.8850 O   0  0  0  0  0  0  0  0  0  0  0  0
  189.4140  174.6030  141.7450 N   0  0  0  0  0  2  0  0  0  0  0  0
  189.9040  172.3000  140.8480 C   0  0  0  0  0  2  0  0  0  0  0  0
  191.2910  172.5150  140.4590 N   0  0  0  0  0  2  0  0  0  0  0  0
  192.0410  172.5440  141.6150 O   0  0  0  0  0  0  0  0  0  0  0  0
  192.1700  171.4150  142.4250 C   0  0  0  0  0  0  0  0  0  0  0  0
  192.2870  170.2700  141.9120 O   0  0  0  0  0  0  0  0  0  0  0  0
  192.8690  173.3350  145.3960 C   0  0  0  0  0  2  0  0  0  0  0  0
  192.1410  171.5520  143.9140 C   0  0  2  0  0  3  0  0  0  0  0  0
  191.8670  172.9910  144.3130 C   0  0  1  0  0  3  0  0  0  0  0  0
  193.4790  171.1700  144.5310 C   0  0  0  0  0  2  0  0  0  0  0  0
  194.0680  172.4280  145.1610 C   0  0  1  0  0  3  0  0  0  0  0  0
  196.3910  172.3480  144.0500 C   0  0  1  0  0  3  0  0  0  0  0  0
  196.9300  174.9900  143.6740 S   0  0  0  0  0  0  0  0  0  0  0  0
  196.2050  171.1260  143.2910 N   0  0  0  0  0  1  0  0  0  0  0  0
  195.7850  174.6350  146.1030 C   0  0  0  0  0  1  0  0  0  0  0  0
  197.3270  173.2570  143.2870 C   0  0  0  0  0  2  0  0  0  0  0  0
  195.0790  173.1020  144.2070 C   0  0  2  0  0  3  0  0  0  0  0  0
  195.4540  174.5250  144.6180 C   0  0  2  0  0  3  0  0  0  0  0  0
  189.6110  171.9080  144.7910 C   0  0  0  0  0  1  0  0  0  0  0  0
  190.4250  173.2010  144.7780 C   0  0  0  0  0  2  0  0  0  0  0  0
  185.7020  178.9910  142.5340 C   0  0  0  0  0  2  0  0  0  0  0  0
  185.4910  178.9610  144.0060 C   0  0  0  0  0  0  0  0  0  0  0  0
  184.9530  177.7950  144.6190 N   0  0  0  0  0  2  0  0  0  0  0  0
  184.8070  177.6880  146.0540 C   0  0  0  0  0  1  0  0  0  0  0  0
  185.8410  179.9470  144.7040 O   0  0  0  0  0  0  0  0  0  0  0  0
  1  2  2  0  0  0  0
  2 42  1  0  0  0  0
  2  5  1  0  0  0  0
  3  4  2  0  0  0  0
  4  5  1  0  0  0  0
  4  7  1  0  0  0  0
  8 12  1  0  0  0  0
  9  7  2  0  0  0  0
  9 14  1  0  0  0  0
 10  8  2  0  0  0  0
 11  6  1  0  0  0  0
 11 12  2  0  0  0  0
 12 16  1  0  0  0  0
 13  7  1  6  0  0  0
 13 15  1  0  0  0  0
 13 10  1  0  0  0  0
 14 15  2  0  0  0  0
 15 11  1  0  0  0  0
 16 17  1  0  0  0  0
 17 18  2  0  0  0  0
 19 17  1  0  0  0  0
 20 23  1  0  0  0  0
 20 22  1  0  0  0  0
 21 20  2  0  0  0  0
 22  3  1  0  0  0  0
 24 23  1  0  0  0  0
 24 25  1  0  0  0  0
 25 26  1  0  0  0  0
 27 26  2  0  0  0  0
 29 26  1  6  0  0  0
 29 30  1  0  0  0  0
 29 31  1  0  0  0  0
 30 41  1  1  0  0  0
 30 28  1  0  0  0  0
 32 31  1  6  0  0  0
 32 28  1  0  0  0  0
 33 35  1  6  0  0  0
 33 38  1  0  0  0  0
 34 39  1  0  0  0  0
 37 34  1  0  0  0  0
 37 33  1  0  0  0  0
 38 39  1  0  0  0  0
 38 32  1  1  0  0  0
 39 36  1  1  0  0  0
 41 40  1  0  0  0  0
 42 43  1  0  0  0  0
 43 44  1  0  0  0  0
 43 46  2  0  0  0  0
 44 45  1  0  0  0  0
M  END
>  <MODEL>
2

>  <REMARK>
 VINA RESULT:      -7.6      3.211      5.686
  Name = 
  13 active torsions:
  status: ('A' for Active; 'I' for Inactive)
    1  A    between atoms: C_2  and  C_28
    2  A    between atoms: C_2  and  O_34
    3  A    between atoms: O_3  and  C_5
    4  A    between atoms: O_3  and  C_38
    5  A    between atoms: C_7  and  C_11
    6  A    between atoms: C_7  and  N_43
    7  A    between atoms: C_10  and  C_27
    8  A    between atoms: C_12  and  C_36
    9  A    between atoms: C_13  and  C_36
   10  A    between atoms: N_17  and  N_42
   11  A    between atoms: C_25  and  C_33
   12  A    between atoms: C_30  and  C_35
   13  A    between atoms: O_34  and  N_43
                            x       y       z     vdW  Elec       q    Type
                         _______ _______ _______ _____ _____    ______ ____

>  <TORSDO>
F 13

$$$$
=
 OpenBabel11042419143D

 46 49  0  0  1  0  0  0  0  0999 V2000
  192.4610  172.8970  136.8420 O   0  0  0  0  0  0  0  0  0  0  0  0
  193.5670  172.8260  137.4470 C   0  0  0  0  0  0  0  0  0  0  0  0
  191.3370  173.2570  139.3010 N   0  0  0  0  0  0  0  0  0  0  0  0
  192.5150  172.9710  139.7670 C   0  0  0  0  0  0  0  0  0  0  0  0
  193.6230  172.7950  138.8780 N   0  0  0  0  0  2  0  0  0  0  0  0
  193.3500  173.8180  145.6640 F   0  0  0  0  0  0  0  0  0  0  0  0
  192.7810  172.9020  141.2160 C   0  0  0  0  0  0  0  0  0  0  0  0
  192.8620  176.1300  142.8280 C   0  0  0  0  0  3  0  0  0  0  0  0
  192.8610  171.6450  142.0290 C   0  0  0  0  0  3  0  0  0  0  0  0
  192.7780  175.2370  141.8010 N   0  0  0  0  0  0  0  0  0  0  0  0
  193.0920  174.3030  144.4230 C   0  0  0  0  0  0  0  0  0  0  0  0
  193.0200  175.6940  144.1600 C   0  0  0  0  0  0  0  0  0  0  0  0
  192.8590  173.9090  142.0690 C   0  0  1  0  0  3  0  0  0  0  0  0
  193.0140  172.1440  143.4000 N   0  0  0  0  0  0  0  0  0  0  0  0
  192.9950  173.4300  143.3400 C   0  0  0  0  0  0  0  0  0  0  0  0
  193.1520  176.6670  145.1590 O   0  0  0  0  0  0  0  0  0  0  0  0
  194.3220  176.9450  145.8710 C   0  0  0  0  0  0  0  0  0  0  0  0
  194.9620  178.0130  145.6900 O   0  0  0  0  0  0  0  0  0  0  0  0
  194.8240  176.0070  146.7150 F   0  0  0  0  0  0  0  0  0  0  0  0
  188.9870  173.9410  139.5770 C   0  0  0  0  0  0  0  0  0  0  0  0
  188.7840  173.8580  138.3380 O   0  0  0  0  0  0  0  0  0  0  0  0
  190.2460  173.5620  140.1270 N   0  0  0  0  0  2  0  0  0  0  0  0
  187.9340  174.5050  140.4630 C   0  0  0  0  0  2  0  0  0  0  0  0
  187.9490  173.7950  141.7340 N   0  0  0  0  0  2  0  0  0  0  0  0
  188.1830  174.7280  142.7210 O   0  0  0  0  0  0  0  0  0  0  0  0
  189.1520  174.5180  143.7040 C   0  0  0  0  0  0  0  0  0  0  0  0
  189.7500  173.4120  143.7840 O   0  0  0  0  0  0  0  0  0  0  0  0
  188.0430  177.0270  146.0450 C   0  0  0  0  0  2  0  0  0  0  0  0
  189.4670  175.5960  144.6900 C   0  0  2  0  0  3  0  0  0  0  0  0
  188.4640  175.5870  145.8310 C   0  0  1  0  0  3  0  0  0  0  0  0
  189.3920  176.9740  144.0480 C   0  0  0  0  0  2  0  0  0  0  0  0
  188.2380  177.7230  144.7050 C   0  0  1  0  0  3  0  0  0  0  0  0
  186.9690  178.4840  142.5960 C   0  0  1  0  0  3  0  0  0  0  0  0
  184.3730  178.2430  143.3780 S   0  0  0  0  0  0  0  0  0  0  0  0
  187.8930  177.9570  141.6090 N   0  0  0  0  0  1  0  0  0  0  0  0
  185.8380  179.2910  145.4030 C   0  0  0  0  0  1  0  0  0  0  0  0
  185.5710  178.4430  142.0230 C   0  0  0  0  0  2  0  0  0  0  0  0
  186.9550  177.6230  143.8500 C   0  0  2  0  0  3  0  0  0  0  0  0
  185.6830  177.9970  144.6080 C   0  0  2  0  0  3  0  0  0  0  0  0
  190.4710  175.4020  147.3890 C   0  0  0  0  0  1  0  0  0  0  0  0
  189.0360  174.9620  147.1040 C   0  0  0  0  0  2  0  0  0  0  0  0
  194.8360  172.7970  136.6620 C   0  0  0  0  0  2  0  0  0  0  0  0
  195.9600  173.3430  137.4680 C   0  0  0  0  0  0  0  0  0  0  0  0
  196.1090  174.7510  137.6120 N   0  0  0  0  0  2  0  0  0  0  0  0
  197.1360  175.3260  138.4530 C   0  0  0  0  0  1  0  0  0  0  0  0
  196.7380  172.5530  138.0640 O   0  0  0  0  0  0  0  0  0  0  0  0
  1  2  2  0  0  0  0
  2  5  1  0  0  0  0
  3  4  2  0  0  0  0
  3 22  1  0  0  0  0
  4  7  1  0  0  0  0
  5  4  1  0  0  0  0
  7  9  2  0  0  0  0
  8 12  1  0  0  0  0
  9 14  1  0  0  0  0
 10 13  1  0  0  0  0
 10  8  2  0  0  0  0
 11  6  1  0  0  0  0
 12 11  2  0  0  0  0
 12 16  1  0  0  0  0
 13  7  1  1  0  0  0
 13 15  1  0  0  0  0
 15 14  2  0  0  0  0
 15 11  1  0  0  0  0
 16 17  1  0  0  0  0
 17 19  1  0  0  0  0
 18 17  2  0  0  0  0
 20 22  1  0  0  0  0
 20 23  1  0  0  0  0
 21 20  2  0  0  0  0
 23 24  1  0  0  0  0
 24 25  1  0  0  0  0
 25 26  1  0  0  0  0
 26 27  2  0  0  0  0
 29 26  1  6  0  0  0
 29 30  1  0  0  0  0
 30 28  1  0  0  0  0
 30 41  1  1  0  0  0
 31 29  1  0  0  0  0
 32 31  1  6  0  0  0
 32 28  1  0  0  0  0
 33 35  1  6  0  0  0
 33 38  1  0  0  0  0
 34 39  1  0  0  0  0
 37 33  1  0  0  0  0
 37 34  1  0  0  0  0
 38 39  1  0  0  0  0
 38 32  1  1  0  0  0
 39 36  1  6  0  0  0
 41 40  1  0  0  0  0
 42  2  1  0  0  0  0
 42 43  1  0  0  0  0
 43 44  1  0  0  0  0
 43 46  2  0  0  0  0
 44 45  1  0  0  0  0
M  END
>  <MODEL>
3

>  <REMARK>
 VINA RESULT:      -7.3      3.830      9.003
  Name = 
  13 active torsions:
  status: ('A' for Active; 'I' for Inactive)
    1  A    between atoms: C_2  and  C_28
    2  A    between atoms: C_2  and  O_34
    3  A    between atoms: O_3  and  C_5
    4  A    between atoms: O_3  and  C_38
    5  A    between atoms: C_7  and  C_11
    6  A    between atoms: C_7  and  N_43
    7  A    between atoms: C_10  and  C_27
    8  A    between atoms: C_12  and  C_36
    9  A    between atoms: C_13  and  C_36
   10  A    between atoms: N_17  and  N_42
   11  A    between atoms: C_25  and  C_33
   12  A    between atoms: C_30  and  C_35
   13  A    between atoms: O_34  and  N_43
                            x       y       z     vdW  Elec       q    Type
                         _______ _______ _______ _____ _____    ______ ____

>  <TORSDO>
F 13

$$$$
=
 OpenBabel11042419143D

 46 49  0  0  1  0  0  0  0  0999 V2000
  191.3400  174.3800  136.5990 O   0  0  0  0  0  0  0  0  0  0  0  0
  192.5670  174.5260  136.8600 C   0  0  0  0  0  0  0  0  0  0  0  0
  191.0550  173.6180  139.2020 N   0  0  0  0  0  0  0  0  0  0  0  0
  192.3530  173.6350  139.2410 C   0  0  0  0  0  0  0  0  0  0  0  0
  193.1050  174.1120  138.1200 N   0  0  0  0  0  2  0  0  0  0  0  0
  195.2940  173.2000  144.4710 F   0  0  0  0  0  0  0  0  0  0  0  0
  193.0990  173.2550  140.4560 C   0  0  0  0  0  0  0  0  0  0  0  0
  194.1300  176.0710  142.4640 C   0  0  0  0  0  3  0  0  0  0  0  0
  193.3060  171.8550  140.9490 C   0  0  0  0  0  3  0  0  0  0  0  0
  193.5840  175.4150  141.4000 N   0  0  0  0  0  0  0  0  0  0  0  0
  194.6800  173.9440  143.5170 C   0  0  0  0  0  0  0  0  0  0  0  0
  194.6890  175.3610  143.5460 C   0  0  0  0  0  0  0  0  0  0  0  0
  193.5920  174.0580  141.3830 C   0  0  1  0  0  3  0  0  0  0  0  0
  193.9880  172.0510  142.2330 N   0  0  0  0  0  0  0  0  0  0  0  0
  194.1050  173.3210  142.4100 C   0  0  0  0  0  0  0  0  0  0  0  0
  195.2800  176.0980  144.5810 O   0  0  0  0  0  0  0  0  0  0  0  0
  194.6900  176.3780  145.8170 C   0  0  0  0  0  0  0  0  0  0  0  0
  194.7070  177.5390  146.3040 O   0  0  0  0  0  0  0  0  0  0  0  0
  194.1620  175.3610  146.5460 F   0  0  0  0  0  0  0  0  0  0  0  0
  188.8530  173.4680  140.2960 C   0  0  0  0  0  0  0  0  0  0  0  0
  188.2670  173.7910  139.2300 O   0  0  0  0  0  0  0  0  0  0  0  0
  190.2660  173.2810  140.3110 N   0  0  0  0  0  2  0  0  0  0  0  0
  188.0790  173.3490  141.5590 C   0  0  0  0  0  2  0  0  0  0  0  0
  189.0010  173.3270  142.6850 N   0  0  0  0  0  2  0  0  0  0  0  0
  188.9000  174.5460  143.3200 O   0  0  0  0  0  0  0  0  0  0  0  0
  189.9910  175.1130  143.9820 C   0  0  0  0  0  0  0  0  0  0  0  0
  191.1670  174.8090  143.6490 O   0  0  0  0  0  0  0  0  0  0  0  0
  187.7450  176.8790  146.1820 C   0  0  0  0  0  2  0  0  0  0  0  0
  189.7710  176.0660  145.1120 C   0  0  2  0  0  3  0  0  0  0  0  0
  188.5800  175.6360  145.9500 C   0  0  1  0  0  3  0  0  0  0  0  0
  189.4690  177.4680  144.6040 C   0  0  0  0  0  2  0  0  0  0  0  0
  188.0370  177.8040  145.0080 C   0  0  1  0  0  3  0  0  0  0  0  0
  187.3790  178.2850  142.5650 C   0  0  1  0  0  3  0  0  0  0  0  0
  184.6840  177.9060  142.6190 S   0  0  0  0  0  0  0  0  0  0  0  0
  188.5700  177.7520  141.9310 N   0  0  0  0  0  1  0  0  0  0  0  0
  185.4590  179.2300  144.8520 C   0  0  0  0  0  1  0  0  0  0  0  0
  186.2030  178.0870  141.6350 C   0  0  0  0  0  2  0  0  0  0  0  0
  187.0550  177.5320  143.8470 C   0  0  2  0  0  3  0  0  0  0  0  0
  185.6030  177.8670  144.1810 C   0  0  2  0  0  3  0  0  0  0  0  0
  190.4480  175.2820  147.6460 C   0  0  0  0  0  1  0  0  0  0  0  0
  189.0010  174.9750  147.2630 C   0  0  0  0  0  2  0  0  0  0  0  0
  193.4640  175.1600  135.8500 C   0  0  0  0  0  2  0  0  0  0  0  0
  194.6440  174.2940  135.5840 C   0  0  0  0  0  0  0  0  0  0  0  0
  195.9530  174.7830  135.8510 N   0  0  0  0  0  2  0  0  0  0  0  0
  197.1250  173.9500  135.6860 C   0  0  0  0  0  1  0  0  0  0  0  0
  194.4700  173.1160  135.1790 O   0  0  0  0  0  0  0  0  0  0  0  0
  1  2  2  0  0  0  0
  2  5  1  0  0  0  0
  3  4  2  0  0  0  0
  3 22  1  0  0  0  0
  4  7  1  0  0  0  0
  5  4  1  0  0  0  0
  7  9  2  0  0  0  0
  8 12  1  0  0  0  0
  9 14  1  0  0  0  0
 10  8  2  0  0  0  0
 11 12  2  0  0  0  0
 11  6  1  0  0  0  0
 12 16  1  0  0  0  0
 13  7  1  1  0  0  0
 13 10  1  0  0  0  0
 13 15  1  0  0  0  0
 14 15  2  0  0  0  0
 15 11  1  0  0  0  0
 16 17  1  0  0  0  0
 17 18  2  0  0  0  0
 17 19  1  0  0  0  0
 20 22  1  0  0  0  0
 20 23  1  0  0  0  0
 21 20  2  0  0  0  0
 23 24  1  0  0  0  0
 24 25  1  0  0  0  0
 25 26  1  0  0  0  0
 27 26  2  0  0  0  0
 29 26  1  6  0  0  0
 29 30  1  0  0  0  0
 30 28  1  0  0  0  0
 30 41  1  1  0  0  0
 31 29  1  0  0  0  0
 32 31  1  6  0  0  0
 32 28  1  0  0  0  0
 33 35  1  6  0  0  0
 33 38  1  0  0  0  0
 34 39  1  0  0  0  0
 37 33  1  0  0  0  0
 37 34  1  0  0  0  0
 38 39  1  0  0  0  0
 38 32  1  1  0  0  0
 39 36  1  6  0  0  0
 41 40  1  0  0  0  0
 42  2  1  0  0  0  0
 43 42  1  0  0  0  0
 43 44  1  0  0  0  0
 45 44  1  0  0  0  0
 46 43  2  0  0  0  0
M  END
>  <MODEL>
4

>  <REMARK>
 VINA RESULT:      -7.3      3.989      9.049
  Name = 
  13 active torsions:
  status: ('A' for Active; 'I' for Inactive)
    1  A    between atoms: C_2  and  C_28
    2  A    between atoms: C_2  and  O_34
    3  A    between atoms: O_3  and  C_5
    4  A    between atoms: O_3  and  C_38
    5  A    between atoms: C_7  and  C_11
    6  A    between atoms: C_7  and  N_43
    7  A    between atoms: C_10  and  C_27
    8  A    between atoms: C_12  and  C_36
    9  A    between atoms: C_13  and  C_36
   10  A    between atoms: N_17  and  N_42
   11  A    between atoms: C_25  and  C_33
   12  A    between atoms: C_30  and  C_35
   13  A    between atoms: O_34  and  N_43
                            x       y       z     vdW  Elec       q    Type
                         _______ _______ _______ _____ _____    ______ ____

>  <TORSDO>
F 13

$$$$
=
 OpenBabel11042419143D

 46 49  0  0  1  0  0  0  0  0999 V2000
  196.3600  176.2220  144.2120 O   0  0  0  0  0  0  0  0  0  0  0  0
  196.2690  174.9620  144.2030 C   0  0  0  0  0  0  0  0  0  0  0  0
  193.6410  176.2410  144.4310 N   0  0  0  0  0  0  0  0  0  0  0  0
  193.7170  174.9620  144.2160 C   0  0  0  0  0  0  0  0  0  0  0  0
  194.9930  174.3160  144.1410 N   0  0  0  0  0  2  0  0  0  0  0  0
  188.9470  171.6140  142.7260 F   0  0  0  0  0  0  0  0  0  0  0  0
  192.5130  174.1150  144.1310 C   0  0  0  0  0  0  0  0  0  0  0  0
  191.1930  173.8100  140.7860 C   0  0  0  0  0  3  0  0  0  0  0  0
  191.9350  173.3060  145.2520 C   0  0  0  0  0  2  0  0  0  0  0  0
  192.0100  174.2580  141.7820 N   0  0  0  0  0  0  0  0  0  0  0  0
  189.9830  172.4200  142.3800 C   0  0  0  0  0  0  0  0  0  0  0  0
  190.1630  172.8840  141.0530 C   0  0  0  0  0  0  0  0  0  0  0  0
  191.8180  173.8110  143.0480 C   0  0  0  0  0  0  0  0  0  0  0  0
  190.8440  172.5710  144.6040 N   0  0  0  0  0  0  0  0  0  0  0  0
  190.8470  172.9040  143.3600 C   0  0  0  0  0  0  0  0  0  0  0  0
  189.3270  172.5070  139.9930 O   0  0  0  0  0  0  0  0  0  0  0  0
  188.4830  173.3630  139.2810 C   0  0  0  0  0  0  0  0  0  0  0  0
  188.2120  174.5170  139.7020 O   0  0  0  0  0  0  0  0  0  0  0  0
  187.8760  172.9090  138.1540 F   0  0  0  0  0  0  0  0  0  0  0  0
  191.8260  177.6910  143.6100 C   0  0  0  0  0  0  0  0  0  0  0  0
  192.3010  177.6780  142.4440 O   0  0  0  0  0  0  0  0  0  0  0  0
  192.4240  176.9040  144.6380 N   0  0  0  0  0  2  0  0  0  0  0  0
  190.6830  178.5840  143.9330 C   0  0  0  0  0  2  0  0  0  0  0  0
  189.5830  177.7830  144.4520 N   0  0  0  0  0  2  0  0  0  0  0  0
  189.1630  176.9560  143.4340 O   0  0  0  0  0  0  0  0  0  0  0  0
  188.3290  177.4220  142.4160 C   0  0  0  0  0  0  0  0  0  0  0  0
  188.7600  178.2430  141.5630 O   0  0  0  0  0  0  0  0  0  0  0  0
  184.8610  177.8920  143.2880 C   0  0  0  0  0  2  0  0  0  0  0  0
  186.9050  176.9710  142.3460 C   0  0  2  0  0  3  0  0  0  0  0  0
  185.9680  178.1660  142.2900 C   0  0  1  0  0  3  0  0  0  0  0  0
  186.5180  176.1650  143.5780 C   0  0  0  0  0  2  0  0  0  0  0  0
  185.4620  176.9630  144.3340 C   0  0  1  0  0  3  0  0  0  0  0  0
  186.3590  176.9800  146.7490 C   0  0  1  0  0  3  0  0  0  0  0  0
  185.9240  179.5600  147.4980 S   0  0  0  0  0  0  0  0  0  0  0  0
  187.4480  176.0390  146.5610 N   0  0  0  0  0  1  0  0  0  0  0  0
  183.7950  178.6530  146.0880 C   0  0  0  0  0  1  0  0  0  0  0  0
  186.7560  177.9740  147.8160 C   0  0  0  0  0  2  0  0  0  0  0  0
  186.1000  177.7790  145.4800 C   0  0  2  0  0  3  0  0  0  0  0  0
  185.2720  178.9910  145.9050 C   0  0  2  0  0  3  0  0  0  0  0  0
  183.9020  178.2940  140.8050 C   0  0  0  0  0  1  0  0  0  0  0  0
  185.4240  178.4130  140.8830 C   0  0  0  0  0  2  0  0  0  0  0  0
  197.5080  174.1350  144.2840 C   0  0  0  0  0  2  0  0  0  0  0  0
  197.2850  172.9450  145.1490 C   0  0  0  0  0  0  0  0  0  0  0  0
  197.3080  171.6420  144.5780 N   0  0  0  0  0  2  0  0  0  0  0  0
  197.1790  170.4520  145.3910 C   0  0  0  0  0  1  0  0  0  0  0  0
  197.1350  173.0980  146.3880 O   0  0  0  0  0  0  0  0  0  0  0  0
  2  1  2  0  0  0  0
  2 42  1  0  0  0  0
  3 22  1  0  0  0  0
  4  3  2  0  0  0  0
  5  2  1  0  0  0  0
  5  4  1  0  0  0  0
  7  4  1  0  0  0  0
  7  9  1  0  0  0  0
  8 12  1  0  0  0  0
  8 10  2  0  0  0  0
 10 13  1  0  0  0  0
 11  6  1  0  0  0  0
 11 15  1  0  0  0  0
 12 11  2  0  0  0  0
 13 15  1  0  0  0  0
 13  7  2  0  0  0  0
 14  9  1  0  0  0  0
 15 14  2  0  0  0  0
 16 12  1  0  0  0  0
 17 18  2  0  0  0  0
 17 16  1  0  0  0  0
 19 17  1  0  0  0  0
 20 23  1  0  0  0  0
 20 22  1  0  0  0  0
 21 20  2  0  0  0  0
 23 24  1  0  0  0  0
 25 24  1  0  0  0  0
 26 25  1  0  0  0  0
 27 26  2  0  0  0  0
 29 26  1  1  0  0  0
 29 31  1  0  0  0  0
 30 41  1  6  0  0  0
 30 29  1  0  0  0  0
 30 28  1  0  0  0  0
 31 32  1  0  0  0  0
 32 28  1  6  0  0  0
 33 35  1  6  0  0  0
 33 37  1  0  0  0  0
 34 37  1  0  0  0  0
 38 32  1  6  0  0  0
 38 39  1  0  0  0  0
 38 33  1  0  0  0  0
 39 36  1  1  0  0  0
 39 34  1  0  0  0  0
 40 41  1  0  0  0  0
 42 43  1  0  0  0  0
 43 46  2  0  0  0  0
 44 43  1  0  0  0  0
 44 45  1  0  0  0  0
M  END
>  <MODEL>
5

>  <REMARK>
 VINA RESULT:      -7.3      3.828      9.996
  Name = 
  13 active torsions:
  status: ('A' for Active; 'I' for Inactive)
    1  A    between atoms: C_2  and  C_28
    2  A    between atoms: C_2  and  O_34
    3  A    between atoms: O_3  and  C_5
    4  A    between atoms: O_3  and  C_38
    5  A    between atoms: C_7  and  C_11
    6  A    between atoms: C_7  and  N_43
    7  A    between atoms: C_10  and  C_27
    8  A    between atoms: C_12  and  C_36
    9  A    between atoms: C_13  and  C_36
   10  A    between atoms: N_17  and  N_42
   11  A    between atoms: C_25  and  C_33
   12  A    between atoms: C_30  and  C_35
   13  A    between atoms: O_34  and  N_43
                            x       y       z     vdW  Elec       q    Type
                         _______ _______ _______ _____ _____    ______ ____

>  <TORSDO>
F 13

$$$$
=
 OpenBabel11042419143D

 46 49  0  0  1  0  0  0  0  0999 V2000
  186.2370  178.3090  142.2180 O   0  0  0  0  0  0  0  0  0  0  0  0
  186.3880  178.5780  143.4430 C   0  0  0  0  0  0  0  0  0  0  0  0
  187.9640  176.2400  142.6380 N   0  0  0  0  0  0  0  0  0  0  0  0
  188.1480  176.7680  143.8110 C   0  0  0  0  0  0  0  0  0  0  0  0
  187.3600  177.8850  144.2340 N   0  0  0  0  0  2  0  0  0  0  0  0
  192.7900  175.1520  147.2800 F   0  0  0  0  0  0  0  0  0  0  0  0
  189.1010  176.1940  144.7800 C   0  0  0  0  0  0  0  0  0  0  0  0
  192.5170  177.2230  144.2360 C   0  0  0  0  0  3  0  0  0  0  0  0
  188.7340  175.3850  145.9880 C   0  0  0  0  0  2  0  0  0  0  0  0
  191.1790  177.1170  143.9920 N   0  0  0  0  0  0  0  0  0  0  0  0
  192.2780  175.8600  146.2410 C   0  0  0  0  0  0  0  0  0  0  0  0
  193.1020  176.6030  145.3600 C   0  0  0  0  0  0  0  0  0  0  0  0
  190.4060  176.3930  144.8410 C   0  0  0  0  0  0  0  0  0  0  0  0
  190.0240  175.1810  146.6550 N   0  0  0  0  0  0  0  0  0  0  0  0
  190.9170  175.7870  145.9520 C   0  0  0  0  0  0  0  0  0  0  0  0
  194.4900  176.7090  145.5200 O   0  0  0  0  0  0  0  0  0  0  0  0
  195.4150  175.6910  145.2760 C   0  0  0  0  0  0  0  0  0  0  0  0
  195.6460  174.7960  146.1300 O   0  0  0  0  0  0  0  0  0  0  0  0
  196.1420  175.7150  144.1290 F   0  0  0  0  0  0  0  0  0  0  0  0
  188.4830  174.5890  140.8860 C   0  0  0  0  0  0  0  0  0  0  0  0
  187.9040  175.2880  140.0130 O   0  0  0  0  0  0  0  0  0  0  0  0
  188.6150  175.0720  142.2200 N   0  0  0  0  0  2  0  0  0  0  0  0
  188.9660  173.2260  140.5410 C   0  0  0  0  0  2  0  0  0  0  0  0
  190.4120  173.2600  140.3750 N   0  0  0  0  0  2  0  0  0  0  0  0
  190.9500  172.3860  141.2940 O   0  0  0  0  0  0  0  0  0  0  0  0
  191.8460  172.8210  142.2720 C   0  0  0  0  0  0  0  0  0  0  0  0
  191.7170  173.9590  142.7960 O   0  0  0  0  0  0  0  0  0  0  0  0
  195.2850  172.4570  143.2970 C   0  0  0  0  0  2  0  0  0  0  0  0
  192.9870  171.9480  142.6870 C   0  0  2  0  0  3  0  0  0  0  0  0
  193.8450  172.6470  143.7280 C   0  0  1  0  0  3  0  0  0  0  0  0
  193.8970  171.6280  141.5090 C   0  0  0  0  0  2  0  0  0  0  0  0
  195.2490  172.2760  141.7860 C   0  0  1  0  0  3  0  0  0  0  0  0
  195.1500  173.5830  139.5680 C   0  0  1  0  0  3  0  0  0  0  0  0
  196.8320  175.6650  140.0610 S   0  0  0  0  0  0  0  0  0  0  0  0
  193.7590  173.3220  139.2470 N   0  0  0  0  0  1  0  0  0  0  0  0
  197.8890  173.3840  141.0730 C   0  0  0  0  0  1  0  0  0  0  0  0
  195.5270  174.9410  139.0210 C   0  0  0  0  0  2  0  0  0  0  0  0
  195.3640  173.6420  141.0730 C   0  0  2  0  0  3  0  0  0  0  0  0
  196.7110  174.3310  141.2830 C   0  0  2  0  0  3  0  0  0  0  0  0
  194.8020  171.3850  145.7220 C   0  0  0  0  0  1  0  0  0  0  0  0
  193.5940  172.1170  145.1400 C   0  0  0  0  0  2  0  0  0  0  0  0
  185.5260  179.6150  144.0810 C   0  0  0  0  0  2  0  0  0  0  0  0
  184.8860  179.0760  145.3110 C   0  0  0  0  0  0  0  0  0  0  0  0
  185.5960  179.0950  146.5440 N   0  0  0  0  0  2  0  0  0  0  0  0
  184.9860  178.6580  147.7800 C   0  0  0  0  0  1  0  0  0  0  0  0
  183.7000  178.6600  145.2620 O   0  0  0  0  0  0  0  0  0  0  0  0
  1  2  2  0  0  0  0
  2 42  1  0  0  0  0
  2  5  1  0  0  0  0
  3  4  2  0  0  0  0
  4  5  1  0  0  0  0
  4  7  1  0  0  0  0
  7 13  2  0  0  0  0
  7  9  1  0  0  0  0
  8 12  1  0  0  0  0
  9 14  1  0  0  0  0
 10  8  2  0  0  0  0
 10 13  1  0  0  0  0
 11  6  1  0  0  0  0
 12 16  1  0  0  0  0
 12 11  2  0  0  0  0
 13 15  1  0  0  0  0
 15 11  1  0  0  0  0
 15 14  2  0  0  0  0
 17 16  1  0  0  0  0
 17 18  2  0  0  0  0
 19 17  1  0  0  0  0
 20 22  1  0  0  0  0
 21 20  2  0  0  0  0
 22  3  1  0  0  0  0
 23 20  1  0  0  0  0
 24 23  1  0  0  0  0
 24 25  1  0  0  0  0
 25 26  1  0  0  0  0
 26 27  2  0  0  0  0
 28 30  1  0  0  0  0
 29 26  1  6  0  0  0
 29 30  1  0  0  0  0
 30 41  1  1  0  0  0
 31 29  1  0  0  0  0
 32 31  1  1  0  0  0
 32 28  1  0  0  0  0
 33 35  1  1  0  0  0
 33 38  1  0  0  0  0
 34 39  1  0  0  0  0
 37 33  1  0  0  0  0
 37 34  1  0  0  0  0
 38 39  1  0  0  0  0
 38 32  1  6  0  0  0
 39 36  1  6  0  0  0
 41 40  1  0  0  0  0
 42 43  1  0  0  0  0
 43 44  1  0  0  0  0
 44 45  1  0  0  0  0
 46 43  2  0  0  0  0
M  END
>  <MODEL>
6

>  <REMARK>
 VINA RESULT:      -7.2      3.427      5.391
  Name = 
  13 active torsions:
  status: ('A' for Active; 'I' for Inactive)
    1  A    between atoms: C_2  and  C_28
    2  A    between atoms: C_2  and  O_34
    3  A    between atoms: O_3  and  C_5
    4  A    between atoms: O_3  and  C_38
    5  A    between atoms: C_7  and  C_11
    6  A    between atoms: C_7  and  N_43
    7  A    between atoms: C_10  and  C_27
    8  A    between atoms: C_12  and  C_36
    9  A    between atoms: C_13  and  C_36
   10  A    between atoms: N_17  and  N_42
   11  A    between atoms: C_25  and  C_33
   12  A    between atoms: C_30  and  C_35
   13  A    between atoms: O_34  and  N_43
                            x       y       z     vdW  Elec       q    Type
                         _______ _______ _______ _____ _____    ______ ____

>  <TORSDO>
F 13

$$$$
=
 OpenBabel11042419143D

 46 49  0  0  1  0  0  0  0  0999 V2000
  186.1300  177.7440  142.2290 O   0  0  0  0  0  0  0  0  0  0  0  0
  186.4000  178.2210  143.3670 C   0  0  0  0  0  0  0  0  0  0  0  0
  187.8590  175.7300  142.8580 N   0  0  0  0  0  0  0  0  0  0  0  0
  188.1600  176.4510  143.8950 C   0  0  0  0  0  0  0  0  0  0  0  0
  187.4310  177.6500  144.1790 N   0  0  0  0  0  2  0  0  0  0  0  0
  193.0480  175.4570  147.2590 F   0  0  0  0  0  0  0  0  0  0  0  0
  189.1910  176.0290  144.8620 C   0  0  0  0  0  0  0  0  0  0  0  0
  192.5010  177.2260  144.0650 C   0  0  0  0  0  3  0  0  0  0  0  0
  188.9330  175.3100  146.1520 C   0  0  0  0  0  2  0  0  0  0  0  0
  191.1640  177.0120  143.8970 N   0  0  0  0  0  0  0  0  0  0  0  0
  192.4430  176.0360  146.1900 C   0  0  0  0  0  0  0  0  0  0  0  0
  193.1750  176.7490  145.2080 C   0  0  0  0  0  0  0  0  0  0  0  0
  190.4800  176.3180  144.8420 C   0  0  0  0  0  0  0  0  0  0  0  0
  190.2620  175.2500  146.7710 N   0  0  0  0  0  0  0  0  0  0  0  0
  191.0790  175.8480  145.9750 C   0  0  0  0  0  0  0  0  0  0  0  0
  194.5580  176.9590  145.2900 O   0  0  0  0  0  0  0  0  0  0  0  0
  195.5420  176.0160  144.9800 C   0  0  0  0  0  0  0  0  0  0  0  0
  195.8170  175.0720  145.7650 O   0  0  0  0  0  0  0  0  0  0  0  0
  196.2740  176.1710  143.8460 F   0  0  0  0  0  0  0  0  0  0  0  0
  188.7040  174.0500  141.2670 C   0  0  0  0  0  0  0  0  0  0  0  0
  188.5450  174.8400  140.3000 O   0  0  0  0  0  0  0  0  0  0  0  0
  188.4510  174.4860  142.6000 N   0  0  0  0  0  2  0  0  0  0  0  0
  189.0900  172.6370  141.0110 C   0  0  0  0  0  2  0  0  0  0  0  0
  189.1410  171.9200  142.2770 N   0  0  0  0  0  2  0  0  0  0  0  0
  190.0680  170.9100  142.1370 O   0  0  0  0  0  0  0  0  0  0  0  0
  191.4360  171.1560  142.2680 C   0  0  0  0  0  0  0  0  0  0  0  0
  192.2760  170.4200  141.6850 O   0  0  0  0  0  0  0  0  0  0  0  0
  194.1490  173.1210  143.6030 C   0  0  0  0  0  2  0  0  0  0  0  0
  191.9180  172.2820  143.1260 C   0  0  2  0  0  3  0  0  0  0  0  0
  193.1270  172.9540  142.4970 C   0  0  1  0  0  3  0  0  0  0  0  0
  192.3520  171.7860  144.4970 C   0  0  0  0  0  2  0  0  0  0  0  0
  193.8540  172.0240  144.6160 C   0  0  1  0  0  3  0  0  0  0  0  0
  194.2620  169.5270  145.1040 C   0  0  1  0  0  3  0  0  0  0  0  0
  196.8760  169.2330  144.4060 S   0  0  0  0  0  0  0  0  0  0  0  0
  192.9460  169.0370  144.7390 N   0  0  0  0  0  1  0  0  0  0  0  0
  196.5480  171.5740  145.7310 C   0  0  0  0  0  1  0  0  0  0  0  0
  195.2810  168.4530  144.8010 C   0  0  0  0  0  2  0  0  0  0  0  0
  194.6450  170.7420  144.2720 C   0  0  2  0  0  3  0  0  0  0  0  0
  196.1580  170.8980  144.4200 C   0  0  2  0  0  3  0  0  0  0  0  0
  192.5740  174.1650  140.3260 C   0  0  0  0  0  1  0  0  0  0  0  0
  192.7740  174.2860  141.8360 C   0  0  0  0  0  2  0  0  0  0  0  0
  185.6160  179.3810  143.8830 C   0  0  0  0  0  2  0  0  0  0  0  0
  184.9420  179.0280  145.1610 C   0  0  0  0  0  0  0  0  0  0  0  0
  185.7050  178.9270  146.3580 N   0  0  0  0  0  2  0  0  0  0  0  0
  185.0820  178.6680  147.6380 C   0  0  0  0  0  1  0  0  0  0  0  0
  183.6930  178.8760  145.1830 O   0  0  0  0  0  0  0  0  0  0  0  0
  1  2  2  0  0  0  0
  2 42  1  0  0  0  0
  2  5  1  0  0  0  0
  3  4  2  0  0  0  0
  4  5  1  0  0  0  0
  4  7  1  0  0  0  0
  7  9  1  0  0  0  0
  8 12  1  0  0  0  0
  9 14  1  0  0  0  0
 10  8  2  0  0  0  0
 10 13  1  0  0  0  0
 11  6  1  0  0  0  0
 12 16  1  0  0  0  0
 12 11  2  0  0  0  0
 13  7  2  0  0  0  0
 13 15  1  0  0  0  0
 15 11  1  0  0  0  0
 15 14  2  0  0  0  0
 17 16  1  0  0  0  0
 17 18  2  0  0  0  0
 19 17  1  0  0  0  0
 20 22  1  0  0  0  0
 21 20  2  0  0  0  0
 22  3  1  0  0  0  0
 23 20  1  0  0  0  0
 23 24  1  0  0  0  0
 25 26  1  0  0  0  0
 25 24  1  0  0  0  0
 27 26  2  0  0  0  0
 29 26  1  6  0  0  0
 29 31  1  0  0  0  0
 30 41  1  1  0  0  0
 30 29  1  0  0  0  0
 30 28  1  0  0  0  0
 31 32  1  0  0  0  0
 32 28  1  6  0  0  0
 33 35  1  6  0  0  0
 34 39  1  0  0  0  0
 34 37  1  0  0  0  0
 37 33  1  0  0  0  0
 38 39  1  0  0  0  0
 38 32  1  1  0  0  0
 38 33  1  0  0  0  0
 39 36  1  1  0  0  0
 40 41  1  0  0  0  0
 42 43  1  0  0  0  0
 43 46  2  0  0  0  0
 43 44  1  0  0  0  0
 44 45  1  0  0  0  0
M  END
>  <MODEL>
7

>  <REMARK>
 VINA RESULT:      -7.1      3.597      5.907
  Name = 
  13 active torsions:
  status: ('A' for Active; 'I' for Inactive)
    1  A    between atoms: C_2  and  C_28
    2  A    between atoms: C_2  and  O_34
    3  A    between atoms: O_3  and  C_5
    4  A    between atoms: O_3  and  C_38
    5  A    between atoms: C_7  and  C_11
    6  A    between atoms: C_7  and  N_43
    7  A    between atoms: C_10  and  C_27
    8  A    between atoms: C_12  and  C_36
    9  A    between atoms: C_13  and  C_36
   10  A    between atoms: N_17  and  N_42
   11  A    between atoms: C_25  and  C_33
   12  A    between atoms: C_30  and  C_35
   13  A    between atoms: O_34  and  N_43
                            x       y       z     vdW  Elec       q    Type
                         _______ _______ _______ _____ _____    ______ ____

>  <TORSDO>
F 13

$$$$
=
 OpenBabel11042419143D

 46 49  0  0  1  0  0  0  0  0999 V2000
  188.2180  177.9850  147.2620 O   0  0  0  0  0  0  0  0  0  0  0  0
  187.4050  177.0990  146.8740 C   0  0  0  0  0  0  0  0  0  0  0  0
  190.0630  176.7300  145.6930 N   0  0  0  0  0  0  0  0  0  0  0  0
  189.1640  175.8050  145.5530 C   0  0  0  0  0  0  0  0  0  0  0  0
  187.8490  175.9860  146.0900 N   0  0  0  0  0  2  0  0  0  0  0  0
  189.9710  171.4820  141.4470 F   0  0  0  0  0  0  0  0  0  0  0  0
  189.4220  174.5820  144.7700 C   0  0  0  0  0  0  0  0  0  0  0  0
  188.5530  174.8870  141.2800 C   0  0  0  0  0  3  0  0  0  0  0  0
  190.1200  173.3550  145.2740 C   0  0  0  0  0  2  0  0  0  0  0  0
  188.6630  175.2580  142.5880 N   0  0  0  0  0  0  0  0  0  0  0  0
  189.6020  172.7460  141.7800 C   0  0  0  0  0  0  0  0  0  0  0  0
  189.0170  173.6300  140.8400 C   0  0  0  0  0  0  0  0  0  0  0  0
  189.2170  174.3950  143.4770 C   0  0  0  0  0  0  0  0  0  0  0  0
  190.2200  172.5130  144.0770 N   0  0  0  0  0  0  0  0  0  0  0  0
  189.6960  173.1730  143.1030 C   0  0  0  0  0  0  0  0  0  0  0  0
  188.8250  173.2930  139.4930 O   0  0  0  0  0  0  0  0  0  0  0  0
  189.8240  173.2520  138.5170 C   0  0  0  0  0  0  0  0  0  0  0  0
  190.7710  172.4250  138.5820 O   0  0  0  0  0  0  0  0  0  0  0  0
  189.8190  174.1770  137.5230 F   0  0  0  0  0  0  0  0  0  0  0  0
  192.5130  176.5310  145.8560 C   0  0  0  0  0  0  0  0  0  0  0  0
  192.4440  176.3140  147.0940 O   0  0  0  0  0  0  0  0  0  0  0  0
  191.3230  176.6630  145.0820 N   0  0  0  0  0  2  0  0  0  0  0  0
  193.8390  176.7200  145.2120 C   0  0  0  0  0  2  0  0  0  0  0  0
  194.8590  176.0580  146.0130 N   0  0  0  0  0  2  0  0  0  0  0  0
  195.0000  174.7790  145.5200 O   0  0  0  0  0  0  0  0  0  0  0  0
  195.8500  174.5040  144.4470 C   0  0  0  0  0  0  0  0  0  0  0  0
  197.0410  174.9170  144.4530 O   0  0  0  0  0  0  0  0  0  0  0  0
  193.7120  171.9500  143.0650 C   0  0  0  0  0  2  0  0  0  0  0  0
  195.3450  173.7400  143.2660 C   0  0  2  0  0  3  0  0  0  0  0  0
  193.8710  173.4120  143.4310 C   0  0  1  0  0  3  0  0  0  0  0  0
  196.0770  172.4150  143.1090 C   0  0  0  0  0  2  0  0  0  0  0  0
  195.0610  171.3010  143.3390 C   0  0  1  0  0  3  0  0  0  0  0  0
  196.5080  170.3090  145.2260 C   0  0  1  0  0  3  0  0  0  0  0  0
  194.6810  168.8770  146.6480 S   0  0  0  0  0  0  0  0  0  0  0  0
  197.4200  171.4270  145.3840 N   0  0  0  0  0  1  0  0  0  0  0  0
  194.2290  168.5470  143.9970 C   0  0  0  0  0  1  0  0  0  0  0  0
  196.3350  169.6310  146.5660 C   0  0  0  0  0  2  0  0  0  0  0  0
  195.1280  170.7830  144.7930 C   0  0  2  0  0  3  0  0  0  0  0  0
  194.1740  169.6240  145.0760 C   0  0  2  0  0  3  0  0  0  0  0  0
  193.7610  175.1690  141.5910 C   0  0  0  0  0  1  0  0  0  0  0  0
  192.9750  174.3160  142.5850 C   0  0  0  0  0  2  0  0  0  0  0  0
  185.9590  177.2270  147.2170 C   0  0  0  0  0  2  0  0  0  0  0  0
  185.2890  178.1850  146.2980 C   0  0  0  0  0  0  0  0  0  0  0  0
  186.0150  178.7480  145.2110 N   0  0  0  0  0  2  0  0  0  0  0  0
  185.3830  179.6190  144.2440 C   0  0  0  0  0  1  0  0  0  0  0  0
  184.0680  178.4450  146.4560 O   0  0  0  0  0  0  0  0  0  0  0  0
  2 42  1  0  0  0  0
  2  1  2  0  0  0  0
  4  3  2  0  0  0  0
  4  5  1  0  0  0  0
  5  2  1  0  0  0  0
  6 11  1  0  0  0  0
  7  9  1  0  0  0  0
  7  4  1  0  0  0  0
  8 10  2  0  0  0  0
 10 13  1  0  0  0  0
 11 15  1  0  0  0  0
 12  8  1  0  0  0  0
 12 11  2  0  0  0  0
 13  7  2  0  0  0  0
 14  9  1  0  0  0  0
 15 13  1  0  0  0  0
 15 14  2  0  0  0  0
 16 12  1  0  0  0  0
 17 18  2  0  0  0  0
 17 16  1  0  0  0  0
 19 17  1  0  0  0  0
 20 21  2  0  0  0  0
 22  3  1  0  0  0  0
 22 20  1  0  0  0  0
 23 20  1  0  0  0  0
 23 24  1  0  0  0  0
 25 24  1  0  0  0  0
 26 27  2  0  0  0  0
 26 25  1  0  0  0  0
 28 30  1  0  0  0  0
 29 30  1  0  0  0  0
 29 26  1  1  0  0  0
 30 41  1  6  0  0  0
 31 29  1  0  0  0  0
 31 32  1  0  0  0  0
 32 28  1  1  0  0  0
 33 35  1  1  0  0  0
 33 37  1  0  0  0  0
 37 34  1  0  0  0  0
 38 32  1  6  0  0  0
 38 39  1  0  0  0  0
 38 33  1  0  0  0  0
 39 36  1  6  0  0  0
 39 34  1  0  0  0  0
 40 41  1  0  0  0  0
 43 46  2  0  0  0  0
 43 42  1  0  0  0  0
 44 43  1  0  0  0  0
 45 44  1  0  0  0  0
M  END
>  <MODEL>
8

>  <REMARK>
 VINA RESULT:      -7.1      3.909      7.020
  Name = 
  13 active torsions:
  status: ('A' for Active; 'I' for Inactive)
    1  A    between atoms: C_2  and  C_28
    2  A    between atoms: C_2  and  O_34
    3  A    between atoms: O_3  and  C_5
    4  A    between atoms: O_3  and  C_38
    5  A    between atoms: C_7  and  C_11
    6  A    between atoms: C_7  and  N_43
    7  A    between atoms: C_10  and  C_27
    8  A    between atoms: C_12  and  C_36
    9  A    between atoms: C_13  and  C_36
   10  A    between atoms: N_17  and  N_42
   11  A    between atoms: C_25  and  C_33
   12  A    between atoms: C_30  and  C_35
   13  A    between atoms: O_34  and  N_43
                            x       y       z     vdW  Elec       q    Type
                         _______ _______ _______ _____ _____    ______ ____

>  <TORSDO>
F 13

$$$$
=
 OpenBabel11042419143D

 46 49  0  0  1  0  0  0  0  0999 V2000
  186.2640  178.3030  142.1090 O   0  0  0  0  0  0  0  0  0  0  0  0
  186.4050  178.6080  143.3270 C   0  0  0  0  0  0  0  0  0  0  0  0
  187.9950  176.2540  142.6020 N   0  0  0  0  0  0  0  0  0  0  0  0
  188.1680  176.8150  143.7610 C   0  0  0  0  0  0  0  0  0  0  0  0
  187.3730  177.9420  144.1450 N   0  0  0  0  0  2  0  0  0  0  0  0
  192.8010  175.2730  147.2760 F   0  0  0  0  0  0  0  0  0  0  0  0
  189.1140  176.2730  144.7530 C   0  0  0  0  0  0  0  0  0  0  0  0
  192.5530  177.1620  144.1140 C   0  0  0  0  0  3  0  0  0  0  0  0
  188.7380  175.5510  146.0120 C   0  0  0  0  0  2  0  0  0  0  0  0
  191.2100  177.0820  143.8900 N   0  0  0  0  0  0  0  0  0  0  0  0
  192.2970  175.9330  146.2010 C   0  0  0  0  0  0  0  0  0  0  0  0
  193.1330  176.5950  145.2670 C   0  0  0  0  0  0  0  0  0  0  0  0
  190.4260  176.4360  144.7890 C   0  0  0  0  0  0  0  0  0  0  0  0
  190.0300  175.3480  146.6780 N   0  0  0  0  0  0  0  0  0  0  0  0
  190.9310  175.8830  145.9300 C   0  0  0  0  0  0  0  0  0  0  0  0
  194.5250  176.6680  145.4070 O   0  0  0  0  0  0  0  0  0  0  0  0
  195.4060  175.5850  145.3380 C   0  0  0  0  0  0  0  0  0  0  0  0
  195.8490  175.1700  144.2360 O   0  0  0  0  0  0  0  0  0  0  0  0
  195.7240  174.9150  146.4760 F   0  0  0  0  0  0  0  0  0  0  0  0
  188.5260  174.5500  140.9050 C   0  0  0  0  0  0  0  0  0  0  0  0
  187.9450  175.2160  140.0090 O   0  0  0  0  0  0  0  0  0  0  0  0
  188.6550  175.0760  142.2230 N   0  0  0  0  0  2  0  0  0  0  0  0
  189.0190  173.1790  140.6050 C   0  0  0  0  0  2  0  0  0  0  0  0
  190.2770  172.9600  141.3040 N   0  0  0  0  0  2  0  0  0  0  0  0
  190.0700  171.9420  142.2090 O   0  0  0  0  0  0  0  0  0  0  0  0
  190.6040  171.9960  143.4980 C   0  0  0  0  0  0  0  0  0  0  0  0
  190.0450  172.6860  144.3910 O   0  0  0  0  0  0  0  0  0  0  0  0
  194.1620  171.5690  143.1030 C   0  0  0  0  0  2  0  0  0  0  0  0
  191.8610  171.2560  143.8220 C   0  0  2  0  0  3  0  0  0  0  0  0
  193.0400  172.2110  143.8930 C   0  0  1  0  0  3  0  0  0  0  0  0
  192.1910  170.2270  142.7500 C   0  0  0  0  0  2  0  0  0  0  0  0
  193.4890  170.6650  142.0800 C   0  0  1  0  0  3  0  0  0  0  0  0
  192.8020  170.5630  139.5990 C   0  0  1  0  0  3  0  0  0  0  0  0
  194.0420  172.7590  138.5770 S   0  0  0  0  0  0  0  0  0  0  0  0
  191.4710  170.0160  139.7860 N   0  0  0  0  0  1  0  0  0  0  0  0
  195.7000  171.5090  140.3170 C   0  0  0  0  0  1  0  0  0  0  0  0
  192.7950  171.4500  138.3750 C   0  0  0  0  0  2  0  0  0  0  0  0
  193.2040  171.4410  140.7750 C   0  0  2  0  0  3  0  0  0  0  0  0
  194.3840  172.2820  140.2920 C   0  0  2  0  0  3  0  0  0  0  0  0
  194.7340  171.7920  145.7490 C   0  0  0  0  0  1  0  0  0  0  0  0
  193.4550  172.5170  145.3330 C   0  0  0  0  0  2  0  0  0  0  0  0
  185.5330  179.6590  143.9280 C   0  0  0  0  0  2  0  0  0  0  0  0
  184.9220  179.1690  145.1920 C   0  0  0  0  0  0  0  0  0  0  0  0
  185.7200  179.0530  146.3650 N   0  0  0  0  0  2  0  0  0  0  0  0
  185.1520  178.6610  147.6360 C   0  0  0  0  0  1  0  0  0  0  0  0
  183.6900  178.9150  145.2280 O   0  0  0  0  0  0  0  0  0  0  0  0
  1  2  2  0  0  0  0
  2 42  1  0  0  0  0
  2  5  1  0  0  0  0
  3  4  2  0  0  0  0
  4  5  1  0  0  0  0
  4  7  1  0  0  0  0
  7 13  2  0  0  0  0
  7  9  1  0  0  0  0
  8 12  1  0  0  0  0
  9 14  1  0  0  0  0
 10  8  2  0  0  0  0
 10 13  1  0  0  0  0
 11  6  1  0  0  0  0
 12 16  1  0  0  0  0
 12 11  2  0  0  0  0
 13 15  1  0  0  0  0
 15 11  1  0  0  0  0
 15 14  2  0  0  0  0
 17 16  1  0  0  0  0
 17 19  1  0  0  0  0
 18 17  2  0  0  0  0
 20 22  1  0  0  0  0
 21 20  2  0  0  0  0
 22  3  1  0  0  0  0
 23 20  1  0  0  0  0
 23 24  1  0  0  0  0
 24 25  1  0  0  0  0
 25 26  1  0  0  0  0
 26 27  2  0  0  0  0
 28 30  1  0  0  0  0
 29 26  1  6  0  0  0
 29 30  1  0  0  0  0
 30 41  1  1  0  0  0
 31 29  1  0  0  0  0
 32 31  1  1  0  0  0
 32 28  1  0  0  0  0
 33 35  1  1  0  0  0
 33 38  1  0  0  0  0
 34 39  1  0  0  0  0
 37 34  1  0  0  0  0
 37 33  1  0  0  0  0
 38 32  1  1  0  0  0
 39 36  1  6  0  0  0
 39 38  1  0  0  0  0
 41 40  1  0  0  0  0
 42 43  1  0  0  0  0
 43 46  2  0  0  0  0
 43 44  1  0  0  0  0
 44 45  1  0  0  0  0
M  END
>  <MODEL>
9

>  <REMARK>
 VINA RESULT:      -7.1      3.236      5.009
  Name = 
  13 active torsions:
  status: ('A' for Active; 'I' for Inactive)
    1  A    between atoms: C_2  and  C_28
    2  A    between atoms: C_2  and  O_34
    3  A    between atoms: O_3  and  C_5
    4  A    between atoms: O_3  and  C_38
    5  A    between atoms: C_7  and  C_11
    6  A    between atoms: C_7  and  N_43
    7  A    between atoms: C_10  and  C_27
    8  A    between atoms: C_12  and  C_36
    9  A    between atoms: C_13  and  C_36
   10  A    between atoms: N_17  and  N_42
   11  A    between atoms: C_25  and  C_33
   12  A    between atoms: C_30  and  C_35
   13  A    between atoms: O_34  and  N_43
                            x       y       z     vdW  Elec       q    Type
                         _______ _______ _______ _____ _____    ______ ____

>  <TORSDO>
F 13

$$$$
