=
 OpenBabel11042415593D

 52 58  0  0  1  0  0  0  0  0999 V2000
  191.8390  174.5250  145.5180 C   0  0  0  0  0  0  0  0  0  0  0  0
  190.5130  174.5900  145.1470 C   0  0  0  0  0  0  0  0  0  0  0  0
  190.0920  175.8370  145.5500 C   0  0  0  0  0  0  0  0  0  0  0  0
  192.1620  175.7230  146.1300 C   0  0  0  0  0  3  0  0  0  0  0  0
  191.0840  176.4810  146.1270 O   0  0  0  0  0  0  0  0  0  0  0  0
  193.5340  173.2450  144.1150 C   0  0  0  0  0  0  0  0  0  0  0  0
  193.5340  174.0940  143.1860 O   0  0  0  0  0  0  0  0  0  0  0  0
  192.7120  173.4170  145.2750 N   0  0  0  0  0  2  0  0  0  0  0  0
  194.4220  172.0520  144.0180 C   0  0  0  0  0  2  0  0  0  0  0  0
  196.3270  173.3110  144.5880 O   0  0  0  0  0  0  0  0  0  0  0  0
  195.6860  172.2880  144.7770 C   0  0  0  0  0  0  0  0  0  0  0  0
  195.0800  170.3300  146.0660 N   0  0  0  0  0  0  0  0  0  0  0  0
  196.7170  168.9720  147.2080 C   0  0  0  0  0  2  0  0  0  0  0  0
  194.2300  168.2770  146.9950 C   0  0  0  0  0  1  0  0  0  0  0  0
  195.3180  169.2650  146.7510 C   0  0  0  0  0  0  0  0  0  0  0  0
  196.1360  171.2860  145.7930 C   0  0  1  0  0  3  0  0  0  0  0  0
  197.4270  170.5820  145.3380 C   0  0  0  0  0  2  0  0  0  0  0  0
  197.6850  169.2390  146.0520 C   0  0  0  0  0  2  0  0  0  0  0  0
  189.8380  172.2050  145.0560 C   0  0  0  0  0  1  0  0  0  0  0  0
  189.7010  173.5680  144.4070 C   0  0  2  0  0  3  0  0  0  0  0  0
  190.1130  173.4880  142.9440 C   0  0  0  0  0  2  0  0  0  0  0  0
  189.9050  172.0700  135.9170 C   0  0  0  0  0  3  0  0  0  0  0  0
  191.0720  169.9550  135.6810 C   0  0  0  0  0  3  0  0  0  0  0  0
  188.2080  173.3750  141.2410 C   0  0  2  0  0  3  0  0  0  0  0  0
  189.1790  172.5700  142.1520 C   0  0  1  0  0  3  0  0  0  0  0  0
  188.1710  174.5240  139.0140 N   0  0  0  0  0  2  0  0  0  0  0  0
  190.7690  170.9140  137.8830 C   0  0  0  0  0  0  0  0  0  0  0  0
  188.5480  173.9860  137.9210 N   0  0  0  0  0  0  0  0  0  0  0  0
  189.0010  174.0830  140.1370 C   0  0  2  0  0  3  0  0  0  0  0  0
  189.9690  171.6110  141.3570 N   0  0  0  0  0  0  0  0  0  0  0  0
  190.0920  172.0140  137.3010 C   0  0  0  0  0  0  0  0  0  0  0  0
  191.2550  169.8900  137.0660 C   0  0  0  0  0  3  0  0  0  0  0  0
  190.3470  171.8610  140.1360 C   0  0  0  0  0  0  0  0  0  0  0  0
  189.6170  173.0920  138.1890 C   0  0  0  0  0  0  0  0  0  0  0  0
  189.8680  173.0800  139.4770 C   0  0  1  0  0  3  0  0  0  0  0  0
  190.3960  171.0400  135.1080 C   0  0  0  0  0  3  0  0  0  0  0  0
  187.3760  174.3640  142.0400 C   0  0  0  0  0  1  0  0  0  0  0  0
  190.8970  170.8230  139.3140 N   0  0  0  0  0  2  0  0  0  0  0  0
  188.7250  176.4050  145.3400 C   0  0  2  0  0  3  0  0  0  0  0  0
  188.3630  177.7270  143.1710 C   0  0  0  0  0  2  0  0  0  0  0  0
  189.8470  177.6860  143.4880 C   0  0  0  0  0  2  0  0  0  0  0  0
  188.8360  177.7600  144.6170 C   0  0  0  0  0  3  0  0  0  0  0  0
  188.0080  176.4700  146.6130 N   0  0  0  0  0  2  0  0  0  0  0  0
  186.9620  177.4740  146.4730 C   0  0  2  0  0  3  0  0  0  0  0  0
  185.9600  179.3940  147.5330 O   0  0  0  0  0  1  0  0  0  0  0  0
  186.8630  178.3460  147.7230 C   0  0  0  0  0  2  0  0  0  0  0  0
  185.6310  176.8230  146.1170 C   0  0  0  0  0  2  0  0  0  0  0  0
  185.3200  177.0200  144.7700 O   0  0  0  0  0  0  0  0  0  0  0  0
  184.5260  178.1670  144.7570 C   0  0  0  0  0  2  0  0  0  0  0  0
  184.9810  178.7220  142.3390 N   0  0  0  0  0  1  0  0  0  0  0  0
  185.4970  180.2190  144.0400 O   0  0  0  0  0  0  0  0  0  0  0  0
  185.0200  179.1030  143.7100 C   0  0  0  0  0  0  0  0  0  0  0  0
  1  4  2  0  0  0  0
  2  1  1  0  0  0  0
  2  3  2  0  0  0  0
  3  5  1  0  0  0  0
  5  4  1  0  0  0  0
  6  8  1  0  0  0  0
  7  6  2  0  0  0  0
  8  1  1  0  0  0  0
  9  6  1  0  0  0  0
  9 11  1  0  0  0  0
 10 11  2  0  0  0  0
 12 15  2  0  0  0  0
 15 14  1  0  0  0  0
 15 13  1  0  0  0  0
 16 11  1  6  0  0  0
 16 12  1  0  0  0  0
 17 16  1  0  0  0  0
 17 18  1  0  0  0  0
 18 13  1  0  0  0  0
 20 19  1  1  0  0  0
 20  2  1  0  0  0  0
 21 20  1  0  0  0  0
 22 31  1  0  0  0  0
 23 32  2  0  0  0  0
 24 37  1  1  0  0  0
 24 25  1  0  0  0  0
 25 21  1  6  0  0  0
 27 38  1  0  0  0  0
 28 34  2  0  0  0  0
 28 26  1  0  0  0  0
 29 26  1  6  0  0  0
 29 24  1  0  0  0  0
 30 25  1  0  0  0  0
 31 27  2  0  0  0  0
 31 34  1  0  0  0  0
 32 27  1  0  0  0  0
 33 30  2  0  0  0  0
 35 34  1  6  0  0  0
 35 33  1  0  0  0  0
 35 29  1  0  0  0  0
 36 23  1  0  0  0  0
 36 22  2  0  0  0  0
 38 33  1  0  0  0  0
 39  3  1  0  0  0  0
 39 43  1  1  0  0  0
 40 41  1  0  0  0  0
 40 42  1  0  0  0  0
 41 42  1  0  0  0  0
 42 39  1  0  0  0  0
 44 47  1  1  0  0  0
 44 43  1  0  0  0  0
 44 46  1  0  0  0  0
 45 46  1  0  0  0  0
 48 47  1  0  0  0  0
 49 48  1  0  0  0  0
 50 52  1  0  0  0  0
 52 51  2  0  0  0  0
 52 49  1  0  0  0  0
M  END
>  <MODEL>
1

>  <REMARK>
 VINA RESULT:      -7.6      0.000      0.000
  Name = 
  16 active torsions:
  status: ('A' for Active; 'I' for Inactive)
    1  A    between atoms: C_2  and  N_12
    2  A    between atoms: C_2  and  C_39
    3  A    between atoms: C_2  and  C_42
    4  A    between atoms: C_3  and  O_25
    5  A    between atoms: C_3  and  C_41
    6  A    between atoms: C_5  and  C_6
    7  A    between atoms: C_5  and  C_35
    8  A    between atoms: C_6  and  C_15
    9  A    between atoms: N_12  and  C_28
   10  A    between atoms: C_14  and  C_52
   11  A    between atoms: C_18  and  N_26
   12  A    between atoms: O_25  and  C_39
   13  A    between atoms: C_28  and  C_43
   14  A    between atoms: C_28  and  C_50
   15  A    between atoms: C_32  and  C_44
   16  A    between atoms: C_44  and  C_52
                            x       y       z     vdW  Elec       q    Type
                         _______ _______ _______ _____ _____    ______ ____

>  <TORSDO>
F 16

$$$$
=
 OpenBabel11042415593D

 52 58  0  0  1  0  0  0  0  0999 V2000
  192.1220  171.8060  142.0130 C   0  0  0  0  0  0  0  0  0  0  0  0
  191.8210  172.9180  141.2560 C   0  0  0  0  0  0  0  0  0  0  0  0
  191.3140  172.4190  140.0770 C   0  0  0  0  0  0  0  0  0  0  0  0
  191.7940  170.6890  141.2650 C   0  0  0  0  0  3  0  0  0  0  0  0
  191.3120  171.1030  140.1110 O   0  0  0  0  0  0  0  0  0  0  0  0
  194.0290  171.6500  143.6920 C   0  0  0  0  0  0  0  0  0  0  0  0
  194.9020  171.4400  142.8100 O   0  0  0  0  0  0  0  0  0  0  0  0
  192.6520  171.8300  143.3430 N   0  0  0  0  0  2  0  0  0  0  0  0
  194.4380  171.7370  145.1220 C   0  0  0  0  0  2  0  0  0  0  0  0
  196.3090  172.9920  145.8030 O   0  0  0  0  0  0  0  0  0  0  0  0
  195.1660  173.0170  145.3730 C   0  0  0  0  0  0  0  0  0  0  0  0
  193.6050  174.7070  146.1280 N   0  0  0  0  0  0  0  0  0  0  0  0
  193.4740  176.8960  145.1170 C   0  0  0  0  0  2  0  0  0  0  0  0
  192.1950  176.2800  147.2850 C   0  0  0  0  0  1  0  0  0  0  0  0
  193.0880  175.8870  146.1590 C   0  0  0  0  0  0  0  0  0  0  0  0
  194.5000  174.3190  145.0550 C   0  0  1  0  0  3  0  0  0  0  0  0
  195.5430  175.4150  144.7700 C   0  0  0  0  0  2  0  0  0  0  0  0
  194.9910  176.8480  144.9160 C   0  0  0  0  0  2  0  0  0  0  0  0
  193.3950  174.8040  141.5950 C   0  0  0  0  0  1  0  0  0  0  0  0
  191.9450  174.3640  141.6350 C   0  0  2  0  0  3  0  0  0  0  0  0
  191.3620  174.6260  143.0170 C   0  0  0  0  0  2  0  0  0  0  0  0
  186.0700  178.4700  145.9570 C   0  0  0  0  0  3  0  0  0  0  0  0
  185.1320  179.7380  144.1130 C   0  0  0  0  0  3  0  0  0  0  0  0
  189.3510  174.0040  144.4680 C   0  0  2  0  0  3  0  0  0  0  0  0
  189.8540  174.3670  143.0420 C   0  0  1  0  0  3  0  0  0  0  0  0
  188.7040  175.1160  146.6190 N   0  0  0  0  0  2  0  0  0  0  0  0
  186.9440  178.1870  143.6980 C   0  0  0  0  0  0  0  0  0  0  0  0
  187.8720  176.0790  146.7080 N   0  0  0  0  0  0  0  0  0  0  0  0
  189.5010  175.2160  145.3950 C   0  0  2  0  0  3  0  0  0  0  0  0
  189.1320  175.5400  142.5150 N   0  0  0  0  0  0  0  0  0  0  0  0
  186.9680  177.8600  145.0760 C   0  0  0  0  0  0  0  0  0  0  0  0
  186.0240  179.1260  143.2250 C   0  0  0  0  0  3  0  0  0  0  0  0
  188.7230  176.5100  143.2810 C   0  0  0  0  0  0  0  0  0  0  0  0
  187.9720  176.8870  145.5470 C   0  0  0  0  0  0  0  0  0  0  0  0
  188.8700  176.3800  144.7340 C   0  0  1  0  0  3  0  0  0  0  0  0
  185.1530  179.4090  145.4740 C   0  0  0  0  0  3  0  0  0  0  0  0
  190.0750  172.7910  145.0300 C   0  0  0  0  0  1  0  0  0  0  0  0
  187.8210  177.5060  142.7820 N   0  0  0  0  0  2  0  0  0  0  0  0
  190.8050  173.2350  138.9330 C   0  0  2  0  0  3  0  0  0  0  0  0
  188.3800  173.9670  138.5290 C   0  0  0  0  0  2  0  0  0  0  0  0
  188.4360  173.0880  139.7650 C   0  0  0  0  0  2  0  0  0  0  0  0
  189.3640  172.8090  138.5980 C   0  0  0  0  0  3  0  0  0  0  0  0
  191.7280  173.1450  137.8030 N   0  0  0  0  0  2  0  0  0  0  0  0
  192.0570  174.5060  137.4000 C   0  0  2  0  0  3  0  0  0  0  0  0
  190.3690  174.9880  135.7460 O   0  0  0  0  0  1  0  0  0  0  0  0
  191.7310  174.7380  135.9250 C   0  0  0  0  0  2  0  0  0  0  0  0
  193.5090  174.8320  137.7280 C   0  0  0  0  0  2  0  0  0  0  0  0
  194.1880  173.7000  138.1810 O   0  0  0  0  0  0  0  0  0  0  0  0
  195.5330  173.9760  137.9350 C   0  0  0  0  0  2  0  0  0  0  0  0
  196.4800  173.2710  140.1640 N   0  0  0  0  0  1  0  0  0  0  0  0
  196.5390  175.4900  139.4720 O   0  0  0  0  0  0  0  0  0  0  0  0
  196.2170  174.3010  139.2160 C   0  0  0  0  0  0  0  0  0  0  0  0
  1  8  1  0  0  0  0
  2 20  1  0  0  0  0
  2  1  1  0  0  0  0
  3  5  1  0  0  0  0
  3  2  2  0  0  0  0
  4  1  2  0  0  0  0
  5  4  1  0  0  0  0
  6  9  1  0  0  0  0
  7  6  2  0  0  0  0
  8  6  1  0  0  0  0
  9 11  1  0  0  0  0
 11 10  2  0  0  0  0
 12 15  2  0  0  0  0
 13 15  1  0  0  0  0
 15 14  1  0  0  0  0
 16 11  1  1  0  0  0
 16 12  1  0  0  0  0
 17 18  1  0  0  0  0
 17 16  1  0  0  0  0
 18 13  1  0  0  0  0
 20 19  1  1  0  0  0
 20 21  1  0  0  0  0
 23 36  2  0  0  0  0
 24 37  1  1  0  0  0
 24 29  1  0  0  0  0
 25 21  1  1  0  0  0
 25 24  1  0  0  0  0
 26 28  1  0  0  0  0
 27 31  1  0  0  0  0
 29 26  1  1  0  0  0
 30 25  1  0  0  0  0
 30 33  2  0  0  0  0
 31 34  1  0  0  0  0
 31 22  2  0  0  0  0
 32 27  2  0  0  0  0
 32 23  1  0  0  0  0
 34 28  2  0  0  0  0
 35 33  1  6  0  0  0
 35 29  1  0  0  0  0
 35 34  1  0  0  0  0
 36 22  1  0  0  0  0
 38 33  1  0  0  0  0
 38 27  1  0  0  0  0
 39 43  1  6  0  0  0
 39  3  1  0  0  0  0
 40 42  1  0  0  0  0
 40 41  1  0  0  0  0
 42 39  1  0  0  0  0
 42 41  1  0  0  0  0
 44 46  1  6  0  0  0
 44 47  1  0  0  0  0
 44 43  1  0  0  0  0
 45 46  1  0  0  0  0
 47 48  1  0  0  0  0
 49 48  1  0  0  0  0
 49 52  1  0  0  0  0
 52 51  2  0  0  0  0
 52 50  1  0  0  0  0
M  END
>  <MODEL>
2

>  <REMARK>
 VINA RESULT:      -7.5      3.609      8.390
  Name = 
  16 active torsions:
  status: ('A' for Active; 'I' for Inactive)
    1  A    between atoms: C_2  and  N_12
    2  A    between atoms: C_2  and  C_39
    3  A    between atoms: C_2  and  C_42
    4  A    between atoms: C_3  and  O_25
    5  A    between atoms: C_3  and  C_41
    6  A    between atoms: C_5  and  C_6
    7  A    between atoms: C_5  and  C_35
    8  A    between atoms: C_6  and  C_15
    9  A    between atoms: N_12  and  C_28
   10  A    between atoms: C_14  and  C_52
   11  A    between atoms: C_18  and  N_26
   12  A    between atoms: O_25  and  C_39
   13  A    between atoms: C_28  and  C_43
   14  A    between atoms: C_28  and  C_50
   15  A    between atoms: C_32  and  C_44
   16  A    between atoms: C_44  and  C_52
                            x       y       z     vdW  Elec       q    Type
                         _______ _______ _______ _____ _____    ______ ____

>  <TORSDO>
F 16

$$$$
=
 OpenBabel11042415593D

 52 58  0  0  1  0  0  0  0  0999 V2000
  193.2450  176.0240  146.4000 C   0  0  0  0  0  0  0  0  0  0  0  0
  193.4940  174.9530  145.5690 C   0  0  0  0  0  0  0  0  0  0  0  0
  194.8080  175.1000  145.1850 C   0  0  0  0  0  0  0  0  0  0  0  0
  194.4060  176.7720  146.4800 C   0  0  0  0  0  3  0  0  0  0  0  0
  195.3190  176.1810  145.7360 O   0  0  0  0  0  0  0  0  0  0  0  0
  190.8590  176.9070  146.4890 C   0  0  0  0  0  0  0  0  0  0  0  0
  190.8710  177.3050  145.2950 O   0  0  0  0  0  0  0  0  0  0  0  0
  192.0060  176.2780  147.0710 N   0  0  0  0  0  2  0  0  0  0  0  0
  189.6230  177.0720  147.3040 C   0  0  0  0  0  2  0  0  0  0  0  0
  188.3900  175.5920  145.9500 O   0  0  0  0  0  0  0  0  0  0  0  0
  188.4230  176.6800  146.5050 C   0  0  0  0  0  0  0  0  0  0  0  0
  187.0690  178.0790  145.0640 N   0  0  0  0  0  0  0  0  0  0  0  0
  184.9090  178.9240  145.7350 C   0  0  0  0  0  2  0  0  0  0  0  0
  185.8160  179.1680  143.3190 C   0  0  0  0  0  1  0  0  0  0  0  0
  186.0040  178.7220  144.7280 C   0  0  0  0  0  0  0  0  0  0  0  0
  187.2540  177.6100  146.4240 C   0  0  1  0  0  3  0  0  0  0  0  0
  185.9780  176.9390  146.9650 C   0  0  0  0  0  2  0  0  0  0  0  0
  184.6750  177.6110  146.4850 C   0  0  0  0  0  2  0  0  0  0  0  0
  193.3480  172.5270  145.0750 C   0  0  0  0  0  1  0  0  0  0  0  0
  192.5760  173.8260  145.2000 C   0  0  2  0  0  3  0  0  0  0  0  0
  191.8360  174.1150  143.9020 C   0  0  0  0  0  2  0  0  0  0  0  0
  189.0580  173.2760  137.3440 C   0  0  0  0  0  3  0  0  0  0  0  0
  190.9720  173.3320  135.8530 C   0  0  0  0  0  3  0  0  0  0  0  0
  190.2650  172.3740  142.8810 C   0  0  2  0  0  3  0  0  0  0  0  0
  191.7340  172.8620  143.0290 C   0  0  1  0  0  3  0  0  0  0  0  0
  188.1980  172.8750  141.5540 N   0  0  0  0  0  2  0  0  0  0  0  0
  191.3130  173.5070  138.2430 C   0  0  0  0  0  0  0  0  0  0  0  0
  188.1640  172.9610  140.2820 N   0  0  0  0  0  0  0  0  0  0  0  0
  189.4540  173.4060  142.0880 C   0  0  2  0  0  3  0  0  0  0  0  0
  192.3370  173.1190  141.7070 N   0  0  0  0  0  0  0  0  0  0  0  0
  189.9130  173.4160  138.4410 C   0  0  0  0  0  0  0  0  0  0  0  0
  191.8340  173.4640  136.9470 C   0  0  0  0  0  3  0  0  0  0  0  0
  191.6440  173.5700  140.7010 C   0  0  0  0  0  0  0  0  0  0  0  0
  189.3950  173.4930  139.8190 C   0  0  0  0  0  0  0  0  0  0  0  0
  190.1920  173.7100  140.8410 C   0  0  1  0  0  3  0  0  0  0  0  0
  189.5890  173.2350  136.0510 C   0  0  0  0  0  3  0  0  0  0  0  0
  189.6260  172.0950  144.2310 C   0  0  0  0  0  1  0  0  0  0  0  0
  192.1970  173.5770  139.3780 N   0  0  0  0  0  2  0  0  0  0  0  0
  195.5690  174.1630  144.3030 C   0  0  2  0  0  3  0  0  0  0  0  0
  197.2510  172.4580  145.2210 C   0  0  0  0  0  2  0  0  0  0  0  0
  196.8640  173.4220  146.3280 C   0  0  0  0  0  2  0  0  0  0  0  0
  196.9670  173.9160  144.8980 C   0  0  0  0  0  3  0  0  0  0  0  0
  195.5880  174.6690  142.9320 N   0  0  0  0  0  2  0  0  0  0  0  0
  196.9490  174.5260  142.4340 C   0  0  2  0  0  3  0  0  0  0  0  0
  196.9210  176.9160  142.7460 O   0  0  0  0  0  1  0  0  0  0  0  0
  197.5400  175.8790  142.0450 C   0  0  0  0  0  2  0  0  0  0  0  0
  197.0040  173.5220  141.2880 C   0  0  0  0  0  2  0  0  0  0  0  0
  195.7450  173.3510  140.7090 O   0  0  0  0  0  0  0  0  0  0  0  0
  195.9740  173.4410  139.3370 C   0  0  0  0  0  2  0  0  0  0  0  0
  195.8060  175.1650  137.5020 N   0  0  0  0  0  1  0  0  0  0  0  0
  194.9420  175.5670  139.6220 O   0  0  0  0  0  0  0  0  0  0  0  0
  195.5330  174.7750  138.8440 C   0  0  0  0  0  0  0  0  0  0  0  0
  1  4  2  0  0  0  0
  1  8  1  0  0  0  0
  2  1  1  0  0  0  0
  3  2  2  0  0  0  0
  3  5  1  0  0  0  0
  5  4  1  0  0  0  0
  6  8  1  0  0  0  0
  6  9  1  0  0  0  0
  7  6  2  0  0  0  0
 10 11  2  0  0  0  0
 11  9  1  0  0  0  0
 12 16  1  0  0  0  0
 13 18  1  0  0  0  0
 14 15  1  0  0  0  0
 15 12  2  0  0  0  0
 15 13  1  0  0  0  0
 16 11  1  6  0  0  0
 16 17  1  0  0  0  0
 18 17  1  0  0  0  0
 20 19  1  6  0  0  0
 20  2  1  0  0  0  0
 21 20  1  0  0  0  0
 22 31  1  0  0  0  0
 23 36  1  0  0  0  0
 23 32  2  0  0  0  0
 24 25  1  0  0  0  0
 24 37  1  1  0  0  0
 25 21  1  1  0  0  0
 27 31  2  0  0  0  0
 27 38  1  0  0  0  0
 28 26  1  0  0  0  0
 29 26  1  6  0  0  0
 29 24  1  0  0  0  0
 30 25  1  0  0  0  0
 31 34  1  0  0  0  0
 32 27  1  0  0  0  0
 33 35  1  0  0  0  0
 33 30  2  0  0  0  0
 34 28  2  0  0  0  0
 35 34  1  6  0  0  0
 35 29  1  0  0  0  0
 36 22  2  0  0  0  0
 38 33  1  0  0  0  0
 39 43  1  6  0  0  0
 39 42  1  0  0  0  0
 39  3  1  0  0  0  0
 40 41  1  0  0  0  0
 42 40  1  0  0  0  0
 42 41  1  0  0  0  0
 44 47  1  6  0  0  0
 44 43  1  0  0  0  0
 46 44  1  0  0  0  0
 46 45  1  0  0  0  0
 48 47  1  0  0  0  0
 49 48  1  0  0  0  0
 50 52  1  0  0  0  0
 52 49  1  0  0  0  0
 52 51  2  0  0  0  0
M  END
>  <MODEL>
3

>  <REMARK>
 VINA RESULT:      -7.4      2.643      8.203
  Name = 
  16 active torsions:
  status: ('A' for Active; 'I' for Inactive)
    1  A    between atoms: C_2  and  N_12
    2  A    between atoms: C_2  and  C_39
    3  A    between atoms: C_2  and  C_42
    4  A    between atoms: C_3  and  O_25
    5  A    between atoms: C_3  and  C_41
    6  A    between atoms: C_5  and  C_6
    7  A    between atoms: C_5  and  C_35
    8  A    between atoms: C_6  and  C_15
    9  A    between atoms: N_12  and  C_28
   10  A    between atoms: C_14  and  C_52
   11  A    between atoms: C_18  and  N_26
   12  A    between atoms: O_25  and  C_39
   13  A    between atoms: C_28  and  C_43
   14  A    between atoms: C_28  and  C_50
   15  A    between atoms: C_32  and  C_44
   16  A    between atoms: C_44  and  C_52
                            x       y       z     vdW  Elec       q    Type
                         _______ _______ _______ _____ _____    ______ ____

>  <TORSDO>
F 16

$$$$
=
 OpenBabel11042415593D

 52 58  0  0  1  0  0  0  0  0999 V2000
  191.5830  177.2240  144.7610 C   0  0  0  0  0  0  0  0  0  0  0  0
  190.4470  176.5950  145.2210 C   0  0  0  0  0  0  0  0  0  0  0  0
  189.4040  177.2380  144.5920 C   0  0  0  0  0  0  0  0  0  0  0  0
  191.1850  178.2180  143.8850 C   0  0  0  0  0  3  0  0  0  0  0  0
  189.8690  178.1900  143.8130 O   0  0  0  0  0  0  0  0  0  0  0  0
  193.9430  176.4510  144.2060 C   0  0  0  0  0  0  0  0  0  0  0  0
  193.7110  176.3450  142.9730 O   0  0  0  0  0  0  0  0  0  0  0  0
  192.9240  176.8740  145.1180 N   0  0  0  0  0  2  0  0  0  0  0  0
  195.3090  176.1530  144.7220 C   0  0  0  0  0  2  0  0  0  0  0  0
  196.6720  176.6870  142.8780 O   0  0  0  0  0  0  0  0  0  0  0  0
  196.2220  175.8040  143.5920 C   0  0  0  0  0  0  0  0  0  0  0  0
  196.6650  173.6620  144.6320 N   0  0  0  0  0  0  0  0  0  0  0  0
  196.7720  171.6060  143.3690 C   0  0  0  0  0  2  0  0  0  0  0  0
  196.8000  171.6580  145.9600 C   0  0  0  0  0  1  0  0  0  0  0  0
  196.7760  172.3780  144.6570 C   0  0  0  0  0  0  0  0  0  0  0  0
  196.6090  174.3760  143.3700 C   0  0  1  0  0  3  0  0  0  0  0  0
  195.6480  173.6930  142.3800 C   0  0  0  0  0  2  0  0  0  0  0  0
  195.6650  172.1520  142.4650 C   0  0  0  0  0  2  0  0  0  0  0  0
  191.4800  175.4310  147.1530 C   0  0  0  0  0  1  0  0  0  0  0  0
  190.3430  175.4210  146.1500 C   0  0  2  0  0  3  0  0  0  0  0  0
  190.3410  174.1060  145.3830 C   0  0  0  0  0  2  0  0  0  0  0  0
  190.9260  169.6590  139.7870 C   0  0  0  0  0  3  0  0  0  0  0  0
  189.6490  170.7240  138.0190 C   0  0  0  0  0  3  0  0  0  0  0  0
  192.3450  173.0490  144.1950 C   0  0  2  0  0  3  0  0  0  0  0  0
  191.2680  174.1710  144.1660 C   0  0  1  0  0  3  0  0  0  0  0  0
  192.5990  170.6160  143.6490 N   0  0  0  0  0  2  0  0  0  0  0  0
  189.8640  171.8220  140.1660 C   0  0  0  0  0  0  0  0  0  0  0  0
  192.2630  170.0900  142.5360 N   0  0  0  0  0  0  0  0  0  0  0  0
  191.6720  171.6810  144.0340 C   0  0  2  0  0  3  0  0  0  0  0  0
  190.4740  174.1050  142.9250 N   0  0  0  0  0  0  0  0  0  0  0  0
  190.6450  170.7360  140.6330 C   0  0  0  0  0  0  0  0  0  0  0  0
  189.3710  171.8070  138.8580 C   0  0  0  0  0  3  0  0  0  0  0  0
  190.1950  172.9780  142.3350 C   0  0  0  0  0  0  0  0  0  0  0  0
  191.1260  170.7690  142.0270 C   0  0  0  0  0  0  0  0  0  0  0  0
  190.7900  171.7400  142.8460 C   0  0  1  0  0  3  0  0  0  0  0  0
  190.4270  169.6540  138.4810 C   0  0  0  0  0  3  0  0  0  0  0  0
  193.1810  173.1030  145.4620 C   0  0  0  0  0  1  0  0  0  0  0  0
  189.6360  172.9620  141.0140 N   0  0  0  0  0  2  0  0  0  0  0  0
  187.9560  176.8960  144.7350 C   0  0  2  0  0  3  0  0  0  0  0  0
  186.2730  176.8050  146.6690 C   0  0  0  0  0  2  0  0  0  0  0  0
  187.4570  177.6610  147.0790 C   0  0  0  0  0  2  0  0  0  0  0  0
  187.6710  176.4560  146.1830 C   0  0  0  0  0  3  0  0  0  0  0  0
  187.5710  175.9090  143.7280 N   0  0  0  0  0  2  0  0  0  0  0  0
  186.7120  176.5820  142.7640 C   0  0  2  0  0  3  0  0  0  0  0  0
  187.8040  175.8140  140.7560 O   0  0  0  0  0  1  0  0  0  0  0  0
  187.4850  176.9520  141.5000 C   0  0  0  0  0  2  0  0  0  0  0  0
  186.0300  177.7900  143.3970 C   0  0  0  0  0  2  0  0  0  0  0  0
  185.4390  178.5990  142.4250 O   0  0  0  0  0  0  0  0  0  0  0  0
  184.0920  178.2380  142.4380 C   0  0  0  0  0  2  0  0  0  0  0  0
  182.1860  177.9810  140.8060 N   0  0  0  0  0  1  0  0  0  0  0  0
  184.3640  178.3380  140.0760 O   0  0  0  0  0  0  0  0  0  0  0  0
  183.5730  178.2010  141.0440 C   0  0  0  0  0  0  0  0  0  0  0  0
  1  8  1  0  0  0  0
  1  2  1  0  0  0  0
  2 20  1  0  0  0  0
  3 39  1  0  0  0  0
  3  2  2  0  0  0  0
  4  1  2  0  0  0  0
  5  4  1  0  0  0  0
  5  3  1  0  0  0  0
  6  9  1  0  0  0  0
  6  8  1  0  0  0  0
  7  6  2  0  0  0  0
 10 11  2  0  0  0  0
 11  9  1  0  0  0  0
 12 15  2  0  0  0  0
 13 15  1  0  0  0  0
 15 14  1  0  0  0  0
 16 11  1  1  0  0  0
 16 12  1  0  0  0  0
 17 18  1  0  0  0  0
 17 16  1  0  0  0  0
 18 13  1  0  0  0  0
 20 19  1  1  0  0  0
 21 20  1  0  0  0  0
 22 31  1  0  0  0  0
 23 36  1  0  0  0  0
 23 32  2  0  0  0  0
 24 37  1  1  0  0  0
 25 24  1  0  0  0  0
 25 21  1  1  0  0  0
 27 31  2  0  0  0  0
 27 38  1  0  0  0  0
 28 26  1  0  0  0  0
 29 26  1  6  0  0  0
 29 24  1  0  0  0  0
 30 25  1  0  0  0  0
 31 34  1  0  0  0  0
 32 27  1  0  0  0  0
 33 35  1  0  0  0  0
 33 30  2  0  0  0  0
 34 28  2  0  0  0  0
 35 34  1  6  0  0  0
 35 29  1  0  0  0  0
 36 22  2  0  0  0  0
 38 33  1  0  0  0  0
 39 43  1  6  0  0  0
 39 42  1  0  0  0  0
 40 41  1  0  0  0  0
 42 40  1  0  0  0  0
 42 41  1  0  0  0  0
 44 46  1  6  0  0  0
 44 47  1  0  0  0  0
 44 43  1  0  0  0  0
 45 46  1  0  0  0  0
 48 49  1  0  0  0  0
 48 47  1  0  0  0  0
 50 52  1  0  0  0  0
 51 52  2  0  0  0  0
 52 49  1  0  0  0  0
M  END
>  <MODEL>
4

>  <REMARK>
 VINA RESULT:      -7.2      2.340      4.074
  Name = 
  16 active torsions:
  status: ('A' for Active; 'I' for Inactive)
    1  A    between atoms: C_2  and  N_12
    2  A    between atoms: C_2  and  C_39
    3  A    between atoms: C_2  and  C_42
    4  A    between atoms: C_3  and  O_25
    5  A    between atoms: C_3  and  C_41
    6  A    between atoms: C_5  and  C_6
    7  A    between atoms: C_5  and  C_35
    8  A    between atoms: C_6  and  C_15
    9  A    between atoms: N_12  and  C_28
   10  A    between atoms: C_14  and  C_52
   11  A    between atoms: C_18  and  N_26
   12  A    between atoms: O_25  and  C_39
   13  A    between atoms: C_28  and  C_43
   14  A    between atoms: C_28  and  C_50
   15  A    between atoms: C_32  and  C_44
   16  A    between atoms: C_44  and  C_52
                            x       y       z     vdW  Elec       q    Type
                         _______ _______ _______ _____ _____    ______ ____

>  <TORSDO>
F 16

$$$$
=
 OpenBabel11042415593D

 52 58  0  0  1  0  0  0  0  0999 V2000
  192.6800  176.3630  145.9130 C   0  0  0  0  0  0  0  0  0  0  0  0
  193.2570  175.7570  144.8180 C   0  0  0  0  0  0  0  0  0  0  0  0
  194.5430  175.4610  145.2120 C   0  0  0  0  0  0  0  0  0  0  0  0
  193.6330  176.4140  146.9150 C   0  0  0  0  0  3  0  0  0  0  0  0
  194.7360  175.8610  146.4510 O   0  0  0  0  0  0  0  0  0  0  0  0
  190.2480  176.1320  146.6290 C   0  0  0  0  0  0  0  0  0  0  0  0
  190.4310  175.0210  147.1910 O   0  0  0  0  0  0  0  0  0  0  0  0
  191.3260  176.8210  145.9850 N   0  0  0  0  0  2  0  0  0  0  0  0
  188.8940  176.7530  146.6540 C   0  0  0  0  0  2  0  0  0  0  0  0
  188.4200  175.7530  144.5770 O   0  0  0  0  0  0  0  0  0  0  0  0
  188.2960  176.7400  145.2860 C   0  0  0  0  0  0  0  0  0  0  0  0
  187.0600  177.7210  143.4490 N   0  0  0  0  0  0  0  0  0  0  0  0
  185.6070  179.6270  143.7360 C   0  0  0  0  0  2  0  0  0  0  0  0
  185.7210  178.2780  141.5260 C   0  0  0  0  0  1  0  0  0  0  0  0
  186.2010  178.5190  142.9160 C   0  0  0  0  0  0  0  0  0  0  0  0
  187.5140  177.9240  144.8110 C   0  0  1  0  0  3  0  0  0  0  0  0
  186.3370  178.2230  145.7570 C   0  0  0  0  0  2  0  0  0  0  0  0
  185.2270  179.0790  145.1130 C   0  0  0  0  0  2  0  0  0  0  0  0
  192.2170  176.6830  142.7650 C   0  0  0  0  0  1  0  0  0  0  0  0
  192.6270  175.4200  143.4990 C   0  0  2  0  0  3  0  0  0  0  0  0
  191.4190  174.5110  143.6780 C   0  0  0  0  0  2  0  0  0  0  0  0
  189.2890  173.0710  136.9830 C   0  0  0  0  0  3  0  0  0  0  0  0
  191.2830  173.3540  135.6290 C   0  0  0  0  0  3  0  0  0  0  0  0
  190.1910  172.5300  142.6250 C   0  0  2  0  0  3  0  0  0  0  0  0
  191.5620  173.2290  142.8540 C   0  0  1  0  0  3  0  0  0  0  0  0
  188.1810  172.6850  141.1360 N   0  0  0  0  0  2  0  0  0  0  0  0
  191.4150  173.6530  138.0280 C   0  0  0  0  0  0  0  0  0  0  0  0
  188.2310  172.7240  139.8620 N   0  0  0  0  0  0  0  0  0  0  0  0
  189.3050  173.4080  141.7340 C   0  0  2  0  0  3  0  0  0  0  0  0
  192.2200  173.5280  141.5680 N   0  0  0  0  0  0  0  0  0  0  0  0
  190.0310  173.3670  138.1310 C   0  0  0  0  0  0  0  0  0  0  0  0
  192.0320  173.6430  136.7740 C   0  0  0  0  0  3  0  0  0  0  0  0
  191.5480  173.8410  140.4970 C   0  0  0  0  0  0  0  0  0  0  0  0
  189.4050  173.4130  139.4650 C   0  0  0  0  0  0  0  0  0  0  0  0
  190.0840  173.7750  140.5290 C   0  0  1  0  0  3  0  0  0  0  0  0
  189.9170  173.0650  135.7340 C   0  0  0  0  0  3  0  0  0  0  0  0
  189.4980  172.2040  143.9370 C   0  0  0  0  0  1  0  0  0  0  0  0
  192.1920  173.8860  139.2170 N   0  0  0  0  0  2  0  0  0  0  0  0
  195.5690  174.7590  144.3830 C   0  0  2  0  0  3  0  0  0  0  0  0
  197.2580  175.5760  142.6330 C   0  0  0  0  0  2  0  0  0  0  0  0
  196.6550  176.7750  143.3410 C   0  0  0  0  0  2  0  0  0  0  0  0
  195.8050  175.5460  143.0800 C   0  0  0  0  0  3  0  0  0  0  0  0
  195.1780  173.3660  144.1710 N   0  0  0  0  0  2  0  0  0  0  0  0
  195.6110  172.6100  145.3390 C   0  0  2  0  0  3  0  0  0  0  0  0
  197.2780  171.7010  143.8530 O   0  0  0  0  0  1  0  0  0  0  0  0
  197.0420  172.1060  145.1690 C   0  0  0  0  0  2  0  0  0  0  0  0
  194.6340  171.4810  145.6460 C   0  0  0  0  0  2  0  0  0  0  0  0
  193.5370  171.5170  144.7820 O   0  0  0  0  0  0  0  0  0  0  0  0
  193.2580  170.1770  144.5130 C   0  0  0  0  0  2  0  0  0  0  0  0
  194.1340  170.5550  142.1780 N   0  0  0  0  0  1  0  0  0  0  0  0
  192.2090  169.3100  142.5610 O   0  0  0  0  0  0  0  0  0  0  0  0
  193.1630  169.9740  143.0420 C   0  0  0  0  0  0  0  0  0  0  0  0
  1  8  1  0  0  0  0
  1  4  2  0  0  0  0
  2  3  2  0  0  0  0
  2  1  1  0  0  0  0
  3  5  1  0  0  0  0
  5  4  1  0  0  0  0
  6  9  1  0  0  0  0
  6  7  2  0  0  0  0
  8  6  1  0  0  0  0
 10 11  2  0  0  0  0
 11  9  1  0  0  0  0
 12 16  1  0  0  0  0
 13 18  1  0  0  0  0
 14 15  1  0  0  0  0
 15 12  2  0  0  0  0
 15 13  1  0  0  0  0
 16 11  1  1  0  0  0
 16 17  1  0  0  0  0
 18 17  1  0  0  0  0
 20 19  1  1  0  0  0
 20 21  1  0  0  0  0
 20  2  1  0  0  0  0
 22 31  1  0  0  0  0
 23 36  1  0  0  0  0
 23 32  2  0  0  0  0
 24 25  1  0  0  0  0
 24 37  1  1  0  0  0
 25 21  1  6  0  0  0
 27 31  2  0  0  0  0
 27 38  1  0  0  0  0
 28 26  1  0  0  0  0
 29 26  1  6  0  0  0
 29 24  1  0  0  0  0
 30 25  1  0  0  0  0
 31 34  1  0  0  0  0
 32 27  1  0  0  0  0
 33 35  1  0  0  0  0
 33 30  2  0  0  0  0
 34 28  2  0  0  0  0
 35 34  1  6  0  0  0
 35 29  1  0  0  0  0
 36 22  2  0  0  0  0
 38 33  1  0  0  0  0
 39 43  1  6  0  0  0
 39  3  1  0  0  0  0
 40 42  1  0  0  0  0
 40 41  1  0  0  0  0
 42 41  1  0  0  0  0
 42 39  1  0  0  0  0
 43 44  1  0  0  0  0
 44 46  1  6  0  0  0
 44 47  1  0  0  0  0
 45 46  1  0  0  0  0
 48 47  1  0  0  0  0
 49 48  1  0  0  0  0
 50 52  1  0  0  0  0
 51 52  2  0  0  0  0
 52 49  1  0  0  0  0
M  END
>  <MODEL>
5

>  <REMARK>
 VINA RESULT:      -7.1      2.353      8.044
  Name = 
  16 active torsions:
  status: ('A' for Active; 'I' for Inactive)
    1  A    between atoms: C_2  and  N_12
    2  A    between atoms: C_2  and  C_39
    3  A    between atoms: C_2  and  C_42
    4  A    between atoms: C_3  and  O_25
    5  A    between atoms: C_3  and  C_41
    6  A    between atoms: C_5  and  C_6
    7  A    between atoms: C_5  and  C_35
    8  A    between atoms: C_6  and  C_15
    9  A    between atoms: N_12  and  C_28
   10  A    between atoms: C_14  and  C_52
   11  A    between atoms: C_18  and  N_26
   12  A    between atoms: O_25  and  C_39
   13  A    between atoms: C_28  and  C_43
   14  A    between atoms: C_28  and  C_50
   15  A    between atoms: C_32  and  C_44
   16  A    between atoms: C_44  and  C_52
                            x       y       z     vdW  Elec       q    Type
                         _______ _______ _______ _____ _____    ______ ____

>  <TORSDO>
F 16

$$$$
=
 OpenBabel11042415593D

 52 58  0  0  1  0  0  0  0  0999 V2000
  192.4390  170.8930  140.8840 C   0  0  0  0  0  0  0  0  0  0  0  0
  192.4010  172.1940  141.3360 C   0  0  0  0  0  0  0  0  0  0  0  0
  193.4590  172.2990  142.2100 C   0  0  0  0  0  0  0  0  0  0  0  0
  193.5060  170.2660  141.5030 C   0  0  0  0  0  3  0  0  0  0  0  0
  194.0910  171.1470  142.2900 O   0  0  0  0  0  0  0  0  0  0  0  0
  191.8070  170.1760  138.5260 C   0  0  0  0  0  0  0  0  0  0  0  0
  192.8950  170.5620  138.0250 O   0  0  0  0  0  0  0  0  0  0  0  0
  191.5420  170.3240  139.9250 N   0  0  0  0  0  2  0  0  0  0  0  0
  190.7870  169.5300  137.6520 C   0  0  0  0  0  2  0  0  0  0  0  0
  191.0890  169.7750  135.3310 O   0  0  0  0  0  0  0  0  0  0  0  0
  190.6670  170.2740  136.3630 C   0  0  0  0  0  0  0  0  0  0  0  0
  189.3200  171.8600  137.6030 N   0  0  0  0  0  0  0  0  0  0  0  0
  189.0700  174.1620  136.9180 C   0  0  0  0  0  2  0  0  0  0  0  0
  188.1920  173.2770  139.1900 C   0  0  0  0  0  1  0  0  0  0  0  0
  188.8520  173.0290  137.8770 C   0  0  0  0  0  0  0  0  0  0  0  0
  189.9920  171.6090  136.3420 C   0  0  1  0  0  3  0  0  0  0  0  0
  190.9970  172.7280  136.0090 C   0  0  0  0  0  2  0  0  0  0  0  0
  190.5220  174.1330  136.4340 C   0  0  0  0  0  2  0  0  0  0  0  0
  192.0930  174.1610  139.8570 C   0  0  0  0  0  1  0  0  0  0  0  0
  191.4650  173.2950  140.9300 C   0  0  2  0  0  3  0  0  0  0  0  0
  191.0700  174.1540  142.1230 C   0  0  0  0  0  2  0  0  0  0  0  0
  186.8250  177.9130  146.5140 C   0  0  0  0  0  3  0  0  0  0  0  0
  185.5030  179.3160  145.0400 C   0  0  0  0  0  3  0  0  0  0  0  0
  189.4630  173.4820  143.9970 C   0  0  2  0  0  3  0  0  0  0  0  0
  189.6070  173.9250  142.5130 C   0  0  1  0  0  3  0  0  0  0  0  0
  189.4160  174.4680  146.3010 N   0  0  0  0  0  2  0  0  0  0  0  0
  187.0960  177.7570  144.0950 C   0  0  0  0  0  0  0  0  0  0  0  0
  188.6680  175.4410  146.6510 N   0  0  0  0  0  0  0  0  0  0  0  0
  189.8850  174.6290  144.9230 C   0  0  2  0  0  3  0  0  0  0  0  0
  188.8200  175.1450  142.2510 N   0  0  0  0  0  0  0  0  0  0  0  0
  187.4520  177.3420  145.4020 C   0  0  0  0  0  0  0  0  0  0  0  0
  186.1210  178.7440  143.9230 C   0  0  0  0  0  3  0  0  0  0  0  0
  188.6510  176.0720  143.1500 C   0  0  0  0  0  0  0  0  0  0  0  0
  188.5040  176.3200  145.5490 C   0  0  0  0  0  0  0  0  0  0  0  0
  189.1510  175.8470  144.5090 C   0  0  1  0  0  3  0  0  0  0  0  0
  185.8510  178.9000  146.3310 C   0  0  0  0  0  3  0  0  0  0  0  0
  190.2590  172.2210  144.2880 C   0  0  0  0  0  1  0  0  0  0  0  0
  187.6900  177.1180  142.9500 N   0  0  0  0  0  2  0  0  0  0  0  0
  193.8660  173.5360  142.9430 C   0  0  2  0  0  3  0  0  0  0  0  0
  195.2740  175.3550  141.8050 C   0  0  0  0  0  2  0  0  0  0  0  0
  195.2970  174.1000  140.9520 C   0  0  0  0  0  2  0  0  0  0  0  0
  195.2600  173.9840  142.4640 C   0  0  0  0  0  3  0  0  0  0  0  0
  193.7770  173.3180  144.3860 N   0  0  0  0  0  2  0  0  0  0  0  0
  195.1270  173.4070  144.9240 C   0  0  2  0  0  3  0  0  0  0  0  0
  194.5620  171.3060  145.9640 O   0  0  0  0  0  1  0  0  0  0  0  0
  195.6140  172.0460  145.4200 C   0  0  0  0  0  2  0  0  0  0  0  0
  195.2100  174.4780  146.0060 C   0  0  0  0  0  2  0  0  0  0  0  0
  195.2740  175.7540  145.4440 O   0  0  0  0  0  0  0  0  0  0  0  0
  194.5360  176.5570  146.3130 C   0  0  0  0  0  2  0  0  0  0  0  0
  192.7610  176.7090  144.5280 N   0  0  0  0  0  1  0  0  0  0  0  0
  192.2020  176.4430  146.7680 O   0  0  0  0  0  0  0  0  0  0  0  0
  193.1060  176.5550  145.9000 C   0  0  0  0  0  0  0  0  0  0  0  0
  1  2  1  0  0  0  0
  1  4  2  0  0  0  0
  2  3  2  0  0  0  0
  3  5  1  0  0  0  0
  3 39  1  0  0  0  0
  4  5  1  0  0  0  0
  6  8  1  0  0  0  0
  7  6  2  0  0  0  0
  8  1  1  0  0  0  0
  9  6  1  0  0  0  0
 10 11  2  0  0  0  0
 11  9  1  0  0  0  0
 12 15  2  0  0  0  0
 13 15  1  0  0  0  0
 15 14  1  0  0  0  0
 16 11  1  1  0  0  0
 16 12  1  0  0  0  0
 17 16  1  0  0  0  0
 17 18  1  0  0  0  0
 18 13  1  0  0  0  0
 20 19  1  6  0  0  0
 20  2  1  0  0  0  0
 20 21  1  0  0  0  0
 23 36  2  0  0  0  0
 24 37  1  6  0  0  0
 24 29  1  0  0  0  0
 25 21  1  1  0  0  0
 25 24  1  0  0  0  0
 26 28  1  0  0  0  0
 27 31  1  0  0  0  0
 29 26  1  1  0  0  0
 30 25  1  0  0  0  0
 30 33  2  0  0  0  0
 31 34  1  0  0  0  0
 31 22  2  0  0  0  0
 32 27  2  0  0  0  0
 32 23  1  0  0  0  0
 34 28  2  0  0  0  0
 35 33  1  6  0  0  0
 35 29  1  0  0  0  0
 35 34  1  0  0  0  0
 36 22  1  0  0  0  0
 38 33  1  0  0  0  0
 38 27  1  0  0  0  0
 39 43  1  1  0  0  0
 40 42  1  0  0  0  0
 41 40  1  0  0  0  0
 41 42  1  0  0  0  0
 42 39  1  0  0  0  0
 43 44  1  0  0  0  0
 44 46  1  1  0  0  0
 44 47  1  0  0  0  0
 46 45  1  0  0  0  0
 48 47  1  0  0  0  0
 48 49  1  0  0  0  0
 50 52  1  0  0  0  0
 52 49  1  0  0  0  0
 52 51  2  0  0  0  0
M  END
>  <MODEL>
6

>  <REMARK>
 VINA RESULT:      -6.9      2.623      8.856
  Name = 
  16 active torsions:
  status: ('A' for Active; 'I' for Inactive)
    1  A    between atoms: C_2  and  N_12
    2  A    between atoms: C_2  and  C_39
    3  A    between atoms: C_2  and  C_42
    4  A    between atoms: C_3  and  O_25
    5  A    between atoms: C_3  and  C_41
    6  A    between atoms: C_5  and  C_6
    7  A    between atoms: C_5  and  C_35
    8  A    between atoms: C_6  and  C_15
    9  A    between atoms: N_12  and  C_28
   10  A    between atoms: C_14  and  C_52
   11  A    between atoms: C_18  and  N_26
   12  A    between atoms: O_25  and  C_39
   13  A    between atoms: C_28  and  C_43
   14  A    between atoms: C_28  and  C_50
   15  A    between atoms: C_32  and  C_44
   16  A    between atoms: C_44  and  C_52
                            x       y       z     vdW  Elec       q    Type
                         _______ _______ _______ _____ _____    ______ ____

>  <TORSDO>
F 16

$$$$
=
 OpenBabel11042415593D

 52 58  0  0  1  0  0  0  0  0999 V2000
  192.4940  175.0230  144.9470 C   0  0  0  0  0  0  0  0  0  0  0  0
  192.8600  174.1770  143.9220 C   0  0  0  0  0  0  0  0  0  0  0  0
  193.5720  173.1680  144.5310 C   0  0  0  0  0  0  0  0  0  0  0  0
  193.0020  174.5000  146.1230 C   0  0  0  0  0  3  0  0  0  0  0  0
  193.6410  173.3860  145.8270 O   0  0  0  0  0  0  0  0  0  0  0  0
  190.3270  176.3400  145.1610 C   0  0  0  0  0  0  0  0  0  0  0  0
  189.6870  175.3720  145.6480 O   0  0  0  0  0  0  0  0  0  0  0  0
  191.7060  176.2080  144.7990 N   0  0  0  0  0  2  0  0  0  0  0  0
  189.6450  177.6530  144.9810 C   0  0  0  0  0  2  0  0  0  0  0  0
  188.9610  177.3290  142.7520 O   0  0  0  0  0  0  0  0  0  0  0  0
  188.6170  177.5560  143.9030 C   0  0  0  0  0  0  0  0  0  0  0  0
  187.0040  177.9140  145.6730 N   0  0  0  0  0  0  0  0  0  0  0  0
  184.7110  178.5280  145.2330 C   0  0  0  0  0  2  0  0  0  0  0  0
  185.7200  178.5150  147.6200 C   0  0  0  0  0  1  0  0  0  0  0  0
  185.8640  178.2660  146.1580 C   0  0  0  0  0  0  0  0  0  0  0  0
  187.1680  177.6980  144.2490 C   0  0  1  0  0  3  0  0  0  0  0  0
  186.5150  178.8270  143.4300 C   0  0  0  0  0  2  0  0  0  0  0  0
  185.2050  179.3590  144.0460 C   0  0  0  0  0  2  0  0  0  0  0  0
  193.2580  175.4230  141.8150 C   0  0  0  0  0  1  0  0  0  0  0  0
  192.5130  174.2740  142.4660 C   0  0  2  0  0  3  0  0  0  0  0  0
  191.0150  174.4470  142.2630 C   0  0  0  0  0  2  0  0  0  0  0  0
  189.8220  171.7260  135.7360 C   0  0  0  0  0  3  0  0  0  0  0  0
  191.6270  170.1400  135.3920 C   0  0  0  0  0  3  0  0  0  0  0  0
  188.9740  173.3600  141.1710 C   0  0  2  0  0  3  0  0  0  0  0  0
  190.3530  173.1300  141.8520 C   0  0  1  0  0  3  0  0  0  0  0  0
  188.0100  173.9770  138.9410 N   0  0  0  0  0  2  0  0  0  0  0  0
  191.4730  171.3390  137.4890 C   0  0  0  0  0  0  0  0  0  0  0  0
  188.3140  173.4030  137.8430 N   0  0  0  0  0  0  0  0  0  0  0  0
  189.1710  174.0730  139.8280 C   0  0  2  0  0  3  0  0  0  0  0  0
  191.2540  172.3690  140.9660 N   0  0  0  0  0  0  0  0  0  0  0  0
  190.3160  172.0040  137.0140 C   0  0  0  0  0  0  0  0  0  0  0  0
  192.1210  170.4080  136.6720 C   0  0  0  0  0  3  0  0  0  0  0  0
  191.2280  172.4950  139.6700 C   0  0  0  0  0  0  0  0  0  0  0  0
  189.6740  173.0010  137.8910 C   0  0  0  0  0  0  0  0  0  0  0  0
  190.1870  173.3230  139.0550 C   0  0  1  0  0  3  0  0  0  0  0  0
  190.4790  170.7940  134.9270 C   0  0  0  0  0  3  0  0  0  0  0  0
  188.0240  174.1350  142.0700 C   0  0  0  0  0  1  0  0  0  0  0  0
  191.9380  171.5730  138.8320 N   0  0  0  0  0  2  0  0  0  0  0  0
  194.1580  171.9780  143.8430 C   0  0  2  0  0  3  0  0  0  0  0  0
  193.0220  169.7420  143.3050 C   0  0  0  0  0  2  0  0  0  0  0  0
  192.0330  170.6430  144.0220 C   0  0  0  0  0  2  0  0  0  0  0  0
  193.5050  170.6940  144.3870 C   0  0  0  0  0  3  0  0  0  0  0  0
  195.6160  171.9970  143.9600 N   0  0  0  0  0  2  0  0  0  0  0  0
  196.1620  171.9330  142.6120 C   0  0  2  0  0  3  0  0  0  0  0  0
  197.0010  169.8030  143.3690 O   0  0  0  0  0  1  0  0  0  0  0  0
  196.5610  170.5050  142.2450 C   0  0  0  0  0  2  0  0  0  0  0  0
  197.3170  172.9140  142.4490 C   0  0  0  0  0  2  0  0  0  0  0  0
  197.6200  173.5390  143.6600 O   0  0  0  0  0  0  0  0  0  0  0  0
  197.9410  174.8500  143.3070 C   0  0  0  0  0  2  0  0  0  0  0  0
  196.4660  176.7710  142.6040 N   0  0  0  0  0  1  0  0  0  0  0  0
  196.0380  175.5670  144.5450 O   0  0  0  0  0  0  0  0  0  0  0  0
  196.7600  175.7290  143.5280 C   0  0  0  0  0  0  0  0  0  0  0  0
  1  4  2  0  0  0  0
  2  3  2  0  0  0  0
  2  1  1  0  0  0  0
  3  5  1  0  0  0  0
  5  4  1  0  0  0  0
  6  7  2  0  0  0  0
  8  1  1  0  0  0  0
  8  6  1  0  0  0  0
  9  6  1  0  0  0  0
 10 11  2  0  0  0  0
 11  9  1  0  0  0  0
 12 15  2  0  0  0  0
 13 15  1  0  0  0  0
 15 14  1  0  0  0  0
 16 11  1  1  0  0  0
 16 12  1  0  0  0  0
 17 18  1  0  0  0  0
 17 16  1  0  0  0  0
 18 13  1  0  0  0  0
 20 19  1  1  0  0  0
 20  2  1  0  0  0  0
 21 20  1  0  0  0  0
 22 31  1  0  0  0  0
 23 32  2  0  0  0  0
 24 25  1  0  0  0  0
 24 37  1  1  0  0  0
 25 21  1  6  0  0  0
 27 38  1  0  0  0  0
 28 34  2  0  0  0  0
 28 26  1  0  0  0  0
 29 26  1  6  0  0  0
 29 24  1  0  0  0  0
 30 25  1  0  0  0  0
 31 27  2  0  0  0  0
 31 34  1  0  0  0  0
 32 27  1  0  0  0  0
 33 30  2  0  0  0  0
 35 34  1  6  0  0  0
 35 33  1  0  0  0  0
 35 29  1  0  0  0  0
 36 23  1  0  0  0  0
 36 22  2  0  0  0  0
 38 33  1  0  0  0  0
 39 43  1  1  0  0  0
 39 42  1  0  0  0  0
 39  3  1  0  0  0  0
 40 41  1  0  0  0  0
 40 42  1  0  0  0  0
 41 42  1  0  0  0  0
 44 46  1  1  0  0  0
 44 43  1  0  0  0  0
 46 45  1  0  0  0  0
 47 44  1  0  0  0  0
 47 48  1  0  0  0  0
 49 52  1  0  0  0  0
 49 48  1  0  0  0  0
 50 52  1  0  0  0  0
 52 51  2  0  0  0  0
M  END
>  <MODEL>
7

>  <REMARK>
 VINA RESULT:      -6.9      2.214      8.192
  Name = 
  16 active torsions:
  status: ('A' for Active; 'I' for Inactive)
    1  A    between atoms: C_2  and  N_12
    2  A    between atoms: C_2  and  C_39
    3  A    between atoms: C_2  and  C_42
    4  A    between atoms: C_3  and  O_25
    5  A    between atoms: C_3  and  C_41
    6  A    between atoms: C_5  and  C_6
    7  A    between atoms: C_5  and  C_35
    8  A    between atoms: C_6  and  C_15
    9  A    between atoms: N_12  and  C_28
   10  A    between atoms: C_14  and  C_52
   11  A    between atoms: C_18  and  N_26
   12  A    between atoms: O_25  and  C_39
   13  A    between atoms: C_28  and  C_43
   14  A    between atoms: C_28  and  C_50
   15  A    between atoms: C_32  and  C_44
   16  A    between atoms: C_44  and  C_52
                            x       y       z     vdW  Elec       q    Type
                         _______ _______ _______ _____ _____    ______ ____

>  <TORSDO>
F 16

$$$$
=
 OpenBabel11042415593D

 52 58  0  0  1  0  0  0  0  0999 V2000
  193.1020  174.8480  146.0310 C   0  0  0  0  0  0  0  0  0  0  0  0
  193.5790  173.8790  145.1750 C   0  0  0  0  0  0  0  0  0  0  0  0
  194.8940  174.2190  144.9510 C   0  0  0  0  0  0  0  0  0  0  0  0
  194.1370  175.7310  146.2840 C   0  0  0  0  0  3  0  0  0  0  0  0
  195.1940  175.3140  145.6160 O   0  0  0  0  0  0  0  0  0  0  0  0
  190.6020  175.2950  145.8570 C   0  0  0  0  0  0  0  0  0  0  0  0
  190.6650  175.6600  144.6540 O   0  0  0  0  0  0  0  0  0  0  0  0
  191.7770  174.8940  146.5710 N   0  0  0  0  0  2  0  0  0  0  0  0
  189.2810  175.2580  146.5440 C   0  0  0  0  0  2  0  0  0  0  0  0
  189.0760  177.5310  147.1190 O   0  0  0  0  0  0  0  0  0  0  0  0
  188.6250  176.5980  146.4730 C   0  0  0  0  0  0  0  0  0  0  0  0
  186.3150  177.3100  146.3300 N   0  0  0  0  0  0  0  0  0  0  0  0
  185.2330  177.7890  144.2250 C   0  0  0  0  0  2  0  0  0  0  0  0
  184.1270  178.3010  146.5120 C   0  0  0  0  0  1  0  0  0  0  0  0
  185.2640  177.7450  145.7250 C   0  0  0  0  0  0  0  0  0  0  0  0
  187.4420  176.7940  145.5770 C   0  0  1  0  0  3  0  0  0  0  0  0
  187.7950  177.7130  144.3930 C   0  0  0  0  0  2  0  0  0  0  0  0
  186.5630  178.3500  143.7160 C   0  0  0  0  0  2  0  0  0  0  0  0
  193.7810  171.4650  144.6440 C   0  0  0  0  0  1  0  0  0  0  0  0
  192.8640  172.6720  144.6420 C   0  0  2  0  0  3  0  0  0  0  0  0
  192.3350  172.9180  143.2360 C   0  0  0  0  0  2  0  0  0  0  0  0
  189.3160  171.7960  136.8290 C   0  0  0  0  0  3  0  0  0  0  0  0
  190.9670  170.5250  135.5840 C   0  0  0  0  0  3  0  0  0  0  0  0
  190.0830  171.9440  142.5140 C   0  0  2  0  0  3  0  0  0  0  0  0
  191.6060  171.6860  142.6930 C   0  0  1  0  0  3  0  0  0  0  0  0
  188.4910  172.9980  140.8910 N   0  0  0  0  0  2  0  0  0  0  0  0
  191.4190  171.1470  137.8800 C   0  0  0  0  0  0  0  0  0  0  0  0
  188.4670  172.7460  139.6400 N   0  0  0  0  0  0  0  0  0  0  0  0
  189.8600  172.9820  141.4080 C   0  0  2  0  0  3  0  0  0  0  0  0
  192.2190  171.2580  141.4210 N   0  0  0  0  0  0  0  0  0  0  0  0
  190.1610  171.7950  137.9430 C   0  0  0  0  0  0  0  0  0  0  0  0
  191.8140  170.5150  136.6980 C   0  0  0  0  0  3  0  0  0  0  0  0
  191.8080  171.6980  140.2670 C   0  0  0  0  0  0  0  0  0  0  0  0
  189.7870  172.4770  139.1960 C   0  0  0  0  0  0  0  0  0  0  0  0
  190.6160  172.5490  140.2110 C   0  0  1  0  0  3  0  0  0  0  0  0
  189.7210  171.1610  135.6500 C   0  0  0  0  0  3  0  0  0  0  0  0
  189.4280  172.3770  143.8140 C   0  0  0  0  0  1  0  0  0  0  0  0
  192.2560  171.0850  139.0500 N   0  0  0  0  0  2  0  0  0  0  0  0
  195.8620  173.4510  144.1100 C   0  0  2  0  0  3  0  0  0  0  0  0
  197.5350  171.6980  144.9510 C   0  0  0  0  0  2  0  0  0  0  0  0
  196.8220  172.3170  146.1400 C   0  0  0  0  0  2  0  0  0  0  0  0
  197.1380  173.1660  144.9220 C   0  0  0  0  0  3  0  0  0  0  0  0
  196.1050  174.1570  142.8520 N   0  0  0  0  0  2  0  0  0  0  0  0
  195.5940  173.3180  141.7760 C   0  0  2  0  0  3  0  0  0  0  0  0
  195.5990  170.9100  141.6490 O   0  0  0  0  0  1  0  0  0  0  0  0
  196.4190  172.0410  141.6340 C   0  0  0  0  0  2  0  0  0  0  0  0
  195.5140  174.1010  140.4710 C   0  0  0  0  0  2  0  0  0  0  0  0
  194.3910  173.7280  139.7300 O   0  0  0  0  0  0  0  0  0  0  0  0
  193.8460  174.9330  139.2870 C   0  0  0  0  0  2  0  0  0  0  0  0
  192.5060  174.4660  137.2020 N   0  0  0  0  0  1  0  0  0  0  0  0
  194.6920  175.2480  137.0840 O   0  0  0  0  0  0  0  0  0  0  0  0
  193.7190  174.9070  137.8040 C   0  0  0  0  0  0  0  0  0  0  0  0
  1  4  2  0  0  0  0
  1  8  1  0  0  0  0
  2  1  1  0  0  0  0
  3  2  2  0  0  0  0
  3  5  1  0  0  0  0
  5  4  1  0  0  0  0
  6  9  1  0  0  0  0
  6  8  1  0  0  0  0
  7  6  2  0  0  0  0
 11  9  1  0  0  0  0
 11 10  2  0  0  0  0
 13 15  1  0  0  0  0
 15 12  2  0  0  0  0
 15 14  1  0  0  0  0
 16 12  1  0  0  0  0
 16 11  1  1  0  0  0
 17 16  1  0  0  0  0
 18 13  1  0  0  0  0
 18 17  1  0  0  0  0
 20 19  1  6  0  0  0
 20  2  1  0  0  0  0
 21 20  1  0  0  0  0
 22 31  1  0  0  0  0
 23 36  1  0  0  0  0
 23 32  2  0  0  0  0
 24 25  1  0  0  0  0
 24 37  1  1  0  0  0
 25 21  1  6  0  0  0
 27 31  2  0  0  0  0
 27 38  1  0  0  0  0
 28 26  1  0  0  0  0
 29 26  1  6  0  0  0
 29 24  1  0  0  0  0
 30 25  1  0  0  0  0
 31 34  1  0  0  0  0
 32 27  1  0  0  0  0
 33 30  2  0  0  0  0
 34 28  2  0  0  0  0
 35 34  1  6  0  0  0
 35 33  1  0  0  0  0
 35 29  1  0  0  0  0
 36 22  2  0  0  0  0
 38 33  1  0  0  0  0
 39 43  1  6  0  0  0
 39 42  1  0  0  0  0
 39  3  1  0  0  0  0
 40 41  1  0  0  0  0
 42 40  1  0  0  0  0
 42 41  1  0  0  0  0
 44 47  1  6  0  0  0
 44 43  1  0  0  0  0
 46 45  1  0  0  0  0
 46 44  1  0  0  0  0
 48 47  1  0  0  0  0
 49 48  1  0  0  0  0
 50 52  1  0  0  0  0
 51 52  2  0  0  0  0
 52 49  1  0  0  0  0
M  END
>  <MODEL>
8

>  <REMARK>
 VINA RESULT:      -6.9      2.282      7.909
  Name = 
  16 active torsions:
  status: ('A' for Active; 'I' for Inactive)
    1  A    between atoms: C_2  and  N_12
    2  A    between atoms: C_2  and  C_39
    3  A    between atoms: C_2  and  C_42
    4  A    between atoms: C_3  and  O_25
    5  A    between atoms: C_3  and  C_41
    6  A    between atoms: C_5  and  C_6
    7  A    between atoms: C_5  and  C_35
    8  A    between atoms: C_6  and  C_15
    9  A    between atoms: N_12  and  C_28
   10  A    between atoms: C_14  and  C_52
   11  A    between atoms: C_18  and  N_26
   12  A    between atoms: O_25  and  C_39
   13  A    between atoms: C_28  and  C_43
   14  A    between atoms: C_28  and  C_50
   15  A    between atoms: C_32  and  C_44
   16  A    between atoms: C_44  and  C_52
                            x       y       z     vdW  Elec       q    Type
                         _______ _______ _______ _____ _____    ______ ____

>  <TORSDO>
F 16

$$$$
=
 OpenBabel11042415593D

 52 58  0  0  1  0  0  0  0  0999 V2000
  192.5820  175.3010  146.0660 C   0  0  0  0  0  0  0  0  0  0  0  0
  191.5740  175.1070  145.1470 C   0  0  0  0  0  0  0  0  0  0  0  0
  190.6300  176.0630  145.4480 C   0  0  0  0  0  0  0  0  0  0  0  0
  192.2080  176.3530  146.8830 C   0  0  0  0  0  3  0  0  0  0  0  0
  191.0300  176.7810  146.4760 O   0  0  0  0  0  0  0  0  0  0  0  0
  195.0830  175.0180  145.6880 C   0  0  0  0  0  0  0  0  0  0  0  0
  195.2240  176.1660  145.1910 O   0  0  0  0  0  0  0  0  0  0  0  0
  193.8020  174.5540  146.1250 N   0  0  0  0  0  2  0  0  0  0  0  0
  196.2740  174.1370  145.8460 C   0  0  0  0  0  2  0  0  0  0  0  0
  196.1120  172.9040  143.8480 O   0  0  0  0  0  0  0  0  0  0  0  0
  196.0880  172.8760  145.0690 C   0  0  0  0  0  0  0  0  0  0  0  0
  194.7920  170.8390  145.2540 N   0  0  0  0  0  0  0  0  0  0  0  0
  195.5670  168.9170  146.4930 C   0  0  0  0  0  2  0  0  0  0  0  0
  193.4490  168.8560  145.0010 C   0  0  0  0  0  1  0  0  0  0  0  0
  194.5890  169.6120  145.5910 C   0  0  0  0  0  0  0  0  0  0  0  0
  195.9150  171.5790  145.7960 C   0  0  1  0  0  3  0  0  0  0  0  0
  197.2100  170.7470  145.7530 C   0  0  0  0  0  2  0  0  0  0  0  0
  196.9890  169.2460  146.0330 C   0  0  0  0  0  2  0  0  0  0  0  0
  191.3930  172.7080  144.5430 C   0  0  0  0  0  1  0  0  0  0  0  0
  191.5210  174.1240  144.0150 C   0  0  2  0  0  3  0  0  0  0  0  0
  192.7510  174.2360  143.1270 C   0  0  0  0  0  2  0  0  0  0  0  0
  192.1000  171.3170  136.6080 C   0  0  0  0  0  3  0  0  0  0  0  0
  189.7100  171.0270  136.3000 C   0  0  0  0  0  3  0  0  0  0  0  0
  193.6300  174.9030  140.8190 C   0  0  2  0  0  3  0  0  0  0  0  0
  192.4110  174.8890  141.7850 C   0  0  1  0  0  3  0  0  0  0  0  0
  194.8350  173.3910  139.2240 N   0  0  0  0  0  2  0  0  0  0  0  0
  190.5380  172.0490  138.3330 C   0  0  0  0  0  0  0  0  0  0  0  0
  194.2670  172.7280  138.2940 N   0  0  0  0  0  0  0  0  0  0  0  0
  193.9870  173.4680  140.4150 C   0  0  2  0  0  3  0  0  0  0  0  0
  191.2610  174.2020  141.1680 N   0  0  0  0  0  0  0  0  0  0  0  0
  191.8640  171.8960  137.8590 C   0  0  0  0  0  0  0  0  0  0  0  0
  189.4670  171.6120  137.5470 C   0  0  0  0  0  3  0  0  0  0  0  0
  191.4040  173.1950  140.3540 C   0  0  0  0  0  0  0  0  0  0  0  0
  192.9710  172.3410  138.7250 C   0  0  0  0  0  0  0  0  0  0  0  0
  192.7530  172.8050  139.9340 C   0  0  1  0  0  3  0  0  0  0  0  0
  191.0210  170.8830  135.8310 C   0  0  0  0  0  3  0  0  0  0  0  0
  194.8250  175.6140  141.4310 C   0  0  0  0  0  1  0  0  0  0  0  0
  190.2930  172.7100  139.5880 N   0  0  0  0  0  2  0  0  0  0  0  0
  189.3510  176.2890  144.7080 C   0  0  2  0  0  3  0  0  0  0  0  0
  189.2580  177.6780  142.5540 C   0  0  0  0  0  2  0  0  0  0  0  0
  190.6070  177.8820  143.2200 C   0  0  0  0  0  2  0  0  0  0  0  0
  189.3650  177.6900  144.0710 C   0  0  0  0  0  3  0  0  0  0  0  0
  188.2100  176.0510  145.5910 N   0  0  0  0  0  2  0  0  0  0  0  0
  187.3550  177.2280  145.5250 C   0  0  2  0  0  3  0  0  0  0  0  0
  186.2890  176.8020  147.6460 O   0  0  0  0  0  1  0  0  0  0  0  0
  187.0210  177.7460  146.9230 C   0  0  0  0  0  2  0  0  0  0  0  0
  186.1040  176.9430  144.7020 C   0  0  0  0  0  2  0  0  0  0  0  0
  185.3260  178.0920  144.5570 O   0  0  0  0  0  0  0  0  0  0  0  0
  185.8450  178.7280  143.4290 C   0  0  0  0  0  2  0  0  0  0  0  0
  183.6090  178.2740  142.3510 N   0  0  0  0  0  1  0  0  0  0  0  0
  185.5870  178.1400  141.1370 O   0  0  0  0  0  0  0  0  0  0  0  0
  185.0250  178.3750  142.2380 C   0  0  0  0  0  0  0  0  0  0  0  0
  1  8  1  0  0  0  0
  1  4  2  0  0  0  0
  2  3  2  0  0  0  0
  2  1  1  0  0  0  0
  3  5  1  0  0  0  0
  5  4  1  0  0  0  0
  6  9  1  0  0  0  0
  6  8  1  0  0  0  0
  7  6  2  0  0  0  0
 10 11  2  0  0  0  0
 11  9  1  0  0  0  0
 12 15  2  0  0  0  0
 12 16  1  0  0  0  0
 14 15  1  0  0  0  0
 15 13  1  0  0  0  0
 16 11  1  6  0  0  0
 17 16  1  0  0  0  0
 17 18  1  0  0  0  0
 18 13  1  0  0  0  0
 20 19  1  1  0  0  0
 20  2  1  0  0  0  0
 21 20  1  0  0  0  0
 22 31  1  0  0  0  0
 23 32  2  0  0  0  0
 24 37  1  1  0  0  0
 24 25  1  0  0  0  0
 25 21  1  1  0  0  0
 27 38  1  0  0  0  0
 28 34  2  0  0  0  0
 28 26  1  0  0  0  0
 29 26  1  6  0  0  0
 29 24  1  0  0  0  0
 30 25  1  0  0  0  0
 31 27  2  0  0  0  0
 31 34  1  0  0  0  0
 32 27  1  0  0  0  0
 33 30  2  0  0  0  0
 35 34  1  6  0  0  0
 35 33  1  0  0  0  0
 35 29  1  0  0  0  0
 36 23  1  0  0  0  0
 36 22  2  0  0  0  0
 38 33  1  0  0  0  0
 39  3  1  0  0  0  0
 39 43  1  1  0  0  0
 40 41  1  0  0  0  0
 40 42  1  0  0  0  0
 41 42  1  0  0  0  0
 42 39  1  0  0  0  0
 44 47  1  1  0  0  0
 44 43  1  0  0  0  0
 44 46  1  0  0  0  0
 46 45  1  0  0  0  0
 48 47  1  0  0  0  0
 49 48  1  0  0  0  0
 51 52  2  0  0  0  0
 52 50  1  0  0  0  0
 52 49  1  0  0  0  0
M  END
>  <MODEL>
9

>  <REMARK>
 VINA RESULT:      -6.9      2.004      2.670
  Name = 
  16 active torsions:
  status: ('A' for Active; 'I' for Inactive)
    1  A    between atoms: C_2  and  N_12
    2  A    between atoms: C_2  and  C_39
    3  A    between atoms: C_2  and  C_42
    4  A    between atoms: C_3  and  O_25
    5  A    between atoms: C_3  and  C_41
    6  A    between atoms: C_5  and  C_6
    7  A    between atoms: C_5  and  C_35
    8  A    between atoms: C_6  and  C_15
    9  A    between atoms: N_12  and  C_28
   10  A    between atoms: C_14  and  C_52
   11  A    between atoms: C_18  and  N_26
   12  A    between atoms: O_25  and  C_39
   13  A    between atoms: C_28  and  C_43
   14  A    between atoms: C_28  and  C_50
   15  A    between atoms: C_32  and  C_44
   16  A    between atoms: C_44  and  C_52
                            x       y       z     vdW  Elec       q    Type
                         _______ _______ _______ _____ _____    ______ ____

>  <TORSDO>
F 16

$$$$
