=
 OpenBabel11042413443D

 30 36  0  0  1  0  0  0  0  0999 V2000
  185.8650  179.1720  144.7600 C   0  0  0  0  0  2  0  0  0  0  0  0
  186.7200  178.0940  145.4080 C   0  0  1  0  0  0  0  0  0  0  0  0
  189.1150  174.6020  141.7730 C   0  0  0  0  0  0  0  0  0  0  0  0
  190.4230  176.6150  146.8390 C   0  0  0  0  0  0  0  0  0  0  0  0
  189.9300  173.4710  141.8420 C   0  0  0  0  0  3  0  0  0  0  0  0
  190.0460  172.6870  140.6830 C   0  0  0  0  0  3  0  0  0  0  0  0
  190.6130  176.8590  148.1610 F   0  0  0  0  0  0  0  0  0  0  0  0
  188.8460  175.5050  142.7450 N   0  0  0  0  0  0  0  0  0  0  0  0
  189.3440  175.5960  144.1020 C   0  0  0  0  0  0  0  0  0  0  0  0
  188.7700  176.5100  144.9390 C   0  0  0  0  0  0  0  0  0  0  0  0
  187.5070  177.5980  142.9330 C   0  0  0  0  0  2  0  0  0  0  0  0
  186.2450  176.7030  144.9090 C   0  0  1  0  0  3  0  0  0  0  0  0
  190.4110  174.6550  144.5220 C   0  0  0  0  0  3  0  0  0  0  0  0
  188.4530  174.9300  140.6130 C   0  0  0  0  0  0  0  0  0  0  0  0
  187.5610  177.2800  144.4300 C   0  0  2  0  0  0  0  0  0  0  0  0
  189.1940  176.7460  146.3440 C   0  0  0  0  0  3  0  0  0  0  0  0
  191.5830  176.2770  145.9590 C   0  0  2  0  0  3  0  0  0  0  0  0
  187.7400  176.0880  140.8610 C   0  0  0  0  0  0  0  0  0  0  0  0
  185.7740  177.2620  146.2260 C   0  0  2  0  0  0  0  0  0  0  0  0
  192.2800  173.9180  145.6610 F   0  0  0  0  0  0  0  0  0  0  0  0
  186.8740  176.8470  139.9140 C   0  0  0  0  0  1  0  0  0  0  0  0
  188.0040  176.4050  142.1850 C   0  0  0  0  0  0  0  0  0  0  0  0
  187.9070  174.4600  138.2600 N   0  0  0  0  0  1  0  0  0  0  0  0
  189.3800  173.0310  139.5370 N   0  0  0  0  0  0  0  0  0  0  0  0
  188.5830  174.1370  139.4710 C   0  0  0  0  0  0  0  0  0  0  0  0
  184.4400  177.9720  146.3220 C   0  0  0  0  0  2  0  0  0  0  0  0
  191.3990  174.9110  145.3780 C   0  0  0  0  0  0  0  0  0  0  0  0
  192.9040  176.3910  146.7060 C   0  0  0  0  0  1  0  0  0  0  0  0
  184.6280  179.3110  145.6310 C   0  0  0  0  0  2  0  0  0  0  0  0
  186.3730  176.7220  147.4340 N   0  0  0  0  0  1  0  0  0  0  0  0
  1 29  1  0  0  0  0
  2  1  1  6  0  0  0
  2 19  1  0  0  0  0
  3  5  1  0  0  0  0
  3  8  1  0  0  0  0
  4  7  1  0  0  0  0
  6  5  2  0  0  0  0
  8  9  1  0  0  0  0
  9 13  1  0  0  0  0
  9 10  2  0  0  0  0
 10 16  1  0  0  0  0
 11 15  1  0  0  0  0
 12  2  1  0  0  0  0
 12 19  1  0  0  0  0
 13 27  2  0  0  0  0
 14 18  1  0  0  0  0
 14  3  2  0  0  0  0
 15 12  1  0  0  0  0
 15 10  1  0  0  0  0
 15  2  1  0  0  0  0
 16  4  2  0  0  0  0
 17 28  1  0  0  0  0
 17  4  1  0  0  0  0
 18 22  2  0  0  0  0
 19 26  1  0  0  0  0
 19 30  1  0  0  0  0
 21 18  1  0  0  0  0
 22  8  1  0  0  0  0
 22 11  1  0  0  0  0
 23 25  1  0  0  0  0
 24  6  1  0  0  0  0
 25 24  2  0  0  0  0
 25 14  1  0  0  0  0
 27 20  1  0  0  0  0
 27 17  1  0  0  0  0
 29 26  1  0  0  0  0
M  END
>  <MODEL>
1

>  <REMARK>
 VINA RESULT:     -10.2      0.000      0.000
  Name = 
  0 active torsions:
  status: ('A' for Active; 'I' for Inactive)
                            x       y       z     vdW  Elec       q    Type
                         _______ _______ _______ _____ _____    ______ ____

>  <TORSDO>
F 0

$$$$
=
 OpenBabel11042413443D

 30 36  0  0  1  0  0  0  0  0999 V2000
  186.1290  179.0700  143.6250 C   0  0  0  0  0  2  0  0  0  0  0  0
  186.7900  178.2910  144.7520 C   0  0  1  0  0  0  0  0  0  0  0  0
  189.5490  173.7450  143.0560 C   0  0  0  0  0  0  0  0  0  0  0  0
  190.0920  177.4150  147.2590 C   0  0  0  0  0  0  0  0  0  0  0  0
  190.2670  172.7130  143.6610 C   0  0  0  0  0  3  0  0  0  0  0  0
  190.5300  171.5700  142.8870 C   0  0  0  0  0  3  0  0  0  0  0  0
  190.0660  178.1100  148.4250 F   0  0  0  0  0  0  0  0  0  0  0  0
  189.1740  174.9320  143.5880 N   0  0  0  0  0  0  0  0  0  0  0  0
  189.4360  175.4970  144.8960 C   0  0  0  0  0  0  0  0  0  0  0  0
  188.7860  176.6450  145.2440 C   0  0  0  0  0  0  0  0  0  0  0  0
  187.9580  176.9550  142.7900 C   0  0  0  0  0  2  0  0  0  0  0  0
  186.3210  176.8120  144.6880 C   0  0  1  0  0  3  0  0  0  0  0  0
  190.3540  174.7650  145.8040 C   0  0  0  0  0  3  0  0  0  0  0  0
  189.1180  173.6420  141.7540 C   0  0  0  0  0  0  0  0  0  0  0  0
  187.7330  177.1860  144.2880 C   0  0  2  0  0  0  0  0  0  0  0  0
  188.9760  177.3620  146.5330 C   0  0  0  0  0  3  0  0  0  0  0  0
  191.3620  176.7910  146.7780 C   0  0  2  0  0  3  0  0  0  0  0  0
  188.4470  174.8120  141.4500 C   0  0  0  0  0  0  0  0  0  0  0  0
  185.6670  177.7990  145.6200 C   0  0  2  0  0  0  0  0  0  0  0  0
  191.9490  174.4790  147.4490 F   0  0  0  0  0  0  0  0  0  0  0  0
  187.8070  175.1880  140.1570 C   0  0  0  0  0  1  0  0  0  0  0  0
  188.4990  175.5760  142.6070 C   0  0  0  0  0  0  0  0  0  0  0  0
  188.9560  172.3730  139.6520 N   0  0  0  0  0  1  0  0  0  0  0  0
  190.0940  171.4880  141.5920 N   0  0  0  0  0  0  0  0  0  0  0  0
  189.3920  172.4980  141.0020 C   0  0  0  0  0  0  0  0  0  0  0  0
  184.3840  178.4960  145.2170 C   0  0  0  0  0  2  0  0  0  0  0  0
  191.1940  175.3080  146.6830 C   0  0  0  0  0  0  0  0  0  0  0  0
  192.5400  177.1630  147.6680 C   0  0  0  0  0  1  0  0  0  0  0  0
  184.7730  179.5050  144.1520 C   0  0  0  0  0  2  0  0  0  0  0  0
  186.0140  177.7200  147.0270 N   0  0  0  0  0  1  0  0  0  0  0  0
  1 29  1  0  0  0  0
  2  1  1  6  0  0  0
  2 19  1  0  0  0  0
  3  8  1  0  0  0  0
  3  5  1  0  0  0  0
  4  7  1  0  0  0  0
  6  5  2  0  0  0  0
  8  9  1  0  0  0  0
  9 10  2  0  0  0  0
  9 13  1  0  0  0  0
 10 16  1  0  0  0  0
 11 15  1  0  0  0  0
 12  2  1  0  0  0  0
 12 19  1  0  0  0  0
 13 27  2  0  0  0  0
 14  3  2  0  0  0  0
 15 12  1  0  0  0  0
 15  2  1  0  0  0  0
 15 10  1  0  0  0  0
 16  4  2  0  0  0  0
 17  4  1  0  0  0  0
 17 28  1  0  0  0  0
 18 14  1  0  0  0  0
 18 22  2  0  0  0  0
 19 30  1  0  0  0  0
 21 18  1  0  0  0  0
 22 11  1  0  0  0  0
 22  8  1  0  0  0  0
 23 25  1  0  0  0  0
 24  6  1  0  0  0  0
 25 24  2  0  0  0  0
 25 14  1  0  0  0  0
 26 19  1  0  0  0  0
 27 17  1  0  0  0  0
 27 20  1  0  0  0  0
 29 26  1  0  0  0  0
M  END
>  <MODEL>
2

>  <REMARK>
 VINA RESULT:      -9.2      1.206      1.496
  Name = 
  0 active torsions:
  status: ('A' for Active; 'I' for Inactive)
                            x       y       z     vdW  Elec       q    Type
                         _______ _______ _______ _____ _____    ______ ____

>  <TORSDO>
F 0

$$$$
=
 OpenBabel11042413443D

 30 36  0  0  1  0  0  0  0  0999 V2000
  190.2290  174.6630  146.2640 C   0  0  0  0  0  2  0  0  0  0  0  0
  189.7330  175.7520  145.3250 C   0  0  1  0  0  0  0  0  0  0  0  0
  188.6430  173.9680  140.1500 C   0  0  0  0  0  0  0  0  0  0  0  0
  186.6340  177.9910  143.4990 C   0  0  0  0  0  0  0  0  0  0  0  0
  188.2180  174.5410  138.9510 C   0  0  0  0  0  3  0  0  0  0  0  0
  188.3840  173.7840  137.7790 C   0  0  0  0  0  3  0  0  0  0  0  0
  186.3410  179.1320  144.1730 F   0  0  0  0  0  0  0  0  0  0  0  0
  188.5910  174.4930  141.3970 N   0  0  0  0  0  0  0  0  0  0  0  0
  188.0520  175.7540  141.8600 C   0  0  0  0  0  0  0  0  0  0  0  0
  188.2900  176.1210  143.1530 C   0  0  0  0  0  0  0  0  0  0  0  0
  189.2080  173.7400  143.6900 C   0  0  0  0  0  2  0  0  0  0  0  0
  190.6310  175.7750  144.0580 C   0  0  1  0  0  3  0  0  0  0  0  0
  187.3190  176.6030  140.8880 C   0  0  0  0  0  3  0  0  0  0  0  0
  189.2030  172.7120  140.1780 C   0  0  0  0  0  0  0  0  0  0  0  0
  189.2150  175.2430  143.9840 C   0  0  2  0  0  0  0  0  0  0  0  0
  187.7750  177.3660  143.7840 C   0  0  0  0  0  3  0  0  0  0  0  0
  185.6610  177.4220  142.5160 C   0  0  2  0  0  3  0  0  0  0  0  0
  189.5140  172.4310  141.4950 C   0  0  0  0  0  0  0  0  0  0  0  0
  190.8680  176.7290  145.2000 C   0  0  2  0  0  0  0  0  0  0  0  0
  185.7400  178.1120  140.1380 F   0  0  0  0  0  0  0  0  0  0  0  0
  190.1270  171.1870  142.0420 C   0  0  0  0  0  1  0  0  0  0  0  0
  189.1280  173.5540  142.2120 C   0  0  0  0  0  0  0  0  0  0  0  0
  189.9330  170.6730  139.0090 N   0  0  0  0  0  1  0  0  0  0  0  0
  188.9410  172.5340  137.8280 N   0  0  0  0  0  0  0  0  0  0  0  0
  189.3570  171.9750  139.0020 C   0  0  0  0  0  0  0  0  0  0  0  0
  191.9120  176.4170  146.2520 C   0  0  0  0  0  2  0  0  0  0  0  0
  186.2770  177.3890  141.1540 C   0  0  0  0  0  0  0  0  0  0  0  0
  184.3500  178.1940  142.5170 C   0  0  0  0  0  1  0  0  0  0  0  0
  191.3370  175.2910  147.0920 C   0  0  0  0  0  2  0  0  0  0  0  0
  190.4330  178.1030  145.0250 N   0  0  0  0  0  1  0  0  0  0  0  0
  1 29  1  0  0  0  0
  2  1  1  1  0  0  0
  3 14  1  0  0  0  0
  3  8  1  0  0  0  0
  4 16  2  0  0  0  0
  4  7  1  0  0  0  0
  5  3  2  0  0  0  0
  6 24  2  0  0  0  0
  6  5  1  0  0  0  0
  8  9  1  0  0  0  0
  8 22  1  0  0  0  0
  9 10  2  0  0  0  0
 10 16  1  0  0  0  0
 10 15  1  0  0  0  0
 11 15  1  0  0  0  0
 12 19  1  0  0  0  0
 12  2  1  0  0  0  0
 13 27  2  0  0  0  0
 13  9  1  0  0  0  0
 14 18  1  0  0  0  0
 15 12  1  0  0  0  0
 15  2  1  0  0  0  0
 17 28  1  0  0  0  0
 17  4  1  0  0  0  0
 18 21  1  0  0  0  0
 18 22  2  0  0  0  0
 19  2  1  0  0  0  0
 19 26  1  0  0  0  0
 20 27  1  0  0  0  0
 22 11  1  0  0  0  0
 24 25  1  0  0  0  0
 25 23  1  0  0  0  0
 25 14  2  0  0  0  0
 26 29  1  0  0  0  0
 27 17  1  0  0  0  0
 30 19  1  0  0  0  0
M  END
>  <MODEL>
3

>  <REMARK>
 VINA RESULT:      -9.1      2.597      5.194
  Name = 
  0 active torsions:
  status: ('A' for Active; 'I' for Inactive)
                            x       y       z     vdW  Elec       q    Type
                         _______ _______ _______ _____ _____    ______ ____

>  <TORSDO>
F 0

$$$$
=
 OpenBabel11042413443D

 30 36  0  0  1  0  0  0  0  0999 V2000
  190.8740  174.3550  146.1370 C   0  0  0  0  0  2  0  0  0  0  0  0
  190.0830  175.6540  146.1290 C   0  0  1  0  0  0  0  0  0  0  0  0
  187.2350  176.5550  141.4150 C   0  0  0  0  0  0  0  0  0  0  0  0
  186.5480  177.8860  146.8180 C   0  0  0  0  0  0  0  0  0  0  0  0
  186.4170  177.5640  140.9040 C   0  0  0  0  0  3  0  0  0  0  0  0
  186.1570  177.5470  139.5240 C   0  0  0  0  0  3  0  0  0  0  0  0
  186.5160  178.4530  148.0500 F   0  0  0  0  0  0  0  0  0  0  0  0
  187.6280  176.3600  142.6960 N   0  0  0  0  0  0  0  0  0  0  0  0
  187.2910  177.0900  143.9000 C   0  0  0  0  0  0  0  0  0  0  0  0
  187.9700  176.7920  145.0460 C   0  0  0  0  0  0  0  0  0  0  0  0
  189.0090  174.6830  143.9160 C   0  0  0  0  0  2  0  0  0  0  0  0
  190.4780  176.4800  144.8750 C   0  0  1  0  0  3  0  0  0  0  0  0
  186.2650  178.1590  143.8080 C   0  0  0  0  0  3  0  0  0  0  0  0
  187.7650  175.5870  140.5950 C   0  0  0  0  0  0  0  0  0  0  0  0
  189.1240  175.8040  144.9530 C   0  0  2  0  0  0  0  0  0  0  0  0
  187.7140  177.4270  146.3660 C   0  0  0  0  0  3  0  0  0  0  0  0
  185.2900  177.7200  146.0280 C   0  0  2  0  0  3  0  0  0  0  0  0
  188.5180  174.7430  141.3900 C   0  0  0  0  0  0  0  0  0  0  0  0
  191.1050  176.7520  146.2170 C   0  0  2  0  0  0  0  0  0  0  0  0
  184.5290  179.5150  144.5000 F   0  0  0  0  0  0  0  0  0  0  0  0
  189.2800  173.5320  140.9700 C   0  0  0  0  0  1  0  0  0  0  0  0
  188.4130  175.2570  142.6740 C   0  0  0  0  0  0  0  0  0  0  0  0
  188.0290  174.5920  138.3600 N   0  0  0  0  0  1  0  0  0  0  0  0
  186.6920  176.5720  138.7240 N   0  0  0  0  0  0  0  0  0  0  0  0
  187.4920  175.5870  139.2250 C   0  0  0  0  0  0  0  0  0  0  0  0
  192.4520  176.1530  146.5670 C   0  0  0  0  0  2  0  0  0  0  0  0
  185.3860  178.4930  144.7520 C   0  0  0  0  0  0  0  0  0  0  0  0
  184.0650  178.1270  146.8350 C   0  0  0  0  0  1  0  0  0  0  0  0
  192.2040  174.6730  146.7960 C   0  0  0  0  0  2  0  0  0  0  0  0
  190.6420  177.9180  146.9470 N   0  0  0  0  0  1  0  0  0  0  0  0
  1 29  1  0  0  0  0
  2  1  1  6  0  0  0
  2 19  1  0  0  0  0
  3  8  1  0  0  0  0
  4  7  1  0  0  0  0
  5  3  1  0  0  0  0
  6  5  2  0  0  0  0
  8  9  1  0  0  0  0
  9 10  2  0  0  0  0
 10 16  1  0  0  0  0
 11 15  1  0  0  0  0
 12 15  1  0  0  0  0
 12  2  1  0  0  0  0
 12 19  1  0  0  0  0
 13  9  1  0  0  0  0
 13 27  2  0  0  0  0
 14 18  1  0  0  0  0
 14  3  2  0  0  0  0
 15 10  1  0  0  0  0
 15  2  1  0  0  0  0
 16  4  2  0  0  0  0
 17  4  1  0  0  0  0
 17 28  1  0  0  0  0
 18 22  2  0  0  0  0
 19 26  1  0  0  0  0
 19 30  1  0  0  0  0
 20 27  1  0  0  0  0
 21 18  1  0  0  0  0
 22  8  1  0  0  0  0
 22 11  1  0  0  0  0
 23 25  1  0  0  0  0
 24 25  2  0  0  0  0
 24  6  1  0  0  0  0
 25 14  1  0  0  0  0
 26 29  1  0  0  0  0
 27 17  1  0  0  0  0
M  END
>  <MODEL>
4

>  <REMARK>
 VINA RESULT:      -8.6      2.116      5.055
  Name = 
  0 active torsions:
  status: ('A' for Active; 'I' for Inactive)
                            x       y       z     vdW  Elec       q    Type
                         _______ _______ _______ _____ _____    ______ ____

>  <TORSDO>
F 0

$$$$
=
 OpenBabel11042413443D

 30 36  0  0  1  0  0  0  0  0999 V2000
  186.3780  178.5800  142.5020 C   0  0  0  0  0  2  0  0  0  0  0  0
  186.9820  177.8480  143.6910 C   0  0  1  0  0  0  0  0  0  0  0  0
  189.7920  173.2230  142.3260 C   0  0  0  0  0  0  0  0  0  0  0  0
  190.1590  177.0730  146.3850 C   0  0  0  0  0  0  0  0  0  0  0  0
  190.4750  172.2160  143.0080 C   0  0  0  0  0  3  0  0  0  0  0  0
  190.7680  171.0400  142.2990 C   0  0  0  0  0  3  0  0  0  0  0  0
  190.0830  177.8190  147.5170 F   0  0  0  0  0  0  0  0  0  0  0  0
  189.4000  174.4340  142.7870 N   0  0  0  0  0  0  0  0  0  0  0  0
  189.6030  175.0540  144.0800 C   0  0  0  0  0  0  0  0  0  0  0  0
  188.9440  176.2200  144.3470 C   0  0  0  0  0  0  0  0  0  0  0  0
  188.2330  176.4240  141.8460 C   0  0  0  0  0  2  0  0  0  0  0  0
  186.5090  176.3700  143.6700 C   0  0  1  0  0  3  0  0  0  0  0  0
  190.4740  174.3600  145.0620 C   0  0  0  0  0  3  0  0  0  0  0  0
  189.4210  173.0650  141.0110 C   0  0  0  0  0  0  0  0  0  0  0  0
  187.9400  176.7210  143.3200 C   0  0  2  0  0  0  0  0  0  0  0  0
  189.0780  176.9920  145.6110 C   0  0  0  0  0  3  0  0  0  0  0  0
  191.4470  176.4240  145.9920 C   0  0  2  0  0  3  0  0  0  0  0  0
  188.7720  174.2230  140.6260 C   0  0  0  0  0  0  0  0  0  0  0  0
  185.8170  177.3990  144.5260 C   0  0  2  0  0  0  0  0  0  0  0  0
  191.9900  174.1420  146.7900 F   0  0  0  0  0  0  0  0  0  0  0  0
  188.1940  174.5440  139.2890 C   0  0  0  0  0  1  0  0  0  0  0  0
  188.7740  175.0370  141.7490 C   0  0  0  0  0  0  0  0  0  0  0  0
  189.3500  171.7050  138.9610 N   0  0  0  0  0  1  0  0  0  0  0  0
  190.3930  170.9020  140.9890 N   0  0  0  0  0  0  0  0  0  0  0  0
  189.7240  171.8880  140.3230 C   0  0  0  0  0  0  0  0  0  0  0  0
  184.5580  178.0820  144.0340 C   0  0  0  0  0  2  0  0  0  0  0  0
  191.2750  174.9380  145.9540 C   0  0  0  0  0  0  0  0  0  0  0  0
  192.5840  176.8300  146.9180 C   0  0  0  0  0  1  0  0  0  0  0  0
  185.0010  179.0420  142.9450 C   0  0  0  0  0  2  0  0  0  0  0  0
  186.0980  177.3800  145.9500 N   0  0  0  0  0  1  0  0  0  0  0  0
  1 29  1  0  0  0  0
  2  1  1  6  0  0  0
  2 19  1  0  0  0  0
  3  8  1  0  0  0  0
  3  5  1  0  0  0  0
  4  7  1  0  0  0  0
  6  5  2  0  0  0  0
  8  9  1  0  0  0  0
  9 10  2  0  0  0  0
  9 13  1  0  0  0  0
 10 16  1  0  0  0  0
 11 15  1  0  0  0  0
 12  2  1  0  0  0  0
 12 19  1  0  0  0  0
 13 27  2  0  0  0  0
 14  3  2  0  0  0  0
 15 12  1  0  0  0  0
 15  2  1  0  0  0  0
 15 10  1  0  0  0  0
 16  4  2  0  0  0  0
 17  4  1  0  0  0  0
 17 28  1  0  0  0  0
 18 14  1  0  0  0  0
 18 22  2  0  0  0  0
 19 30  1  0  0  0  0
 21 18  1  0  0  0  0
 22 11  1  0  0  0  0
 22  8  1  0  0  0  0
 23 25  1  0  0  0  0
 24  6  1  0  0  0  0
 25 24  2  0  0  0  0
 25 14  1  0  0  0  0
 26 19  1  0  0  0  0
 27 17  1  0  0  0  0
 27 20  1  0  0  0  0
 29 26  1  0  0  0  0
M  END
>  <MODEL>
5

>  <REMARK>
 VINA RESULT:      -8.6      1.322      1.798
  Name = 
  0 active torsions:
  status: ('A' for Active; 'I' for Inactive)
                            x       y       z     vdW  Elec       q    Type
                         _______ _______ _______ _____ _____    ______ ____

>  <TORSDO>
F 0

$$$$
=
 OpenBabel11042413443D

 30 36  0  0  1  0  0  0  0  0999 V2000
  186.0690  176.7510  144.1160 C   0  0  0  0  0  2  0  0  0  0  0  0
  186.9050  176.4230  142.8880 C   0  0  1  0  0  0  0  0  0  0  0  0
  192.3490  175.7960  143.9460 C   0  0  0  0  0  0  0  0  0  0  0  0
  188.7280  173.6740  140.2290 C   0  0  0  0  0  0  0  0  0  0  0  0
  193.5010  175.5360  143.2030 C   0  0  0  0  0  3  0  0  0  0  0  0
  194.7380  175.7830  143.8210 C   0  0  0  0  0  3  0  0  0  0  0  0
  187.9450  173.3760  139.1610 F   0  0  0  0  0  0  0  0  0  0  0  0
  191.0570  175.6410  143.5750 N   0  0  0  0  0  0  0  0  0  0  0  0
  190.4910  175.1290  142.3440 C   0  0  0  0  0  0  0  0  0  0  0  0
  189.1440  175.2470  142.1550 C   0  0  0  0  0  0  0  0  0  0  0  0
  188.8290  175.9620  144.6430 C   0  0  0  0  0  2  0  0  0  0  0  0
  188.0630  177.4520  142.7740 C   0  0  1  0  0  3  0  0  0  0  0  0
  191.4140  174.5550  141.3330 C   0  0  0  0  0  3  0  0  0  0  0  0
  192.4270  176.2760  145.2320 C   0  0  0  0  0  0  0  0  0  0  0  0
  188.3450  176.0240  143.1910 C   0  0  2  0  0  0  0  0  0  0  0  0
  188.4130  174.7400  140.9640 C   0  0  0  0  0  3  0  0  0  0  0  0
  189.8670  172.7810  140.6040 C   0  0  2  0  0  3  0  0  0  0  0  0
  191.1330  176.4270  145.6930 C   0  0  0  0  0  0  0  0  0  0  0  0
  186.7900  177.6190  141.9860 C   0  0  2  0  0  0  0  0  0  0  0  0
  192.1170  173.1560  139.6360 F   0  0  0  0  0  0  0  0  0  0  0  0
  190.6910  176.9040  147.0350 C   0  0  0  0  0  1  0  0  0  0  0  0
  190.3200  176.0310  144.6420 C   0  0  0  0  0  0  0  0  0  0  0  0
  193.7690  177.0080  147.1610 N   0  0  0  0  0  1  0  0  0  0  0  0
  194.7950  176.2590  145.1040 N   0  0  0  0  0  0  0  0  0  0  0  0
  193.6670  176.5130  145.8300 C   0  0  0  0  0  0  0  0  0  0  0  0
  185.6880  178.5240  142.4970 C   0  0  0  0  0  2  0  0  0  0  0  0
  191.1550  173.5370  140.5140 C   0  0  0  0  0  0  0  0  0  0  0  0
  189.8980  171.5240  139.7460 C   0  0  0  0  0  1  0  0  0  0  0  0
  185.0610  177.7970  143.6740 C   0  0  0  0  0  2  0  0  0  0  0  0
  186.8290  177.2860  140.5740 N   0  0  0  0  0  1  0  0  0  0  0  0
  2 15  1  0  0  0  0
  2  1  1  1  0  0  0
  3 14  1  0  0  0  0
  4 17  1  0  0  0  0
  4 16  2  0  0  0  0
  5  6  1  0  0  0  0
  5  3  2  0  0  0  0
  6 24  2  0  0  0  0
  7  4  1  0  0  0  0
  8  3  1  0  0  0  0
  8 22  1  0  0  0  0
  9  8  1  0  0  0  0
 10  9  2  0  0  0  0
 10 15  1  0  0  0  0
 12  2  1  0  0  0  0
 12 15  1  0  0  0  0
 13  9  1  0  0  0  0
 14 18  1  0  0  0  0
 14 25  2  0  0  0  0
 15 11  1  0  0  0  0
 16 10  1  0  0  0  0
 18 21  1  0  0  0  0
 19 26  1  0  0  0  0
 19 12  1  0  0  0  0
 19  2  1  0  0  0  0
 20 27  1  0  0  0  0
 22 11  1  0  0  0  0
 22 18  2  0  0  0  0
 24 25  1  0  0  0  0
 25 23  1  0  0  0  0
 26 29  1  0  0  0  0
 27 17  1  0  0  0  0
 27 13  2  0  0  0  0
 28 17  1  0  0  0  0
 29  1  1  0  0  0  0
 30 19  1  0  0  0  0
M  END
>  <MODEL>
6

>  <REMARK>
 VINA RESULT:      -8.5      2.951      5.838
  Name = 
  0 active torsions:
  status: ('A' for Active; 'I' for Inactive)
                            x       y       z     vdW  Elec       q    Type
                         _______ _______ _______ _____ _____    ______ ____

>  <TORSDO>
F 0

$$$$
=
 OpenBabel11042413443D

 30 36  0  0  1  0  0  0  0  0999 V2000
  192.1180  173.2380  145.0020 C   0  0  0  0  0  2  0  0  0  0  0  0
  191.5180  174.6300  145.1310 C   0  0  1  0  0  0  0  0  0  0  0  0
  187.9770  175.9670  141.0300 C   0  0  0  0  0  0  0  0  0  0  0  0
  188.4990  177.2940  146.4520 C   0  0  0  0  0  0  0  0  0  0  0  0
  187.2170  177.0810  140.6720 C   0  0  0  0  0  3  0  0  0  0  0  0
  186.7020  177.1190  139.3660 C   0  0  0  0  0  3  0  0  0  0  0  0
  188.7740  177.8430  147.6630 F   0  0  0  0  0  0  0  0  0  0  0  0
  188.5740  175.7020  142.2150 N   0  0  0  0  0  0  0  0  0  0  0  0
  188.5690  176.4520  143.4540 C   0  0  0  0  0  0  0  0  0  0  0  0
  189.4060  176.0500  144.4550 C   0  0  0  0  0  0  0  0  0  0  0  0
  189.9290  173.8410  143.1700 C   0  0  0  0  0  2  0  0  0  0  0  0
  191.7740  175.4150  143.8170 C   0  0  1  0  0  3  0  0  0  0  0  0
  187.6930  177.6470  143.5470 C   0  0  0  0  0  3  0  0  0  0  0  0
  188.2110  174.9490  140.1340 C   0  0  0  0  0  0  0  0  0  0  0  0
  190.3820  174.9220  144.1560 C   0  0  2  0  0  0  0  0  0  0  0  0
  189.4890  176.6940  145.7920 C   0  0  0  0  0  3  0  0  0  0  0  0
  187.1040  177.3060  145.9150 C   0  0  2  0  0  3  0  0  0  0  0  0
  188.9830  174.0030  140.7810 C   0  0  0  0  0  0  0  0  0  0  0  0
  192.6730  175.5830  145.0140 C   0  0  2  0  0  0  0  0  0  0  0  0
  186.3120  179.2080  144.5400 F   0  0  0  0  0  0  0  0  0  0  0  0
  189.4860  172.7090  140.2370 C   0  0  0  0  0  1  0  0  0  0  0  0
  189.1900  174.5070  142.0570 C   0  0  0  0  0  0  0  0  0  0  0  0
  187.9170  173.9620  137.8990 N   0  0  0  0  0  1  0  0  0  0  0  0
  186.9440  176.0950  138.4900 N   0  0  0  0  0  0  0  0  0  0  0  0
  187.6880  175.0050  138.8410 C   0  0  0  0  0  0  0  0  0  0  0  0
  193.9710  174.8080  145.1100 C   0  0  0  0  0  2  0  0  0  0  0  0
  187.0590  178.0790  144.6360 C   0  0  0  0  0  0  0  0  0  0  0  0
  186.1170  177.8570  146.9340 C   0  0  0  0  0  1  0  0  0  0  0  0
  193.5790  173.3700  145.3960 C   0  0  0  0  0  2  0  0  0  0  0  0
  192.5120  176.7890  145.8060 N   0  0  0  0  0  1  0  0  0  0  0  0
  1 29  1  0  0  0  0
  2  1  1  6  0  0  0
  3  8  1  0  0  0  0
  4  7  1  0  0  0  0
  5  3  1  0  0  0  0
  6  5  2  0  0  0  0
  8  9  1  0  0  0  0
  9 13  1  0  0  0  0
  9 10  2  0  0  0  0
 10 16  1  0  0  0  0
 11 15  1  0  0  0  0
 12 15  1  0  0  0  0
 12 19  1  0  0  0  0
 12  2  1  0  0  0  0
 13 27  2  0  0  0  0
 14 18  1  0  0  0  0
 14  3  2  0  0  0  0
 15 10  1  0  0  0  0
 15  2  1  0  0  0  0
 16  4  2  0  0  0  0
 17  4  1  0  0  0  0
 17 28  1  0  0  0  0
 18 22  2  0  0  0  0
 19 26  1  0  0  0  0
 19  2  1  0  0  0  0
 19 30  1  0  0  0  0
 20 27  1  0  0  0  0
 21 18  1  0  0  0  0
 22  8  1  0  0  0  0
 22 11  1  0  0  0  0
 23 25  1  0  0  0  0
 24 25  2  0  0  0  0
 24  6  1  0  0  0  0
 25 14  1  0  0  0  0
 26 29  1  0  0  0  0
 27 17  1  0  0  0  0
M  END
>  <MODEL>
7

>  <REMARK>
 VINA RESULT:      -8.4      1.904      5.138
  Name = 
  0 active torsions:
  status: ('A' for Active; 'I' for Inactive)
                            x       y       z     vdW  Elec       q    Type
                         _______ _______ _______ _____ _____    ______ ____

>  <TORSDO>
F 0

$$$$
=
 OpenBabel11042413443D

 30 36  0  0  1  0  0  0  0  0999 V2000
  194.0990  173.4620  145.5400 C   0  0  0  0  0  2  0  0  0  0  0  0
  193.2550  174.7200  145.4040 C   0  0  1  0  0  0  0  0  0  0  0  0
  189.3540  174.4210  141.4230 C   0  0  0  0  0  0  0  0  0  0  0  0
  189.8500  177.0590  146.3450 C   0  0  0  0  0  0  0  0  0  0  0  0
  188.3850  175.2720  140.8910 C   0  0  0  0  0  3  0  0  0  0  0  0
  187.8170  174.9120  139.6580 C   0  0  0  0  0  3  0  0  0  0  0  0
  190.0680  177.9170  147.3750 F   0  0  0  0  0  0  0  0  0  0  0  0
  190.0410  174.5510  142.5830 N   0  0  0  0  0  0  0  0  0  0  0  0
  189.9480  175.5590  143.6180 C   0  0  0  0  0  0  0  0  0  0  0  0
  190.8870  175.5550  144.6080 C   0  0  0  0  0  0  0  0  0  0  0  0
  191.7590  173.2300  143.8110 C   0  0  0  0  0  2  0  0  0  0  0  0
  193.3030  175.2060  143.9300 C   0  0  1  0  0  3  0  0  0  0  0  0
  188.8690  176.5730  143.5150 C   0  0  0  0  0  3  0  0  0  0  0  0
  189.7360  173.2780  140.7620 C   0  0  0  0  0  0  0  0  0  0  0  0
  192.0440  174.5740  144.4880 C   0  0  2  0  0  0  0  0  0  0  0  0
  190.9050  176.5000  145.7560 C   0  0  0  0  0  3  0  0  0  0  0  0
  188.4550  176.7040  145.9400 C   0  0  2  0  0  3  0  0  0  0  0  0
  190.6990  172.6580  141.5360 C   0  0  0  0  0  0  0  0  0  0  0  0
  194.2040  175.8030  144.9790 C   0  0  2  0  0  0  0  0  0  0  0  0
  187.2630  178.0630  144.2460 F   0  0  0  0  0  0  0  0  0  0  0  0
  191.4120  171.3790  141.2550 C   0  0  0  0  0  1  0  0  0  0  0  0
  190.8620  173.4760  142.6440 C   0  0  0  0  0  0  0  0  0  0  0  0
  189.5380  171.7560  138.8380 N   0  0  0  0  0  1  0  0  0  0  0  0
  188.2090  173.7670  139.0160 N   0  0  0  0  0  0  0  0  0  0  0  0
  189.1580  172.9360  139.5380 C   0  0  0  0  0  0  0  0  0  0  0  0
  195.6270  175.3080  145.1350 C   0  0  0  0  0  2  0  0  0  0  0  0
  188.2120  177.1340  144.5280 C   0  0  0  0  0  0  0  0  0  0  0  0
  187.4270  177.3010  146.8900 C   0  0  0  0  0  1  0  0  0  0  0  0
  195.5250  173.9320  145.7690 C   0  0  0  0  0  2  0  0  0  0  0  0
  193.8550  177.1150  145.4920 N   0  0  0  0  0  1  0  0  0  0  0  0
  1 29  1  0  0  0  0
  2  1  1  1  0  0  0
  3  8  1  0  0  0  0
  4  7  1  0  0  0  0
  5  3  1  0  0  0  0
  6  5  2  0  0  0  0
  8 22  1  0  0  0  0
  8  9  1  0  0  0  0
  9 10  2  0  0  0  0
 10 16  1  0  0  0  0
 11 15  1  0  0  0  0
 12 15  1  0  0  0  0
 12 19  1  0  0  0  0
 12  2  1  0  0  0  0
 13  9  1  0  0  0  0
 13 27  2  0  0  0  0
 14  3  2  0  0  0  0
 14 18  1  0  0  0  0
 15 10  1  0  0  0  0
 15  2  1  0  0  0  0
 16  4  2  0  0  0  0
 17  4  1  0  0  0  0
 17 28  1  0  0  0  0
 18 22  2  0  0  0  0
 19 26  1  0  0  0  0
 19  2  1  0  0  0  0
 19 30  1  0  0  0  0
 20 27  1  0  0  0  0
 21 18  1  0  0  0  0
 22 11  1  0  0  0  0
 23 25  1  0  0  0  0
 24 25  2  0  0  0  0
 24  6  1  0  0  0  0
 25 14  1  0  0  0  0
 26 29  1  0  0  0  0
 27 17  1  0  0  0  0
M  END
>  <MODEL>
8

>  <REMARK>
 VINA RESULT:      -7.9      2.192      5.594
  Name = 
  0 active torsions:
  status: ('A' for Active; 'I' for Inactive)
                            x       y       z     vdW  Elec       q    Type
                         _______ _______ _______ _____ _____    ______ ____

>  <TORSDO>
F 0

$$$$
=
 OpenBabel11042413443D

 30 36  0  0  1  0  0  0  0  0999 V2000
  184.9020  177.3220  143.2620 C   0  0  0  0  0  2  0  0  0  0  0  0
  186.1350  176.7230  142.6030 C   0  0  1  0  0  0  0  0  0  0  0  0
  190.5780  176.3960  145.9650 C   0  0  0  0  0  0  0  0  0  0  0  0
  188.6290  173.4430  141.6160 C   0  0  0  0  0  0  0  0  0  0  0  0
  191.9050  175.9790  145.8510 C   0  0  0  0  0  3  0  0  0  0  0  0
  192.7940  176.3710  146.8640 C   0  0  0  0  0  3  0  0  0  0  0  0
  188.3310  172.9000  140.4080 F   0  0  0  0  0  0  0  0  0  0  0  0
  189.5450  176.1500  145.1260 N   0  0  0  0  0  0  0  0  0  0  0  0
  189.4910  175.3620  143.9120 C   0  0  0  0  0  0  0  0  0  0  0  0
  188.3580  175.4230  143.1520 C   0  0  0  0  0  0  0  0  0  0  0  0
  187.1140  176.6960  145.0590 C   0  0  0  0  0  2  0  0  0  0  0  0
  187.3260  177.7050  142.7700 C   0  0  1  0  0  3  0  0  0  0  0  0
  190.6910  174.5750  143.5330 C   0  0  0  0  0  3  0  0  0  0  0  0
  190.1640  177.1630  147.0280 C   0  0  0  0  0  0  0  0  0  0  0  0
  187.2790  176.4150  143.5630 C   0  0  2  0  0  0  0  0  0  0  0  0
  188.1390  174.6480  141.9030 C   0  0  0  0  0  3  0  0  0  0  0  0
  189.4250  172.6700  142.6170 C   0  0  2  0  0  3  0  0  0  0  0  0
  188.8140  177.4080  146.8570 C   0  0  0  0  0  0  0  0  0  0  0  0
  186.5110  177.6750  141.5040 C   0  0  2  0  0  0  0  0  0  0  0  0
  191.8980  172.8240  142.6330 F   0  0  0  0  0  0  0  0  0  0  0  0
  187.9060  178.1810  147.7510 C   0  0  0  0  0  1  0  0  0  0  0  0
  188.4730  176.7730  145.6720 C   0  0  0  0  0  0  0  0  0  0  0  0
  190.6550  178.3330  149.1370 N   0  0  0  0  0  1  0  0  0  0  0  0
  192.3620  177.1330  147.9170 N   0  0  0  0  0  0  0  0  0  0  0  0
  191.0640  177.5410  148.0270 C   0  0  0  0  0  0  0  0  0  0  0  0
  185.3850  178.6670  141.2960 C   0  0  0  0  0  2  0  0  0  0  0  0
  190.6990  173.3930  142.9190 C   0  0  0  0  0  0  0  0  0  0  0  0
  189.6900  171.2480  142.1430 C   0  0  0  0  0  1  0  0  0  0  0  0
  184.2660  178.2300  142.2240 C   0  0  0  0  0  2  0  0  0  0  0  0
  187.0980  177.0230  140.3470 N   0  0  0  0  0  1  0  0  0  0  0  0
  2 12  1  0  0  0  0
  2  1  1  1  0  0  0
  2 15  1  0  0  0  0
  3 14  1  0  0  0  0
  4 16  2  0  0  0  0
  4 17  1  0  0  0  0
  5  3  2  0  0  0  0
  5  6  1  0  0  0  0
  6 24  2  0  0  0  0
  7  4  1  0  0  0  0
  8 22  1  0  0  0  0
  8  3  1  0  0  0  0
  9  8  1  0  0  0  0
 10 15  1  0  0  0  0
 10  9  2  0  0  0  0
 11 22  1  0  0  0  0
 12 15  1  0  0  0  0
 13  9  1  0  0  0  0
 14 25  2  0  0  0  0
 15 11  1  0  0  0  0
 16 10  1  0  0  0  0
 17 27  1  0  0  0  0
 18 14  1  0  0  0  0
 18 21  1  0  0  0  0
 19  2  1  0  0  0  0
 19 12  1  0  0  0  0
 20 27  1  0  0  0  0
 22 18  2  0  0  0  0
 24 25  1  0  0  0  0
 25 23  1  0  0  0  0
 26 19  1  0  0  0  0
 26 29  1  0  0  0  0
 27 13  2  0  0  0  0
 28 17  1  0  0  0  0
 29  1  1  0  0  0  0
 30 19  1  0  0  0  0
M  END
>  <MODEL>
9

>  <REMARK>
 VINA RESULT:      -7.8      2.501      5.802
  Name = 
  0 active torsions:
  status: ('A' for Active; 'I' for Inactive)
                            x       y       z     vdW  Elec       q    Type
                         _______ _______ _______ _____ _____    ______ ____

>  <TORSDO>
F 0

$$$$
