=
 OpenBabel11042414273D

 41 45  0  0  1  0  0  0  0  0999 V2000
  191.8800  175.2300  142.5530 C   0  0  0  0  0  0  0  0  0  0  0  0
  192.7110  174.9730  141.5360 C   0  0  0  0  0  3  0  0  0  0  0  0
  194.1450  175.2950  141.6370 C   0  0  0  0  0  0  0  0  0  0  0  0
  193.6930  176.2080  143.9120 C   0  0  0  0  0  0  0  0  0  0  0  0
  194.9820  175.0220  140.6290 C   0  0  0  0  0  3  0  0  0  0  0  0
  192.3980  175.8870  143.7740 C   0  0  0  0  0  3  0  0  0  0  0  0
  194.6240  175.9140  142.8500 N   0  0  0  0  0  0  0  0  0  0  0  0
  190.0580  173.6700  141.9720 C   0  0  0  0  0  3  0  0  0  0  0  0
  189.4220  175.8810  142.7660 C   0  0  0  0  0  0  0  0  0  0  0  0
  188.7170  173.3190  141.8490 C   0  0  0  0  0  3  0  0  0  0  0  0
  190.4320  174.9380  142.4380 C   0  0  0  0  0  0  0  0  0  0  0  0
  189.8490  177.5620  143.1140 Cl  0  0  0  0  0  0  0  0  0  0  0  0
  188.0600  175.5050  142.6720 C   0  0  0  0  0  0  0  0  0  0  0  0
  187.7260  174.2310  142.1990 C   0  0  0  0  0  3  0  0  0  0  0  0
  186.0760  176.8630  142.1890 N   0  0  0  0  0  0  0  0  0  0  0  0
  183.8360  178.7870  145.7950 N   0  0  0  0  0  1  0  0  0  0  0  0
  186.9540  176.4110  143.0410 C   0  0  0  0  0  0  0  0  0  0  0  0
  185.8260  177.4680  146.3830 C   0  0  0  0  0  3  0  0  0  0  0  0
  185.0880  177.6350  142.9080 C   0  0  0  0  0  3  0  0  0  0  0  0
  184.9810  178.0010  145.4890 C   0  0  0  0  0  0  0  0  0  0  0  0
  186.8700  176.6880  145.6510 C   0  0  0  0  0  3  0  0  0  0  0  0
  186.5720  176.8440  144.3690 C   0  0  0  0  0  0  0  0  0  0  0  0
  185.4270  177.6040  144.1840 C   0  0  0  0  0  0  0  0  0  0  0  0
  194.5570  174.3740  139.3470 C   0  0  2  0  0  3  0  0  0  0  0  0
  194.7150  172.9880  139.4290 O   0  0  0  0  0  1  0  0  0  0  0  0
  197.5130  175.4580  137.3970 C   0  0  0  0  0  3  0  0  0  0  0  0
  195.3330  174.9000  138.2310 N   0  0  0  0  0  0  0  0  0  0  0  0
  194.6760  175.1710  136.9450 C   0  0  0  0  0  2  0  0  0  0  0  0
  196.8970  175.9680  136.1650 C   0  0  0  0  0  0  0  0  0  0  0  0
  197.6840  176.5540  135.2300 F   0  0  0  0  0  0  0  0  0  0  0  0
  195.5780  175.8760  135.9650 C   0  0  0  0  0  0  0  0  0  0  0  0
  195.0390  176.3590  134.8190 F   0  0  0  0  0  0  0  0  0  0  0  0
  196.7580  174.9560  138.3710 C   0  0  0  0  0  3  0  0  0  0  0  0
  196.7260  175.3050  143.6650 O   0  0  0  0  0  1  0  0  0  0  0  0
  196.0240  176.3060  142.9920 C   0  0  0  0  0  2  0  0  0  0  0  0
  194.1570  176.8420  145.1100 N   0  0  0  0  0  2  0  0  0  0  0  0
  194.0910  176.2190  146.4240 C   0  0  0  0  0  2  0  0  0  0  0  0
  192.7500  176.5190  147.0570 C   0  0  0  0  0  2  0  0  0  0  0  0
  191.9870  175.2250  147.2620 C   0  0  0  0  0  2  0  0  0  0  0  0
  189.8220  174.5500  146.2250 C   0  0  0  0  0  1  0  0  0  0  0  0
  190.4900  175.4780  147.2200 C   0  0  0  0  0  2  0  0  0  0  0  0
  1  6  1  0  0  0  0
  2  3  1  0  0  0  0
  2  1  2  0  0  0  0
  3  7  1  0  0  0  0
  4 36  1  0  0  0  0
  5  3  2  0  0  0  0
  6  4  2  0  0  0  0
  7 35  1  0  0  0  0
  7  4  1  0  0  0  0
  8 11  1  0  0  0  0
  9 12  1  0  0  0  0
 10  8  2  0  0  0  0
 10 14  1  0  0  0  0
 11  1  1  0  0  0  0
 11  9  2  0  0  0  0
 13  9  1  0  0  0  0
 13 17  1  0  0  0  0
 14 13  2  0  0  0  0
 15 19  2  0  0  0  0
 15 17  1  0  0  0  0
 17 22  2  0  0  0  0
 19 23  1  0  0  0  0
 20 16  1  0  0  0  0
 20 18  1  0  0  0  0
 21 18  2  0  0  0  0
 22 21  1  0  0  0  0
 23 22  1  0  0  0  0
 23 20  2  0  0  0  0
 24 25  1  1  0  0  0
 24  5  1  0  0  0  0
 26 33  2  0  0  0  0
 27 33  1  0  0  0  0
 27 24  1  0  0  0  0
 28 27  1  0  0  0  0
 29 26  1  0  0  0  0
 30 29  1  0  0  0  0
 31 29  2  0  0  0  0
 31 28  1  0  0  0  0
 32 31  1  0  0  0  0
 35 34  1  0  0  0  0
 36 37  1  0  0  0  0
 37 38  1  0  0  0  0
 38 39  1  0  0  0  0
 40 41  1  0  0  0  0
 41 39  1  0  0  0  0
M  END
>  <MODEL>
1

>  <REMARK>
 VINA RESULT:      -7.7      0.000      0.000
  Name = 
  10 active torsions:
  status: ('A' for Active; 'I' for Inactive)
    1  A    between atoms: C_2  and  C_18
    2  A    between atoms: C_6  and  N_11
    3  A    between atoms: C_6  and  C_29
    4  A    between atoms: C_8  and  C_25
    5  A    between atoms: C_8  and  N_40
    6  A    between atoms: C_9  and  C_22
    7  A    between atoms: C_20  and  C_35
    8  A    between atoms: C_25  and  C_35
    9  A    between atoms: C_26  and  N_40
   10  A    between atoms: C_28  and  N_31
                            x       y       z     vdW  Elec       q    Type
                         _______ _______ _______ _____ _____    ______ ____

>  <TORSDO>
F 10

$$$$
=
 OpenBabel11042414273D

 41 45  0  0  1  0  0  0  0  0999 V2000
  188.7950  177.0240  143.9870 C   0  0  0  0  0  0  0  0  0  0  0  0
  188.7400  176.3120  142.8550 C   0  0  0  0  0  3  0  0  0  0  0  0
  187.6210  176.4810  141.9120 C   0  0  0  0  0  0  0  0  0  0  0  0
  186.6510  178.1450  143.4950 C   0  0  0  0  0  0  0  0  0  0  0  0
  187.5740  175.7830  140.7720 C   0  0  0  0  0  3  0  0  0  0  0  0
  187.6960  177.9600  144.3160 C   0  0  0  0  0  3  0  0  0  0  0  0
  186.5770  177.4180  142.2510 N   0  0  0  0  0  0  0  0  0  0  0  0
  189.5790  176.7890  146.3150 C   0  0  0  0  0  3  0  0  0  0  0  0
  191.2590  176.6900  144.5560 C   0  0  0  0  0  0  0  0  0  0  0  0
  190.5640  176.5960  147.2780 C   0  0  0  0  0  3  0  0  0  0  0  0
  189.9020  176.8280  144.9510 C   0  0  0  0  0  0  0  0  0  0  0  0
  191.7350  176.9840  142.8780 Cl  0  0  0  0  0  0  0  0  0  0  0  0
  192.2520  176.4590  145.5400 C   0  0  0  0  0  0  0  0  0  0  0  0
  191.8900  176.4310  146.8920 C   0  0  0  0  0  3  0  0  0  0  0  0
  194.4840  177.2270  144.8750 N   0  0  0  0  0  0  0  0  0  0  0  0
  197.9410  174.1010  144.8830 N   0  0  0  0  0  1  0  0  0  0  0  0
  193.6750  176.2580  145.2060 C   0  0  0  0  0  0  0  0  0  0  0  0
  195.7390  173.2260  145.5380 C   0  0  0  0  0  3  0  0  0  0  0  0
  195.8140  176.6850  144.7140 C   0  0  0  0  0  3  0  0  0  0  0  0
  196.5410  174.2110  145.1120 C   0  0  0  0  0  0  0  0  0  0  0  0
  194.3520  173.7660  145.6830 C   0  0  0  0  0  3  0  0  0  0  0  0
  194.4410  175.0330  145.3030 C   0  0  0  0  0  0  0  0  0  0  0  0
  195.7380  175.3920  144.9670 C   0  0  0  0  0  0  0  0  0  0  0  0
  188.6250  174.8000  140.3520 C   0  0  2  0  0  3  0  0  0  0  0  0
  188.1630  174.0230  139.2870 O   0  0  0  0  0  1  0  0  0  0  0  0
  188.3080  172.2040  142.9730 C   0  0  0  0  0  3  0  0  0  0  0  0
  188.9960  173.9450  141.4720 N   0  0  0  0  0  0  0  0  0  0  0  0
  190.3800  173.9430  141.9650 C   0  0  0  0  0  2  0  0  0  0  0  0
  189.5970  172.3110  143.6680 C   0  0  0  0  0  0  0  0  0  0  0  0
  189.8110  171.5620  144.7780 F   0  0  0  0  0  0  0  0  0  0  0  0
  190.5480  173.1450  143.2320 C   0  0  0  0  0  0  0  0  0  0  0  0
  191.7260  173.2240  143.8980 F   0  0  0  0  0  0  0  0  0  0  0  0
  188.0350  172.9880  141.9330 C   0  0  0  0  0  3  0  0  0  0  0  0
  185.7020  178.5400  140.3990 O   0  0  0  0  0  1  0  0  0  0  0  0
  185.4150  177.5940  141.3840 C   0  0  0  0  0  2  0  0  0  0  0  0
  185.6080  179.0610  143.8480 N   0  0  0  0  0  2  0  0  0  0  0  0
  184.3670  178.6540  144.4910 C   0  0  0  0  0  2  0  0  0  0  0  0
  184.5260  178.7410  145.9930 C   0  0  0  0  0  2  0  0  0  0  0  0
  184.6280  177.3420  146.5710 C   0  0  0  0  0  2  0  0  0  0  0  0
  186.4760  178.4600  147.8170 C   0  0  0  0  0  1  0  0  0  0  0  0
  185.9700  177.1460  147.2530 C   0  0  0  0  0  2  0  0  0  0  0  0
  1  6  1  0  0  0  0
  1 11  1  0  0  0  0
  2  1  2  0  0  0  0
  3  7  1  0  0  0  0
  3  2  1  0  0  0  0
  4 36  1  0  0  0  0
  4  6  2  0  0  0  0
  5  3  2  0  0  0  0
  7  4  1  0  0  0  0
  8 10  1  0  0  0  0
  9 11  1  0  0  0  0
  9 13  2  0  0  0  0
 11  8  2  0  0  0  0
 12  9  1  0  0  0  0
 13 14  1  0  0  0  0
 14 10  2  0  0  0  0
 15 17  1  0  0  0  0
 16 20  1  0  0  0  0
 17 22  2  0  0  0  0
 17 13  1  0  0  0  0
 18 21  2  0  0  0  0
 19 15  2  0  0  0  0
 19 23  1  0  0  0  0
 20 18  1  0  0  0  0
 22 21  1  0  0  0  0
 23 20  2  0  0  0  0
 23 22  1  0  0  0  0
 24 25  1  6  0  0  0
 24  5  1  0  0  0  0
 24 27  1  0  0  0  0
 26 29  1  0  0  0  0
 27 33  1  0  0  0  0
 27 28  1  0  0  0  0
 28 31  1  0  0  0  0
 29 30  1  0  0  0  0
 31 29  2  0  0  0  0
 31 32  1  0  0  0  0
 33 26  2  0  0  0  0
 34 35  1  0  0  0  0
 35  7  1  0  0  0  0
 36 37  1  0  0  0  0
 37 38  1  0  0  0  0
 38 39  1  0  0  0  0
 39 41  1  0  0  0  0
 41 40  1  0  0  0  0
M  END
>  <MODEL>
2

>  <REMARK>
 VINA RESULT:      -7.6      4.488      8.463
  Name = 
  10 active torsions:
  status: ('A' for Active; 'I' for Inactive)
    1  A    between atoms: C_2  and  C_18
    2  A    between atoms: C_6  and  N_11
    3  A    between atoms: C_6  and  C_29
    4  A    between atoms: C_8  and  C_25
    5  A    between atoms: C_8  and  N_40
    6  A    between atoms: C_9  and  C_22
    7  A    between atoms: C_20  and  C_35
    8  A    between atoms: C_25  and  C_35
    9  A    between atoms: C_26  and  N_40
   10  A    between atoms: C_28  and  N_31
                            x       y       z     vdW  Elec       q    Type
                         _______ _______ _______ _____ _____    ______ ____

>  <TORSDO>
F 10

$$$$
=
 OpenBabel11042414273D

 41 45  0  0  1  0  0  0  0  0999 V2000
  192.8110  174.5530  144.2710 C   0  0  0  0  0  0  0  0  0  0  0  0
  192.3970  173.4200  143.6920 C   0  0  0  0  0  3  0  0  0  0  0  0
  193.2730  172.6880  142.7600 C   0  0  0  0  0  0  0  0  0  0  0  0
  194.9770  174.4760  143.0900 C   0  0  0  0  0  0  0  0  0  0  0  0
  192.8670  171.5460  142.1930 C   0  0  0  0  0  3  0  0  0  0  0  0
  194.1460  175.1000  143.9380 C   0  0  0  0  0  3  0  0  0  0  0  0
  194.5770  173.2350  142.4730 N   0  0  0  0  0  0  0  0  0  0  0  0
  192.3100  175.4330  146.5210 C   0  0  0  0  0  3  0  0  0  0  0  0
  190.6950  175.8910  144.7590 C   0  0  0  0  0  0  0  0  0  0  0  0
  191.5280  176.1370  147.4320 C   0  0  0  0  0  3  0  0  0  0  0  0
  191.9180  175.3070  145.1810 C   0  0  0  0  0  0  0  0  0  0  0  0
  190.0470  175.5430  143.1490 Cl  0  0  0  0  0  0  0  0  0  0  0  0
  189.9220  176.6360  145.6820 C   0  0  0  0  0  0  0  0  0  0  0  0
  190.3440  176.7360  147.0140 C   0  0  0  0  0  3  0  0  0  0  0  0
  188.4870  177.9360  144.1760 N   0  0  0  0  0  0  0  0  0  0  0  0
  184.0350  178.5440  145.4150 N   0  0  0  0  0  1  0  0  0  0  0  0
  188.6640  177.3130  145.3090 C   0  0  0  0  0  0  0  0  0  0  0  0
  185.3950  177.2510  147.0040 C   0  0  0  0  0  3  0  0  0  0  0  0
  187.1170  178.3900  144.1080 C   0  0  0  0  0  3  0  0  0  0  0  0
  185.2490  177.9650  145.8790 C   0  0  0  0  0  0  0  0  0  0  0  0
  186.8160  176.7970  147.1030 C   0  0  0  0  0  3  0  0  0  0  0  0
  187.4080  177.3050  146.0310 C   0  0  0  0  0  0  0  0  0  0  0  0
  186.5250  178.0050  145.2230 C   0  0  0  0  0  0  0  0  0  0  0  0
  191.5320  170.9160  142.4500 C   0  0  2  0  0  3  0  0  0  0  0  0
  191.5960  169.5380  142.2280 O   0  0  0  0  0  1  0  0  0  0  0  0
  189.7380  171.8540  139.3500 C   0  0  0  0  0  3  0  0  0  0  0  0
  190.5150  171.5140  141.5940 N   0  0  0  0  0  0  0  0  0  0  0  0
  189.3260  172.1350  142.1940 C   0  0  0  0  0  2  0  0  0  0  0  0
  188.6470  172.6900  139.8690 C   0  0  0  0  0  0  0  0  0  0  0  0
  187.8180  173.3090  138.9920 F   0  0  0  0  0  0  0  0  0  0  0  0
  188.4730  172.8590  141.1840 C   0  0  0  0  0  0  0  0  0  0  0  0
  187.4590  173.6390  141.6310 F   0  0  0  0  0  0  0  0  0  0  0  0
  190.6200  171.3040  140.1810 C   0  0  0  0  0  3  0  0  0  0  0  0
  196.2820  171.6670  142.1850 O   0  0  0  0  0  1  0  0  0  0  0  0
  195.4710  172.5860  141.5180 C   0  0  0  0  0  2  0  0  0  0  0  0
  196.2620  175.0370  142.7940 N   0  0  0  0  0  2  0  0  0  0  0  0
  197.2860  175.2710  143.8020 C   0  0  0  0  0  2  0  0  0  0  0  0
  197.7610  173.9450  144.3540 C   0  0  0  0  0  2  0  0  0  0  0  0
  197.1510  173.7220  145.7250 C   0  0  0  0  0  2  0  0  0  0  0  0
  195.4010  171.9460  145.7020 C   0  0  0  0  0  1  0  0  0  0  0  0
  196.8670  172.2470  145.9470 C   0  0  0  0  0  2  0  0  0  0  0  0
  1 11  1  0  0  0  0
  2  1  2  0  0  0  0
  3  2  1  0  0  0  0
  4  6  2  0  0  0  0
  5 24  1  0  0  0  0
  5  3  2  0  0  0  0
  6  1  1  0  0  0  0
  7  3  1  0  0  0  0
  7  4  1  0  0  0  0
  8 10  1  0  0  0  0
  9 11  1  0  0  0  0
  9 13  2  0  0  0  0
 11  8  2  0  0  0  0
 12  9  1  0  0  0  0
 13 14  1  0  0  0  0
 14 10  2  0  0  0  0
 15 17  1  0  0  0  0
 16 20  1  0  0  0  0
 17 13  1  0  0  0  0
 17 22  2  0  0  0  0
 18 21  2  0  0  0  0
 19 15  2  0  0  0  0
 19 23  1  0  0  0  0
 20 18  1  0  0  0  0
 22 21  1  0  0  0  0
 23 20  2  0  0  0  0
 23 22  1  0  0  0  0
 24 25  1  6  0  0  0
 26 29  1  0  0  0  0
 26 33  2  0  0  0  0
 27 28  1  0  0  0  0
 27 24  1  0  0  0  0
 29 31  2  0  0  0  0
 30 29  1  0  0  0  0
 31 32  1  0  0  0  0
 31 28  1  0  0  0  0
 33 27  1  0  0  0  0
 35 34  1  0  0  0  0
 35  7  1  0  0  0  0
 36  4  1  0  0  0  0
 36 37  1  0  0  0  0
 37 38  1  0  0  0  0
 38 39  1  0  0  0  0
 39 41  1  0  0  0  0
 40 41  1  0  0  0  0
M  END
>  <MODEL>
3

>  <REMARK>
 VINA RESULT:      -7.4      3.613      5.356
  Name = 
  10 active torsions:
  status: ('A' for Active; 'I' for Inactive)
    1  A    between atoms: C_2  and  C_18
    2  A    between atoms: C_6  and  N_11
    3  A    between atoms: C_6  and  C_29
    4  A    between atoms: C_8  and  C_25
    5  A    between atoms: C_8  and  N_40
    6  A    between atoms: C_9  and  C_22
    7  A    between atoms: C_20  and  C_35
    8  A    between atoms: C_25  and  C_35
    9  A    between atoms: C_26  and  N_40
   10  A    between atoms: C_28  and  N_31
                            x       y       z     vdW  Elec       q    Type
                         _______ _______ _______ _____ _____    ______ ____

>  <TORSDO>
F 10

$$$$
=
 OpenBabel11042414273D

 41 45  0  0  1  0  0  0  0  0999 V2000
  193.1400  174.9660  145.3130 C   0  0  0  0  0  0  0  0  0  0  0  0
  192.9610  173.6840  144.9740 C   0  0  0  0  0  3  0  0  0  0  0  0
  194.0380  172.9230  144.3160 C   0  0  0  0  0  0  0  0  0  0  0  0
  195.4250  174.9920  144.3810 C   0  0  0  0  0  0  0  0  0  0  0  0
  193.8670  171.6360  143.9920 C   0  0  0  0  0  3  0  0  0  0  0  0
  194.4170  175.6390  144.9850 C   0  0  0  0  0  3  0  0  0  0  0  0
  195.2790  173.6000  144.0310 N   0  0  0  0  0  0  0  0  0  0  0  0
  192.1650  176.0510  147.3040 C   0  0  0  0  0  3  0  0  0  0  0  0
  190.8920  176.1690  145.2330 C   0  0  0  0  0  0  0  0  0  0  0  0
  191.1830  176.7860  147.9600 C   0  0  0  0  0  3  0  0  0  0  0  0
  192.0450  175.7420  145.9420 C   0  0  0  0  0  0  0  0  0  0  0  0
  190.5850  175.5880  143.5900 Cl  0  0  0  0  0  0  0  0  0  0  0  0
  189.9130  176.9470  145.8980 C   0  0  0  0  0  0  0  0  0  0  0  0
  190.0660  177.2320  147.2600 C   0  0  0  0  0  3  0  0  0  0  0  0
  188.7130  177.9320  143.9990 N   0  0  0  0  0  0  0  0  0  0  0  0
  184.0810  178.3290  144.3350 N   0  0  0  0  0  1  0  0  0  0  0  0
  188.7110  177.4700  145.2200 C   0  0  0  0  0  0  0  0  0  0  0  0
  185.1920  177.3550  146.3000 C   0  0  0  0  0  3  0  0  0  0  0  0
  187.3560  178.2630  143.6280 C   0  0  0  0  0  3  0  0  0  0  0  0
  185.2180  177.9110  145.0810 C   0  0  0  0  0  0  0  0  0  0  0  0
  186.5930  177.0320  146.7100 C   0  0  0  0  0  3  0  0  0  0  0  0
  187.3450  177.4500  145.7020 C   0  0  0  0  0  0  0  0  0  0  0  0
  186.5900  177.9720  144.6620 C   0  0  0  0  0  0  0  0  0  0  0  0
  192.6110  170.8670  144.2660 C   0  0  2  0  0  3  0  0  0  0  0  0
  192.8130  169.5060  144.0220 O   0  0  0  0  0  1  0  0  0  0  0  0
  189.3230  172.3300  143.3970 C   0  0  0  0  0  3  0  0  0  0  0  0
  191.5190  171.3660  143.4390 N   0  0  0  0  0  0  0  0  0  0  0  0
  191.7020  171.5010  141.9880 C   0  0  0  0  0  2  0  0  0  0  0  0
  189.3420  172.2780  141.9290 C   0  0  0  0  0  0  0  0  0  0  0  0
  188.2340  172.6490  141.2420 F   0  0  0  0  0  0  0  0  0  0  0  0
  190.4260  171.8560  141.2690 C   0  0  0  0  0  0  0  0  0  0  0  0
  190.4120  171.8150  139.9140 F   0  0  0  0  0  0  0  0  0  0  0  0
  190.3630  171.8920  144.1020 C   0  0  0  0  0  3  0  0  0  0  0  0
  197.2550  172.3790  144.2660 O   0  0  0  0  0  1  0  0  0  0  0  0
  196.3660  172.9170  143.3350 C   0  0  0  0  0  2  0  0  0  0  0  0
  196.6470  175.6780  144.0810 N   0  0  0  0  0  2  0  0  0  0  0  0
  196.7350  176.7850  143.1400 C   0  0  0  0  0  2  0  0  0  0  0  0
  196.5520  176.2650  141.7320 C   0  0  0  0  0  2  0  0  0  0  0  0
  195.1490  176.5880  141.2520 C   0  0  0  0  0  2  0  0  0  0  0  0
  193.3280  174.8850  141.2700 C   0  0  0  0  0  1  0  0  0  0  0  0
  194.5480  175.3970  140.5280 C   0  0  0  0  0  2  0  0  0  0  0  0
  1 11  1  0  0  0  0
  2  1  2  0  0  0  0
  3  2  1  0  0  0  0
  4  6  2  0  0  0  0
  5 24  1  0  0  0  0
  5  3  2  0  0  0  0
  6  1  1  0  0  0  0
  7  3  1  0  0  0  0
  7  4  1  0  0  0  0
  8 10  1  0  0  0  0
  9 13  2  0  0  0  0
  9 11  1  0  0  0  0
 11  8  2  0  0  0  0
 12  9  1  0  0  0  0
 13 14  1  0  0  0  0
 14 10  2  0  0  0  0
 15 17  1  0  0  0  0
 16 20  1  0  0  0  0
 17 22  2  0  0  0  0
 17 13  1  0  0  0  0
 18 21  2  0  0  0  0
 19 15  2  0  0  0  0
 19 23  1  0  0  0  0
 20 18  1  0  0  0  0
 22 21  1  0  0  0  0
 23 20  2  0  0  0  0
 23 22  1  0  0  0  0
 24 25  1  6  0  0  0
 26 33  2  0  0  0  0
 27 33  1  0  0  0  0
 27 24  1  0  0  0  0
 28 27  1  0  0  0  0
 29 26  1  0  0  0  0
 30 29  1  0  0  0  0
 31 29  2  0  0  0  0
 31 28  1  0  0  0  0
 32 31  1  0  0  0  0
 35  7  1  0  0  0  0
 35 34  1  0  0  0  0
 36  4  1  0  0  0  0
 37 36  1  0  0  0  0
 38 37  1  0  0  0  0
 39 38  1  0  0  0  0
 41 39  1  0  0  0  0
 41 40  1  0  0  0  0
M  END
>  <MODEL>
4

>  <REMARK>
 VINA RESULT:      -7.4      3.258      5.601
  Name = 
  10 active torsions:
  status: ('A' for Active; 'I' for Inactive)
    1  A    between atoms: C_2  and  C_18
    2  A    between atoms: C_6  and  N_11
    3  A    between atoms: C_6  and  C_29
    4  A    between atoms: C_8  and  C_25
    5  A    between atoms: C_8  and  N_40
    6  A    between atoms: C_9  and  C_22
    7  A    between atoms: C_20  and  C_35
    8  A    between atoms: C_25  and  C_35
    9  A    between atoms: C_26  and  N_40
   10  A    between atoms: C_28  and  N_31
                            x       y       z     vdW  Elec       q    Type
                         _______ _______ _______ _____ _____    ______ ____

>  <TORSDO>
F 10

$$$$
=
 OpenBabel11042414273D

 41 45  0  0  1  0  0  0  0  0999 V2000
  188.6960  176.4640  143.7810 C   0  0  0  0  0  0  0  0  0  0  0  0
  188.6070  175.7480  142.6540 C   0  0  0  0  0  3  0  0  0  0  0  0
  187.7450  176.1940  141.5460 C   0  0  0  0  0  0  0  0  0  0  0  0
  187.0800  178.1380  142.9570 C   0  0  0  0  0  0  0  0  0  0  0  0
  187.6680  175.4900  140.4110 C   0  0  0  0  0  3  0  0  0  0  0  0
  187.8860  177.6930  143.9330 C   0  0  0  0  0  3  0  0  0  0  0  0
  186.9850  177.4100  141.7160 N   0  0  0  0  0  0  0  0  0  0  0  0
  188.9010  175.7500  146.1350 C   0  0  0  0  0  3  0  0  0  0  0  0
  190.9380  175.8010  144.8030 C   0  0  0  0  0  0  0  0  0  0  0  0
  189.6220  175.2980  147.2360 C   0  0  0  0  0  3  0  0  0  0  0  0
  189.5350  175.9960  144.9090 C   0  0  0  0  0  0  0  0  0  0  0  0
  191.8080  176.3370  143.3580 Cl  0  0  0  0  0  0  0  0  0  0  0  0
  191.6590  175.3070  145.9170 C   0  0  0  0  0  0  0  0  0  0  0  0
  190.9910  175.0770  147.1250 C   0  0  0  0  0  3  0  0  0  0  0  0
  194.0210  175.9030  146.2080 N   0  0  0  0  0  0  0  0  0  0  0  0
  197.1910  172.5360  145.6250 N   0  0  0  0  0  1  0  0  0  0  0  0
  193.1090  175.0320  145.8710 C   0  0  0  0  0  0  0  0  0  0  0  0
  194.8570  171.8440  145.2850 C   0  0  0  0  0  3  0  0  0  0  0  0
  195.3160  175.2660  146.1370 C   0  0  0  0  0  3  0  0  0  0  0  0
  195.7900  172.7700  145.5450 C   0  0  0  0  0  0  0  0  0  0  0  0
  193.5120  172.4940  145.3270 C   0  0  0  0  0  3  0  0  0  0  0  0
  193.7610  173.7700  145.5860 C   0  0  0  0  0  0  0  0  0  0  0  0
  195.1140  174.0180  145.7590 C   0  0  0  0  0  0  0  0  0  0  0  0
  188.4330  174.2260  140.1610 C   0  0  2  0  0  3  0  0  0  0  0  0
  189.5240  174.1400  141.0300 O   0  0  0  0  0  1  0  0  0  0  0  0
  190.6220  173.4800  137.2700 C   0  0  0  0  0  3  0  0  0  0  0  0
  188.8890  174.1720  138.7780 N   0  0  0  0  0  0  0  0  0  0  0  0
  187.9910  174.5920  137.6940 C   0  0  0  0  0  2  0  0  0  0  0  0
  189.8810  174.0920  136.1580 C   0  0  0  0  0  0  0  0  0  0  0  0
  190.4390  174.1050  134.9230 F   0  0  0  0  0  0  0  0  0  0  0  0
  188.6790  174.6460  136.3540 C   0  0  0  0  0  0  0  0  0  0  0  0
  188.0210  175.2050  135.3090 F   0  0  0  0  0  0  0  0  0  0  0  0
  190.1410  173.5280  138.5090 C   0  0  0  0  0  3  0  0  0  0  0  0
  184.7610  177.5470  141.0180 O   0  0  0  0  0  1  0  0  0  0  0  0
  186.0730  177.8780  140.6760 C   0  0  0  0  0  2  0  0  0  0  0  0
  186.3130  179.3340  143.1420 N   0  0  0  0  0  2  0  0  0  0  0  0
  185.0530  179.3730  143.8700 C   0  0  0  0  0  2  0  0  0  0  0  0
  185.3300  179.3910  145.3560 C   0  0  0  0  0  2  0  0  0  0  0  0
  184.4450  178.3710  146.0470 C   0  0  0  0  0  2  0  0  0  0  0  0
  186.2110  177.6250  147.6410 C   0  0  0  0  0  1  0  0  0  0  0  0
  185.2710  177.1930  146.5330 C   0  0  0  0  0  2  0  0  0  0  0  0
  1  6  1  0  0  0  0
  1 11  1  0  0  0  0
  2  1  2  0  0  0  0
  3  7  1  0  0  0  0
  3  2  1  0  0  0  0
  4 36  1  0  0  0  0
  4  6  2  0  0  0  0
  5  3  2  0  0  0  0
  7  4  1  0  0  0  0
  8 10  1  0  0  0  0
  9 11  1  0  0  0  0
  9 13  2  0  0  0  0
 11  8  2  0  0  0  0
 12  9  1  0  0  0  0
 13 14  1  0  0  0  0
 14 10  2  0  0  0  0
 17 13  1  0  0  0  0
 17 15  2  0  0  0  0
 18 21  1  0  0  0  0
 18 20  2  0  0  0  0
 19 15  1  0  0  0  0
 20 16  1  0  0  0  0
 20 23  1  0  0  0  0
 21 22  2  0  0  0  0
 22 23  1  0  0  0  0
 22 17  1  0  0  0  0
 23 19  2  0  0  0  0
 24  5  1  0  0  0  0
 24 25  1  1  0  0  0
 26 33  2  0  0  0  0
 27 24  1  0  0  0  0
 28 27  1  0  0  0  0
 29 31  2  0  0  0  0
 29 26  1  0  0  0  0
 30 29  1  0  0  0  0
 31 28  1  0  0  0  0
 32 31  1  0  0  0  0
 33 27  1  0  0  0  0
 35 34  1  0  0  0  0
 35  7  1  0  0  0  0
 36 37  1  0  0  0  0
 37 38  1  0  0  0  0
 38 39  1  0  0  0  0
 39 41  1  0  0  0  0
 41 40  1  0  0  0  0
M  END
>  <MODEL>
5

>  <REMARK>
 VINA RESULT:      -7.2      3.810      7.718
  Name = 
  10 active torsions:
  status: ('A' for Active; 'I' for Inactive)
    1  A    between atoms: C_2  and  C_18
    2  A    between atoms: C_6  and  N_11
    3  A    between atoms: C_6  and  C_29
    4  A    between atoms: C_8  and  C_25
    5  A    between atoms: C_8  and  N_40
    6  A    between atoms: C_9  and  C_22
    7  A    between atoms: C_20  and  C_35
    8  A    between atoms: C_25  and  C_35
    9  A    between atoms: C_26  and  N_40
   10  A    between atoms: C_28  and  N_31
                            x       y       z     vdW  Elec       q    Type
                         _______ _______ _______ _____ _____    ______ ____

>  <TORSDO>
F 10

$$$$
=
 OpenBabel11042414273D

 41 45  0  0  1  0  0  0  0  0999 V2000
  192.4500  174.4950  144.4550 C   0  0  0  0  0  0  0  0  0  0  0  0
  191.8680  173.6170  143.6290 C   0  0  0  0  0  3  0  0  0  0  0  0
  192.6610  172.9000  142.6150 C   0  0  0  0  0  0  0  0  0  0  0  0
  194.6590  174.1600  143.4070 C   0  0  0  0  0  0  0  0  0  0  0  0
  192.0840  172.0080  141.8000 C   0  0  0  0  0  3  0  0  0  0  0  0
  193.8960  174.7810  144.3190 C   0  0  0  0  0  3  0  0  0  0  0  0
  194.0720  173.1840  142.5230 N   0  0  0  0  0  0  0  0  0  0  0  0
  192.3060  175.7190  146.5940 C   0  0  0  0  0  3  0  0  0  0  0  0
  190.2560  175.4840  145.3030 C   0  0  0  0  0  0  0  0  0  0  0  0
  191.6200  176.4390  147.5670 C   0  0  0  0  0  3  0  0  0  0  0  0
  191.6470  175.2420  145.4520 C   0  0  0  0  0  0  0  0  0  0  0  0
  189.3440  174.6900  144.0100 Cl  0  0  0  0  0  0  0  0  0  0  0  0
  189.5720  176.2480  146.2800 C   0  0  0  0  0  0  0  0  0  0  0  0
  190.2640  176.7020  147.4090 C   0  0  0  0  0  3  0  0  0  0  0  0
  187.2660  176.3340  147.1120 N   0  0  0  0  0  0  0  0  0  0  0  0
  184.1220  178.6250  144.5440 N   0  0  0  0  0  1  0  0  0  0  0  0
  188.1380  176.5820  146.1730 C   0  0  0  0  0  0  0  0  0  0  0  0
  186.3960  178.5730  143.6110 C   0  0  0  0  0  3  0  0  0  0  0  0
  185.9900  176.8810  146.7130 C   0  0  0  0  0  3  0  0  0  0  0  0
  185.4910  178.2350  144.5390 C   0  0  0  0  0  0  0  0  0  0  0  0
  187.7180  177.9910  143.9960 C   0  0  0  0  0  3  0  0  0  0  0  0
  187.4810  177.3280  145.1190 C   0  0  0  0  0  0  0  0  0  0  0  0
  186.1620  177.4460  145.5320 C   0  0  0  0  0  0  0  0  0  0  0  0
  190.6280  171.6580  141.8450 C   0  0  2  0  0  3  0  0  0  0  0  0
  190.4650  170.2710  141.8820 O   0  0  0  0  0  1  0  0  0  0  0  0
  189.4010  171.9510  138.3640 C   0  0  0  0  0  3  0  0  0  0  0  0
  189.9370  172.2120  140.6880 N   0  0  0  0  0  0  0  0  0  0  0  0
  189.0610  173.3810  140.8490 C   0  0  0  0  0  2  0  0  0  0  0  0
  188.6990  173.2420  138.3940 C   0  0  0  0  0  0  0  0  0  0  0  0
  188.1910  173.7410  137.2410 F   0  0  0  0  0  0  0  0  0  0  0  0
  188.5730  173.9310  139.5330 C   0  0  0  0  0  0  0  0  0  0  0  0
  187.9230  175.1200  139.5280 F   0  0  0  0  0  0  0  0  0  0  0  0
  189.9860  171.4760  139.4600 C   0  0  0  0  0  3  0  0  0  0  0  0
  195.5160  171.4120  142.0420 O   0  0  0  0  0  1  0  0  0  0  0  0
  194.9030  172.5450  141.5050 C   0  0  0  0  0  2  0  0  0  0  0  0
  196.0560  174.4630  143.3070 N   0  0  0  0  0  2  0  0  0  0  0  0
  196.8480  174.9700  144.4190 C   0  0  0  0  0  2  0  0  0  0  0  0
  197.6700  173.8440  145.0060 C   0  0  0  0  0  2  0  0  0  0  0  0
  196.8590  173.1310  146.0710 C   0  0  0  0  0  2  0  0  0  0  0  0
  195.0290  171.4720  145.7250 C   0  0  0  0  0  1  0  0  0  0  0  0
  196.5220  171.7190  145.6250 C   0  0  0  0  0  2  0  0  0  0  0  0
  1 11  1  0  0  0  0
  2  1  2  0  0  0  0
  3  2  1  0  0  0  0
  4  6  2  0  0  0  0
  5 24  1  0  0  0  0
  5  3  2  0  0  0  0
  6  1  1  0  0  0  0
  7  3  1  0  0  0  0
  7  4  1  0  0  0  0
  8 10  1  0  0  0  0
  9 11  1  0  0  0  0
  9 13  2  0  0  0  0
 11  8  2  0  0  0  0
 12  9  1  0  0  0  0
 13 14  1  0  0  0  0
 14 10  2  0  0  0  0
 17 13  1  0  0  0  0
 17 15  2  0  0  0  0
 18 21  1  0  0  0  0
 18 20  2  0  0  0  0
 19 15  1  0  0  0  0
 20 16  1  0  0  0  0
 20 23  1  0  0  0  0
 21 22  2  0  0  0  0
 22 23  1  0  0  0  0
 22 17  1  0  0  0  0
 23 19  2  0  0  0  0
 24 25  1  6  0  0  0
 26 29  1  0  0  0  0
 26 33  2  0  0  0  0
 27 28  1  0  0  0  0
 27 24  1  0  0  0  0
 29 31  2  0  0  0  0
 30 29  1  0  0  0  0
 31 28  1  0  0  0  0
 32 31  1  0  0  0  0
 33 27  1  0  0  0  0
 35 34  1  0  0  0  0
 35  7  1  0  0  0  0
 36  4  1  0  0  0  0
 36 37  1  0  0  0  0
 37 38  1  0  0  0  0
 38 39  1  0  0  0  0
 41 40  1  0  0  0  0
 41 39  1  0  0  0  0
M  END
>  <MODEL>
6

>  <REMARK>
 VINA RESULT:      -7.1      3.516      5.238
  Name = 
  10 active torsions:
  status: ('A' for Active; 'I' for Inactive)
    1  A    between atoms: C_2  and  C_18
    2  A    between atoms: C_6  and  N_11
    3  A    between atoms: C_6  and  C_29
    4  A    between atoms: C_8  and  C_25
    5  A    between atoms: C_8  and  N_40
    6  A    between atoms: C_9  and  C_22
    7  A    between atoms: C_20  and  C_35
    8  A    between atoms: C_25  and  C_35
    9  A    between atoms: C_26  and  N_40
   10  A    between atoms: C_28  and  N_31
                            x       y       z     vdW  Elec       q    Type
                         _______ _______ _______ _____ _____    ______ ____

>  <TORSDO>
F 10

$$$$
=
 OpenBabel11042414273D

 41 45  0  0  1  0  0  0  0  0999 V2000
  192.3550  174.3720  144.3670 C   0  0  0  0  0  0  0  0  0  0  0  0
  191.9080  173.3360  143.6460 C   0  0  0  0  0  3  0  0  0  0  0  0
  192.6590  172.0690  143.6040 C   0  0  0  0  0  0  0  0  0  0  0  0
  194.3640  173.1290  145.0810 C   0  0  0  0  0  0  0  0  0  0  0  0
  192.2050  171.0270  142.8990 C   0  0  0  0  0  3  0  0  0  0  0  0
  193.6400  174.2580  145.0940 C   0  0  0  0  0  3  0  0  0  0  0  0
  193.8960  171.9820  144.3420 N   0  0  0  0  0  0  0  0  0  0  0  0
  192.1980  176.7480  143.7170 C   0  0  0  0  0  3  0  0  0  0  0  0
  190.3720  175.8290  145.0390 C   0  0  0  0  0  0  0  0  0  0  0  0
  191.5590  177.9830  143.6780 C   0  0  0  0  0  3  0  0  0  0  0  0
  191.6180  175.6570  144.3810 C   0  0  0  0  0  0  0  0  0  0  0  0
  189.7340  174.5580  146.0910 Cl  0  0  0  0  0  0  0  0  0  0  0  0
  189.7110  177.0790  144.9640 C   0  0  0  0  0  0  0  0  0  0  0  0
  190.3230  178.1460  144.2960 C   0  0  0  0  0  3  0  0  0  0  0  0
  188.1820  177.3150  146.8680 N   0  0  0  0  0  0  0  0  0  0  0  0
  183.8210  178.7030  145.9840 N   0  0  0  0  0  1  0  0  0  0  0  0
  188.3910  177.3240  145.5800 C   0  0  0  0  0  0  0  0  0  0  0  0
  185.2650  178.4710  144.0080 C   0  0  0  0  0  3  0  0  0  0  0  0
  186.8080  177.6870  147.1150 C   0  0  0  0  0  3  0  0  0  0  0  0
  185.0380  178.3730  145.3250 C   0  0  0  0  0  0  0  0  0  0  0  0
  186.6760  178.0630  143.7330 C   0  0  0  0  0  3  0  0  0  0  0  0
  187.1680  177.7270  144.9180 C   0  0  0  0  0  0  0  0  0  0  0  0
  186.2500  177.9110  145.9400 C   0  0  0  0  0  0  0  0  0  0  0  0
  190.9270  171.0430  142.1170 C   0  0  2  0  0  3  0  0  0  0  0  0
  190.4780  169.7390  141.8950 O   0  0  0  0  0  1  0  0  0  0  0  0
  192.5780  172.1210  138.9830 C   0  0  0  0  0  3  0  0  0  0  0  0
  191.1170  171.7300  140.8460 N   0  0  0  0  0  0  0  0  0  0  0  0
  190.0040  172.4760  140.2420 C   0  0  0  0  0  2  0  0  0  0  0  0
  191.6000  173.0680  138.4320 C   0  0  0  0  0  0  0  0  0  0  0  0
  191.9130  173.7570  137.3070 F   0  0  0  0  0  0  0  0  0  0  0  0
  190.4210  173.2690  139.0310 C   0  0  0  0  0  0  0  0  0  0  0  0
  189.5420  174.1530  138.5000 F   0  0  0  0  0  0  0  0  0  0  0  0
  192.3370  171.4940  140.1320 C   0  0  0  0  0  3  0  0  0  0  0  0
  195.6590  170.8810  143.2790 O   0  0  0  0  0  1  0  0  0  0  0  0
  194.7130  170.7720  144.2990 C   0  0  0  0  0  2  0  0  0  0  0  0
  195.6030  173.0570  145.7980 N   0  0  0  0  0  2  0  0  0  0  0  0
  196.6530  174.0590  145.6880 C   0  0  0  0  0  2  0  0  0  0  0  0
  197.2660  173.9960  144.3060 C   0  0  0  0  0  2  0  0  0  0  0  0
  196.9890  175.2940  143.5710 C   0  0  0  0  0  2  0  0  0  0  0  0
  195.2340  176.0960  141.9930 C   0  0  0  0  0  1  0  0  0  0  0  0
  196.2670  175.0200  142.2640 C   0  0  0  0  0  2  0  0  0  0  0  0
  1 11  1  0  0  0  0
  1  6  1  0  0  0  0
  2  1  2  0  0  0  0
  3  2  1  0  0  0  0
  3  7  1  0  0  0  0
  4  6  2  0  0  0  0
  4 36  1  0  0  0  0
  5  3  2  0  0  0  0
  7  4  1  0  0  0  0
  8 11  1  0  0  0  0
  9 12  1  0  0  0  0
 10  8  2  0  0  0  0
 10 14  1  0  0  0  0
 11  9  2  0  0  0  0
 13  9  1  0  0  0  0
 13 17  1  0  0  0  0
 14 13  2  0  0  0  0
 15 19  1  0  0  0  0
 17 15  2  0  0  0  0
 18 20  2  0  0  0  0
 20 23  1  0  0  0  0
 20 16  1  0  0  0  0
 21 18  1  0  0  0  0
 21 22  2  0  0  0  0
 22 17  1  0  0  0  0
 22 23  1  0  0  0  0
 23 19  2  0  0  0  0
 24 25  1  6  0  0  0
 24  5  1  0  0  0  0
 26 33  2  0  0  0  0
 27 24  1  0  0  0  0
 28 27  1  0  0  0  0
 29 26  1  0  0  0  0
 29 31  2  0  0  0  0
 30 29  1  0  0  0  0
 31 28  1  0  0  0  0
 32 31  1  0  0  0  0
 33 27  1  0  0  0  0
 34 35  1  0  0  0  0
 35  7  1  0  0  0  0
 37 36  1  0  0  0  0
 38 37  1  0  0  0  0
 39 38  1  0  0  0  0
 40 41  1  0  0  0  0
 41 39  1  0  0  0  0
M  END
>  <MODEL>
7

>  <REMARK>
 VINA RESULT:      -7.0      3.340      4.790
  Name = 
  10 active torsions:
  status: ('A' for Active; 'I' for Inactive)
    1  A    between atoms: C_2  and  C_18
    2  A    between atoms: C_6  and  N_11
    3  A    between atoms: C_6  and  C_29
    4  A    between atoms: C_8  and  C_25
    5  A    between atoms: C_8  and  N_40
    6  A    between atoms: C_9  and  C_22
    7  A    between atoms: C_20  and  C_35
    8  A    between atoms: C_25  and  C_35
    9  A    between atoms: C_26  and  N_40
   10  A    between atoms: C_28  and  N_31
                            x       y       z     vdW  Elec       q    Type
                         _______ _______ _______ _____ _____    ______ ____

>  <TORSDO>
F 10

$$$$
=
 OpenBabel11042414273D

 41 45  0  0  1  0  0  0  0  0999 V2000
  192.4780  173.9200  145.2910 C   0  0  0  0  0  0  0  0  0  0  0  0
  191.9830  173.1210  144.3370 C   0  0  0  0  0  3  0  0  0  0  0  0
  192.8440  172.1390  143.6560 C   0  0  0  0  0  0  0  0  0  0  0  0
  194.7430  172.9740  145.0370 C   0  0  0  0  0  0  0  0  0  0  0  0
  192.3470  171.3280  142.7150 C   0  0  0  0  0  3  0  0  0  0  0  0
  193.9160  173.8450  145.6340 C   0  0  0  0  0  3  0  0  0  0  0  0
  194.2370  172.0760  144.0290 N   0  0  0  0  0  0  0  0  0  0  0  0
  191.9420  175.3010  147.2650 C   0  0  0  0  0  3  0  0  0  0  0  0
  190.4950  175.5250  145.3200 C   0  0  0  0  0  0  0  0  0  0  0  0
  191.1890  176.2530  147.9450 C   0  0  0  0  0  3  0  0  0  0  0  0
  191.6200  174.9310  145.9510 C   0  0  0  0  0  0  0  0  0  0  0  0
  189.9110  174.9060  143.7690 Cl  0  0  0  0  0  0  0  0  0  0  0  0
  189.7550  176.5190  146.0050 C   0  0  0  0  0  0  0  0  0  0  0  0
  190.1050  176.8580  147.3170 C   0  0  0  0  0  3  0  0  0  0  0  0
  188.6460  177.8070  144.2370 N   0  0  0  0  0  0  0  0  0  0  0  0
  184.0690  178.5770  144.6640 N   0  0  0  0  0  1  0  0  0  0  0  0
  188.6030  177.2170  145.4000 C   0  0  0  0  0  0  0  0  0  0  0  0
  185.0910  177.3010  146.5010 C   0  0  0  0  0  3  0  0  0  0  0  0
  187.3240  178.2950  143.9180 C   0  0  0  0  0  3  0  0  0  0  0  0
  185.1650  177.9810  145.3480 C   0  0  0  0  0  0  0  0  0  0  0  0
  186.4570  176.8120  146.8580 C   0  0  0  0  0  3  0  0  0  0  0  0
  187.2420  177.2680  145.8920 C   0  0  0  0  0  0  0  0  0  0  0  0
  186.5360  177.9640  144.9240 C   0  0  0  0  0  0  0  0  0  0  0  0
  190.9120  171.3330  142.2840 C   0  0  2  0  0  3  0  0  0  0  0  0
  190.4480  170.0240  142.1310 O   0  0  0  0  0  1  0  0  0  0  0  0
  189.4290  173.6160  139.7750 C   0  0  0  0  0  3  0  0  0  0  0  0
  190.7600  172.0670  141.0350 N   0  0  0  0  0  0  0  0  0  0  0  0
  191.8360  172.0440  140.0350 C   0  0  0  0  0  2  0  0  0  0  0  0
  190.3460  173.4600  138.6380 C   0  0  0  0  0  0  0  0  0  0  0  0
  190.0590  174.0860  137.4700 F   0  0  0  0  0  0  0  0  0  0  0  0
  191.4420  172.7000  138.7370 C   0  0  0  0  0  0  0  0  0  0  0  0
  192.2670  172.5730  137.6680 F   0  0  0  0  0  0  0  0  0  0  0  0
  189.6360  172.9470  140.9060 C   0  0  0  0  0  3  0  0  0  0  0  0
  195.6950  171.7830  142.2290 O   0  0  0  0  0  1  0  0  0  0  0  0
  195.1540  171.1610  143.3550 C   0  0  0  0  0  2  0  0  0  0  0  0
  196.1300  172.9320  145.3980 N   0  0  0  0  0  2  0  0  0  0  0  0
  197.0170  174.0830  145.3080 C   0  0  0  0  0  2  0  0  0  0  0  0
  197.0390  174.5920  143.8840 C   0  0  0  0  0  2  0  0  0  0  0  0
  196.4340  175.9820  143.8360 C   0  0  0  0  0  2  0  0  0  0  0  0
  194.4080  175.5800  142.4380 C   0  0  0  0  0  1  0  0  0  0  0  0
  195.7780  176.2290  142.4890 C   0  0  0  0  0  2  0  0  0  0  0  0
  1  6  1  0  0  0  0
  1 11  1  0  0  0  0
  2  1  2  0  0  0  0
  3  7  1  0  0  0  0
  3  2  1  0  0  0  0
  4 36  1  0  0  0  0
  4  6  2  0  0  0  0
  5  3  2  0  0  0  0
  7  4  1  0  0  0  0
  8 10  1  0  0  0  0
  9 11  1  0  0  0  0
  9 13  2  0  0  0  0
 11  8  2  0  0  0  0
 12  9  1  0  0  0  0
 13 14  1  0  0  0  0
 14 10  2  0  0  0  0
 15 17  1  0  0  0  0
 16 20  1  0  0  0  0
 17 22  2  0  0  0  0
 17 13  1  0  0  0  0
 18 21  2  0  0  0  0
 19 15  2  0  0  0  0
 19 23  1  0  0  0  0
 20 18  1  0  0  0  0
 22 21  1  0  0  0  0
 23 20  2  0  0  0  0
 23 22  1  0  0  0  0
 24 25  1  6  0  0  0
 24  5  1  0  0  0  0
 26 33  2  0  0  0  0
 27 24  1  0  0  0  0
 28 27  1  0  0  0  0
 29 31  2  0  0  0  0
 29 26  1  0  0  0  0
 30 29  1  0  0  0  0
 31 28  1  0  0  0  0
 32 31  1  0  0  0  0
 33 27  1  0  0  0  0
 34 35  1  0  0  0  0
 35  7  1  0  0  0  0
 37 36  1  0  0  0  0
 38 37  1  0  0  0  0
 39 38  1  0  0  0  0
 40 41  1  0  0  0  0
 41 39  1  0  0  0  0
M  END
>  <MODEL>
8

>  <REMARK>
 VINA RESULT:      -6.9      3.287      4.910
  Name = 
  10 active torsions:
  status: ('A' for Active; 'I' for Inactive)
    1  A    between atoms: C_2  and  C_18
    2  A    between atoms: C_6  and  N_11
    3  A    between atoms: C_6  and  C_29
    4  A    between atoms: C_8  and  C_25
    5  A    between atoms: C_8  and  N_40
    6  A    between atoms: C_9  and  C_22
    7  A    between atoms: C_20  and  C_35
    8  A    between atoms: C_25  and  C_35
    9  A    between atoms: C_26  and  N_40
   10  A    between atoms: C_28  and  N_31
                            x       y       z     vdW  Elec       q    Type
                         _______ _______ _______ _____ _____    ______ ____

>  <TORSDO>
F 10

$$$$
=
 OpenBabel11042414273D

 41 45  0  0  1  0  0  0  0  0999 V2000
  191.9610  174.2490  143.9900 C   0  0  0  0  0  0  0  0  0  0  0  0
  191.5630  173.4650  142.9810 C   0  0  0  0  0  3  0  0  0  0  0  0
  192.1850  172.1480  142.7620 C   0  0  0  0  0  0  0  0  0  0  0  0
  193.6730  172.6200  144.7040 C   0  0  0  0  0  0  0  0  0  0  0  0
  191.7760  171.3550  141.7650 C   0  0  0  0  0  3  0  0  0  0  0  0
  193.0690  173.8070  144.8670 C   0  0  0  0  0  3  0  0  0  0  0  0
  193.2460  171.7360  143.6480 N   0  0  0  0  0  0  0  0  0  0  0  0
  192.0490  176.6950  143.6740 C   0  0  0  0  0  3  0  0  0  0  0  0
  190.1370  175.7940  144.8810 C   0  0  0  0  0  0  0  0  0  0  0  0
  191.5410  177.9830  143.8130 C   0  0  0  0  0  3  0  0  0  0  0  0
  191.3600  175.5890  144.1900 C   0  0  0  0  0  0  0  0  0  0  0  0
  189.3710  174.4620  145.7580 Cl  0  0  0  0  0  0  0  0  0  0  0  0
  189.6080  177.1040  144.9880 C   0  0  0  0  0  0  0  0  0  0  0  0
  190.3280  178.1840  144.4630 C   0  0  0  0  0  3  0  0  0  0  0  0
  188.1890  177.5620  146.9350 N   0  0  0  0  0  0  0  0  0  0  0  0
  183.7330  178.6810  146.1540 N   0  0  0  0  0  1  0  0  0  0  0  0
  188.3200  177.3940  145.6480 C   0  0  0  0  0  0  0  0  0  0  0  0
  185.0630  178.2140  144.1390 C   0  0  0  0  0  3  0  0  0  0  0  0
  186.8200  177.9250  147.2170 C   0  0  0  0  0  3  0  0  0  0  0  0
  184.9190  178.2970  145.4690 C   0  0  0  0  0  0  0  0  0  0  0  0
  186.4690  177.8120  143.8320 C   0  0  0  0  0  3  0  0  0  0  0  0
  187.0440  177.6630  145.0170 C   0  0  0  0  0  0  0  0  0  0  0  0
  186.1830  177.9630  146.0620 C   0  0  0  0  0  0  0  0  0  0  0  0
  190.6750  171.7140  140.8130 C   0  0  2  0  0  3  0  0  0  0  0  0
  189.4330  171.5900  141.4400 O   0  0  0  0  0  1  0  0  0  0  0  0
  191.7220  168.9390  138.5950 C   0  0  0  0  0  3  0  0  0  0  0  0
  190.7270  170.8600  139.6320 N   0  0  0  0  0  0  0  0  0  0  0  0
  189.7550  171.0520  138.5470 C   0  0  0  0  0  2  0  0  0  0  0  0
  190.9460  169.2100  137.3780 C   0  0  0  0  0  0  0  0  0  0  0  0
  191.1480  168.4370  136.2830 F   0  0  0  0  0  0  0  0  0  0  0  0
  190.0620  170.2130  137.3330 C   0  0  0  0  0  0  0  0  0  0  0  0
  189.3630  170.4400  136.1940 F   0  0  0  0  0  0  0  0  0  0  0  0
  191.6100  169.7330  139.6570 C   0  0  0  0  0  3  0  0  0  0  0  0
  193.3410  169.4780  144.2370 O   0  0  0  0  0  1  0  0  0  0  0  0
  193.9380  170.4650  143.4520 C   0  0  0  0  0  2  0  0  0  0  0  0
  194.7410  172.2270  145.5750 N   0  0  0  0  0  2  0  0  0  0  0  0
  195.9620  173.0000  145.7450 C   0  0  0  0  0  2  0  0  0  0  0  0
  196.7090  173.0570  144.4310 C   0  0  0  0  0  2  0  0  0  0  0  0
  197.2070  174.4700  144.1940 C   0  0  0  0  0  2  0  0  0  0  0  0
  195.6510  176.4170  144.1100 C   0  0  0  0  0  1  0  0  0  0  0  0
  196.2210  175.2430  143.3370 C   0  0  0  0  0  2  0  0  0  0  0  0
  1 11  1  0  0  0  0
  1  6  1  0  0  0  0
  2  1  2  0  0  0  0
  3  2  1  0  0  0  0
  3  7  1  0  0  0  0
  4  6  2  0  0  0  0
  4 36  1  0  0  0  0
  5  3  2  0  0  0  0
  7  4  1  0  0  0  0
  8 10  2  0  0  0  0
  8 11  1  0  0  0  0
  9 13  1  0  0  0  0
  9 12  1  0  0  0  0
 10 14  1  0  0  0  0
 11  9  2  0  0  0  0
 13 17  1  0  0  0  0
 14 13  2  0  0  0  0
 15 19  1  0  0  0  0
 17 15  2  0  0  0  0
 18 20  2  0  0  0  0
 20 23  1  0  0  0  0
 20 16  1  0  0  0  0
 21 18  1  0  0  0  0
 21 22  2  0  0  0  0
 22 17  1  0  0  0  0
 22 23  1  0  0  0  0
 23 19  2  0  0  0  0
 24 25  1  1  0  0  0
 24  5  1  0  0  0  0
 26 33  2  0  0  0  0
 27 33  1  0  0  0  0
 27 24  1  0  0  0  0
 28 27  1  0  0  0  0
 29 26  1  0  0  0  0
 30 29  1  0  0  0  0
 31 29  2  0  0  0  0
 31 28  1  0  0  0  0
 32 31  1  0  0  0  0
 35  7  1  0  0  0  0
 35 34  1  0  0  0  0
 36 37  1  0  0  0  0
 38 37  1  0  0  0  0
 39 38  1  0  0  0  0
 41 40  1  0  0  0  0
 41 39  1  0  0  0  0
M  END
>  <MODEL>
9

>  <REMARK>
 VINA RESULT:      -6.8      4.221      5.318
  Name = 
  10 active torsions:
  status: ('A' for Active; 'I' for Inactive)
    1  A    between atoms: C_2  and  C_18
    2  A    between atoms: C_6  and  N_11
    3  A    between atoms: C_6  and  C_29
    4  A    between atoms: C_8  and  C_25
    5  A    between atoms: C_8  and  N_40
    6  A    between atoms: C_9  and  C_22
    7  A    between atoms: C_20  and  C_35
    8  A    between atoms: C_25  and  C_35
    9  A    between atoms: C_26  and  N_40
   10  A    between atoms: C_28  and  N_31
                            x       y       z     vdW  Elec       q    Type
                         _______ _______ _______ _____ _____    ______ ____

>  <TORSDO>
F 10

$$$$
