=
 OpenBabel11042417153D

 31 34  0  0  1  0  0  0  0  0999 V2000
  188.5830  174.5310  140.2740 C   0  0  0  0  0  1  0  0  0  0  0  0
  186.0600  178.7350  143.3780 C   0  0  0  0  0  1  0  0  0  0  0  0
  189.1320  177.8630  146.2990 O   0  0  0  0  0  1  0  0  0  0  0  0
  188.2830  176.8300  145.8960 C   0  0  2  0  0  0  0  0  0  0  0  0
  188.9000  175.8150  145.1620 C   0  0  0  0  0  0  0  0  0  0  0  0
  187.9670  175.5900  141.1250 C   0  0  0  0  0  0  0  0  0  0  0  0
  185.6010  178.3480  140.5420 N   0  0  0  0  0  1  0  0  0  0  0  0
  186.7270  177.6420  142.6050 C   0  0  0  0  0  0  0  0  0  0  0  0
  188.2610  175.6920  142.4940 C   0  0  0  0  0  0  0  0  0  0  0  0
  189.1890  174.7520  143.1370 C   0  0  0  0  0  3  0  0  0  0  0  0
  187.9680  176.7560  144.5370 C   0  0  0  0  0  0  0  0  0  0  0  0
  189.5450  174.7960  144.5290 C   0  0  0  0  0  0  0  0  0  0  0  0
  187.1030  176.4710  140.5460 N   0  0  0  0  0  0  0  0  0  0  0  0
  187.6080  176.7550  143.2240 C   0  0  0  0  0  0  0  0  0  0  0  0
  186.4880  177.4750  141.2330 C   0  0  0  0  0  0  0  0  0  0  0  0
  193.8520  174.8460  143.9800 C   0  0  1  0  0  3  0  0  0  0  0  0
  192.1630  173.1690  143.1350 C   0  0  0  0  0  2  0  0  0  0  0  0
  194.5460  172.5280  143.3570 C   0  0  0  0  0  1  0  0  0  0  0  0
  191.6100  174.3380  145.9390 N   0  0  0  0  0  2  0  0  0  0  0  0
  191.9790  175.7130  145.5860 C   0  0  2  0  0  3  0  0  0  0  0  0
  190.4640  173.7990  145.1860 C   0  0  2  0  0  3  0  0  0  0  0  0
  192.6860  175.8180  144.2260 C   0  0  0  0  0  2  0  0  0  0  0  0
  194.8640  175.0430  144.9200 O   0  0  0  0  0  1  0  0  0  0  0  0
  192.8250  176.3190  146.6870 C   0  0  0  0  0  1  0  0  0  0  0  0
  190.9030  172.3440  144.1570 S   0  0  0  0  0  0  0  0  0  0  0  0
  193.4340  173.3740  143.9450 C   0  0  1  0  0  3  0  0  0  0  0  0
  187.2770  176.3690  146.8430 N   0  0  0  0  0  2  0  0  0  0  0  0
  185.9620  176.7060  146.3180 C   0  0  0  0  0  2  0  0  0  0  0  0
  185.4520  177.9300  146.9910 C   0  0  0  0  0  0  0  0  0  0  0  0
  185.9880  178.3250  148.0960 N   0  0  0  0  0  1  0  0  0  0  0  0
  184.2680  178.5610  146.5130 N   0  0  0  0  0  2  0  0  0  0  0  0
  1  6  1  0  0  0  0
  4  3  1  1  0  0  0
  4 27  1  0  0  0  0
  5  4  1  0  0  0  0
  6  9  1  0  0  0  0
  7 15  1  0  0  0  0
  8 14  1  0  0  0  0
  8  2  1  0  0  0  0
  9 10  2  0  0  0  0
  9 14  1  0  0  0  0
 10 12  1  0  0  0  0
 11  5  1  0  0  0  0
 11  4  1  0  0  0  0
 12  5  2  0  0  0  0
 13  6  2  0  0  0  0
 13 15  1  0  0  0  0
 14 11  2  0  0  0  0
 15  8  2  0  0  0  0
 16 22  1  0  0  0  0
 16 23  1  1  0  0  0
 17 26  1  0  0  0  0
 17 25  1  0  0  0  0
 20 19  1  0  0  0  0
 20 24  1  1  0  0  0
 21 12  1  6  0  0  0
 21 19  1  0  0  0  0
 22 20  1  0  0  0  0
 25 21  1  0  0  0  0
 26 18  1  6  0  0  0
 26 16  1  0  0  0  0
 28 27  1  0  0  0  0
 28 29  1  0  0  0  0
 29 30  1  0  0  0  0
 31 29  2  0  0  0  0
M  END
>  <MODEL>
1

>  <REMARK>
 VINA RESULT:      -7.7      0.000      0.000
  Name = 
  4 active torsions:
  status: ('A' for Active; 'I' for Inactive)
    1  A    between atoms: C_5  and  N_14
    2  A    between atoms: C_7  and  C_31
    3  A    between atoms: N_14  and  C_31
    4  A    between atoms: C_19  and  C_25
                            x       y       z     vdW  Elec       q    Type
                         _______ _______ _______ _____ _____    ______ ____

>  <TORSDO>
F 4

$$$$
=
 OpenBabel11042417153D

 31 34  0  0  1  0  0  0  0  0999 V2000
  186.2600  178.1190  148.0880 C   0  0  0  0  0  1  0  0  0  0  0  0
  185.9940  178.4540  142.3000 C   0  0  0  0  0  1  0  0  0  0  0  0
  187.8470  174.5450  142.3950 O   0  0  0  0  0  1  0  0  0  0  0  0
  188.5010  175.6070  143.0230 C   0  0  2  0  0  0  0  0  0  0  0  0
  188.5730  175.5120  144.4150 C   0  0  0  0  0  0  0  0  0  0  0  0
  186.2340  178.1550  146.5970 C   0  0  0  0  0  0  0  0  0  0  0  0
  184.4660  180.1660  144.0710 N   0  0  0  0  0  1  0  0  0  0  0  0
  186.0830  178.3420  143.7890 C   0  0  0  0  0  0  0  0  0  0  0  0
  187.0140  177.2750  145.8300 C   0  0  0  0  0  0  0  0  0  0  0  0
  187.8880  176.2860  146.4750 C   0  0  0  0  0  3  0  0  0  0  0  0
  187.7120  176.4970  143.7570 C   0  0  0  0  0  0  0  0  0  0  0  0
  188.7100  175.3480  145.7600 C   0  0  0  0  0  0  0  0  0  0  0  0
  185.4300  179.0670  145.9800 N   0  0  0  0  0  0  0  0  0  0  0  0
  186.9140  177.3980  144.3930 C   0  0  0  0  0  0  0  0  0  0  0  0
  185.3340  179.1820  144.6260 C   0  0  0  0  0  0  0  0  0  0  0  0
  193.0260  175.8270  145.8040 C   0  0  1  0  0  3  0  0  0  0  0  0
  191.6310  174.1150  144.5790 C   0  0  0  0  0  2  0  0  0  0  0  0
  194.0190  173.6600  145.0570 C   0  0  0  0  0  1  0  0  0  0  0  0
  190.6180  174.9160  147.3840 N   0  0  0  0  0  2  0  0  0  0  0  0
  190.8900  176.3480  147.2200 C   0  0  2  0  0  3  0  0  0  0  0  0
  189.6340  174.3670  146.4330 C   0  0  2  0  0  3  0  0  0  0  0  0
  191.7480  176.6630  145.9850 C   0  0  0  0  0  2  0  0  0  0  0  0
  193.8870  176.0040  146.8880 O   0  0  0  0  0  1  0  0  0  0  0  0
  191.5270  176.8990  148.4800 C   0  0  0  0  0  1  0  0  0  0  0  0
  190.3410  173.0780  145.3360 S   0  0  0  0  0  0  0  0  0  0  0  0
  192.7630  174.3370  145.5690 C   0  0  1  0  0  3  0  0  0  0  0  0
  189.6980  176.1390  142.3880 N   0  0  0  0  0  2  0  0  0  0  0  0
  189.7870  177.5600  142.6910 C   0  0  0  0  0  2  0  0  0  0  0  0
  191.1920  177.9140  143.0290 C   0  0  0  0  0  0  0  0  0  0  0  0
  191.4490  179.0410  143.6020 N   0  0  0  0  0  1  0  0  0  0  0  0
  192.2600  177.0960  142.5640 N   0  0  0  0  0  2  0  0  0  0  0  0
  2  8  1  0  0  0  0
  4  3  1  6  0  0  0
  4 11  1  0  0  0  0
  4  5  1  0  0  0  0
  5 12  1  0  0  0  0
  6  1  1  0  0  0  0
  7 15  1  0  0  0  0
  8 14  2  0  0  0  0
  8 15  1  0  0  0  0
  9 10  1  0  0  0  0
  9  6  2  0  0  0  0
 11 14  1  0  0  0  0
 11  5  2  0  0  0  0
 12 10  2  0  0  0  0
 13  6  1  0  0  0  0
 14  9  1  0  0  0  0
 15 13  2  0  0  0  0
 16 22  1  0  0  0  0
 16 23  1  1  0  0  0
 17 25  1  0  0  0  0
 17 26  1  0  0  0  0
 20 19  1  0  0  0  0
 20 24  1  1  0  0  0
 21 12  1  6  0  0  0
 21 19  1  0  0  0  0
 22 20  1  0  0  0  0
 25 21  1  0  0  0  0
 26 18  1  6  0  0  0
 26 16  1  0  0  0  0
 27 28  1  0  0  0  0
 27  4  1  0  0  0  0
 28 29  1  0  0  0  0
 29 30  1  0  0  0  0
 31 29  2  0  0  0  0
M  END
>  <MODEL>
2

>  <REMARK>
 VINA RESULT:      -7.4      2.225      4.207
  Name = 
  4 active torsions:
  status: ('A' for Active; 'I' for Inactive)
    1  A    between atoms: C_5  and  N_14
    2  A    between atoms: C_7  and  C_31
    3  A    between atoms: N_14  and  C_31
    4  A    between atoms: C_19  and  C_25
                            x       y       z     vdW  Elec       q    Type
                         _______ _______ _______ _____ _____    ______ ____

>  <TORSDO>
F 4

$$$$
=
 OpenBabel11042417153D

 31 34  0  0  1  0  0  0  0  0999 V2000
  190.1010  177.5690  147.8400 C   0  0  0  0  0  1  0  0  0  0  0  0
  185.2350  177.5830  144.6780 C   0  0  0  0  0  1  0  0  0  0  0  0
  187.4740  175.0600  141.9660 O   0  0  0  0  0  1  0  0  0  0  0  0
  187.9840  176.3220  142.2770 C   0  0  2  0  0  0  0  0  0  0  0  0
  189.1630  176.3110  143.0260 C   0  0  0  0  0  0  0  0  0  0  0  0
  188.8850  177.5490  146.9760 C   0  0  0  0  0  0  0  0  0  0  0  0
  185.3340  178.3870  147.4610 N   0  0  0  0  0  1  0  0  0  0  0  0
  186.5050  177.5660  145.4670 C   0  0  0  0  0  0  0  0  0  0  0  0
  188.9460  177.1360  145.6360 C   0  0  0  0  0  0  0  0  0  0  0  0
  190.2180  176.7100  145.0370 C   0  0  0  0  0  3  0  0  0  0  0  0
  187.8890  176.7390  143.6070 C   0  0  0  0  0  0  0  0  0  0  0  0
  190.3590  176.2680  143.6760 C   0  0  0  0  0  0  0  0  0  0  0  0
  187.6960  177.9420  147.5150 N   0  0  0  0  0  0  0  0  0  0  0  0
  187.7080  177.1580  144.8900 C   0  0  0  0  0  0  0  0  0  0  0  0
  186.5280  177.9610  146.8130 C   0  0  0  0  0  0  0  0  0  0  0  0
  192.4230  172.5840  144.6880 C   0  0  1  0  0  3  0  0  0  0  0  0
  193.0610  174.9640  145.2390 C   0  0  0  0  0  2  0  0  0  0  0  0
  194.7850  173.1850  145.2350 C   0  0  0  0  0  1  0  0  0  0  0  0
  191.7660  174.5270  142.4710 N   0  0  0  0  0  2  0  0  0  0  0  0
  190.7480  173.5850  142.9470 C   0  0  2  0  0  3  0  0  0  0  0  0
  191.6770  175.8750  143.0610 C   0  0  2  0  0  3  0  0  0  0  0  0
  191.0050  173.0910  144.3790 C   0  0  0  0  0  2  0  0  0  0  0  0
  192.7450  171.4960  143.8760 O   0  0  0  0  0  1  0  0  0  0  0  0
  190.6310  172.4210  141.9830 C   0  0  0  0  0  1  0  0  0  0  0  0
  193.1630  176.3280  144.0380 S   0  0  0  0  0  0  0  0  0  0  0  0
  193.5020  173.6650  144.5850 C   0  0  1  0  0  3  0  0  0  0  0  0
  187.9300  177.3500  141.2470 N   0  0  0  0  0  2  0  0  0  0  0  0
  186.7240  178.1400  141.4490 C   0  0  0  0  0  2  0  0  0  0  0  0
  185.7850  177.9190  140.3170 C   0  0  0  0  0  0  0  0  0  0  0  0
  184.5470  178.2670  140.4320 N   0  0  0  0  0  1  0  0  0  0  0  0
  186.2060  177.1690  139.1820 N   0  0  0  0  0  2  0  0  0  0  0  0
  2  8  1  0  0  0  0
  4  3  1  6  0  0  0
  4  5  1  0  0  0  0
  4 11  1  0  0  0  0
  5 11  2  0  0  0  0
  5 12  1  0  0  0  0
  6 13  1  0  0  0  0
  6  1  1  0  0  0  0
  8 15  1  0  0  0  0
  9  6  2  0  0  0  0
 10  9  1  0  0  0  0
 11 14  1  0  0  0  0
 12 10  2  0  0  0  0
 14  8  2  0  0  0  0
 14  9  1  0  0  0  0
 15  7  1  0  0  0  0
 15 13  2  0  0  0  0
 16 23  1  6  0  0  0
 19 20  1  0  0  0  0
 19 21  1  0  0  0  0
 20 24  1  6  0  0  0
 20 22  1  0  0  0  0
 21 12  1  1  0  0  0
 21 25  1  0  0  0  0
 22 16  1  0  0  0  0
 25 17  1  0  0  0  0
 26 16  1  0  0  0  0
 26 18  1  1  0  0  0
 26 17  1  0  0  0  0
 27 28  1  0  0  0  0
 27  4  1  0  0  0  0
 29 30  1  0  0  0  0
 29 28  1  0  0  0  0
 31 29  2  0  0  0  0
M  END
>  <MODEL>
3

>  <REMARK>
 VINA RESULT:      -7.3      2.101      4.744
  Name = 
  4 active torsions:
  status: ('A' for Active; 'I' for Inactive)
    1  A    between atoms: C_5  and  N_14
    2  A    between atoms: C_7  and  C_31
    3  A    between atoms: N_14  and  C_31
    4  A    between atoms: C_19  and  C_25
                            x       y       z     vdW  Elec       q    Type
                         _______ _______ _______ _____ _____    ______ ____

>  <TORSDO>
F 4

$$$$
=
 OpenBabel11042417153D

 31 34  0  0  1  0  0  0  0  0999 V2000
  189.2850  172.2770  142.3780 C   0  0  0  0  0  1  0  0  0  0  0  0
  194.2450  172.1770  145.3900 C   0  0  0  0  0  1  0  0  0  0  0  0
  192.8880  175.9710  146.9690 O   0  0  0  0  0  1  0  0  0  0  0  0
  193.0290  175.8370  145.5870 C   0  0  2  0  0  0  0  0  0  0  0  0
  191.8320  175.8760  144.8670 C   0  0  0  0  0  0  0  0  0  0  0  0
  190.5520  172.3150  143.1650 C   0  0  0  0  0  0  0  0  0  0  0  0
  193.1100  169.8410  144.1030 N   0  0  0  0  0  1  0  0  0  0  0  0
  192.9630  172.2350  144.6210 C   0  0  0  0  0  0  0  0  0  0  0  0
  191.0130  173.5040  143.7530 C   0  0  0  0  0  0  0  0  0  0  0  0
  190.2590  174.7570  143.6090 C   0  0  0  0  0  3  0  0  0  0  0  0
  192.5980  174.6370  145.0150 C   0  0  0  0  0  0  0  0  0  0  0  0
  190.6610  176.0110  144.1850 C   0  0  0  0  0  0  0  0  0  0  0  0
  191.2660  171.1630  143.3080 N   0  0  0  0  0  0  0  0  0  0  0  0
  192.2520  173.4290  144.4920 C   0  0  0  0  0  0  0  0  0  0  0  0
  192.4340  171.0900  144.0070 C   0  0  0  0  0  0  0  0  0  0  0  0
  186.8270  176.7840  146.0710 C   0  0  1  0  0  3  0  0  0  0  0  0
  187.3450  176.3890  143.6310 C   0  0  0  0  0  2  0  0  0  0  0  0
  185.2680  177.5720  144.2850 C   0  0  0  0  0  1  0  0  0  0  0  0
  189.4540  178.0000  145.2100 N   0  0  0  0  0  2  0  0  0  0  0  0
  189.3920  177.1590  146.4110 C   0  0  2  0  0  3  0  0  0  0  0  0
  189.9010  177.2980  143.9940 C   0  0  2  0  0  3  0  0  0  0  0  0
  188.2030  176.1860  146.4070 C   0  0  0  0  0  2  0  0  0  0  0  0
  186.4770  177.7650  147.0000 O   0  0  0  0  0  1  0  0  0  0  0  0
  189.3770  178.0310  147.6510 C   0  0  0  0  0  1  0  0  0  0  0  0
  188.6250  177.2640  142.6760 S   0  0  0  0  0  0  0  0  0  0  0  0
  186.7210  177.3340  144.6470 C   0  0  1  0  0  3  0  0  0  0  0  0
  194.1440  176.5230  144.9480 N   0  0  0  0  0  2  0  0  0  0  0  0
  195.3190  175.6670  145.0330 C   0  0  0  0  0  2  0  0  0  0  0  0
  196.0120  175.6370  143.7170 C   0  0  0  0  0  0  0  0  0  0  0  0
  196.7010  176.6580  143.3310 N   0  0  0  0  0  1  0  0  0  0  0  0
  195.7720  174.5630  142.8140 N   0  0  0  0  0  2  0  0  0  0  0  0
  1  6  1  0  0  0  0
  4  3  1  1  0  0  0
  5 11  1  0  0  0  0
  5  4  1  0  0  0  0
  6 13  2  0  0  0  0
  6  9  1  0  0  0  0
  8  2  1  0  0  0  0
  9 14  1  0  0  0  0
 10  9  2  0  0  0  0
 10 12  1  0  0  0  0
 11  4  1  0  0  0  0
 12  5  2  0  0  0  0
 13 15  1  0  0  0  0
 14  8  1  0  0  0  0
 14 11  2  0  0  0  0
 15  7  1  0  0  0  0
 15  8  2  0  0  0  0
 16 22  1  0  0  0  0
 16 23  1  1  0  0  0
 17 26  1  0  0  0  0
 19 20  1  0  0  0  0
 20 24  1  1  0  0  0
 21 12  1  1  0  0  0
 21 19  1  0  0  0  0
 22 20  1  0  0  0  0
 25 17  1  0  0  0  0
 25 21  1  0  0  0  0
 26 18  1  6  0  0  0
 26 16  1  0  0  0  0
 27 28  1  0  0  0  0
 27  4  1  0  0  0  0
 29 28  1  0  0  0  0
 30 29  1  0  0  0  0
 31 29  2  0  0  0  0
M  END
>  <MODEL>
4

>  <REMARK>
 VINA RESULT:      -7.1      2.827      7.312
  Name = 
  4 active torsions:
  status: ('A' for Active; 'I' for Inactive)
    1  A    between atoms: C_5  and  N_14
    2  A    between atoms: C_7  and  C_31
    3  A    between atoms: N_14  and  C_31
    4  A    between atoms: C_19  and  C_25
                            x       y       z     vdW  Elec       q    Type
                         _______ _______ _______ _____ _____    ______ ____

>  <TORSDO>
F 4

$$$$
=
 OpenBabel11042417153D

 31 34  0  0  1  0  0  0  0  0999 V2000
  187.9910  177.7450  147.2630 C   0  0  0  0  0  1  0  0  0  0  0  0
  185.5670  177.2370  142.0150 C   0  0  0  0  0  1  0  0  0  0  0  0
  187.4690  173.3500  141.9610 O   0  0  0  0  0  1  0  0  0  0  0  0
  188.2680  174.4800  142.1390 C   0  0  2  0  0  0  0  0  0  0  0  0
  188.8600  174.5890  143.4000 C   0  0  0  0  0  0  0  0  0  0  0  0
  187.4080  177.5640  145.9020 C   0  0  0  0  0  0  0  0  0  0  0  0
  184.7480  179.2160  143.9680 N   0  0  0  0  0  1  0  0  0  0  0  0
  186.2110  177.3420  143.3610 C   0  0  0  0  0  0  0  0  0  0  0  0
  187.8780  176.5670  145.0310 C   0  0  0  0  0  0  0  0  0  0  0  0
  188.9670  175.6670  145.4340 C   0  0  0  0  0  3  0  0  0  0  0  0
  187.7780  175.4820  142.9810 C   0  0  0  0  0  0  0  0  0  0  0  0
  189.4960  174.6200  144.6040 C   0  0  0  0  0  0  0  0  0  0  0  0
  186.3980  178.3900  145.5100 N   0  0  0  0  0  0  0  0  0  0  0  0
  187.2430  176.4810  143.7360 C   0  0  0  0  0  0  0  0  0  0  0  0
  185.7980  178.3080  144.2890 C   0  0  0  0  0  0  0  0  0  0  0  0
  193.6390  175.5470  143.6900 C   0  0  1  0  0  3  0  0  0  0  0  0
  192.1770  173.7180  142.7470 C   0  0  0  0  0  2  0  0  0  0  0  0
  194.6440  173.5080  142.6550 C   0  0  0  0  0  1  0  0  0  0  0  0
  191.7580  174.3650  145.7370 N   0  0  0  0  0  2  0  0  0  0  0  0
  191.8430  175.8200  145.5710 C   0  0  2  0  0  3  0  0  0  0  0  0
  190.6420  173.7310  145.0130 C   0  0  2  0  0  3  0  0  0  0  0  0
  192.3610  176.2420  144.1870 C   0  0  0  0  0  2  0  0  0  0  0  0
  194.7040  175.7980  144.5570 O   0  0  0  0  0  1  0  0  0  0  0  0
  192.6940  176.4160  146.6750 C   0  0  0  0  0  1  0  0  0  0  0  0
  191.2030  172.5390  143.7350 S   0  0  0  0  0  0  0  0  0  0  0  0
  193.4780  174.0420  143.4630 C   0  0  1  0  0  3  0  0  0  0  0  0
  189.1200  174.8920  141.0320 N   0  0  0  0  0  2  0  0  0  0  0  0
  188.8590  174.0160  139.9000 C   0  0  0  0  0  2  0  0  0  0  0  0
  190.0320  173.1310  139.6690 C   0  0  0  0  0  0  0  0  0  0  0  0
  190.9390  173.4770  138.8180 N   0  0  0  0  0  2  0  0  0  0  0  0
  190.0660  171.8320  140.2500 N   0  0  0  0  0  1  0  0  0  0  0  0
  2  8  1  0  0  0  0
  4  3  1  6  0  0  0
  4 11  1  0  0  0  0
  4  5  1  0  0  0  0
  5 12  1  0  0  0  0
  6  1  1  0  0  0  0
  7 15  1  0  0  0  0
  8 14  2  0  0  0  0
  8 15  1  0  0  0  0
  9 10  1  0  0  0  0
  9  6  2  0  0  0  0
 11  5  2  0  0  0  0
 11 14  1  0  0  0  0
 12 10  2  0  0  0  0
 13  6  1  0  0  0  0
 14  9  1  0  0  0  0
 15 13  2  0  0  0  0
 16 22  1  0  0  0  0
 16 23  1  1  0  0  0
 17 26  1  0  0  0  0
 17 25  1  0  0  0  0
 20 19  1  0  0  0  0
 20 24  1  1  0  0  0
 21 12  1  6  0  0  0
 21 19  1  0  0  0  0
 22 20  1  0  0  0  0
 25 21  1  0  0  0  0
 26 18  1  6  0  0  0
 26 16  1  0  0  0  0
 27  4  1  0  0  0  0
 28 27  1  0  0  0  0
 29 28  1  0  0  0  0
 29 31  1  0  0  0  0
 30 29  2  0  0  0  0
M  END
>  <MODEL>
5

>  <REMARK>
 VINA RESULT:      -6.9      2.117      4.681
  Name = 
  4 active torsions:
  status: ('A' for Active; 'I' for Inactive)
    1  A    between atoms: C_5  and  N_14
    2  A    between atoms: C_7  and  C_31
    3  A    between atoms: N_14  and  C_31
    4  A    between atoms: C_19  and  C_25
                            x       y       z     vdW  Elec       q    Type
                         _______ _______ _______ _____ _____    ______ ____

>  <TORSDO>
F 4

$$$$
=
 OpenBabel11042417153D

 31 34  0  0  1  0  0  0  0  0999 V2000
  189.6960  177.6140  147.4160 C   0  0  0  0  0  1  0  0  0  0  0  0
  186.3010  176.2970  142.8970 C   0  0  0  0  0  1  0  0  0  0  0  0
  188.5760  172.6180  142.7810 O   0  0  0  0  0  1  0  0  0  0  0  0
  189.2630  173.8290  142.6750 C   0  0  2  0  0  0  0  0  0  0  0  0
  190.0890  174.1320  143.7600 C   0  0  0  0  0  0  0  0  0  0  0  0
  188.8660  177.2270  146.2380 C   0  0  0  0  0  0  0  0  0  0  0  0
  185.6910  178.4020  144.7950 N   0  0  0  0  0  1  0  0  0  0  0  0
  187.1960  176.6110  144.0540 C   0  0  0  0  0  0  0  0  0  0  0  0
  189.2520  176.1850  145.3810 C   0  0  0  0  0  0  0  0  0  0  0  0
  190.4960  175.4390  145.6150 C   0  0  0  0  0  3  0  0  0  0  0  0
  188.8490  174.8710  143.5100 C   0  0  0  0  0  0  0  0  0  0  0  0
  190.9550  174.3580  144.7870 C   0  0  0  0  0  0  0  0  0  0  0  0
  187.7090  177.9090  146.0050 N   0  0  0  0  0  0  0  0  0  0  0  0
  188.3750  175.8960  144.2700 C   0  0  0  0  0  0  0  0  0  0  0  0
  186.8800  177.6360  144.9590 C   0  0  0  0  0  0  0  0  0  0  0  0
  194.7800  175.8740  143.4000 C   0  0  1  0  0  3  0  0  0  0  0  0
  193.4700  173.8810  142.5740 C   0  0  0  0  0  2  0  0  0  0  0  0
  195.9100  174.0190  142.1660 C   0  0  0  0  0  1  0  0  0  0  0  0
  193.3580  174.3960  145.6170 N   0  0  0  0  0  2  0  0  0  0  0  0
  193.2220  175.8510  145.5010 C   0  0  2  0  0  3  0  0  0  0  0  0
  192.2540  173.6290  145.0130 C   0  0  2  0  0  3  0  0  0  0  0  0
  193.4950  176.3730  144.0810 C   0  0  0  0  0  2  0  0  0  0  0  0
  195.9050  176.2520  144.1370 O   0  0  0  0  0  1  0  0  0  0  0  0
  194.1210  176.5360  146.5120 C   0  0  0  0  0  1  0  0  0  0  0  0
  192.8010  172.5560  143.6290 S   0  0  0  0  0  0  0  0  0  0  0  0
  194.7970  174.3670  143.1350 C   0  0  1  0  0  3  0  0  0  0  0  0
  189.8120  174.1880  141.3760 N   0  0  0  0  0  2  0  0  0  0  0  0
  188.7100  174.5410  140.4920 C   0  0  0  0  0  2  0  0  0  0  0  0
  188.7380  173.6730  139.2850 C   0  0  0  0  0  0  0  0  0  0  0  0
  188.1940  174.0820  138.1880 N   0  0  0  0  0  2  0  0  0  0  0  0
  189.2030  172.3310  139.3860 N   0  0  0  0  0  1  0  0  0  0  0  0
  2  8  1  0  0  0  0
  4  3  1  1  0  0  0
  4 11  1  0  0  0  0
  4  5  1  0  0  0  0
  5 12  1  0  0  0  0
  6  1  1  0  0  0  0
  7 15  1  0  0  0  0
  8 14  2  0  0  0  0
  8 15  1  0  0  0  0
  9 10  1  0  0  0  0
  9  6  2  0  0  0  0
 11  5  2  0  0  0  0
 11 14  1  0  0  0  0
 12 10  2  0  0  0  0
 13  6  1  0  0  0  0
 14  9  1  0  0  0  0
 15 13  2  0  0  0  0
 16 22  1  0  0  0  0
 16 23  1  1  0  0  0
 17 26  1  0  0  0  0
 17 25  1  0  0  0  0
 20 19  1  0  0  0  0
 20 24  1  1  0  0  0
 21 12  1  6  0  0  0
 21 19  1  0  0  0  0
 22 20  1  0  0  0  0
 25 21  1  0  0  0  0
 26 18  1  6  0  0  0
 26 16  1  0  0  0  0
 27  4  1  0  0  0  0
 28 27  1  0  0  0  0
 29 31  1  0  0  0  0
 29 28  1  0  0  0  0
 30 29  2  0  0  0  0
M  END
>  <MODEL>
6

>  <REMARK>
 VINA RESULT:      -6.8      2.164      4.759
  Name = 
  4 active torsions:
  status: ('A' for Active; 'I' for Inactive)
    1  A    between atoms: C_5  and  N_14
    2  A    between atoms: C_7  and  C_31
    3  A    between atoms: N_14  and  C_31
    4  A    between atoms: C_19  and  C_25
                            x       y       z     vdW  Elec       q    Type
                         _______ _______ _______ _____ _____    ______ ____

>  <TORSDO>
F 4

$$$$
=
 OpenBabel11042417153D

 31 34  0  0  1  0  0  0  0  0999 V2000
  191.2200  176.6690  147.9720 C   0  0  0  0  0  1  0  0  0  0  0  0
  186.4830  176.8080  144.6220 C   0  0  0  0  0  1  0  0  0  0  0  0
  188.2580  173.3750  142.6740 O   0  0  0  0  0  1  0  0  0  0  0  0
  188.9870  174.5640  142.7210 C   0  0  2  0  0  0  0  0  0  0  0  0
  190.1330  174.5190  143.5190 C   0  0  0  0  0  0  0  0  0  0  0  0
  190.0330  176.6650  147.0680 C   0  0  0  0  0  0  0  0  0  0  0  0
  186.6900  178.2030  147.1540 N   0  0  0  0  0  1  0  0  0  0  0  0
  187.7190  176.7510  145.4640 C   0  0  0  0  0  0  0  0  0  0  0  0
  190.0360  175.9500  145.8600 C   0  0  0  0  0  0  0  0  0  0  0  0
  191.2160  175.1800  145.4440 C   0  0  0  0  0  3  0  0  0  0  0  0
  188.9520  175.2870  143.9170 C   0  0  0  0  0  0  0  0  0  0  0  0
  191.2920  174.4180  144.2270 C   0  0  0  0  0  0  0  0  0  0  0  0
  188.9290  177.3740  147.4380 N   0  0  0  0  0  0  0  0  0  0  0  0
  188.8340  176.0160  145.0610 C   0  0  0  0  0  0  0  0  0  0  0  0
  187.7950  177.4350  146.6860 C   0  0  0  0  0  0  0  0  0  0  0  0
  194.1270  176.0140  141.3500 C   0  0  1  0  0  3  0  0  0  0  0  0
  192.5090  174.0940  141.0860 C   0  0  0  0  0  2  0  0  0  0  0  0
  194.5010  174.2490  139.6220 C   0  0  0  0  0  1  0  0  0  0  0  0
  193.8100  174.3830  143.8720 N   0  0  0  0  0  2  0  0  0  0  0  0
  193.6920  175.8440  143.9230 C   0  0  2  0  0  3  0  0  0  0  0  0
  192.5240  173.6680  143.7900 C   0  0  2  0  0  3  0  0  0  0  0  0
  193.3100  176.4670  142.5710 C   0  0  0  0  0  2  0  0  0  0  0  0
  195.4760  176.3300  141.5160 O   0  0  0  0  0  1  0  0  0  0  0  0
  194.9770  176.4470  144.4560 C   0  0  0  0  0  1  0  0  0  0  0  0
  192.3410  172.6980  142.2430 S   0  0  0  0  0  0  0  0  0  0  0  0
  193.9630  174.5310  141.0110 C   0  0  1  0  0  3  0  0  0  0  0  0
  189.1370  175.3200  141.4860 N   0  0  0  0  0  2  0  0  0  0  0  0
  187.8100  175.6290  140.9720 C   0  0  0  0  0  2  0  0  0  0  0  0
  187.6350  177.1040  140.8910 C   0  0  0  0  0  0  0  0  0  0  0  0
  188.3610  177.8770  141.6260 N   0  0  0  0  0  1  0  0  0  0  0  0
  186.5550  177.6490  140.1410 N   0  0  0  0  0  2  0  0  0  0  0  0
  2  8  1  0  0  0  0
  4  3  1  6  0  0  0
  4  5  1  0  0  0  0
  4 11  1  0  0  0  0
  5 11  2  0  0  0  0
  5 12  1  0  0  0  0
  6 13  1  0  0  0  0
  6  1  1  0  0  0  0
  8 15  1  0  0  0  0
  9  6  2  0  0  0  0
 10  9  1  0  0  0  0
 11 14  1  0  0  0  0
 12 10  2  0  0  0  0
 14  8  2  0  0  0  0
 14  9  1  0  0  0  0
 15  7  1  0  0  0  0
 15 13  2  0  0  0  0
 16 23  1  1  0  0  0
 16 22  1  0  0  0  0
 17 25  1  0  0  0  0
 19 20  1  0  0  0  0
 20 24  1  6  0  0  0
 21 19  1  0  0  0  0
 21 12  1  6  0  0  0
 22 20  1  0  0  0  0
 25 21  1  0  0  0  0
 26 18  1  6  0  0  0
 26 17  1  0  0  0  0
 26 16  1  0  0  0  0
 27  4  1  0  0  0  0
 28 27  1  0  0  0  0
 29 28  1  0  0  0  0
 29 30  1  0  0  0  0
 31 29  2  0  0  0  0
M  END
>  <MODEL>
7

>  <REMARK>
 VINA RESULT:      -6.7      2.207      4.561
  Name = 
  4 active torsions:
  status: ('A' for Active; 'I' for Inactive)
    1  A    between atoms: C_5  and  N_14
    2  A    between atoms: C_7  and  C_31
    3  A    between atoms: N_14  and  C_31
    4  A    between atoms: C_19  and  C_25
                            x       y       z     vdW  Elec       q    Type
                         _______ _______ _______ _____ _____    ______ ____

>  <TORSDO>
F 4

$$$$
=
 OpenBabel11042417153D

 31 34  0  0  1  0  0  0  0  0999 V2000
  194.1170  177.1310  146.4820 C   0  0  0  0  0  1  0  0  0  0  0  0
  195.9190  174.9850  141.3990 C   0  0  0  0  0  1  0  0  0  0  0  0
  191.7060  174.3530  140.6360 O   0  0  0  0  0  1  0  0  0  0  0  0
  192.2740  173.7620  141.7660 C   0  0  2  0  0  0  0  0  0  0  0  0
  191.8260  174.2740  142.9860 C   0  0  0  0  0  0  0  0  0  0  0  0
  194.5210  176.5530  145.1670 C   0  0  0  0  0  0  0  0  0  0  0  0
  197.5820  176.6150  143.1250 N   0  0  0  0  0  1  0  0  0  0  0  0
  195.4240  175.5250  142.7040 C   0  0  0  0  0  0  0  0  0  0  0  0
  193.6320  175.7770  144.4050 C   0  0  0  0  0  0  0  0  0  0  0  0
  192.2700  175.5060  144.8830 C   0  0  0  0  0  3  0  0  0  0  0  0
  193.1830  174.5300  142.4990 C   0  0  0  0  0  0  0  0  0  0  0  0
  191.3020  174.7270  144.1580 C   0  0  0  0  0  0  0  0  0  0  0  0
  195.7820  176.7930  144.7090 N   0  0  0  0  0  0  0  0  0  0  0  0
  194.1280  175.2640  143.1480 C   0  0  0  0  0  0  0  0  0  0  0  0
  196.2490  176.3120  143.5220 C   0  0  0  0  0  0  0  0  0  0  0  0
  188.1970  177.7420  144.5170 C   0  0  1  0  0  3  0  0  0  0  0  0
  189.4660  176.5450  146.3430 C   0  0  0  0  0  2  0  0  0  0  0  0
  187.2660  177.5740  146.8290 C   0  0  0  0  0  1  0  0  0  0  0  0
  188.7810  174.8540  143.8520 N   0  0  0  0  0  2  0  0  0  0  0  0
  189.0980  175.9090  142.8830 C   0  0  2  0  0  3  0  0  0  0  0  0
  189.9220  174.4210  144.6790 C   0  0  2  0  0  3  0  0  0  0  0  0
  189.2880  177.2890  143.5330 C   0  0  0  0  0  2  0  0  0  0  0  0
  186.9590  177.8210  143.8770 O   0  0  0  0  0  1  0  0  0  0  0  0
  188.0320  175.9580  141.8070 C   0  0  0  0  0  1  0  0  0  0  0  0
  189.6710  174.7410  146.4680 S   0  0  0  0  0  0  0  0  0  0  0  0
  188.0960  176.8720  145.7720 C   0  0  1  0  0  3  0  0  0  0  0  0
  192.4750  172.3200  141.7500 N   0  0  0  0  0  2  0  0  0  0  0  0
  191.4470  171.7210  140.9110 C   0  0  0  0  0  2  0  0  0  0  0  0
  190.5540  170.8710  141.7430 C   0  0  0  0  0  0  0  0  0  0  0  0
  189.6720  171.4220  142.5080 N   0  0  0  0  0  1  0  0  0  0  0  0
  190.7870  169.4690  141.8280 N   0  0  0  0  0  2  0  0  0  0  0  0
  2  8  1  0  0  0  0
  4  3  1  6  0  0  0
  4 11  1  0  0  0  0
  4  5  1  0  0  0  0
  5 12  1  0  0  0  0
  6  1  1  0  0  0  0
  7 15  1  0  0  0  0
  8 14  2  0  0  0  0
  8 15  1  0  0  0  0
  9 10  1  0  0  0  0
  9  6  2  0  0  0  0
 11  5  2  0  0  0  0
 11 14  1  0  0  0  0
 12 10  2  0  0  0  0
 13  6  1  0  0  0  0
 14  9  1  0  0  0  0
 15 13  2  0  0  0  0
 16 23  1  6  0  0  0
 16 26  1  0  0  0  0
 17 25  1  0  0  0  0
 19 21  1  0  0  0  0
 20 24  1  6  0  0  0
 20 22  1  0  0  0  0
 20 19  1  0  0  0  0
 21 12  1  6  0  0  0
 21 25  1  0  0  0  0
 22 16  1  0  0  0  0
 26 17  1  0  0  0  0
 26 18  1  1  0  0  0
 27  4  1  0  0  0  0
 28 29  1  0  0  0  0
 28 27  1  0  0  0  0
 29 31  2  0  0  0  0
 29 30  1  0  0  0  0
M  END
>  <MODEL>
8

>  <REMARK>
 VINA RESULT:      -6.6      3.088      7.605
  Name = 
  4 active torsions:
  status: ('A' for Active; 'I' for Inactive)
    1  A    between atoms: C_5  and  N_14
    2  A    between atoms: C_7  and  C_31
    3  A    between atoms: N_14  and  C_31
    4  A    between atoms: C_19  and  C_25
                            x       y       z     vdW  Elec       q    Type
                         _______ _______ _______ _____ _____    ______ ____

>  <TORSDO>
F 4

$$$$
=
 OpenBabel11042417153D

 31 34  0  0  1  0  0  0  0  0999 V2000
  189.2430  172.7970  139.6720 C   0  0  0  0  0  1  0  0  0  0  0  0
  186.6300  177.8490  140.8240 C   0  0  0  0  0  1  0  0  0  0  0  0
  189.1580  177.8900  144.3360 O   0  0  0  0  0  1  0  0  0  0  0  0
  188.2990  176.8060  144.1470 C   0  0  2  0  0  0  0  0  0  0  0  0
  188.9360  175.5910  143.8840 C   0  0  0  0  0  0  0  0  0  0  0  0
  188.5940  174.0920  140.0300 C   0  0  0  0  0  0  0  0  0  0  0  0
  186.5650  176.5740  138.2220 N   0  0  0  0  0  1  0  0  0  0  0  0
  187.3150  176.5460  140.5580 C   0  0  0  0  0  0  0  0  0  0  0  0
  188.6910  174.6250  141.3250 C   0  0  0  0  0  0  0  0  0  0  0  0
  189.4360  173.9200  142.3770 C   0  0  0  0  0  3  0  0  0  0  0  0
  188.1840  176.3020  142.8480 C   0  0  0  0  0  0  0  0  0  0  0  0
  189.5840  174.4040  143.7220 C   0  0  0  0  0  0  0  0  0  0  0  0
  187.8980  174.7600  139.0670 N   0  0  0  0  0  0  0  0  0  0  0  0
  188.0230  175.8840  141.5630 C   0  0  0  0  0  0  0  0  0  0  0  0
  187.2690  175.9480  139.2900 C   0  0  0  0  0  0  0  0  0  0  0  0
  193.9160  174.2910  143.9970 C   0  0  1  0  0  3  0  0  0  0  0  0
  192.3160  172.4370  143.3830 C   0  0  0  0  0  2  0  0  0  0  0  0
  194.5820  171.8930  144.2260 C   0  0  0  0  0  1  0  0  0  0  0  0
  191.3370  174.3910  145.5640 N   0  0  0  0  0  2  0  0  0  0  0  0
  191.8380  175.5970  144.8970 C   0  0  2  0  0  3  0  0  0  0  0  0
  190.3150  173.6510  144.8030 C   0  0  2  0  0  3  0  0  0  0  0  0
  192.7810  175.2910  143.7240 C   0  0  0  0  0  2  0  0  0  0  0  0
  194.7540  174.7610  145.0100 O   0  0  0  0  0  1  0  0  0  0  0  0
  192.5060  176.5070  145.9090 C   0  0  0  0  0  1  0  0  0  0  0  0
  190.8500  171.9550  144.3490 S   0  0  0  0  0  0  0  0  0  0  0  0
  193.4310  172.8760  144.3200 C   0  0  1  0  0  3  0  0  0  0  0  0
  187.1310  176.7050  145.0110 N   0  0  0  0  0  2  0  0  0  0  0  0
  186.2670  177.8470  144.7520 C   0  0  0  0  0  2  0  0  0  0  0  0
  185.1090  177.8210  145.6850 C   0  0  0  0  0  0  0  0  0  0  0  0
  184.9370  176.8080  146.4660 N   0  0  0  0  0  1  0  0  0  0  0  0
  184.1010  178.8220  145.5930 N   0  0  0  0  0  2  0  0  0  0  0  0
  1  6  1  0  0  0  0
  4  3  1  1  0  0  0
  4 27  1  0  0  0  0
  5  4  1  0  0  0  0
  6  9  1  0  0  0  0
  7 15  1  0  0  0  0
  8  2  1  0  0  0  0
  8 14  1  0  0  0  0
  9 14  2  0  0  0  0
  9 10  1  0  0  0  0
 10 12  2  0  0  0  0
 11  5  2  0  0  0  0
 11  4  1  0  0  0  0
 12  5  1  0  0  0  0
 13 15  1  0  0  0  0
 13  6  2  0  0  0  0
 14 11  1  0  0  0  0
 15  8  2  0  0  0  0
 16 26  1  0  0  0  0
 16 23  1  1  0  0  0
 17 26  1  0  0  0  0
 17 25  1  0  0  0  0
 20 19  1  0  0  0  0
 20 24  1  1  0  0  0
 21 12  1  6  0  0  0
 21 19  1  0  0  0  0
 22 16  1  0  0  0  0
 22 20  1  0  0  0  0
 25 21  1  0  0  0  0
 26 18  1  6  0  0  0
 28 27  1  0  0  0  0
 28 29  1  0  0  0  0
 29 30  1  0  0  0  0
 31 29  2  0  0  0  0
M  END
>  <MODEL>
9

>  <REMARK>
 VINA RESULT:      -6.5      1.309      1.649
  Name = 
  4 active torsions:
  status: ('A' for Active; 'I' for Inactive)
    1  A    between atoms: C_5  and  N_14
    2  A    between atoms: C_7  and  C_31
    3  A    between atoms: N_14  and  C_31
    4  A    between atoms: C_19  and  C_25
                            x       y       z     vdW  Elec       q    Type
                         _______ _______ _______ _____ _____    ______ ____

>  <TORSDO>
F 4

$$$$
