=
 OpenBabel11042416233D

 38 42  0  0  1  0  0  0  0  0999 V2000
  192.7030  173.8920  138.5930 N   0  0  0  0  0  0  0  0  0  0  0  0
  194.1860  174.7320  141.0530 C   0  0  0  0  0  2  0  0  0  0  0  0
  192.6890  176.4740  145.7240 C   0  0  0  0  0  2  0  0  0  0  0  0
  196.7000  174.8290  144.5430 O   0  0  0  0  0  0  0  0  0  0  0  0
  191.5780  173.8050  137.8510 C   0  0  0  0  0  3  0  0  0  0  0  0
  189.8020  174.2660  141.7980 C   0  0  0  0  0  2  0  0  0  0  0  0
  194.5570  174.9840  143.5720 C   0  0  0  0  0  0  0  0  0  0  0  0
  190.9970  173.3110  139.9100 N   0  0  0  0  0  0  0  0  0  0  0  0
  193.8390  175.8930  146.5420 C   0  0  0  0  0  3  0  0  0  0  0  0
  192.3110  175.6790  144.5120 C   0  0  0  0  0  0  0  0  0  0  0  0
  192.3100  173.5950  139.8460 C   0  0  0  0  0  0  0  0  0  0  0  0
  190.2220  172.9860  141.0970 C   0  0  0  0  0  2  0  0  0  0  0  0
  193.2390  173.5330  141.0230 C   0  0  1  0  0  3  0  0  0  0  0  0
  189.9780  174.8260  144.2440 C   0  0  1  0  0  0  0  0  0  0  0  0
  195.4770  175.0670  144.7230 C   0  0  0  0  0  0  0  0  0  0  0  0
  195.0090  175.3540  146.1170 C   0  0  0  0  0  3  0  0  0  0  0  0
  190.4330  173.5200  143.9880 O   0  0  0  0  0  0  0  0  0  0  0  0
  195.0260  174.7160  142.2450 N   0  0  0  0  0  2  0  0  0  0  0  0
  191.0030  175.8930  143.8340 C   0  0  0  0  0  2  0  0  0  0  0  0
  193.3300  175.2790  143.8370 C   0  0  0  0  0  0  0  0  0  0  0  0
  189.3360  173.9610  143.2150 C   0  0  2  0  0  3  0  0  0  0  0  0
  190.5150  173.4500  138.6660 C   0  0  0  0  0  3  0  0  0  0  0  0
  194.1160  171.9270  141.0990 S   0  0  0  0  0  0  0  0  0  0  0  0
  193.3730  171.3780  142.6680 C   0  0  0  0  0  1  0  0  0  0  0  0
  190.1380  174.5490  146.6140 F   0  0  0  0  0  0  0  0  0  0  0  0
  189.2730  174.9140  145.5960 C   0  0  1  0  0  3  0  0  0  0  0  0
  189.9340  177.8830  147.3870 O   0  0  0  0  0  0  0  0  0  0  0  0
  188.7080  176.2830  145.8310 C   0  0  0  0  0  0  0  0  0  0  0  0
  189.3390  177.1060  146.6310 C   0  0  0  0  0  0  0  0  0  0  0  0
  187.4180  176.6870  145.1750 C   0  0  2  0  0  3  0  0  0  0  0  0
  184.1190  177.5180  146.8120 N   0  0  0  0  0  1  0  0  0  0  0  0
  185.1660  177.4260  145.8550 C   0  0  0  0  0  0  0  0  0  0  0  0
  186.2400  178.5480  143.9320 C   0  0  0  0  0  0  0  0  0  0  0  0
  188.4470  177.4860  142.7890 Cl  0  0  0  0  0  0  0  0  0  0  0  0
  187.5760  177.9310  144.2810 C   0  0  2  0  0  3  0  0  0  0  0  0
  186.1960  179.5310  143.2090 O   0  0  0  0  0  0  0  0  0  0  0  0
  184.9600  177.9740  144.4730 C   0  0  0  0  0  2  0  0  0  0  0  0
  186.3140  176.8350  146.1870 C   0  0  0  0  0  3  0  0  0  0  0  0
  1 11  2  0  0  0  0
  2 18  1  0  0  0  0
  3  9  1  0  0  0  0
  4 15  2  0  0  0  0
  5  1  1  0  0  0  0
  5 22  2  0  0  0  0
  7 20  2  0  0  0  0
  7 15  1  0  0  0  0
  8 12  1  0  0  0  0
 10  3  1  0  0  0  0
 11  8  1  0  0  0  0
 11 13  1  0  0  0  0
 12  6  1  0  0  0  0
 13  2  1  0  0  0  0
 13 23  1  6  0  0  0
 14 26  1  1  0  0  0
 15 16  1  0  0  0  0
 16  9  2  0  0  0  0
 17 14  1  0  0  0  0
 18  7  1  0  0  0  0
 19 14  1  0  0  0  0
 19 10  1  0  0  0  0
 20 10  2  0  0  0  0
 21  6  1  6  0  0  0
 21 17  1  0  0  0  0
 21 14  1  0  0  0  0
 22  8  1  0  0  0  0
 23 24  1  0  0  0  0
 26 28  1  0  0  0  0
 26 25  1  1  0  0  0
 28 29  2  0  0  0  0
 29 27  2  0  0  0  0
 30 28  1  1  0  0  0
 30 38  1  0  0  0  0
 32 38  2  0  0  0  0
 32 31  1  0  0  0  0
 33 35  1  0  0  0  0
 33 37  1  0  0  0  0
 35 34  1  6  0  0  0
 35 30  1  0  0  0  0
 36 33  2  0  0  0  0
 37 32  1  0  0  0  0
M  END
>  <MODEL>
1

>  <REMARK>
 VINA RESULT:      -8.4      0.000      0.000
  Name = 
  4 active torsions:
  status: ('A' for Active; 'I' for Inactive)
    1  A    between atoms: S_5  and  C_19
    2  A    between atoms: C_9  and  C_26
    3  A    between atoms: C_21  and  C_35
    4  A    between atoms: C_26  and  C_35
                            x       y       z     vdW  Elec       q    Type
                         _______ _______ _______ _____ _____    ______ ____

>  <TORSDO>
F 4

$$$$
=
 OpenBabel11042416233D

 38 42  0  0  1  0  0  0  0  0999 V2000
  195.0430  171.7590  144.1290 N   0  0  0  0  0  0  0  0  0  0  0  0
  192.6370  172.0780  142.3790 C   0  0  0  0  0  2  0  0  0  0  0  0
  188.2940  174.9250  142.7360 C   0  0  0  0  0  2  0  0  0  0  0  0
  189.9860  172.9090  139.0940 O   0  0  0  0  0  0  0  0  0  0  0  0
  195.7000  171.9360  145.2960 C   0  0  0  0  0  3  0  0  0  0  0  0
  192.8030  175.1700  145.6040 C   0  0  0  0  0  2  0  0  0  0  0  0
  190.7020  173.3550  141.2960 C   0  0  0  0  0  0  0  0  0  0  0  0
  194.6940  173.8390  144.8600 N   0  0  0  0  0  0  0  0  0  0  0  0
  188.0670  175.1480  141.2430 C   0  0  0  0  0  3  0  0  0  0  0  0
  189.7290  174.7860  143.1430 C   0  0  0  0  0  0  0  0  0  0  0  0
  194.4320  172.9370  143.8990 C   0  0  0  0  0  0  0  0  0  0  0  0
  194.1780  175.1950  144.9620 C   0  0  0  0  0  2  0  0  0  0  0  0
  193.6000  173.2250  142.6840 C   0  0  1  0  0  3  0  0  0  0  0  0
  190.7100  176.3370  144.8380 C   0  0  1  0  0  0  0  0  0  0  0  0
  189.7840  173.5530  140.1570 C   0  0  0  0  0  0  0  0  0  0  0  0
  188.6590  174.5410  140.1840 C   0  0  0  0  0  3  0  0  0  0  0  0
  191.7970  176.6430  144.0010 O   0  0  0  0  0  0  0  0  0  0  0  0
  191.7690  172.3990  141.2510 N   0  0  0  0  0  2  0  0  0  0  0  0
  190.1370  174.9380  144.5670 C   0  0  0  0  0  2  0  0  0  0  0  0
  190.4010  174.0240  142.3560 C   0  0  0  0  0  0  0  0  0  0  0  0
  192.0900  176.4960  145.3750 C   0  0  2  0  0  3  0  0  0  0  0  0
  195.4820  173.2250  145.7560 C   0  0  0  0  0  3  0  0  0  0  0  0
  194.6460  173.6810  141.2510 S   0  0  0  0  0  0  0  0  0  0  0  0
  194.1240  175.4240  141.1810 C   0  0  0  0  0  1  0  0  0  0  0  0
  189.4870  178.0850  143.7590 F   0  0  0  0  0  0  0  0  0  0  0  0
  189.7760  177.5340  144.9970 C   0  0  1  0  0  3  0  0  0  0  0  0
  188.5670  175.1900  147.3430 O   0  0  0  0  0  0  0  0  0  0  0  0
  188.5220  177.1590  145.7280 C   0  0  0  0  0  0  0  0  0  0  0  0
  188.5450  176.1470  146.5580 C   0  0  0  0  0  0  0  0  0  0  0  0
  187.2510  177.9230  145.4820 C   0  0  2  0  0  3  0  0  0  0  0  0
  184.8040  177.5410  142.6330 N   0  0  0  0  0  1  0  0  0  0  0  0
  185.3690  177.8900  143.8900 C   0  0  0  0  0  0  0  0  0  0  0  0
  184.8770  178.2710  146.2820 C   0  0  0  0  0  0  0  0  0  0  0  0
  186.8740  178.8410  148.0130 Cl  0  0  0  0  0  0  0  0  0  0  0  0
  186.2720  177.8340  146.6680 C   0  0  2  0  0  3  0  0  0  0  0  0
  183.9900  178.2800  147.1210 O   0  0  0  0  0  0  0  0  0  0  0  0
  184.5620  178.6880  144.8720 C   0  0  0  0  0  2  0  0  0  0  0  0
  186.6190  177.5240  144.1760 C   0  0  0  0  0  3  0  0  0  0  0  0
  1  5  1  0  0  0  0
  2 13  1  0  0  0  0
  3 10  1  0  0  0  0
  4 15  2  0  0  0  0
  5 22  2  0  0  0  0
  7 20  2  0  0  0  0
  8 12  1  0  0  0  0
  8 22  1  0  0  0  0
  9  3  1  0  0  0  0
 10 19  1  0  0  0  0
 11  1  2  0  0  0  0
 11  8  1  0  0  0  0
 12  6  1  0  0  0  0
 13 23  1  6  0  0  0
 13 11  1  0  0  0  0
 14 26  1  1  0  0  0
 14 21  1  0  0  0  0
 15 16  1  0  0  0  0
 15  7  1  0  0  0  0
 16  9  2  0  0  0  0
 17 14  1  0  0  0  0
 17 21  1  0  0  0  0
 18  7  1  0  0  0  0
 18  2  1  0  0  0  0
 19 14  1  0  0  0  0
 20 10  2  0  0  0  0
 21  6  1  6  0  0  0
 24 23  1  0  0  0  0
 26 25  1  6  0  0  0
 26 28  1  0  0  0  0
 28 29  2  0  0  0  0
 29 27  2  0  0  0  0
 30 28  1  1  0  0  0
 30 35  1  0  0  0  0
 31 32  1  0  0  0  0
 32 38  2  0  0  0  0
 32 37  1  0  0  0  0
 33 35  1  0  0  0  0
 33 36  2  0  0  0  0
 35 34  1  1  0  0  0
 37 33  1  0  0  0  0
 38 30  1  0  0  0  0
M  END
>  <MODEL>
2

>  <REMARK>
 VINA RESULT:      -8.0      2.392      4.826
  Name = 
  4 active torsions:
  status: ('A' for Active; 'I' for Inactive)
    1  A    between atoms: S_5  and  C_19
    2  A    between atoms: C_9  and  C_26
    3  A    between atoms: C_21  and  C_35
    4  A    between atoms: C_26  and  C_35
                            x       y       z     vdW  Elec       q    Type
                         _______ _______ _______ _____ _____    ______ ____

>  <TORSDO>
F 4

$$$$
=
 OpenBabel11042416233D

 38 42  0  0  1  0  0  0  0  0999 V2000
  190.8920  172.4090  137.7770 N   0  0  0  0  0  0  0  0  0  0  0  0
  192.6650  172.6510  140.1760 C   0  0  0  0  0  2  0  0  0  0  0  0
  192.3700  175.3890  144.5930 C   0  0  0  0  0  2  0  0  0  0  0  0
  194.9880  171.8460  143.7060 O   0  0  0  0  0  0  0  0  0  0  0  0
  189.8530  172.8200  137.0160 C   0  0  0  0  0  3  0  0  0  0  0  0
  188.6560  174.5180  140.8410 C   0  0  0  0  0  2  0  0  0  0  0  0
  193.1820  172.9480  142.6630 C   0  0  0  0  0  0  0  0  0  0  0  0
  189.1610  172.9010  139.0990 N   0  0  0  0  0  0  0  0  0  0  0  0
  193.0990  174.4000  145.4990 C   0  0  0  0  0  3  0  0  0  0  0  0
  191.6110  174.7660  143.4610 C   0  0  0  0  0  0  0  0  0  0  0  0
  190.4380  172.4830  139.0430 C   0  0  0  0  0  0  0  0  0  0  0  0
  188.3610  173.1340  140.2900 C   0  0  0  0  0  2  0  0  0  0  0  0
  191.2450  172.0900  140.2460 C   0  0  1  0  0  3  0  0  0  0  0  0
  189.1570  175.1690  143.2190 C   0  0  1  0  0  0  0  0  0  0  0  0
  194.0530  172.6810  143.8250 C   0  0  0  0  0  0  0  0  0  0  0  0
  193.8300  173.3080  145.1670 C   0  0  0  0  0  3  0  0  0  0  0  0
  188.8920  173.7920  143.1150 O   0  0  0  0  0  0  0  0  0  0  0  0
  193.4180  172.3420  141.3860 N   0  0  0  0  0  2  0  0  0  0  0  0
  190.5660  175.5320  142.7280 C   0  0  0  0  0  2  0  0  0  0  0  0
  192.2750  173.8420  142.8610 C   0  0  0  0  0  0  0  0  0  0  0  0
  188.1410  174.6390  142.2690 C   0  0  2  0  0  3  0  0  0  0  0  0
  188.7780  173.1310  137.8330 C   0  0  0  0  0  3  0  0  0  0  0  0
  191.2030  170.2790  140.5150 S   0  0  0  0  0  0  0  0  0  0  0  0
  190.4460  170.3490  142.1690 C   0  0  0  0  0  1  0  0  0  0  0  0
  189.3980  175.2920  145.5940 F   0  0  0  0  0  0  0  0  0  0  0  0
  188.6290  175.7400  144.5330 C   0  0  1  0  0  3  0  0  0  0  0  0
  190.7460  178.5560  144.3060 O   0  0  0  0  0  0  0  0  0  0  0  0
  188.5750  177.2380  144.4980 C   0  0  0  0  0  0  0  0  0  0  0  0
  189.6920  177.9160  144.3990 C   0  0  0  0  0  0  0  0  0  0  0  0
  187.2540  177.9460  144.6040 C   0  0  2  0  0  3  0  0  0  0  0  0
  184.5670  178.2920  141.9750 N   0  0  0  0  0  1  0  0  0  0  0  0
  185.2330  178.2730  143.2310 C   0  0  0  0  0  0  0  0  0  0  0  0
  184.9540  177.8560  145.6510 C   0  0  0  0  0  0  0  0  0  0  0  0
  187.0780  178.0020  147.3160 Cl  0  0  0  0  0  0  0  0  0  0  0  0
  186.3970  177.4230  145.7720 C   0  0  2  0  0  3  0  0  0  0  0  0
  184.1510  177.5390  146.5140 O   0  0  0  0  0  0  0  0  0  0  0  0
  184.4870  178.6660  144.4730 C   0  0  0  0  0  2  0  0  0  0  0  0
  186.5190  177.9280  143.2910 C   0  0  0  0  0  3  0  0  0  0  0  0
  1 11  2  0  0  0  0
  2 13  1  0  0  0  0
  2 18  1  0  0  0  0
  3  9  1  0  0  0  0
  4 15  2  0  0  0  0
  5  1  1  0  0  0  0
  5 22  2  0  0  0  0
  7 20  2  0  0  0  0
  7 15  1  0  0  0  0
  8 12  1  0  0  0  0
 10  3  1  0  0  0  0
 11  8  1  0  0  0  0
 11 13  1  0  0  0  0
 12  6  1  0  0  0  0
 13 23  1  6  0  0  0
 14 26  1  1  0  0  0
 15 16  1  0  0  0  0
 16  9  2  0  0  0  0
 17 14  1  0  0  0  0
 18  7  1  0  0  0  0
 19 14  1  0  0  0  0
 19 10  1  0  0  0  0
 20 10  2  0  0  0  0
 21  6  1  6  0  0  0
 21 17  1  0  0  0  0
 21 14  1  0  0  0  0
 22  8  1  0  0  0  0
 23 24  1  0  0  0  0
 26 25  1  1  0  0  0
 27 29  2  0  0  0  0
 28 26  1  0  0  0  0
 29 28  2  0  0  0  0
 30 28  1  6  0  0  0
 30 35  1  0  0  0  0
 31 32  1  0  0  0  0
 32 38  2  0  0  0  0
 32 37  1  0  0  0  0
 33 35  1  0  0  0  0
 33 36  2  0  0  0  0
 35 34  1  1  0  0  0
 37 33  1  0  0  0  0
 38 30  1  0  0  0  0
M  END
>  <MODEL>
3

>  <REMARK>
 VINA RESULT:      -7.8      2.243      2.565
  Name = 
  4 active torsions:
  status: ('A' for Active; 'I' for Inactive)
    1  A    between atoms: S_5  and  C_19
    2  A    between atoms: C_9  and  C_26
    3  A    between atoms: C_21  and  C_35
    4  A    between atoms: C_26  and  C_35
                            x       y       z     vdW  Elec       q    Type
                         _______ _______ _______ _____ _____    ______ ____

>  <TORSDO>
F 4

$$$$
=
 OpenBabel11042416233D

 38 42  0  0  1  0  0  0  0  0999 V2000
  193.7780  176.3540  146.1980 N   0  0  0  0  0  0  0  0  0  0  0  0
  191.0770  177.3420  145.3710 C   0  0  0  0  0  2  0  0  0  0  0  0
  187.7320  175.9360  141.6400 C   0  0  0  0  0  2  0  0  0  0  0  0
  186.9190  178.4420  145.2800 O   0  0  0  0  0  0  0  0  0  0  0  0
  194.8940  175.6220  145.9910 C   0  0  0  0  0  3  0  0  0  0  0  0
  192.1300  173.4610  143.4160 C   0  0  0  0  0  2  0  0  0  0  0  0
  188.6920  177.1130  144.4730 C   0  0  0  0  0  0  0  0  0  0  0  0
  193.2040  174.3470  145.4070 N   0  0  0  0  0  0  0  0  0  0  0  0
  186.4410  176.2890  142.3730 C   0  0  0  0  0  3  0  0  0  0  0  0
  188.8630  175.5080  142.5230 C   0  0  0  0  0  0  0  0  0  0  0  0
  192.7670  175.5490  145.8200 C   0  0  0  0  0  0  0  0  0  0  0  0
  192.4050  173.2460  144.8940 C   0  0  0  0  0  2  0  0  0  0  0  0
  191.3170  175.9300  145.9040 C   0  0  1  0  0  3  0  0  0  0  0  0
  189.9340  173.2730  142.2020 C   0  0  1  0  0  0  0  0  0  0  0  0
  187.2910  177.5760  144.4450 C   0  0  0  0  0  0  0  0  0  0  0  0
  186.2670  177.0070  143.5110 C   0  0  0  0  0  3  0  0  0  0  0  0
  189.7900  172.9550  143.5640 O   0  0  0  0  0  0  0  0  0  0  0  0
  189.6580  177.6750  145.3710 N   0  0  0  0  0  2  0  0  0  0  0  0
  190.0400  174.7870  141.9630 C   0  0  0  0  0  2  0  0  0  0  0  0
  188.9970  176.2540  143.5620 C   0  0  0  0  0  0  0  0  0  0  0  0
  190.9990  172.5520  142.9530 C   0  0  2  0  0  3  0  0  0  0  0  0
  194.5430  174.3770  145.4950 C   0  0  0  0  0  3  0  0  0  0  0  0
  190.6580  175.6820  147.5950 S   0  0  0  0  0  0  0  0  0  0  0  0
  189.2820  174.5960  147.1060 C   0  0  0  0  0  1  0  0  0  0  0  0
  187.6930  172.7660  141.5420 F   0  0  0  0  0  0  0  0  0  0  0  0
  189.0170  172.4190  141.3300 C   0  0  1  0  0  3  0  0  0  0  0  0
  187.9480  173.9710  138.3460 O   0  0  0  0  0  0  0  0  0  0  0  0
  189.3800  172.5290  139.8800 C   0  0  0  0  0  0  0  0  0  0  0  0
  188.6440  173.2700  139.0910 C   0  0  0  0  0  0  0  0  0  0  0  0
  190.5610  171.7700  139.3400 C   0  0  2  0  0  3  0  0  0  0  0  0
  190.5770  168.5020  137.4510 N   0  0  0  0  0  1  0  0  0  0  0  0
  190.9820  169.7580  137.9800 C   0  0  0  0  0  0  0  0  0  0  0  0
  192.3620  171.7670  137.5660 C   0  0  0  0  0  0  0  0  0  0  0  0
  192.3440  173.8220  139.3210 Cl  0  0  0  0  0  0  0  0  0  0  0  0
  191.4180  172.6190  138.3830 C   0  0  2  0  0  3  0  0  0  0  0  0
  193.1270  172.2950  136.7750 O   0  0  0  0  0  0  0  0  0  0  0  0
  192.3660  170.2690  137.7050 C   0  0  0  0  0  2  0  0  0  0  0  0
  190.1360  170.4610  138.7330 C   0  0  0  0  0  3  0  0  0  0  0  0
  2 13  1  0  0  0  0
  3  9  1  0  0  0  0
  3 10  1  0  0  0  0
  5  1  1  0  0  0  0
  6 12  1  0  0  0  0
  7 18  1  0  0  0  0
  8 22  1  0  0  0  0
  8 11  1  0  0  0  0
  9 16  2  0  0  0  0
 10 20  2  0  0  0  0
 11 13  1  0  0  0  0
 11  1  2  0  0  0  0
 12  8  1  0  0  0  0
 13 23  1  1  0  0  0
 14 26  1  6  0  0  0
 14 21  1  0  0  0  0
 14 17  1  0  0  0  0
 15  7  1  0  0  0  0
 15  4  2  0  0  0  0
 16 15  1  0  0  0  0
 18  2  1  0  0  0  0
 19 14  1  0  0  0  0
 19 10  1  0  0  0  0
 20  7  2  0  0  0  0
 21  6  1  1  0  0  0
 21 17  1  0  0  0  0
 22  5  2  0  0  0  0
 24 23  1  0  0  0  0
 26 25  1  6  0  0  0
 27 29  2  0  0  0  0
 28 26  1  0  0  0  0
 29 28  2  0  0  0  0
 30 28  1  6  0  0  0
 31 32  1  0  0  0  0
 32 38  2  0  0  0  0
 33 37  1  0  0  0  0
 33 35  1  0  0  0  0
 35 34  1  1  0  0  0
 35 30  1  0  0  0  0
 36 33  2  0  0  0  0
 37 32  1  0  0  0  0
 38 30  1  0  0  0  0
M  END
>  <MODEL>
4

>  <REMARK>
 VINA RESULT:      -7.6      3.451      7.931
  Name = 
  4 active torsions:
  status: ('A' for Active; 'I' for Inactive)
    1  A    between atoms: S_5  and  C_19
    2  A    between atoms: C_9  and  C_26
    3  A    between atoms: C_21  and  C_35
    4  A    between atoms: C_26  and  C_35
                            x       y       z     vdW  Elec       q    Type
                         _______ _______ _______ _____ _____    ______ ____

>  <TORSDO>
F 4

$$$$
=
 OpenBabel11042416233D

 38 42  0  0  1  0  0  0  0  0999 V2000
  196.3060  173.8740  143.1640 N   0  0  0  0  0  0  0  0  0  0  0  0
  193.7470  173.4150  141.6820 C   0  0  0  0  0  2  0  0  0  0  0  0
  188.7920  172.8500  143.1710 C   0  0  0  0  0  2  0  0  0  0  0  0
  190.3540  173.7880  139.0630 O   0  0  0  0  0  0  0  0  0  0  0  0
  197.0330  173.9200  144.3020 C   0  0  0  0  0  3  0  0  0  0  0  0
  193.0510  174.4780  145.9690 C   0  0  0  0  0  2  0  0  0  0  0  0
  191.2380  173.6570  141.2460 C   0  0  0  0  0  0  0  0  0  0  0  0
  195.1150  174.8900  144.7560 N   0  0  0  0  0  0  0  0  0  0  0  0
  188.1330  173.4660  141.9390 C   0  0  0  0  0  3  0  0  0  0  0  0
  190.1380  173.4100  143.5130 C   0  0  0  0  0  0  0  0  0  0  0  0
  195.1380  174.4650  143.4800 C   0  0  0  0  0  0  0  0  0  0  0  0
  194.0130  175.5330  145.4520 C   0  0  0  0  0  2  0  0  0  0  0  0
  194.0150  174.6740  142.5070 C   0  0  1  0  0  3  0  0  0  0  0  0
  190.5440  174.4250  145.7590 C   0  0  1  0  0  0  0  0  0  0  0  0
  190.1090  173.7210  140.2960 C   0  0  0  0  0  0  0  0  0  0  0  0
  188.6790  173.7810  140.7390 C   0  0  0  0  0  3  0  0  0  0  0  0
  191.0770  175.5950  145.1880 O   0  0  0  0  0  0  0  0  0  0  0  0
  192.5990  173.5930  140.8010 N   0  0  0  0  0  2  0  0  0  0  0  0
  190.7360  173.1950  144.8600 C   0  0  0  0  0  2  0  0  0  0  0  0
  190.8980  173.5520  142.4850 C   0  0  0  0  0  0  0  0  0  0  0  0
  191.7230  175.1180  146.3510 C   0  0  2  0  0  3  0  0  0  0  0  0
  196.2950  174.5450  145.2940 C   0  0  0  0  0  3  0  0  0  0  0  0
  194.2930  176.1610  141.4750 S   0  0  0  0  0  0  0  0  0  0  0  0
  195.4600  175.3760  140.3200 C   0  0  0  0  0  1  0  0  0  0  0  0
  189.2350  174.3370  147.7570 F   0  0  0  0  0  0  0  0  0  0  0  0
  189.1950  174.6940  146.4200 C   0  0  1  0  0  3  0  0  0  0  0  0
  190.0660  177.9450  147.4840 O   0  0  0  0  0  0  0  0  0  0  0  0
  188.7780  176.1240  146.2540 C   0  0  0  0  0  0  0  0  0  0  0  0
  189.4400  177.0600  146.8860 C   0  0  0  0  0  0  0  0  0  0  0  0
  187.5950  176.4680  145.3930 C   0  0  2  0  0  3  0  0  0  0  0  0
  184.2070  177.7400  146.4710 N   0  0  0  0  0  1  0  0  0  0  0  0
  185.3410  177.4270  145.6720 C   0  0  0  0  0  0  0  0  0  0  0  0
  186.6860  178.1350  143.7220 C   0  0  0  0  0  0  0  0  0  0  0  0
  188.9220  176.7780  143.0420 Cl  0  0  0  0  0  0  0  0  0  0  0  0
  187.9310  177.5240  144.3240 C   0  0  2  0  0  3  0  0  0  0  0  0
  186.7860  178.9730  142.8410 O   0  0  0  0  0  0  0  0  0  0  0  0
  185.3190  177.7290  144.2020 C   0  0  0  0  0  2  0  0  0  0  0  0
  186.4040  176.8490  146.2310 C   0  0  0  0  0  3  0  0  0  0  0  0
  1 11  2  0  0  0  0
  1  5  1  0  0  0  0
  2 13  1  0  0  0  0
  3 10  1  0  0  0  0
  4 15  2  0  0  0  0
  5 22  2  0  0  0  0
  7 20  2  0  0  0  0
  8 22  1  0  0  0  0
  8 12  1  0  0  0  0
  9  3  1  0  0  0  0
 10 19  1  0  0  0  0
 11  8  1  0  0  0  0
 12  6  1  0  0  0  0
 13 23  1  6  0  0  0
 13 11  1  0  0  0  0
 14 21  1  0  0  0  0
 14 26  1  1  0  0  0
 15 16  1  0  0  0  0
 15  7  1  0  0  0  0
 16  9  2  0  0  0  0
 17 14  1  0  0  0  0
 17 21  1  0  0  0  0
 18  7  1  0  0  0  0
 18  2  1  0  0  0  0
 19 14  1  0  0  0  0
 20 10  2  0  0  0  0
 21  6  1  6  0  0  0
 24 23  1  0  0  0  0
 26 25  1  1  0  0  0
 28 26  1  0  0  0  0
 28 29  2  0  0  0  0
 29 27  2  0  0  0  0
 30 38  1  0  0  0  0
 30 28  1  1  0  0  0
 32 38  2  0  0  0  0
 32 31  1  0  0  0  0
 33 37  1  0  0  0  0
 33 35  1  0  0  0  0
 35 34  1  6  0  0  0
 35 30  1  0  0  0  0
 36 33  2  0  0  0  0
 37 32  1  0  0  0  0
M  END
>  <MODEL>
5

>  <REMARK>
 VINA RESULT:      -7.6      1.805      4.424
  Name = 
  4 active torsions:
  status: ('A' for Active; 'I' for Inactive)
    1  A    between atoms: S_5  and  C_19
    2  A    between atoms: C_9  and  C_26
    3  A    between atoms: C_21  and  C_35
    4  A    between atoms: C_26  and  C_35
                            x       y       z     vdW  Elec       q    Type
                         _______ _______ _______ _____ _____    ______ ____

>  <TORSDO>
F 4

$$$$
=
 OpenBabel11042416233D

 38 42  0  0  1  0  0  0  0  0999 V2000
  195.7940  173.4930  144.8520 N   0  0  0  0  0  0  0  0  0  0  0  0
  194.1320  172.7400  142.4810 C   0  0  0  0  0  2  0  0  0  0  0  0
  189.3410  174.0270  140.9030 C   0  0  0  0  0  2  0  0  0  0  0  0
  192.6360  172.1540  138.4900 O   0  0  0  0  0  0  0  0  0  0  0  0
  195.9440  174.0490  146.0750 C   0  0  0  0  0  3  0  0  0  0  0  0
  192.3750  176.1630  144.7580 C   0  0  0  0  0  2  0  0  0  0  0  0
  192.4180  173.1350  140.6230 C   0  0  0  0  0  0  0  0  0  0  0  0
  194.6850  175.4290  144.9210 N   0  0  0  0  0  0  0  0  0  0  0  0
  189.5860  173.9370  139.3990 C   0  0  0  0  0  3  0  0  0  0  0  0
  190.5350  174.4290  141.7140 C   0  0  0  0  0  0  0  0  0  0  0  0
  195.0110  174.3570  144.1790 C   0  0  0  0  0  0  0  0  0  0  0  0
  193.8290  176.5400  144.5380 C   0  0  0  0  0  2  0  0  0  0  0  0
  194.5970  174.1710  142.7480 C   0  0  1  0  0  3  0  0  0  0  0  0
  190.4390  176.4520  143.1780 C   0  0  1  0  0  0  0  0  0  0  0  0
  191.9240  172.8480  139.2620 C   0  0  0  0  0  0  0  0  0  0  0  0
  190.6390  173.4060  138.7300 C   0  0  0  0  0  3  0  0  0  0  0  0
  191.6250  176.9670  142.6270 O   0  0  0  0  0  0  0  0  0  0  0  0
  193.6470  172.5860  141.1140 N   0  0  0  0  0  2  0  0  0  0  0  0
  190.3810  174.9180  143.1120 C   0  0  0  0  0  2  0  0  0  0  0  0
  191.6110  173.8200  141.3580 C   0  0  0  0  0  0  0  0  0  0  0  0
  191.4610  177.1320  144.0200 C   0  0  2  0  0  3  0  0  0  0  0  0
  195.2530  175.2480  146.1230 C   0  0  0  0  0  3  0  0  0  0  0  0
  195.9090  174.7240  141.5960 S   0  0  0  0  0  0  0  0  0  0  0  0
  195.0170  176.1850  140.9780 C   0  0  0  0  0  1  0  0  0  0  0  0
  189.0650  177.2570  141.3940 F   0  0  0  0  0  0  0  0  0  0  0  0
  189.2270  177.2860  142.7700 C   0  0  1  0  0  3  0  0  0  0  0  0
  186.7030  174.8280  142.5500 O   0  0  0  0  0  0  0  0  0  0  0  0
  187.9840  176.8280  143.4700 C   0  0  0  0  0  0  0  0  0  0  0  0
  187.3250  175.7990  142.9970 C   0  0  0  0  0  0  0  0  0  0  0  0
  187.4900  177.5630  144.6850 C   0  0  2  0  0  3  0  0  0  0  0  0
  184.3670  179.6520  145.0470 N   0  0  0  0  0  1  0  0  0  0  0  0
  185.5130  178.8700  145.3600 C   0  0  0  0  0  0  0  0  0  0  0  0
  186.4820  177.2820  146.9870 C   0  0  0  0  0  0  0  0  0  0  0  0
  188.9210  176.2000  146.5520 Cl  0  0  0  0  0  0  0  0  0  0  0  0
  187.3170  176.6380  145.9040 C   0  0  2  0  0  3  0  0  0  0  0  0
  186.2730  176.6830  148.0300 O   0  0  0  0  0  0  0  0  0  0  0  0
  185.8950  178.6540  146.7950 C   0  0  0  0  0  2  0  0  0  0  0  0
  186.2490  178.3550  144.3750 C   0  0  0  0  0  3  0  0  0  0  0  0
  1  5  1  0  0  0  0
  2 13  1  0  0  0  0
  3 10  1  0  0  0  0
  4 15  2  0  0  0  0
  5 22  2  0  0  0  0
  7 18  1  0  0  0  0
  7 20  2  0  0  0  0
  8 22  1  0  0  0  0
  9  3  1  0  0  0  0
 10 19  1  0  0  0  0
 11  1  2  0  0  0  0
 11  8  1  0  0  0  0
 12  6  1  0  0  0  0
 12  8  1  0  0  0  0
 13 23  1  6  0  0  0
 13 11  1  0  0  0  0
 14 26  1  6  0  0  0
 14 21  1  0  0  0  0
 15  7  1  0  0  0  0
 16 15  1  0  0  0  0
 16  9  2  0  0  0  0
 17 14  1  0  0  0  0
 17 21  1  0  0  0  0
 18  2  1  0  0  0  0
 19 14  1  0  0  0  0
 20 10  2  0  0  0  0
 21  6  1  1  0  0  0
 24 23  1  0  0  0  0
 26 25  1  6  0  0  0
 26 28  1  0  0  0  0
 27 29  2  0  0  0  0
 29 28  2  0  0  0  0
 30 28  1  6  0  0  0
 30 35  1  0  0  0  0
 31 32  1  0  0  0  0
 32 37  1  0  0  0  0
 33 36  2  0  0  0  0
 35 34  1  1  0  0  0
 35 33  1  0  0  0  0
 37 33  1  0  0  0  0
 38 30  1  0  0  0  0
 38 32  2  0  0  0  0
M  END
>  <MODEL>
6

>  <REMARK>
 VINA RESULT:      -7.3      2.450      5.082
  Name = 
  4 active torsions:
  status: ('A' for Active; 'I' for Inactive)
    1  A    between atoms: S_5  and  C_19
    2  A    between atoms: C_9  and  C_26
    3  A    between atoms: C_21  and  C_35
    4  A    between atoms: C_26  and  C_35
                            x       y       z     vdW  Elec       q    Type
                         _______ _______ _______ _____ _____    ______ ____

>  <TORSDO>
F 4

$$$$
=
 OpenBabel11042416233D

 38 42  0  0  1  0  0  0  0  0999 V2000
  193.8520  176.3210  146.2950 N   0  0  0  0  0  0  0  0  0  0  0  0
  191.1750  177.2570  145.3390 C   0  0  0  0  0  2  0  0  0  0  0  0
  188.0190  175.7600  141.4810 C   0  0  0  0  0  2  0  0  0  0  0  0
  187.0090  178.2910  145.0540 O   0  0  0  0  0  0  0  0  0  0  0  0
  194.9870  175.6040  146.1440 C   0  0  0  0  0  3  0  0  0  0  0  0
  192.3720  173.3730  143.4750 C   0  0  0  0  0  2  0  0  0  0  0  0
  188.8360  176.9810  144.3410 C   0  0  0  0  0  0  0  0  0  0  0  0
  193.3440  174.2970  145.5010 N   0  0  0  0  0  0  0  0  0  0  0  0
  186.6910  176.1000  142.1540 C   0  0  0  0  0  3  0  0  0  0  0  0
  189.1170  175.3590  142.4180 C   0  0  0  0  0  0  0  0  0  0  0  0
  192.8710  175.4960  145.8820 C   0  0  0  0  0  0  0  0  0  0  0  0
  192.5850  173.1780  144.9650 C   0  0  0  0  0  2  0  0  0  0  0  0
  191.4130  175.8550  145.8980 C   0  0  1  0  0  3  0  0  0  0  0  0
  190.2350  173.1390  142.1680 C   0  0  1  0  0  0  0  0  0  0  0  0
  187.4300  177.4220  144.2470 C   0  0  0  0  0  0  0  0  0  0  0  0
  186.4570  176.8270  143.2750 C   0  0  0  0  0  3  0  0  0  0  0  0
  190.0360  172.8320  143.5260 O   0  0  0  0  0  0  0  0  0  0  0  0
  189.7520  177.5680  145.2740 N   0  0  0  0  0  2  0  0  0  0  0  0
  190.3280  174.6510  141.9180 C   0  0  0  0  0  2  0  0  0  0  0  0
  189.1930  176.1180  143.4540 C   0  0  0  0  0  0  0  0  0  0  0  0
  191.2760  172.4420  142.9730 C   0  0  2  0  0  3  0  0  0  0  0  0
  194.6770  174.3490  145.6470 C   0  0  0  0  0  3  0  0  0  0  0  0
  190.6850  175.6140  147.5610 S   0  0  0  0  0  0  0  0  0  0  0  0
  189.3180  174.5420  147.0170 C   0  0  0  0  0  1  0  0  0  0  0  0
  188.1550  172.8770  141.0190 F   0  0  0  0  0  0  0  0  0  0  0  0
  189.3700  172.2610  141.2670 C   0  0  1  0  0  3  0  0  0  0  0  0
  190.4410  169.4800  139.3740 O   0  0  0  0  0  0  0  0  0  0  0  0
  190.0770  171.9250  139.9880 C   0  0  0  0  0  0  0  0  0  0  0  0
  190.2640  170.6680  139.6720 C   0  0  0  0  0  0  0  0  0  0  0  0
  190.5860  173.0240  139.0980 C   0  0  2  0  0  3  0  0  0  0  0  0
  194.0830  173.5280  137.7690 N   0  0  0  0  0  1  0  0  0  0  0  0
  192.6740  173.6210  137.9310 C   0  0  0  0  0  0  0  0  0  0  0  0
  190.5290  173.9570  136.7490 C   0  0  0  0  0  0  0  0  0  0  0  0
  188.1910  173.8340  138.0990 Cl  0  0  0  0  0  0  0  0  0  0  0  0
  189.7980  173.1270  137.7790 C   0  0  2  0  0  3  0  0  0  0  0  0
  190.0230  174.1530  135.6560 O   0  0  0  0  0  0  0  0  0  0  0  0
  191.8830  174.5410  137.0480 C   0  0  0  0  0  2  0  0  0  0  0  0
  192.0700  172.9060  138.8810 C   0  0  0  0  0  3  0  0  0  0  0  0
  2 13  1  0  0  0  0
  3  9  1  0  0  0  0
  3 10  1  0  0  0  0
  5  1  1  0  0  0  0
  6 12  1  0  0  0  0
  7 18  1  0  0  0  0
  8 22  1  0  0  0  0
  8 11  1  0  0  0  0
  9 16  2  0  0  0  0
 10 20  2  0  0  0  0
 11 13  1  0  0  0  0
 11  1  2  0  0  0  0
 12  8  1  0  0  0  0
 13 23  1  1  0  0  0
 14 26  1  6  0  0  0
 14 21  1  0  0  0  0
 14 17  1  0  0  0  0
 15  7  1  0  0  0  0
 15  4  2  0  0  0  0
 16 15  1  0  0  0  0
 18  2  1  0  0  0  0
 19 14  1  0  0  0  0
 19 10  1  0  0  0  0
 20  7  2  0  0  0  0
 21  6  1  1  0  0  0
 21 17  1  0  0  0  0
 22  5  2  0  0  0  0
 24 23  1  0  0  0  0
 26 25  1  6  0  0  0
 27 29  2  0  0  0  0
 28 26  1  0  0  0  0
 29 28  2  0  0  0  0
 30 28  1  6  0  0  0
 31 32  1  0  0  0  0
 32 38  2  0  0  0  0
 33 37  1  0  0  0  0
 33 35  1  0  0  0  0
 35 34  1  1  0  0  0
 35 30  1  0  0  0  0
 36 33  2  0  0  0  0
 37 32  1  0  0  0  0
 38 30  1  0  0  0  0
M  END
>  <MODEL>
7

>  <REMARK>
 VINA RESULT:      -7.0      3.232      7.712
  Name = 
  4 active torsions:
  status: ('A' for Active; 'I' for Inactive)
    1  A    between atoms: S_5  and  C_19
    2  A    between atoms: C_9  and  C_26
    3  A    between atoms: C_21  and  C_35
    4  A    between atoms: C_26  and  C_35
                            x       y       z     vdW  Elec       q    Type
                         _______ _______ _______ _____ _____    ______ ____

>  <TORSDO>
F 4

$$$$
=
 OpenBabel11042416233D

 38 42  0  0  1  0  0  0  0  0999 V2000
  192.6030  171.2360  138.6880 N   0  0  0  0  0  0  0  0  0  0  0  0
  194.1510  172.4990  140.9160 C   0  0  0  0  0  2  0  0  0  0  0  0
  192.9120  175.8680  144.6850 C   0  0  0  0  0  2  0  0  0  0  0  0
  196.5130  173.1910  144.4450 O   0  0  0  0  0  0  0  0  0  0  0  0
  191.5100  171.1430  137.9000 C   0  0  0  0  0  3  0  0  0  0  0  0
  189.7470  173.1480  141.3370 C   0  0  0  0  0  2  0  0  0  0  0  0
  194.4850  173.4480  143.2690 C   0  0  0  0  0  0  0  0  0  0  0  0
  190.7700  171.4390  139.9460 N   0  0  0  0  0  0  0  0  0  0  0  0
  193.8840  175.3600  145.7470 C   0  0  0  0  0  3  0  0  0  0  0  0
  192.4120  174.8230  143.7350 C   0  0  0  0  0  0  0  0  0  0  0  0
  192.1140  171.4280  139.9280 C   0  0  0  0  0  0  0  0  0  0  0  0
  189.9050  171.6580  141.0940 C   0  0  0  0  0  2  0  0  0  0  0  0
  192.9700  171.5580  141.1540 C   0  0  1  0  0  3  0  0  0  0  0  0
  189.9600  174.3990  143.5090 C   0  0  1  0  0  0  0  0  0  0  0  0
  195.3640  173.7060  144.4260 C   0  0  0  0  0  0  0  0  0  0  0  0
  194.9240  174.4990  145.6180 C   0  0  0  0  0  3  0  0  0  0  0  0
  190.1320  173.0170  143.7000 O   0  0  0  0  0  0  0  0  0  0  0  0
  194.9290  172.6920  142.1340 N   0  0  0  0  0  2  0  0  0  0  0  0
  191.2030  175.0650  142.9000 C   0  0  0  0  0  2  0  0  0  0  0  0
  193.3430  174.0430  143.3130 C   0  0  0  0  0  0  0  0  0  0  0  0
  189.1810  173.3990  142.7280 C   0  0  2  0  0  3  0  0  0  0  0  0
  190.3700  171.2730  138.6760 C   0  0  0  0  0  3  0  0  0  0  0  0
  193.4780  169.9180  141.7920 S   0  0  0  0  0  0  0  0  0  0  0  0
  194.8100  169.6470  140.5800 C   0  0  0  0  0  1  0  0  0  0  0  0
  190.0650  175.0240  145.8150 F   0  0  0  0  0  0  0  0  0  0  0  0
  189.2470  175.0410  144.6970 C   0  0  1  0  0  3  0  0  0  0  0  0
  190.4310  178.3660  144.6620 O   0  0  0  0  0  0  0  0  0  0  0  0
  188.7950  176.4350  144.3790 C   0  0  0  0  0  0  0  0  0  0  0  0
  189.6360  177.4280  144.5240 C   0  0  0  0  0  0  0  0  0  0  0  0
  187.3840  176.6830  143.9250 C   0  0  2  0  0  3  0  0  0  0  0  0
  184.6070  178.4460  145.7780 N   0  0  0  0  0  1  0  0  0  0  0  0
  185.3800  177.8700  144.7330 C   0  0  0  0  0  0  0  0  0  0  0  0
  185.9440  178.0160  142.3310 C   0  0  0  0  0  0  0  0  0  0  0  0
  187.7870  176.3560  141.2570 Cl  0  0  0  0  0  0  0  0  0  0  0  0
  187.3200  177.4470  142.5900 C   0  0  2  0  0  3  0  0  0  0  0  0
  185.7250  178.6300  141.2990 O   0  0  0  0  0  0  0  0  0  0  0  0
  184.8360  177.8440  143.3340 C   0  0  0  0  0  2  0  0  0  0  0  0
  186.5710  177.3380  145.0090 C   0  0  0  0  0  3  0  0  0  0  0  0
  1 11  2  0  0  0  0
  2 13  1  0  0  0  0
  2 18  1  0  0  0  0
  3  9  1  0  0  0  0
  5 22  2  0  0  0  0
  5  1  1  0  0  0  0
  7 20  2  0  0  0  0
  7 15  1  0  0  0  0
  8 12  1  0  0  0  0
 10  3  1  0  0  0  0
 11  8  1  0  0  0  0
 11 13  1  0  0  0  0
 12  6  1  0  0  0  0
 13 23  1  6  0  0  0
 14 17  1  0  0  0  0
 14 26  1  1  0  0  0
 15  4  2  0  0  0  0
 15 16  1  0  0  0  0
 16  9  2  0  0  0  0
 18  7  1  0  0  0  0
 19 14  1  0  0  0  0
 19 10  1  0  0  0  0
 20 10  2  0  0  0  0
 21  6  1  6  0  0  0
 21 14  1  0  0  0  0
 21 17  1  0  0  0  0
 22  8  1  0  0  0  0
 24 23  1  0  0  0  0
 26 25  1  1  0  0  0
 28 29  2  0  0  0  0
 28 26  1  0  0  0  0
 29 27  2  0  0  0  0
 30 28  1  1  0  0  0
 30 38  1  0  0  0  0
 32 38  2  0  0  0  0
 32 31  1  0  0  0  0
 33 35  1  0  0  0  0
 33 37  1  0  0  0  0
 35 34  1  6  0  0  0
 35 30  1  0  0  0  0
 36 33  2  0  0  0  0
 37 32  1  0  0  0  0
M  END
>  <MODEL>
8

>  <REMARK>
 VINA RESULT:      -6.9      1.659      1.736
  Name = 
  4 active torsions:
  status: ('A' for Active; 'I' for Inactive)
    1  A    between atoms: S_5  and  C_19
    2  A    between atoms: C_9  and  C_26
    3  A    between atoms: C_21  and  C_35
    4  A    between atoms: C_26  and  C_35
                            x       y       z     vdW  Elec       q    Type
                         _______ _______ _______ _____ _____    ______ ____

>  <TORSDO>
F 4

$$$$
=
 OpenBabel11042416233D

 38 42  0  0  1  0  0  0  0  0999 V2000
  186.7690  177.0750  145.5010 N   0  0  0  0  0  0  0  0  0  0  0  0
  189.3110  175.5770  145.9980 C   0  0  0  0  0  2  0  0  0  0  0  0
  191.6100  171.5380  143.6540 C   0  0  0  0  0  2  0  0  0  0  0  0
  193.4400  174.4820  146.5130 O   0  0  0  0  0  0  0  0  0  0  0  0
  185.5660  177.2170  144.9020 C   0  0  0  0  0  3  0  0  0  0  0  0
  187.4760  174.5340  142.0560 C   0  0  0  0  0  2  0  0  0  0  0  0
  191.4100  174.2740  145.3310 C   0  0  0  0  0  0  0  0  0  0  0  0
  186.9530  176.5250  143.3450 N   0  0  0  0  0  0  0  0  0  0  0  0
  193.0580  171.9330  143.9320 C   0  0  0  0  0  3  0  0  0  0  0  0
  190.6600  172.6870  143.5070 C   0  0  0  0  0  0  0  0  0  0  0  0
  187.5880  176.6410  144.5250 C   0  0  0  0  0  0  0  0  0  0  0  0
  187.5070  176.0520  142.0880 C   0  0  0  0  0  2  0  0  0  0  0  0
  189.0520  176.3720  144.7180 C   0  0  1  0  0  3  0  0  0  0  0  0
  189.3260  172.9550  141.4120 C   0  0  1  0  0  0  0  0  0  0  0  0
  192.8110  173.8920  145.5960 C   0  0  0  0  0  0  0  0  0  0  0  0
  193.5450  172.8790  144.7720 C   0  0  0  0  0  3  0  0  0  0  0  0
  189.7290  174.2950  141.2690 O   0  0  0  0  0  0  0  0  0  0  0  0
  190.7230  175.2410  146.1360 N   0  0  0  0  0  2  0  0  0  0  0  0
  189.3240  172.4980  142.8780 C   0  0  0  0  0  2  0  0  0  0  0  0
  190.8300  173.5950  144.4020 C   0  0  0  0  0  0  0  0  0  0  0  0
  188.3820  174.0110  140.9500 C   0  0  2  0  0  3  0  0  0  0  0  0
  185.6750  176.8720  143.5650 C   0  0  0  0  0  3  0  0  0  0  0  0
  190.0330  177.9160  144.6230 S   0  0  0  0  0  0  0  0  0  0  0  0
  190.9620  177.4600  143.1250 C   0  0  0  0  0  1  0  0  0  0  0  0
  189.0170  171.8240  139.3280 F   0  0  0  0  0  0  0  0  0  0  0  0
  189.9410  172.0710  140.3300 C   0  0  1  0  0  3  0  0  0  0  0  0
  191.0510  174.1120  137.6720 O   0  0  0  0  0  0  0  0  0  0  0  0
  191.1930  172.6790  139.7720 C   0  0  0  0  0  0  0  0  0  0  0  0
  191.1200  173.4160  138.6920 C   0  0  0  0  0  0  0  0  0  0  0  0
  192.5170  172.4160  140.4340 C   0  0  2  0  0  3  0  0  0  0  0  0
  195.0270  169.7060  139.6550 N   0  0  0  0  0  1  0  0  0  0  0  0
  194.4430  170.9050  140.1480 C   0  0  0  0  0  0  0  0  0  0  0  0
  194.8800  173.2720  140.7130 C   0  0  0  0  0  0  0  0  0  0  0  0
  192.8680  174.8690  141.5520 Cl  0  0  0  0  0  0  0  0  0  0  0  0
  193.4490  173.6410  140.3950 C   0  0  2  0  0  3  0  0  0  0  0  0
  195.7380  174.1390  140.7450 O   0  0  0  0  0  0  0  0  0  0  0  0
  195.2670  171.8430  140.9820 C   0  0  0  0  0  2  0  0  0  0  0  0
  193.1650  171.1750  139.8840 C   0  0  0  0  0  3  0  0  0  0  0  0
  2 18  1  0  0  0  0
  3  9  1  0  0  0  0
  5  1  1  0  0  0  0
  6 12  1  0  0  0  0
  7 15  1  0  0  0  0
  7 18  1  0  0  0  0
  8 22  1  0  0  0  0
  8 11  1  0  0  0  0
  9 16  2  0  0  0  0
 10  3  1  0  0  0  0
 10 20  2  0  0  0  0
 11 13  1  0  0  0  0
 11  1  2  0  0  0  0
 12  8  1  0  0  0  0
 13 23  1  1  0  0  0
 13  2  1  0  0  0  0
 14 26  1  6  0  0  0
 14 19  1  0  0  0  0
 15  4  2  0  0  0  0
 16 15  1  0  0  0  0
 17 14  1  0  0  0  0
 19 10  1  0  0  0  0
 20  7  2  0  0  0  0
 21 17  1  0  0  0  0
 21 14  1  0  0  0  0
 21  6  1  1  0  0  0
 22  5  2  0  0  0  0
 24 23  1  0  0  0  0
 26 25  1  6  0  0  0
 27 29  2  0  0  0  0
 28 26  1  0  0  0  0
 29 28  2  0  0  0  0
 30 28  1  6  0  0  0
 31 32  1  0  0  0  0
 32 37  1  0  0  0  0
 33 36  2  0  0  0  0
 33 37  1  0  0  0  0
 35 30  1  0  0  0  0
 35 33  1  0  0  0  0
 35 34  1  1  0  0  0
 38 32  2  0  0  0  0
 38 30  1  0  0  0  0
M  END
>  <MODEL>
9

>  <REMARK>
 VINA RESULT:      -6.6      3.310      7.560
  Name = 
  4 active torsions:
  status: ('A' for Active; 'I' for Inactive)
    1  A    between atoms: S_5  and  C_19
    2  A    between atoms: C_9  and  C_26
    3  A    between atoms: C_21  and  C_35
    4  A    between atoms: C_26  and  C_35
                            x       y       z     vdW  Elec       q    Type
                         _______ _______ _______ _____ _____    ______ ____

>  <TORSDO>
F 4

$$$$
