=
 OpenBabel11042416373D

 32 36  0  0  1  0  0  0  0  0999 V2000
  187.4290  178.2010  142.4680 C   0  0  0  0  0  2  0  0  0  0  0  0
  186.6520  175.4470  142.5790 O   0  0  0  0  0  0  0  0  0  0  0  0
  188.4110  177.0620  142.1930 C   0  0  2  0  0  3  0  0  0  0  0  0
  185.7950  176.4400  143.0850 C   0  0  0  0  0  2  0  0  0  0  0  0
  187.9590  175.8070  142.9600 C   0  0  2  0  0  3  0  0  0  0  0  0
  185.9870  177.7350  142.2960 C   0  0  1  0  0  3  0  0  0  0  0  0
  190.0510  173.0400  141.6100 C   0  0  0  0  0  0  0  0  0  0  0  0
  189.1470  174.0430  141.4440 C   0  0  0  0  0  0  0  0  0  0  0  0
  189.0760  173.6470  139.1390 C   0  0  0  0  0  0  0  0  0  0  0  0
  190.4450  172.9210  143.0390 C   0  0  0  0  0  3  0  0  0  0  0  0
  190.4960  172.3180  140.5530 N   0  0  0  0  0  0  0  0  0  0  0  0
  189.6210  174.0340  143.6510 C   0  0  0  0  0  3  0  0  0  0  0  0
  188.8850  174.6530  142.7220 C   0  0  0  0  0  0  0  0  0  0  0  0
  188.4620  174.0290  137.5450 Cl  0  0  0  0  0  0  0  0  0  0  0  0
  190.0180  172.6100  139.3060 C   0  0  0  0  0  3  0  0  0  0  0  0
  188.6520  174.3630  140.2220 N   0  0  0  0  0  2  0  0  0  0  0  0
  190.0390  177.6190  144.0060 C   0  0  0  0  0  0  0  0  0  0  0  0
  189.6320  177.6060  145.3580 N   0  0  0  0  0  0  0  0  0  0  0  0
  190.9230  177.8770  145.0080 C   0  0  1  0  0  3  0  0  0  0  0  0
  189.7420  177.4610  142.6230 N   0  0  0  0  0  2  0  0  0  0  0  0
  191.7960  176.6810  145.2350 C   0  0  0  0  0  0  0  0  0  0  0  0
  191.9720  176.0690  146.4560 C   0  0  0  0  0  3  0  0  0  0  0  0
  192.4910  176.0640  144.3090 O   0  0  0  0  0  0  0  0  0  0  0  0
  193.1340  175.0610  144.8560 C   0  0  0  0  0  3  0  0  0  0  0  0
  192.8390  175.0190  146.2090 C   0  0  0  0  0  3  0  0  0  0  0  0
  185.0560  178.8170  142.8140 C   0  0  0  0  0  2  0  0  0  0  0  0
  185.7300  179.6340  143.9010 C   0  0  0  0  0  2  0  0  0  0  0  0
  186.2490  178.7690  146.2100 N   0  0  0  0  0  2  0  0  0  0  0  0
  185.2780  179.1600  145.2370 C   0  0  0  0  0  0  0  0  0  0  0  0
  184.0470  179.0570  145.4800 O   0  0  0  0  0  0  0  0  0  0  0  0
  186.1980  176.8010  147.6440 C   0  0  0  0  0  1  0  0  0  0  0  0
  185.8840  178.2800  147.5310 C   0  0  0  0  0  2  0  0  0  0  0  0
  2  5  1  0  0  0  0
  2  4  1  0  0  0  0
  3  1  1  0  0  0  0
  3 20  1  1  0  0  0
  3  5  1  0  0  0  0
  5 13  1  6  0  0  0
  6  1  1  0  0  0  0
  6 26  1  1  0  0  0
  6  4  1  0  0  0  0
  7 10  1  0  0  0  0
  8  7  1  0  0  0  0
  8 13  2  0  0  0  0
  9 15  2  0  0  0  0
  9 16  1  0  0  0  0
 10 12  2  0  0  0  0
 11  7  2  0  0  0  0
 13 12  1  0  0  0  0
 14  9  1  0  0  0  0
 15 11  1  0  0  0  0
 16  8  1  0  0  0  0
 17 19  1  0  0  0  0
 17 18  2  0  0  0  0
 19 21  1  1  0  0  0
 19 18  1  0  0  0  0
 20 17  1  0  0  0  0
 21 22  2  0  0  0  0
 23 24  1  0  0  0  0
 23 21  1  0  0  0  0
 24 25  2  0  0  0  0
 25 22  1  0  0  0  0
 26 27  1  0  0  0  0
 27 29  1  0  0  0  0
 28 32  1  0  0  0  0
 29 30  2  0  0  0  0
 29 28  1  0  0  0  0
 32 31  1  0  0  0  0
M  END
>  <MODEL>
1

>  <REMARK>
 VINA RESULT:      -7.2      0.000      0.000
  Name = 
  7 active torsions:
  status: ('A' for Active; 'I' for Inactive)
    1  A    between atoms: N_4  and  C_18
    2  A    between atoms: C_7  and  C_23
    3  A    between atoms: C_7  and  C_30
    4  A    between atoms: C_10  and  N_26
    5  A    between atoms: C_16  and  C_21
    6  A    between atoms: C_17  and  C_22
    7  A    between atoms: C_23  and  C_25
                            x       y       z     vdW  Elec       q    Type
                         _______ _______ _______ _____ _____    ______ ____

>  <TORSDO>
F 7

$$$$
=
 OpenBabel11042416373D

 32 36  0  0  1  0  0  0  0  0999 V2000
  190.4200  175.6830  143.7640 C   0  0  0  0  0  2  0  0  0  0  0  0
  189.7730  178.0740  142.3260 O   0  0  0  0  0  0  0  0  0  0  0  0
  188.9770  176.1020  143.4810 C   0  0  2  0  0  3  0  0  0  0  0  0
  191.0860  177.8620  142.7820 C   0  0  0  0  0  2  0  0  0  0  0  0
  188.9120  177.6340  143.3500 C   0  0  2  0  0  3  0  0  0  0  0  0
  191.3880  176.3630  142.8000 C   0  0  1  0  0  3  0  0  0  0  0  0
  185.5650  178.4500  141.9400 C   0  0  0  0  0  0  0  0  0  0  0  0
  186.8080  177.9090  141.8270 C   0  0  0  0  0  0  0  0  0  0  0  0
  186.3400  177.1990  139.6470 C   0  0  0  0  0  0  0  0  0  0  0  0
  185.3760  179.0520  143.2870 C   0  0  0  0  0  3  0  0  0  0  0  0
  184.6750  178.3790  140.9200 N   0  0  0  0  0  0  0  0  0  0  0  0
  186.7170  178.7480  143.9210 C   0  0  0  0  0  3  0  0  0  0  0  0
  187.5180  178.1030  143.0650 C   0  0  0  0  0  0  0  0  0  0  0  0
  186.8220  176.3940  138.1690 Cl  0  0  0  0  0  0  0  0  0  0  0  0
  185.0470  177.7530  139.7630 C   0  0  0  0  0  3  0  0  0  0  0  0
  187.2120  177.2790  140.6950 N   0  0  0  0  0  2  0  0  0  0  0  0
  188.2270  176.2480  145.8610 C   0  0  0  0  0  0  0  0  0  0  0  0
  188.8400  177.1600  146.7460 N   0  0  0  0  0  0  0  0  0  0  0  0
  187.8020  176.3710  147.1480 C   0  0  1  0  0  3  0  0  0  0  0  0
  188.1250  175.6550  144.5700 N   0  0  0  0  0  2  0  0  0  0  0  0
  186.5250  177.1530  147.1870 C   0  0  0  0  0  0  0  0  0  0  0  0
  185.3560  176.7610  146.5740 C   0  0  0  0  0  3  0  0  0  0  0  0
  186.3560  178.2950  147.8100 O   0  0  0  0  0  0  0  0  0  0  0  0
  185.1180  178.6930  147.6390 C   0  0  0  0  0  3  0  0  0  0  0  0
  184.4450  177.7600  146.8690 C   0  0  0  0  0  3  0  0  0  0  0  0
  192.8090  176.1120  143.2730 C   0  0  0  0  0  2  0  0  0  0  0  0
  193.0530  176.7650  144.6220 C   0  0  0  0  0  2  0  0  0  0  0  0
  194.4550  174.6880  144.8860 N   0  0  0  0  0  2  0  0  0  0  0  0
  193.9720  175.9190  145.4290 C   0  0  0  0  0  0  0  0  0  0  0  0
  194.2750  176.2670  146.6010 O   0  0  0  0  0  0  0  0  0  0  0  0
  196.7890  174.1540  145.3290 C   0  0  0  0  0  1  0  0  0  0  0  0
  195.3440  173.8000  145.6200 C   0  0  0  0  0  2  0  0  0  0  0  0
  2  4  1  0  0  0  0
  2  5  1  0  0  0  0
  3  1  1  0  0  0  0
  3 20  1  1  0  0  0
  4  6  1  0  0  0  0
  5 13  1  6  0  0  0
  5  3  1  0  0  0  0
  6 26  1  1  0  0  0
  6  1  1  0  0  0  0
  7 10  1  0  0  0  0
  8  7  1  0  0  0  0
  8 13  2  0  0  0  0
  9 15  2  0  0  0  0
  9 16  1  0  0  0  0
 10 12  2  0  0  0  0
 11  7  2  0  0  0  0
 13 12  1  0  0  0  0
 14  9  1  0  0  0  0
 15 11  1  0  0  0  0
 16  8  1  0  0  0  0
 17 18  2  0  0  0  0
 17 19  1  0  0  0  0
 18 19  1  0  0  0  0
 19 21  1  6  0  0  0
 20 17  1  0  0  0  0
 21 23  1  0  0  0  0
 22 25  1  0  0  0  0
 22 21  2  0  0  0  0
 24 23  1  0  0  0  0
 25 24  2  0  0  0  0
 26 27  1  0  0  0  0
 27 29  1  0  0  0  0
 28 29  1  0  0  0  0
 28 32  1  0  0  0  0
 29 30  2  0  0  0  0
 31 32  1  0  0  0  0
M  END
>  <MODEL>
2

>  <REMARK>
 VINA RESULT:      -7.1      2.666      6.680
  Name = 
  7 active torsions:
  status: ('A' for Active; 'I' for Inactive)
    1  A    between atoms: N_4  and  C_18
    2  A    between atoms: C_7  and  C_23
    3  A    between atoms: C_7  and  C_30
    4  A    between atoms: C_10  and  N_26
    5  A    between atoms: C_16  and  C_21
    6  A    between atoms: C_17  and  C_22
    7  A    between atoms: C_23  and  C_25
                            x       y       z     vdW  Elec       q    Type
                         _______ _______ _______ _____ _____    ______ ____

>  <TORSDO>
F 7

$$$$
=
 OpenBabel11042416373D

 32 36  0  0  1  0  0  0  0  0999 V2000
  188.3420  175.6710  146.1770 C   0  0  0  0  0  2  0  0  0  0  0  0
  190.1740  177.7330  145.4080 O   0  0  0  0  0  0  0  0  0  0  0  0
  189.8470  175.5620  146.4230 C   0  0  2  0  0  3  0  0  0  0  0  0
  188.8490  177.7590  144.9380 C   0  0  0  0  0  2  0  0  0  0  0  0
  190.5940  176.3900  145.3630 C   0  0  2  0  0  3  0  0  0  0  0  0
  187.9230  177.1240  145.9760 C   0  0  1  0  0  3  0  0  0  0  0  0
  194.2910  176.0610  145.0750 C   0  0  0  0  0  0  0  0  0  0  0  0
  193.0420  176.0060  144.5370 C   0  0  0  0  0  0  0  0  0  0  0  0
  193.9290  175.4750  142.4380 C   0  0  0  0  0  0  0  0  0  0  0  0
  194.2250  176.4200  146.5170 C   0  0  0  0  0  3  0  0  0  0  0  0
  195.3890  175.8300  144.3150 N   0  0  0  0  0  0  0  0  0  0  0  0
  192.7300  176.5730  146.7000 C   0  0  0  0  0  3  0  0  0  0  0  0
  192.0780  176.3240  145.5590 C   0  0  0  0  0  0  0  0  0  0  0  0
  193.7130  175.1010  140.7420 Cl  0  0  0  0  0  0  0  0  0  0  0  0
  195.2260  175.5360  142.9910 C   0  0  0  0  0  3  0  0  0  0  0  0
  192.8410  175.7200  143.2260 N   0  0  0  0  0  2  0  0  0  0  0  0
  190.2240  173.4770  145.0970 C   0  0  0  0  0  0  0  0  0  0  0  0
  189.9470  173.4520  143.7140 N   0  0  0  0  0  0  0  0  0  0  0  0
  190.4640  172.3630  144.3530 C   0  0  1  0  0  3  0  0  0  0  0  0
  190.2460  174.1660  146.3430 N   0  0  0  0  0  2  0  0  0  0  0  0
  191.9330  172.2390  144.0860 C   0  0  0  0  0  0  0  0  0  0  0  0
  192.4720  171.8650  142.8750 C   0  0  0  0  0  3  0  0  0  0  0  0
  192.8830  172.4740  144.9590 O   0  0  0  0  0  0  0  0  0  0  0  0
  194.0460  172.2710  144.3870 C   0  0  0  0  0  3  0  0  0  0  0  0
  193.8420  171.8880  143.0720 C   0  0  0  0  0  3  0  0  0  0  0  0
  186.4830  177.1570  145.4960 C   0  0  0  0  0  2  0  0  0  0  0  0
  185.9170  178.5640  145.5840 C   0  0  0  0  0  2  0  0  0  0  0  0
  184.8090  177.9760  143.3980 N   0  0  0  0  0  2  0  0  0  0  0  0
  185.3720  178.9670  144.2590 C   0  0  0  0  0  0  0  0  0  0  0  0
  185.4590  180.1670  143.8870 O   0  0  0  0  0  0  0  0  0  0  0  0
  185.3400  178.0990  141.0250 C   0  0  0  0  0  1  0  0  0  0  0  0
  184.2720  178.2910  142.0830 C   0  0  0  0  0  2  0  0  0  0  0  0
  1  3  1  0  0  0  0
  3 20  1  6  0  0  0
  4  2  1  0  0  0  0
  4  6  1  0  0  0  0
  5  2  1  0  0  0  0
  5 13  1  1  0  0  0
  5  3  1  0  0  0  0
  6 26  1  6  0  0  0
  6  1  1  0  0  0  0
  7 10  1  0  0  0  0
  8  7  1  0  0  0  0
  8 13  2  0  0  0  0
  9 15  2  0  0  0  0
  9 16  1  0  0  0  0
 10 12  2  0  0  0  0
 11  7  2  0  0  0  0
 13 12  1  0  0  0  0
 14  9  1  0  0  0  0
 15 11  1  0  0  0  0
 16  8  1  0  0  0  0
 17 20  1  0  0  0  0
 18 19  1  0  0  0  0
 18 17  2  0  0  0  0
 19 21  1  6  0  0  0
 19 17  1  0  0  0  0
 21 23  1  0  0  0  0
 22 25  1  0  0  0  0
 22 21  2  0  0  0  0
 24 23  1  0  0  0  0
 25 24  2  0  0  0  0
 26 27  1  0  0  0  0
 28 29  1  0  0  0  0
 29 27  1  0  0  0  0
 30 29  2  0  0  0  0
 31 32  1  0  0  0  0
 32 28  1  0  0  0  0
M  END
>  <MODEL>
3

>  <REMARK>
 VINA RESULT:      -7.1      2.951      4.914
  Name = 
  7 active torsions:
  status: ('A' for Active; 'I' for Inactive)
    1  A    between atoms: N_4  and  C_18
    2  A    between atoms: C_7  and  C_23
    3  A    between atoms: C_7  and  C_30
    4  A    between atoms: C_10  and  N_26
    5  A    between atoms: C_16  and  C_21
    6  A    between atoms: C_17  and  C_22
    7  A    between atoms: C_23  and  C_25
                            x       y       z     vdW  Elec       q    Type
                         _______ _______ _______ _____ _____    ______ ____

>  <TORSDO>
F 7

$$$$
=
 OpenBabel11042416373D

 32 36  0  0  1  0  0  0  0  0999 V2000
  188.2500  176.0640  144.4660 C   0  0  0  0  0  2  0  0  0  0  0  0
  190.4240  177.8090  143.8080 O   0  0  0  0  0  0  0  0  0  0  0  0
  189.6090  175.9780  145.1630 C   0  0  2  0  0  3  0  0  0  0  0  0
  189.2920  177.7520  142.9770 C   0  0  0  0  0  2  0  0  0  0  0  0
  190.7020  176.4870  144.2070 C   0  0  2  0  0  3  0  0  0  0  0  0
  188.0540  177.4290  143.8150 C   0  0  1  0  0  3  0  0  0  0  0  0
  194.3260  176.2960  145.0330 C   0  0  0  0  0  0  0  0  0  0  0  0
  193.3050  176.2890  144.1340 C   0  0  0  0  0  0  0  0  0  0  0  0
  194.8190  176.0920  142.3610 C   0  0  0  0  0  0  0  0  0  0  0  0
  193.8040  176.4400  146.4180 C   0  0  0  0  0  2  0  0  0  0  0  0
  195.6160  176.2060  144.6270 N   0  0  0  0  0  0  0  0  0  0  0  0
  192.3160  176.5260  146.1500 C   0  0  0  0  0  3  0  0  0  0  0  0
  192.0580  176.4300  144.8410 C   0  0  0  0  0  0  0  0  0  0  0  0
  195.1510  175.9640  140.6470 Cl  0  0  0  0  0  0  0  0  0  0  0  0
  195.8810  176.1040  143.2900 C   0  0  0  0  0  3  0  0  0  0  0  0
  193.5300  176.1920  142.8000 N   0  0  0  0  0  0  0  0  0  0  0  0
  189.8640  173.5680  144.5500 C   0  0  0  0  0  0  0  0  0  0  0  0
  189.6820  173.1490  143.2150 N   0  0  0  0  0  0  0  0  0  0  0  0
  190.0410  172.2670  144.1910 C   0  0  1  0  0  3  0  0  0  0  0  0
  189.8700  174.5970  145.5350 N   0  0  0  0  0  2  0  0  0  0  0  0
  191.5050  171.9580  144.1140 C   0  0  0  0  0  0  0  0  0  0  0  0
  192.4820  172.8910  143.8480 C   0  0  0  0  0  3  0  0  0  0  0  0
  192.0400  170.7740  144.2960 O   0  0  0  0  0  0  0  0  0  0  0  0
  193.3410  170.8690  144.1600 C   0  0  0  0  0  3  0  0  0  0  0  0
  193.6710  172.1830  143.8780 C   0  0  0  0  0  3  0  0  0  0  0  0
  186.8160  177.3810  142.9380 C   0  0  0  0  0  2  0  0  0  0  0  0
  186.2790  178.7790  142.6850 C   0  0  0  0  0  2  0  0  0  0  0  0
  184.7880  178.3090  144.6610 N   0  0  0  0  0  2  0  0  0  0  0  0
  185.5250  179.2500  143.8780 C   0  0  0  0  0  0  0  0  0  0  0  0
  185.5000  180.4770  144.1570 O   0  0  0  0  0  0  0  0  0  0  0  0
  184.7820  178.3630  147.0950 C   0  0  0  0  0  1  0  0  0  0  0  0
  184.0140  178.6950  145.8310 C   0  0  0  0  0  2  0  0  0  0  0  0
  1  3  1  0  0  0  0
  2  5  1  0  0  0  0
  3 20  1  6  0  0  0
  4  2  1  0  0  0  0
  4  6  1  0  0  0  0
  5 13  1  1  0  0  0
  5  3  1  0  0  0  0
  6 26  1  6  0  0  0
  6  1  1  0  0  0  0
  7 10  1  0  0  0  0
  8 13  1  0  0  0  0
  8  7  2  0  0  0  0
  9 16  2  0  0  0  0
  9 15  1  0  0  0  0
 11  7  1  0  0  0  0
 12 10  1  0  0  0  0
 13 12  2  0  0  0  0
 14  9  1  0  0  0  0
 15 11  2  0  0  0  0
 16  8  1  0  0  0  0
 17 20  1  0  0  0  0
 18 19  1  0  0  0  0
 18 17  2  0  0  0  0
 19 21  1  6  0  0  0
 19 17  1  0  0  0  0
 21 23  1  0  0  0  0
 22 25  1  0  0  0  0
 22 21  2  0  0  0  0
 24 23  1  0  0  0  0
 25 24  2  0  0  0  0
 27 26  1  0  0  0  0
 27 29  1  0  0  0  0
 28 32  1  0  0  0  0
 29 30  2  0  0  0  0
 29 28  1  0  0  0  0
 32 31  1  0  0  0  0
M  END
>  <MODEL>
4

>  <REMARK>
 VINA RESULT:      -7.0      2.850      4.677
  Name = 
  7 active torsions:
  status: ('A' for Active; 'I' for Inactive)
    1  A    between atoms: N_4  and  C_18
    2  A    between atoms: C_7  and  C_23
    3  A    between atoms: C_7  and  C_30
    4  A    between atoms: C_10  and  N_26
    5  A    between atoms: C_16  and  C_21
    6  A    between atoms: C_17  and  C_22
    7  A    between atoms: C_23  and  C_25
                            x       y       z     vdW  Elec       q    Type
                         _______ _______ _______ _____ _____    ______ ____

>  <TORSDO>
F 7

$$$$
=
 OpenBabel11042416373D

 32 36  0  0  1  0  0  0  0  0999 V2000
  188.5470  176.4020  144.9840 C   0  0  0  0  0  2  0  0  0  0  0  0
  189.4580  174.1700  146.5310 O   0  0  0  0  0  0  0  0  0  0  0  0
  189.2410  175.1960  144.3510 C   0  0  2  0  0  3  0  0  0  0  0  0
  189.0620  175.3570  147.1740 C   0  0  0  0  0  2  0  0  0  0  0  0
  190.1810  174.5520  145.3850 C   0  0  2  0  0  3  0  0  0  0  0  0
  187.9730  176.0480  146.3530 C   0  0  1  0  0  3  0  0  0  0  0  0
  192.5820  171.9370  144.2660 C   0  0  0  0  0  0  0  0  0  0  0  0
  192.3090  173.1310  144.8590 C   0  0  0  0  0  0  0  0  0  0  0  0
  194.5750  173.4560  145.3370 C   0  0  0  0  0  0  0  0  0  0  0  0
  191.3320  171.2920  143.7840 C   0  0  0  0  0  3  0  0  0  0  0  0
  193.8520  171.4670  144.1950 N   0  0  0  0  0  0  0  0  0  0  0  0
  190.3040  172.3160  144.2160 C   0  0  0  0  0  3  0  0  0  0  0  0
  190.8870  173.3580  144.8190 C   0  0  0  0  0  0  0  0  0  0  0  0
  195.8660  174.4190  146.0240 Cl  0  0  0  0  0  0  0  0  0  0  0  0
  194.8630  172.2150  144.7290 C   0  0  0  0  0  3  0  0  0  0  0  0
  193.2860  173.9000  145.4000 N   0  0  0  0  0  2  0  0  0  0  0  0
  191.2040  176.3740  143.3460 C   0  0  0  0  0  0  0  0  0  0  0  0
  192.1550  177.0080  144.1740 N   0  0  0  0  0  0  0  0  0  0  0  0
  192.3000  176.9830  142.8180 C   0  0  1  0  0  3  0  0  0  0  0  0
  189.9970  175.6340  143.1890 N   0  0  0  0  0  2  0  0  0  0  0  0
  193.3060  175.9500  142.4110 C   0  0  0  0  0  0  0  0  0  0  0  0
  194.6650  176.0730  142.6030 C   0  0  0  0  0  3  0  0  0  0  0  0
  193.0260  174.8060  141.8350 O   0  0  0  0  0  0  0  0  0  0  0  0
  194.1430  174.1500  141.6250 C   0  0  0  0  0  3  0  0  0  0  0  0
  195.2050  174.9050  142.0930 C   0  0  0  0  0  3  0  0  0  0  0  0
  187.5190  177.3240  147.0390 C   0  0  0  0  0  2  0  0  0  0  0  0
  186.0260  177.2850  147.3170 C   0  0  0  0  0  2  0  0  0  0  0  0
  186.0380  178.9310  145.4090 N   0  0  0  0  0  2  0  0  0  0  0  0
  185.3030  178.0670  146.2790 C   0  0  0  0  0  0  0  0  0  0  0  0
  184.0470  178.0020  146.2090 O   0  0  0  0  0  0  0  0  0  0  0  0
  185.4720  179.0290  143.0430 C   0  0  0  0  0  1  0  0  0  0  0  0
  185.3990  179.7380  144.3810 C   0  0  0  0  0  2  0  0  0  0  0  0
  1  6  1  0  0  0  0
  2  4  1  0  0  0  0
  3 20  1  6  0  0  0
  3  1  1  0  0  0  0
  3  5  1  0  0  0  0
  5 13  1  6  0  0  0
  5  2  1  0  0  0  0
  6 26  1  1  0  0  0
  6  4  1  0  0  0  0
  7  8  1  0  0  0  0
  8 16  1  0  0  0  0
  9 16  1  0  0  0  0
  9 14  1  0  0  0  0
 10 12  2  0  0  0  0
 10  7  1  0  0  0  0
 11  7  2  0  0  0  0
 11 15  1  0  0  0  0
 12 13  1  0  0  0  0
 13  8  2  0  0  0  0
 15  9  2  0  0  0  0
 17 18  2  0  0  0  0
 19 21  1  1  0  0  0
 19 17  1  0  0  0  0
 19 18  1  0  0  0  0
 20 17  1  0  0  0  0
 21 22  2  0  0  0  0
 23 21  1  0  0  0  0
 24 23  1  0  0  0  0
 24 25  2  0  0  0  0
 25 22  1  0  0  0  0
 26 27  1  0  0  0  0
 28 29  1  0  0  0  0
 29 27  1  0  0  0  0
 30 29  2  0  0  0  0
 31 32  1  0  0  0  0
 32 28  1  0  0  0  0
M  END
>  <MODEL>
5

>  <REMARK>
 VINA RESULT:      -7.0      3.259      4.582
  Name = 
  7 active torsions:
  status: ('A' for Active; 'I' for Inactive)
    1  A    between atoms: N_4  and  C_18
    2  A    between atoms: C_7  and  C_23
    3  A    between atoms: C_7  and  C_30
    4  A    between atoms: C_10  and  N_26
    5  A    between atoms: C_16  and  C_21
    6  A    between atoms: C_17  and  C_22
    7  A    between atoms: C_23  and  C_25
                            x       y       z     vdW  Elec       q    Type
                         _______ _______ _______ _____ _____    ______ ____

>  <TORSDO>
F 7

$$$$
=
 OpenBabel11042416373D

 32 36  0  0  1  0  0  0  0  0999 V2000
  186.7840  178.4750  142.3230 C   0  0  0  0  0  2  0  0  0  0  0  0
  186.4010  175.7010  142.9220 O   0  0  0  0  0  0  0  0  0  0  0  0
  187.8000  177.4040  141.9240 C   0  0  2  0  0  3  0  0  0  0  0  0
  185.5800  176.6700  143.5250 C   0  0  0  0  0  2  0  0  0  0  0  0
  187.7080  176.2260  142.9100 C   0  0  2  0  0  3  0  0  0  0  0  0
  185.4120  177.8610  142.5810 C   0  0  1  0  0  3  0  0  0  0  0  0
  190.3490  173.6060  142.8020 C   0  0  0  0  0  0  0  0  0  0  0  0
  189.6600  174.5800  143.4570 C   0  0  0  0  0  0  0  0  0  0  0  0
  190.8840  174.1840  145.4110 C   0  0  0  0  0  0  0  0  0  0  0  0
  189.8590  173.4660  141.4050 C   0  0  0  0  0  3  0  0  0  0  0  0
  191.3170  172.8930  143.4290 N   0  0  0  0  0  0  0  0  0  0  0  0
  188.7680  174.5150  141.3830 C   0  0  0  0  0  3  0  0  0  0  0  0
  188.6800  175.1410  142.5620 C   0  0  0  0  0  0  0  0  0  0  0  0
  191.2350  174.5410  147.0880 Cl  0  0  0  0  0  0  0  0  0  0  0  0
  191.5970  173.1690  144.7380 C   0  0  0  0  0  3  0  0  0  0  0  0
  189.9090  174.8800  144.7560 N   0  0  0  0  0  2  0  0  0  0  0  0
  189.7990  178.2150  143.1860 C   0  0  0  0  0  0  0  0  0  0  0  0
  189.8060  178.1970  144.5970 N   0  0  0  0  0  0  0  0  0  0  0  0
  190.8950  178.6120  143.8880 C   0  0  1  0  0  3  0  0  0  0  0  0
  189.1360  177.9770  141.9490 N   0  0  0  0  0  2  0  0  0  0  0  0
  191.9400  177.5400  143.8450 C   0  0  0  0  0  0  0  0  0  0  0  0
  192.2580  176.8100  142.7200 C   0  0  0  0  0  3  0  0  0  0  0  0
  192.6850  177.1670  144.8590 O   0  0  0  0  0  0  0  0  0  0  0  0
  193.4920  176.2110  144.4650 C   0  0  0  0  0  3  0  0  0  0  0  0
  193.2640  175.9500  143.1240 C   0  0  0  0  0  3  0  0  0  0  0  0
  184.5130  178.9120  143.2060 C   0  0  0  0  0  2  0  0  0  0  0  0
  185.2790  179.7460  144.2180 C   0  0  0  0  0  2  0  0  0  0  0  0
  186.2820  178.8890  146.3650 N   0  0  0  0  0  2  0  0  0  0  0  0
  185.1210  179.1560  145.5750 C   0  0  0  0  0  0  0  0  0  0  0  0
  183.9740  178.8490  145.9940 O   0  0  0  0  0  0  0  0  0  0  0  0
  186.3160  176.7900  147.5990 C   0  0  0  0  0  1  0  0  0  0  0  0
  186.2090  178.2990  147.6930 C   0  0  0  0  0  2  0  0  0  0  0  0
  1  6  1  0  0  0  0
  2  4  1  0  0  0  0
  3 20  1  1  0  0  0
  3  1  1  0  0  0  0
  3  5  1  0  0  0  0
  5 13  1  6  0  0  0
  5  2  1  0  0  0  0
  6 26  1  1  0  0  0
  6  4  1  0  0  0  0
  7 11  2  0  0  0  0
  7  8  1  0  0  0  0
  8 16  1  0  0  0  0
  9 14  1  0  0  0  0
 10  7  1  0  0  0  0
 11 15  1  0  0  0  0
 12 10  2  0  0  0  0
 12 13  1  0  0  0  0
 13  8  2  0  0  0  0
 15  9  2  0  0  0  0
 16  9  1  0  0  0  0
 17 19  1  0  0  0  0
 17 18  2  0  0  0  0
 19 21  1  6  0  0  0
 19 18  1  0  0  0  0
 20 17  1  0  0  0  0
 21 23  1  0  0  0  0
 22 25  1  0  0  0  0
 22 21  2  0  0  0  0
 24 23  1  0  0  0  0
 25 24  2  0  0  0  0
 26 27  1  0  0  0  0
 27 29  1  0  0  0  0
 28 32  1  0  0  0  0
 29 30  2  0  0  0  0
 29 28  1  0  0  0  0
 31 32  1  0  0  0  0
M  END
>  <MODEL>
6

>  <REMARK>
 VINA RESULT:      -7.0      2.254      2.860
  Name = 
  7 active torsions:
  status: ('A' for Active; 'I' for Inactive)
    1  A    between atoms: N_4  and  C_18
    2  A    between atoms: C_7  and  C_23
    3  A    between atoms: C_7  and  C_30
    4  A    between atoms: C_10  and  N_26
    5  A    between atoms: C_16  and  C_21
    6  A    between atoms: C_17  and  C_22
    7  A    between atoms: C_23  and  C_25
                            x       y       z     vdW  Elec       q    Type
                         _______ _______ _______ _____ _____    ______ ____

>  <TORSDO>
F 7

$$$$
=
 OpenBabel11042416373D

 32 36  0  0  1  0  0  0  0  0999 V2000
  188.8610  175.2920  144.3720 C   0  0  0  0  0  2  0  0  0  0  0  0
  190.4780  177.1670  145.8110 O   0  0  0  0  0  0  0  0  0  0  0  0
  190.3080  174.9930  144.7630 C   0  0  2  0  0  3  0  0  0  0  0  0
  189.2530  177.5760  145.2550 C   0  0  0  0  0  2  0  0  0  0  0  0
  191.0870  176.3160  144.8690 C   0  0  2  0  0  3  0  0  0  0  0  0
  188.2760  176.4010  145.2410 C   0  0  1  0  0  3  0  0  0  0  0  0
  194.7670  175.7820  145.0500 C   0  0  0  0  0  0  0  0  0  0  0  0
  193.6210  175.9700  144.3400 C   0  0  0  0  0  0  0  0  0  0  0  0
  194.8190  175.9400  142.3300 C   0  0  0  0  0  0  0  0  0  0  0  0
  194.4800  175.7540  146.5090 C   0  0  0  0  0  2  0  0  0  0  0  0
  195.9650  175.6730  144.4270 N   0  0  0  0  0  0  0  0  0  0  0  0
  192.9810  175.9710  146.5050 C   0  0  0  0  0  3  0  0  0  0  0  0
  192.5160  176.0840  145.2560 C   0  0  0  0  0  0  0  0  0  0  0  0
  194.8690  176.0430  140.5840 Cl  0  0  0  0  0  0  0  0  0  0  0  0
  196.0100  175.7510  143.0630 C   0  0  0  0  0  3  0  0  0  0  0  0
  193.6270  176.0550  142.9860 N   0  0  0  0  0  0  0  0  0  0  0  0
  190.3130  172.8880  143.4150 C   0  0  0  0  0  0  0  0  0  0  0  0
  189.3090  171.9160  143.6070 N   0  0  0  0  0  0  0  0  0  0  0  0
  190.2770  171.7560  142.6590 C   0  0  1  0  0  3  0  0  0  0  0  0
  190.9100  174.1350  143.7540 N   0  0  0  0  0  2  0  0  0  0  0  0
  189.7430  172.0740  141.2960 C   0  0  0  0  0  0  0  0  0  0  0  0
  188.7330  172.9780  141.0500 C   0  0  0  0  0  3  0  0  0  0  0  0
  190.1670  171.5440  140.1740 O   0  0  0  0  0  0  0  0  0  0  0  0
  189.4820  172.0510  139.1780 C   0  0  0  0  0  3  0  0  0  0  0  0
  188.5670  172.9630  139.6760 C   0  0  0  0  0  3  0  0  0  0  0  0
  186.9390  176.8260  144.6600 C   0  0  0  0  0  2  0  0  0  0  0  0
  186.7530  178.3290  144.7770 C   0  0  0  0  0  2  0  0  0  0  0  0
  185.0920  177.8400  142.9470 N   0  0  0  0  0  2  0  0  0  0  0  0
  185.6570  178.7690  143.8740 C   0  0  0  0  0  0  0  0  0  0  0  0
  185.2720  179.9680  143.8960 O   0  0  0  0  0  0  0  0  0  0  0  0
  184.5760  178.2910  140.6100 C   0  0  0  0  0  1  0  0  0  0  0  0
  184.0290  178.2010  142.0210 C   0  0  0  0  0  2  0  0  0  0  0  0
  1  3  1  0  0  0  0
  1  6  1  0  0  0  0
  3 20  1  6  0  0  0
  3  5  1  0  0  0  0
  4  2  1  0  0  0  0
  5 13  1  1  0  0  0
  5  2  1  0  0  0  0
  6 26  1  6  0  0  0
  6  4  1  0  0  0  0
  7 10  1  0  0  0  0
  8  7  2  0  0  0  0
  8 13  1  0  0  0  0
  9 16  2  0  0  0  0
  9 15  1  0  0  0  0
 11  7  1  0  0  0  0
 12 10  1  0  0  0  0
 13 12  2  0  0  0  0
 14  9  1  0  0  0  0
 15 11  2  0  0  0  0
 16  8  1  0  0  0  0
 17 18  2  0  0  0  0
 17 20  1  0  0  0  0
 19 21  1  6  0  0  0
 19 17  1  0  0  0  0
 19 18  1  0  0  0  0
 22 21  2  0  0  0  0
 23 21  1  0  0  0  0
 24 25  2  0  0  0  0
 24 23  1  0  0  0  0
 25 22  1  0  0  0  0
 26 27  1  0  0  0  0
 28 29  1  0  0  0  0
 29 30  2  0  0  0  0
 29 27  1  0  0  0  0
 31 32  1  0  0  0  0
 32 28  1  0  0  0  0
M  END
>  <MODEL>
7

>  <REMARK>
 VINA RESULT:      -6.9      2.883      5.601
  Name = 
  7 active torsions:
  status: ('A' for Active; 'I' for Inactive)
    1  A    between atoms: N_4  and  C_18
    2  A    between atoms: C_7  and  C_23
    3  A    between atoms: C_7  and  C_30
    4  A    between atoms: C_10  and  N_26
    5  A    between atoms: C_16  and  C_21
    6  A    between atoms: C_17  and  C_22
    7  A    between atoms: C_23  and  C_25
                            x       y       z     vdW  Elec       q    Type
                         _______ _______ _______ _____ _____    ______ ____

>  <TORSDO>
F 7

$$$$
=
 OpenBabel11042416373D

 32 36  0  0  1  0  0  0  0  0999 V2000
  189.8890  176.9280  145.2760 C   0  0  0  0  0  2  0  0  0  0  0  0
  189.5220  174.1310  145.7730 O   0  0  0  0  0  0  0  0  0  0  0  0
  190.6360  175.8520  144.4870 C   0  0  2  0  0  3  0  0  0  0  0  0
  189.0180  175.0790  146.6810 C   0  0  0  0  0  2  0  0  0  0  0  0
  190.7870  174.5960  145.3630 C   0  0  2  0  0  3  0  0  0  0  0  0
  188.6360  176.3560  145.9320 C   0  0  1  0  0  3  0  0  0  0  0  0
  191.9930  171.9540  143.0340 C   0  0  0  0  0  0  0  0  0  0  0  0
  191.0800  172.8940  143.4040 C   0  0  0  0  0  0  0  0  0  0  0  0
  189.8050  172.4620  141.4900 C   0  0  0  0  0  0  0  0  0  0  0  0
  193.1010  171.8810  144.0230 C   0  0  0  0  0  3  0  0  0  0  0  0
  191.8430  171.2490  141.8860 N   0  0  0  0  0  0  0  0  0  0  0  0
  192.6670  172.9460  145.0090 C   0  0  0  0  0  3  0  0  0  0  0  0
  191.5100  173.5020  144.6370 C   0  0  0  0  0  0  0  0  0  0  0  0
  188.4070  172.7800  140.4870 Cl  0  0  0  0  0  0  0  0  0  0  0  0
  190.7520  171.4920  141.1000 C   0  0  0  0  0  3  0  0  0  0  0  0
  189.9860  173.1630  142.6480 N   0  0  0  0  0  2  0  0  0  0  0  0
  192.9150  176.6790  145.0970 C   0  0  0  0  0  0  0  0  0  0  0  0
  193.2920  176.7930  146.4520 N   0  0  0  0  0  0  0  0  0  0  0  0
  194.1650  177.0860  145.4460 C   0  0  1  0  0  3  0  0  0  0  0  0
  191.9440  176.3590  144.1050 N   0  0  0  0  0  2  0  0  0  0  0  0
  195.1380  175.9640  145.2450 C   0  0  0  0  0  0  0  0  0  0  0  0
  195.3200  174.9270  146.1320 C   0  0  0  0  0  3  0  0  0  0  0  0
  195.9270  175.8230  144.2060 O   0  0  0  0  0  0  0  0  0  0  0  0
  196.6390  174.7320  144.3570 C   0  0  0  0  0  3  0  0  0  0  0  0
  196.2930  174.1290  145.5550 C   0  0  0  0  0  3  0  0  0  0  0  0
  188.0710  177.3870  146.8930 C   0  0  0  0  0  2  0  0  0  0  0  0
  186.6150  177.0920  147.2070 C   0  0  0  0  0  2  0  0  0  0  0  0
  186.2990  178.7890  145.3710 N   0  0  0  0  0  2  0  0  0  0  0  0
  185.7400  177.7900  146.2270 C   0  0  0  0  0  0  0  0  0  0  0  0
  184.5080  177.5340  146.1970 O   0  0  0  0  0  0  0  0  0  0  0  0
  185.8100  179.0350  142.9980 C   0  0  0  0  0  1  0  0  0  0  0  0
  185.5040  179.5250  144.4000 C   0  0  0  0  0  2  0  0  0  0  0  0
  1  6  1  0  0  0  0
  2  4  1  0  0  0  0
  3 20  1  1  0  0  0
  3  1  1  0  0  0  0
  3  5  1  0  0  0  0
  5 13  1  6  0  0  0
  5  2  1  0  0  0  0
  6  4  1  0  0  0  0
  6 26  1  1  0  0  0
  7  8  1  0  0  0  0
  7 10  1  0  0  0  0
  8 13  2  0  0  0  0
  9 16  1  0  0  0  0
 10 12  2  0  0  0  0
 11  7  2  0  0  0  0
 13 12  1  0  0  0  0
 14  9  1  0  0  0  0
 15  9  2  0  0  0  0
 15 11  1  0  0  0  0
 16  8  1  0  0  0  0
 17 19  1  0  0  0  0
 17 18  2  0  0  0  0
 19 21  1  6  0  0  0
 19 18  1  0  0  0  0
 20 17  1  0  0  0  0
 21 22  2  0  0  0  0
 23 24  1  0  0  0  0
 23 21  1  0  0  0  0
 24 25  2  0  0  0  0
 25 22  1  0  0  0  0
 26 27  1  0  0  0  0
 28 29  1  0  0  0  0
 29 27  1  0  0  0  0
 30 29  2  0  0  0  0
 31 32  1  0  0  0  0
 32 28  1  0  0  0  0
M  END
>  <MODEL>
8

>  <REMARK>
 VINA RESULT:      -6.9      2.341      3.508
  Name = 
  7 active torsions:
  status: ('A' for Active; 'I' for Inactive)
    1  A    between atoms: N_4  and  C_18
    2  A    between atoms: C_7  and  C_23
    3  A    between atoms: C_7  and  C_30
    4  A    between atoms: C_10  and  N_26
    5  A    between atoms: C_16  and  C_21
    6  A    between atoms: C_17  and  C_22
    7  A    between atoms: C_23  and  C_25
                            x       y       z     vdW  Elec       q    Type
                         _______ _______ _______ _____ _____    ______ ____

>  <TORSDO>
F 7

$$$$
=
 OpenBabel11042416373D

 32 36  0  0  1  0  0  0  0  0999 V2000
  190.1640  177.4570  145.4180 C   0  0  0  0  0  2  0  0  0  0  0  0
  189.4900  174.8660  144.4000 O   0  0  0  0  0  0  0  0  0  0  0  0
  190.9220  176.8100  144.2570 C   0  0  2  0  0  3  0  0  0  0  0  0
  188.9430  175.3070  145.6180 C   0  0  0  0  0  2  0  0  0  0  0  0
  190.8360  175.2790  144.3870 C   0  0  2  0  0  3  0  0  0  0  0  0
  188.7850  176.8270  145.5900 C   0  0  1  0  0  3  0  0  0  0  0  0
  192.9670  173.1540  142.1960 C   0  0  0  0  0  0  0  0  0  0  0  0
  192.5430  173.5510  143.4270 C   0  0  0  0  0  0  0  0  0  0  0  0
  193.9340  171.9770  144.4550 C   0  0  0  0  0  0  0  0  0  0  0  0
  192.2780  173.9280  141.1290 C   0  0  0  0  0  3  0  0  0  0  0  0
  193.8780  172.1600  142.0580 N   0  0  0  0  0  0  0  0  0  0  0  0
  191.3830  174.8210  141.9630 C   0  0  0  0  0  3  0  0  0  0  0  0
  191.5590  174.5910  143.2690 C   0  0  0  0  0  0  0  0  0  0  0  0
  194.5620  171.2090  145.8970 Cl  0  0  0  0  0  0  0  0  0  0  0  0
  194.3730  171.5580  143.1810 C   0  0  0  0  0  3  0  0  0  0  0  0
  193.0100  172.9760  144.5630 N   0  0  0  0  0  2  0  0  0  0  0  0
  193.1810  176.7910  145.3260 C   0  0  0  0  0  0  0  0  0  0  0  0
  193.4030  176.0580  146.5110 N   0  0  0  0  0  0  0  0  0  0  0  0
  194.4150  176.7350  145.8960 C   0  0  1  0  0  3  0  0  0  0  0  0
  192.3100  177.2400  144.2930 N   0  0  0  0  0  2  0  0  0  0  0  0
  195.2890  175.7950  145.1230 C   0  0  0  0  0  0  0  0  0  0  0  0
  195.4220  175.8100  143.7530 C   0  0  0  0  0  3  0  0  0  0  0  0
  196.0360  174.8520  145.6470 O   0  0  0  0  0  0  0  0  0  0  0  0
  196.6680  174.2260  144.6830 C   0  0  0  0  0  3  0  0  0  0  0  0
  196.3170  174.7930  143.4690 C   0  0  0  0  0  3  0  0  0  0  0  0
  188.1780  177.3240  146.8900 C   0  0  0  0  0  2  0  0  0  0  0  0
  186.7660  176.7940  147.0640 C   0  0  0  0  0  2  0  0  0  0  0  0
  185.3770  177.6960  145.1650 N   0  0  0  0  0  2  0  0  0  0  0  0
  185.7910  177.7820  146.5310 C   0  0  0  0  0  0  0  0  0  0  0  0
  185.3790  178.7150  147.2690 O   0  0  0  0  0  0  0  0  0  0  0  0
  185.1930  179.7910  143.9360 C   0  0  0  0  0  1  0  0  0  0  0  0
  184.4410  178.6360  144.5680 C   0  0  0  0  0  2  0  0  0  0  0  0
  1  6  1  0  0  0  0
  2  4  1  0  0  0  0
  3 20  1  1  0  0  0
  3  5  1  0  0  0  0
  3  1  1  0  0  0  0
  5 13  1  6  0  0  0
  5  2  1  0  0  0  0
  6  4  1  0  0  0  0
  6 26  1  1  0  0  0
  7  8  1  0  0  0  0
  8 16  1  0  0  0  0
  9 16  1  0  0  0  0
  9 14  1  0  0  0  0
 10 12  2  0  0  0  0
 10  7  1  0  0  0  0
 11  7  2  0  0  0  0
 11 15  1  0  0  0  0
 12 13  1  0  0  0  0
 13  8  2  0  0  0  0
 15  9  2  0  0  0  0
 17 19  1  0  0  0  0
 17 18  2  0  0  0  0
 19 21  1  6  0  0  0
 19 18  1  0  0  0  0
 20 17  1  0  0  0  0
 21 23  1  0  0  0  0
 22 21  2  0  0  0  0
 24 23  1  0  0  0  0
 25 22  1  0  0  0  0
 25 24  2  0  0  0  0
 26 27  1  0  0  0  0
 28 29  1  0  0  0  0
 29 27  1  0  0  0  0
 29 30  2  0  0  0  0
 31 32  1  0  0  0  0
 32 28  1  0  0  0  0
M  END
>  <MODEL>
9

>  <REMARK>
 VINA RESULT:      -6.8      3.241      4.405
  Name = 
  7 active torsions:
  status: ('A' for Active; 'I' for Inactive)
    1  A    between atoms: N_4  and  C_18
    2  A    between atoms: C_7  and  C_23
    3  A    between atoms: C_7  and  C_30
    4  A    between atoms: C_10  and  N_26
    5  A    between atoms: C_16  and  C_21
    6  A    between atoms: C_17  and  C_22
    7  A    between atoms: C_23  and  C_25
                            x       y       z     vdW  Elec       q    Type
                         _______ _______ _______ _____ _____    ______ ____

>  <TORSDO>
F 7

$$$$
