=
 OpenBabel11042415183D

 45 52  0  0  1  0  0  0  0  0999 V2000
  192.9230  172.4540  142.5680 C   0  0  2  0  0  3  0  0  0  0  0  0
  189.6250  176.4790  142.9400 C   0  0  1  0  0  3  0  0  0  0  0  0
  191.7490  173.2920  141.9700 C   0  0  1  0  0  3  0  0  0  0  0  0
  194.2170  174.1250  144.7100 C   0  0  1  0  0  3  0  0  0  0  0  0
  190.4210  178.0880  144.6860 C   0  0  0  0  0  2  0  0  0  0  0  0
  191.2300  174.4380  142.5700 C   0  0  0  0  0  0  0  0  0  0  0  0
  189.6450  177.1290  145.3550 O   0  0  0  0  0  0  0  0  0  0  0  0
  195.3600  172.3420  143.2760 C   0  0  0  0  0  2  0  0  0  0  0  0
  188.9130  174.6690  141.4660 C   0  0  2  0  0  3  0  0  0  0  0  0
  190.4150  176.6820  144.2310 C   0  0  1  0  0  0  0  0  0  0  0  0
  192.1040  174.9360  143.6840 C   0  0  2  0  0  3  0  0  0  0  0  0
  196.3610  172.3780  144.2340 C   0  0  0  0  0  2  0  0  0  0  0  0
  192.6780  176.3630  145.7700 C   0  0  0  0  0  3  0  0  0  0  0  0
  196.5000  173.0180  145.6690 C   0  0  0  0  0  2  0  0  0  0  0  0
  194.0800  173.3170  143.2360 C   0  0  2  0  0  0  0  0  0  0  0  0
  191.7110  173.0400  140.5140 C   0  0  0  0  0  2  0  0  0  0  0  0
  196.0340  174.4050  146.1710 C   0  0  0  0  0  2  0  0  0  0  0  0
  189.8890  175.2160  142.2490 C   0  0  0  0  0  0  0  0  0  0  0  0
  193.0020  173.7100  144.2420 C   0  0  1  0  0  3  0  0  0  0  0  0
  187.4960  174.7680  141.7490 O   0  0  0  0  0  1  0  0  0  0  0  0
  189.2220  173.7290  140.4620 C   0  0  0  0  0  2  0  0  0  0  0  0
  194.6870  174.6900  145.8160 C   0  0  0  0  0  0  0  0  0  0  0  0
  190.2790  172.9860  140.0870 C   0  0  2  0  0  3  0  0  0  0  0  0
  191.7660  175.9920  144.4960 C   0  0  0  0  0  0  0  0  0  0  0  0
  193.1900  171.2130  141.9630 F   0  0  0  0  0  0  0  0  0  0  0  0
  193.8620  175.8110  146.3360 C   0  0  0  0  0  3  0  0  0  0  0  0
  192.3550  168.1670  138.6170 O   0  0  0  0  0  0  0  0  0  0  0  0
  191.7710  170.3930  137.9190 N   0  0  0  0  0  2  0  0  0  0  0  0
  189.9250  171.7420  137.0700 O   0  0  0  0  0  0  0  0  0  0  0  0
  191.6930  168.8870  137.8050 C   0  0  0  0  0  0  0  0  0  0  0  0
  190.5680  171.3690  138.0080 C   0  0  0  0  0  0  0  0  0  0  0  0
  190.0900  171.8150  139.2960 N   0  0  0  0  0  2  0  0  0  0  0  0
  191.2460  168.2150  136.5300 C   0  0  0  0  0  2  0  0  0  0  0  0
  192.1920  168.4790  135.3610 C   0  0  0  0  0  2  0  0  0  0  0  0
  191.5060  169.5340  134.5130 C   0  0  0  0  0  1  0  0  0  0  0  0
  188.2480  176.8250  143.0390 O   0  0  0  0  0  0  0  0  0  0  0  0
  188.2160  177.9980  142.2810 C   0  0  0  0  0  2  0  0  0  0  0  0
  186.7960  178.4990  142.2060 C   0  0  0  0  0  2  0  0  0  0  0  0
  186.5290  178.5610  144.8140 N   0  0  0  0  0  2  0  0  0  0  0  0
  186.0050  178.2550  143.4720 C   0  0  0  0  0  0  0  0  0  0  0  0
  184.9520  177.6100  143.3620 O   0  0  0  0  0  0  0  0  0  0  0  0
  184.6500  178.8900  146.3140 O   0  0  0  0  0  0  0  0  0  0  0  0
  185.8380  178.2510  146.0960 C   0  0  0  0  0  0  0  0  0  0  0  0
  185.7520  179.3590  146.9200 O   0  0  0  0  0  0  0  0  0  0  0  0
  186.0620  176.9750  146.9040 C   0  0  0  0  0  1  0  0  0  0  0  0
  1 25  1  6  0  0  0
  1 15  1  0  0  0  0
  2 36  1  1  0  0  0
  2 10  1  0  0  0  0
  3 16  1  6  0  0  0
  3  1  1  0  0  0  0
  3  6  1  0  0  0  0
  4 22  1  1  0  0  0
  5  7  1  0  0  0  0
  8 12  1  0  0  0  0
  9 20  1  1  0  0  0
  9 18  1  0  0  0  0
 10 24  1  0  0  0  0
 10  5  1  6  0  0  0
 10  7  1  0  0  0  0
 11  6  1  1  0  0  0
 11 19  1  0  0  0  0
 11 24  1  0  0  0  0
 12 14  1  0  0  0  0
 13 26  1  0  0  0  0
 14 17  1  0  0  0  0
 15  8  1  1  0  0  0
 15 19  1  0  0  0  0
 15  4  1  0  0  0  0
 18  6  2  0  0  0  0
 18  2  1  0  0  0  0
 19  4  1  0  0  0  0
 21  9  1  0  0  0  0
 22 17  1  0  0  0  0
 22 26  2  0  0  0  0
 23 21  1  0  0  0  0
 23 16  1  0  0  0  0
 24 13  2  0  0  0  0
 28 31  1  0  0  0  0
 29 31  2  0  0  0  0
 30 28  1  0  0  0  0
 30 27  2  0  0  0  0
 31 32  1  0  0  0  0
 32 23  1  0  0  0  0
 33 30  1  0  0  0  0
 34 33  1  0  0  0  0
 35 34  1  0  0  0  0
 37 36  1  0  0  0  0
 38 37  1  0  0  0  0
 38 40  1  0  0  0  0
 39 43  1  0  0  0  0
 40 39  1  0  0  0  0
 41 40  2  0  0  0  0
 42 44  1  0  0  0  0
 43 42  1  0  0  0  0
 43 45  1  0  0  0  0
 43 44  1  0  0  0  0
M  END
>  <MODEL>
1

>  <REMARK>
 VINA RESULT:      -7.8      0.000      0.000
  Name = 
  8 active torsions:
  status: ('A' for Active; 'I' for Inactive)
    1  A    between atoms: C_2  and  O_5
    2  A    between atoms: O_5  and  C_23
    3  A    between atoms: C_10  and  N_11
    4  A    between atoms: C_12  and  C_27
    5  A    between atoms: C_12  and  C_40
    6  A    between atoms: C_15  and  C_36
    7  A    between atoms: C_23  and  C_36
    8  A    between atoms: C_37  and  N_42
                            x       y       z     vdW  Elec       q    Type
                         _______ _______ _______ _____ _____    ______ ____

>  <TORSDO>
F 8

$$$$
=
 OpenBabel11042415183D

 45 52  0  0  1  0  0  0  0  0999 V2000
  188.9940  174.1400  140.6870 C   0  0  2  0  0  3  0  0  0  0  0  0
  192.9150  173.4620  144.0600 C   0  0  1  0  0  3  0  0  0  0  0  0
  189.7830  174.6170  141.9470 C   0  0  1  0  0  3  0  0  0  0  0  0
  190.7390  172.1710  139.2270 C   0  0  1  0  0  3  0  0  0  0  0  0
  194.5760  171.8330  143.1350 C   0  0  0  0  0  2  0  0  0  0  0  0
  190.9210  173.9790  142.4360 C   0  0  0  0  0  0  0  0  0  0  0  0
  193.6030  171.0720  143.8020 O   0  0  0  0  0  0  0  0  0  0  0  0
  188.9710  173.6990  138.1860 C   0  0  0  0  0  2  0  0  0  0  0  0
  191.0600  174.8290  144.8650 C   0  0  2  0  0  3  0  0  0  0  0  0
  193.1640  172.2670  143.1440 C   0  0  1  0  0  0  0  0  0  0  0  0
  191.4650  172.9720  141.4650 C   0  0  2  0  0  3  0  0  0  0  0  0
  189.0550  172.8550  137.0890 C   0  0  0  0  0  2  0  0  0  0  0  0
  192.9420  170.9780  140.7180 C   0  0  0  0  0  3  0  0  0  0  0  0
  189.7210  171.4520  136.8180 C   0  0  0  0  0  2  0  0  0  0  0  0
  189.9040  173.6120  139.4950 C   0  0  2  0  0  0  0  0  0  0  0  0
  189.5070  176.0580  142.1330 C   0  0  0  0  0  2  0  0  0  0  0  0
  191.1000  170.9190  137.2740 C   0  0  0  0  0  2  0  0  0  0  0  0
  191.6500  174.1630  143.8290 C   0  0  0  0  0  0  0  0  0  0  0  0
  190.2780  172.5000  140.4710 C   0  0  1  0  0  3  0  0  0  0  0  0
  191.1180  174.3950  146.2460 O   0  0  0  0  0  1  0  0  0  0  0  0
  190.1150  175.8490  144.6350 C   0  0  0  0  0  2  0  0  0  0  0  0
  191.3360  171.1300  138.6610 C   0  0  0  0  0  0  0  0  0  0  0  0
  189.4010  176.3270  143.6000 C   0  0  2  0  0  3  0  0  0  0  0  0
  192.5220  172.1410  141.7490 C   0  0  0  0  0  0  0  0  0  0  0  0
  187.7530  174.7560  140.4460 F   0  0  0  0  0  0  0  0  0  0  0  0
  192.4380  170.5370  139.4620 C   0  0  0  0  0  3  0  0  0  0  0  0
  186.2180  178.6630  147.3570 O   0  0  0  0  0  0  0  0  0  0  0  0
  186.4290  176.9190  145.7140 N   0  0  0  0  0  2  0  0  0  0  0  0
  186.1300  176.4380  143.3420 O   0  0  0  0  0  0  0  0  0  0  0  0
  185.7360  178.1240  146.3120 C   0  0  0  0  0  0  0  0  0  0  0  0
  186.8640  176.7530  144.2340 C   0  0  0  0  0  0  0  0  0  0  0  0
  188.2120  177.0790  143.8330 N   0  0  0  0  0  2  0  0  0  0  0  0
  184.2900  178.4320  146.0100 C   0  0  0  0  0  2  0  0  0  0  0  0
  184.0800  178.9340  144.5840 C   0  0  0  0  0  2  0  0  0  0  0  0
  185.1760  179.9560  144.3460 C   0  0  0  0  0  1  0  0  0  0  0  0
  193.2190  173.2190  145.4300 O   0  0  0  0  0  0  0  0  0  0  0  0
  194.1100  174.2620  145.6910 C   0  0  0  0  0  2  0  0  0  0  0  0
  195.5070  173.7030  145.7910 C   0  0  0  0  0  2  0  0  0  0  0  0
  196.1350  175.1440  143.6930 N   0  0  0  0  0  2  0  0  0  0  0  0
  196.5100  174.4320  144.9260 C   0  0  0  0  0  0  0  0  0  0  0  0
  197.7100  174.2600  145.1890 O   0  0  0  0  0  0  0  0  0  0  0  0
  197.5580  177.0230  143.1160 O   0  0  0  0  0  0  0  0  0  0  0  0
  197.0900  175.7910  142.7510 C   0  0  0  0  0  0  0  0  0  0  0  0
  196.5730  176.9530  142.2060 O   0  0  0  0  0  0  0  0  0  0  0  0
  197.9410  175.0330  141.7360 C   0  0  0  0  0  1  0  0  0  0  0  0
  1 25  1  6  0  0  0
  1  3  1  0  0  0  0
  2 36  1  1  0  0  0
  3 16  1  6  0  0  0
  3  6  1  0  0  0  0
  4 22  1  6  0  0  0
  4 15  1  0  0  0  0
  4 19  1  0  0  0  0
  5  7  1  0  0  0  0
  6 18  2  0  0  0  0
  9 20  1  1  0  0  0
 10  5  1  6  0  0  0
 10  7  1  0  0  0  0
 10  2  1  0  0  0  0
 11 24  1  1  0  0  0
 11  6  1  0  0  0  0
 12  8  1  0  0  0  0
 13 24  2  0  0  0  0
 14 12  1  0  0  0  0
 14 17  1  0  0  0  0
 15  8  1  6  0  0  0
 15 19  1  0  0  0  0
 15  1  1  0  0  0  0
 16 23  1  0  0  0  0
 17 22  1  0  0  0  0
 18  2  1  0  0  0  0
 18  9  1  0  0  0  0
 19 11  1  0  0  0  0
 21  9  1  0  0  0  0
 22 26  2  0  0  0  0
 23 32  1  0  0  0  0
 23 21  1  0  0  0  0
 24 10  1  0  0  0  0
 26 13  1  0  0  0  0
 28 30  1  0  0  0  0
 29 31  2  0  0  0  0
 30 27  2  0  0  0  0
 31 28  1  0  0  0  0
 32 31  1  0  0  0  0
 33 30  1  0  0  0  0
 34 33  1  0  0  0  0
 35 34  1  0  0  0  0
 36 37  1  0  0  0  0
 37 38  1  0  0  0  0
 39 40  1  0  0  0  0
 40 41  2  0  0  0  0
 40 38  1  0  0  0  0
 43 42  1  0  0  0  0
 43 39  1  0  0  0  0
 44 43  1  0  0  0  0
 44 42  1  0  0  0  0
 45 43  1  0  0  0  0
M  END
>  <MODEL>
2

>  <REMARK>
 VINA RESULT:      -7.8      3.287      9.289
  Name = 
  8 active torsions:
  status: ('A' for Active; 'I' for Inactive)
    1  A    between atoms: C_2  and  O_5
    2  A    between atoms: O_5  and  C_23
    3  A    between atoms: C_10  and  N_11
    4  A    between atoms: C_12  and  C_27
    5  A    between atoms: C_12  and  C_40
    6  A    between atoms: C_15  and  C_36
    7  A    between atoms: C_23  and  C_36
    8  A    between atoms: C_37  and  N_42
                            x       y       z     vdW  Elec       q    Type
                         _______ _______ _______ _____ _____    ______ ____

>  <TORSDO>
F 8

$$$$
=
 OpenBabel11042415183D

 45 52  0  0  1  0  0  0  0  0999 V2000
  187.5340  176.3590  141.9710 C   0  0  2  0  0  3  0  0  0  0  0  0
  190.9290  174.4790  145.4570 C   0  0  1  0  0  3  0  0  0  0  0  0
  188.6460  175.3290  142.3470 C   0  0  1  0  0  3  0  0  0  0  0  0
  186.5330  177.5750  144.5350 C   0  0  1  0  0  3  0  0  0  0  0  0
  190.3750  175.3300  147.7460 C   0  0  0  0  0  2  0  0  0  0  0  0
  189.2530  175.2670  143.6000 C   0  0  0  0  0  0  0  0  0  0  0  0
  191.2060  176.2940  147.1550 O   0  0  0  0  0  0  0  0  0  0  0  0
  185.1950  177.2650  142.3770 C   0  0  0  0  0  2  0  0  0  0  0  0
  191.4280  173.9700  143.1230 C   0  0  2  0  0  3  0  0  0  0  0  0
  190.3010  175.5910  146.2940 C   0  0  1  0  0  0  0  0  0  0  0  0
  188.5260  176.0930  144.6200 C   0  0  2  0  0  3  0  0  0  0  0  0
  184.3150  178.1830  142.9270 C   0  0  0  0  0  2  0  0  0  0  0  0
  188.2290  177.3070  146.8910 C   0  0  0  0  0  3  0  0  0  0  0  0
  184.3580  179.1540  144.1690 C   0  0  0  0  0  2  0  0  0  0  0  0
  186.4800  176.6490  143.1260 C   0  0  2  0  0  0  0  0  0  0  0  0
  188.5080  174.1670  141.4450 C   0  0  0  0  0  2  0  0  0  0  0  0
  184.9070  178.8980  145.5930 C   0  0  0  0  0  2  0  0  0  0  0  0
  190.5610  174.4920  144.0400 C   0  0  0  0  0  0  0  0  0  0  0  0
  187.6770  177.2450  143.8640 C   0  0  1  0  0  3  0  0  0  0  0  0
  192.8700  174.0370  143.2400 O   0  0  0  0  0  1  0  0  0  0  0  0
  190.9850  173.5610  141.8490 C   0  0  0  0  0  2  0  0  0  0  0  0
  186.2080  178.3240  145.5810 C   0  0  0  0  0  0  0  0  0  0  0  0
  189.8780  173.6810  141.0960 C   0  0  0  0  0  0  0  0  0  0  0  0
  188.9770  176.2770  145.9060 C   0  0  0  0  0  0  0  0  0  0  0  0
  187.1740  176.4370  140.6140 F   0  0  0  0  0  0  0  0  0  0  0  0
  187.1100  178.1750  146.7540 C   0  0  0  0  0  3  0  0  0  0  0  0
  189.6920  170.1430  136.9550 O   0  0  0  0  0  0  0  0  0  0  0  0
  191.0470  171.6720  138.2240 N   0  0  0  0  0  2  0  0  0  0  0  0
  191.6990  174.0170  138.3850 O   0  0  0  0  0  0  0  0  0  0  0  0
  190.4490  171.1630  136.9300 C   0  0  0  0  0  0  0  0  0  0  0  0
  190.9840  173.1300  138.7520 C   0  0  0  0  0  0  0  0  0  0  0  0
  189.9490  173.5200  139.6800 N   0  0  0  0  0  0  0  0  0  0  0  0
  191.0510  171.5140  135.5920 C   0  0  0  0  0  2  0  0  0  0  0  0
  189.9940  171.7980  134.5270 C   0  0  0  0  0  2  0  0  0  0  0  0
  189.6930  173.2810  134.6370 C   0  0  0  0  0  1  0  0  0  0  0  0
  192.3150  174.2730  145.7090 O   0  0  0  0  0  0  0  0  0  0  0  0
  192.8020  175.5760  145.5870 C   0  0  0  0  0  2  0  0  0  0  0  0
  194.1290  175.6750  146.2950 C   0  0  0  0  0  2  0  0  0  0  0  0
  195.4480  176.0550  144.0610 N   0  0  0  0  0  2  0  0  0  0  0  0
  195.3150  175.4310  145.3880 C   0  0  0  0  0  0  0  0  0  0  0  0
  196.1020  174.5320  145.7200 O   0  0  0  0  0  0  0  0  0  0  0  0
  197.6180  176.6120  143.1280 O   0  0  0  0  0  0  0  0  0  0  0  0
  196.5380  175.7740  143.0860 C   0  0  0  0  0  0  0  0  0  0  0  0
  196.6940  176.8020  142.1730 O   0  0  0  0  0  0  0  0  0  0  0  0
  196.7800  174.4140  142.4370 C   0  0  0  0  0  1  0  0  0  0  0  0
  1 25  1  6  0  0  0
  1  3  1  0  0  0  0
  1 15  1  0  0  0  0
  2 36  1  6  0  0  0
  2 10  1  0  0  0  0
  3 16  1  1  0  0  0
  3  6  1  0  0  0  0
  4 22  1  6  0  0  0
  6 18  2  0  0  0  0
  7  5  1  0  0  0  0
  8 12  1  0  0  0  0
  9 20  1  6  0  0  0
  9 18  1  0  0  0  0
 10  7  1  0  0  0  0
 10  5  1  1  0  0  0
 11  6  1  6  0  0  0
 11 24  1  0  0  0  0
 12 14  1  0  0  0  0
 14 17  1  0  0  0  0
 15  8  1  6  0  0  0
 15 19  1  0  0  0  0
 15  4  1  0  0  0  0
 18  2  1  0  0  0  0
 19  4  1  0  0  0  0
 19 11  1  0  0  0  0
 21  9  1  0  0  0  0
 22 17  1  0  0  0  0
 22 26  2  0  0  0  0
 23 16  1  0  0  0  0
 23 21  1  0  0  0  0
 24 10  1  0  0  0  0
 24 13  2  0  0  0  0
 26 13  1  0  0  0  0
 28 31  1  0  0  0  0
 29 31  2  0  0  0  0
 30 27  2  0  0  0  0
 30 28  1  0  0  0  0
 31 32  1  0  0  0  0
 32 23  2  0  0  0  0
 33 30  1  0  0  0  0
 34 35  1  0  0  0  0
 34 33  1  0  0  0  0
 37 36  1  0  0  0  0
 37 38  1  0  0  0  0
 39 40  1  0  0  0  0
 40 41  2  0  0  0  0
 40 38  1  0  0  0  0
 43 42  1  0  0  0  0
 43 39  1  0  0  0  0
 44 43  1  0  0  0  0
 44 42  1  0  0  0  0
 45 43  1  0  0  0  0
M  END
>  <MODEL>
3

>  <REMARK>
 VINA RESULT:      -7.7      3.317      7.302
  Name = 
  8 active torsions:
  status: ('A' for Active; 'I' for Inactive)
    1  A    between atoms: C_2  and  O_5
    2  A    between atoms: O_5  and  C_23
    3  A    between atoms: C_10  and  N_11
    4  A    between atoms: C_12  and  C_27
    5  A    between atoms: C_12  and  C_40
    6  A    between atoms: C_15  and  C_36
    7  A    between atoms: C_23  and  C_36
    8  A    between atoms: C_37  and  N_42
                            x       y       z     vdW  Elec       q    Type
                         _______ _______ _______ _____ _____    ______ ____

>  <TORSDO>
F 8

$$$$
=
 OpenBabel11042415183D

 45 52  0  0  1  0  0  0  0  0999 V2000
  190.2920  171.9580  140.8830 C   0  0  2  0  0  3  0  0  0  0  0  0
  195.0170  172.0340  143.0930 C   0  0  1  0  0  3  0  0  0  0  0  0
  191.2550  172.5080  141.9820 C   0  0  1  0  0  3  0  0  0  0  0  0
  191.9940  170.6690  138.7620 C   0  0  1  0  0  3  0  0  0  0  0  0
  196.7030  170.9980  141.5590 C   0  0  0  0  0  2  0  0  0  0  0  0
  192.5990  172.1520  142.0840 C   0  0  0  0  0  0  0  0  0  0  0  0
  196.1490  169.9480  142.3060 O   0  0  0  0  0  0  0  0  0  0  0  0
  189.7060  171.7620  138.4190 C   0  0  0  0  0  2  0  0  0  0  0  0
  193.1790  172.7770  144.5160 C   0  0  2  0  0  3  0  0  0  0  0  0
  195.2840  171.0390  141.9660 C   0  0  1  0  0  0  0  0  0  0  0  0
  193.0820  171.4210  140.8660 C   0  0  2  0  0  3  0  0  0  0  0  0
  189.6890  171.0770  137.2140 C   0  0  0  0  0  2  0  0  0  0  0  0
  194.7290  169.9700  139.4880 C   0  0  0  0  0  3  0  0  0  0  0  0
  190.5670  169.9330  136.5760 C   0  0  0  0  0  2  0  0  0  0  0  0
  190.9480  171.8040  139.4430 C   0  0  2  0  0  0  0  0  0  0  0  0
  190.7120  173.7990  142.4530 C   0  0  0  0  0  2  0  0  0  0  0  0
  192.1020  169.7450  136.6060 C   0  0  0  0  0  2  0  0  0  0  0  0
  193.6100  172.3920  143.2790 C   0  0  0  0  0  0  0  0  0  0  0  0
  191.8170  170.7450  140.1160 C   0  0  1  0  0  3  0  0  0  0  0  0
  193.7020  172.2470  145.7580 O   0  0  0  0  0  1  0  0  0  0  0  0
  191.9960  173.5270  144.6770 C   0  0  0  0  0  2  0  0  0  0  0  0
  192.6430  169.8810  137.9140 C   0  0  0  0  0  0  0  0  0  0  0  0
  190.9410  173.8920  143.9280 C   0  0  2  0  0  3  0  0  0  0  0  0
  194.3410  170.8780  140.7590 C   0  0  0  0  0  0  0  0  0  0  0  0
  188.9240  172.2410  141.0400 F   0  0  0  0  0  0  0  0  0  0  0  0
  194.0260  169.5300  138.3310 C   0  0  0  0  0  3  0  0  0  0  0  0
  187.3330  177.9100  144.6600 O   0  0  0  0  0  0  0  0  0  0  0  0
  188.9950  176.5010  145.6770 N   0  0  0  0  0  2  0  0  0  0  0  0
  189.3130  174.3310  146.7450 O   0  0  0  0  0  0  0  0  0  0  0  0
  187.5980  177.0730  145.5780 C   0  0  0  0  0  0  0  0  0  0  0  0
  189.3660  174.9960  145.7510 C   0  0  0  0  0  0  0  0  0  0  0  0
  189.7160  174.2760  144.5490 N   0  0  0  0  0  2  0  0  0  0  0  0
  186.6520  177.0510  146.7530 C   0  0  0  0  0  2  0  0  0  0  0  0
  185.1950  176.8690  146.3350 C   0  0  0  0  0  2  0  0  0  0  0  0
  184.4690  178.1010  146.8430 C   0  0  0  0  0  1  0  0  0  0  0  0
  195.7230  171.7540  144.2970 O   0  0  0  0  0  0  0  0  0  0  0  0
  196.7620  172.6840  144.2170 C   0  0  0  0  0  2  0  0  0  0  0  0
  196.7170  173.5780  145.4290 C   0  0  0  0  0  2  0  0  0  0  0  0
  195.0220  175.4730  146.0720 N   0  0  0  0  0  2  0  0  0  0  0  0
  196.0410  174.9070  145.1720 C   0  0  0  0  0  0  0  0  0  0  0  0
  196.2400  175.4350  144.0680 O   0  0  0  0  0  0  0  0  0  0  0  0
  194.9400  177.8960  145.9630 O   0  0  0  0  0  0  0  0  0  0  0  0
  194.2530  176.7230  145.8190 C   0  0  0  0  0  0  0  0  0  0  0  0
  194.1330  177.4970  146.9590 O   0  0  0  0  0  0  0  0  0  0  0  0
  192.9910  176.7960  144.9630 C   0  0  0  0  0  1  0  0  0  0  0  0
  1 25  1  6  0  0  0
  1  3  1  0  0  0  0
  2 18  1  0  0  0  0
  2 36  1  1  0  0  0
  3  6  1  0  0  0  0
  3 16  1  6  0  0  0
  4 22  1  6  0  0  0
  4 15  1  0  0  0  0
  4 19  1  0  0  0  0
  5  7  1  0  0  0  0
  6 18  2  0  0  0  0
  9 21  1  0  0  0  0
  9 20  1  1  0  0  0
 10  5  1  6  0  0  0
 10  7  1  0  0  0  0
 10  2  1  0  0  0  0
 11 24  1  1  0  0  0
 11  6  1  0  0  0  0
 12  8  1  0  0  0  0
 13 24  2  0  0  0  0
 14 17  1  0  0  0  0
 14 12  1  0  0  0  0
 15  8  1  6  0  0  0
 15 19  1  0  0  0  0
 15  1  1  0  0  0  0
 16 23  1  0  0  0  0
 17 22  1  0  0  0  0
 18  9  1  0  0  0  0
 19 11  1  0  0  0  0
 22 26  2  0  0  0  0
 23 32  1  0  0  0  0
 23 21  1  0  0  0  0
 24 10  1  0  0  0  0
 26 13  1  0  0  0  0
 27 30  2  0  0  0  0
 28 31  1  0  0  0  0
 30 28  1  0  0  0  0
 30 33  1  0  0  0  0
 31 29  2  0  0  0  0
 32 31  1  0  0  0  0
 34 33  1  0  0  0  0
 34 35  1  0  0  0  0
 37 36  1  0  0  0  0
 37 38  1  0  0  0  0
 40 38  1  0  0  0  0
 40 39  1  0  0  0  0
 41 40  2  0  0  0  0
 42 44  1  0  0  0  0
 43 42  1  0  0  0  0
 43 39  1  0  0  0  0
 43 44  1  0  0  0  0
 45 43  1  0  0  0  0
M  END
>  <MODEL>
4

>  <REMARK>
 VINA RESULT:      -7.5      3.250      9.022
  Name = 
  8 active torsions:
  status: ('A' for Active; 'I' for Inactive)
    1  A    between atoms: C_2  and  O_5
    2  A    between atoms: O_5  and  C_23
    3  A    between atoms: C_10  and  N_11
    4  A    between atoms: C_12  and  C_27
    5  A    between atoms: C_12  and  C_40
    6  A    between atoms: C_15  and  C_36
    7  A    between atoms: C_23  and  C_36
    8  A    between atoms: C_37  and  N_42
                            x       y       z     vdW  Elec       q    Type
                         _______ _______ _______ _____ _____    ______ ____

>  <TORSDO>
F 8

$$$$
=
 OpenBabel11042415183D

 45 52  0  0  1  0  0  0  0  0999 V2000
  188.9490  173.7910  139.3930 C   0  0  2  0  0  3  0  0  0  0  0  0
  192.4010  171.4460  142.5230 C   0  0  1  0  0  3  0  0  0  0  0  0
  189.6750  173.7070  140.7730 C   0  0  1  0  0  3  0  0  0  0  0  0
  190.5320  172.1310  137.4440 C   0  0  1  0  0  3  0  0  0  0  0  0
  193.8960  169.9460  141.1880 C   0  0  0  0  0  2  0  0  0  0  0  0
  190.6610  172.7700  141.0740 C   0  0  0  0  0  0  0  0  0  0  0  0
  192.7680  169.1830  141.5240 O   0  0  0  0  0  0  0  0  0  0  0  0
  189.1010  174.1770  136.8870 C   0  0  0  0  0  2  0  0  0  0  0  0
  190.6870  172.7690  143.6510 C   0  0  2  0  0  3  0  0  0  0  0  0
  192.5650  170.5800  141.2770 C   0  0  1  0  0  0  0  0  0  0  0  0
  191.1470  172.0500  139.8510 C   0  0  2  0  0  3  0  0  0  0  0  0
  189.1700  173.7240  135.5780 C   0  0  0  0  0  2  0  0  0  0  0  0
  192.3950  170.1830  138.5550 C   0  0  0  0  0  3  0  0  0  0  0  0
  189.6550  172.3910  134.8900 C   0  0  0  0  0  2  0  0  0  0  0  0
  189.8840  173.5280  138.1340 C   0  0  2  0  0  0  0  0  0  0  0  0
  189.5880  175.0380  141.4100 C   0  0  0  0  0  2  0  0  0  0  0  0
  190.8970  171.5230  135.2060 C   0  0  0  0  0  2  0  0  0  0  0  0
  191.2740  172.3800  142.4810 C   0  0  0  0  0  0  0  0  0  0  0  0
  190.0050  172.1180  138.7060 C   0  0  1  0  0  3  0  0  0  0  0  0
  190.5530  171.9150  144.8140 O   0  0  0  0  0  1  0  0  0  0  0  0
  189.9210  173.9490  143.7270 C   0  0  0  0  0  2  0  0  0  0  0  0
  191.0270  171.2410  136.5940 C   0  0  0  0  0  0  0  0  0  0  0  0
  189.3820  174.8410  142.8770 C   0  0  2  0  0  3  0  0  0  0  0  0
  192.0460  171.0100  139.8920 C   0  0  0  0  0  0  0  0  0  0  0  0
  187.8350  174.6450  139.3130 F   0  0  0  0  0  0  0  0  0  0  0  0
  191.9550  170.2530  137.2030 C   0  0  0  0  0  3  0  0  0  0  0  0
  185.7080  178.5590  141.3350 O   0  0  0  0  0  0  0  0  0  0  0  0
  187.6580  178.1020  142.6670 N   0  0  0  0  0  2  0  0  0  0  0  0
  188.3710  177.2670  144.8450 O   0  0  0  0  0  0  0  0  0  0  0  0
  186.2310  178.5750  142.4940 C   0  0  0  0  0  0  0  0  0  0  0  0
  188.1550  177.0450  143.6890 C   0  0  0  0  0  0  0  0  0  0  0  0
  188.2930  175.6630  143.2930 N   0  0  0  0  0  2  0  0  0  0  0  0
  185.5660  179.4670  143.5130 C   0  0  0  0  0  2  0  0  0  0  0  0
  184.8230  178.6800  144.5900 C   0  0  0  0  0  2  0  0  0  0  0  0
  185.5020  179.0410  145.8980 C   0  0  0  0  0  1  0  0  0  0  0  0
  192.5360  170.7340  143.7490 O   0  0  0  0  0  0  0  0  0  0  0  0
  193.8440  171.0700  144.1060 C   0  0  0  0  0  2  0  0  0  0  0  0
  193.8180  171.8420  145.4010 C   0  0  0  0  0  2  0  0  0  0  0  0
  193.1460  174.3230  145.9180 N   0  0  0  0  0  2  0  0  0  0  0  0
  193.9800  173.3340  145.2150 C   0  0  0  0  0  0  0  0  0  0  0  0
  194.7290  173.7090  144.3010 O   0  0  0  0  0  0  0  0  0  0  0  0
  194.2670  176.4530  146.2330 O   0  0  0  0  0  0  0  0  0  0  0  0
  193.1930  175.7950  145.7000 C   0  0  0  0  0  0  0  0  0  0  0  0
  193.0950  176.4980  146.8880 O   0  0  0  0  0  0  0  0  0  0  0  0
  192.4700  176.5180  144.5660 C   0  0  0  0  0  1  0  0  0  0  0  0
  1 25  1  6  0  0  0
  1  3  1  0  0  0  0
  2 36  1  1  0  0  0
  3  6  1  0  0  0  0
  3 16  1  6  0  0  0
  4 22  1  6  0  0  0
  4 15  1  0  0  0  0
  4 19  1  0  0  0  0
  5  7  1  0  0  0  0
  6 18  2  0  0  0  0
  9 21  1  0  0  0  0
  9 20  1  6  0  0  0
 10  5  1  6  0  0  0
 10  7  1  0  0  0  0
 10  2  1  0  0  0  0
 11 24  1  1  0  0  0
 11  6  1  0  0  0  0
 12  8  1  0  0  0  0
 13 24  2  0  0  0  0
 14 17  1  0  0  0  0
 14 12  1  0  0  0  0
 15  8  1  6  0  0  0
 15 19  1  0  0  0  0
 15  1  1  0  0  0  0
 16 23  1  0  0  0  0
 17 22  1  0  0  0  0
 18  2  1  0  0  0  0
 18  9  1  0  0  0  0
 19 11  1  0  0  0  0
 22 26  2  0  0  0  0
 23 32  1  0  0  0  0
 23 21  1  0  0  0  0
 24 10  1  0  0  0  0
 26 13  1  0  0  0  0
 27 30  2  0  0  0  0
 28 31  1  0  0  0  0
 30 28  1  0  0  0  0
 30 33  1  0  0  0  0
 31 29  2  0  0  0  0
 32 31  1  0  0  0  0
 33 34  1  0  0  0  0
 34 35  1  0  0  0  0
 36 37  1  0  0  0  0
 37 38  1  0  0  0  0
 40 38  1  0  0  0  0
 40 39  1  0  0  0  0
 41 40  2  0  0  0  0
 42 44  1  0  0  0  0
 43 39  1  0  0  0  0
 43 42  1  0  0  0  0
 43 44  1  0  0  0  0
 45 43  1  0  0  0  0
M  END
>  <MODEL>
5

>  <REMARK>
 VINA RESULT:      -7.5      2.946      8.931
  Name = 
  8 active torsions:
  status: ('A' for Active; 'I' for Inactive)
    1  A    between atoms: C_2  and  O_5
    2  A    between atoms: O_5  and  C_23
    3  A    between atoms: C_10  and  N_11
    4  A    between atoms: C_12  and  C_27
    5  A    between atoms: C_12  and  C_40
    6  A    between atoms: C_15  and  C_36
    7  A    between atoms: C_23  and  C_36
    8  A    between atoms: C_37  and  N_42
                            x       y       z     vdW  Elec       q    Type
                         _______ _______ _______ _____ _____    ______ ____

>  <TORSDO>
F 8

$$$$
=
 OpenBabel11042415183D

 45 52  0  0  1  0  0  0  0  0999 V2000
  192.4420  176.3150  143.1710 C   0  0  2  0  0  3  0  0  0  0  0  0
  191.0110  172.6470  139.7480 C   0  0  1  0  0  3  0  0  0  0  0  0
  191.3540  175.3400  142.6180 C   0  0  1  0  0  3  0  0  0  0  0  0
  195.0970  175.4040  142.0860 C   0  0  1  0  0  3  0  0  0  0  0  0
  193.0300  171.6740  138.6330 C   0  0  0  0  0  2  0  0  0  0  0  0
  191.5720  174.4500  141.5680 C   0  0  0  0  0  0  0  0  0  0  0  0
  192.6680  172.8020  137.8820 O   0  0  0  0  0  0  0  0  0  0  0  0
  194.6970  176.6270  144.2970 C   0  0  0  0  0  2  0  0  0  0  0  0
  189.1830  173.8980  140.7740 C   0  0  2  0  0  3  0  0  0  0  0  0
  192.4540  172.8600  139.2980 C   0  0  1  0  0  0  0  0  0  0  0  0
  193.0280  174.3260  141.2270 C   0  0  2  0  0  3  0  0  0  0  0  0
  196.0570  176.8890  144.2640 C   0  0  0  0  0  2  0  0  0  0  0  0
  195.0560  173.6350  139.7690 C   0  0  0  0  0  3  0  0  0  0  0  0
  197.1900  176.7400  143.1770 C   0  0  0  0  0  2  0  0  0  0  0  0
  193.9060  175.7010  143.2440 C   0  0  2  0  0  0  0  0  0  0  0  0
  190.3630  175.1140  143.6920 C   0  0  0  0  0  2  0  0  0  0  0  0
  197.4350  175.5900  142.1710 C   0  0  0  0  0  2  0  0  0  0  0  0
  190.5200  173.6220  140.7240 C   0  0  0  0  0  0  0  0  0  0  0  0
  193.8040  175.6580  141.7220 C   0  0  1  0  0  3  0  0  0  0  0  0
  188.3130  173.9070  139.6160 O   0  0  0  0  0  1  0  0  0  0  0  0
  188.5970  174.4660  141.9230 C   0  0  0  0  0  2  0  0  0  0  0  0
  196.2570  175.2180  141.4690 C   0  0  0  0  0  0  0  0  0  0  0  0
  189.0070  175.0410  143.0670 C   0  0  2  0  0  3  0  0  0  0  0  0
  193.4970  173.5880  140.1670 C   0  0  0  0  0  0  0  0  0  0  0  0
  192.0100  177.2950  144.0820 F   0  0  0  0  0  0  0  0  0  0  0  0
  196.1890  174.3280  140.2800 C   0  0  0  0  0  3  0  0  0  0  0  0
  184.3910  177.9350  142.9160 O   0  0  0  0  0  0  0  0  0  0  0  0
  186.7910  177.9980  143.0570 N   0  0  0  0  0  2  0  0  0  0  0  0
  188.6480  177.9020  144.6360 O   0  0  0  0  0  0  0  0  0  0  0  0
  185.4070  178.3280  143.5710 C   0  0  0  0  0  0  0  0  0  0  0  0
  187.9340  177.3280  143.8660 C   0  0  0  0  0  0  0  0  0  0  0  0
  188.1310  175.8990  143.7950 N   0  0  0  0  0  2  0  0  0  0  0  0
  185.1760  179.4570  144.5440 C   0  0  0  0  0  2  0  0  0  0  0  0
  184.5340  178.9900  145.8480 C   0  0  0  0  0  2  0  0  0  0  0  0
  185.6770  178.4740  146.7030 C   0  0  0  0  0  1  0  0  0  0  0  0
  190.1060  172.3620  138.6860 O   0  0  0  0  0  0  0  0  0  0  0  0
  189.8610  171.0050  138.9060 C   0  0  0  0  0  2  0  0  0  0  0  0
  189.3140  170.3910  137.6430 C   0  0  0  0  0  2  0  0  0  0  0  0
  191.4330  169.0780  136.8290 N   0  0  0  0  0  2  0  0  0  0  0  0
  190.3790  170.0830  136.6140 C   0  0  0  0  0  0  0  0  0  0  0  0
  190.4530  170.8430  135.6360 O   0  0  0  0  0  0  0  0  0  0  0  0
  193.8000  168.6890  136.4660 O   0  0  0  0  0  0  0  0  0  0  0  0
  192.5620  168.8040  135.8980 C   0  0  0  0  0  0  0  0  0  0  0  0
  193.4720  169.8460  135.8690 O   0  0  0  0  0  0  0  0  0  0  0  0
  192.4030  168.1670  134.5210 C   0  0  0  0  0  1  0  0  0  0  0  0
  1 15  1  0  0  0  0
  1 25  1  1  0  0  0
  2 36  1  6  0  0  0
  2 18  1  0  0  0  0
  3  1  1  0  0  0  0
  3 16  1  1  0  0  0
  4 22  1  6  0  0  0
  4 15  1  0  0  0  0
  6  3  1  0  0  0  0
  7  5  1  0  0  0  0
  7 10  1  0  0  0  0
  9 20  1  6  0  0  0
  9 21  1  0  0  0  0
 10  5  1  1  0  0  0
 10  2  1  0  0  0  0
 10 24  1  0  0  0  0
 11 24  1  6  0  0  0
 11  6  1  0  0  0  0
 11 19  1  0  0  0  0
 12  8  1  0  0  0  0
 13 24  2  0  0  0  0
 13 26  1  0  0  0  0
 14 12  1  0  0  0  0
 15  8  1  6  0  0  0
 17 14  1  0  0  0  0
 18  9  1  0  0  0  0
 18  6  2  0  0  0  0
 19  4  1  0  0  0  0
 19 15  1  0  0  0  0
 21 23  1  0  0  0  0
 22 17  1  0  0  0  0
 23 16  1  0  0  0  0
 23 32  1  0  0  0  0
 26 22  2  0  0  0  0
 27 30  2  0  0  0  0
 28 30  1  0  0  0  0
 28 31  1  0  0  0  0
 30 33  1  0  0  0  0
 31 29  2  0  0  0  0
 32 31  1  0  0  0  0
 33 34  1  0  0  0  0
 34 35  1  0  0  0  0
 36 37  1  0  0  0  0
 38 37  1  0  0  0  0
 40 39  1  0  0  0  0
 40 38  1  0  0  0  0
 41 40  2  0  0  0  0
 43 42  1  0  0  0  0
 43 39  1  0  0  0  0
 44 43  1  0  0  0  0
 44 42  1  0  0  0  0
 45 43  1  0  0  0  0
M  END
>  <MODEL>
6

>  <REMARK>
 VINA RESULT:      -7.1      2.371      9.126
  Name = 
  8 active torsions:
  status: ('A' for Active; 'I' for Inactive)
    1  A    between atoms: C_2  and  O_5
    2  A    between atoms: O_5  and  C_23
    3  A    between atoms: C_10  and  N_11
    4  A    between atoms: C_12  and  C_27
    5  A    between atoms: C_12  and  C_40
    6  A    between atoms: C_15  and  C_36
    7  A    between atoms: C_23  and  C_36
    8  A    between atoms: C_37  and  N_42
                            x       y       z     vdW  Elec       q    Type
                         _______ _______ _______ _____ _____    ______ ____

>  <TORSDO>
F 8

$$$$
=
 OpenBabel11042415183D

 45 52  0  0  1  0  0  0  0  0999 V2000
  192.0980  171.1010  140.4810 C   0  0  2  0  0  3  0  0  0  0  0  0
  189.5670  174.6650  143.3290 C   0  0  1  0  0  3  0  0  0  0  0  0
  191.7660  171.7220  141.8750 C   0  0  1  0  0  3  0  0  0  0  0  0
  190.0220  172.0910  138.5410 C   0  0  1  0  0  3  0  0  0  0  0  0
  187.7420  175.7140  141.9740 C   0  0  0  0  0  2  0  0  0  0  0  0
  190.8800  172.7820  142.0610 C   0  0  0  0  0  0  0  0  0  0  0  0
  188.9050  176.4540  141.7120 O   0  0  0  0  0  0  0  0  0  0  0  0
  191.2880  169.8720  138.4110 C   0  0  0  0  0  2  0  0  0  0  0  0
  191.5440  173.6900  144.3790 C   0  0  2  0  0  3  0  0  0  0  0  0
  189.0600  175.0480  141.9410 C   0  0  1  0  0  0  0  0  0  0  0  0
  190.0710  173.0620  140.8280 C   0  0  2  0  0  3  0  0  0  0  0  0
  190.8640  169.8410  137.0920 C   0  0  0  0  0  2  0  0  0  0  0  0
  188.4890  174.4480  139.3130 C   0  0  0  0  0  3  0  0  0  0  0  0
  190.1880  170.8820  136.1190 C   0  0  0  0  0  2  0  0  0  0  0  0
  190.8550  170.9790  139.4970 C   0  0  2  0  0  0  0  0  0  0  0  0
  192.0450  170.6980  142.9030 C   0  0  0  0  0  2  0  0  0  0  0  0
  189.0610  171.9010  136.4070 C   0  0  0  0  0  2  0  0  0  0  0  0
  190.6590  173.6890  143.3390 C   0  0  0  0  0  0  0  0  0  0  0  0
  190.8660  172.5050  139.5330 C   0  0  1  0  0  3  0  0  0  0  0  0
  191.9680  174.8840  145.0800 O   0  0  0  0  0  1  0  0  0  0  0  0
  192.3240  172.5550  144.6760 C   0  0  0  0  0  2  0  0  0  0  0  0
  189.3010  172.6620  137.5840 C   0  0  0  0  0  0  0  0  0  0  0  0
  192.6320  171.3810  144.0960 C   0  0  0  0  0  0  0  0  0  0  0  0
  189.1970  174.1180  140.7210 C   0  0  0  0  0  0  0  0  0  0  0  0
  193.1650  170.1880  140.4320 F   0  0  0  0  0  0  0  0  0  0  0  0
  188.5520  173.8730  138.0120 C   0  0  0  0  0  3  0  0  0  0  0  0
  194.9050  168.1660  147.8640 O   0  0  0  0  0  0  0  0  0  0  0  0
  194.9030  170.3300  146.8150 N   0  0  0  0  0  2  0  0  0  0  0  0
  195.8050  171.5720  144.9190 O   0  0  0  0  0  0  0  0  0  0  0  0
  195.5780  169.0450  147.2390 C   0  0  0  0  0  0  0  0  0  0  0  0
  194.9030  170.9380  145.3870 C   0  0  0  0  0  0  0  0  0  0  0  0
  193.8070  170.6730  144.4860 N   0  0  0  0  0  0  0  0  0  0  0  0
  197.0790  168.9450  147.3600 C   0  0  0  0  0  2  0  0  0  0  0  0
  197.7930  169.1470  146.0260 C   0  0  0  0  0  2  0  0  0  0  0  0
  197.1450  168.1670  145.0650 C   0  0  0  0  0  1  0  0  0  0  0  0
  189.7520  175.7710  144.2070 O   0  0  0  0  0  0  0  0  0  0  0  0
  188.9060  175.4150  145.2600 C   0  0  0  0  0  2  0  0  0  0  0  0
  188.4460  176.6640  145.9670 C   0  0  0  0  0  2  0  0  0  0  0  0
  187.0190  177.9970  144.2170 N   0  0  0  0  0  2  0  0  0  0  0  0
  187.1290  177.1990  145.4490 C   0  0  0  0  0  0  0  0  0  0  0  0
  186.1470  177.0980  146.2000 O   0  0  0  0  0  0  0  0  0  0  0  0
  184.9790  177.8580  142.9100 O   0  0  0  0  0  0  0  0  0  0  0  0
  185.7690  178.6310  143.7150 C   0  0  0  0  0  0  0  0  0  0  0  0
  185.7770  178.7740  142.3380 O   0  0  0  0  0  0  0  0  0  0  0  0
  185.0730  179.8100  144.3910 C   0  0  0  0  0  1  0  0  0  0  0  0
  1 25  1  1  0  0  0
  1  3  1  0  0  0  0
  2 18  1  0  0  0  0
  2 36  1  6  0  0  0
  3  6  1  0  0  0  0
  3 16  1  1  0  0  0
  4 22  1  6  0  0  0
  4 15  1  0  0  0  0
  4 19  1  0  0  0  0
  6 18  2  0  0  0  0
  7 10  1  0  0  0  0
  7  5  1  0  0  0  0
  9 21  1  0  0  0  0
  9 20  1  6  0  0  0
 10  5  1  1  0  0  0
 10  2  1  0  0  0  0
 11 24  1  6  0  0  0
 11  6  1  0  0  0  0
 12  8  1  0  0  0  0
 13 24  2  0  0  0  0
 14 17  1  0  0  0  0
 14 12  1  0  0  0  0
 15  8  1  6  0  0  0
 15 19  1  0  0  0  0
 15  1  1  0  0  0  0
 16 23  1  0  0  0  0
 17 22  1  0  0  0  0
 18  9  1  0  0  0  0
 19 11  1  0  0  0  0
 22 26  2  0  0  0  0
 23 32  2  0  0  0  0
 23 21  1  0  0  0  0
 24 10  1  0  0  0  0
 26 13  1  0  0  0  0
 28 30  1  0  0  0  0
 29 31  2  0  0  0  0
 30 33  1  0  0  0  0
 30 27  2  0  0  0  0
 31 28  1  0  0  0  0
 32 31  1  0  0  0  0
 34 33  1  0  0  0  0
 35 34  1  0  0  0  0
 36 37  1  0  0  0  0
 37 38  1  0  0  0  0
 39 40  1  0  0  0  0
 40 38  1  0  0  0  0
 40 41  2  0  0  0  0
 42 43  1  0  0  0  0
 43 39  1  0  0  0  0
 43 45  1  0  0  0  0
 44 42  1  0  0  0  0
 44 43  1  0  0  0  0
M  END
>  <MODEL>
7

>  <REMARK>
 VINA RESULT:      -7.1      3.204      6.790
  Name = 
  8 active torsions:
  status: ('A' for Active; 'I' for Inactive)
    1  A    between atoms: C_2  and  O_5
    2  A    between atoms: O_5  and  C_23
    3  A    between atoms: C_10  and  N_11
    4  A    between atoms: C_12  and  C_27
    5  A    between atoms: C_12  and  C_40
    6  A    between atoms: C_15  and  C_36
    7  A    between atoms: C_23  and  C_36
    8  A    between atoms: C_37  and  N_42
                            x       y       z     vdW  Elec       q    Type
                         _______ _______ _______ _____ _____    ______ ____

>  <TORSDO>
F 8

$$$$
=
 OpenBabel11042415183D

 45 52  0  0  1  0  0  0  0  0999 V2000
  189.0130  172.4350  139.5370 C   0  0  2  0  0  3  0  0  0  0  0  0
  192.3990  172.9160  143.4760 C   0  0  1  0  0  3  0  0  0  0  0  0
  189.4600  173.1580  140.8460 C   0  0  1  0  0  3  0  0  0  0  0  0
  191.3760  170.8730  138.5220 C   0  0  1  0  0  3  0  0  0  0  0  0
  194.5170  171.6910  142.9460 C   0  0  0  0  0  2  0  0  0  0  0  0
  190.6230  172.8430  141.5470 C   0  0  0  0  0  0  0  0  0  0  0  0
  193.6540  170.7540  143.5360 O   0  0  0  0  0  0  0  0  0  0  0  0
  189.4900  171.8650  137.1080 C   0  0  0  0  0  2  0  0  0  0  0  0
  190.1740  173.8330  143.8840 C   0  0  2  0  0  3  0  0  0  0  0  0
  193.0600  171.7690  142.7160 C   0  0  1  0  0  0  0  0  0  0  0  0
  191.5320  171.9470  140.7580 C   0  0  2  0  0  3  0  0  0  0  0  0
  189.9400  171.0090  136.1150 C   0  0  0  0  0  2  0  0  0  0  0  0
  193.5300  170.3340  140.4110 C   0  0  0  0  0  3  0  0  0  0  0  0
  190.9480  169.7970  136.0690 C   0  0  0  0  0  2  0  0  0  0  0  0
  190.1980  172.0790  138.5380 C   0  0  2  0  0  0  0  0  0  0  0  0
  188.8320  174.4960  140.8600 C   0  0  0  0  0  2  0  0  0  0  0  0
  192.3230  169.6410  136.7620 C   0  0  0  0  0  2  0  0  0  0  0  0
  191.0590  173.2750  143.0070 C   0  0  0  0  0  0  0  0  0  0  0  0
  190.6600  171.1470  139.6540 C   0  0  1  0  0  3  0  0  0  0  0  0
  190.1110  173.5020  145.2930 O   0  0  0  0  0  1  0  0  0  0  0  0
  189.0670  174.5780  143.4300 C   0  0  0  0  0  2  0  0  0  0  0  0
  192.2800  169.9780  138.1430 C   0  0  0  0  0  0  0  0  0  0  0  0
  188.4350  174.8110  142.2670 C   0  0  2  0  0  3  0  0  0  0  0  0
  192.6940  171.4150  141.2620 C   0  0  0  0  0  0  0  0  0  0  0  0
  187.7170  172.7170  139.0680 F   0  0  0  0  0  0  0  0  0  0  0  0
  193.3480  169.7160  139.1420 C   0  0  0  0  0  3  0  0  0  0  0  0
  184.8620  178.2840  140.0600 O   0  0  0  0  0  0  0  0  0  0  0  0
  186.0780  177.6470  142.0350 N   0  0  0  0  0  2  0  0  0  0  0  0
  185.9920  176.1790  143.9810 O   0  0  0  0  0  0  0  0  0  0  0  0
  184.7990  177.9470  141.2840 C   0  0  0  0  0  0  0  0  0  0  0  0
  186.3770  176.3690  142.8630 C   0  0  0  0  0  0  0  0  0  0  0  0
  187.0820  175.2630  142.2610 N   0  0  0  0  0  2  0  0  0  0  0  0
  183.5240  178.3000  142.0080 C   0  0  0  0  0  2  0  0  0  0  0  0
  182.2840  178.1430  141.1310 C   0  0  0  0  0  2  0  0  0  0  0  0
  181.1920  178.9370  141.8240 C   0  0  0  0  0  1  0  0  0  0  0  0
  192.5290  172.8290  144.8910 O   0  0  0  0  0  0  0  0  0  0  0  0
  193.6600  173.6220  145.1000 C   0  0  0  0  0  2  0  0  0  0  0  0
  193.4660  174.9490  144.4130 C   0  0  0  0  0  2  0  0  0  0  0  0
  192.0960  175.6270  146.5440 N   0  0  0  0  0  2  0  0  0  0  0  0
  192.7420  175.9670  145.2650 C   0  0  0  0  0  0  0  0  0  0  0  0
  192.5450  177.0840  144.7620 O   0  0  0  0  0  0  0  0  0  0  0  0
  191.9730  177.3090  148.2880 O   0  0  0  0  0  0  0  0  0  0  0  0
  191.2860  176.5620  147.3720 C   0  0  0  0  0  0  0  0  0  0  0  0
  191.3110  176.2210  148.7130 O   0  0  0  0  0  0  0  0  0  0  0  0
  189.9200  177.1060  146.9630 C   0  0  0  0  0  1  0  0  0  0  0  0
  1 25  1  6  0  0  0
  1  3  1  0  0  0  0
  2 36  1  1  0  0  0
  3 16  1  6  0  0  0
  3  6  1  0  0  0  0
  4 22  1  6  0  0  0
  4 15  1  0  0  0  0
  4 19  1  0  0  0  0
  5  7  1  0  0  0  0
  6 18  2  0  0  0  0
  9 20  1  6  0  0  0
 10  5  1  6  0  0  0
 10  2  1  0  0  0  0
 10  7  1  0  0  0  0
 11 24  1  1  0  0  0
 11  6  1  0  0  0  0
 12  8  1  0  0  0  0
 13 24  2  0  0  0  0
 14 12  1  0  0  0  0
 14 17  1  0  0  0  0
 15  8  1  6  0  0  0
 15  1  1  0  0  0  0
 15 19  1  0  0  0  0
 16 23  1  0  0  0  0
 17 22  1  0  0  0  0
 18  2  1  0  0  0  0
 18  9  1  0  0  0  0
 19 11  1  0  0  0  0
 21  9  1  0  0  0  0
 22 26  2  0  0  0  0
 23 21  1  0  0  0  0
 24 10  1  0  0  0  0
 26 13  1  0  0  0  0
 27 30  2  0  0  0  0
 28 31  1  0  0  0  0
 30 33  1  0  0  0  0
 30 28  1  0  0  0  0
 31 29  2  0  0  0  0
 32 23  1  0  0  0  0
 32 31  1  0  0  0  0
 34 35  1  0  0  0  0
 34 33  1  0  0  0  0
 36 37  1  0  0  0  0
 38 37  1  0  0  0  0
 38 40  1  0  0  0  0
 39 43  1  0  0  0  0
 40 39  1  0  0  0  0
 41 40  2  0  0  0  0
 42 44  1  0  0  0  0
 43 42  1  0  0  0  0
 43 44  1  0  0  0  0
 45 43  1  0  0  0  0
M  END
>  <MODEL>
8

>  <REMARK>
 VINA RESULT:      -7.0      3.035      8.015
  Name = 
  8 active torsions:
  status: ('A' for Active; 'I' for Inactive)
    1  A    between atoms: C_2  and  O_5
    2  A    between atoms: O_5  and  C_23
    3  A    between atoms: C_10  and  N_11
    4  A    between atoms: C_12  and  C_27
    5  A    between atoms: C_12  and  C_40
    6  A    between atoms: C_15  and  C_36
    7  A    between atoms: C_23  and  C_36
    8  A    between atoms: C_37  and  N_42
                            x       y       z     vdW  Elec       q    Type
                         _______ _______ _______ _____ _____    ______ ____

>  <TORSDO>
F 8

$$$$
=
 OpenBabel11042415183D

 45 52  0  0  1  0  0  0  0  0999 V2000
  192.4050  175.0550  144.1650 C   0  0  2  0  0  3  0  0  0  0  0  0
  191.0030  172.2430  140.0010 C   0  0  1  0  0  3  0  0  0  0  0  0
  191.2810  174.4630  143.2570 C   0  0  1  0  0  3  0  0  0  0  0  0
  194.9470  173.5750  143.5270 C   0  0  1  0  0  3  0  0  0  0  0  0
  192.9380  170.8750  139.1930 C   0  0  0  0  0  2  0  0  0  0  0  0
  191.5250  173.6500  142.1520 C   0  0  0  0  0  0  0  0  0  0  0  0
  193.0460  172.1250  138.5640 O   0  0  0  0  0  0  0  0  0  0  0  0
  194.3330  174.6460  145.7680 C   0  0  0  0  0  2  0  0  0  0  0  0
  189.3350  173.8340  140.8060 C   0  0  2  0  0  3  0  0  0  0  0  0
  192.5190  172.1040  139.8970 C   0  0  1  0  0  0  0  0  0  0  0  0
  192.9480  173.1750  142.1050 C   0  0  2  0  0  3  0  0  0  0  0  0
  195.6840  174.5370  146.0580 C   0  0  0  0  0  2  0  0  0  0  0  0
  195.0410  172.1080  141.0090 C   0  0  0  0  0  3  0  0  0  0  0  0
  196.9750  174.1940  145.2180 C   0  0  0  0  0  2  0  0  0  0  0  0
  193.6200  174.0680  144.4450 C   0  0  2  0  0  0  0  0  0  0  0  0
  190.0380  174.4100  144.0550 C   0  0  0  0  0  2  0  0  0  0  0  0
  197.1720  173.1200  144.1220 C   0  0  0  0  0  2  0  0  0  0  0  0
  190.5390  173.2160  140.9920 C   0  0  0  0  0  0  0  0  0  0  0  0
  193.8770  174.1980  142.9460 C   0  0  1  0  0  3  0  0  0  0  0  0
  188.7960  174.1830  139.5080 O   0  0  0  0  0  1  0  0  0  0  0  0
  188.6440  174.4260  141.8820 C   0  0  0  0  0  2  0  0  0  0  0  0
  196.1420  173.1450  143.1420 C   0  0  0  0  0  0  0  0  0  0  0  0
  188.8930  174.7600  143.1600 C   0  0  2  0  0  3  0  0  0  0  0  0
  193.4670  172.4410  141.0650 C   0  0  0  0  0  0  0  0  0  0  0  0
  192.0150  176.0240  145.1060 F   0  0  0  0  0  0  0  0  0  0  0  0
  196.1500  172.4220  141.8440 C   0  0  0  0  0  3  0  0  0  0  0  0
  184.5240  177.9950  142.7790 O   0  0  0  0  0  0  0  0  0  0  0  0
  186.9230  177.8750  142.8970 N   0  0  0  0  0  2  0  0  0  0  0  0
  188.7890  177.7710  144.4650 O   0  0  0  0  0  0  0  0  0  0  0  0
  185.5770  178.3620  143.3880 C   0  0  0  0  0  0  0  0  0  0  0  0
  188.0190  177.1890  143.7560 C   0  0  0  0  0  0  0  0  0  0  0  0
  188.0990  175.7490  143.8130 N   0  0  0  0  0  2  0  0  0  0  0  0
  185.4520  179.5880  144.2570 C   0  0  0  0  0  2  0  0  0  0  0  0
  185.5640  179.2710  145.7460 C   0  0  0  0  0  2  0  0  0  0  0  0
  184.2280  178.6640  146.1350 C   0  0  0  0  0  1  0  0  0  0  0  0
  190.3370  172.3110  138.7440 O   0  0  0  0  0  0  0  0  0  0  0  0
  189.7780  171.0330  138.6730 C   0  0  0  0  0  2  0  0  0  0  0  0
  189.6920  170.6130  137.2280 C   0  0  0  0  0  2  0  0  0  0  0  0
  189.6530  173.0980  136.3920 N   0  0  0  0  0  2  0  0  0  0  0  0
  190.1000  171.7020  136.2600 C   0  0  0  0  0  0  0  0  0  0  0  0
  190.6870  171.3450  135.2280 O   0  0  0  0  0  0  0  0  0  0  0  0
  191.2290  174.2760  134.9710 O   0  0  0  0  0  0  0  0  0  0  0  0
  189.9390  174.1870  135.4170 C   0  0  0  0  0  0  0  0  0  0  0  0
  190.8200  175.1230  135.9300 O   0  0  0  0  0  0  0  0  0  0  0  0
  188.8850  174.8440  134.5300 C   0  0  0  0  0  1  0  0  0  0  0  0
  1 15  1  0  0  0  0
  1 25  1  1  0  0  0
  2 36  1  6  0  0  0
  2 18  1  0  0  0  0
  3 16  1  1  0  0  0
  3  1  1  0  0  0  0
  4 22  1  1  0  0  0
  4 15  1  0  0  0  0
  6  3  1  0  0  0  0
  7  5  1  0  0  0  0
  7 10  1  0  0  0  0
  8 12  1  0  0  0  0
  9 20  1  6  0  0  0
  9 18  1  0  0  0  0
  9 21  1  0  0  0  0
 10  5  1  1  0  0  0
 10  2  1  0  0  0  0
 10 24  1  0  0  0  0
 11 24  1  6  0  0  0
 11  6  1  0  0  0  0
 11 19  1  0  0  0  0
 13 24  2  0  0  0  0
 13 26  1  0  0  0  0
 14 12  1  0  0  0  0
 15  8  1  1  0  0  0
 17 14  1  0  0  0  0
 18  6  2  0  0  0  0
 19  4  1  0  0  0  0
 19 15  1  0  0  0  0
 21 23  1  0  0  0  0
 22 17  1  0  0  0  0
 23 32  1  0  0  0  0
 23 16  1  0  0  0  0
 26 22  2  0  0  0  0
 27 30  2  0  0  0  0
 28 30  1  0  0  0  0
 28 31  1  0  0  0  0
 30 33  1  0  0  0  0
 31 32  1  0  0  0  0
 31 29  2  0  0  0  0
 33 34  1  0  0  0  0
 34 35  1  0  0  0  0
 37 36  1  0  0  0  0
 38 37  1  0  0  0  0
 40 39  1  0  0  0  0
 40 38  1  0  0  0  0
 41 40  2  0  0  0  0
 42 43  1  0  0  0  0
 42 44  1  0  0  0  0
 43 44  1  0  0  0  0
 43 39  1  0  0  0  0
 45 43  1  0  0  0  0
M  END
>  <MODEL>
9

>  <REMARK>
 VINA RESULT:      -6.9      2.205      8.361
  Name = 
  8 active torsions:
  status: ('A' for Active; 'I' for Inactive)
    1  A    between atoms: C_2  and  O_5
    2  A    between atoms: O_5  and  C_23
    3  A    between atoms: C_10  and  N_11
    4  A    between atoms: C_12  and  C_27
    5  A    between atoms: C_12  and  C_40
    6  A    between atoms: C_15  and  C_36
    7  A    between atoms: C_23  and  C_36
    8  A    between atoms: C_37  and  N_42
                            x       y       z     vdW  Elec       q    Type
                         _______ _______ _______ _____ _____    ______ ____

>  <TORSDO>
F 8

$$$$
