=
 OpenBabel11042415153D

 45 49  0  0  1  0  0  0  0  0999 V2000
  190.8710  176.4990  145.5730 C   0  0  0  0  0  3  0  0  0  0  0  0
  191.7100  174.3520  144.8000 C   0  0  0  0  0  0  0  0  0  0  0  0
  189.5500  174.5140  145.9100 C   0  0  0  0  0  3  0  0  0  0  0  0
  191.8700  175.7510  144.9390 C   0  0  0  0  0  0  0  0  0  0  0  0
  189.7200  175.8870  146.0760 C   0  0  0  0  0  0  0  0  0  0  0  0
  190.5330  173.7530  145.2780 C   0  0  0  0  0  3  0  0  0  0  0  0
  192.6860  177.8330  144.0290 O   0  0  0  0  0  1  0  0  0  0  0  0
  193.0330  176.5210  144.3660 C   0  0  1  0  0  3  0  0  0  0  0  0
  194.0770  176.6570  146.5160 O   0  0  0  0  0  0  0  0  0  0  0  0
  194.2250  176.4920  145.2760 C   0  0  0  0  0  0  0  0  0  0  0  0
  195.5360  176.2640  144.7570 N   0  0  0  0  0  2  0  0  0  0  0  0
  195.7580  174.8340  142.9370 O   0  0  0  0  0  1  0  0  0  0  0  0
  195.8070  176.1700  143.3330 C   0  0  0  0  0  2  0  0  0  0  0  0
  188.6930  176.6530  146.7130 N   0  0  0  0  0  2  0  0  0  0  0  0
  187.3220  176.1830  146.8910 C   0  0  0  0  0  2  0  0  0  0  0  0
  184.3860  178.4720  144.2770 C   0  0  0  0  0  0  0  0  0  0  0  0
  185.0910  177.9370  141.5540 C   0  0  0  0  0  3  0  0  0  0  0  0
  183.5130  178.6300  143.2780 C   0  0  0  0  0  2  0  0  0  0  0  0
  184.4640  178.6750  146.7030 N   0  0  0  0  0  0  0  0  0  0  0  0
  186.3560  177.1240  146.2490 C   0  0  0  0  0  0  0  0  0  0  0  0
  185.7350  177.9580  143.9570 C   0  0  0  0  0  0  0  0  0  0  0  0
  184.0070  178.9870  145.5540 N   0  0  0  0  0  2  0  0  0  0  0  0
  185.4600  177.7060  147.0450 C   0  0  0  0  0  3  0  0  0  0  0  0
  186.5550  177.3850  144.8230 C   0  0  0  0  0  3  0  0  0  0  0  0
  186.2190  178.0540  142.5380 C   0  0  0  0  0  2  0  0  0  0  0  0
  183.8390  178.2520  141.8910 C   0  0  0  0  0  0  0  0  0  0  0  0
  182.7620  178.1870  140.8660 C   0  0  0  0  0  2  0  0  0  0  0  0
  181.4640  178.7700  141.4010 C   0  0  0  0  0  3  0  0  0  0  0  0
  180.9170  179.6440  140.4620 O   0  0  0  0  0  1  0  0  0  0  0  0
  180.5650  177.7360  141.6450 O   0  0  0  0  0  1  0  0  0  0  0  0
  192.7740  173.5220  144.1330 C   0  0  0  0  0  2  0  0  0  0  0  0
  192.1660  172.4210  142.8060 S   0  0  0  0  0  0  0  0  0  0  0  0
  192.7090  174.7470  141.6630 O   0  0  0  0  0  0  0  0  0  0  0  0
  192.4280  173.5780  141.4510 C   0  0  0  0  0  0  0  0  0  0  0  0
  190.9580  171.3000  138.6270 C   0  0  0  0  0  2  0  0  0  0  0  0
  188.7700  172.3210  138.2580 O   0  0  0  0  0  0  0  0  0  0  0  0
  189.4830  173.7840  140.0860 C   0  0  1  0  0  3  0  0  0  0  0  0
  192.2400  173.0930  140.0460 C   0  0  2  0  0  3  0  0  0  0  0  0
  190.8770  173.5120  139.4780 C   0  0  1  0  0  3  0  0  0  0  0  0
  191.1420  172.0730  139.9160 C   0  0  1  0  0  3  0  0  0  0  0  0
  188.4230  172.7840  139.5460 C   0  0  0  0  0  2  0  0  0  0  0  0
  189.4450  171.0910  138.4290 C   0  0  0  0  0  2  0  0  0  0  0  0
  188.4220  173.1220  142.3060 C   0  0  0  0  0  1  0  0  0  0  0  0
  188.9920  175.4880  141.8470 C   0  0  0  0  0  1  0  0  0  0  0  0
  189.3970  174.0510  141.5980 C   0  0  0  0  0  3  0  0  0  0  0  0
  1  5  1  0  0  0  0
  2  4  1  0  0  0  0
  2  6  2  0  0  0  0
  3  5  2  0  0  0  0
  4  1  2  0  0  0  0
  5 14  1  0  0  0  0
  6  3  1  0  0  0  0
  8  7  1  1  0  0  0
  8  4  1  0  0  0  0
  8 10  1  0  0  0  0
 10  9  2  0  0  0  0
 11 10  1  0  0  0  0
 12 13  1  0  0  0  0
 13 11  1  0  0  0  0
 14 15  1  0  0  0  0
 16 22  1  0  0  0  0
 17 26  2  0  0  0  0
 17 25  1  0  0  0  0
 18 16  1  0  0  0  0
 19 23  2  0  0  0  0
 20 15  1  0  0  0  0
 20 23  1  0  0  0  0
 21 16  2  0  0  0  0
 21 24  1  0  0  0  0
 22 19  1  0  0  0  0
 24 20  2  0  0  0  0
 25 21  1  0  0  0  0
 26 18  1  0  0  0  0
 27 28  1  0  0  0  0
 27 26  1  0  0  0  0
 28 30  1  0  0  0  0
 29 28  1  0  0  0  0
 31  2  1  0  0  0  0
 32 31  1  0  0  0  0
 34 33  2  0  0  0  0
 34 32  1  0  0  0  0
 35 40  1  0  0  0  0
 36 42  1  0  0  0  0
 36 41  1  0  0  0  0
 37 45  1  1  0  0  0
 38 34  1  1  0  0  0
 39 40  1  0  0  0  0
 39 38  1  0  0  0  0
 39 37  1  0  0  0  0
 40 38  1  0  0  0  0
 41 37  1  0  0  0  0
 42 35  1  0  0  0  0
 45 44  1  0  0  0  0
 45 43  1  0  0  0  0
M  END
>  <MODEL>
1

>  <REMARK>
 VINA RESULT:      -7.5      0.000      0.000
  Name = 
  13 active torsions:
  status: ('A' for Active; 'I' for Inactive)
    1  A    between atoms: C_1  and  N_15
    2  A    between atoms: C_1  and  C_26
    3  A    between atoms: C_4  and  C_10
    4  A    between atoms: C_9  and  C_28
    5  A    between atoms: C_10  and  C_44
    6  A    between atoms: C_12  and  C_37
    7  A    between atoms: N_15  and  C_29
    8  A    between atoms: C_16  and  C_33
    9  A    between atoms: N_18  and  C_42
   10  A    between atoms: C_21  and  C_35
   11  A    between atoms: C_24  and  C_33
   12  A    between atoms: C_28  and  S_39
   13  A    between atoms: C_35  and  S_39
                            x       y       z     vdW  Elec       q    Type
                         _______ _______ _______ _____ _____    ______ ____

>  <TORSDO>
F 13

$$$$
=
 OpenBabel11042415153D

 45 49  0  0  1  0  0  0  0  0999 V2000
  188.9440  174.9780  142.4950 C   0  0  0  0  0  3  0  0  0  0  0  0
  190.0430  174.8980  144.6630 C   0  0  0  0  0  0  0  0  0  0  0  0
  189.4570  172.8460  143.4910 C   0  0  0  0  0  3  0  0  0  0  0  0
  189.5050  175.6470  143.5890 C   0  0  0  0  0  0  0  0  0  0  0  0
  188.8990  173.5820  142.4470 C   0  0  0  0  0  0  0  0  0  0  0  0
  190.0240  173.4950  144.5870 C   0  0  0  0  0  3  0  0  0  0  0  0
  190.5630  177.5890  142.6210 O   0  0  0  0  0  1  0  0  0  0  0  0
  189.5710  177.1510  143.5030 C   0  0  1  0  0  3  0  0  0  0  0  0
  188.0290  178.2090  142.0080 O   0  0  0  0  0  0  0  0  0  0  0  0
  188.2380  177.7490  143.1620 C   0  0  0  0  0  0  0  0  0  0  0  0
  187.1880  177.7940  144.1270 N   0  0  0  0  0  2  0  0  0  0  0  0
  186.1570  176.9710  146.0440 O   0  0  0  0  0  1  0  0  0  0  0  0
  187.3780  177.3840  145.5080 C   0  0  0  0  0  2  0  0  0  0  0  0
  188.3350  172.8980  141.3240 N   0  0  0  0  0  2  0  0  0  0  0  0
  188.7410  173.1370  139.9420 C   0  0  0  0  0  2  0  0  0  0  0  0
  193.1760  172.2600  139.4370 C   0  0  0  0  0  0  0  0  0  0  0  0
  194.4410  174.7220  138.7020 C   0  0  0  0  0  3  0  0  0  0  0  0
  194.4850  172.4620  139.6160 C   0  0  0  0  0  2  0  0  0  0  0  0
  191.5070  170.5360  139.8510 N   0  0  0  0  0  0  0  0  0  0  0  0
  190.1080  172.5890  139.6930 C   0  0  0  0  0  0  0  0  0  0  0  0
  192.3630  173.3670  138.8890 C   0  0  0  0  0  0  0  0  0  0  0  0
  192.6970  170.9280  139.6180 N   0  0  0  0  0  2  0  0  0  0  0  0
  190.3190  171.3170  140.0270 C   0  0  0  0  0  3  0  0  0  0  0  0
  191.0500  173.4800  139.0160 C   0  0  0  0  0  3  0  0  0  0  0  0
  193.0630  174.4750  138.1570 C   0  0  0  0  0  2  0  0  0  0  0  0
  195.1170  173.7650  139.3410 C   0  0  0  0  0  0  0  0  0  0  0  0
  196.5060  174.0310  139.8050 C   0  0  0  0  0  2  0  0  0  0  0  0
  196.8130  175.5200  139.7800 C   0  0  0  0  0  3  0  0  0  0  0  0
  197.0820  175.9680  141.0730 O   0  0  0  0  0  1  0  0  0  0  0  0
  197.9270  175.7430  138.9750 O   0  0  0  0  0  1  0  0  0  0  0  0
  190.6420  175.5920  145.8560 C   0  0  0  0  0  2  0  0  0  0  0  0
  192.2060  174.8620  146.4600 S   0  0  0  0  0  0  0  0  0  0  0  0
  192.8560  176.9910  145.0280 O   0  0  0  0  0  0  0  0  0  0  0  0
  193.3010  176.0640  145.6860 C   0  0  0  0  0  0  0  0  0  0  0  0
  196.6230  174.0260  146.0460 C   0  0  0  0  0  2  0  0  0  0  0  0
  197.0340  173.3400  143.7390 O   0  0  0  0  0  0  0  0  0  0  0  0
  194.9110  174.4890  143.3400 C   0  0  1  0  0  3  0  0  0  0  0  0
  194.7810  175.8770  145.8170 C   0  0  2  0  0  3  0  0  0  0  0  0
  195.4060  175.3640  144.5130 C   0  0  1  0  0  3  0  0  0  0  0  0
  195.2050  174.4370  145.7100 C   0  0  1  0  0  3  0  0  0  0  0  0
  195.7280  173.1730  143.2280 C   0  0  0  0  0  2  0  0  0  0  0  0
  197.0140  172.8930  145.0790 C   0  0  0  0  0  2  0  0  0  0  0  0
  192.9910  172.8700  142.9110 C   0  0  0  0  0  1  0  0  0  0  0  0
  192.9030  175.1790  142.0200 C   0  0  0  0  0  1  0  0  0  0  0  0
  193.3930  174.3150  143.1630 C   0  0  0  0  0  3  0  0  0  0  0  0
  1  4  1  0  0  0  0
  2 31  1  0  0  0  0
  3  6  2  0  0  0  0
  4  2  2  0  0  0  0
  5  1  2  0  0  0  0
  5  3  1  0  0  0  0
  6  2  1  0  0  0  0
  8  7  1  6  0  0  0
  8  4  1  0  0  0  0
  9 10  2  0  0  0  0
 10  8  1  0  0  0  0
 10 11  1  0  0  0  0
 11 13  1  0  0  0  0
 13 12  1  0  0  0  0
 14  5  1  0  0  0  0
 15 14  1  0  0  0  0
 16 18  1  0  0  0  0
 16 22  1  0  0  0  0
 17 26  2  0  0  0  0
 19 23  2  0  0  0  0
 20 15  1  0  0  0  0
 20 23  1  0  0  0  0
 21 24  1  0  0  0  0
 21 16  2  0  0  0  0
 22 19  1  0  0  0  0
 24 20  2  0  0  0  0
 25 17  1  0  0  0  0
 25 21  1  0  0  0  0
 26 18  1  0  0  0  0
 26 27  1  0  0  0  0
 28 27  1  0  0  0  0
 28 29  1  0  0  0  0
 30 28  1  0  0  0  0
 31 32  1  0  0  0  0
 33 34  2  0  0  0  0
 34 32  1  0  0  0  0
 36 42  1  0  0  0  0
 37 45  1  1  0  0  0
 37 39  1  0  0  0  0
 38 34  1  6  0  0  0
 39 40  1  0  0  0  0
 39 38  1  0  0  0  0
 40 38  1  0  0  0  0
 40 35  1  0  0  0  0
 41 37  1  0  0  0  0
 41 36  1  0  0  0  0
 42 35  1  0  0  0  0
 43 45  1  0  0  0  0
 44 45  1  0  0  0  0
M  END
>  <MODEL>
2

>  <REMARK>
 VINA RESULT:      -7.2      3.358      8.949
  Name = 
  13 active torsions:
  status: ('A' for Active; 'I' for Inactive)
    1  A    between atoms: C_1  and  N_15
    2  A    between atoms: C_1  and  C_26
    3  A    between atoms: C_4  and  C_10
    4  A    between atoms: C_9  and  C_28
    5  A    between atoms: C_10  and  C_44
    6  A    between atoms: C_12  and  C_37
    7  A    between atoms: N_15  and  C_29
    8  A    between atoms: C_16  and  C_33
    9  A    between atoms: N_18  and  C_42
   10  A    between atoms: C_21  and  C_35
   11  A    between atoms: C_24  and  C_33
   12  A    between atoms: C_28  and  S_39
   13  A    between atoms: C_35  and  S_39
                            x       y       z     vdW  Elec       q    Type
                         _______ _______ _______ _____ _____    ______ ____

>  <TORSDO>
F 13

$$$$
=
 OpenBabel11042415153D

 45 49  0  0  1  0  0  0  0  0999 V2000
  189.4900  175.3090  144.7960 C   0  0  0  0  0  3  0  0  0  0  0  0
  191.5570  175.3180  143.5170 C   0  0  0  0  0  0  0  0  0  0  0  0
  190.8980  177.2630  144.8240 C   0  0  0  0  0  3  0  0  0  0  0  0
  190.3860  174.6500  143.9460 C   0  0  0  0  0  0  0  0  0  0  0  0
  189.7280  176.6180  145.2230 C   0  0  0  0  0  0  0  0  0  0  0  0
  191.8040  176.6210  143.9810 C   0  0  0  0  0  3  0  0  0  0  0  0
  189.5070  172.5280  144.6890 O   0  0  0  0  0  1  0  0  0  0  0  0
  190.0700  173.2150  143.6090 C   0  0  1  0  0  3  0  0  0  0  0  0
  188.2440  173.8990  142.2210 O   0  0  0  0  0  0  0  0  0  0  0  0
  189.2070  173.1050  142.3870 C   0  0  0  0  0  0  0  0  0  0  0  0
  189.4710  172.1150  141.3920 N   0  0  0  0  0  2  0  0  0  0  0  0
  191.7140  171.5810  141.0890 O   0  0  0  0  0  1  0  0  0  0  0  0
  190.4930  171.0960  141.5560 C   0  0  0  0  0  2  0  0  0  0  0  0
  188.8180  177.2880  146.1010 N   0  0  0  0  0  2  0  0  0  0  0  0
  187.5280  176.7360  146.5060 C   0  0  0  0  0  2  0  0  0  0  0  0
  184.1530  178.6160  144.1040 C   0  0  0  0  0  0  0  0  0  0  0  0
  184.7320  178.1550  141.3380 C   0  0  0  0  0  3  0  0  0  0  0  0
  183.2010  178.6550  143.1680 C   0  0  0  0  0  2  0  0  0  0  0  0
  184.3700  178.8440  146.5190 N   0  0  0  0  0  0  0  0  0  0  0  0
  186.4090  177.5420  145.9340 C   0  0  0  0  0  0  0  0  0  0  0  0
  185.5320  178.2750  143.6900 C   0  0  0  0  0  0  0  0  0  0  0  0
  183.8000  179.0880  145.4040 N   0  0  0  0  0  2  0  0  0  0  0  0
  185.5030  178.0110  146.7900 C   0  0  0  0  0  3  0  0  0  0  0  0
  186.4750  177.8160  144.4980 C   0  0  0  0  0  3  0  0  0  0  0  0
  185.9010  178.4210  142.2420 C   0  0  0  0  0  2  0  0  0  0  0  0
  183.4760  178.3110  141.7610 C   0  0  0  0  0  0  0  0  0  0  0  0
  182.3490  178.1020  140.8120 C   0  0  0  0  0  2  0  0  0  0  0  0
  181.0610  178.7000  141.3560 C   0  0  0  0  0  3  0  0  0  0  0  0
  180.7120  179.8260  140.6110 O   0  0  0  0  0  1  0  0  0  0  0  0
  180.0440  177.7540  141.2640 O   0  0  0  0  0  1  0  0  0  0  0  0
  192.5320  174.6370  142.5940 C   0  0  0  0  0  2  0  0  0  0  0  0
  194.2440  174.5380  143.2280 S   0  0  0  0  0  0  0  0  0  0  0  0
  193.9420  174.6190  145.8570 O   0  0  0  0  0  0  0  0  0  0  0  0
  193.8170  173.9200  144.8640 C   0  0  0  0  0  0  0  0  0  0  0  0
  193.6520  170.1170  143.9490 C   0  0  0  0  0  2  0  0  0  0  0  0
  195.6600  169.2590  145.0430 O   0  0  0  0  0  0  0  0  0  0  0  0
  195.9800  171.6140  145.6260 C   0  0  1  0  0  3  0  0  0  0  0  0
  193.3540  172.5020  144.9980 C   0  0  2  0  0  3  0  0  0  0  0  0
  194.4350  171.6070  145.6190 C   0  0  1  0  0  3  0  0  0  0  0  0
  194.1230  171.5460  144.1260 C   0  0  1  0  0  3  0  0  0  0  0  0
  196.5570  170.3440  144.9410 C   0  0  0  0  0  2  0  0  0  0  0  0
  194.9070  169.2300  143.8480 C   0  0  0  0  0  2  0  0  0  0  0  0
  197.9190  172.6960  144.3770 C   0  0  0  0  0  1  0  0  0  0  0  0
  197.1060  173.6650  146.5060 C   0  0  0  0  0  1  0  0  0  0  0  0
  196.6960  172.9220  145.2520 C   0  0  0  0  0  3  0  0  0  0  0  0
  1  5  1  0  0  0  0
  2  4  1  0  0  0  0
  2  6  2  0  0  0  0
  3  5  2  0  0  0  0
  4  1  2  0  0  0  0
  5 14  1  0  0  0  0
  6  3  1  0  0  0  0
  8  4  1  0  0  0  0
  8  7  1  1  0  0  0
  9 10  2  0  0  0  0
 10  8  1  0  0  0  0
 11 13  1  0  0  0  0
 11 10  1  0  0  0  0
 12 13  1  0  0  0  0
 14 15  1  0  0  0  0
 16 22  1  0  0  0  0
 17 26  2  0  0  0  0
 17 25  1  0  0  0  0
 18 16  1  0  0  0  0
 19 23  2  0  0  0  0
 20 15  1  0  0  0  0
 20 23  1  0  0  0  0
 21 16  2  0  0  0  0
 21 24  1  0  0  0  0
 22 19  1  0  0  0  0
 24 20  2  0  0  0  0
 25 21  1  0  0  0  0
 26 18  1  0  0  0  0
 27 28  1  0  0  0  0
 27 26  1  0  0  0  0
 29 28  1  0  0  0  0
 30 28  1  0  0  0  0
 31 32  1  0  0  0  0
 31  2  1  0  0  0  0
 32 34  1  0  0  0  0
 34 33  2  0  0  0  0
 35 40  1  0  0  0  0
 37 45  1  6  0  0  0
 38 34  1  6  0  0  0
 38 39  1  0  0  0  0
 39 37  1  0  0  0  0
 40 38  1  0  0  0  0
 40 39  1  0  0  0  0
 41 36  1  0  0  0  0
 41 37  1  0  0  0  0
 42 35  1  0  0  0  0
 42 36  1  0  0  0  0
 43 45  1  0  0  0  0
 45 44  1  0  0  0  0
M  END
>  <MODEL>
3

>  <REMARK>
 VINA RESULT:      -7.1      2.681      5.039
  Name = 
  13 active torsions:
  status: ('A' for Active; 'I' for Inactive)
    1  A    between atoms: C_1  and  N_15
    2  A    between atoms: C_1  and  C_26
    3  A    between atoms: C_4  and  C_10
    4  A    between atoms: C_9  and  C_28
    5  A    between atoms: C_10  and  C_44
    6  A    between atoms: C_12  and  C_37
    7  A    between atoms: N_15  and  C_29
    8  A    between atoms: C_16  and  C_33
    9  A    between atoms: N_18  and  C_42
   10  A    between atoms: C_21  and  C_35
   11  A    between atoms: C_24  and  C_33
   12  A    between atoms: C_28  and  S_39
   13  A    between atoms: C_35  and  S_39
                            x       y       z     vdW  Elec       q    Type
                         _______ _______ _______ _____ _____    ______ ____

>  <TORSDO>
F 13

$$$$
=
 OpenBabel11042415153D

 45 49  0  0  1  0  0  0  0  0999 V2000
  191.6450  175.1500  144.3420 C   0  0  0  0  0  3  0  0  0  0  0  0
  190.1650  176.6730  143.1570 C   0  0  0  0  0  0  0  0  0  0  0  0
  191.2370  177.3480  145.2360 C   0  0  0  0  0  3  0  0  0  0  0  0
  190.8100  175.4170  143.2500 C   0  0  0  0  0  0  0  0  0  0  0  0
  191.8480  176.1000  145.3460 C   0  0  0  0  0  0  0  0  0  0  0  0
  190.4050  177.6330  144.1540 C   0  0  0  0  0  3  0  0  0  0  0  0
  191.9020  173.6090  142.0810 O   0  0  0  0  0  1  0  0  0  0  0  0
  190.7220  174.3510  142.1870 C   0  0  1  0  0  3  0  0  0  0  0  0
  189.2660  173.0150  143.5390 O   0  0  0  0  0  0  0  0  0  0  0  0
  189.5350  173.4560  142.3900 C   0  0  0  0  0  0  0  0  0  0  0  0
  188.6890  173.1040  141.2960 N   0  0  0  0  0  2  0  0  0  0  0  0
  188.2780  174.6370  139.5950 O   0  0  0  0  0  1  0  0  0  0  0  0
  188.9870  173.4820  139.9250 C   0  0  0  0  0  2  0  0  0  0  0  0
  192.7110  175.8320  146.4550 N   0  0  0  0  0  2  0  0  0  0  0  0
  193.9890  176.5040  146.6690 C   0  0  0  0  0  2  0  0  0  0  0  0
  196.7700  174.1230  143.9680 C   0  0  0  0  0  0  0  0  0  0  0  0
  197.0440  171.5200  145.1290 C   0  0  0  0  0  3  0  0  0  0  0  0
  197.1560  173.0670  143.2480 C   0  0  0  0  0  2  0  0  0  0  0  0
  196.2970  176.4910  143.6530 N   0  0  0  0  0  0  0  0  0  0  0  0
  195.0240  175.9780  145.7290 C   0  0  0  0  0  0  0  0  0  0  0  0
  196.4300  173.9170  145.3930 C   0  0  1  0  0  3  0  0  0  0  0  0
  196.8920  175.4050  143.3520 N   0  0  0  0  0  0  0  0  0  0  0  0
  195.3190  176.7310  144.6720 C   0  0  0  0  0  3  0  0  0  0  0  0
  195.6790  174.7280  146.1200 C   0  0  0  0  0  3  0  0  0  0  0  0
  196.9380  172.6800  146.0780 C   0  0  0  0  0  2  0  0  0  0  0  0
  197.1930  171.7070  143.8170 C   0  0  0  0  0  0  0  0  0  0  0  0
  197.3630  170.5300  142.9210 C   0  0  0  0  0  2  0  0  0  0  0  0
  196.5060  170.6680  141.6720 C   0  0  0  0  0  3  0  0  0  0  0  0
  196.8650  169.6920  140.7440 O   0  0  0  0  0  1  0  0  0  0  0  0
  195.1670  170.5050  142.0170 O   0  0  0  0  0  1  0  0  0  0  0  0
  189.2540  176.9820  142.0000 C   0  0  0  0  0  2  0  0  0  0  0  0
  187.8650  178.1030  142.3980 S   0  0  0  0  0  0  0  0  0  0  0  0
  185.8270  176.4190  142.2750 O   0  0  0  0  0  0  0  0  0  0  0  0
  186.7370  176.8260  142.9790 C   0  0  0  0  0  0  0  0  0  0  0  0
  187.5930  177.0380  146.7920 C   0  0  0  0  0  2  0  0  0  0  0  0
  185.5470  178.0100  147.7050 O   0  0  0  0  0  0  0  0  0  0  0  0
  184.8770  178.0470  145.3510 C   0  0  1  0  0  3  0  0  0  0  0  0
  186.8990  176.3040  144.3740 C   0  0  2  0  0  3  0  0  0  0  0  0
  185.7720  176.7880  145.2960 C   0  0  1  0  0  3  0  0  0  0  0  0
  187.1730  177.3880  145.3800 C   0  0  1  0  0  3  0  0  0  0  0  0
  185.1110  178.8530  146.6590 C   0  0  0  0  0  2  0  0  0  0  0  0
  186.9580  178.0800  147.7320 C   0  0  0  0  0  2  0  0  0  0  0  0
  185.3200  180.3120  144.2730 C   0  0  0  0  0  1  0  0  0  0  0  0
  183.3220  178.9940  143.6380 C   0  0  0  0  0  1  0  0  0  0  0  0
  184.7680  178.9080  144.0830 C   0  0  0  0  0  3  0  0  0  0  0  0
  1  5  1  0  0  0  0
  2  4  1  0  0  0  0
  2  6  2  0  0  0  0
  3  5  2  0  0  0  0
  4  1  2  0  0  0  0
  5 14  1  0  0  0  0
  6  3  1  0  0  0  0
  8  7  1  1  0  0  0
  8 10  1  0  0  0  0
  8  4  1  0  0  0  0
 10  9  2  0  0  0  0
 11 10  1  0  0  0  0
 12 13  1  0  0  0  0
 13 11  1  0  0  0  0
 14 15  1  0  0  0  0
 16 21  1  0  0  0  0
 17 25  1  0  0  0  0
 18 26  1  0  0  0  0
 18 16  1  0  0  0  0
 19 23  2  0  0  0  0
 20 24  2  0  0  0  0
 20 15  1  0  0  0  0
 21 25  1  6  0  0  0
 21 24  1  0  0  0  0
 22 19  1  0  0  0  0
 22 16  2  0  0  0  0
 23 20  1  0  0  0  0
 26 17  2  0  0  0  0
 27 26  1  0  0  0  0
 28 30  1  0  0  0  0
 28 27  1  0  0  0  0
 29 28  1  0  0  0  0
 31 32  1  0  0  0  0
 31  2  1  0  0  0  0
 32 34  1  0  0  0  0
 33 34  2  0  0  0  0
 35 42  1  0  0  0  0
 36 42  1  0  0  0  0
 37 45  1  6  0  0  0
 37 41  1  0  0  0  0
 38 34  1  6  0  0  0
 38 39  1  0  0  0  0
 38 40  1  0  0  0  0
 39 37  1  0  0  0  0
 39 40  1  0  0  0  0
 40 35  1  0  0  0  0
 41 36  1  0  0  0  0
 44 45  1  0  0  0  0
 45 43  1  0  0  0  0
M  END
>  <MODEL>
4

>  <REMARK>
 VINA RESULT:      -7.0      3.275      9.917
  Name = 
  13 active torsions:
  status: ('A' for Active; 'I' for Inactive)
    1  A    between atoms: C_1  and  N_15
    2  A    between atoms: C_1  and  C_26
    3  A    between atoms: C_4  and  C_10
    4  A    between atoms: C_9  and  C_28
    5  A    between atoms: C_10  and  C_44
    6  A    between atoms: C_12  and  C_37
    7  A    between atoms: N_15  and  C_29
    8  A    between atoms: C_16  and  C_33
    9  A    between atoms: N_18  and  C_42
   10  A    between atoms: C_21  and  C_35
   11  A    between atoms: C_24  and  C_33
   12  A    between atoms: C_28  and  S_39
   13  A    between atoms: C_35  and  S_39
                            x       y       z     vdW  Elec       q    Type
                         _______ _______ _______ _____ _____    ______ ____

>  <TORSDO>
F 13

$$$$
=
 OpenBabel11042415153D

 45 49  0  0  1  0  0  0  0  0999 V2000
  189.2000  174.5890  143.4380 C   0  0  0  0  0  3  0  0  0  0  0  0
  190.8230  172.8960  144.0820 C   0  0  0  0  0  0  0  0  0  0  0  0
  190.6100  174.9600  145.3550 C   0  0  0  0  0  3  0  0  0  0  0  0
  189.7910  173.3390  143.2200 C   0  0  0  0  0  0  0  0  0  0  0  0
  189.6160  175.4120  144.4880 C   0  0  0  0  0  0  0  0  0  0  0  0
  191.2070  173.7160  145.1550 C   0  0  0  0  0  3  0  0  0  0  0  0
  187.8230  172.6130  142.0250 O   0  0  0  0  0  1  0  0  0  0  0  0
  189.2150  172.5020  142.1060 C   0  0  1  0  0  3  0  0  0  0  0  0
  189.6840  173.9260  140.2400 O   0  0  0  0  0  0  0  0  0  0  0  0
  189.8610  172.8050  140.7870 C   0  0  0  0  0  0  0  0  0  0  0  0
  190.6930  171.8410  140.1420 N   0  0  0  0  0  2  0  0  0  0  0  0
  191.8250  169.8250  139.8890 O   0  0  0  0  0  1  0  0  0  0  0  0
  190.8640  170.4910  140.6500 C   0  0  0  0  0  2  0  0  0  0  0  0
  189.0050  176.6850  144.7180 N   0  0  0  0  0  2  0  0  0  0  0  0
  188.1490  176.9780  145.8640 C   0  0  0  0  0  2  0  0  0  0  0  0
  184.4110  178.6830  143.9110 C   0  0  0  0  0  0  0  0  0  0  0  0
  184.6140  178.1550  141.1040 C   0  0  0  0  0  3  0  0  0  0  0  0
  183.3370  178.6650  143.1170 C   0  0  0  0  0  2  0  0  0  0  0  0
  184.9550  178.9920  146.2650 N   0  0  0  0  0  0  0  0  0  0  0  0
  186.9350  177.7330  145.4340 C   0  0  0  0  0  0  0  0  0  0  0  0
  185.7290  178.3710  143.3180 C   0  0  0  0  0  0  0  0  0  0  0  0
  184.2270  179.1840  145.2360 N   0  0  0  0  0  2  0  0  0  0  0  0
  186.1420  178.2010  146.3960 C   0  0  0  0  0  3  0  0  0  0  0  0
  186.7910  177.9650  143.9960 C   0  0  0  0  0  3  0  0  0  0  0  0
  185.8890  178.4840  141.8290 C   0  0  0  0  0  2  0  0  0  0  0  0
  183.4260  178.2870  141.6950 C   0  0  0  0  0  0  0  0  0  0  0  0
  182.1850  178.0160  140.9190 C   0  0  0  0  0  2  0  0  0  0  0  0
  180.9890  178.7230  141.5390 C   0  0  0  0  0  3  0  0  0  0  0  0
  180.7090  179.8890  140.8280 O   0  0  0  0  0  1  0  0  0  0  0  0
  179.8840  177.8780  141.4920 O   0  0  0  0  0  1  0  0  0  0  0  0
  191.4820  171.5610  143.8630 C   0  0  0  0  0  2  0  0  0  0  0  0
  193.2660  171.5140  144.2620 S   0  0  0  0  0  0  0  0  0  0  0  0
  194.2450  171.1970  141.8230 O   0  0  0  0  0  0  0  0  0  0  0  0
  193.8470  172.0180  142.6340 C   0  0  0  0  0  0  0  0  0  0  0  0
  194.1040  175.8450  143.4130 C   0  0  0  0  0  2  0  0  0  0  0  0
  196.5140  176.1340  143.6830 O   0  0  0  0  0  0  0  0  0  0  0  0
  196.5380  173.7150  143.3110 C   0  0  1  0  0  3  0  0  0  0  0  0
  193.8900  173.4790  142.3060 C   0  0  2  0  0  3  0  0  0  0  0  0
  195.3070  174.0500  142.4380 C   0  0  1  0  0  3  0  0  0  0  0  0
  194.2390  174.3380  143.4900 C   0  0  1  0  0  3  0  0  0  0  0  0
  196.9130  174.9000  144.2430 C   0  0  0  0  0  2  0  0  0  0  0  0
  195.2550  176.4510  144.2390 C   0  0  0  0  0  2  0  0  0  0  0  0
  196.9930  172.4050  145.4480 C   0  0  0  0  0  1  0  0  0  0  0  0
  197.5510  171.4310  143.2400 C   0  0  0  0  0  1  0  0  0  0  0  0
  196.5880  172.3340  143.9830 C   0  0  0  0  0  3  0  0  0  0  0  0
  1  5  1  0  0  0  0
  2  6  2  0  0  0  0
  4  1  2  0  0  0  0
  4  2  1  0  0  0  0
  5 14  1  0  0  0  0
  5  3  2  0  0  0  0
  6  3  1  0  0  0  0
  8  7  1  6  0  0  0
  8  4  1  0  0  0  0
  9 10  2  0  0  0  0
 10  8  1  0  0  0  0
 11 13  1  0  0  0  0
 11 10  1  0  0  0  0
 12 13  1  0  0  0  0
 14 15  1  0  0  0  0
 16 22  1  0  0  0  0
 17 26  2  0  0  0  0
 17 25  1  0  0  0  0
 18 16  1  0  0  0  0
 19 23  2  0  0  0  0
 20 15  1  0  0  0  0
 20 23  1  0  0  0  0
 21 16  2  0  0  0  0
 21 24  1  0  0  0  0
 22 19  1  0  0  0  0
 24 20  2  0  0  0  0
 25 21  1  0  0  0  0
 26 18  1  0  0  0  0
 27 28  1  0  0  0  0
 27 26  1  0  0  0  0
 29 28  1  0  0  0  0
 30 28  1  0  0  0  0
 31  2  1  0  0  0  0
 31 32  1  0  0  0  0
 33 34  2  0  0  0  0
 34 32  1  0  0  0  0
 35 40  1  0  0  0  0
 35 42  1  0  0  0  0
 36 42  1  0  0  0  0
 36 41  1  0  0  0  0
 37 45  1  1  0  0  0
 37 41  1  0  0  0  0
 38 39  1  0  0  0  0
 38 34  1  1  0  0  0
 38 40  1  0  0  0  0
 39 37  1  0  0  0  0
 39 40  1  0  0  0  0
 44 45  1  0  0  0  0
 45 43  1  0  0  0  0
M  END
>  <MODEL>
5

>  <REMARK>
 VINA RESULT:      -6.9      2.393      5.115
  Name = 
  13 active torsions:
  status: ('A' for Active; 'I' for Inactive)
    1  A    between atoms: C_1  and  N_15
    2  A    between atoms: C_1  and  C_26
    3  A    between atoms: C_4  and  C_10
    4  A    between atoms: C_9  and  C_28
    5  A    between atoms: C_10  and  C_44
    6  A    between atoms: C_12  and  C_37
    7  A    between atoms: N_15  and  C_29
    8  A    between atoms: C_16  and  C_33
    9  A    between atoms: N_18  and  C_42
   10  A    between atoms: C_21  and  C_35
   11  A    between atoms: C_24  and  C_33
   12  A    between atoms: C_28  and  S_39
   13  A    between atoms: C_35  and  S_39
                            x       y       z     vdW  Elec       q    Type
                         _______ _______ _______ _____ _____    ______ ____

>  <TORSDO>
F 13

$$$$
=
 OpenBabel11042415153D

 45 49  0  0  1  0  0  0  0  0999 V2000
  192.6050  173.3700  143.7780 C   0  0  0  0  0  3  0  0  0  0  0  0
  190.9790  174.2330  145.3660 C   0  0  0  0  0  0  0  0  0  0  0  0
  190.5240  172.2020  144.1030 C   0  0  0  0  0  3  0  0  0  0  0  0
  192.2370  174.3330  144.7260 C   0  0  0  0  0  0  0  0  0  0  0  0
  191.7490  172.3160  143.4480 C   0  0  0  0  0  0  0  0  0  0  0  0
  190.1420  173.1490  145.0520 C   0  0  0  0  0  3  0  0  0  0  0  0
  194.2880  174.8830  145.8740 O   0  0  0  0  0  1  0  0  0  0  0  0
  193.2650  175.3830  145.0620 C   0  0  1  0  0  3  0  0  0  0  0  0
  195.0190  175.8360  143.4960 O   0  0  0  0  0  0  0  0  0  0  0  0
  193.8210  176.0340  143.8300 C   0  0  0  0  0  0  0  0  0  0  0  0
  193.0020  176.8720  143.0140 N   0  0  0  0  0  2  0  0  0  0  0  0
  191.5570  178.6230  143.5230 O   0  0  0  0  0  1  0  0  0  0  0  0
  191.6450  177.2370  143.3830 C   0  0  0  0  0  2  0  0  0  0  0  0
  192.1310  171.3260  142.4880 N   0  0  0  0  0  2  0  0  0  0  0  0
  191.3180  170.1600  142.1590 C   0  0  0  0  0  2  0  0  0  0  0  0
  189.7040  171.4450  138.1050 C   0  0  0  0  0  0  0  0  0  0  0  0
  188.7940  174.1460  138.3800 C   0  0  0  0  0  3  0  0  0  0  0  0
  189.5660  172.2540  137.0500 C   0  0  0  0  0  2  0  0  0  0  0  0
  190.4360  169.1750  138.5990 N   0  0  0  0  0  0  0  0  0  0  0  0
  190.7170  170.3040  140.7990 C   0  0  0  0  0  0  0  0  0  0  0  0
  189.4220  171.9900  139.4510 C   0  0  1  0  0  3  0  0  0  0  0  0
  189.9360  170.0630  137.8320 N   0  0  0  0  0  0  0  0  0  0  0  0
  190.9310  169.3130  139.9350 C   0  0  0  0  0  3  0  0  0  0  0  0
  189.8710  171.4790  140.5860 C   0  0  0  0  0  3  0  0  0  0  0  0
  188.5910  173.2360  139.5580 C   0  0  0  0  0  2  0  0  0  0  0  0
  189.2040  173.6750  137.2010 C   0  0  0  0  0  0  0  0  0  0  0  0
  189.3250  174.6000  136.0420 C   0  0  0  0  0  2  0  0  0  0  0  0
  190.7770  174.7470  135.6120 C   0  0  0  0  0  3  0  0  0  0  0  0
  190.9170  175.8710  134.8000 O   0  0  0  0  0  1  0  0  0  0  0  0
  191.5760  174.8940  136.7430 O   0  0  0  0  0  1  0  0  0  0  0  0
  190.5530  175.2600  146.3810 C   0  0  0  0  0  2  0  0  0  0  0  0
  188.8090  175.1300  146.9160 S   0  0  0  0  0  0  0  0  0  0  0  0
  189.1340  177.5780  145.9600 O   0  0  0  0  0  0  0  0  0  0  0  0
  188.3160  176.7800  146.3910 C   0  0  0  0  0  0  0  0  0  0  0  0
  185.1220  178.9350  145.7020 C   0  0  0  0  0  2  0  0  0  0  0  0
  184.3250  177.9800  143.6000 O   0  0  0  0  0  0  0  0  0  0  0  0
  186.3390  176.6050  143.8140 C   0  0  1  0  0  3  0  0  0  0  0  0
  186.8820  177.1850  146.5430 C   0  0  2  0  0  3  0  0  0  0  0  0
  186.0450  176.7850  145.3210 C   0  0  1  0  0  3  0  0  0  0  0  0
  186.4580  178.2370  145.5550 C   0  0  1  0  0  3  0  0  0  0  0  0
  185.5250  177.6110  142.9530 C   0  0  0  0  0  2  0  0  0  0  0  0
  184.5800  179.1900  144.2820 C   0  0  0  0  0  2  0  0  0  0  0  0
  188.2590  177.5070  142.4030 C   0  0  0  0  0  1  0  0  0  0  0  0
  188.0050  175.0690  142.7600 C   0  0  0  0  0  1  0  0  0  0  0  0
  187.8040  176.4350  143.3820 C   0  0  0  0  0  3  0  0  0  0  0  0
  1  4  1  0  0  0  0
  2 31  1  0  0  0  0
  3  6  2  0  0  0  0
  4  8  1  0  0  0  0
  4  2  2  0  0  0  0
  5  1  2  0  0  0  0
  5  3  1  0  0  0  0
  6  2  1  0  0  0  0
  8  7  1  6  0  0  0
  9 10  2  0  0  0  0
 10  8  1  0  0  0  0
 11 13  1  0  0  0  0
 11 10  1  0  0  0  0
 13 12  1  0  0  0  0
 14  5  1  0  0  0  0
 15 14  1  0  0  0  0
 16 21  1  0  0  0  0
 17 25  1  0  0  0  0
 18 26  1  0  0  0  0
 18 16  1  0  0  0  0
 19 23  2  0  0  0  0
 20 15  1  0  0  0  0
 21 25  1  6  0  0  0
 21 24  1  0  0  0  0
 22 16  2  0  0  0  0
 22 19  1  0  0  0  0
 23 20  1  0  0  0  0
 24 20  2  0  0  0  0
 26 17  2  0  0  0  0
 27 26  1  0  0  0  0
 28 27  1  0  0  0  0
 28 30  1  0  0  0  0
 29 28  1  0  0  0  0
 31 32  1  0  0  0  0
 33 34  2  0  0  0  0
 34 32  1  0  0  0  0
 36 42  1  0  0  0  0
 37 45  1  1  0  0  0
 37 39  1  0  0  0  0
 38 34  1  6  0  0  0
 39 40  1  0  0  0  0
 39 38  1  0  0  0  0
 40 35  1  0  0  0  0
 40 38  1  0  0  0  0
 41 36  1  0  0  0  0
 41 37  1  0  0  0  0
 42 35  1  0  0  0  0
 43 45  1  0  0  0  0
 44 45  1  0  0  0  0
M  END
>  <MODEL>
6

>  <REMARK>
 VINA RESULT:      -6.7      3.372      7.827
  Name = 
  13 active torsions:
  status: ('A' for Active; 'I' for Inactive)
    1  A    between atoms: C_1  and  N_15
    2  A    between atoms: C_1  and  C_26
    3  A    between atoms: C_4  and  C_10
    4  A    between atoms: C_9  and  C_28
    5  A    between atoms: C_10  and  C_44
    6  A    between atoms: C_12  and  C_37
    7  A    between atoms: N_15  and  C_29
    8  A    between atoms: C_16  and  C_33
    9  A    between atoms: N_18  and  C_42
   10  A    between atoms: C_21  and  C_35
   11  A    between atoms: C_24  and  C_33
   12  A    between atoms: C_28  and  S_39
   13  A    between atoms: C_35  and  S_39
                            x       y       z     vdW  Elec       q    Type
                         _______ _______ _______ _____ _____    ______ ____

>  <TORSDO>
F 13

$$$$
=
 OpenBabel11042415153D

 45 49  0  0  1  0  0  0  0  0999 V2000
  194.0820  175.0290  143.4570 C   0  0  0  0  0  3  0  0  0  0  0  0
  193.8750  172.6460  143.0250 C   0  0  0  0  0  0  0  0  0  0  0  0
  193.4860  173.5420  145.2540 C   0  0  0  0  0  3  0  0  0  0  0  0
  194.1390  173.9560  142.5600 C   0  0  0  0  0  0  0  0  0  0  0  0
  193.7760  174.8290  144.8060 C   0  0  0  0  0  0  0  0  0  0  0  0
  193.5340  172.4610  144.3740 C   0  0  0  0  0  3  0  0  0  0  0  0
  193.3690  175.0460  140.5480 O   0  0  0  0  0  1  0  0  0  0  0  0
  194.4030  174.2940  141.1140 C   0  0  1  0  0  3  0  0  0  0  0  0
  195.8130  176.2250  141.0020 O   0  0  0  0  0  0  0  0  0  0  0  0
  195.7290  174.9700  140.9320 C   0  0  0  0  0  0  0  0  0  0  0  0
  196.9120  174.2070  140.6930 N   0  0  0  0  0  2  0  0  0  0  0  0
  197.2170  172.4770  139.1700 O   0  0  0  0  0  1  0  0  0  0  0  0
  196.8870  172.7690  140.4930 C   0  0  0  0  0  2  0  0  0  0  0  0
  193.7060  175.9270  145.7200 N   0  0  0  0  0  2  0  0  0  0  0  0
  192.8550  175.9430  146.9050 C   0  0  0  0  0  2  0  0  0  0  0  0
  188.7830  176.3160  144.9110 C   0  0  0  0  0  0  0  0  0  0  0  0
  189.1990  177.6030  142.3870 C   0  0  0  0  0  3  0  0  0  0  0  0
  187.9040  176.2090  143.9110 C   0  0  0  0  0  2  0  0  0  0  0  0
  189.0940  175.4990  147.1840 N   0  0  0  0  0  0  0  0  0  0  0  0
  191.4190  176.0870  146.5200 C   0  0  0  0  0  0  0  0  0  0  0  0
  190.0260  177.0830  144.6750 C   0  0  0  0  0  0  0  0  0  0  0  0
  188.3700  175.8350  146.1900 N   0  0  0  0  0  2  0  0  0  0  0  0
  190.5210  175.4810  147.2950 C   0  0  0  0  0  3  0  0  0  0  0  0
  191.1390  176.9620  145.3810 C   0  0  0  0  0  3  0  0  0  0  0  0
  190.0590  178.0560  143.5320 C   0  0  0  0  0  2  0  0  0  0  0  0
  188.1670  176.7790  142.5770 C   0  0  0  0  0  0  0  0  0  0  0  0
  187.2990  176.4090  141.4260 C   0  0  0  0  0  2  0  0  0  0  0  0
  186.9410  177.6340  140.5980 C   0  0  0  0  0  3  0  0  0  0  0  0
  186.6240  177.2470  139.2970 O   0  0  0  0  0  1  0  0  0  0  0  0
  185.8420  178.2680  141.1710 O   0  0  0  0  0  1  0  0  0  0  0  0
  193.9400  171.4720  142.0840 C   0  0  0  0  0  2  0  0  0  0  0  0
  193.0210  169.9930  142.6410 S   0  0  0  0  0  0  0  0  0  0  0  0
  190.4560  169.9970  141.9850 O   0  0  0  0  0  0  0  0  0  0  0  0
  191.5830  170.2430  141.5860 C   0  0  0  0  0  0  0  0  0  0  0  0
  190.5020  171.3900  138.0030 C   0  0  0  0  0  2  0  0  0  0  0  0
  189.9360  173.7350  138.3850 O   0  0  0  0  0  0  0  0  0  0  0  0
  190.4790  173.1730  140.7040 C   0  0  1  0  0  3  0  0  0  0  0  0
  191.7960  170.7090  140.1790 C   0  0  2  0  0  3  0  0  0  0  0  0
  191.4600  172.1980  140.0160 C   0  0  1  0  0  3  0  0  0  0  0  0
  190.5200  171.1140  139.4920 C   0  0  1  0  0  3  0  0  0  0  0  0
  189.4260  173.7210  139.7010 C   0  0  0  0  0  2  0  0  0  0  0  0
  189.5080  172.5420  137.7620 C   0  0  0  0  0  2  0  0  0  0  0  0
  188.3870  172.7770  142.1030 C   0  0  0  0  0  1  0  0  0  0  0  0
  190.4340  173.7000  143.1470 C   0  0  0  0  0  1  0  0  0  0  0  0
  189.9070  172.7710  142.0730 C   0  0  0  0  0  3  0  0  0  0  0  0
  1  5  1  0  0  0  0
  2  6  2  0  0  0  0
  4  2  1  0  0  0  0
  4  1  2  0  0  0  0
  5  3  2  0  0  0  0
  5 14  1  0  0  0  0
  6  3  1  0  0  0  0
  8  7  1  1  0  0  0
  8  4  1  0  0  0  0
 10  9  2  0  0  0  0
 10  8  1  0  0  0  0
 11 10  1  0  0  0  0
 12 13  1  0  0  0  0
 13 11  1  0  0  0  0
 14 15  1  0  0  0  0
 16 22  1  0  0  0  0
 17 26  2  0  0  0  0
 17 25  1  0  0  0  0
 18 16  1  0  0  0  0
 19 23  2  0  0  0  0
 20 15  1  0  0  0  0
 20 23  1  0  0  0  0
 21 16  2  0  0  0  0
 21 24  1  0  0  0  0
 22 19  1  0  0  0  0
 24 20  2  0  0  0  0
 25 21  1  0  0  0  0
 26 18  1  0  0  0  0
 27 26  1  0  0  0  0
 28 30  1  0  0  0  0
 28 27  1  0  0  0  0
 29 28  1  0  0  0  0
 31 32  1  0  0  0  0
 31  2  1  0  0  0  0
 34 33  2  0  0  0  0
 34 32  1  0  0  0  0
 35 40  1  0  0  0  0
 36 41  1  0  0  0  0
 37 45  1  1  0  0  0
 38 34  1  1  0  0  0
 39 38  1  0  0  0  0
 39 37  1  0  0  0  0
 40 39  1  0  0  0  0
 40 38  1  0  0  0  0
 41 37  1  0  0  0  0
 42 35  1  0  0  0  0
 42 36  1  0  0  0  0
 45 43  1  0  0  0  0
 45 44  1  0  0  0  0
M  END
>  <MODEL>
7

>  <REMARK>
 VINA RESULT:      -6.7      2.919      4.164
  Name = 
  13 active torsions:
  status: ('A' for Active; 'I' for Inactive)
    1  A    between atoms: C_1  and  N_15
    2  A    between atoms: C_1  and  C_26
    3  A    between atoms: C_4  and  C_10
    4  A    between atoms: C_9  and  C_28
    5  A    between atoms: C_10  and  C_44
    6  A    between atoms: C_12  and  C_37
    7  A    between atoms: N_15  and  C_29
    8  A    between atoms: C_16  and  C_33
    9  A    between atoms: N_18  and  C_42
   10  A    between atoms: C_21  and  C_35
   11  A    between atoms: C_24  and  C_33
   12  A    between atoms: C_28  and  S_39
   13  A    between atoms: C_35  and  S_39
                            x       y       z     vdW  Elec       q    Type
                         _______ _______ _______ _____ _____    ______ ____

>  <TORSDO>
F 13

$$$$
=
 OpenBabel11042415153D

 45 49  0  0  1  0  0  0  0  0999 V2000
  191.7000  172.9210  142.8840 C   0  0  0  0  0  3  0  0  0  0  0  0
  190.6850  173.8070  144.9080 C   0  0  0  0  0  0  0  0  0  0  0  0
  189.6860  171.9180  143.7420 C   0  0  0  0  0  3  0  0  0  0  0  0
  191.7150  173.8420  143.9380 C   0  0  0  0  0  0  0  0  0  0  0  0
  190.6820  171.9710  142.7690 C   0  0  0  0  0  0  0  0  0  0  0  0
  189.6870  172.8250  144.8010 C   0  0  0  0  0  3  0  0  0  0  0  0
  193.9500  174.3570  143.1860 O   0  0  0  0  0  1  0  0  0  0  0  0
  192.8990  174.7730  144.0090 C   0  0  1  0  0  3  0  0  0  0  0  0
  191.7280  176.4510  142.7660 O   0  0  0  0  0  0  0  0  0  0  0  0
  192.5120  176.1930  143.7170 C   0  0  0  0  0  0  0  0  0  0  0  0
  193.0110  177.2650  144.5180 N   0  0  0  0  0  2  0  0  0  0  0  0
  195.2790  177.1280  145.0130 O   0  0  0  0  0  1  0  0  0  0  0  0
  193.9990  177.0650  145.5630 C   0  0  0  0  0  2  0  0  0  0  0  0
  190.6730  171.0220  141.6980 N   0  0  0  0  0  2  0  0  0  0  0  0
  190.9980  169.6080  141.8650 C   0  0  0  0  0  2  0  0  0  0  0  0
  195.1040  169.9660  143.7910 C   0  0  0  0  0  0  0  0  0  0  0  0
  196.5890  171.8740  142.2560 C   0  0  0  0  0  3  0  0  0  0  0  0
  196.1590  170.6110  144.2970 C   0  0  0  0  0  2  0  0  0  0  0  0
  193.4310  168.3420  144.4920 N   0  0  0  0  0  0  0  0  0  0  0  0
  192.3070  169.4500  142.5670 C   0  0  0  0  0  0  0  0  0  0  0  0
  194.6740  170.2940  142.4140 C   0  0  0  0  0  0  0  0  0  0  0  0
  194.5870  168.8760  144.5540 N   0  0  0  0  0  2  0  0  0  0  0  0
  192.3160  168.6960  143.6650 C   0  0  0  0  0  3  0  0  0  0  0  0
  193.4680  170.0610  141.9190 C   0  0  0  0  0  3  0  0  0  0  0  0
  195.6530  170.9740  141.5010 C   0  0  0  0  0  2  0  0  0  0  0  0
  196.8570  171.6720  143.5470 C   0  0  0  0  0  0  0  0  0  0  0  0
  197.8430  172.5460  144.2390 C   0  0  0  0  0  2  0  0  0  0  0  0
  197.1610  173.7660  144.8400 C   0  0  0  0  0  3  0  0  0  0  0  0
  197.3670  173.7900  146.2190 O   0  0  0  0  0  1  0  0  0  0  0  0
  197.7040  174.9170  144.2740 O   0  0  0  0  0  1  0  0  0  0  0  0
  190.6700  174.7930  146.0450 C   0  0  0  0  0  2  0  0  0  0  0  0
  189.0930  174.8760  146.9660 S   0  0  0  0  0  0  0  0  0  0  0  0
  189.4870  177.2990  145.9750 O   0  0  0  0  0  0  0  0  0  0  0  0
  188.6570  176.5500  146.4660 C   0  0  0  0  0  0  0  0  0  0  0  0
  185.5930  178.9550  146.0880 C   0  0  0  0  0  2  0  0  0  0  0  0
  184.6470  178.2200  143.9590 O   0  0  0  0  0  0  0  0  0  0  0  0
  186.5680  176.7040  143.9780 C   0  0  1  0  0  3  0  0  0  0  0  0
  187.2620  177.0330  146.7140 C   0  0  2  0  0  3  0  0  0  0  0  0
  186.3500  176.7860  145.5050 C   0  0  1  0  0  3  0  0  0  0  0  0
  186.8700  178.1840  145.8280 C   0  0  1  0  0  3  0  0  0  0  0  0
  185.7910  177.8240  143.2320 C   0  0  0  0  0  2  0  0  0  0  0  0
  185.0120  179.3540  144.7180 C   0  0  0  0  0  2  0  0  0  0  0  0
  188.5190  177.6260  142.6220 C   0  0  0  0  0  1  0  0  0  0  0  0
  188.0610  175.1930  142.6600 C   0  0  0  0  0  1  0  0  0  0  0  0
  188.0000  176.4730  143.4670 C   0  0  0  0  0  3  0  0  0  0  0  0
  1  4  1  0  0  0  0
  2 31  1  0  0  0  0
  3  6  2  0  0  0  0
  4  8  1  0  0  0  0
  4  2  2  0  0  0  0
  5  1  2  0  0  0  0
  5  3  1  0  0  0  0
  6  2  1  0  0  0  0
  8  7  1  6  0  0  0
  9 10  2  0  0  0  0
 10  8  1  0  0  0  0
 10 11  1  0  0  0  0
 11 13  1  0  0  0  0
 12 13  1  0  0  0  0
 14 15  1  0  0  0  0
 14  5  1  0  0  0  0
 15 20  1  0  0  0  0
 16 18  1  0  0  0  0
 16 22  1  0  0  0  0
 17 26  2  0  0  0  0
 19 22  1  0  0  0  0
 20 23  1  0  0  0  0
 21 16  2  0  0  0  0
 23 19  2  0  0  0  0
 24 21  1  0  0  0  0
 24 20  2  0  0  0  0
 25 17  1  0  0  0  0
 25 21  1  0  0  0  0
 26 27  1  0  0  0  0
 26 18  1  0  0  0  0
 27 28  1  0  0  0  0
 28 29  1  0  0  0  0
 30 28  1  0  0  0  0
 31 32  1  0  0  0  0
 33 34  2  0  0  0  0
 34 32  1  0  0  0  0
 36 42  1  0  0  0  0
 37 45  1  1  0  0  0
 37 39  1  0  0  0  0
 38 34  1  6  0  0  0
 39 40  1  0  0  0  0
 39 38  1  0  0  0  0
 40 35  1  0  0  0  0
 40 38  1  0  0  0  0
 41 36  1  0  0  0  0
 41 37  1  0  0  0  0
 42 35  1  0  0  0  0
 43 45  1  0  0  0  0
 44 45  1  0  0  0  0
M  END
>  <MODEL>
8

>  <REMARK>
 VINA RESULT:      -6.7      3.461      9.613
  Name = 
  13 active torsions:
  status: ('A' for Active; 'I' for Inactive)
    1  A    between atoms: C_1  and  N_15
    2  A    between atoms: C_1  and  C_26
    3  A    between atoms: C_4  and  C_10
    4  A    between atoms: C_9  and  C_28
    5  A    between atoms: C_10  and  C_44
    6  A    between atoms: C_12  and  C_37
    7  A    between atoms: N_15  and  C_29
    8  A    between atoms: C_16  and  C_33
    9  A    between atoms: N_18  and  C_42
   10  A    between atoms: C_21  and  C_35
   11  A    between atoms: C_24  and  C_33
   12  A    between atoms: C_28  and  S_39
   13  A    between atoms: C_35  and  S_39
                            x       y       z     vdW  Elec       q    Type
                         _______ _______ _______ _____ _____    ______ ____

>  <TORSDO>
F 13

$$$$
=
 OpenBabel11042415153D

 45 49  0  0  1  0  0  0  0  0999 V2000
  190.3600  171.9850  140.9400 C   0  0  0  0  0  3  0  0  0  0  0  0
  189.1330  173.9610  141.6500 C   0  0  0  0  0  0  0  0  0  0  0  0
  189.5680  172.1430  143.2090 C   0  0  0  0  0  3  0  0  0  0  0  0
  189.8230  173.2440  140.6440 C   0  0  0  0  0  0  0  0  0  0  0  0
  190.2210  171.4210  142.2110 C   0  0  0  0  0  0  0  0  0  0  0  0
  189.0300  173.3990  142.9330 C   0  0  0  0  0  3  0  0  0  0  0  0
  191.4660  173.8560  138.9840 O   0  0  0  0  0  1  0  0  0  0  0  0
  190.0980  173.7900  139.2660 C   0  0  1  0  0  3  0  0  0  0  0  0
  189.7720  171.8920  137.8450 O   0  0  0  0  0  0  0  0  0  0  0  0
  189.3620  173.0260  138.2050 C   0  0  0  0  0  0  0  0  0  0  0  0
  188.1840  173.5630  137.6020 N   0  0  0  0  0  2  0  0  0  0  0  0
  187.7210  175.6610  136.7090 O   0  0  0  0  0  1  0  0  0  0  0  0
  187.7050  174.9050  137.8820 C   0  0  0  0  0  2  0  0  0  0  0  0
  190.7790  170.1400  142.5170 N   0  0  0  0  0  2  0  0  0  0  0  0
  192.2090  169.8490  142.4800 C   0  0  0  0  0  2  0  0  0  0  0  0
  193.7440  173.0450  145.3310 C   0  0  0  0  0  0  0  0  0  0  0  0
  192.5400  175.5210  144.5450 C   0  0  0  0  0  3  0  0  0  0  0  0
  193.6380  174.0760  146.1730 C   0  0  0  0  0  2  0  0  0  0  0  0
  194.5560  170.7480  145.3270 N   0  0  0  0  0  0  0  0  0  0  0  0
  192.9510  170.7370  143.4240 C   0  0  0  0  0  0  0  0  0  0  0  0
  193.1730  173.1840  143.9740 C   0  0  0  0  0  0  0  0  0  0  0  0
  194.5630  171.9520  145.7480 N   0  0  0  0  0  2  0  0  0  0  0  0
  193.7100  170.1420  144.3430 C   0  0  0  0  0  3  0  0  0  0  0  0
  192.8430  172.1760  143.1810 C   0  0  0  0  0  3  0  0  0  0  0  0
  192.9100  174.5650  143.4470 C   0  0  0  0  0  2  0  0  0  0  0  0
  192.9220  175.3120  145.8060 C   0  0  0  0  0  0  0  0  0  0  0  0
  192.5930  176.3190  146.8510 C   0  0  0  0  0  2  0  0  0  0  0  0
  191.0890  176.4280  147.0480 C   0  0  0  0  0  3  0  0  0  0  0  0
  190.5800  175.2040  147.4830 O   0  0  0  0  0  1  0  0  0  0  0  0
  190.8230  177.4030  148.0050 O   0  0  0  0  0  1  0  0  0  0  0  0
  188.5370  175.3110  141.3550 C   0  0  0  0  0  2  0  0  0  0  0  0
  187.0320  175.7090  142.3140 S   0  0  0  0  0  0  0  0  0  0  0  0
  188.6180  177.5980  143.2750 O   0  0  0  0  0  0  0  0  0  0  0  0
  187.8540  176.6950  143.5770 C   0  0  0  0  0  0  0  0  0  0  0  0
  187.4100  177.4350  147.3950 C   0  0  0  0  0  2  0  0  0  0  0  0
  185.0710  178.1300  147.4950 O   0  0  0  0  0  0  0  0  0  0  0  0
  185.1910  177.8140  145.0710 C   0  0  1  0  0  3  0  0  0  0  0  0
  187.6280  176.3530  145.0170 C   0  0  2  0  0  3  0  0  0  0  0  0
  186.2120  176.7270  145.4750 C   0  0  1  0  0  3  0  0  0  0  0  0
  187.4220  177.5630  145.8850 C   0  0  1  0  0  3  0  0  0  0  0  0
  184.8860  178.7760  146.2530 C   0  0  0  0  0  2  0  0  0  0  0  0
  186.3770  178.4430  147.9330 C   0  0  0  0  0  2  0  0  0  0  0  0
  185.5540  180.0170  143.8430 C   0  0  0  0  0  1  0  0  0  0  0  0
  184.2010  178.2180  142.8110 C   0  0  0  0  0  1  0  0  0  0  0  0
  185.3810  178.5110  143.7140 C   0  0  0  0  0  3  0  0  0  0  0  0
  1  5  1  0  0  0  0
  2  6  2  0  0  0  0
  4  1  2  0  0  0  0
  4  2  1  0  0  0  0
  5 14  1  0  0  0  0
  5  3  2  0  0  0  0
  6  3  1  0  0  0  0
  8  7  1  6  0  0  0
  8  4  1  0  0  0  0
  9 10  2  0  0  0  0
 10  8  1  0  0  0  0
 11 13  1  0  0  0  0
 11 10  1  0  0  0  0
 12 13  1  0  0  0  0
 15 14  1  0  0  0  0
 15 20  1  0  0  0  0
 16 22  1  0  0  0  0
 16 18  1  0  0  0  0
 17 26  2  0  0  0  0
 19 22  1  0  0  0  0
 20 23  1  0  0  0  0
 21 16  2  0  0  0  0
 23 19  2  0  0  0  0
 24 20  2  0  0  0  0
 24 21  1  0  0  0  0
 25 21  1  0  0  0  0
 25 17  1  0  0  0  0
 26 18  1  0  0  0  0
 26 27  1  0  0  0  0
 27 28  1  0  0  0  0
 28 29  1  0  0  0  0
 28 30  1  0  0  0  0
 31  2  1  0  0  0  0
 31 32  1  0  0  0  0
 32 34  1  0  0  0  0
 33 34  2  0  0  0  0
 35 42  1  0  0  0  0
 36 42  1  0  0  0  0
 37 45  1  6  0  0  0
 37 39  1  0  0  0  0
 37 41  1  0  0  0  0
 38 34  1  6  0  0  0
 38 39  1  0  0  0  0
 38 40  1  0  0  0  0
 39 40  1  0  0  0  0
 40 35  1  0  0  0  0
 41 36  1  0  0  0  0
 44 45  1  0  0  0  0
 45 43  1  0  0  0  0
M  END
>  <MODEL>
9

>  <REMARK>
 VINA RESULT:      -6.6      3.785      9.043
  Name = 
  13 active torsions:
  status: ('A' for Active; 'I' for Inactive)
    1  A    between atoms: C_1  and  N_15
    2  A    between atoms: C_1  and  C_26
    3  A    between atoms: C_4  and  C_10
    4  A    between atoms: C_9  and  C_28
    5  A    between atoms: C_10  and  C_44
    6  A    between atoms: C_12  and  C_37
    7  A    between atoms: N_15  and  C_29
    8  A    between atoms: C_16  and  C_33
    9  A    between atoms: N_18  and  C_42
   10  A    between atoms: C_21  and  C_35
   11  A    between atoms: C_24  and  C_33
   12  A    between atoms: C_28  and  S_39
   13  A    between atoms: C_35  and  S_39
                            x       y       z     vdW  Elec       q    Type
                         _______ _______ _______ _____ _____    ______ ____

>  <TORSDO>
F 13

$$$$
