=
 OpenBabel11042414043D

 31 35  0  0  1  0  0  0  0  0999 V2000
  187.4920  176.0600  141.7960 C   0  0  1  0  0  3  0  0  0  0  0  0
  189.7350  177.7010  143.9980 C   0  0  2  0  0  3  0  0  0  0  0  0
  187.5580  177.4330  141.2750 C   0  0  2  0  0  0  0  0  0  0  0  0
  189.6210  174.7380  142.0110 C   0  0  0  0  0  2  0  0  0  0  0  0
  190.7050  171.4620  141.2770 N   0  0  0  0  0  0  0  0  0  0  0  0
  189.8780  174.6090  146.2730 C   0  0  2  0  0  3  0  0  0  0  0  0
  191.5510  175.8460  144.9010 C   0  0  0  0  0  0  0  0  0  0  0  0
  188.2520  172.6820  141.4690 C   0  0  0  0  0  2  0  0  0  0  0  0
  189.5720  177.1500  142.5910 C   0  0  2  0  0  3  0  0  0  0  0  0
  187.8030  176.3340  140.4410 O   0  0  0  0  0  0  0  0  0  0  0  0
  189.7560  173.1980  145.7020 C   0  0  0  0  0  2  0  0  0  0  0  0
  191.3340  175.0950  146.1760 C   0  0  1  0  0  3  0  0  0  0  0  0
  188.8030  178.1480  141.7420 C   0  0  0  0  0  2  0  0  0  0  0  0
  193.0700  174.8120  143.0490 C   0  0  0  0  0  3  0  0  0  0  0  0
  189.7110  172.2200  141.5970 C   0  0  0  0  0  0  0  0  0  0  0  0
  188.8820  173.0510  143.7470 O   0  0  0  0  0  0  0  0  0  0  0  0
  190.8540  178.3520  144.0640 O   0  0  0  0  0  0  0  0  0  0  0  0
  192.3210  175.3400  143.9770 C   0  0  0  0  0  0  0  0  0  0  0  0
  190.8850  177.0890  144.6780 N   0  0  0  0  0  0  0  0  0  0  0  0
  188.7710  175.8510  142.6070 C   0  0  1  0  0  3  0  0  0  0  0  0
  189.1000  173.3600  142.3960 C   0  0  1  0  0  0  0  0  0  0  0  0
  186.0240  178.2650  140.9550 Cl  0  0  0  0  0  0  0  0  0  0  0  0
  191.7530  175.9690  147.3530 C   0  0  0  0  0  1  0  0  0  0  0  0
  190.0530  173.1820  144.3400 O   0  0  0  0  0  0  0  0  0  0  0  0
  193.2280  175.4470  141.7390 C   0  0  0  0  0  0  0  0  0  0  0  0
  192.9680  174.7420  140.5690 O   0  0  0  0  0  0  0  0  0  0  0  0
  193.5970  176.6470  141.6720 O   0  0  0  0  0  1  0  0  0  0  0  0
  192.2800  170.8330  142.9990 C   0  0  0  0  0  1  0  0  0  0  0  0
  191.9220  171.6350  141.8890 O   0  0  0  0  0  0  0  0  0  0  0  0
  189.4300  174.5880  147.5980 O   0  0  0  0  0  0  0  0  0  0  0  0
  188.2400  175.3190  147.5870 C   0  0  0  0  0  1  0  0  0  0  0  0
  1 10  1  6  0  0  0
  1 20  1  0  0  0  0
  2 17  1  6  0  0  0
  2 19  1  0  0  0  0
  3 22  1  6  0  0  0
  3 13  1  0  0  0  0
  3  1  1  0  0  0  0
  4 21  1  0  0  0  0
  5 15  2  0  0  0  0
  5 29  1  0  0  0  0
  6 30  1  1  0  0  0
  7 12  1  0  0  0  0
  8 15  1  0  0  0  0
  9 13  1  6  0  0  0
  9 20  1  0  0  0  0
  9  2  1  0  0  0  0
 10  3  1  0  0  0  0
 11  6  1  0  0  0  0
 12  6  1  0  0  0  0
 12 23  1  1  0  0  0
 14 18  2  0  0  0  0
 15 21  1  0  0  0  0
 16 24  1  0  0  0  0
 17 19  1  0  0  0  0
 18  7  2  0  0  0  0
 19  7  1  0  0  0  0
 20  4  1  6  0  0  0
 21  8  1  6  0  0  0
 21 16  1  0  0  0  0
 24 11  1  0  0  0  0
 25 14  1  0  0  0  0
 26 25  2  0  0  0  0
 27 25  1  0  0  0  0
 29 28  1  0  0  0  0
 31 30  1  0  0  0  0
M  END
>  <MODEL>
1

>  <REMARK>
 VINA RESULT:      -6.2      0.000      0.000
  Name = 
  3 active torsions:
  status: ('A' for Active; 'I' for Inactive)
    1  A    between atoms: N_5  and  O_22
    2  A    between atoms: C_6  and  O_19
    3  A    between atoms: C_8  and  C_17
                            x       y       z     vdW  Elec       q    Type
                         _______ _______ _______ _____ _____    ______ ____

>  <TORSDO>
F 3

$$$$
=
 OpenBabel11042414043D

 31 35  0  0  1  0  0  0  0  0999 V2000
  194.4810  171.1430  145.6960 C   0  0  1  0  0  3  0  0  0  0  0  0
  191.2670  171.8360  144.3680 C   0  0  2  0  0  3  0  0  0  0  0  0
  194.0590  169.8640  145.1070 C   0  0  2  0  0  0  0  0  0  0  0  0
  194.5680  173.1860  144.2320 C   0  0  0  0  0  2  0  0  0  0  0  0
  196.7940  175.8680  143.6810 N   0  0  0  0  0  0  0  0  0  0  0  0
  191.2970  175.3450  145.9320 C   0  0  2  0  0  3  0  0  0  0  0  0
  191.2150  174.4740  143.5980 C   0  0  0  0  0  0  0  0  0  0  0  0
  196.5320  173.9510  145.6300 C   0  0  0  0  0  2  0  0  0  0  0  0
  192.7160  171.5520  144.0050 C   0  0  2  0  0  3  0  0  0  0  0  0
  195.2880  170.4450  144.7640 O   0  0  0  0  0  0  0  0  0  0  0  0
  192.5970  176.1300  146.0930 C   0  0  0  0  0  2  0  0  0  0  0  0
  190.7270  175.5480  144.5180 C   0  0  1  0  0  3  0  0  0  0  0  0
  192.9730  170.0560  144.0780 C   0  0  0  0  0  2  0  0  0  0  0  0
  192.8760  175.0860  141.6820 C   0  0  0  0  0  3  0  0  0  0  0  0
  196.3450  174.9970  144.5210 C   0  0  0  0  0  0  0  0  0  0  0  0
  194.4050  174.9760  146.0150 O   0  0  0  0  0  0  0  0  0  0  0  0
  190.5580  171.8400  143.2830 O   0  0  0  0  0  0  0  0  0  0  0  0
  192.0350  174.7770  142.6290 C   0  0  0  0  0  0  0  0  0  0  0  0
  190.8200  173.1170  143.8050 N   0  0  0  0  0  0  0  0  0  0  0  0
  193.6640  172.2260  144.9920 C   0  0  1  0  0  3  0  0  0  0  0  0
  195.2110  174.2120  145.1570 C   0  0  1  0  0  0  0  0  0  0  0  0
  194.1940  168.4110  146.1160 Cl  0  0  0  0  0  0  0  0  0  0  0  0
  189.2040  175.5850  144.4860 C   0  0  0  0  0  1  0  0  0  0  0  0
  193.5830  175.6480  145.2330 O   0  0  0  0  0  0  0  0  0  0  0  0
  193.4730  174.0610  140.8230 C   0  0  0  0  0  0  0  0  0  0  0  0
  193.0110  172.7500  140.8520 O   0  0  0  0  0  1  0  0  0  0  0  0
  194.4090  174.3730  140.0440 O   0  0  0  0  0  0  0  0  0  0  0  0
  196.2710  176.7970  141.5120 C   0  0  0  0  0  1  0  0  0  0  0  0
  195.9200  176.5360  142.8580 O   0  0  0  0  0  0  0  0  0  0  0  0
  190.3990  175.7730  146.9150 O   0  0  0  0  0  0  0  0  0  0  0  0
  191.1940  176.3830  147.8890 C   0  0  0  0  0  1  0  0  0  0  0  0
  1 10  1  6  0  0  0
  2 17  1  6  0  0  0
  3  1  1  0  0  0  0
  3 22  1  1  0  0  0
  5 15  2  0  0  0  0
  6 11  1  0  0  0  0
  6 30  1  1  0  0  0
  7 19  1  0  0  0  0
  7 12  1  0  0  0  0
  9 13  1  1  0  0  0
  9  2  1  0  0  0  0
  9 20  1  0  0  0  0
 10  3  1  0  0  0  0
 12 23  1  1  0  0  0
 12  6  1  0  0  0  0
 13  3  1  0  0  0  0
 14 18  2  0  0  0  0
 15 21  1  0  0  0  0
 15  8  1  0  0  0  0
 17 19  1  0  0  0  0
 18  7  2  0  0  0  0
 19  2  1  0  0  0  0
 20  4  1  6  0  0  0
 20  1  1  0  0  0  0
 21  4  1  6  0  0  0
 21  8  1  0  0  0  0
 21 16  1  0  0  0  0
 24 16  1  0  0  0  0
 24 11  1  0  0  0  0
 25 26  1  0  0  0  0
 25 14  1  0  0  0  0
 27 25  2  0  0  0  0
 28 29  1  0  0  0  0
 29  5  1  0  0  0  0
 30 31  1  0  0  0  0
M  END
>  <MODEL>
2

>  <REMARK>
 VINA RESULT:      -6.2      3.693      6.445
  Name = 
  3 active torsions:
  status: ('A' for Active; 'I' for Inactive)
    1  A    between atoms: N_5  and  O_22
    2  A    between atoms: C_6  and  O_19
    3  A    between atoms: C_8  and  C_17
                            x       y       z     vdW  Elec       q    Type
                         _______ _______ _______ _____ _____    ______ ____

>  <TORSDO>
F 3

$$$$
=
 OpenBabel11042414043D

 31 35  0  0  1  0  0  0  0  0999 V2000
  194.7550  170.9310  144.7170 C   0  0  1  0  0  3  0  0  0  0  0  0
  196.7380  173.7970  144.0670 C   0  0  2  0  0  3  0  0  0  0  0  0
  195.8580  170.8240  145.6820 C   0  0  2  0  0  0  0  0  0  0  0  0
  193.3230  172.9990  144.7300 C   0  0  0  0  0  2  0  0  0  0  0  0
  189.8800  173.7500  144.5590 N   0  0  0  0  0  0  0  0  0  0  0  0
  194.5820  174.6860  141.0140 C   0  0  2  0  0  3  0  0  0  0  0  0
  195.0740  175.8010  143.1880 C   0  0  0  0  0  0  0  0  0  0  0  0
  191.3920  171.5150  144.0480 C   0  0  0  0  0  2  0  0  0  0  0  0
  195.7760  173.1630  145.0590 C   0  0  2  0  0  3  0  0  0  0  0  0
  194.5230  170.7650  146.1040 O   0  0  0  0  0  0  0  0  0  0  0  0
  193.0890  174.3690  140.9780 C   0  0  0  0  0  2  0  0  0  0  0  0
  194.8220  176.0250  141.7300 C   0  0  1  0  0  3  0  0  0  0  0  0
  196.5250  172.1570  145.9170 C   0  0  0  0  0  2  0  0  0  0  0  0
  193.3040  176.5950  144.9310 C   0  0  0  0  0  3  0  0  0  0  0  0
  190.8200  172.9280  144.2320 C   0  0  0  0  0  0  0  0  0  0  0  0
  192.4120  172.8830  142.3720 O   0  0  0  0  0  0  0  0  0  0  0  0
  197.2290  174.8760  144.5920 O   0  0  0  0  0  0  0  0  0  0  0  0
  194.1990  176.2090  144.0650 C   0  0  0  0  0  0  0  0  0  0  0  0
  196.2470  175.1060  143.6140 N   0  0  0  0  0  0  0  0  0  0  0  0
  194.6670  172.4080  144.3320 C   0  0  1  0  0  3  0  0  0  0  0  0
  192.2260  172.6310  143.7400 C   0  0  1  0  0  0  0  0  0  0  0  0
  196.7220  169.2760  145.7750 Cl  0  0  0  0  0  0  0  0  0  0  0  0
  195.9760  176.8240  141.1360 C   0  0  0  0  0  1  0  0  0  0  0  0
  192.5850  174.1860  142.2660 O   0  0  0  0  0  0  0  0  0  0  0  0
  193.4440  176.3030  146.3590 C   0  0  0  0  0  0  0  0  0  0  0  0
  192.3650  176.4460  147.2240 O   0  0  0  0  0  1  0  0  0  0  0  0
  194.5520  175.9110  146.8060 O   0  0  0  0  0  0  0  0  0  0  0  0
  189.3750  175.9950  145.2980 C   0  0  0  0  0  1  0  0  0  0  0  0
  190.0930  175.1040  144.4650 O   0  0  0  0  0  0  0  0  0  0  0  0
  195.0570  174.7130  139.6990 O   0  0  0  0  0  0  0  0  0  0  0  0
  193.9160  174.6220  138.9000 C   0  0  0  0  0  1  0  0  0  0  0  0
  1  3  1  0  0  0  0
  1 10  1  1  0  0  0
  2 17  1  1  0  0  0
  2  9  1  0  0  0  0
  3 22  1  1  0  0  0
  3 13  1  0  0  0  0
  3 10  1  0  0  0  0
  6 30  1  6  0  0  0
  6 12  1  0  0  0  0
  7 19  1  0  0  0  0
  7 18  2  0  0  0  0
  8 15  1  0  0  0  0
  9 13  1  1  0  0  0
 11  6  1  0  0  0  0
 11 24  1  0  0  0  0
 12 23  1  6  0  0  0
 12  7  1  0  0  0  0
 14 25  1  0  0  0  0
 15  5  2  0  0  0  0
 16 21  1  0  0  0  0
 18 14  2  0  0  0  0
 19  2  1  0  0  0  0
 19 17  1  0  0  0  0
 20  1  1  0  0  0  0
 20  4  1  1  0  0  0
 20  9  1  0  0  0  0
 21  8  1  1  0  0  0
 21 15  1  0  0  0  0
 21  4  1  0  0  0  0
 24 16  1  0  0  0  0
 25 27  2  0  0  0  0
 25 26  1  0  0  0  0
 29  5  1  0  0  0  0
 29 28  1  0  0  0  0
 31 30  1  0  0  0  0
M  END
>  <MODEL>
3

>  <REMARK>
 VINA RESULT:      -6.1      4.120      7.160
  Name = 
  3 active torsions:
  status: ('A' for Active; 'I' for Inactive)
    1  A    between atoms: N_5  and  O_22
    2  A    between atoms: C_6  and  O_19
    3  A    between atoms: C_8  and  C_17
                            x       y       z     vdW  Elec       q    Type
                         _______ _______ _______ _____ _____    ______ ____

>  <TORSDO>
F 3

$$$$
=
 OpenBabel11042414043D

 31 35  0  0  1  0  0  0  0  0999 V2000
  193.2600  171.1830  143.3700 C   0  0  1  0  0  3  0  0  0  0  0  0
  195.7980  173.2370  144.7520 C   0  0  2  0  0  3  0  0  0  0  0  0
  193.6470  170.4850  144.6050 C   0  0  2  0  0  0  0  0  0  0  0  0
  192.4650  173.5640  143.5180 C   0  0  0  0  0  2  0  0  0  0  0  0
  189.8460  175.4960  142.1550 N   0  0  0  0  0  0  0  0  0  0  0  0
  195.7850  175.4770  141.6310 C   0  0  2  0  0  3  0  0  0  0  0  0
  195.2670  175.8390  144.0420 C   0  0  0  0  0  0  0  0  0  0  0  0
  190.9370  173.0440  141.5720 C   0  0  0  0  0  2  0  0  0  0  0  0
  194.3580  172.7790  144.9160 C   0  0  2  0  0  3  0  0  0  0  0  0
  192.3070  170.8070  144.3490 O   0  0  0  0  0  0  0  0  0  0  0  0
  194.5050  175.7210  140.8350 C   0  0  0  0  0  2  0  0  0  0  0  0
  195.8670  176.4530  142.8170 C   0  0  1  0  0  3  0  0  0  0  0  0
  194.3340  171.4110  145.5770 C   0  0  0  0  0  2  0  0  0  0  0  0
  193.0370  176.7990  144.9960 C   0  0  0  0  0  3  0  0  0  0  0  0
  190.6390  174.4900  141.9930 C   0  0  0  0  0  0  0  0  0  0  0  0
  192.9260  174.3000  141.1410 O   0  0  0  0  0  0  0  0  0  0  0  0
  196.1370  173.9300  145.7940 O   0  0  0  0  0  0  0  0  0  0  0  0
  194.1600  176.3240  144.5320 C   0  0  0  0  0  0  0  0  0  0  0  0
  195.8810  174.7010  144.6470 N   0  0  0  0  0  0  0  0  0  0  0  0
  193.6750  172.6420  143.5590 C   0  0  1  0  0  3  0  0  0  0  0  0
  192.0050  173.8340  142.0920 C   0  0  1  0  0  0  0  0  0  0  0  0
  194.0160  168.7530  144.4880 Cl  0  0  0  0  0  0  0  0  0  0  0  0
  197.2900  176.9050  143.1240 C   0  0  0  0  0  1  0  0  0  0  0  0
  193.3760  175.4480  141.6070 O   0  0  0  0  0  0  0  0  0  0  0  0
  192.3480  176.1690  146.1230 C   0  0  0  0  0  0  0  0  0  0  0  0
  191.0430  176.5230  146.4480 O   0  0  0  0  0  0  0  0  0  0  0  0
  192.9400  175.2920  146.8020 O   0  0  0  0  0  1  0  0  0  0  0  0
  189.5560  177.8550  142.5960 C   0  0  0  0  0  1  0  0  0  0  0  0
  190.3330  176.6730  142.6680 O   0  0  0  0  0  0  0  0  0  0  0  0
  196.8760  175.6250  140.7670 O   0  0  0  0  0  0  0  0  0  0  0  0
  196.3760  175.3200  139.5000 C   0  0  0  0  0  1  0  0  0  0  0  0
  1 20  1  0  0  0  0
  1 10  1  1  0  0  0
  1  3  1  0  0  0  0
  2  9  1  0  0  0  0
  2 17  1  1  0  0  0
  3 22  1  6  0  0  0
  3 13  1  0  0  0  0
  5 29  1  0  0  0  0
  6 30  1  6  0  0  0
  6 12  1  0  0  0  0
  7 18  2  0  0  0  0
  7 19  1  0  0  0  0
  8 15  1  0  0  0  0
  9 13  1  6  0  0  0
 10  3  1  0  0  0  0
 11 24  1  0  0  0  0
 11  6  1  0  0  0  0
 12 23  1  1  0  0  0
 12  7  1  0  0  0  0
 14 25  1  0  0  0  0
 15 21  1  0  0  0  0
 15  5  2  0  0  0  0
 16 24  1  0  0  0  0
 16 21  1  0  0  0  0
 18 14  2  0  0  0  0
 19  2  1  0  0  0  0
 19 17  1  0  0  0  0
 20  4  1  1  0  0  0
 20  9  1  0  0  0  0
 21  8  1  6  0  0  0
 21  4  1  0  0  0  0
 25 26  2  0  0  0  0
 25 27  1  0  0  0  0
 28 29  1  0  0  0  0
 31 30  1  0  0  0  0
M  END
>  <MODEL>
4

>  <REMARK>
 VINA RESULT:      -6.1      3.635      6.795
  Name = 
  3 active torsions:
  status: ('A' for Active; 'I' for Inactive)
    1  A    between atoms: N_5  and  O_22
    2  A    between atoms: C_6  and  O_19
    3  A    between atoms: C_8  and  C_17
                            x       y       z     vdW  Elec       q    Type
                         _______ _______ _______ _____ _____    ______ ____

>  <TORSDO>
F 3

$$$$
=
 OpenBabel11042414043D

 31 35  0  0  1  0  0  0  0  0999 V2000
  188.7700  177.4750  142.2170 C   0  0  1  0  0  3  0  0  0  0  0  0
  188.6890  174.1810  140.9060 C   0  0  2  0  0  3  0  0  0  0  0  0
  187.3370  177.1510  142.1630 C   0  0  2  0  0  0  0  0  0  0  0  0
  190.3060  175.9790  143.5320 C   0  0  0  0  0  2  0  0  0  0  0  0
  192.9490  176.3830  145.8340 N   0  0  0  0  0  0  0  0  0  0  0  0
  192.4790  174.2580  140.2820 C   0  0  2  0  0  3  0  0  0  0  0  0
  190.9740  172.8860  141.7180 C   0  0  0  0  0  0  0  0  0  0  0  0
  191.6530  178.0480  144.0760 C   0  0  0  0  0  2  0  0  0  0  0  0
  188.4780  175.0140  142.1600 C   0  0  2  0  0  3  0  0  0  0  0  0
  187.9300  177.6030  143.3500 O   0  0  0  0  0  0  0  0  0  0  0  0
  193.4180  175.0380  141.2000 C   0  0  0  0  0  2  0  0  0  0  0  0
  192.2040  172.8630  140.8680 C   0  0  1  0  0  3  0  0  0  0  0  0
  187.1040  175.6620  142.1130 C   0  0  0  0  0  2  0  0  0  0  0  0
  191.1930  172.5730  144.2990 C   0  0  0  0  0  3  0  0  0  0  0  0
  192.3100  176.8830  144.8300 C   0  0  0  0  0  0  0  0  0  0  0  0
  192.5000  176.5540  142.4110 O   0  0  0  0  0  0  0  0  0  0  0  0
  188.3030  172.9670  141.1420 O   0  0  0  0  0  0  0  0  0  0  0  0
  191.0760  172.7160  143.0080 C   0  0  0  0  0  0  0  0  0  0  0  0
  189.6980  173.1360  141.1270 N   0  0  0  0  0  0  0  0  0  0  0  0
  189.5080  176.1360  142.2460 C   0  0  1  0  0  3  0  0  0  0  0  0
  191.6180  176.7500  143.4840 C   0  0  1  0  0  0  0  0  0  0  0  0
  186.2580  178.3300  141.3910 Cl  0  0  0  0  0  0  0  0  0  0  0  0
  192.0600  171.7840  139.8010 C   0  0  0  0  0  1  0  0  0  0  0  0
  192.8240  175.2760  142.4390 O   0  0  0  0  0  0  0  0  0  0  0  0
  190.0400  172.6980  145.1910 C   0  0  0  0  0  0  0  0  0  0  0  0
  189.8260  173.8610  145.9210 O   0  0  0  0  0  1  0  0  0  0  0  0
  189.2270  171.7430  145.2910 O   0  0  0  0  0  0  0  0  0  0  0  0
  194.5370  174.5990  145.4600 C   0  0  0  0  0  1  0  0  0  0  0  0
  193.2510  175.0430  145.8520 O   0  0  0  0  0  0  0  0  0  0  0  0
  193.0680  174.1780  139.0160 O   0  0  0  0  0  0  0  0  0  0  0  0
  194.2200  174.9620  139.1030 C   0  0  0  0  0  1  0  0  0  0  0  0
  1 20  1  0  0  0  0
  1 10  1  1  0  0  0
  2 19  1  0  0  0  0
  2 17  1  1  0  0  0
  2  9  1  0  0  0  0
  3 22  1  6  0  0  0
  3  1  1  0  0  0  0
  3 10  1  0  0  0  0
  5 29  1  0  0  0  0
  6 30  1  6  0  0  0
  6 12  1  0  0  0  0
  6 11  1  0  0  0  0
  7 18  2  0  0  0  0
  8 15  1  0  0  0  0
  9 13  1  6  0  0  0
  9 20  1  0  0  0  0
 11 24  1  0  0  0  0
 12 23  1  6  0  0  0
 12  7  1  0  0  0  0
 13  3  1  0  0  0  0
 14 25  1  0  0  0  0
 15  5  2  0  0  0  0
 16 24  1  0  0  0  0
 16 21  1  0  0  0  0
 18 14  2  0  0  0  0
 19 17  1  0  0  0  0
 19  7  1  0  0  0  0
 20  4  1  1  0  0  0
 21  4  1  6  0  0  0
 21  8  1  0  0  0  0
 21 15  1  0  0  0  0
 25 27  2  0  0  0  0
 25 26  1  0  0  0  0
 28 29  1  0  0  0  0
 30 31  1  0  0  0  0
M  END
>  <MODEL>
5

>  <REMARK>
 VINA RESULT:      -5.9      1.994      5.482
  Name = 
  3 active torsions:
  status: ('A' for Active; 'I' for Inactive)
    1  A    between atoms: N_5  and  O_22
    2  A    between atoms: C_6  and  O_19
    3  A    between atoms: C_8  and  C_17
                            x       y       z     vdW  Elec       q    Type
                         _______ _______ _______ _____ _____    ______ ____

>  <TORSDO>
F 3

$$$$
=
 OpenBabel11042414043D

 31 35  0  0  1  0  0  0  0  0999 V2000
  189.9430  173.8300  145.2320 C   0  0  1  0  0  3  0  0  0  0  0  0
  193.2590  174.6990  146.1400 C   0  0  2  0  0  3  0  0  0  0  0  0
  189.8270  175.2140  145.7130 C   0  0  2  0  0  0  0  0  0  0  0  0
  191.5220  173.3280  143.3400 C   0  0  0  0  0  2  0  0  0  0  0  0
  191.4570  171.4340  140.3640 N   0  0  0  0  0  0  0  0  0  0  0  0
  194.4520  171.1020  145.5090 C   0  0  2  0  0  3  0  0  0  0  0  0
  194.9790  173.3200  144.4990 C   0  0  0  0  0  0  0  0  0  0  0  0
  189.8850  171.5420  142.6130 C   0  0  0  0  0  2  0  0  0  0  0  0
  192.1580  174.9360  145.1180 C   0  0  2  0  0  3  0  0  0  0  0  0
  189.3360  174.8450  144.4530 O   0  0  0  0  0  0  0  0  0  0  0  0
  193.8160  170.2350  144.4250 C   0  0  0  0  0  2  0  0  0  0  0  0
  195.5470  171.9950  144.8990 C   0  0  1  0  0  3  0  0  0  0  0  0
  191.1540  175.9300  145.6760 C   0  0  0  0  0  2  0  0  0  0  0  0
  194.7980  173.9270  141.9690 C   0  0  0  0  0  3  0  0  0  0  0  0
  191.0090  171.5630  141.5680 C   0  0  0  0  0  0  0  0  0  0  0  0
  191.8770  170.8550  143.7450 O   0  0  0  0  0  0  0  0  0  0  0  0
  194.2250  175.5330  145.9140 O   0  0  0  0  0  0  0  0  0  0  0  0
  194.9000  173.6340  143.2360 C   0  0  0  0  0  0  0  0  0  0  0  0
  194.4880  174.2190  145.4940 N   0  0  0  0  0  0  0  0  0  0  0  0
  191.4040  173.6430  144.8240 C   0  0  1  0  0  3  0  0  0  0  0  0
  191.2060  171.8680  143.0430 C   0  0  1  0  0  0  0  0  0  0  0  0
  188.5670  175.5640  146.9130 Cl  0  0  0  0  0  0  0  0  0  0  0  0
  196.7310  172.2130  145.8330 C   0  0  0  0  0  1  0  0  0  0  0  0
  193.1580  171.0190  143.4780 O   0  0  0  0  0  0  0  0  0  0  0  0
  194.1510  175.1590  141.5170 C   0  0  0  0  0  0  0  0  0  0  0  0
  193.9040  176.2010  142.4030 O   0  0  0  0  0  1  0  0  0  0  0  0
  193.8200  175.2790  140.3090 O   0  0  0  0  0  0  0  0  0  0  0  0
  193.6760  170.5330  140.0400 C   0  0  0  0  0  1  0  0  0  0  0  0
  192.7910  171.6350  140.1050 O   0  0  0  0  0  0  0  0  0  0  0  0
  194.9670  170.2610  146.5000 O   0  0  0  0  0  0  0  0  0  0  0  0
  194.5660  168.9770  146.1290 C   0  0  0  0  0  1  0  0  0  0  0  0
  1 10  1  6  0  0  0
  1  3  1  0  0  0  0
  2 17  1  6  0  0  0
  3 22  1  1  0  0  0
  5 15  2  0  0  0  0
  6 30  1  1  0  0  0
  7 12  1  0  0  0  0
  7 19  1  0  0  0  0
  9 13  1  1  0  0  0
  9  2  1  0  0  0  0
 10  3  1  0  0  0  0
 11  6  1  0  0  0  0
 12  6  1  0  0  0  0
 12 23  1  1  0  0  0
 13  3  1  0  0  0  0
 14 18  2  0  0  0  0
 15  8  1  0  0  0  0
 15 21  1  0  0  0  0
 18  7  2  0  0  0  0
 19 17  1  0  0  0  0
 19  2  1  0  0  0  0
 20  4  1  6  0  0  0
 20  9  1  0  0  0  0
 20  1  1  0  0  0  0
 21  8  1  1  0  0  0
 21  4  1  0  0  0  0
 21 16  1  0  0  0  0
 24 16  1  0  0  0  0
 24 11  1  0  0  0  0
 25 14  1  0  0  0  0
 25 26  1  0  0  0  0
 27 25  2  0  0  0  0
 28 29  1  0  0  0  0
 29  5  1  0  0  0  0
 31 30  1  0  0  0  0
M  END
>  <MODEL>
6

>  <REMARK>
 VINA RESULT:      -5.8      3.000      4.504
  Name = 
  3 active torsions:
  status: ('A' for Active; 'I' for Inactive)
    1  A    between atoms: N_5  and  O_22
    2  A    between atoms: C_6  and  O_19
    3  A    between atoms: C_8  and  C_17
                            x       y       z     vdW  Elec       q    Type
                         _______ _______ _______ _____ _____    ______ ____

>  <TORSDO>
F 3

$$$$
=
 OpenBabel11042414043D

 31 35  0  0  1  0  0  0  0  0999 V2000
  191.0010  175.3180  144.0200 C   0  0  1  0  0  3  0  0  0  0  0  0
  193.8280  174.9390  146.1270 C   0  0  2  0  0  3  0  0  0  0  0  0
  190.9640  176.5100  144.8790 C   0  0  2  0  0  0  0  0  0  0  0  0
  193.0590  174.8760  142.6420 C   0  0  0  0  0  2  0  0  0  0  0  0
  193.7800  173.8920  139.3310 N   0  0  0  0  0  0  0  0  0  0  0  0
  194.5010  171.4310  144.7140 C   0  0  2  0  0  3  0  0  0  0  0  0
  195.7610  173.5810  144.7210 C   0  0  0  0  0  0  0  0  0  0  0  0
  191.5240  173.8790  140.8970 C   0  0  0  0  0  2  0  0  0  0  0  0
  193.2560  175.7320  144.9620 C   0  0  2  0  0  3  0  0  0  0  0  0
  190.9270  176.6270  143.4820 O   0  0  0  0  0  0  0  0  0  0  0  0
  194.1760  171.0840  143.2630 C   0  0  0  0  0  2  0  0  0  0  0  0
  195.8870  172.0930  144.8020 C   0  0  1  0  0  3  0  0  0  0  0  0
  192.3130  176.7990  145.4900 C   0  0  0  0  0  2  0  0  0  0  0  0
  196.6600  174.8300  142.6150 C   0  0  0  0  0  3  0  0  0  0  0  0
  192.9430  173.8380  140.3120 C   0  0  0  0  0  0  0  0  0  0  0  0
  192.7820  172.3870  142.2780 O   0  0  0  0  0  0  0  0  0  0  0  0
  194.9410  175.4890  146.4990 O   0  0  0  0  0  0  0  0  0  0  0  0
  196.2220  174.2120  143.6760 C   0  0  0  0  0  0  0  0  0  0  0  0
  195.1020  174.3040  145.7620 N   0  0  0  0  0  0  0  0  0  0  0  0
  192.4490  174.8280  144.0350 C   0  0  1  0  0  3  0  0  0  0  0  0
  192.6210  173.6920  141.7900 C   0  0  1  0  0  0  0  0  0  0  0  0
  189.4310  176.8950  145.6850 Cl  0  0  0  0  0  0  0  0  0  0  0  0
  196.6500  171.7200  146.0680 C   0  0  0  0  0  1  0  0  0  0  0  0
  194.0760  172.2360  142.4830 O   0  0  0  0  0  0  0  0  0  0  0  0
  196.4650  176.2690  142.4300 C   0  0  0  0  0  0  0  0  0  0  0  0
  196.8080  177.1690  143.4330 O   0  0  0  0  0  1  0  0  0  0  0  0
  195.9880  176.6970  141.3480 O   0  0  0  0  0  0  0  0  0  0  0  0
  196.0670  174.3450  138.6930 C   0  0  0  0  0  1  0  0  0  0  0  0
  195.1260  173.7590  139.5730 O   0  0  0  0  0  0  0  0  0  0  0  0
  194.4440  170.2560  145.4710 O   0  0  0  0  0  0  0  0  0  0  0  0
  193.7220  169.3550  144.6850 C   0  0  0  0  0  1  0  0  0  0  0  0
  1 10  1  6  0  0  0
  1 20  1  0  0  0  0
  1  3  1  0  0  0  0
  2 17  1  1  0  0  0
  3 13  1  0  0  0  0
  3 22  1  1  0  0  0
  5 29  1  0  0  0  0
  5 15  2  0  0  0  0
  6 12  1  0  0  0  0
  6 30  1  1  0  0  0
  7 12  1  0  0  0  0
  7 19  1  0  0  0  0
  9 13  1  1  0  0  0
  9  2  1  0  0  0  0
 10  3  1  0  0  0  0
 11  6  1  0  0  0  0
 12 23  1  1  0  0  0
 14 18  2  0  0  0  0
 15  8  1  0  0  0  0
 15 21  1  0  0  0  0
 16 24  1  0  0  0  0
 18  7  2  0  0  0  0
 19  2  1  0  0  0  0
 19 17  1  0  0  0  0
 20  4  1  6  0  0  0
 20  9  1  0  0  0  0
 21  8  1  1  0  0  0
 21 16  1  0  0  0  0
 21  4  1  0  0  0  0
 24 11  1  0  0  0  0
 25 14  1  0  0  0  0
 25 26  1  0  0  0  0
 27 25  2  0  0  0  0
 28 29  1  0  0  0  0
 31 30  1  0  0  0  0
M  END
>  <MODEL>
7

>  <REMARK>
 VINA RESULT:      -5.6      3.249      5.036
  Name = 
  3 active torsions:
  status: ('A' for Active; 'I' for Inactive)
    1  A    between atoms: N_5  and  O_22
    2  A    between atoms: C_6  and  O_19
    3  A    between atoms: C_8  and  C_17
                            x       y       z     vdW  Elec       q    Type
                         _______ _______ _______ _____ _____    ______ ____

>  <TORSDO>
F 3

$$$$
=
 OpenBabel11042414043D

 31 35  0  0  1  0  0  0  0  0999 V2000
  194.8940  175.7780  142.3410 C   0  0  1  0  0  3  0  0  0  0  0  0
  193.2870  175.3950  145.4790 C   0  0  2  0  0  3  0  0  0  0  0  0
  196.0040  175.7480  143.3050 C   0  0  2  0  0  0  0  0  0  0  0  0
  193.2950  173.8380  142.2670 C   0  0  0  0  0  2  0  0  0  0  0  0
  191.7550  171.8620  139.7830 N   0  0  0  0  0  0  0  0  0  0  0  0
  189.8350  175.7860  143.8400 C   0  0  2  0  0  3  0  0  0  0  0  0
  190.9800  173.9540  145.0830 C   0  0  0  0  0  0  0  0  0  0  0  0
  193.0950  174.2590  139.7820 C   0  0  0  0  0  2  0  0  0  0  0  0
  194.1420  174.6900  144.4370 C   0  0  2  0  0  3  0  0  0  0  0  0
  195.9830  174.8820  142.2030 O   0  0  0  0  0  0  0  0  0  0  0  0
  189.5710  175.2940  142.4190 C   0  0  0  0  0  2  0  0  0  0  0  0
  189.6680  174.6300  144.8410 C   0  0  1  0  0  3  0  0  0  0  0  0
  195.5930  175.1060  144.6070 C   0  0  0  0  0  2  0  0  0  0  0  0
  191.3460  171.5210  144.2180 C   0  0  0  0  0  3  0  0  0  0  0  0
  192.2500  173.0140  140.0880 C   0  0  0  0  0  0  0  0  0  0  0  0
  191.3080  174.9840  141.1970 O   0  0  0  0  0  0  0  0  0  0  0  0
  193.1980  174.6380  146.5270 O   0  0  0  0  0  0  0  0  0  0  0  0
  191.1640  172.7320  144.6650 C   0  0  0  0  0  0  0  0  0  0  0  0
  192.0410  174.6580  145.7290 N   0  0  0  0  0  0  0  0  0  0  0  0
  193.7160  175.0870  143.0270 C   0  0  1  0  0  3  0  0  0  0  0  0
  192.4450  174.1750  141.0490 C   0  0  1  0  0  0  0  0  0  0  0  0
  197.2200  177.0360  143.1980 Cl  0  0  0  0  0  0  0  0  0  0  0  0
  189.0750  175.0730  146.1730 C   0  0  0  0  0  1  0  0  0  0  0  0
  190.5170  174.3440  142.0350 O   0  0  0  0  0  0  0  0  0  0  0  0
  192.6440  170.8520  144.3270 C   0  0  0  0  0  0  0  0  0  0  0  0
  193.6780  171.4170  145.0650 O   0  0  0  0  0  1  0  0  0  0  0  0
  192.8220  169.7480  143.7520 O   0  0  0  0  0  0  0  0  0  0  0  0
  190.9610  169.7870  140.7360 C   0  0  0  0  0  1  0  0  0  0  0  0
  190.9550  171.2020  140.6830 O   0  0  0  0  0  0  0  0  0  0  0  0
  188.9510  176.8350  144.1140 O   0  0  0  0  0  0  0  0  0  0  0  0
  188.4440  177.2140  142.8690 C   0  0  0  0  0  1  0  0  0  0  0  0
  1 10  1  6  0  0  0
  1 20  1  0  0  0  0
  1  3  1  0  0  0  0
  2 19  1  0  0  0  0
  2 17  1  1  0  0  0
  3 22  1  1  0  0  0
  3 13  1  0  0  0  0
  5 15  2  0  0  0  0
  5 29  1  0  0  0  0
  6 30  1  1  0  0  0
  6 12  1  0  0  0  0
  7 19  1  0  0  0  0
  8 15  1  0  0  0  0
  9 13  1  1  0  0  0
  9  2  1  0  0  0  0
 10  3  1  0  0  0  0
 11  6  1  0  0  0  0
 12  7  1  0  0  0  0
 12 23  1  1  0  0  0
 14 25  1  0  0  0  0
 14 18  2  0  0  0  0
 15 21  1  0  0  0  0
 16 24  1  0  0  0  0
 18  7  2  0  0  0  0
 19 17  1  0  0  0  0
 20  4  1  6  0  0  0
 20  9  1  0  0  0  0
 21  8  1  6  0  0  0
 21 16  1  0  0  0  0
 21  4  1  0  0  0  0
 24 11  1  0  0  0  0
 25 26  1  0  0  0  0
 27 25  2  0  0  0  0
 29 28  1  0  0  0  0
 31 30  1  0  0  0  0
M  END
>  <MODEL>
8

>  <REMARK>
 VINA RESULT:      -5.5      3.011      5.186
  Name = 
  3 active torsions:
  status: ('A' for Active; 'I' for Inactive)
    1  A    between atoms: N_5  and  O_22
    2  A    between atoms: C_6  and  O_19
    3  A    between atoms: C_8  and  C_17
                            x       y       z     vdW  Elec       q    Type
                         _______ _______ _______ _____ _____    ______ ____

>  <TORSDO>
F 3

$$$$
=
 OpenBabel11042414043D

 31 35  0  0  1  0  0  0  0  0999 V2000
  194.4140  175.1170  144.5970 C   0  0  1  0  0  3  0  0  0  0  0  0
  193.1030  174.3710  141.3880 C   0  0  2  0  0  3  0  0  0  0  0  0
  195.3000  175.8430  143.6750 C   0  0  2  0  0  0  0  0  0  0  0  0
  191.9450  175.5910  144.5360 C   0  0  0  0  0  2  0  0  0  0  0  0
  189.3680  176.1430  146.8820 N   0  0  0  0  0  0  0  0  0  0  0  0
  190.6090  171.8750  142.9070 C   0  0  2  0  0  3  0  0  0  0  0  0
  190.3900  174.0100  141.6400 C   0  0  0  0  0  0  0  0  0  0  0  0
  191.9260  175.1520  147.0260 C   0  0  0  0  0  2  0  0  0  0  0  0
  193.2560  175.4640  142.4330 C   0  0  2  0  0  3  0  0  0  0  0  0
  194.6730  176.5030  144.7420 O   0  0  0  0  0  0  0  0  0  0  0  0
  190.0170  172.0930  144.2970 C   0  0  0  0  0  2  0  0  0  0  0  0
  189.7980  172.6540  141.8570 C   0  0  1  0  0  3  0  0  0  0  0  0
  194.6460  176.0690  142.3350 C   0  0  0  0  0  2  0  0  0  0  0  0
  189.0750  176.1220  142.4250 C   0  0  0  0  0  3  0  0  0  0  0  0
  190.4990  175.5700  146.6400 C   0  0  0  0  0  0  0  0  0  0  0  0
  191.0890  173.4470  145.5720 O   0  0  0  0  0  0  0  0  0  0  0  0
  192.6080  174.8910  140.3090 O   0  0  0  0  0  0  0  0  0  0  0  0
  189.7300  175.0710  142.0180 C   0  0  0  0  0  0  0  0  0  0  0  0
  191.6890  174.1420  141.0620 N   0  0  0  0  0  0  0  0  0  0  0  0
  193.1050  174.8940  143.8400 C   0  0  1  0  0  3  0  0  0  0  0  0
  191.4400  174.7960  145.7320 C   0  0  1  0  0  0  0  0  0  0  0  0
  197.0500  175.6280  143.8770 Cl  0  0  0  0  0  0  0  0  0  0  0  0
  189.6960  171.9280  140.5210 C   0  0  0  0  0  1  0  0  0  0  0  0
  190.1180  173.4300  144.6810 O   0  0  0  0  0  0  0  0  0  0  0  0
  189.6530  177.4650  142.3400 C   0  0  0  0  0  0  0  0  0  0  0  0
  190.9310  177.7230  142.8230 O   0  0  0  0  0  1  0  0  0  0  0  0
  188.9870  178.3940  141.8170 O   0  0  0  0  0  0  0  0  0  0  0  0
  187.3030  177.0490  146.0130 C   0  0  0  0  0  1  0  0  0  0  0  0
  188.3810  176.1360  145.9270 O   0  0  0  0  0  0  0  0  0  0  0  0
  190.6120  170.5020  142.6400 O   0  0  0  0  0  0  0  0  0  0  0  0
  191.9460  170.1110  142.7770 C   0  0  0  0  0  1  0  0  0  0  0  0
  1 10  1  1  0  0  0
  2 17  1  6  0  0  0
  2  9  1  0  0  0  0
  3 22  1  1  0  0  0
  3  1  1  0  0  0  0
  3 10  1  0  0  0  0
  6 30  1  6  0  0  0
  6 11  1  0  0  0  0
  7 12  1  0  0  0  0
  7 18  2  0  0  0  0
  9 13  1  1  0  0  0
  9 20  1  0  0  0  0
 11 24  1  0  0  0  0
 12 23  1  6  0  0  0
 12  6  1  0  0  0  0
 13  3  1  0  0  0  0
 15  5  2  0  0  0  0
 15  8  1  0  0  0  0
 16 21  1  0  0  0  0
 17 19  1  0  0  0  0
 18 14  2  0  0  0  0
 19  2  1  0  0  0  0
 19  7  1  0  0  0  0
 20  4  1  1  0  0  0
 20  1  1  0  0  0  0
 21  4  1  6  0  0  0
 21 15  1  0  0  0  0
 21  8  1  0  0  0  0
 24 16  1  0  0  0  0
 25 14  1  0  0  0  0
 25 26  1  0  0  0  0
 27 25  2  0  0  0  0
 29 28  1  0  0  0  0
 29  5  1  0  0  0  0
 30 31  1  0  0  0  0
M  END
>  <MODEL>
9

>  <REMARK>
 VINA RESULT:      -5.5      2.670      6.001
  Name = 
  3 active torsions:
  status: ('A' for Active; 'I' for Inactive)
    1  A    between atoms: N_5  and  O_22
    2  A    between atoms: C_6  and  O_19
    3  A    between atoms: C_8  and  C_17
                            x       y       z     vdW  Elec       q    Type
                         _______ _______ _______ _____ _____    ______ ____

>  <TORSDO>
F 3

$$$$
