=
 OpenBabel11042416073D

 34 39  0  0  1  0  0  0  0  0999 V2000
  191.3850  176.1990  142.9340 C   0  0  0  0  0  2  0  0  0  0  0  0
  191.2650  174.7360  142.4870 C   0  0  1  0  0  0  0  0  0  0  0  0
  190.8350  172.4580  143.1990 C   0  0  0  0  0  2  0  0  0  0  0  0
  190.0240  172.1150  140.8730 C   0  0  0  0  0  1  0  0  0  0  0  0
  190.2250  176.6530  143.8050 C   0  0  0  0  0  2  0  0  0  0  0  0
  191.5080  173.7500  143.6310 C   0  0  1  0  0  3  0  0  0  0  0  0
  189.8670  174.3500  141.9680 C   0  0  1  0  0  3  0  0  0  0  0  0
  189.7690  172.8430  142.1770 C   0  0  2  0  0  3  0  0  0  0  0  0
  192.2650  174.5320  141.3500 C   0  0  0  0  0  1  0  0  0  0  0  0
  188.9260  176.4540  143.0430 C   0  0  1  0  0  3  0  0  0  0  0  0
  188.7180  174.9710  142.7730 C   0  0  0  0  0  2  0  0  0  0  0  0
  184.8840  178.9260  144.5360 C   0  0  0  0  0  3  0  0  0  0  0  0
  184.0650  178.9010  145.8150 C   0  0  0  0  0  2  0  0  0  0  0  0
  187.7690  177.0300  143.8020 C   0  0  0  0  0  0  0  0  0  0  0  0
  186.3890  177.2630  145.4680 C   0  0  0  0  0  0  0  0  0  0  0  0
  187.4440  176.5970  145.1330 N   0  0  0  0  0  0  0  0  0  0  0  0
  186.9080  177.9560  143.3560 C   0  0  0  0  0  0  0  0  0  0  0  0
  185.6630  177.1740  146.7310 C   0  0  0  0  0  3  0  0  0  0  0  0
  185.9550  178.1470  144.4270 C   0  0  0  0  0  0  0  0  0  0  0  0
  184.5760  177.9430  146.8880 C   0  0  0  0  0  3  0  0  0  0  0  0
  186.1570  177.7430  141.0760 N   0  0  0  0  0  1  0  0  0  0  0  0
  186.8770  178.5940  142.0060 C   0  0  0  0  0  2  0  0  0  0  0  0
  193.5190  173.7670  145.1750 C   0  0  0  0  0  0  0  0  0  0  0  0
  192.8150  174.1770  146.1380 O   0  0  0  0  0  0  0  0  0  0  0  0
  192.9240  173.5200  143.8980 N   0  0  0  0  0  2  0  0  0  0  0  0
  197.0620  170.4240  146.0870 C   0  0  0  0  0  2  0  0  0  0  0  0
  194.9970  173.5820  145.3680 C   0  0  1  0  0  3  0  0  0  0  0  0
  196.7570  171.9240  146.0730 C   0  0  0  0  0  2  0  0  0  0  0  0
  196.0400  173.1730  142.9330 O   0  0  0  0  0  0  0  0  0  0  0  0
  194.4520  171.0500  145.1050 C   0  0  0  0  0  2  0  0  0  0  0  0
  195.4390  172.2120  145.3440 C   0  0  1  0  0  0  0  0  0  0  0  0
  195.8650  169.6620  146.5840 C   0  0  0  0  0  3  0  0  0  0  0  0
  194.6420  169.9610  146.1260 C   0  0  0  0  0  3  0  0  0  0  0  0
  195.6530  173.0420  144.0830 C   0  0  0  0  0  0  0  0  0  0  0  0
  1  5  1  0  0  0  0
  2  9  1  6  0  0  0
  2  1  1  0  0  0  0
  2  6  1  0  0  0  0
  3  6  1  0  0  0  0
  6 25  1  6  0  0  0
  7  8  1  0  0  0  0
  7  2  1  0  0  0  0
  7 11  1  1  0  0  0
  8  4  1  6  0  0  0
  8  3  1  0  0  0  0
 10 14  1  1  0  0  0
 10  5  1  0  0  0  0
 11 10  1  0  0  0  0
 12 13  1  0  0  0  0
 13 20  1  0  0  0  0
 14 16  1  0  0  0  0
 15 18  1  0  0  0  0
 16 15  2  0  0  0  0
 17 14  2  0  0  0  0
 17 19  1  0  0  0  0
 18 20  2  0  0  0  0
 19 12  2  0  0  0  0
 19 15  1  0  0  0  0
 21 22  1  0  0  0  0
 22 17  1  0  0  0  0
 23 24  2  0  0  0  0
 25 23  1  0  0  0  0
 26 32  1  0  0  0  0
 27 23  1  6  0  0  0
 28 26  1  0  0  0  0
 29 34  2  0  0  0  0
 30 33  1  0  0  0  0
 31 30  1  6  0  0  0
 31 27  1  0  0  0  0
 31 28  1  0  0  0  0
 33 32  2  0  0  0  0
 34 31  1  0  0  0  0
 34 27  1  0  0  0  0
M  END
>  <MODEL>
1

>  <REMARK>
 VINA RESULT:      -8.5      0.000      0.000
  Name = 
  4 active torsions:
  status: ('A' for Active; 'I' for Inactive)
    1  A    between atoms: C_3  and  C_14
    2  A    between atoms: C_6  and  C_27
    3  A    between atoms: C_17  and  N_29
    4  A    between atoms: C_24  and  C_28
                            x       y       z     vdW  Elec       q    Type
                         _______ _______ _______ _____ _____    ______ ____

>  <TORSDO>
F 4

$$$$
=
 OpenBabel11042416073D

 34 39  0  0  1  0  0  0  0  0999 V2000
  191.7220  175.9400  143.9250 C   0  0  0  0  0  2  0  0  0  0  0  0
  191.0230  176.4240  145.2030 C   0  0  1  0  0  0  0  0  0  0  0  0
  189.5350  175.8160  147.0190 C   0  0  0  0  0  2  0  0  0  0  0  0
  190.7570  177.5540  148.3120 C   0  0  0  0  0  1  0  0  0  0  0  0
  192.4240  174.6030  144.0990 C   0  0  0  0  0  2  0  0  0  0  0  0
  189.7700  175.6100  145.5320 C   0  0  1  0  0  3  0  0  0  0  0  0
  191.8820  176.2960  146.4750 C   0  0  1  0  0  3  0  0  0  0  0  0
  190.8800  176.2100  147.6220 C   0  0  2  0  0  3  0  0  0  0  0  0
  190.6930  177.9010  145.0000 C   0  0  0  0  0  1  0  0  0  0  0  0
  193.4360  174.7180  145.2260 C   0  0  1  0  0  3  0  0  0  0  0  0
  192.7120  175.0060  146.5320 C   0  0  0  0  0  2  0  0  0  0  0  0
  197.0650  171.3510  145.6420 C   0  0  0  0  0  3  0  0  0  0  0  0
  197.0670  169.8380  145.7850 C   0  0  0  0  0  2  0  0  0  0  0  0
  194.2590  173.4690  145.3320 C   0  0  0  0  0  0  0  0  0  0  0  0
  194.6390  171.3370  145.5340 C   0  0  0  0  0  0  0  0  0  0  0  0
  193.6560  172.1680  145.4240 N   0  0  0  0  0  0  0  0  0  0  0  0
  195.5980  173.4020  145.3840 C   0  0  0  0  0  0  0  0  0  0  0  0
  194.5450  169.8860  145.6670 C   0  0  0  0  0  3  0  0  0  0  0  0
  195.9100  171.9970  145.5280 C   0  0  0  0  0  0  0  0  0  0  0  0
  195.6860  169.1900  145.7830 C   0  0  0  0  0  3  0  0  0  0  0  0
  197.0020  174.8160  144.0270 N   0  0  0  0  0  1  0  0  0  0  0  0
  196.5660  174.5400  145.3850 C   0  0  0  0  0  2  0  0  0  0  0  0
  188.2300  175.4230  143.5270 C   0  0  0  0  0  0  0  0  0  0  0  0
  188.9080  174.4700  143.0550 O   0  0  0  0  0  0  0  0  0  0  0  0
  188.5990  176.0270  144.7690 N   0  0  0  0  0  2  0  0  0  0  0  0
  184.5990  178.7960  143.5290 C   0  0  0  0  0  2  0  0  0  0  0  0
  187.0550  175.9460  142.7530 C   0  0  1  0  0  3  0  0  0  0  0  0
  185.0720  177.4940  142.8770 C   0  0  0  0  0  2  0  0  0  0  0  0
  188.0090  177.8170  141.0870 O   0  0  0  0  0  0  0  0  0  0  0  0
  187.1820  177.9490  144.4110 C   0  0  0  0  0  2  0  0  0  0  0  0
  186.5370  177.2060  143.2220 C   0  0  1  0  0  0  0  0  0  0  0  0
  184.9300  178.7850  144.9950 C   0  0  0  0  0  3  0  0  0  0  0  0
  186.1400  178.3820  145.4060 C   0  0  0  0  0  3  0  0  0  0  0  0
  187.4310  177.2290  141.9870 C   0  0  0  0  0  0  0  0  0  0  0  0
  1  5  1  0  0  0  0
  1  2  1  0  0  0  0
  2  9  1  6  0  0  0
  2  6  1  0  0  0  0
  2  7  1  0  0  0  0
  3  8  1  0  0  0  0
  5 10  1  0  0  0  0
  6 25  1  6  0  0  0
  6  3  1  0  0  0  0
  7 11  1  6  0  0  0
  7  8  1  0  0  0  0
  8  4  1  6  0  0  0
 10 14  1  1  0  0  0
 10 11  1  0  0  0  0
 12 13  1  0  0  0  0
 14 17  2  0  0  0  0
 14 16  1  0  0  0  0
 15 18  1  0  0  0  0
 16 15  2  0  0  0  0
 17 22  1  0  0  0  0
 17 19  1  0  0  0  0
 18 20  2  0  0  0  0
 19 15  1  0  0  0  0
 19 12  2  0  0  0  0
 20 13  1  0  0  0  0
 21 22  1  0  0  0  0
 23 25  1  0  0  0  0
 24 23  2  0  0  0  0
 26 32  1  0  0  0  0
 27 31  1  0  0  0  0
 27 23  1  1  0  0  0
 28 26  1  0  0  0  0
 29 34  2  0  0  0  0
 30 33  1  0  0  0  0
 31 28  1  6  0  0  0
 31 30  1  0  0  0  0
 32 33  2  0  0  0  0
 34 27  1  0  0  0  0
 34 31  1  0  0  0  0
M  END
>  <MODEL>
2

>  <REMARK>
 VINA RESULT:      -8.4      2.477      9.568
  Name = 
  4 active torsions:
  status: ('A' for Active; 'I' for Inactive)
    1  A    between atoms: C_3  and  C_14
    2  A    between atoms: C_6  and  C_27
    3  A    between atoms: C_17  and  N_29
    4  A    between atoms: C_24  and  C_28
                            x       y       z     vdW  Elec       q    Type
                         _______ _______ _______ _____ _____    ______ ____

>  <TORSDO>
F 4

$$$$
=
 OpenBabel11042416073D

 34 39  0  0  1  0  0  0  0  0999 V2000
  191.4510  175.6720  142.1390 C   0  0  0  0  0  2  0  0  0  0  0  0
  191.5410  174.1540  142.3400 C   0  0  1  0  0  0  0  0  0  0  0  0
  191.9550  172.3700  143.9300 C   0  0  0  0  0  2  0  0  0  0  0  0
  190.4880  171.0080  142.4530 C   0  0  0  0  0  1  0  0  0  0  0  0
  190.5970  176.3630  143.1910 C   0  0  0  0  0  2  0  0  0  0  0  0
  192.4020  173.7700  143.5450 C   0  0  1  0  0  3  0  0  0  0  0  0
  190.1880  173.4780  142.6330 C   0  0  1  0  0  3  0  0  0  0  0  0
  190.5390  172.2000  143.3870 C   0  0  2  0  0  3  0  0  0  0  0  0
  192.0960  173.5630  141.0450 C   0  0  0  0  0  1  0  0  0  0  0  0
  189.2040  175.7590  143.1720 C   0  0  1  0  0  3  0  0  0  0  0  0
  189.2800  174.2910  143.5650 C   0  0  0  0  0  2  0  0  0  0  0  0
  185.8860  178.8480  145.2050 C   0  0  0  0  0  3  0  0  0  0  0  0
  185.2800  178.9530  146.5940 C   0  0  0  0  0  2  0  0  0  0  0  0
  188.2840  176.5130  144.0850 C   0  0  0  0  0  0  0  0  0  0  0  0
  187.2320  176.9620  145.9350 C   0  0  0  0  0  0  0  0  0  0  0  0
  188.1030  176.1350  145.4590 N   0  0  0  0  0  0  0  0  0  0  0  0
  187.5240  177.5670  143.7540 C   0  0  0  0  0  0  0  0  0  0  0  0
  186.7040  176.9880  147.2960 C   0  0  0  0  0  3  0  0  0  0  0  0
  186.7890  177.9060  144.9530 C   0  0  0  0  0  0  0  0  0  0  0  0
  185.7910  177.9230  147.5980 C   0  0  0  0  0  3  0  0  0  0  0  0
  186.2780  177.6050  141.6910 N   0  0  0  0  0  1  0  0  0  0  0  0
  187.3880  178.2040  142.4100 C   0  0  0  0  0  2  0  0  0  0  0  0
  194.6880  174.8610  143.6500 C   0  0  0  0  0  0  0  0  0  0  0  0
  194.2260  175.8390  144.2990 O   0  0  0  0  0  0  0  0  0  0  0  0
  193.8320  173.7860  143.2560 N   0  0  0  0  0  2  0  0  0  0  0  0
  197.8220  175.3170  139.8380 C   0  0  0  0  0  2  0  0  0  0  0  0
  196.1380  174.8540  143.2590 C   0  0  1  0  0  3  0  0  0  0  0  0
  197.7060  174.8410  141.2880 C   0  0  0  0  0  2  0  0  0  0  0  0
  197.0170  177.3700  143.5380 O   0  0  0  0  0  0  0  0  0  0  0  0
  195.2710  175.8440  141.0140 C   0  0  0  0  0  2  0  0  0  0  0  0
  196.4040  175.3370  141.9290 C   0  0  1  0  0  0  0  0  0  0  0  0
  196.5620  174.9880  139.0880 C   0  0  0  0  0  3  0  0  0  0  0  0
  195.3670  175.2300  139.6440 C   0  0  0  0  0  3  0  0  0  0  0  0
  196.6660  176.2910  143.0890 C   0  0  0  0  0  0  0  0  0  0  0  0
  1  2  1  0  0  0  0
  1  5  1  0  0  0  0
  2  9  1  6  0  0  0
  2  7  1  0  0  0  0
  2  6  1  0  0  0  0
  6 25  1  6  0  0  0
  6  3  1  0  0  0  0
  7  8  1  0  0  0  0
  7 11  1  1  0  0  0
  8  4  1  6  0  0  0
  8  3  1  0  0  0  0
 10  5  1  0  0  0  0
 10 11  1  0  0  0  0
 10 14  1  1  0  0  0
 12 13  1  0  0  0  0
 13 20  1  0  0  0  0
 14 16  1  0  0  0  0
 15 18  1  0  0  0  0
 16 15  2  0  0  0  0
 17 14  2  0  0  0  0
 17 19  1  0  0  0  0
 18 20  2  0  0  0  0
 19 12  2  0  0  0  0
 19 15  1  0  0  0  0
 21 22  1  0  0  0  0
 22 17  1  0  0  0  0
 23 24  2  0  0  0  0
 25 23  1  0  0  0  0
 26 28  1  0  0  0  0
 27 23  1  6  0  0  0
 28 31  1  0  0  0  0
 31 30  1  6  0  0  0
 31 34  1  0  0  0  0
 31 27  1  0  0  0  0
 32 33  2  0  0  0  0
 32 26  1  0  0  0  0
 33 30  1  0  0  0  0
 34 27  1  0  0  0  0
 34 29  2  0  0  0  0
M  END
>  <MODEL>
3

>  <REMARK>
 VINA RESULT:      -8.4      2.251      3.406
  Name = 
  4 active torsions:
  status: ('A' for Active; 'I' for Inactive)
    1  A    between atoms: C_3  and  C_14
    2  A    between atoms: C_6  and  C_27
    3  A    between atoms: C_17  and  N_29
    4  A    between atoms: C_24  and  C_28
                            x       y       z     vdW  Elec       q    Type
                         _______ _______ _______ _____ _____    ______ ____

>  <TORSDO>
F 4

$$$$
=
 OpenBabel11042416073D

 34 39  0  0  1  0  0  0  0  0999 V2000
  190.6320  173.8920  145.1300 C   0  0  0  0  0  2  0  0  0  0  0  0
  191.9730  174.6370  145.0770 C   0  0  1  0  0  0  0  0  0  0  0  0
  193.3770  176.1340  143.7860 C   0  0  0  0  0  2  0  0  0  0  0  0
  194.3140  176.8050  145.9900 C   0  0  0  0  0  1  0  0  0  0  0  0
  189.4440  174.7800  144.8020 C   0  0  0  0  0  2  0  0  0  0  0  0
  192.4000  174.9790  143.6480 C   0  0  1  0  0  3  0  0  0  0  0  0
  191.9610  176.0030  145.7880 C   0  0  1  0  0  3  0  0  0  0  0  0
  193.0730  176.8060  145.1210 C   0  0  2  0  0  3  0  0  0  0  0  0
  193.0050  173.7500  145.7720 C   0  0  0  0  0  1  0  0  0  0  0  0
  189.4190  175.9510  145.7680 C   0  0  1  0  0  3  0  0  0  0  0  0
  190.6670  176.7990  145.5720 C   0  0  0  0  0  2  0  0  0  0  0  0
  185.8270  178.9650  144.1250 C   0  0  0  0  0  3  0  0  0  0  0  0
  184.4440  179.3130  144.6480 C   0  0  0  0  0  3  0  0  0  0  0  0
  188.1770  176.7710  145.5810 C   0  0  0  0  0  0  0  0  0  0  0  0
  186.1780  177.5010  146.0310 C   0  0  0  0  0  0  0  0  0  0  0  0
  187.0800  176.7070  146.5070 N   0  0  0  0  0  2  0  0  0  0  0  0
  187.9220  177.6060  144.5630 C   0  0  0  0  0  0  0  0  0  0  0  0
  184.8660  177.7770  146.6080 C   0  0  0  0  0  3  0  0  0  0  0  0
  186.5920  178.1190  144.8070 C   0  0  0  0  0  0  0  0  0  0  0  0
  184.0590  178.6270  145.9560 C   0  0  0  0  0  3  0  0  0  0  0  0
  188.3260  177.1050  142.2400 N   0  0  0  0  0  1  0  0  0  0  0  0
  188.7860  177.8840  143.3760 C   0  0  0  0  0  2  0  0  0  0  0  0
  192.3430  173.0760  141.9750 C   0  0  0  0  0  0  0  0  0  0  0  0
  191.1550  173.3500  141.6550 O   0  0  0  0  0  0  0  0  0  0  0  0
  193.0290  173.8600  142.9540 N   0  0  0  0  0  2  0  0  0  0  0  0
  194.2950  168.6140  142.8950 C   0  0  0  0  0  2  0  0  0  0  0  0
  193.0210  171.8910  141.3480 C   0  0  1  0  0  3  0  0  0  0  0  0
  194.2280  169.7400  141.8610 C   0  0  0  0  0  2  0  0  0  0  0  0
  191.0730  170.2360  140.5410 O   0  0  0  0  0  0  0  0  0  0  0  0
  192.5060  170.7230  143.6170 C   0  0  0  0  0  2  0  0  0  0  0  0
  193.1040  170.7290  142.1940 C   0  0  1  0  0  0  0  0  0  0  0  0
  194.3300  169.1930  144.2820 C   0  0  0  0  0  3  0  0  0  0  0  0
  193.4950  170.1860  144.6160 C   0  0  0  0  0  3  0  0  0  0  0  0
  192.0190  170.7430  141.1230 C   0  0  0  0  0  0  0  0  0  0  0  0
  2  1  1  0  0  0  0
  2  9  1  1  0  0  0
  2  7  1  0  0  0  0
  3  8  1  0  0  0  0
  5  1  1  0  0  0  0
  5 10  1  0  0  0  0
  6 25  1  1  0  0  0
  6  3  1  0  0  0  0
  6  2  1  0  0  0  0
  7 11  1  6  0  0  0
  8  7  1  0  0  0  0
  8  4  1  1  0  0  0
 10 14  1  6  0  0  0
 11 10  1  0  0  0  0
 12 13  2  0  0  0  0
 12 19  1  0  0  0  0
 13 20  1  0  0  0  0
 14 16  1  0  0  0  0
 15 16  1  0  0  0  0
 15 18  1  0  0  0  0
 17 19  1  0  0  0  0
 17 14  2  0  0  0  0
 19 15  2  0  0  0  0
 20 18  2  0  0  0  0
 21 22  1  0  0  0  0
 22 17  1  0  0  0  0
 23 25  1  0  0  0  0
 24 23  2  0  0  0  0
 26 32  1  0  0  0  0
 27 23  1  1  0  0  0
 27 31  1  0  0  0  0
 28 26  1  0  0  0  0
 29 34  2  0  0  0  0
 30 33  1  0  0  0  0
 31 28  1  6  0  0  0
 31 30  1  0  0  0  0
 32 33  2  0  0  0  0
 34 27  1  0  0  0  0
 34 31  1  0  0  0  0
M  END
>  <MODEL>
4

>  <REMARK>
 VINA RESULT:      -8.3      2.387      3.641
  Name = 
  4 active torsions:
  status: ('A' for Active; 'I' for Inactive)
    1  A    between atoms: C_3  and  C_14
    2  A    between atoms: C_6  and  C_27
    3  A    between atoms: C_17  and  N_29
    4  A    between atoms: C_24  and  C_28
                            x       y       z     vdW  Elec       q    Type
                         _______ _______ _______ _____ _____    ______ ____

>  <TORSDO>
F 4

$$$$
=
 OpenBabel11042416073D

 34 39  0  0  1  0  0  0  0  0999 V2000
  191.2140  175.8030  142.7640 C   0  0  0  0  0  2  0  0  0  0  0  0
  190.9820  174.3880  142.2160 C   0  0  1  0  0  0  0  0  0  0  0  0
  190.3570  172.1110  142.7660 C   0  0  0  0  0  2  0  0  0  0  0  0
  189.5550  171.9940  140.4140 C   0  0  0  0  0  1  0  0  0  0  0  0
  190.0830  176.2910  143.6540 C   0  0  0  0  0  2  0  0  0  0  0  0
  191.1270  173.3100  143.2910 C   0  0  1  0  0  3  0  0  0  0  0  0
  189.5650  174.1560  141.6590 C   0  0  1  0  0  3  0  0  0  0  0  0
  189.3410  172.6510  141.7630 C   0  0  2  0  0  3  0  0  0  0  0  0
  191.9790  174.1800  141.0770 C   0  0  0  0  0  1  0  0  0  0  0  0
  188.7840  176.2510  142.8680 C   0  0  1  0  0  3  0  0  0  0  0  0
  188.4580  174.8130  142.4950 C   0  0  0  0  0  2  0  0  0  0  0  0
  184.8310  178.8180  144.4400 C   0  0  0  0  0  3  0  0  0  0  0  0
  184.0710  178.8520  145.7550 C   0  0  0  0  0  2  0  0  0  0  0  0
  187.6660  176.8690  143.6550 C   0  0  0  0  0  0  0  0  0  0  0  0
  186.3660  177.1820  145.3700 C   0  0  0  0  0  0  0  0  0  0  0  0
  187.3990  176.4920  145.0160 N   0  0  0  0  0  0  0  0  0  0  0  0
  186.7920  177.7830  143.2100 C   0  0  0  0  0  0  0  0  0  0  0  0
  185.6970  177.1500  146.6680 C   0  0  0  0  0  3  0  0  0  0  0  0
  185.8900  178.0260  144.3150 C   0  0  0  0  0  0  0  0  0  0  0  0
  184.6240  177.9350  146.8420 C   0  0  0  0  0  3  0  0  0  0  0  0
  185.7290  177.6300  141.0530 N   0  0  0  0  0  1  0  0  0  0  0  0
  186.7040  178.3660  141.8380 C   0  0  0  0  0  2  0  0  0  0  0  0
  193.2200  173.3850  144.7200 C   0  0  0  0  0  0  0  0  0  0  0  0
  192.6410  174.0940  145.5870 O   0  0  0  0  0  0  0  0  0  0  0  0
  192.5160  172.9470  143.5560 N   0  0  0  0  0  2  0  0  0  0  0  0
  197.7600  173.9980  142.8280 C   0  0  0  0  0  2  0  0  0  0  0  0
  194.6710  173.0390  144.8990 C   0  0  1  0  0  3  0  0  0  0  0  0
  196.9330  173.1500  143.7970 C   0  0  0  0  0  2  0  0  0  0  0  0
  195.7120  174.9150  146.5040 O   0  0  0  0  0  0  0  0  0  0  0  0
  195.0700  174.9120  143.1370 C   0  0  0  0  0  2  0  0  0  0  0  0
  195.5780  173.8060  144.0850 C   0  0  1  0  0  0  0  0  0  0  0  0
  196.9360  174.3450  141.6190 C   0  0  0  0  0  3  0  0  0  0  0  0
  195.6730  174.7680  141.7660 C   0  0  0  0  0  3  0  0  0  0  0  0
  195.4360  174.2060  145.5500 C   0  0  0  0  0  0  0  0  0  0  0  0
  1  5  1  0  0  0  0
  2  9  1  6  0  0  0
  2  1  1  0  0  0  0
  2  6  1  0  0  0  0
  3  6  1  0  0  0  0
  6 25  1  6  0  0  0
  7  8  1  0  0  0  0
  7  2  1  0  0  0  0
  7 11  1  1  0  0  0
  8  4  1  6  0  0  0
  8  3  1  0  0  0  0
 10  5  1  0  0  0  0
 10 14  1  1  0  0  0
 11 10  1  0  0  0  0
 12 13  1  0  0  0  0
 13 20  1  0  0  0  0
 14 16  1  0  0  0  0
 15 18  1  0  0  0  0
 16 15  2  0  0  0  0
 17 14  2  0  0  0  0
 17 19  1  0  0  0  0
 18 20  2  0  0  0  0
 19 12  2  0  0  0  0
 19 15  1  0  0  0  0
 21 22  1  0  0  0  0
 22 17  1  0  0  0  0
 23 24  2  0  0  0  0
 25 23  1  0  0  0  0
 26 28  1  0  0  0  0
 27 23  1  6  0  0  0
 27 34  1  0  0  0  0
 28 31  1  0  0  0  0
 31 30  1  6  0  0  0
 31 27  1  0  0  0  0
 31 34  1  0  0  0  0
 32 33  2  0  0  0  0
 32 26  1  0  0  0  0
 33 30  1  0  0  0  0
 34 29  2  0  0  0  0
M  END
>  <MODEL>
5

>  <REMARK>
 VINA RESULT:      -8.3      1.474      2.237
  Name = 
  4 active torsions:
  status: ('A' for Active; 'I' for Inactive)
    1  A    between atoms: C_3  and  C_14
    2  A    between atoms: C_6  and  C_27
    3  A    between atoms: C_17  and  N_29
    4  A    between atoms: C_24  and  C_28
                            x       y       z     vdW  Elec       q    Type
                         _______ _______ _______ _____ _____    ______ ____

>  <TORSDO>
F 4

$$$$
=
 OpenBabel11042416073D

 34 39  0  0  1  0  0  0  0  0999 V2000
  192.0500  176.1820  144.7460 C   0  0  0  0  0  2  0  0  0  0  0  0
  191.0350  175.0320  144.7010 C   0  0  1  0  0  0  0  0  0  0  0  0
  189.2730  173.9720  143.4150 C   0  0  0  0  0  2  0  0  0  0  0  0
  189.9610  171.8930  144.5950 C   0  0  0  0  0  1  0  0  0  0  0  0
  192.8550  176.3180  143.4640 C   0  0  0  0  0  2  0  0  0  0  0  0
  189.8500  175.3290  143.7800 C   0  0  1  0  0  3  0  0  0  0  0  0
  191.6050  173.7140  144.1430 C   0  0  1  0  0  3  0  0  0  0  0  0
  190.3950  172.9560  143.6060 C   0  0  2  0  0  3  0  0  0  0  0  0
  190.5790  174.7800  146.1360 C   0  0  0  0  0  1  0  0  0  0  0  0
  193.5750  175.0090  143.1910 C   0  0  1  0  0  3  0  0  0  0  0  0
  192.5540  173.9070  142.9520 C   0  0  0  0  0  2  0  0  0  0  0  0
  197.4610  175.6380  140.1600 C   0  0  0  0  0  3  0  0  0  0  0  0
  197.6350  175.5150  138.6560 C   0  0  0  0  0  3  0  0  0  0  0  0
  194.5030  175.1450  142.0210 C   0  0  0  0  0  0  0  0  0  0  0  0
  195.1090  175.0740  139.9330 C   0  0  0  0  0  0  0  0  0  0  0  0
  194.0650  174.9020  140.6740 N   0  0  0  0  0  0  0  0  0  0  0  0
  195.8040  175.4640  142.0720 C   0  0  2  0  0  3  0  0  0  0  0  0
  195.1840  174.9340  138.4820 C   0  0  0  0  0  3  0  0  0  0  0  0
  196.2670  175.4240  140.7010 C   0  0  0  0  0  0  0  0  0  0  0  0
  196.3690  175.1420  137.8900 C   0  0  0  0  0  3  0  0  0  0  0  0
  196.8400  177.1470  143.4520 N   0  0  0  0  0  1  0  0  0  0  0  0
  196.6310  175.7190  143.2890 C   0  0  0  0  0  2  0  0  0  0  0  0
  188.4590  177.4450  143.8970 C   0  0  0  0  0  0  0  0  0  0  0  0
  188.9960  177.8930  142.8480 O   0  0  0  0  0  0  0  0  0  0  0  0
  188.8310  176.1620  144.4080 N   0  0  0  0  0  2  0  0  0  0  0  0
  183.7520  178.9950  143.8990 C   0  0  0  0  0  2  0  0  0  0  0  0
  187.4550  178.2870  144.6310 C   0  0  1  0  0  3  0  0  0  0  0  0
  185.1380  179.2650  144.4890 C   0  0  0  0  0  2  0  0  0  0  0  0
  186.3310  176.7030  146.4760 O   0  0  0  0  0  0  0  0  0  0  0  0
  185.7170  177.0700  143.1240 C   0  0  0  0  0  2  0  0  0  0  0  0
  186.0900  178.0940  144.2170 C   0  0  1  0  0  0  0  0  0  0  0  0
  183.8780  178.5830  142.4590 C   0  0  0  0  0  3  0  0  0  0  0  0
  184.8040  177.6840  142.0970 C   0  0  0  0  0  3  0  0  0  0  0  0
  186.5380  177.4110  145.5040 C   0  0  0  0  0  0  0  0  0  0  0  0
  2  1  1  0  0  0  0
  2  9  1  1  0  0  0
  3  8  1  0  0  0  0
  3  6  1  0  0  0  0
  5  1  1  0  0  0  0
  6 25  1  1  0  0  0
  6  2  1  0  0  0  0
  7 11  1  6  0  0  0
  7  2  1  0  0  0  0
  8  7  1  0  0  0  0
  8  4  1  1  0  0  0
 10 14  1  6  0  0  0
 10  5  1  0  0  0  0
 11 10  1  0  0  0  0
 12 19  1  0  0  0  0
 13 12  2  0  0  0  0
 14 17  1  0  0  0  0
 15 16  1  0  0  0  0
 15 19  2  0  0  0  0
 16 14  2  0  0  0  0
 17 22  1  1  0  0  0
 18 15  1  0  0  0  0
 19 17  1  0  0  0  0
 20 18  2  0  0  0  0
 20 13  1  0  0  0  0
 22 21  1  0  0  0  0
 23 25  1  0  0  0  0
 24 23  2  0  0  0  0
 26 28  1  0  0  0  0
 27 23  1  6  0  0  0
 27 34  1  0  0  0  0
 31 30  1  6  0  0  0
 31 28  1  0  0  0  0
 31 27  1  0  0  0  0
 31 34  1  0  0  0  0
 32 26  1  0  0  0  0
 33 32  2  0  0  0  0
 33 30  1  0  0  0  0
 34 29  2  0  0  0  0
M  END
>  <MODEL>
6

>  <REMARK>
 VINA RESULT:      -8.0      3.321      9.578
  Name = 
  4 active torsions:
  status: ('A' for Active; 'I' for Inactive)
    1  A    between atoms: C_3  and  C_14
    2  A    between atoms: C_6  and  C_27
    3  A    between atoms: C_17  and  N_29
    4  A    between atoms: C_24  and  C_28
                            x       y       z     vdW  Elec       q    Type
                         _______ _______ _______ _____ _____    ______ ____

>  <TORSDO>
F 4

$$$$
=
 OpenBabel11042416073D

 34 39  0  0  1  0  0  0  0  0999 V2000
  192.8960  173.8810  145.3970 C   0  0  0  0  0  2  0  0  0  0  0  0
  194.1240  174.3570  144.6090 C   0  0  1  0  0  0  0  0  0  0  0  0
  195.0800  174.6820  142.4040 C   0  0  0  0  0  2  0  0  0  0  0  0
  196.4090  176.4860  143.4850 C   0  0  0  0  0  1  0  0  0  0  0  0
  191.5910  174.4640  144.8780 C   0  0  0  0  0  2  0  0  0  0  0  0
  194.2000  173.7420  143.2100 C   0  0  1  0  0  3  0  0  0  0  0  0
  194.1460  175.8730  144.3380 C   0  0  1  0  0  3  0  0  0  0  0  0
  195.0140  176.0400  143.0950 C   0  0  2  0  0  3  0  0  0  0  0  0
  195.3540  174.0060  145.4420 C   0  0  0  0  0  1  0  0  0  0  0  0
  191.6750  175.9800  144.9240 C   0  0  1  0  0  3  0  0  0  0  0  0
  192.7720  176.4580  143.9860 C   0  0  0  0  0  2  0  0  0  0  0  0
  187.1210  177.9670  144.9130 C   0  0  0  0  0  3  0  0  0  0  0  0
  186.2610  178.5860  143.8240 C   0  0  0  0  0  3  0  0  0  0  0  0
  190.3550  176.5970  144.5680 C   0  0  0  0  0  0  0  0  0  0  0  0
  188.8660  177.5240  143.2820 C   0  0  0  0  0  0  0  0  0  0  0  0
  190.0510  177.0130  143.2260 N   0  0  0  0  0  0  0  0  0  0  0  0
  189.3470  176.8590  145.4110 C   0  0  2  0  0  3  0  0  0  0  0  0
  188.1100  178.0990  142.1730 C   0  0  0  0  0  3  0  0  0  0  0  0
  188.3220  177.4890  144.6070 C   0  0  0  0  0  0  0  0  0  0  0  0
  186.8910  178.5940  142.4340 C   0  0  0  0  0  3  0  0  0  0  0  0
  188.8380  175.2910  147.1700 N   0  0  0  0  0  1  0  0  0  0  0  0
  189.3140  176.6340  146.8880 C   0  0  0  0  0  2  0  0  0  0  0  0
  193.9480  171.2220  143.0950 C   0  0  0  0  0  0  0  0  0  0  0  0
  192.6970  171.3220  142.9660 O   0  0  0  0  0  0  0  0  0  0  0  0
  194.7590  172.3940  143.2070 N   0  0  0  0  0  2  0  0  0  0  0  0
  196.5730  168.1660  145.9800 C   0  0  0  0  0  2  0  0  0  0  0  0
  194.5750  169.8600  143.1710 C   0  0  1  0  0  3  0  0  0  0  0  0
  196.1140  168.4100  144.5410 C   0  0  0  0  0  2  0  0  0  0  0  0
  192.6920  168.2030  144.1140 O   0  0  0  0  0  0  0  0  0  0  0  0
  194.7960  170.3870  145.7100 C   0  0  0  0  0  2  0  0  0  0  0  0
  195.0060  169.4690  144.4880 C   0  0  1  0  0  0  0  0  0  0  0  0
  196.8940  169.4750  146.6450 C   0  0  0  0  0  3  0  0  0  0  0  0
  196.0630  170.5170  146.5120 C   0  0  0  0  0  3  0  0  0  0  0  0
  193.6890  168.8930  143.9800 C   0  0  0  0  0  0  0  0  0  0  0  0
  2  1  1  0  0  0  0
  2  9  1  1  0  0  0
  3  8  1  0  0  0  0
  3  6  1  0  0  0  0
  5 10  1  0  0  0  0
  5  1  1  0  0  0  0
  6 25  1  1  0  0  0
  6  2  1  0  0  0  0
  7 11  1  6  0  0  0
  7  2  1  0  0  0  0
  8  4  1  1  0  0  0
  8  7  1  0  0  0  0
 10 14  1  6  0  0  0
 11 10  1  0  0  0  0
 13 12  2  0  0  0  0
 14 17  1  0  0  0  0
 15 19  2  0  0  0  0
 16 15  1  0  0  0  0
 16 14  2  0  0  0  0
 17 22  1  1  0  0  0
 18 20  2  0  0  0  0
 18 15  1  0  0  0  0
 19 12  1  0  0  0  0
 19 17  1  0  0  0  0
 20 13  1  0  0  0  0
 22 21  1  0  0  0  0
 23 25  1  0  0  0  0
 24 23  2  0  0  0  0
 26 32  1  0  0  0  0
 27 23  1  1  0  0  0
 27 34  1  0  0  0  0
 27 31  1  0  0  0  0
 28 26  1  0  0  0  0
 30 33  1  0  0  0  0
 31 28  1  1  0  0  0
 31 30  1  0  0  0  0
 33 32  2  0  0  0  0
 34 29  2  0  0  0  0
 34 31  1  0  0  0  0
M  END
>  <MODEL>
7

>  <REMARK>
 VINA RESULT:      -8.0      2.375      4.196
  Name = 
  4 active torsions:
  status: ('A' for Active; 'I' for Inactive)
    1  A    between atoms: C_3  and  C_14
    2  A    between atoms: C_6  and  C_27
    3  A    between atoms: C_17  and  N_29
    4  A    between atoms: C_24  and  C_28
                            x       y       z     vdW  Elec       q    Type
                         _______ _______ _______ _____ _____    ______ ____

>  <TORSDO>
F 4

$$$$
=
 OpenBabel11042416073D

 34 39  0  0  1  0  0  0  0  0999 V2000
  190.8920  173.8860  145.1510 C   0  0  0  0  0  2  0  0  0  0  0  0
  192.1620  174.7450  145.0910 C   0  0  1  0  0  0  0  0  0  0  0  0
  193.5910  176.1020  143.6770 C   0  0  0  0  0  2  0  0  0  0  0  0
  194.1770  177.2910  145.7820 C   0  0  0  0  0  1  0  0  0  0  0  0
  189.6860  174.5590  144.5170 C   0  0  0  0  0  2  0  0  0  0  0  0
  192.7390  174.8440  143.6770 C   0  0  1  0  0  3  0  0  0  0  0  0
  191.9440  176.2160  145.4960 C   0  0  1  0  0  3  0  0  0  0  0  0
  193.0620  176.9870  144.8010 C   0  0  2  0  0  3  0  0  0  0  0  0
  193.1660  174.1300  146.0630 C   0  0  0  0  0  1  0  0  0  0  0  0
  189.4400  175.8880  145.2100 C   0  0  1  0  0  3  0  0  0  0  0  0
  190.6280  176.8100  144.9790 C   0  0  0  0  0  2  0  0  0  0  0  0
  185.1540  178.3510  144.7120 C   0  0  0  0  0  3  0  0  0  0  0  0
  184.2670  178.6610  143.5180 C   0  0  0  0  0  3  0  0  0  0  0  0
  188.1680  176.5160  144.7210 C   0  0  0  0  0  0  0  0  0  0  0  0
  186.6750  177.1290  143.2640 C   0  0  0  0  0  0  0  0  0  0  0  0
  187.7850  176.4740  143.3370 N   0  0  0  0  0  0  0  0  0  0  0  0
  187.2800  177.1920  145.4640 C   0  0  2  0  0  3  0  0  0  0  0  0
  185.8840  177.3780  142.0620 C   0  0  0  0  0  3  0  0  0  0  0  0
  186.2600  177.6350  144.5380 C   0  0  0  0  0  0  0  0  0  0  0  0
  184.7580  178.0960  142.1880 C   0  0  0  0  0  3  0  0  0  0  0  0
  186.3210  176.7930  147.6380 N   0  0  0  0  0  1  0  0  0  0  0  0
  187.3640  177.5050  146.9220 C   0  0  0  0  0  2  0  0  0  0  0  0
  193.0530  172.6470  142.4520 C   0  0  0  0  0  0  0  0  0  0  0  0
  191.8920  172.7170  141.9640 O   0  0  0  0  0  0  0  0  0  0  0  0
  193.5430  173.6850  143.3040 N   0  0  0  0  0  2  0  0  0  0  0  0
  195.6100  168.9460  144.5300 C   0  0  0  0  0  2  0  0  0  0  0  0
  193.9020  171.4430  142.1640 C   0  0  1  0  0  3  0  0  0  0  0  0
  195.3970  169.7150  143.2250 C   0  0  0  0  0  2  0  0  0  0  0  0
  192.2250  169.3690  141.9020 O   0  0  0  0  0  0  0  0  0  0  0  0
  193.5270  170.8960  144.6810 C   0  0  0  0  0  2  0  0  0  0  0  0
  194.1390  170.5880  143.2980 C   0  0  1  0  0  0  0  0  0  0  0  0
  195.5410  169.8890  145.6990 C   0  0  0  0  0  3  0  0  0  0  0  0
  194.5670  170.8060  145.7640 C   0  0  0  0  0  3  0  0  0  0  0  0
  193.0790  170.1470  142.2950 C   0  0  0  0  0  0  0  0  0  0  0  0
  2  1  1  0  0  0  0
  2  7  1  0  0  0  0
  2  9  1  1  0  0  0
  3  8  1  0  0  0  0
  5  1  1  0  0  0  0
  5 10  1  0  0  0  0
  6 25  1  1  0  0  0
  6  3  1  0  0  0  0
  6  2  1  0  0  0  0
  7 11  1  6  0  0  0
  8  7  1  0  0  0  0
  8  4  1  1  0  0  0
 10 14  1  6  0  0  0
 11 10  1  0  0  0  0
 13 12  2  0  0  0  0
 14 17  1  0  0  0  0
 15 16  1  0  0  0  0
 15 19  2  0  0  0  0
 16 14  2  0  0  0  0
 17 22  1  6  0  0  0
 18 20  2  0  0  0  0
 18 15  1  0  0  0  0
 19 12  1  0  0  0  0
 19 17  1  0  0  0  0
 20 13  1  0  0  0  0
 22 21  1  0  0  0  0
 23 25  1  0  0  0  0
 24 23  2  0  0  0  0
 26 32  1  0  0  0  0
 27 34  1  0  0  0  0
 27 23  1  1  0  0  0
 27 31  1  0  0  0  0
 28 26  1  0  0  0  0
 29 34  2  0  0  0  0
 30 33  1  0  0  0  0
 31 28  1  6  0  0  0
 31 30  1  0  0  0  0
 32 33  2  0  0  0  0
 34 31  1  0  0  0  0
M  END
>  <MODEL>
8

>  <REMARK>
 VINA RESULT:      -7.9      2.215      3.728
  Name = 
  4 active torsions:
  status: ('A' for Active; 'I' for Inactive)
    1  A    between atoms: C_3  and  C_14
    2  A    between atoms: C_6  and  C_27
    3  A    between atoms: C_17  and  N_29
    4  A    between atoms: C_24  and  C_28
                            x       y       z     vdW  Elec       q    Type
                         _______ _______ _______ _____ _____    ______ ____

>  <TORSDO>
F 4

$$$$
=
 OpenBabel11042416073D

 34 39  0  0  1  0  0  0  0  0999 V2000
  190.7020  173.8900  144.4610 C   0  0  0  0  0  2  0  0  0  0  0  0
  192.0300  174.5830  144.7910 C   0  0  1  0  0  0  0  0  0  0  0  0
  193.5860  176.3290  144.1510 C   0  0  0  0  0  2  0  0  0  0  0  0
  194.2020  176.3640  146.5600 C   0  0  0  0  0  1  0  0  0  0  0  0
  189.5620  174.8670  144.2230 C   0  0  0  0  0  2  0  0  0  0  0  0
  192.6470  175.2810  143.5780 C   0  0  1  0  0  3  0  0  0  0  0  0
  191.9070  175.7120  145.8330 C   0  0  1  0  0  3  0  0  0  0  0  0
  193.0930  176.6310  145.5620 C   0  0  2  0  0  3  0  0  0  0  0  0
  192.9630  173.5150  145.3580 C   0  0  0  0  0  1  0  0  0  0  0  0
  189.3930  175.7390  145.4540 C   0  0  1  0  0  3  0  0  0  0  0  0
  190.6480  176.5730  145.6640 C   0  0  0  0  0  2  0  0  0  0  0  0
  185.8990  178.9640  144.0110 C   0  0  0  0  0  3  0  0  0  0  0  0
  184.5380  179.3400  144.5710 C   0  0  0  0  0  3  0  0  0  0  0  0
  188.1820  176.6140  145.3250 C   0  0  0  0  0  0  0  0  0  0  0  0
  186.2190  177.3970  145.8400 C   0  0  0  0  0  0  0  0  0  0  0  0
  187.0950  176.5480  146.2630 N   0  0  0  0  0  2  0  0  0  0  0  0
  187.9460  177.5060  144.3520 C   0  0  0  0  0  0  0  0  0  0  0  0
  184.9260  177.6960  146.4490 C   0  0  0  0  0  3  0  0  0  0  0  0
  186.6390  178.0570  144.6400 C   0  0  0  0  0  0  0  0  0  0  0  0
  184.1440  178.6070  145.8500 C   0  0  0  0  0  3  0  0  0  0  0  0
  188.2200  177.2170  141.9750 N   0  0  0  0  0  1  0  0  0  0  0  0
  188.8040  177.8070  143.1670 C   0  0  0  0  0  2  0  0  0  0  0  0
  192.8230  173.8540  141.4890 C   0  0  0  0  0  0  0  0  0  0  0  0
  191.6690  174.2020  141.1180 O   0  0  0  0  0  0  0  0  0  0  0  0
  193.3770  174.3690  142.7030 N   0  0  0  0  0  2  0  0  0  0  0  0
  195.3320  173.2260  137.2620 C   0  0  0  0  0  2  0  0  0  0  0  0
  193.5940  172.8620  140.6690 C   0  0  1  0  0  3  0  0  0  0  0  0
  194.6530  172.4820  138.4150 C   0  0  0  0  0  2  0  0  0  0  0  0
  196.1420  173.0100  141.4870 O   0  0  0  0  0  0  0  0  0  0  0  0
  194.3420  174.9540  139.3120 C   0  0  0  0  0  2  0  0  0  0  0  0
  194.3360  173.4330  139.5740 C   0  0  1  0  0  0  0  0  0  0  0  0
  194.5350  174.4470  136.9000 C   0  0  0  0  0  3  0  0  0  0  0  0
  194.0660  175.2530  137.8630 C   0  0  0  0  0  3  0  0  0  0  0  0
  195.1110  173.0730  140.8370 C   0  0  0  0  0  0  0  0  0  0  0  0
  1  2  1  0  0  0  0
  2  9  1  1  0  0  0
  2  7  1  0  0  0  0
  3  8  1  0  0  0  0
  5  1  1  0  0  0  0
  5 10  1  0  0  0  0
  6 25  1  6  0  0  0
  6  3  1  0  0  0  0
  6  2  1  0  0  0  0
  7 11  1  6  0  0  0
  8  7  1  0  0  0  0
  8  4  1  1  0  0  0
 10 14  1  6  0  0  0
 10 11  1  0  0  0  0
 12 13  2  0  0  0  0
 12 19  1  0  0  0  0
 13 20  1  0  0  0  0
 14 16  1  0  0  0  0
 15 16  1  0  0  0  0
 15 18  1  0  0  0  0
 17 19  1  0  0  0  0
 17 14  2  0  0  0  0
 19 15  2  0  0  0  0
 20 18  2  0  0  0  0
 21 22  1  0  0  0  0
 22 17  1  0  0  0  0
 23 25  1  0  0  0  0
 24 23  2  0  0  0  0
 26 28  1  0  0  0  0
 27 34  1  0  0  0  0
 27 23  1  1  0  0  0
 30 31  1  0  0  0  0
 31 28  1  6  0  0  0
 31 27  1  0  0  0  0
 31 34  1  0  0  0  0
 32 26  1  0  0  0  0
 32 33  2  0  0  0  0
 33 30  1  0  0  0  0
 34 29  2  0  0  0  0
M  END
>  <MODEL>
9

>  <REMARK>
 VINA RESULT:      -7.9      2.493      4.746
  Name = 
  4 active torsions:
  status: ('A' for Active; 'I' for Inactive)
    1  A    between atoms: C_3  and  C_14
    2  A    between atoms: C_6  and  C_27
    3  A    between atoms: C_17  and  N_29
    4  A    between atoms: C_24  and  C_28
                            x       y       z     vdW  Elec       q    Type
                         _______ _______ _______ _____ _____    ______ ____

>  <TORSDO>
F 4

$$$$
