=
 OpenBabel11042417233D

 56 60  0  0  1  0  0  0  0  0999 V2000
  188.9420  173.9390  141.0090 C   0  0  2  0  0  3  0  0  0  0  0  0
  189.4100  171.9630  142.5170 N   0  0  0  0  0  2  0  0  0  0  0  0
  187.2270  172.5750  141.9750 O   0  0  0  0  0  0  0  0  0  0  0  0
  188.4590  172.7980  141.8500 C   0  0  0  0  0  0  0  0  0  0  0  0
  190.8290  172.3060  142.4820 C   0  0  0  0  0  2  0  0  0  0  0  0
  190.3240  173.6470  140.4790 C   0  0  0  0  0  3  0  0  0  0  0  0
  191.2040  172.8850  141.1400 C   0  0  0  0  0  0  0  0  0  0  0  0
  192.5210  172.7310  140.5920 N   0  0  0  0  0  2  0  0  0  0  0  0
  193.8970  170.8260  141.1030 C   0  0  0  0  0  2  0  0  0  0  0  0
  193.6650  172.1300  141.2190 C   0  0  0  0  0  0  0  0  0  0  0  0
  194.7680  173.0170  141.7520 C   0  0  1  0  0  3  0  0  0  0  0  0
  195.8420  174.4040  140.2590 C   0  0  0  0  0  1  0  0  0  0  0  0
  194.7820  174.3140  141.1790 O   0  0  0  0  0  0  0  0  0  0  0  0
  194.8780  173.0290  143.2820 C   0  0  0  0  0  2  0  0  0  0  0  0
  193.8360  173.9530  143.8870 C   0  0  0  0  0  2  0  0  0  0  0  0
  193.4800  174.3670  146.3250 C   0  0  0  0  0  2  0  0  0  0  0  0
  194.6090  176.1340  144.8450 C   0  0  0  0  0  2  0  0  0  0  0  0
  194.3950  174.6360  145.1230 C   0  0  2  0  0  3  0  0  0  0  0  0
  194.6000  176.9410  146.1390 C   0  0  0  0  0  2  0  0  0  0  0  0
  193.2490  176.8280  146.8580 C   0  0  0  0  0  2  0  0  0  0  0  0
  192.5030  175.5190  146.5670 C   0  0  2  0  0  3  0  0  0  0  0  0
  191.5750  175.1980  147.7260 C   0  0  0  0  0  2  0  0  0  0  0  0
  188.9730  176.7230  145.8350 C   0  0  1  0  0  3  0  0  0  0  0  0
  190.1870  175.2500  147.2930 N   0  0  0  0  0  0  0  0  0  0  0  0
  189.0890  175.3720  145.1720 C   0  0  0  0  0  2  0  0  0  0  0  0
  189.8690  176.6490  147.0580 C   0  0  0  0  0  2  0  0  0  0  0  0
  190.1150  174.6180  145.9870 C   0  0  0  0  0  2  0  0  0  0  0  0
  189.4620  177.8010  144.8850 C   0  0  0  0  0  2  0  0  0  0  0  0
  190.7430  177.3620  144.2010 C   0  0  0  0  0  1  0  0  0  0  0  0
  188.9460  175.2210  141.8320 C   0  0  0  0  0  2  0  0  0  0  0  0
  186.4230  175.9970  142.6000 S   0  0  0  0  0  0  0  0  0  0  0  0
  185.8770  177.6390  142.0590 C   0  0  2  0  0  3  0  0  0  0  0  0
  187.8010  176.1360  141.4310 C   0  0  1  0  0  3  0  0  0  0  0  0
  188.2720  177.5790  141.4240 C   0  0  0  0  0  2  0  0  0  0  0  0
  187.1320  178.4770  141.8800 C   0  0  0  0  0  2  0  0  0  0  0  0
  184.9130  178.2670  143.0770 C   0  0  1  0  0  3  0  0  0  0  0  0
  183.5140  178.4580  142.5560 C   0  0  0  0  0  0  0  0  0  0  0  0
  181.2250  179.2150  142.8270 C   0  0  0  0  0  3  0  0  0  0  0  0
  183.2230  178.0650  141.2450 C   0  0  0  0  0  3  0  0  0  0  0  0
  182.5110  179.0420  143.3430 C   0  0  0  0  0  3  0  0  0  0  0  0
  180.9370  178.8270  141.5090 C   0  0  0  0  0  0  0  0  0  0  0  0
  181.9380  178.2440  140.7260 C   0  0  0  0  0  3  0  0  0  0  0  0
  179.5560  178.9490  140.9490 C   0  0  0  0  0  2  0  0  0  0  0  0
  178.6310  177.1760  139.4080 C   0  0  0  0  0  0  0  0  0  0  0  0
  179.4570  178.3210  139.6380 N   0  0  0  0  0  2  0  0  0  0  0  0
  177.9940  176.6480  140.3570 O   0  0  0  0  0  0  0  0  0  0  0  0
  178.1290  177.5980  137.1390 O   0  0  0  0  0  1  0  0  0  0  0  0
  178.5100  176.5990  138.0350 C   0  0  1  0  0  3  0  0  0  0  0  0
  179.9530  174.6170  137.3710 C   0  0  0  0  0  0  0  0  0  0  0  0
  179.7740  176.0160  137.6020 N   0  0  0  0  0  2  0  0  0  0  0  0
  179.0010  173.8110  137.5630 O   0  0  0  0  0  0  0  0  0  0  0  0
  181.4230  173.8700  135.6110 N   0  0  0  0  0  1  0  0  0  0  0  0
  181.1920  174.1530  136.9400 O   0  0  0  0  0  0  0  0  0  0  0  0
  184.9160  177.5480  144.4290 C   0  0  0  0  0  2  0  0  0  0  0  0
  185.0360  179.0970  146.3600 C   0  0  0  0  0  1  0  0  0  0  0  0
  185.8440  178.2020  145.4410 C   0  0  0  0  0  2  0  0  0  0  0  0
  1 30  1  1  0  0  0
  1  4  1  0  0  0  0
  4  3  2  0  0  0  0
  4  2  1  0  0  0  0
  5  2  1  0  0  0  0
  6  1  1  0  0  0  0
  6  7  2  0  0  0  0
  7  5  1  0  0  0  0
  8  7  1  0  0  0  0
  8 10  1  0  0  0  0
  9 10  2  0  0  0  0
 10 11  1  0  0  0  0
 11 14  1  1  0  0  0
 12 13  1  0  0  0  0
 13 11  1  0  0  0  0
 14 15  1  0  0  0  0
 16 21  1  0  0  0  0
 17 18  1  0  0  0  0
 17 19  1  0  0  0  0
 18 15  1  6  0  0  0
 18 16  1  0  0  0  0
 19 20  1  0  0  0  0
 21 20  1  0  0  0  0
 21 22  1  1  0  0  0
 23 28  1  6  0  0  0
 23 26  1  0  0  0  0
 24 22  1  0  0  0  0
 25 23  1  0  0  0  0
 25 27  1  0  0  0  0
 26 24  1  0  0  0  0
 27 24  1  0  0  0  0
 29 28  1  0  0  0  0
 32 31  1  0  0  0  0
 32 36  1  1  0  0  0
 33 30  1  1  0  0  0
 33 31  1  0  0  0  0
 34 33  1  0  0  0  0
 34 35  1  0  0  0  0
 35 32  1  0  0  0  0
 36 54  1  1  0  0  0
 37 36  1  0  0  0  0
 37 40  1  0  0  0  0
 38 40  2  0  0  0  0
 39 37  2  0  0  0  0
 41 38  1  0  0  0  0
 42 39  1  0  0  0  0
 42 41  2  0  0  0  0
 43 41  1  0  0  0  0
 44 45  1  0  0  0  0
 44 46  2  0  0  0  0
 45 43  1  0  0  0  0
 48 47  1  6  0  0  0
 48 44  1  0  0  0  0
 49 51  2  0  0  0  0
 49 50  1  0  0  0  0
 50 48  1  0  0  0  0
 52 53  1  0  0  0  0
 53 49  1  0  0  0  0
 54 56  1  0  0  0  0
 56 55  1  0  0  0  0
M  END
>  <MODEL>
1

>  <REMARK>
 VINA RESULT:      -6.7      0.000      0.000
  Name = 
  21 active torsions:
  status: ('A' for Active; 'I' for Inactive)
    1  A    between atoms: C_1  and  C_11
    2  A    between atoms: C_2  and  N_19
    3  A    between atoms: C_2  and  C_54
    4  A    between atoms: C_4  and  C_14
    5  A    between atoms: C_7  and  C_11
    6  A    between atoms: C_8  and  C_10
    7  A    between atoms: C_11  and  C_17
    8  A    between atoms: C_14  and  C_47
    9  A    between atoms: N_15  and  C_30
   10  A    between atoms: N_15  and  C_42
   11  A    between atoms: C_17  and  C_25
   12  A    between atoms: C_20  and  O_41
   13  A    between atoms: C_24  and  N_27
   14  A    between atoms: C_24  and  C_33
   15  A    between atoms: C_26  and  C_50
   16  A    between atoms: N_34  and  C_39
   17  A    between atoms: C_35  and  C_50
   18  A    between atoms: C_35  and  C_56
   19  A    between atoms: C_39  and  C_43
   20  A    between atoms: C_42  and  C_56
   21  A    between atoms: O_55  and  C_56
                            x       y       z     vdW  Elec       q    Type
                         _______ _______ _______ _____ _____    ______ ____

>  <TORSDO>
F 21

$$$$
=
 OpenBabel11042417233D

 56 60  0  0  1  0  0  0  0  0999 V2000
  190.3330  173.8020  140.7630 C   0  0  2  0  0  3  0  0  0  0  0  0
  187.8930  173.1360  140.7450 N   0  0  0  0  0  2  0  0  0  0  0  0
  188.8220  174.2610  142.5630 O   0  0  0  0  0  0  0  0  0  0  0  0
  188.9880  173.7580  141.4220 C   0  0  0  0  0  0  0  0  0  0  0  0
  188.1210  172.4350  139.4840 C   0  0  0  0  0  2  0  0  0  0  0  0
  190.1790  173.7690  139.2630 C   0  0  0  0  0  3  0  0  0  0  0  0
  189.1570  173.1520  138.6560 C   0  0  0  0  0  0  0  0  0  0  0  0
  189.1420  173.1080  137.2220 N   0  0  0  0  0  2  0  0  0  0  0  0
  189.6060  171.1080  135.9700 C   0  0  0  0  0  2  0  0  0  0  0  0
  189.9820  172.3220  136.3620 C   0  0  0  0  0  0  0  0  0  0  0  0
  191.1430  172.9840  135.6560 C   0  0  1  0  0  3  0  0  0  0  0  0
  190.6360  174.9770  134.6170 C   0  0  0  0  0  1  0  0  0  0  0  0
  191.1590  174.3950  135.7860 O   0  0  0  0  0  0  0  0  0  0  0  0
  192.5030  172.3330  135.9420 C   0  0  0  0  0  2  0  0  0  0  0  0
  192.8010  172.3470  137.4310 C   0  0  0  0  0  2  0  0  0  0  0  0
  195.1890  172.1310  138.1330 C   0  0  0  0  0  2  0  0  0  0  0  0
  193.8310  174.2270  138.7250 C   0  0  0  0  0  2  0  0  0  0  0  0
  194.0870  173.1080  137.7010 C   0  0  2  0  0  3  0  0  0  0  0  0
  195.1160  174.6170  139.4470 C   0  0  0  0  0  2  0  0  0  0  0  0
  195.6920  173.4370  140.2390 C   0  0  0  0  0  2  0  0  0  0  0  0
  195.3280  172.0650  139.6550 C   0  0  2  0  0  3  0  0  0  0  0  0
  196.3850  171.0500  140.0510 C   0  0  0  0  0  2  0  0  0  0  0  0
  195.1330  169.9080  143.1820 C   0  0  1  0  0  3  0  0  0  0  0  0
  195.7990  170.0040  140.8770 N   0  0  0  0  0  0  0  0  0  0  0  0
  193.8960  169.8660  142.3170 C   0  0  0  0  0  2  0  0  0  0  0  0
  196.2760  170.2180  142.2340 C   0  0  0  0  0  2  0  0  0  0  0  0
  194.3680  170.2450  140.9330 C   0  0  0  0  0  2  0  0  0  0  0  0
  194.9920  171.0080  144.2190 C   0  0  0  0  0  2  0  0  0  0  0  0
  195.7400  172.2510  143.7770 C   0  0  0  0  0  1  0  0  0  0  0  0
  191.1780  172.6270  141.2390 C   0  0  0  0  0  2  0  0  0  0  0  0
  192.5120  174.8600  142.1290 S   0  0  0  0  0  0  0  0  0  0  0  0
  193.1390  174.8100  143.8290 C   0  0  2  0  0  3  0  0  0  0  0  0
  192.2260  173.0750  142.2450 C   0  0  1  0  0  3  0  0  0  0  0  0
  191.7550  172.7610  143.6540 C   0  0  0  0  0  2  0  0  0  0  0  0
  192.2410  173.8530  144.5950 C   0  0  0  0  0  2  0  0  0  0  0  0
  193.1480  176.2110  144.4590 C   0  0  1  0  0  3  0  0  0  0  0  0
  191.8540  176.5860  145.1300 C   0  0  0  0  0  0  0  0  0  0  0  0
  189.5770  177.4210  145.0490 C   0  0  0  0  0  3  0  0  0  0  0  0
  191.7290  176.3970  146.5110 C   0  0  0  0  0  3  0  0  0  0  0  0
  190.7690  177.0920  144.3990 C   0  0  0  0  0  3  0  0  0  0  0  0
  189.4520  177.2240  146.4330 C   0  0  0  0  0  0  0  0  0  0  0  0
  190.5350  176.7200  147.1590 C   0  0  0  0  0  3  0  0  0  0  0  0
  188.2080  177.6180  147.1630 C   0  0  0  0  0  2  0  0  0  0  0  0
  185.8370  178.1660  146.4920 C   0  0  0  0  0  0  0  0  0  0  0  0
  187.0200  177.3740  146.3570 N   0  0  0  0  0  2  0  0  0  0  0  0
  185.7770  179.0800  147.3570 O   0  0  0  0  0  0  0  0  0  0  0  0
  183.7440  178.9650  145.7450 O   0  0  0  0  0  1  0  0  0  0  0  0
  184.6610  177.9220  145.6040 C   0  0  1  0  0  3  0  0  0  0  0  0
  185.5140  178.9440  143.4430 C   0  0  0  0  0  0  0  0  0  0  0  0
  185.0720  177.8230  144.2100 N   0  0  0  0  0  2  0  0  0  0  0  0
  185.5420  180.0970  143.9540 O   0  0  0  0  0  0  0  0  0  0  0  0
  185.8490  177.5040  141.5380 N   0  0  0  0  0  1  0  0  0  0  0  0
  185.9060  178.7510  142.1210 O   0  0  0  0  0  0  0  0  0  0  0  0
  194.3480  176.4470  145.3810 C   0  0  0  0  0  2  0  0  0  0  0  0
  196.1410  176.5470  143.6740 C   0  0  0  0  0  1  0  0  0  0  0  0
  195.6190  175.7830  144.8740 C   0  0  0  0  0  2  0  0  0  0  0  0
  1 30  1  1  0  0  0
  1  4  1  0  0  0  0
  2  4  1  0  0  0  0
  4  3  2  0  0  0  0
  5  2  1  0  0  0  0
  6  1  1  0  0  0  0
  7  6  2  0  0  0  0
  7  5  1  0  0  0  0
  8  7  1  0  0  0  0
  9 10  2  0  0  0  0
 10  8  1  0  0  0  0
 11 13  1  0  0  0  0
 11 14  1  1  0  0  0
 11 10  1  0  0  0  0
 12 13  1  0  0  0  0
 14 15  1  0  0  0  0
 16 21  1  0  0  0  0
 17 19  1  0  0  0  0
 18 15  1  1  0  0  0
 18 16  1  0  0  0  0
 18 17  1  0  0  0  0
 19 20  1  0  0  0  0
 21 22  1  6  0  0  0
 21 20  1  0  0  0  0
 22 24  1  0  0  0  0
 23 28  1  1  0  0  0
 24 27  1  0  0  0  0
 24 26  1  0  0  0  0
 25 23  1  0  0  0  0
 26 23  1  0  0  0  0
 27 25  1  0  0  0  0
 29 28  1  0  0  0  0
 31 33  1  0  0  0  0
 31 32  1  0  0  0  0
 32 36  1  1  0  0  0
 32 35  1  0  0  0  0
 33 30  1  6  0  0  0
 33 34  1  0  0  0  0
 34 35  1  0  0  0  0
 36 37  1  0  0  0  0
 36 54  1  1  0  0  0
 37 39  1  0  0  0  0
 38 41  2  0  0  0  0
 39 42  2  0  0  0  0
 40 38  1  0  0  0  0
 40 37  2  0  0  0  0
 41 42  1  0  0  0  0
 41 43  1  0  0  0  0
 44 46  2  0  0  0  0
 45 44  1  0  0  0  0
 45 43  1  0  0  0  0
 48 47  1  6  0  0  0
 48 44  1  0  0  0  0
 49 51  2  0  0  0  0
 49 50  1  0  0  0  0
 50 48  1  0  0  0  0
 52 53  1  0  0  0  0
 53 49  1  0  0  0  0
 55 56  1  0  0  0  0
 56 54  1  0  0  0  0
M  END
>  <MODEL>
2

>  <REMARK>
 VINA RESULT:      -6.1      4.309      8.092
  Name = 
  21 active torsions:
  status: ('A' for Active; 'I' for Inactive)
    1  A    between atoms: C_1  and  C_11
    2  A    between atoms: C_2  and  N_19
    3  A    between atoms: C_2  and  C_54
    4  A    between atoms: C_4  and  C_14
    5  A    between atoms: C_7  and  C_11
    6  A    between atoms: C_8  and  C_10
    7  A    between atoms: C_11  and  C_17
    8  A    between atoms: C_14  and  C_47
    9  A    between atoms: N_15  and  C_30
   10  A    between atoms: N_15  and  C_42
   11  A    between atoms: C_17  and  C_25
   12  A    between atoms: C_20  and  O_41
   13  A    between atoms: C_24  and  N_27
   14  A    between atoms: C_24  and  C_33
   15  A    between atoms: C_26  and  C_50
   16  A    between atoms: N_34  and  C_39
   17  A    between atoms: C_35  and  C_50
   18  A    between atoms: C_35  and  C_56
   19  A    between atoms: C_39  and  C_43
   20  A    between atoms: C_42  and  C_56
   21  A    between atoms: O_55  and  C_56
                            x       y       z     vdW  Elec       q    Type
                         _______ _______ _______ _____ _____    ______ ____

>  <TORSDO>
F 21

$$$$
=
 OpenBabel11042417233D

 56 60  0  0  1  0  0  0  0  0999 V2000
  190.4550  173.4350  140.4280 C   0  0  2  0  0  3  0  0  0  0  0  0
  188.2960  173.5260  139.1140 N   0  0  0  0  0  2  0  0  0  0  0  0
  188.4390  174.4230  141.2610 O   0  0  0  0  0  0  0  0  0  0  0  0
  189.0150  173.8310  140.3120 C   0  0  0  0  0  0  0  0  0  0  0  0
  188.9270  172.7200  138.0720 C   0  0  0  0  0  2  0  0  0  0  0  0
  191.0880  173.3650  139.0600 C   0  0  0  0  0  3  0  0  0  0  0  0
  190.3950  173.0480  137.9600 C   0  0  0  0  0  0  0  0  0  0  0  0
  191.1020  172.9310  136.7180 N   0  0  0  0  0  2  0  0  0  0  0  0
  191.3370  175.1440  135.8050 C   0  0  0  0  0  2  0  0  0  0  0  0
  191.8640  173.9460  136.0460 C   0  0  0  0  0  0  0  0  0  0  0  0
  193.3570  173.7670  135.8860 C   0  0  1  0  0  3  0  0  0  0  0  0
  194.5600  175.4430  134.8610 C   0  0  0  0  0  1  0  0  0  0  0  0
  194.0990  174.9560  136.0980 O   0  0  0  0  0  0  0  0  0  0  0  0
  193.9260  172.5560  136.6360 C   0  0  0  0  0  2  0  0  0  0  0  0
  194.4920  172.9760  137.9810 C   0  0  0  0  0  2  0  0  0  0  0  0
  195.0380  172.2260  140.3010 C   0  0  0  0  0  2  0  0  0  0  0  0
  195.5580  170.7300  138.2810 C   0  0  0  0  0  2  0  0  0  0  0  0
  194.6090  171.7720  138.8990 C   0  0  2  0  0  3  0  0  0  0  0  0
  196.1550  169.8240  139.3530 C   0  0  0  0  0  2  0  0  0  0  0  0
  196.9950  170.6240  140.3560 C   0  0  0  0  0  2  0  0  0  0  0  0
  196.5480  172.0850  140.5090 C   0  0  2  0  0  3  0  0  0  0  0  0
  196.9470  172.5950  141.8830 C   0  0  0  0  0  2  0  0  0  0  0  0
  195.3070  174.1320  144.6430 C   0  0  1  0  0  3  0  0  0  0  0  0
  195.9190  173.4760  142.4150 N   0  0  0  0  0  0  0  0  0  0  0  0
  195.9070  175.3220  143.9340 C   0  0  0  0  0  2  0  0  0  0  0  0
  195.5450  172.9510  143.7190 C   0  0  0  0  0  2  0  0  0  0  0  0
  196.5430  174.7590  142.6840 C   0  0  0  0  0  2  0  0  0  0  0  0
  196.0150  173.9170  145.9680 C   0  0  0  0  0  2  0  0  0  0  0  0
  196.9800  172.7510  145.8700 C   0  0  0  0  0  1  0  0  0  0  0  0
  190.5650  172.0900  141.1360 C   0  0  0  0  0  2  0  0  0  0  0  0
  191.9010  173.8680  142.7520 S   0  0  0  0  0  0  0  0  0  0  0  0
  191.6260  173.7120  144.5360 C   0  0  2  0  0  3  0  0  0  0  0  0
  191.1040  172.2540  142.5480 C   0  0  1  0  0  3  0  0  0  0  0  0
  189.9680  172.1570  143.5490 C   0  0  0  0  0  2  0  0  0  0  0  0
  190.2470  173.0980  144.7110 C   0  0  0  0  0  2  0  0  0  0  0  0
  191.7350  175.0750  145.2370 C   0  0  1  0  0  3  0  0  0  0  0  0
  190.4360  175.8310  145.3070 C   0  0  0  0  0  0  0  0  0  0  0  0
  188.2760  176.2640  146.3220 C   0  0  0  0  0  3  0  0  0  0  0  0
  190.2090  176.8680  144.3950 C   0  0  0  0  0  3  0  0  0  0  0  0
  189.4670  175.5370  146.2770 C   0  0  0  0  0  3  0  0  0  0  0  0
  188.0530  177.3080  145.4120 C   0  0  0  0  0  0  0  0  0  0  0  0
  189.0190  177.5990  144.4450 C   0  0  0  0  0  3  0  0  0  0  0  0
  186.7640  178.0670  145.4020 C   0  0  0  0  0  2  0  0  0  0  0  0
  185.4030  178.8190  143.4140 C   0  0  0  0  0  0  0  0  0  0  0  0
  185.9890  177.7810  144.2020 N   0  0  0  0  0  2  0  0  0  0  0  0
  185.5060  180.0240  143.7680 O   0  0  0  0  0  0  0  0  0  0  0  0
  185.1570  177.2910  141.6300 O   0  0  0  0  0  1  0  0  0  0  0  0
  184.6670  178.4870  142.1570 C   0  0  1  0  0  3  0  0  0  0  0  0
  182.2700  178.2000  141.3690 C   0  0  0  0  0  0  0  0  0  0  0  0
  183.2380  178.3560  142.4090 N   0  0  0  0  0  2  0  0  0  0  0  0
  182.6280  178.1930  140.1590 O   0  0  0  0  0  0  0  0  0  0  0  0
  180.2360  179.0940  142.3050 N   0  0  0  0  0  1  0  0  0  0  0  0
  180.9270  178.0630  141.7070 O   0  0  0  0  0  0  0  0  0  0  0  0
  192.4120  174.9920  146.6080 C   0  0  0  0  0  2  0  0  0  0  0  0
  193.9510  176.9330  146.6860 C   0  0  0  0  0  1  0  0  0  0  0  0
  192.6560  176.3600  147.2280 C   0  0  0  0  0  2  0  0  0  0  0  0
  1 30  1  6  0  0  0
  2  4  1  0  0  0  0
  4  1  1  0  0  0  0
  4  3  2  0  0  0  0
  5  2  1  0  0  0  0
  6  1  1  0  0  0  0
  7  5  1  0  0  0  0
  7  6  2  0  0  0  0
  8  7  1  0  0  0  0
  9 10  2  0  0  0  0
 10  8  1  0  0  0  0
 11 10  1  0  0  0  0
 11 13  1  0  0  0  0
 11 14  1  1  0  0  0
 12 13  1  0  0  0  0
 14 15  1  0  0  0  0
 16 21  1  0  0  0  0
 17 18  1  0  0  0  0
 17 19  1  0  0  0  0
 18 15  1  6  0  0  0
 18 16  1  0  0  0  0
 19 20  1  0  0  0  0
 20 21  1  0  0  0  0
 21 22  1  1  0  0  0
 22 24  1  0  0  0  0
 23 28  1  1  0  0  0
 24 27  1  0  0  0  0
 24 26  1  0  0  0  0
 25 23  1  0  0  0  0
 26 23  1  0  0  0  0
 27 25  1  0  0  0  0
 29 28  1  0  0  0  0
 31 32  1  0  0  0  0
 32 35  1  0  0  0  0
 32 36  1  1  0  0  0
 33 30  1  6  0  0  0
 33 31  1  0  0  0  0
 33 34  1  0  0  0  0
 34 35  1  0  0  0  0
 36 37  1  0  0  0  0
 36 54  1  1  0  0  0
 37 40  1  0  0  0  0
 39 42  1  0  0  0  0
 39 37  2  0  0  0  0
 40 38  2  0  0  0  0
 41 38  1  0  0  0  0
 42 41  2  0  0  0  0
 43 41  1  0  0  0  0
 44 46  2  0  0  0  0
 44 45  1  0  0  0  0
 45 43  1  0  0  0  0
 48 47  1  1  0  0  0
 48 50  1  0  0  0  0
 48 44  1  0  0  0  0
 49 53  1  0  0  0  0
 49 50  1  0  0  0  0
 51 49  2  0  0  0  0
 53 52  1  0  0  0  0
 54 56  1  0  0  0  0
 55 56  1  0  0  0  0
M  END
>  <MODEL>
3

>  <REMARK>
 VINA RESULT:      -6.0      3.154      6.985
  Name = 
  21 active torsions:
  status: ('A' for Active; 'I' for Inactive)
    1  A    between atoms: C_1  and  C_11
    2  A    between atoms: C_2  and  N_19
    3  A    between atoms: C_2  and  C_54
    4  A    between atoms: C_4  and  C_14
    5  A    between atoms: C_7  and  C_11
    6  A    between atoms: C_8  and  C_10
    7  A    between atoms: C_11  and  C_17
    8  A    between atoms: C_14  and  C_47
    9  A    between atoms: N_15  and  C_30
   10  A    between atoms: N_15  and  C_42
   11  A    between atoms: C_17  and  C_25
   12  A    between atoms: C_20  and  O_41
   13  A    between atoms: C_24  and  N_27
   14  A    between atoms: C_24  and  C_33
   15  A    between atoms: C_26  and  C_50
   16  A    between atoms: N_34  and  C_39
   17  A    between atoms: C_35  and  C_50
   18  A    between atoms: C_35  and  C_56
   19  A    between atoms: C_39  and  C_43
   20  A    between atoms: C_42  and  C_56
   21  A    between atoms: O_55  and  C_56
                            x       y       z     vdW  Elec       q    Type
                         _______ _______ _______ _____ _____    ______ ____

>  <TORSDO>
F 21

$$$$
=
 OpenBabel11042417233D

 56 60  0  0  1  0  0  0  0  0999 V2000
  189.9670  173.3260  140.6480 C   0  0  2  0  0  3  0  0  0  0  0  0
  188.8000  171.8960  138.9190 N   0  0  0  0  0  2  0  0  0  0  0  0
  187.6110  172.8930  140.6590 O   0  0  0  0  0  0  0  0  0  0  0  0
  188.7200  172.7070  140.0940 C   0  0  0  0  0  0  0  0  0  0  0  0
  190.1030  171.5700  138.3460 C   0  0  0  0  0  2  0  0  0  0  0  0
  190.9780  173.5340  139.5470 C   0  0  0  0  0  3  0  0  0  0  0  0
  191.0470  172.7400  138.4720 C   0  0  0  0  0  0  0  0  0  0  0  0
  192.0950  172.9710  137.5200 N   0  0  0  0  0  2  0  0  0  0  0  0
  191.5280  171.6150  135.6160 C   0  0  0  0  0  2  0  0  0  0  0  0
  192.0570  172.7330  136.1040 C   0  0  0  0  0  0  0  0  0  0  0  0
  192.3360  173.8760  135.1530 C   0  0  1  0  0  3  0  0  0  0  0  0
  191.8770  176.1180  135.4180 C   0  0  0  0  0  1  0  0  0  0  0  0
  191.3160  174.8600  135.1310 O   0  0  0  0  0  0  0  0  0  0  0  0
  193.7460  174.4680  135.2820 C   0  0  0  0  0  2  0  0  0  0  0  0
  194.7980  173.4110  134.9950 C   0  0  0  0  0  2  0  0  0  0  0  0
  196.9290  173.3130  136.2950 C   0  0  0  0  0  2  0  0  0  0  0  0
  196.0960  175.5300  135.3050 C   0  0  0  0  0  2  0  0  0  0  0  0
  196.1890  174.0030  135.1410 C   0  0  2  0  0  3  0  0  0  0  0  0
  197.3280  176.0840  136.0130 C   0  0  0  0  0  2  0  0  0  0  0  0
  197.4640  175.5100  137.4290 C   0  0  0  0  0  2  0  0  0  0  0  0
  196.8380  174.1180  137.5930 C   0  0  2  0  0  3  0  0  0  0  0  0
  197.5300  173.3830  138.7270 C   0  0  0  0  0  2  0  0  0  0  0  0
  195.5540  174.0590  141.6100 C   0  0  1  0  0  3  0  0  0  0  0  0
  196.5590  172.9610  139.7250 N   0  0  0  0  0  0  0  0  0  0  0  0
  194.5000  173.8510  140.5510 C   0  0  0  0  0  2  0  0  0  0  0  0
  196.8680  173.6830  140.9490 C   0  0  0  0  0  2  0  0  0  0  0  0
  195.2600  173.4580  139.3060 C   0  0  0  0  0  2  0  0  0  0  0  0
  195.5730  175.5170  142.0320 C   0  0  0  0  0  2  0  0  0  0  0  0
  196.5780  176.2950  141.2050 C   0  0  0  0  0  1  0  0  0  0  0  0
  190.5430  172.4350  141.7410 C   0  0  0  0  0  2  0  0  0  0  0  0
  191.2760  174.7620  143.0090 S   0  0  0  0  0  0  0  0  0  0  0  0
  192.6330  174.6440  144.2060 C   0  0  2  0  0  3  0  0  0  0  0  0
  191.7210  173.1030  142.4310 C   0  0  1  0  0  3  0  0  0  0  0  0
  192.1480  172.2810  143.6330 C   0  0  0  0  0  2  0  0  0  0  0  0
  192.6230  173.2190  144.7330 C   0  0  0  0  0  2  0  0  0  0  0  0
  192.4670  175.6710  145.3360 C   0  0  1  0  0  3  0  0  0  0  0  0
  191.0360  175.9100  145.7380 C   0  0  0  0  0  0  0  0  0  0  0  0
  188.9540  175.1720  146.7420 C   0  0  0  0  0  3  0  0  0  0  0  0
  190.4670  177.1650  145.4960 C   0  0  0  0  0  3  0  0  0  0  0  0
  190.2760  174.9150  146.3710 C   0  0  0  0  0  3  0  0  0  0  0  0
  188.3890  176.4340  146.5040 C   0  0  0  0  0  0  0  0  0  0  0  0
  189.1470  177.4230  145.8730 C   0  0  0  0  0  3  0  0  0  0  0  0
  186.9590  176.7180  146.8410 C   0  0  0  0  0  2  0  0  0  0  0  0
  185.7850  177.6600  144.8140 C   0  0  0  0  0  0  0  0  0  0  0  0
  186.4460  177.8420  146.0680 N   0  0  0  0  0  2  0  0  0  0  0  0
  185.6680  176.5080  144.3160 O   0  0  0  0  0  0  0  0  0  0  0  0
  185.6900  180.0140  144.6580 O   0  0  0  0  0  1  0  0  0  0  0  0
  185.2200  178.8330  144.0820 C   0  0  1  0  0  3  0  0  0  0  0  0
  184.7040  178.3730  141.6390 C   0  0  0  0  0  0  0  0  0  0  0  0
  185.5930  178.7980  142.6740 N   0  0  0  0  0  2  0  0  0  0  0  0
  183.5390  177.9790  141.9190 O   0  0  0  0  0  0  0  0  0  0  0  0
  186.2160  177.6270  139.9150 N   0  0  0  0  0  1  0  0  0  0  0  0
  185.1430  178.3910  140.3180 O   0  0  0  0  0  0  0  0  0  0  0  0
  193.3500  175.3730  146.5520 C   0  0  0  0  0  2  0  0  0  0  0  0
  194.6040  177.3120  145.6520 C   0  0  0  0  0  1  0  0  0  0  0  0
  194.7160  176.0360  146.4630 C   0  0  0  0  0  2  0  0  0  0  0  0
  1 30  1  1  0  0  0
  2  4  1  0  0  0  0
  4  1  1  0  0  0  0
  4  3  2  0  0  0  0
  5  7  1  0  0  0  0
  5  2  1  0  0  0  0
  6  1  1  0  0  0  0
  7  6  2  0  0  0  0
  8  7  1  0  0  0  0
  9 10  2  0  0  0  0
 10  8  1  0  0  0  0
 11 14  1  1  0  0  0
 11 10  1  0  0  0  0
 13 11  1  0  0  0  0
 13 12  1  0  0  0  0
 15 14  1  0  0  0  0
 16 21  1  0  0  0  0
 17 19  1  0  0  0  0
 18 15  1  1  0  0  0
 18 17  1  0  0  0  0
 18 16  1  0  0  0  0
 19 20  1  0  0  0  0
 20 21  1  0  0  0  0
 21 22  1  1  0  0  0
 22 24  1  0  0  0  0
 23 28  1  6  0  0  0
 24 26  1  0  0  0  0
 25 23  1  0  0  0  0
 26 23  1  0  0  0  0
 27 24  1  0  0  0  0
 27 25  1  0  0  0  0
 29 28  1  0  0  0  0
 31 32  1  0  0  0  0
 32 35  1  0  0  0  0
 32 36  1  1  0  0  0
 33 30  1  1  0  0  0
 33 31  1  0  0  0  0
 33 34  1  0  0  0  0
 34 35  1  0  0  0  0
 36 37  1  0  0  0  0
 36 54  1  1  0  0  0
 37 40  1  0  0  0  0
 39 37  2  0  0  0  0
 39 42  1  0  0  0  0
 40 38  2  0  0  0  0
 41 38  1  0  0  0  0
 41 43  1  0  0  0  0
 42 41  2  0  0  0  0
 44 45  1  0  0  0  0
 45 43  1  0  0  0  0
 46 44  2  0  0  0  0
 48 47  1  1  0  0  0
 48 44  1  0  0  0  0
 49 51  2  0  0  0  0
 49 50  1  0  0  0  0
 50 48  1  0  0  0  0
 52 53  1  0  0  0  0
 53 49  1  0  0  0  0
 55 56  1  0  0  0  0
 56 54  1  0  0  0  0
M  END
>  <MODEL>
4

>  <REMARK>
 VINA RESULT:      -6.0      3.764      7.934
  Name = 
  21 active torsions:
  status: ('A' for Active; 'I' for Inactive)
    1  A    between atoms: C_1  and  C_11
    2  A    between atoms: C_2  and  N_19
    3  A    between atoms: C_2  and  C_54
    4  A    between atoms: C_4  and  C_14
    5  A    between atoms: C_7  and  C_11
    6  A    between atoms: C_8  and  C_10
    7  A    between atoms: C_11  and  C_17
    8  A    between atoms: C_14  and  C_47
    9  A    between atoms: N_15  and  C_30
   10  A    between atoms: N_15  and  C_42
   11  A    between atoms: C_17  and  C_25
   12  A    between atoms: C_20  and  O_41
   13  A    between atoms: C_24  and  N_27
   14  A    between atoms: C_24  and  C_33
   15  A    between atoms: C_26  and  C_50
   16  A    between atoms: N_34  and  C_39
   17  A    between atoms: C_35  and  C_50
   18  A    between atoms: C_35  and  C_56
   19  A    between atoms: C_39  and  C_43
   20  A    between atoms: C_42  and  C_56
   21  A    between atoms: O_55  and  C_56
                            x       y       z     vdW  Elec       q    Type
                         _______ _______ _______ _____ _____    ______ ____

>  <TORSDO>
F 21

$$$$
=
 OpenBabel11042417233D

 56 60  0  0  1  0  0  0  0  0999 V2000
  190.8800  173.4660  140.7390 C   0  0  2  0  0  3  0  0  0  0  0  0
  188.5040  173.4570  139.8720 N   0  0  0  0  0  2  0  0  0  0  0  0
  189.0840  174.6580  141.7830 O   0  0  0  0  0  0  0  0  0  0  0  0
  189.4510  173.9050  140.8450 C   0  0  0  0  0  0  0  0  0  0  0  0
  188.9030  172.4750  138.8660 C   0  0  0  0  0  2  0  0  0  0  0  0
  191.2270  173.1640  139.3020 C   0  0  0  0  0  3  0  0  0  0  0  0
  190.3230  172.7170  138.4210 C   0  0  0  0  0  0  0  0  0  0  0  0
  190.7680  172.3820  137.0980 N   0  0  0  0  0  2  0  0  0  0  0  0
  189.5070  171.7920  135.1370 C   0  0  0  0  0  2  0  0  0  0  0  0
  190.1370  172.7190  135.8530 C   0  0  0  0  0  0  0  0  0  0  0  0
  189.9210  174.1740  135.5020 C   0  0  1  0  0  3  0  0  0  0  0  0
  188.2130  175.6380  135.0050 C   0  0  0  0  0  1  0  0  0  0  0  0
  188.6700  174.6840  135.9330 O   0  0  0  0  0  0  0  0  0  0  0  0
  191.1020  175.0860  135.8590 C   0  0  0  0  0  2  0  0  0  0  0  0
  192.2900  174.8020  134.9560 C   0  0  0  0  0  2  0  0  0  0  0  0
  194.6200  173.9990  135.3630 C   0  0  0  0  0  2  0  0  0  0  0  0
  193.3160  175.2300  137.1990 C   0  0  0  0  0  2  0  0  0  0  0  0
  193.5870  175.0860  135.6920 C   0  0  2  0  0  3  0  0  0  0  0  0
  194.5700  174.9350  138.0160 C   0  0  0  0  0  2  0  0  0  0  0  0
  195.0490  173.4940  137.8040 C   0  0  0  0  0  2  0  0  0  0  0  0
  194.6650  172.9100  136.4370 C   0  0  2  0  0  3  0  0  0  0  0  0
  195.6530  171.8230  136.0550 C   0  0  0  0  0  2  0  0  0  0  0  0
  193.4980  169.2380  137.2150 C   0  0  1  0  0  3  0  0  0  0  0  0
  194.9620  170.5600  135.8440 N   0  0  0  0  0  0  0  0  0  0  0  0
  192.7000  169.8220  136.0750 C   0  0  0  0  0  2  0  0  0  0  0  0
  194.8550  169.9140  137.1430 C   0  0  0  0  0  2  0  0  0  0  0  0
  193.5960  170.8720  135.4600 C   0  0  0  0  0  2  0  0  0  0  0  0
  192.8170  169.5590  138.5320 C   0  0  0  0  0  2  0  0  0  0  0  0
  193.6820  170.4860  139.3640 C   0  0  0  0  0  1  0  0  0  0  0  0
  191.1090  172.2400  141.6130 C   0  0  0  0  0  2  0  0  0  0  0  0
  192.7160  174.2330  142.6130 S   0  0  0  0  0  0  0  0  0  0  0  0
  193.2580  174.0550  144.3340 C   0  0  2  0  0  3  0  0  0  0  0  0
  192.1670  172.5070  142.6700 C   0  0  1  0  0  3  0  0  0  0  0  0
  191.5980  172.2370  144.0510 C   0  0  0  0  0  2  0  0  0  0  0  0
  192.1980  173.2250  145.0390 C   0  0  0  0  0  2  0  0  0  0  0  0
  193.4450  175.4260  145.0020 C   0  0  1  0  0  3  0  0  0  0  0  0
  192.1790  176.0030  145.5750 C   0  0  0  0  0  0  0  0  0  0  0  0
  190.6700  176.4020  147.4330 C   0  0  0  0  0  3  0  0  0  0  0  0
  191.3310  176.7360  144.7370 C   0  0  0  0  0  3  0  0  0  0  0  0
  191.8470  175.8450  146.9280 C   0  0  0  0  0  3  0  0  0  0  0  0
  189.8250  177.1430  146.5920 C   0  0  0  0  0  0  0  0  0  0  0  0
  190.1570  177.2990  145.2440 C   0  0  0  0  0  3  0  0  0  0  0  0
  188.5320  177.7030  147.0910 C   0  0  0  0  0  2  0  0  0  0  0  0
  186.1710  178.0890  146.2870 C   0  0  0  0  0  0  0  0  0  0  0  0
  187.4510  177.4700  146.1430 N   0  0  0  0  0  2  0  0  0  0  0  0
  185.9280  178.8300  147.2770 O   0  0  0  0  0  0  0  0  0  0  0  0
  183.9800  178.6250  145.5860 O   0  0  0  0  0  1  0  0  0  0  0  0
  185.1080  177.8710  145.2600 C   0  0  1  0  0  3  0  0  0  0  0  0
  185.9970  177.3060  142.9500 C   0  0  0  0  0  0  0  0  0  0  0  0
  185.5780  178.2530  143.9340 N   0  0  0  0  0  2  0  0  0  0  0  0
  185.9970  176.0710  143.2100 O   0  0  0  0  0  0  0  0  0  0  0  0
  187.7520  177.9300  141.4180 N   0  0  0  0  0  1  0  0  0  0  0  0
  186.4140  177.7620  141.7020 O   0  0  0  0  0  0  0  0  0  0  0  0
  194.5850  175.4440  146.0250 C   0  0  0  0  0  2  0  0  0  0  0  0
  196.6000  174.9200  144.6800 C   0  0  0  0  0  1  0  0  0  0  0  0
  195.6490  174.3960  145.7380 C   0  0  0  0  0  2  0  0  0  0  0  0
  1  4  1  0  0  0  0
  1 30  1  1  0  0  0
  2  4  1  0  0  0  0
  4  3  2  0  0  0  0
  5  2  1  0  0  0  0
  6  1  1  0  0  0  0
  7  5  1  0  0  0  0
  7  6  2  0  0  0  0
  8  7  1  0  0  0  0
  9 10  2  0  0  0  0
 10  8  1  0  0  0  0
 11 10  1  0  0  0  0
 11 14  1  1  0  0  0
 11 13  1  0  0  0  0
 12 13  1  0  0  0  0
 15 14  1  0  0  0  0
 16 18  1  0  0  0  0
 16 21  1  0  0  0  0
 17 19  1  0  0  0  0
 18 15  1  6  0  0  0
 18 17  1  0  0  0  0
 20 19  1  0  0  0  0
 21 22  1  6  0  0  0
 21 20  1  0  0  0  0
 23 28  1  1  0  0  0
 24 22  1  0  0  0  0
 24 26  1  0  0  0  0
 25 23  1  0  0  0  0
 26 23  1  0  0  0  0
 27 24  1  0  0  0  0
 27 25  1  0  0  0  0
 28 29  1  0  0  0  0
 31 33  1  0  0  0  0
 31 32  1  0  0  0  0
 32 36  1  1  0  0  0
 32 35  1  0  0  0  0
 33 30  1  6  0  0  0
 33 34  1  0  0  0  0
 34 35  1  0  0  0  0
 36 37  1  0  0  0  0
 36 54  1  1  0  0  0
 37 40  1  0  0  0  0
 39 42  1  0  0  0  0
 39 37  2  0  0  0  0
 40 38  2  0  0  0  0
 41 43  1  0  0  0  0
 41 38  1  0  0  0  0
 42 41  2  0  0  0  0
 44 46  2  0  0  0  0
 45 44  1  0  0  0  0
 45 43  1  0  0  0  0
 48 47  1  1  0  0  0
 48 44  1  0  0  0  0
 49 51  2  0  0  0  0
 49 50  1  0  0  0  0
 50 48  1  0  0  0  0
 52 53  1  0  0  0  0
 53 49  1  0  0  0  0
 55 56  1  0  0  0  0
 56 54  1  0  0  0  0
M  END
>  <MODEL>
5

>  <REMARK>
 VINA RESULT:      -5.9      4.412      9.038
  Name = 
  21 active torsions:
  status: ('A' for Active; 'I' for Inactive)
    1  A    between atoms: C_1  and  C_11
    2  A    between atoms: C_2  and  N_19
    3  A    between atoms: C_2  and  C_54
    4  A    between atoms: C_4  and  C_14
    5  A    between atoms: C_7  and  C_11
    6  A    between atoms: C_8  and  C_10
    7  A    between atoms: C_11  and  C_17
    8  A    between atoms: C_14  and  C_47
    9  A    between atoms: N_15  and  C_30
   10  A    between atoms: N_15  and  C_42
   11  A    between atoms: C_17  and  C_25
   12  A    between atoms: C_20  and  O_41
   13  A    between atoms: C_24  and  N_27
   14  A    between atoms: C_24  and  C_33
   15  A    between atoms: C_26  and  C_50
   16  A    between atoms: N_34  and  C_39
   17  A    between atoms: C_35  and  C_50
   18  A    between atoms: C_35  and  C_56
   19  A    between atoms: C_39  and  C_43
   20  A    between atoms: C_42  and  C_56
   21  A    between atoms: O_55  and  C_56
                            x       y       z     vdW  Elec       q    Type
                         _______ _______ _______ _____ _____    ______ ____

>  <TORSDO>
F 21

$$$$
=
 OpenBabel11042417233D

 56 60  0  0  1  0  0  0  0  0999 V2000
  186.7730  178.0460  145.8490 C   0  0  2  0  0  3  0  0  0  0  0  0
  184.4740  179.0510  145.5300 N   0  0  0  0  0  2  0  0  0  0  0  0
  185.5750  179.1860  147.5800 O   0  0  0  0  0  0  0  0  0  0  0  0
  185.5900  178.7930  146.3860 C   0  0  0  0  0  0  0  0  0  0  0  0
  184.4370  178.4760  144.1880 C   0  0  0  0  0  2  0  0  0  0  0  0
  186.8830  178.2490  144.3570 C   0  0  0  0  0  3  0  0  0  0  0  0
  185.8160  178.4600  143.5770 C   0  0  0  0  0  0  0  0  0  0  0  0
  186.0160  178.5620  142.1610 N   0  0  0  0  0  2  0  0  0  0  0  0
  188.3510  178.5320  141.5820 C   0  0  0  0  0  2  0  0  0  0  0  0
  187.1220  178.0570  141.3950 C   0  0  0  0  0  0  0  0  0  0  0  0
  186.9510  176.7820  140.6000 C   0  0  1  0  0  3  0  0  0  0  0  0
  186.4260  176.5840  138.3660 C   0  0  0  0  0  1  0  0  0  0  0  0
  187.4590  176.8630  139.2790 O   0  0  0  0  0  0  0  0  0  0  0  0
  187.3950  175.5160  141.3440 C   0  0  0  0  0  2  0  0  0  0  0  0
  188.6020  174.8920  140.6660 C   0  0  0  0  0  2  0  0  0  0  0  0
  190.8510  174.2710  141.5600 C   0  0  0  0  0  2  0  0  0  0  0  0
  188.9810  172.5210  141.3780 C   0  0  0  0  0  2  0  0  0  0  0  0
  189.3430  173.9930  141.6400 C   0  0  2  0  0  3  0  0  0  0  0  0
  190.0740  171.5860  141.8850 C   0  0  0  0  0  2  0  0  0  0  0  0
  191.4030  171.8350  141.1610 C   0  0  0  0  0  2  0  0  0  0  0  0
  191.5670  173.2720  140.6470 C   0  0  2  0  0  3  0  0  0  0  0  0
  193.0440  173.6080  140.5440 C   0  0  0  0  0  2  0  0  0  0  0  0
  195.2710  175.5670  142.5120 C   0  0  1  0  0  3  0  0  0  0  0  0
  193.3420  174.8200  141.2920 N   0  0  0  0  0  0  0  0  0  0  0  0
  195.1240  176.4140  141.2710 C   0  0  0  0  0  2  0  0  0  0  0  0
  194.2600  174.4460  142.3560 C   0  0  0  0  0  2  0  0  0  0  0  0
  194.1060  175.6930  140.4170 C   0  0  0  0  0  2  0  0  0  0  0  0
  196.6790  175.0040  142.5800 C   0  0  0  0  0  2  0  0  0  0  0  0
  197.1780  174.9960  144.0120 C   0  0  0  0  0  1  0  0  0  0  0  0
  186.6410  176.5650  146.1780 C   0  0  0  0  0  2  0  0  0  0  0  0
  188.9930  175.4900  145.2460 S   0  0  0  0  0  0  0  0  0  0  0  0
  190.4380  175.6300  146.3320 C   0  0  2  0  0  3  0  0  0  0  0  0
  187.9630  175.9860  146.6520 C   0  0  1  0  0  3  0  0  0  0  0  0
  188.7240  177.0260  147.4530 C   0  0  0  0  0  2  0  0  0  0  0  0
  190.2140  176.8610  147.1950 C   0  0  0  0  0  2  0  0  0  0  0  0
  191.7370  175.7350  145.5170 C   0  0  1  0  0  3  0  0  0  0  0  0
  192.4820  174.4340  145.3880 C   0  0  0  0  0  0  0  0  0  0  0  0
  194.4530  173.0640  145.7410 C   0  0  0  0  0  3  0  0  0  0  0  0
  191.8360  173.3420  144.7980 C   0  0  0  0  0  3  0  0  0  0  0  0
  193.7910  174.2870  145.8680 C   0  0  0  0  0  3  0  0  0  0  0  0
  193.8000  171.9680  145.1560 C   0  0  0  0  0  0  0  0  0  0  0  0
  192.4950  172.1160  144.6780 C   0  0  0  0  0  3  0  0  0  0  0  0
  194.5020  170.6620  144.9580 C   0  0  0  0  0  2  0  0  0  0  0  0
  196.3360  169.8490  143.4260 C   0  0  0  0  0  0  0  0  0  0  0  0
  195.7840  170.8450  144.2910 N   0  0  0  0  0  2  0  0  0  0  0  0
  195.7390  168.7540  143.2520 O   0  0  0  0  0  0  0  0  0  0  0  0
  197.9320  169.0070  141.9030 O   0  0  0  0  0  1  0  0  0  0  0  0
  197.6250  170.1010  142.7130 C   0  0  1  0  0  3  0  0  0  0  0  0
  196.6470  171.4350  140.7860 C   0  0  0  0  0  0  0  0  0  0  0  0
  197.5410  171.3030  141.8940 N   0  0  0  0  0  2  0  0  0  0  0  0
  195.8940  170.4780  140.4550 O   0  0  0  0  0  0  0  0  0  0  0  0
  196.8490  172.6470  138.7120 N   0  0  0  0  0  1  0  0  0  0  0  0
  196.6240  172.6290  140.0710 O   0  0  0  0  0  0  0  0  0  0  0  0
  191.5380  176.4070  144.1560 C   0  0  0  0  0  2  0  0  0  0  0  0
  191.1140  178.7030  143.3230 C   0  0  0  0  0  1  0  0  0  0  0  0
  192.0650  177.8340  144.1220 C   0  0  0  0  0  2  0  0  0  0  0  0
  1 30  1  6  0  0  0
  1  4  1  0  0  0  0
  2  4  1  0  0  0  0
  4  3  2  0  0  0  0
  5  2  1  0  0  0  0
  6  1  1  0  0  0  0
  7  5  1  0  0  0  0
  7  6  2  0  0  0  0
  8  7  1  0  0  0  0
 10  9  2  0  0  0  0
 10  8  1  0  0  0  0
 11 14  1  1  0  0  0
 11 10  1  0  0  0  0
 12 13  1  0  0  0  0
 13 11  1  0  0  0  0
 15 14  1  0  0  0  0
 16 18  1  0  0  0  0
 17 18  1  0  0  0  0
 17 19  1  0  0  0  0
 18 15  1  6  0  0  0
 20 19  1  0  0  0  0
 21 22  1  1  0  0  0
 21 20  1  0  0  0  0
 21 16  1  0  0  0  0
 22 24  1  0  0  0  0
 23 28  1  6  0  0  0
 24 26  1  0  0  0  0
 25 23  1  0  0  0  0
 26 23  1  0  0  0  0
 27 25  1  0  0  0  0
 27 24  1  0  0  0  0
 28 29  1  0  0  0  0
 31 32  1  0  0  0  0
 31 33  1  0  0  0  0
 32 36  1  6  0  0  0
 32 35  1  0  0  0  0
 33 30  1  6  0  0  0
 33 34  1  0  0  0  0
 35 34  1  0  0  0  0
 36 54  1  6  0  0  0
 37 36  1  0  0  0  0
 37 40  1  0  0  0  0
 38 40  2  0  0  0  0
 39 37  2  0  0  0  0
 41 38  1  0  0  0  0
 42 39  1  0  0  0  0
 42 41  2  0  0  0  0
 43 41  1  0  0  0  0
 44 45  1  0  0  0  0
 45 43  1  0  0  0  0
 46 44  2  0  0  0  0
 48 47  1  6  0  0  0
 48 44  1  0  0  0  0
 49 50  1  0  0  0  0
 50 48  1  0  0  0  0
 51 49  2  0  0  0  0
 52 53  1  0  0  0  0
 53 49  1  0  0  0  0
 55 56  1  0  0  0  0
 56 54  1  0  0  0  0
M  END
>  <MODEL>
6

>  <REMARK>
 VINA RESULT:      -5.8      4.210     11.119
  Name = 
  21 active torsions:
  status: ('A' for Active; 'I' for Inactive)
    1  A    between atoms: C_1  and  C_11
    2  A    between atoms: C_2  and  N_19
    3  A    between atoms: C_2  and  C_54
    4  A    between atoms: C_4  and  C_14
    5  A    between atoms: C_7  and  C_11
    6  A    between atoms: C_8  and  C_10
    7  A    between atoms: C_11  and  C_17
    8  A    between atoms: C_14  and  C_47
    9  A    between atoms: N_15  and  C_30
   10  A    between atoms: N_15  and  C_42
   11  A    between atoms: C_17  and  C_25
   12  A    between atoms: C_20  and  O_41
   13  A    between atoms: C_24  and  N_27
   14  A    between atoms: C_24  and  C_33
   15  A    between atoms: C_26  and  C_50
   16  A    between atoms: N_34  and  C_39
   17  A    between atoms: C_35  and  C_50
   18  A    between atoms: C_35  and  C_56
   19  A    between atoms: C_39  and  C_43
   20  A    between atoms: C_42  and  C_56
   21  A    between atoms: O_55  and  C_56
                            x       y       z     vdW  Elec       q    Type
                         _______ _______ _______ _____ _____    ______ ____

>  <TORSDO>
F 21

$$$$
=
 OpenBabel11042417233D

 56 60  0  0  1  0  0  0  0  0999 V2000
  190.1240  174.1120  141.0860 C   0  0  2  0  0  3  0  0  0  0  0  0
  188.6650  172.9870  139.3530 N   0  0  0  0  0  2  0  0  0  0  0  0
  188.0140  174.9840  140.3630 O   0  0  0  0  0  0  0  0  0  0  0  0
  188.8750  174.0730  140.2600 C   0  0  0  0  0  0  0  0  0  0  0  0
  189.5990  171.8630  139.3350 C   0  0  0  0  0  2  0  0  0  0  0  0
  191.2370  173.3740  140.3830 C   0  0  0  0  0  3  0  0  0  0  0  0
  191.0110  172.3410  139.5620 C   0  0  0  0  0  0  0  0  0  0  0  0
  192.1400  171.6540  139.0030 N   0  0  0  0  0  2  0  0  0  0  0  0
  194.4190  171.3300  139.7030 C   0  0  0  0  0  2  0  0  0  0  0  0
  193.5180  172.0570  139.0470 C   0  0  0  0  0  0  0  0  0  0  0  0
  194.0050  173.1320  138.1010 C   0  0  1  0  0  3  0  0  0  0  0  0
  194.0860  172.0920  136.0470 C   0  0  0  0  0  1  0  0  0  0  0  0
  193.4180  173.0650  136.8130 O   0  0  0  0  0  0  0  0  0  0  0  0
  193.9950  174.5450  138.7000 C   0  0  0  0  0  2  0  0  0  0  0  0
  195.4020  175.1130  138.7560 C   0  0  0  0  0  2  0  0  0  0  0  0
  195.0100  174.7420  141.1950 C   0  0  0  0  0  2  0  0  0  0  0  0
  197.2340  175.7070  140.3550 C   0  0  0  0  0  2  0  0  0  0  0  0
  196.0600  174.7540  140.0760 C   0  0  2  0  0  3  0  0  0  0  0  0
  197.5410  175.7820  141.8470 C   0  0  0  0  0  2  0  0  0  0  0  0
  196.3460  176.3330  142.6360 C   0  0  0  0  0  2  0  0  0  0  0  0
  194.9890  176.0590  141.9720 C   0  0  2  0  0  3  0  0  0  0  0  0
  193.9030  176.0370  143.0330 C   0  0  0  0  0  2  0  0  0  0  0  0
  193.5070  175.3100  146.4950 C   0  0  1  0  0  3  0  0  0  0  0  0
  194.4320  175.5270  144.2890 N   0  0  0  0  0  0  0  0  0  0  0  0
  193.6850  173.9320  145.9050 C   0  0  0  0  0  2  0  0  0  0  0  0
  193.7830  176.2730  145.3550 C   0  0  0  0  0  2  0  0  0  0  0  0
  193.9600  174.1610  144.4370 C   0  0  0  0  0  2  0  0  0  0  0  0
  192.0830  175.4720  146.9920 C   0  0  0  0  0  2  0  0  0  0  0  0
  191.9100  176.8140  147.6780 C   0  0  0  0  0  1  0  0  0  0  0  0
  189.8570  173.4970  142.4540 C   0  0  0  0  0  2  0  0  0  0  0  0
  188.8750  175.9150  143.3180 S   0  0  0  0  0  0  0  0  0  0  0  0
  189.0200  176.2660  145.0900 C   0  0  2  0  0  3  0  0  0  0  0  0
  190.0150  174.5270  143.5600 C   0  0  1  0  0  3  0  0  0  0  0  0
  189.7080  173.8920  144.9040 C   0  0  0  0  0  2  0  0  0  0  0  0
  189.0350  174.9210  145.7990 C   0  0  0  0  0  2  0  0  0  0  0  0
  187.8640  177.1530  145.5780 C   0  0  1  0  0  3  0  0  0  0  0  0
  186.8680  177.5010  144.5040 C   0  0  0  0  0  0  0  0  0  0  0  0
  185.1930  176.8690  142.8660 C   0  0  0  0  0  3  0  0  0  0  0  0
  186.6730  178.8470  144.1750 C   0  0  0  0  0  3  0  0  0  0  0  0
  186.1170  176.5130  143.8510 C   0  0  0  0  0  3  0  0  0  0  0  0
  184.9940  178.2200  142.5440 C   0  0  0  0  0  0  0  0  0  0  0  0
  185.7430  179.2040  143.1950 C   0  0  0  0  0  3  0  0  0  0  0  0
  184.0520  178.6270  141.4560 C   0  0  0  0  0  2  0  0  0  0  0  0
  181.5810  178.2440  141.1070 C   0  0  0  0  0  0  0  0  0  0  0  0
  182.6750  178.6570  141.9300 N   0  0  0  0  0  2  0  0  0  0  0  0
  181.7800  177.8800  139.9180 O   0  0  0  0  0  0  0  0  0  0  0  0
  180.1230  179.0530  142.7790 O   0  0  0  0  0  1  0  0  0  0  0  0
  180.1900  178.2320  141.6520 C   0  0  1  0  0  3  0  0  0  0  0  0
  179.2520  180.0230  140.1150 C   0  0  0  0  0  0  0  0  0  0  0  0
  179.2360  178.7000  140.6550 N   0  0  0  0  0  2  0  0  0  0  0  0
  180.1030  180.8650  140.5130 O   0  0  0  0  0  0  0  0  0  0  0  0
  178.6980  180.9110  137.9430 N   0  0  0  0  0  1  0  0  0  0  0  0
  178.3110  180.3740  139.1520 O   0  0  0  0  0  0  0  0  0  0  0  0
  187.1720  176.6030  146.8290 C   0  0  0  0  0  2  0  0  0  0  0  0
  186.6690  178.7460  147.9690 C   0  0  0  0  0  1  0  0  0  0  0  0
  186.0610  177.5120  147.3330 C   0  0  0  0  0  2  0  0  0  0  0  0
  1 30  1  1  0  0  0
  2  4  1  0  0  0  0
  4  3  2  0  0  0  0
  4  1  1  0  0  0  0
  5  2  1  0  0  0  0
  5  7  1  0  0  0  0
  6  1  1  0  0  0  0
  7  6  2  0  0  0  0
  8 10  1  0  0  0  0
  8  7  1  0  0  0  0
 10  9  2  0  0  0  0
 11 14  1  1  0  0  0
 11 10  1  0  0  0  0
 12 13  1  0  0  0  0
 13 11  1  0  0  0  0
 14 15  1  0  0  0  0
 16 21  1  0  0  0  0
 17 19  1  0  0  0  0
 18 15  1  6  0  0  0
 18 17  1  0  0  0  0
 18 16  1  0  0  0  0
 19 20  1  0  0  0  0
 21 20  1  0  0  0  0
 21 22  1  1  0  0  0
 22 24  1  0  0  0  0
 23 28  1  6  0  0  0
 24 27  1  0  0  0  0
 24 26  1  0  0  0  0
 25 23  1  0  0  0  0
 26 23  1  0  0  0  0
 27 25  1  0  0  0  0
 28 29  1  0  0  0  0
 31 33  1  0  0  0  0
 31 32  1  0  0  0  0
 32 36  1  1  0  0  0
 32 35  1  0  0  0  0
 33 30  1  6  0  0  0
 33 34  1  0  0  0  0
 34 35  1  0  0  0  0
 36 54  1  1  0  0  0
 37 36  1  0  0  0  0
 38 40  1  0  0  0  0
 39 37  1  0  0  0  0
 40 37  2  0  0  0  0
 41 38  2  0  0  0  0
 41 42  1  0  0  0  0
 42 39  2  0  0  0  0
 43 45  1  0  0  0  0
 43 41  1  0  0  0  0
 44 48  1  0  0  0  0
 44 45  1  0  0  0  0
 46 44  2  0  0  0  0
 48 47  1  1  0  0  0
 49 51  2  0  0  0  0
 49 50  1  0  0  0  0
 50 48  1  0  0  0  0
 52 53  1  0  0  0  0
 53 49  1  0  0  0  0
 54 56  1  0  0  0  0
 56 55  1  0  0  0  0
M  END
>  <MODEL>
7

>  <REMARK>
 VINA RESULT:      -5.7      2.612      4.459
  Name = 
  21 active torsions:
  status: ('A' for Active; 'I' for Inactive)
    1  A    between atoms: C_1  and  C_11
    2  A    between atoms: C_2  and  N_19
    3  A    between atoms: C_2  and  C_54
    4  A    between atoms: C_4  and  C_14
    5  A    between atoms: C_7  and  C_11
    6  A    between atoms: C_8  and  C_10
    7  A    between atoms: C_11  and  C_17
    8  A    between atoms: C_14  and  C_47
    9  A    between atoms: N_15  and  C_30
   10  A    between atoms: N_15  and  C_42
   11  A    between atoms: C_17  and  C_25
   12  A    between atoms: C_20  and  O_41
   13  A    between atoms: C_24  and  N_27
   14  A    between atoms: C_24  and  C_33
   15  A    between atoms: C_26  and  C_50
   16  A    between atoms: N_34  and  C_39
   17  A    between atoms: C_35  and  C_50
   18  A    between atoms: C_35  and  C_56
   19  A    between atoms: C_39  and  C_43
   20  A    between atoms: C_42  and  C_56
   21  A    between atoms: O_55  and  C_56
                            x       y       z     vdW  Elec       q    Type
                         _______ _______ _______ _____ _____    ______ ____

>  <TORSDO>
F 21

$$$$
=
 OpenBabel11042417233D

 56 60  0  0  1  0  0  0  0  0999 V2000
  190.4200  173.7540  141.6250 C   0  0  2  0  0  3  0  0  0  0  0  0
  190.3110  171.2340  141.8090 N   0  0  0  0  0  2  0  0  0  0  0  0
  188.9120  172.5960  143.0820 O   0  0  0  0  0  0  0  0  0  0  0  0
  189.8260  172.5140  142.2220 C   0  0  0  0  0  0  0  0  0  0  0  0
  191.4620  171.1450  140.9150 C   0  0  0  0  0  2  0  0  0  0  0  0
  190.9610  173.4610  140.2470 C   0  0  0  0  0  3  0  0  0  0  0  0
  191.4350  172.2590  139.8990 C   0  0  0  0  0  0  0  0  0  0  0  0
  192.0000  172.1020  138.5900 N   0  0  0  0  0  2  0  0  0  0  0  0
  193.3530  170.2280  137.9250 C   0  0  0  0  0  2  0  0  0  0  0  0
  193.2660  171.5150  138.2490 C   0  0  0  0  0  0  0  0  0  0  0  0
  194.4450  172.4160  137.9580 C   0  0  1  0  0  3  0  0  0  0  0  0
  195.5160  172.1820  135.9320 C   0  0  0  0  0  1  0  0  0  0  0  0
  194.4980  172.8700  136.6170 O   0  0  0  0  0  0  0  0  0  0  0  0
  194.6450  173.5370  138.9860 C   0  0  0  0  0  2  0  0  0  0  0  0
  196.1210  173.8440  139.1640 C   0  0  0  0  0  2  0  0  0  0  0  0
  197.2830  174.7740  141.1710 C   0  0  0  0  0  2  0  0  0  0  0  0
  194.9300  175.5730  140.5280 C   0  0  0  0  0  2  0  0  0  0  0  0
  196.2990  175.0770  140.0320 C   0  0  2  0  0  3  0  0  0  0  0  0
  195.0710  176.3910  141.8080 C   0  0  0  0  0  2  0  0  0  0  0  0
  195.6590  175.5490  142.9470 C   0  0  0  0  0  2  0  0  0  0  0  0
  196.5590  174.4030  142.4670 C   0  0  2  0  0  3  0  0  0  0  0  0
  197.5580  174.0540  143.5550 C   0  0  0  0  0  2  0  0  0  0  0  0
  195.4660  171.7600  145.2970 C   0  0  1  0  0  3  0  0  0  0  0  0
  197.2970  172.7200  144.0740 N   0  0  0  0  0  0  0  0  0  0  0  0
  195.4810  171.1750  143.9060 C   0  0  0  0  0  2  0  0  0  0  0  0
  196.4880  172.8830  145.2720 C   0  0  0  0  0  2  0  0  0  0  0  0
  196.4360  172.0430  143.1210 C   0  0  0  0  0  2  0  0  0  0  0  0
  194.0850  172.3090  145.6050 C   0  0  0  0  0  2  0  0  0  0  0  0
  193.1210  171.9790  144.4810 C   0  0  0  0  0  1  0  0  0  0  0  0
  191.5250  174.2840  142.5310 C   0  0  0  0  0  2  0  0  0  0  0  0
  189.4560  176.0810  142.7540 S   0  0  0  0  0  0  0  0  0  0  0  0
  189.5890  177.3140  144.0760 C   0  0  2  0  0  3  0  0  0  0  0  0
  191.2020  175.6810  143.0340 C   0  0  1  0  0  3  0  0  0  0  0  0
  191.4740  175.7690  144.5240 C   0  0  0  0  0  2  0  0  0  0  0  0
  190.4490  176.6930  145.1640 C   0  0  0  0  0  2  0  0  0  0  0  0
  188.2020  177.7120  144.6040 C   0  0  1  0  0  3  0  0  0  0  0  0
  187.1570  177.8530  143.5310 C   0  0  0  0  0  0  0  0  0  0  0  0
  186.4720  178.5110  141.2980 C   0  0  0  0  0  3  0  0  0  0  0  0
  185.8600  177.3960  143.7880 C   0  0  0  0  0  3  0  0  0  0  0  0
  187.4620  178.4030  142.2770 C   0  0  0  0  0  3  0  0  0  0  0  0
  185.1740  178.0450  141.5560 C   0  0  0  0  0  0  0  0  0  0  0  0
  184.8720  177.4980  142.8050 C   0  0  0  0  0  3  0  0  0  0  0  0
  184.0810  178.1980  140.5460 C   0  0  0  0  0  2  0  0  0  0  0  0
  181.5740  178.4580  140.6810 C   0  0  0  0  0  0  0  0  0  0  0  0
  182.8880  178.7860  141.1390 N   0  0  0  0  0  2  0  0  0  0  0  0
  181.4150  177.6740  139.7080 O   0  0  0  0  0  0  0  0  0  0  0  0
  180.6660  179.2820  142.7000 O   0  0  0  0  0  1  0  0  0  0  0  0
  180.3740  179.0380  141.3570 C   0  0  1  0  0  3  0  0  0  0  0  0
  178.9080  180.3580  139.7580 C   0  0  0  0  0  0  0  0  0  0  0  0
  179.9650  180.2810  140.7160 N   0  0  0  0  0  2  0  0  0  0  0  0
  178.2890  179.3160  139.4060 O   0  0  0  0  0  0  0  0  0  0  0  0
  179.5110  182.3510  138.5430 N   0  0  0  0  0  1  0  0  0  0  0  0
  178.5750  181.5940  139.2120 O   0  0  0  0  0  0  0  0  0  0  0  0
  187.7170  176.8170  145.7480 C   0  0  0  0  0  2  0  0  0  0  0  0
  186.0190  177.6380  147.3560 C   0  0  0  0  0  1  0  0  0  0  0  0
  187.5010  177.5830  147.0440 C   0  0  0  0  0  2  0  0  0  0  0  0
  1  4  1  0  0  0  0
  1 30  1  1  0  0  0
  2  4  1  0  0  0  0
  4  3  2  0  0  0  0
  5  2  1  0  0  0  0
  6  1  1  0  0  0  0
  7  6  2  0  0  0  0
  7  5  1  0  0  0  0
  8  7  1  0  0  0  0
  9 10  2  0  0  0  0
 10  8  1  0  0  0  0
 11 10  1  0  0  0  0
 11 14  1  1  0  0  0
 12 13  1  0  0  0  0
 13 11  1  0  0  0  0
 14 15  1  0  0  0  0
 16 21  1  0  0  0  0
 17 19  1  0  0  0  0
 18 15  1  1  0  0  0
 18 17  1  0  0  0  0
 18 16  1  0  0  0  0
 19 20  1  0  0  0  0
 21 20  1  0  0  0  0
 21 22  1  1  0  0  0
 22 24  1  0  0  0  0
 23 28  1  6  0  0  0
 24 26  1  0  0  0  0
 25 23  1  0  0  0  0
 26 23  1  0  0  0  0
 27 25  1  0  0  0  0
 27 24  1  0  0  0  0
 29 28  1  0  0  0  0
 31 33  1  0  0  0  0
 31 32  1  0  0  0  0
 32 36  1  1  0  0  0
 32 35  1  0  0  0  0
 33 30  1  1  0  0  0
 33 34  1  0  0  0  0
 34 35  1  0  0  0  0
 36 54  1  1  0  0  0
 37 39  1  0  0  0  0
 37 36  1  0  0  0  0
 38 41  2  0  0  0  0
 38 40  1  0  0  0  0
 40 37  2  0  0  0  0
 41 42  1  0  0  0  0
 42 39  2  0  0  0  0
 43 45  1  0  0  0  0
 43 41  1  0  0  0  0
 44 45  1  0  0  0  0
 44 48  1  0  0  0  0
 46 44  2  0  0  0  0
 48 47  1  1  0  0  0
 49 50  1  0  0  0  0
 50 48  1  0  0  0  0
 51 49  2  0  0  0  0
 52 53  1  0  0  0  0
 53 49  1  0  0  0  0
 54 56  1  0  0  0  0
 56 55  1  0  0  0  0
M  END
>  <MODEL>
8

>  <REMARK>
 VINA RESULT:      -5.7      2.806      4.984
  Name = 
  21 active torsions:
  status: ('A' for Active; 'I' for Inactive)
    1  A    between atoms: C_1  and  C_11
    2  A    between atoms: C_2  and  N_19
    3  A    between atoms: C_2  and  C_54
    4  A    between atoms: C_4  and  C_14
    5  A    between atoms: C_7  and  C_11
    6  A    between atoms: C_8  and  C_10
    7  A    between atoms: C_11  and  C_17
    8  A    between atoms: C_14  and  C_47
    9  A    between atoms: N_15  and  C_30
   10  A    between atoms: N_15  and  C_42
   11  A    between atoms: C_17  and  C_25
   12  A    between atoms: C_20  and  O_41
   13  A    between atoms: C_24  and  N_27
   14  A    between atoms: C_24  and  C_33
   15  A    between atoms: C_26  and  C_50
   16  A    between atoms: N_34  and  C_39
   17  A    between atoms: C_35  and  C_50
   18  A    between atoms: C_35  and  C_56
   19  A    between atoms: C_39  and  C_43
   20  A    between atoms: C_42  and  C_56
   21  A    between atoms: O_55  and  C_56
                            x       y       z     vdW  Elec       q    Type
                         _______ _______ _______ _____ _____    ______ ____

>  <TORSDO>
F 21

$$$$
=
 OpenBabel11042417233D

 56 60  0  0  1  0  0  0  0  0999 V2000
  189.5470  171.9230  141.1530 C   0  0  2  0  0  3  0  0  0  0  0  0
  188.8870  174.0790  140.0070 N   0  0  0  0  0  2  0  0  0  0  0  0
  188.5040  172.0120  138.9990 O   0  0  0  0  0  0  0  0  0  0  0  0
  188.9470  172.6500  139.9880 C   0  0  0  0  0  0  0  0  0  0  0  0
  189.5250  174.8200  141.0920 C   0  0  0  0  0  2  0  0  0  0  0  0
  189.4020  172.7440  142.4100 C   0  0  0  0  0  3  0  0  0  0  0  0
  189.3780  174.0830  142.3990 C   0  0  0  0  0  0  0  0  0  0  0  0
  189.3170  174.7740  143.6550 N   0  0  0  0  0  2  0  0  0  0  0  0
  191.4840  175.8150  143.7320 C   0  0  0  0  0  2  0  0  0  0  0  0
  190.4030  175.3800  144.3730 C   0  0  0  0  0  0  0  0  0  0  0  0
  190.1950  175.8010  145.8110 C   0  0  1  0  0  3  0  0  0  0  0  0
  191.5900  175.3920  147.5980 C   0  0  0  0  0  1  0  0  0  0  0  0
  191.3870  176.2010  146.4650 O   0  0  0  0  0  0  0  0  0  0  0  0
  189.0340  176.7830  146.0140 C   0  0  0  0  0  2  0  0  0  0  0  0
  187.7010  176.0570  145.9570 C   0  0  0  0  0  2  0  0  0  0  0  0
  185.4330  177.0810  146.1740 C   0  0  0  0  0  2  0  0  0  0  0  0
  187.3800  177.8750  147.6470 C   0  0  0  0  0  2  0  0  0  0  0  0
  186.7170  176.6920  146.9220 C   0  0  2  0  0  3  0  0  0  0  0  0
  186.3370  178.8670  148.1520 C   0  0  0  0  0  2  0  0  0  0  0  0
  185.5340  179.4720  146.9930 C   0  0  0  0  0  2  0  0  0  0  0  0
  185.4360  178.5550  145.7650 C   0  0  2  0  0  3  0  0  0  0  0  0
  184.1820  178.8940  144.9800 C   0  0  0  0  0  2  0  0  0  0  0  0
  186.3380  178.6690  142.1570 C   0  0  1  0  0  3  0  0  0  0  0  0
  184.5230  179.2600  143.6140 N   0  0  0  0  0  0  0  0  0  0  0  0
  185.0700  178.0400  141.6320 C   0  0  0  0  0  2  0  0  0  0  0  0
  185.9730  179.2340  143.5180 C   0  0  0  0  0  2  0  0  0  0  0  0
  184.0630  178.1880  142.7490 C   0  0  0  0  0  2  0  0  0  0  0  0
  187.4140  177.6070  142.2960 C   0  0  0  0  0  2  0  0  0  0  0  0
  188.7900  178.2210  142.1210 C   0  0  0  0  0  1  0  0  0  0  0  0
  191.0160  171.6270  140.8750 C   0  0  0  0  0  2  0  0  0  0  0  0
  192.5030  172.8500  138.9130 S   0  0  0  0  0  0  0  0  0  0  0  0
  192.8810  171.8600  137.4420 C   0  0  2  0  0  3  0  0  0  0  0  0
  191.2950  171.5830  139.3820 C   0  0  1  0  0  3  0  0  0  0  0  0
  191.8600  170.2270  139.0020 C   0  0  0  0  0  2  0  0  0  0  0  0
  192.8770  170.4060  137.8850 C   0  0  0  0  0  2  0  0  0  0  0  0
  194.2320  172.2640  136.8320 C   0  0  1  0  0  3  0  0  0  0  0  0
  195.1580  172.9490  137.8010 C   0  0  0  0  0  0  0  0  0  0  0  0
  196.2070  174.9460  138.6950 C   0  0  0  0  0  3  0  0  0  0  0  0
  195.8190  172.1790  138.7630 C   0  0  0  0  0  3  0  0  0  0  0  0
  195.3490  174.3390  137.7760 C   0  0  0  0  0  3  0  0  0  0  0  0
  196.8630  174.1720  139.6640 C   0  0  0  0  0  0  0  0  0  0  0  0
  196.6720  172.7880  139.6870 C   0  0  0  0  0  3  0  0  0  0  0  0
  197.8290  174.7880  140.6250 C   0  0  0  0  0  2  0  0  0  0  0  0
  196.8180  176.0000  142.5960 C   0  0  0  0  0  0  0  0  0  0  0  0
  197.2940  174.8000  141.9810 N   0  0  0  0  0  2  0  0  0  0  0  0
  196.8920  177.1010  141.9880 O   0  0  0  0  0  0  0  0  0  0  0  0
  195.5990  177.1770  144.2400 O   0  0  0  0  0  1  0  0  0  0  0  0
  196.2220  175.9590  143.9650 C   0  0  1  0  0  3  0  0  0  0  0  0
  194.7900  174.3660  145.3290 C   0  0  0  0  0  0  0  0  0  0  0  0
  195.2470  174.8810  144.0770 N   0  0  0  0  0  2  0  0  0  0  0  0
  195.2450  174.8250  146.4130 O   0  0  0  0  0  0  0  0  0  0  0  0
  194.1860  172.0610  145.6950 N   0  0  0  0  0  1  0  0  0  0  0  0
  193.8420  173.3470  145.3390 O   0  0  0  0  0  0  0  0  0  0  0  0
  194.9320  171.1120  136.1050 C   0  0  0  0  0  2  0  0  0  0  0  0
  197.1570  170.4130  135.2680 C   0  0  0  0  0  1  0  0  0  0  0  0
  196.1710  171.5610  135.3460 C   0  0  0  0  0  2  0  0  0  0  0  0
  1 30  1  6  0  0  0
  1  6  1  0  0  0  0
  2  5  1  0  0  0  0
  3  4  2  0  0  0  0
  4  2  1  0  0  0  0
  4  1  1  0  0  0  0
  5  7  1  0  0  0  0
  7  6  2  0  0  0  0
  7  8  1  0  0  0  0
  8 10  1  0  0  0  0
  9 10  2  0  0  0  0
 10 11  1  0  0  0  0
 11 14  1  6  0  0  0
 11 13  1  0  0  0  0
 13 12  1  0  0  0  0
 15 14  1  0  0  0  0
 16 18  1  0  0  0  0
 17 19  1  0  0  0  0
 18 15  1  6  0  0  0
 18 17  1  0  0  0  0
 20 19  1  0  0  0  0
 21 22  1  1  0  0  0
 21 16  1  0  0  0  0
 21 20  1  0  0  0  0
 23 28  1  1  0  0  0
 23 26  1  0  0  0  0
 24 22  1  0  0  0  0
 25 23  1  0  0  0  0
 25 27  1  0  0  0  0
 26 24  1  0  0  0  0
 27 24  1  0  0  0  0
 29 28  1  0  0  0  0
 31 33  1  0  0  0  0
 32 36  1  1  0  0  0
 32 35  1  0  0  0  0
 32 31  1  0  0  0  0
 33 30  1  1  0  0  0
 34 33  1  0  0  0  0
 35 34  1  0  0  0  0
 36 54  1  1  0  0  0
 36 37  1  0  0  0  0
 37 39  1  0  0  0  0
 38 41  2  0  0  0  0
 39 42  2  0  0  0  0
 40 37  2  0  0  0  0
 40 38  1  0  0  0  0
 41 42  1  0  0  0  0
 41 43  1  0  0  0  0
 43 45  1  0  0  0  0
 44 48  1  0  0  0  0
 45 44  1  0  0  0  0
 46 44  2  0  0  0  0
 48 50  1  0  0  0  0
 48 47  1  6  0  0  0
 49 53  1  0  0  0  0
 49 51  2  0  0  0  0
 50 49  1  0  0  0  0
 53 52  1  0  0  0  0
 55 56  1  0  0  0  0
 56 54  1  0  0  0  0
M  END
>  <MODEL>
9

>  <REMARK>
 VINA RESULT:      -5.7      4.318     11.492
  Name = 
  21 active torsions:
  status: ('A' for Active; 'I' for Inactive)
    1  A    between atoms: C_1  and  C_11
    2  A    between atoms: C_2  and  N_19
    3  A    between atoms: C_2  and  C_54
    4  A    between atoms: C_4  and  C_14
    5  A    between atoms: C_7  and  C_11
    6  A    between atoms: C_8  and  C_10
    7  A    between atoms: C_11  and  C_17
    8  A    between atoms: C_14  and  C_47
    9  A    between atoms: N_15  and  C_30
   10  A    between atoms: N_15  and  C_42
   11  A    between atoms: C_17  and  C_25
   12  A    between atoms: C_20  and  O_41
   13  A    between atoms: C_24  and  N_27
   14  A    between atoms: C_24  and  C_33
   15  A    between atoms: C_26  and  C_50
   16  A    between atoms: N_34  and  C_39
   17  A    between atoms: C_35  and  C_50
   18  A    between atoms: C_35  and  C_56
   19  A    between atoms: C_39  and  C_43
   20  A    between atoms: C_42  and  C_56
   21  A    between atoms: O_55  and  C_56
                            x       y       z     vdW  Elec       q    Type
                         _______ _______ _______ _____ _____    ______ ____

>  <TORSDO>
F 21

$$$$
