=
 OpenBabel11042417093D

 38 40  0  0  1  0  0  0  0  0999 V2000
  186.0240  177.5780  142.0080 C   0  0  2  0  0  3  0  0  0  0  0  0
  186.4500  176.1670  142.5860 C   0  0  2  0  0  3  0  0  0  0  0  0
  186.3960  177.4840  143.4900 C   0  0  2  0  0  3  0  0  0  0  0  0
  187.9210  175.7830  142.1750 C   0  0  0  0  0  2  0  0  0  0  0  0
  188.0300  173.2900  141.4750 O   0  0  0  0  0  1  0  0  0  0  0  0
  188.6290  174.3720  142.2080 C   0  0  2  0  0  3  0  0  0  0  0  0
  189.3490  174.0410  143.5330 C   0  0  0  0  0  2  0  0  0  0  0  0
  190.2860  175.0120  143.8890 O   0  0  0  0  0  0  0  0  0  0  0  0
  191.5350  175.1460  143.1450 C   0  0  0  0  0  2  0  0  0  0  0  0
  192.1680  176.5720  143.0340 C   0  0  0  0  0  2  0  0  0  0  0  0
  191.8060  176.9070  144.4150 C   0  0  0  0  0  2  0  0  0  0  0  0
  192.7560  176.3980  145.3810 C   0  0  0  0  0  2  0  0  0  0  0  0
  193.9150  177.1000  144.9360 N   0  0  0  0  0  2  0  0  0  0  0  0
  194.3850  175.5250  146.4580 C   0  0  0  0  0  1  0  0  0  0  0  0
  195.0160  176.3670  145.3960 C   0  0  1  0  0  3  0  0  0  0  0  0
  197.9150  175.0110  143.3990 O   0  0  0  0  0  0  0  0  0  0  0  0
  195.8370  175.6330  144.2650 C   0  0  1  0  0  3  0  0  0  0  0  0
  196.2000  176.5650  143.2280 N   0  0  0  0  0  2  0  0  0  0  0  0
  197.0420  174.7670  144.4650 C   0  0  0  0  0  0  0  0  0  0  0  0
  197.3060  174.0260  145.3960 O   0  0  0  0  0  0  0  0  0  0  0  0
  197.4200  176.0380  142.5790 C   0  0  0  0  0  2  0  0  0  0  0  0
  184.6230  177.8650  142.2060 C   0  0  0  0  0  2  0  0  0  0  0  0
  183.9380  178.2160  141.0630 N   0  0  0  0  0  2  0  0  0  0  0  0
  182.6290  178.4500  141.4220 C   0  0  0  0  0  0  0  0  0  0  0  0
  182.2860  178.7170  142.6550 O   0  0  0  0  0  0  0  0  0  0  0  0
  181.7610  177.9980  140.4770 C   0  0  0  0  0  2  0  0  0  0  0  0
  180.4310  180.0040  140.3890 O   0  0  0  0  0  0  0  0  0  0  0  0
  180.5590  178.7870  140.6710 C   0  0  0  0  0  0  0  0  0  0  0  0
  178.9010  177.6710  142.0120 C   0  0  0  0  0  2  0  0  0  0  0  0
  179.4160  177.9300  140.9010 N   0  0  0  0  0  0  0  0  0  0  0  0
  186.0120  176.6820  144.6740 O   0  0  0  0  0  0  0  0  0  0  0  0
  186.9600  177.6950  146.5910 C   0  0  0  0  0  0  0  0  0  0  0  0
  188.6850  177.3380  146.2950 Cl  0  0  0  0  0  0  0  0  0  0  0  0
  184.7010  177.8030  146.5570 C   0  0  0  0  0  3  0  0  0  0  0  0
  186.4340  178.5470  147.6760 C   0  0  0  0  0  0  0  0  0  0  0  0
  186.9950  179.0920  148.6060 O   0  0  0  0  0  0  0  0  0  0  0  0
  185.9180  177.3250  145.9160 C   0  0  0  0  0  0  0  0  0  0  0  0
  184.9830  178.5160  147.5340 N   0  0  0  0  0  0  0  0  0  0  0  0
  1 22  1  1  0  0  0
  1  2  1  0  0  0  0
  1  3  1  0  0  0  0
  2  4  1  6  0  0  0
  2  3  1  0  0  0  0
  3 31  1  1  0  0  0
  4  6  1  0  0  0  0
  6  5  1  1  0  0  0
  6  7  1  0  0  0  0
  7  8  1  0  0  0  0
  9  8  1  0  0  0  0
 10  9  1  0  0  0  0
 10 11  1  0  0  0  0
 11 12  1  0  0  0  0
 13 12  1  0  0  0  0
 13 15  1  0  0  0  0
 15 14  1  1  0  0  0
 16 19  1  0  0  0  0
 17 19  1  0  0  0  0
 17 15  1  1  0  0  0
 18 17  1  0  0  0  0
 19 20  2  0  0  0  0
 21 18  1  0  0  0  0
 21 16  1  0  0  0  0
 23 24  1  0  0  0  0
 23 22  1  0  0  0  0
 24 25  2  0  0  0  0
 26 28  1  0  0  0  0
 26 24  1  0  0  0  0
 27 28  2  0  0  0  0
 28 30  1  0  0  0  0
 30 29  2  0  0  0  0
 31 37  1  0  0  0  0
 32 35  1  0  0  0  0
 33 32  1  0  0  0  0
 34 38  2  0  0  0  0
 35 36  2  0  0  0  0
 37 34  1  0  0  0  0
 37 32  2  0  0  0  0
 38 35  1  0  0  0  0
M  END
>  <MODEL>
1

>  <REMARK>
 VINA RESULT:      -6.1      0.000      0.000
  Name = 
  18 active torsions:
  status: ('A' for Active; 'I' for Inactive)
    1  A    between atoms: N_2  and  C_26
    2  A    between atoms: C_5  and  C_15
    3  A    between atoms: C_7  and  C_13
    4  A    between atoms: C_7  and  C_37
    5  A    between atoms: C_8  and  O_21
    6  A    between atoms: C_8  and  C_37
    7  A    between atoms: C_10  and  C_26
    8  A    between atoms: C_13  and  N_38
    9  A    between atoms: C_15  and  N_38
   10  A    between atoms: C_17  and  O_21
   11  A    between atoms: C_17  and  C_29
   12  A    between atoms: C_19  and  C_33
   13  A    between atoms: C_22  and  C_25
   14  A    between atoms: N_24  and  C_31
   15  A    between atoms: C_25  and  C_29
   16  A    between atoms: O_27  and  C_30
   17  A    between atoms: O_27  and  C_34
   18  A    between atoms: C_31  and  C_33
                            x       y       z     vdW  Elec       q    Type
                         _______ _______ _______ _____ _____    ______ ____

>  <TORSDO>
F 18

$$$$
=
 OpenBabel11042417093D

 38 40  0  0  1  0  0  0  0  0999 V2000
  194.1060  176.0990  146.2140 C   0  0  2  0  0  3  0  0  0  0  0  0
  192.8130  175.6220  145.4340 C   0  0  2  0  0  3  0  0  0  0  0  0
  193.9180  176.5680  144.7690 C   0  0  2  0  0  3  0  0  0  0  0  0
  191.5310  176.4210  145.8790 C   0  0  0  0  0  2  0  0  0  0  0  0
  191.2980  176.9560  148.4030 O   0  0  0  0  0  1  0  0  0  0  0  0
  190.7280  176.3420  147.2350 C   0  0  2  0  0  3  0  0  0  0  0  0
  189.9020  175.0510  147.4230 C   0  0  0  0  0  2  0  0  0  0  0  0
  188.5760  175.2000  147.0150 O   0  0  0  0  0  0  0  0  0  0  0  0
  188.0350  176.5240  146.7210 C   0  0  0  0  0  2  0  0  0  0  0  0
  186.4790  176.6880  146.7010 C   0  0  0  0  0  2  0  0  0  0  0  0
  186.5710  178.1480  146.8080 C   0  0  0  0  0  2  0  0  0  0  0  0
  185.5510  178.8300  146.0420 C   0  0  0  0  0  2  0  0  0  0  0  0
  185.0620  177.7180  145.2940 N   0  0  0  0  0  2  0  0  0  0  0  0
  184.7630  179.7000  144.2940 C   0  0  0  0  0  1  0  0  0  0  0  0
  184.6570  178.2280  144.0540 C   0  0  1  0  0  3  0  0  0  0  0  0
  187.0500  177.8980  141.1570 O   0  0  0  0  0  0  0  0  0  0  0  0
  185.4260  177.6270  142.8140 C   0  0  1  0  0  3  0  0  0  0  0  0
  184.7720  178.0100  141.5870 N   0  0  0  0  0  2  0  0  0  0  0  0
  186.8940  177.7460  142.5390 C   0  0  0  0  0  0  0  0  0  0  0  0
  187.8190  177.7870  143.3290 O   0  0  0  0  0  0  0  0  0  0  0  0
  185.7990  177.9890  140.5240 C   0  0  0  0  0  2  0  0  0  0  0  0
  195.2520  175.2570  145.9680 C   0  0  0  0  0  2  0  0  0  0  0  0
  194.9640  173.9150  145.8350 N   0  0  0  0  0  2  0  0  0  0  0  0
  196.1610  173.2490  145.6850 C   0  0  0  0  0  0  0  0  0  0  0  0
  197.2970  173.7740  146.0620 O   0  0  0  0  0  0  0  0  0  0  0  0
  196.0580  172.2290  144.7900 C   0  0  0  0  0  2  0  0  0  0  0  0
  194.4510  170.5230  145.3420 O   0  0  0  0  0  0  0  0  0  0  0  0
  195.5370  171.1140  145.5600 C   0  0  0  0  0  0  0  0  0  0  0  0
  196.5960  169.3620  146.8250 C   0  0  0  0  0  2  0  0  0  0  0  0
  196.5720  170.5350  146.3880 N   0  0  0  0  0  0  0  0  0  0  0  0
  193.6620  175.9660  143.4400 O   0  0  0  0  0  0  0  0  0  0  0  0
  194.5810  175.4010  141.3340 C   0  0  0  0  0  0  0  0  0  0  0  0
  193.2030  174.4990  140.6400 Cl  0  0  0  0  0  0  0  0  0  0  0  0
  196.0350  176.5080  142.6660 C   0  0  0  0  0  3  0  0  0  0  0  0
  195.8170  175.7660  140.6150 C   0  0  0  0  0  0  0  0  0  0  0  0
  196.2020  175.4880  139.4950 O   0  0  0  0  0  0  0  0  0  0  0  0
  194.7180  175.9060  142.5190 C   0  0  0  0  0  0  0  0  0  0  0  0
  196.6510  176.4590  141.5900 N   0  0  0  0  0  0  0  0  0  0  0  0
  1 22  1  6  0  0  0
  2  4  1  1  0  0  0
  2  1  1  0  0  0  0
  3 31  1  6  0  0  0
  3  2  1  0  0  0  0
  3  1  1  0  0  0  0
  4  6  1  0  0  0  0
  6  7  1  0  0  0  0
  6  5  1  1  0  0  0
  8  7  1  0  0  0  0
  9  8  1  0  0  0  0
 10  9  1  0  0  0  0
 10 11  1  0  0  0  0
 12 11  1  0  0  0  0
 13 12  1  0  0  0  0
 15 14  1  1  0  0  0
 15 13  1  0  0  0  0
 16 19  1  0  0  0  0
 17 15  1  1  0  0  0
 18 17  1  0  0  0  0
 19 17  1  0  0  0  0
 19 20  2  0  0  0  0
 21 16  1  0  0  0  0
 21 18  1  0  0  0  0
 23 22  1  0  0  0  0
 24 23  1  0  0  0  0
 24 25  2  0  0  0  0
 26 28  1  0  0  0  0
 26 24  1  0  0  0  0
 27 28  2  0  0  0  0
 28 30  1  0  0  0  0
 30 29  2  0  0  0  0
 32 37  2  0  0  0  0
 33 32  1  0  0  0  0
 35 32  1  0  0  0  0
 35 38  1  0  0  0  0
 36 35  2  0  0  0  0
 37 34  1  0  0  0  0
 37 31  1  0  0  0  0
 38 34  2  0  0  0  0
M  END
>  <MODEL>
2

>  <REMARK>
 VINA RESULT:      -6.1      3.338     11.438
  Name = 
  18 active torsions:
  status: ('A' for Active; 'I' for Inactive)
    1  A    between atoms: N_2  and  C_26
    2  A    between atoms: C_5  and  C_15
    3  A    between atoms: C_7  and  C_13
    4  A    between atoms: C_7  and  C_37
    5  A    between atoms: C_8  and  O_21
    6  A    between atoms: C_8  and  C_37
    7  A    between atoms: C_10  and  C_26
    8  A    between atoms: C_13  and  N_38
    9  A    between atoms: C_15  and  N_38
   10  A    between atoms: C_17  and  O_21
   11  A    between atoms: C_17  and  C_29
   12  A    between atoms: C_19  and  C_33
   13  A    between atoms: C_22  and  C_25
   14  A    between atoms: N_24  and  C_31
   15  A    between atoms: C_25  and  C_29
   16  A    between atoms: O_27  and  C_30
   17  A    between atoms: O_27  and  C_34
   18  A    between atoms: C_31  and  C_33
                            x       y       z     vdW  Elec       q    Type
                         _______ _______ _______ _____ _____    ______ ____

>  <TORSDO>
F 18

$$$$
=
 OpenBabel11042417093D

 38 40  0  0  1  0  0  0  0  0999 V2000
  189.2350  176.9550  144.5250 C   0  0  2  0  0  3  0  0  0  0  0  0
  190.0570  177.9270  143.5830 C   0  0  2  0  0  3  0  0  0  0  0  0
  188.8980  176.9740  143.0310 C   0  0  2  0  0  3  0  0  0  0  0  0
  191.4940  177.3650  143.2700 C   0  0  0  0  0  2  0  0  0  0  0  0
  192.4460  176.7620  145.6030 O   0  0  0  0  0  1  0  0  0  0  0  0
  192.4510  176.5090  144.1880 C   0  0  2  0  0  3  0  0  0  0  0  0
  193.7870  176.1020  143.5270 C   0  0  0  0  0  2  0  0  0  0  0  0
  193.8750  174.7280  143.3040 O   0  0  0  0  0  0  0  0  0  0  0  0
  194.2960  173.8270  144.3740 C   0  0  0  0  0  2  0  0  0  0  0  0
  193.1950  172.9690  145.0800 C   0  0  0  0  0  2  0  0  0  0  0  0
  193.5710  171.7630  144.3330 C   0  0  0  0  0  2  0  0  0  0  0  0
  192.4430  170.8970  144.0670 C   0  0  0  0  0  2  0  0  0  0  0  0
  191.4140  171.8840  144.0360 N   0  0  0  0  0  2  0  0  0  0  0  0
  189.2530  172.0700  143.4780 C   0  0  0  0  0  1  0  0  0  0  0  0
  190.5540  171.5180  142.9920 C   0  0  1  0  0  3  0  0  0  0  0  0
  190.6610  173.1730  139.6050 O   0  0  0  0  0  0  0  0  0  0  0  0
  191.0450  171.9460  141.5550 C   0  0  1  0  0  3  0  0  0  0  0  0
  190.4990  171.0630  140.5560 N   0  0  0  0  0  2  0  0  0  0  0  0
  190.9610  173.3200  140.9630 C   0  0  0  0  0  0  0  0  0  0  0  0
  191.0500  174.4000  141.5200 O   0  0  0  0  0  0  0  0  0  0  0  0
  190.4450  171.8220  139.2880 C   0  0  0  0  0  2  0  0  0  0  0  0
  187.9940  177.5350  144.9820 C   0  0  0  0  0  2  0  0  0  0  0  0
  187.3750  176.8440  146.0020 N   0  0  0  0  0  2  0  0  0  0  0  0
  186.0910  176.5610  145.5880 C   0  0  0  0  0  0  0  0  0  0  0  0
  185.7540  176.5640  144.3250 O   0  0  0  0  0  0  0  0  0  0  0  0
  185.2000  176.6730  146.6100 C   0  0  0  0  0  2  0  0  0  0  0  0
  183.8720  178.4990  145.7730 O   0  0  0  0  0  0  0  0  0  0  0  0
  184.7460  178.0500  146.5550 C   0  0  0  0  0  0  0  0  0  0  0  0
  186.1420  179.5450  147.8230 C   0  0  0  0  0  2  0  0  0  0  0  0
  185.1600  178.7740  147.7370 N   0  0  0  0  0  0  0  0  0  0  0  0
  188.5440  177.9700  141.9940 O   0  0  0  0  0  0  0  0  0  0  0  0
  186.2560  178.4710  141.6570 C   0  0  0  0  0  0  0  0  0  0  0  0
  185.9570  179.4840  143.0990 Cl  0  0  0  0  0  0  0  0  0  0  0  0
  187.1000  177.0840  140.0840 C   0  0  0  0  0  3  0  0  0  0  0  0
  185.3000  178.2430  140.5560 C   0  0  0  0  0  0  0  0  0  0  0  0
  184.1420  178.5870  140.4200 O   0  0  0  0  0  0  0  0  0  0  0  0
  187.3260  177.8250  141.3160 C   0  0  0  0  0  0  0  0  0  0  0  0
  185.9710  177.3350  139.6330 N   0  0  0  0  0  0  0  0  0  0  0  0
  1 22  1  1  0  0  0
  2  4  1  6  0  0  0
  2  1  1  0  0  0  0
  3 31  1  1  0  0  0
  3  2  1  0  0  0  0
  3  1  1  0  0  0  0
  4  6  1  0  0  0  0
  6  5  1  1  0  0  0
  7  6  1  0  0  0  0
  8  7  1  0  0  0  0
  8  9  1  0  0  0  0
  9 10  1  0  0  0  0
 11 10  1  0  0  0  0
 12 11  1  0  0  0  0
 13 12  1  0  0  0  0
 15 14  1  1  0  0  0
 15 13  1  0  0  0  0
 16 19  1  0  0  0  0
 17 15  1  1  0  0  0
 18 17  1  0  0  0  0
 19 20  2  0  0  0  0
 19 17  1  0  0  0  0
 21 16  1  0  0  0  0
 21 18  1  0  0  0  0
 22 23  1  0  0  0  0
 24 23  1  0  0  0  0
 24 26  1  0  0  0  0
 25 24  2  0  0  0  0
 27 28  2  0  0  0  0
 28 26  1  0  0  0  0
 28 30  1  0  0  0  0
 30 29  2  0  0  0  0
 32 33  1  0  0  0  0
 34 37  1  0  0  0  0
 35 32  1  0  0  0  0
 36 35  2  0  0  0  0
 37 32  2  0  0  0  0
 37 31  1  0  0  0  0
 38 34  2  0  0  0  0
 38 35  1  0  0  0  0
M  END
>  <MODEL>
3

>  <REMARK>
 VINA RESULT:      -6.0      3.297      6.300
  Name = 
  18 active torsions:
  status: ('A' for Active; 'I' for Inactive)
    1  A    between atoms: N_2  and  C_26
    2  A    between atoms: C_5  and  C_15
    3  A    between atoms: C_7  and  C_13
    4  A    between atoms: C_7  and  C_37
    5  A    between atoms: C_8  and  O_21
    6  A    between atoms: C_8  and  C_37
    7  A    between atoms: C_10  and  C_26
    8  A    between atoms: C_13  and  N_38
    9  A    between atoms: C_15  and  N_38
   10  A    between atoms: C_17  and  O_21
   11  A    between atoms: C_17  and  C_29
   12  A    between atoms: C_19  and  C_33
   13  A    between atoms: C_22  and  C_25
   14  A    between atoms: N_24  and  C_31
   15  A    between atoms: C_25  and  C_29
   16  A    between atoms: O_27  and  C_30
   17  A    between atoms: O_27  and  C_34
   18  A    between atoms: C_31  and  C_33
                            x       y       z     vdW  Elec       q    Type
                         _______ _______ _______ _____ _____    ______ ____

>  <TORSDO>
F 18

$$$$
=
 OpenBabel11042417093D

 38 40  0  0  1  0  0  0  0  0999 V2000
  189.1310  174.4300  142.8390 C   0  0  2  0  0  3  0  0  0  0  0  0
  190.6100  174.6230  142.3080 C   0  0  2  0  0  3  0  0  0  0  0  0
  189.7570  173.3020  142.0150 C   0  0  2  0  0  3  0  0  0  0  0  0
  191.6760  174.4050  143.4470 C   0  0  0  0  0  2  0  0  0  0  0  0
  194.1330  174.2620  142.6380 O   0  0  0  0  0  1  0  0  0  0  0  0
  193.1780  174.8870  143.5110 C   0  0  2  0  0  3  0  0  0  0  0  0
  193.6550  175.3310  144.9110 C   0  0  0  0  0  2  0  0  0  0  0  0
  192.7330  175.0240  145.9120 O   0  0  0  0  0  0  0  0  0  0  0  0
  192.5150  175.9420  147.0270 C   0  0  0  0  0  2  0  0  0  0  0  0
  191.2880  175.6760  147.9610 C   0  0  0  0  0  2  0  0  0  0  0  0
  190.4700  175.1820  146.8480 C   0  0  0  0  0  2  0  0  0  0  0  0
  189.1000  174.9240  147.2330 C   0  0  0  0  0  2  0  0  0  0  0  0
  188.4450  175.5160  146.1130 N   0  0  0  0  0  2  0  0  0  0  0  0
  188.5590  177.4890  145.0600 C   0  0  0  0  0  1  0  0  0  0  0  0
  188.3270  176.8810  146.4050 C   0  0  1  0  0  3  0  0  0  0  0  0
  184.9170  178.3190  147.1360 O   0  0  0  0  0  0  0  0  0  0  0  0
  187.0070  177.2760  147.1750 C   0  0  1  0  0  3  0  0  0  0  0  0
  187.1390  178.5910  147.7490 N   0  0  0  0  0  2  0  0  0  0  0  0
  185.6120  177.2150  146.6310 C   0  0  0  0  0  0  0  0  0  0  0  0
  185.1350  176.4240  145.8370 O   0  0  0  0  0  0  0  0  0  0  0  0
  185.7740  179.1460  147.8800 C   0  0  0  0  0  2  0  0  0  0  0  0
  188.1340  174.8120  141.8670 C   0  0  0  0  0  2  0  0  0  0  0  0
  188.1200  176.1530  141.5500 N   0  0  0  0  0  2  0  0  0  0  0  0
  186.8830  176.6480  141.9030 C   0  0  0  0  0  0  0  0  0  0  0  0
  186.1140  176.0380  142.7670 O   0  0  0  0  0  0  0  0  0  0  0  0
  186.4320  177.5600  141.0000 C   0  0  0  0  0  2  0  0  0  0  0  0
  184.2220  178.2040  141.7050 O   0  0  0  0  0  0  0  0  0  0  0  0
  185.4660  178.3590  141.7330 C   0  0  0  0  0  0  0  0  0  0  0  0
  185.5850  179.5580  143.8160 C   0  0  0  0  0  2  0  0  0  0  0  0
  186.1200  179.1280  142.7690 N   0  0  0  0  0  0  0  0  0  0  0  0
  190.4270  173.1360  140.7040 O   0  0  0  0  0  0  0  0  0  0  0  0
  189.5740  171.7840  138.9590 C   0  0  0  0  0  0  0  0  0  0  0  0
  188.4620  172.9540  138.1920 Cl  0  0  0  0  0  0  0  0  0  0  0  0
  191.0050  170.6790  140.3170 C   0  0  0  0  0  3  0  0  0  0  0  0
  189.9010  170.4430  138.4380 C   0  0  0  0  0  0  0  0  0  0  0  0
  189.4620  169.8270  137.4860 O   0  0  0  0  0  0  0  0  0  0  0  0
  190.2880  171.9130  140.0330 C   0  0  0  0  0  0  0  0  0  0  0  0
  190.8150  169.8540  139.4090 N   0  0  0  0  0  0  0  0  0  0  0  0
  1 22  1  6  0  0  0
  2  1  1  0  0  0  0
  2  4  1  1  0  0  0
  3 31  1  6  0  0  0
  3  2  1  0  0  0  0
  3  1  1  0  0  0  0
  4  6  1  0  0  0  0
  6  5  1  1  0  0  0
  6  7  1  0  0  0  0
  7  8  1  0  0  0  0
  8  9  1  0  0  0  0
  9 10  1  0  0  0  0
 11 12  1  0  0  0  0
 11 10  1  0  0  0  0
 13 15  1  0  0  0  0
 13 12  1  0  0  0  0
 15 14  1  6  0  0  0
 16 21  1  0  0  0  0
 17 15  1  6  0  0  0
 17 18  1  0  0  0  0
 18 21  1  0  0  0  0
 19 16  1  0  0  0  0
 19 17  1  0  0  0  0
 20 19  2  0  0  0  0
 23 22  1  0  0  0  0
 23 24  1  0  0  0  0
 24 25  2  0  0  0  0
 26 28  1  0  0  0  0
 26 24  1  0  0  0  0
 27 28  2  0  0  0  0
 28 30  1  0  0  0  0
 30 29  2  0  0  0  0
 32 37  2  0  0  0  0
 33 32  1  0  0  0  0
 35 32  1  0  0  0  0
 35 38  1  0  0  0  0
 36 35  2  0  0  0  0
 37 34  1  0  0  0  0
 37 31  1  0  0  0  0
 38 34  2  0  0  0  0
M  END
>  <MODEL>
4

>  <REMARK>
 VINA RESULT:      -6.0      3.607      8.091
  Name = 
  18 active torsions:
  status: ('A' for Active; 'I' for Inactive)
    1  A    between atoms: N_2  and  C_26
    2  A    between atoms: C_5  and  C_15
    3  A    between atoms: C_7  and  C_13
    4  A    between atoms: C_7  and  C_37
    5  A    between atoms: C_8  and  O_21
    6  A    between atoms: C_8  and  C_37
    7  A    between atoms: C_10  and  C_26
    8  A    between atoms: C_13  and  N_38
    9  A    between atoms: C_15  and  N_38
   10  A    between atoms: C_17  and  O_21
   11  A    between atoms: C_17  and  C_29
   12  A    between atoms: C_19  and  C_33
   13  A    between atoms: C_22  and  C_25
   14  A    between atoms: N_24  and  C_31
   15  A    between atoms: C_25  and  C_29
   16  A    between atoms: O_27  and  C_30
   17  A    between atoms: O_27  and  C_34
   18  A    between atoms: C_31  and  C_33
                            x       y       z     vdW  Elec       q    Type
                         _______ _______ _______ _____ _____    ______ ____

>  <TORSDO>
F 18

$$$$
=
 OpenBabel11042417093D

 38 40  0  0  1  0  0  0  0  0999 V2000
  187.6720  177.2350  141.4600 C   0  0  2  0  0  3  0  0  0  0  0  0
  187.9700  175.9300  142.3060 C   0  0  2  0  0  3  0  0  0  0  0  0
  188.7700  177.2970  142.5250 C   0  0  2  0  0  3  0  0  0  0  0  0
  188.8030  174.8750  141.4850 C   0  0  0  0  0  2  0  0  0  0  0  0
  187.4790  172.6920  141.9300 O   0  0  0  0  0  1  0  0  0  0  0  0
  188.4310  173.3880  141.1080 C   0  0  2  0  0  3  0  0  0  0  0  0
  189.5830  172.5720  140.4820 C   0  0  0  0  0  2  0  0  0  0  0  0
  190.0420  171.5610  141.3270 O   0  0  0  0  0  0  0  0  0  0  0  0
  191.3980  171.6040  141.8670 C   0  0  0  0  0  2  0  0  0  0  0  0
  191.8430  172.9020  142.6190 C   0  0  0  0  0  2  0  0  0  0  0  0
  191.8960  172.2090  143.9100 C   0  0  0  0  0  2  0  0  0  0  0  0
  192.5650  172.9840  144.9330 C   0  0  0  0  0  2  0  0  0  0  0  0
  193.9040  172.5600  144.6850 N   0  0  0  0  0  2  0  0  0  0  0  0
  195.9290  172.8890  145.5840 C   0  0  0  0  0  1  0  0  0  0  0  0
  194.7300  173.6220  145.0770 C   0  0  1  0  0  3  0  0  0  0  0  0
  196.3340  175.6380  142.3230 O   0  0  0  0  0  0  0  0  0  0  0  0
  194.9530  174.7240  143.9700 C   0  0  1  0  0  3  0  0  0  0  0  0
  195.6450  175.8590  144.5270 N   0  0  0  0  0  2  0  0  0  0  0  0
  195.5610  174.5100  142.6170 C   0  0  0  0  0  0  0  0  0  0  0  0
  195.4950  173.5310  141.8950 O   0  0  0  0  0  0  0  0  0  0  0  0
  196.3600  176.5210  143.4140 C   0  0  0  0  0  2  0  0  0  0  0  0
  186.7520  178.1310  142.1190 C   0  0  0  0  0  2  0  0  0  0  0  0
  185.7740  177.5080  142.8660 N   0  0  0  0  0  2  0  0  0  0  0  0
  185.6330  178.2210  144.0370 C   0  0  0  0  0  0  0  0  0  0  0  0
  186.0320  179.4600  144.1450 O   0  0  0  0  0  0  0  0  0  0  0  0
  185.4160  177.4000  145.0990 C   0  0  0  0  0  2  0  0  0  0  0  0
  183.5940  178.7560  145.8990 O   0  0  0  0  0  0  0  0  0  0  0  0
  184.7190  178.2260  146.0680 C   0  0  0  0  0  0  0  0  0  0  0  0
  186.4810  178.3870  147.7000 C   0  0  0  0  0  2  0  0  0  0  0  0
  185.3090  178.0830  147.3820 N   0  0  0  0  0  0  0  0  0  0  0  0
  188.9240  176.9990  143.9680 O   0  0  0  0  0  0  0  0  0  0  0  0
  190.4960  176.4770  145.6570 C   0  0  0  0  0  0  0  0  0  0  0  0
  189.4020  175.7430  146.8650 Cl  0  0  0  0  0  0  0  0  0  0  0  0
  191.4170  177.5480  143.8920 C   0  0  0  0  0  3  0  0  0  0  0  0
  191.9690  176.5170  145.7460 C   0  0  0  0  0  0  0  0  0  0  0  0
  192.7250  176.1690  146.6330 O   0  0  0  0  0  0  0  0  0  0  0  0
  190.2100  177.0370  144.5250 C   0  0  0  0  0  0  0  0  0  0  0  0
  192.4160  177.2360  144.5590 N   0  0  0  0  0  0  0  0  0  0  0  0
  1 22  1  1  0  0  0
  1  2  1  0  0  0  0
  1  3  1  0  0  0  0
  2  4  1  6  0  0  0
  2  3  1  0  0  0  0
  3 31  1  1  0  0  0
  6  4  1  0  0  0  0
  6  5  1  1  0  0  0
  7  6  1  0  0  0  0
  7  8  1  0  0  0  0
  8  9  1  0  0  0  0
  9 10  1  0  0  0  0
 10 11  1  0  0  0  0
 11 12  1  0  0  0  0
 13 12  1  0  0  0  0
 13 15  1  0  0  0  0
 15 14  1  6  0  0  0
 16 19  1  0  0  0  0
 16 21  1  0  0  0  0
 17 18  1  0  0  0  0
 17 15  1  1  0  0  0
 19 17  1  0  0  0  0
 20 19  2  0  0  0  0
 21 18  1  0  0  0  0
 22 23  1  0  0  0  0
 23 24  1  0  0  0  0
 24 25  2  0  0  0  0
 24 26  1  0  0  0  0
 26 28  1  0  0  0  0
 27 28  2  0  0  0  0
 28 30  1  0  0  0  0
 30 29  2  0  0  0  0
 31 37  1  0  0  0  0
 32 35  1  0  0  0  0
 32 33  1  0  0  0  0
 34 37  1  0  0  0  0
 34 38  2  0  0  0  0
 35 36  2  0  0  0  0
 37 32  2  0  0  0  0
 38 35  1  0  0  0  0
M  END
>  <MODEL>
5

>  <REMARK>
 VINA RESULT:      -5.9      3.001      4.486
  Name = 
  18 active torsions:
  status: ('A' for Active; 'I' for Inactive)
    1  A    between atoms: N_2  and  C_26
    2  A    between atoms: C_5  and  C_15
    3  A    between atoms: C_7  and  C_13
    4  A    between atoms: C_7  and  C_37
    5  A    between atoms: C_8  and  O_21
    6  A    between atoms: C_8  and  C_37
    7  A    between atoms: C_10  and  C_26
    8  A    between atoms: C_13  and  N_38
    9  A    between atoms: C_15  and  N_38
   10  A    between atoms: C_17  and  O_21
   11  A    between atoms: C_17  and  C_29
   12  A    between atoms: C_19  and  C_33
   13  A    between atoms: C_22  and  C_25
   14  A    between atoms: N_24  and  C_31
   15  A    between atoms: C_25  and  C_29
   16  A    between atoms: O_27  and  C_30
   17  A    between atoms: O_27  and  C_34
   18  A    between atoms: C_31  and  C_33
                            x       y       z     vdW  Elec       q    Type
                         _______ _______ _______ _____ _____    ______ ____

>  <TORSDO>
F 18

$$$$
=
 OpenBabel11042417093D

 38 40  0  0  1  0  0  0  0  0999 V2000
  188.3250  176.1660  141.6120 C   0  0  2  0  0  3  0  0  0  0  0  0
  187.9310  174.7800  142.2660 C   0  0  2  0  0  3  0  0  0  0  0  0
  188.9060  175.8220  142.9860 C   0  0  2  0  0  3  0  0  0  0  0  0
  188.7140  173.5790  141.6150 C   0  0  0  0  0  3  0  0  0  0  0  0
  189.0650  172.0600  143.6850 O   0  0  0  0  0  1  0  0  0  0  0  0
  189.1340  172.1990  142.2560 C   0  0  0  0  0  0  0  0  0  0  0  0
  190.2610  171.4550  141.5070 C   0  0  0  0  0  2  0  0  0  0  0  0
  190.6650  170.2930  142.1670 O   0  0  0  0  0  0  0  0  0  0  0  0
  192.0620  170.1020  142.5440 C   0  0  0  0  0  2  0  0  0  0  0  0
  192.6830  171.1020  143.5750 C   0  0  0  0  0  2  0  0  0  0  0  0
  193.8110  171.4100  142.6890 C   0  0  0  0  0  2  0  0  0  0  0  0
  194.5050  172.6210  143.0680 C   0  0  0  0  0  2  0  0  0  0  0  0
  193.3770  173.4830  143.2080 N   0  0  0  0  0  2  0  0  0  0  0  0
  192.3680  174.6550  141.5880 C   0  0  0  0  0  1  0  0  0  0  0  0
  193.6280  174.5920  142.3890 C   0  0  1  0  0  3  0  0  0  0  0  0
  195.1600  176.8370  145.0040 O   0  0  0  0  0  0  0  0  0  0  0  0
  194.0750  175.8920  143.1640 C   0  0  1  0  0  3  0  0  0  0  0  0
  193.0840  176.2540  144.1460 N   0  0  0  0  0  2  0  0  0  0  0  0
  195.3990  176.1140  143.8300 C   0  0  0  0  0  0  0  0  0  0  0  0
  196.4980  175.7050  143.5040 O   0  0  0  0  0  0  0  0  0  0  0  0
  193.7810  177.0150  145.2060 C   0  0  0  0  0  2  0  0  0  0  0  0
  187.4850  177.2540  142.0550 C   0  0  0  0  0  2  0  0  0  0  0  0
  186.2280  176.8770  142.4780 N   0  0  0  0  0  2  0  0  0  0  0  0
  185.3260  177.7690  141.9390 C   0  0  0  0  0  0  0  0  0  0  0  0
  185.6160  178.5010  140.8960 O   0  0  0  0  0  0  0  0  0  0  0  0
  184.3270  178.0610  142.8150 C   0  0  0  0  0  2  0  0  0  0  0  0
  185.4510  179.9220  143.8490 O   0  0  0  0  0  0  0  0  0  0  0  0
  184.9830  178.7590  143.9050 C   0  0  0  0  0  0  0  0  0  0  0  0
  184.0610  178.5610  146.1200 C   0  0  0  0  0  2  0  0  0  0  0  0
  184.7250  178.0970  145.1650 N   0  0  0  0  0  0  0  0  0  0  0  0
  188.4130  175.3980  144.3160 O   0  0  0  0  0  0  0  0  0  0  0  0
  190.0560  175.5430  146.0130 C   0  0  0  0  0  0  0  0  0  0  0  0
  190.9660  174.0440  145.6760 Cl  0  0  0  0  0  0  0  0  0  0  0  0
  188.5520  177.2310  146.0890 C   0  0  0  0  0  3  0  0  0  0  0  0
  190.4400  176.5790  146.9930 C   0  0  0  0  0  0  0  0  0  0  0  0
  191.3460  176.6150  147.8030 O   0  0  0  0  0  0  0  0  0  0  0  0
  188.9740  175.9900  145.4570 C   0  0  0  0  0  0  0  0  0  0  0  0
  189.3860  177.5850  146.9370 N   0  0  0  0  0  0  0  0  0  0  0  0
  1 22  1  1  0  0  0
  1  2  1  0  0  0  0
  1  3  1  0  0  0  0
  2  4  1  6  0  0  0
  2  3  1  0  0  0  0
  3 31  1  1  0  0  0
  4  6  2  0  0  0  0
  6  5  1  0  0  0  0
  7  8  1  0  0  0  0
  7  6  1  0  0  0  0
  8  9  1  0  0  0  0
  9 10  1  0  0  0  0
 11 12  1  0  0  0  0
 11 10  1  0  0  0  0
 12 13  1  0  0  0  0
 15 14  1  1  0  0  0
 15 13  1  0  0  0  0
 16 21  1  0  0  0  0
 17 15  1  1  0  0  0
 17 19  1  0  0  0  0
 17 18  1  0  0  0  0
 18 21  1  0  0  0  0
 19 16  1  0  0  0  0
 20 19  2  0  0  0  0
 22 23  1  0  0  0  0
 24 23  1  0  0  0  0
 24 26  1  0  0  0  0
 25 24  2  0  0  0  0
 26 28  1  0  0  0  0
 27 28  2  0  0  0  0
 28 30  1  0  0  0  0
 30 29  2  0  0  0  0
 31 37  1  0  0  0  0
 32 35  1  0  0  0  0
 33 32  1  0  0  0  0
 34 38  2  0  0  0  0
 35 36  2  0  0  0  0
 37 32  2  0  0  0  0
 37 34  1  0  0  0  0
 38 35  1  0  0  0  0
M  END
>  <MODEL>
6

>  <REMARK>
 VINA RESULT:      -5.9      2.871      4.152
  Name = 
  18 active torsions:
  status: ('A' for Active; 'I' for Inactive)
    1  A    between atoms: N_2  and  C_26
    2  A    between atoms: C_5  and  C_15
    3  A    between atoms: C_7  and  C_13
    4  A    between atoms: C_7  and  C_37
    5  A    between atoms: C_8  and  O_21
    6  A    between atoms: C_8  and  C_37
    7  A    between atoms: C_10  and  C_26
    8  A    between atoms: C_13  and  N_38
    9  A    between atoms: C_15  and  N_38
   10  A    between atoms: C_17  and  O_21
   11  A    between atoms: C_17  and  C_29
   12  A    between atoms: C_19  and  C_33
   13  A    between atoms: C_22  and  C_25
   14  A    between atoms: N_24  and  C_31
   15  A    between atoms: C_25  and  C_29
   16  A    between atoms: O_27  and  C_30
   17  A    between atoms: O_27  and  C_34
   18  A    between atoms: C_31  and  C_33
                            x       y       z     vdW  Elec       q    Type
                         _______ _______ _______ _____ _____    ______ ____

>  <TORSDO>
F 18

$$$$
=
 OpenBabel11042417093D

 38 40  0  0  1  0  0  0  0  0999 V2000
  186.0490  178.3000  140.9870 C   0  0  2  0  0  3  0  0  0  0  0  0
  186.7740  177.1930  141.8570 C   0  0  2  0  0  3  0  0  0  0  0  0
  185.7710  178.2640  142.4920 C   0  0  2  0  0  3  0  0  0  0  0  0
  188.2830  177.5540  142.1270 C   0  0  0  0  0  2  0  0  0  0  0  0
  189.2140  175.2050  142.6980 O   0  0  0  0  0  1  0  0  0  0  0  0
  189.4640  176.6170  142.5940 C   0  0  2  0  0  3  0  0  0  0  0  0
  190.4370  177.2590  143.6070 C   0  0  0  0  0  2  0  0  0  0  0  0
  191.3130  176.3290  144.1690 O   0  0  0  0  0  0  0  0  0  0  0  0
  191.1850  175.9410  145.5710 C   0  0  0  0  0  2  0  0  0  0  0  0
  192.2380  176.5030  146.5820 C   0  0  0  0  0  2  0  0  0  0  0  0
  193.1120  175.3370  146.4120 C   0  0  0  0  0  2  0  0  0  0  0  0
  194.4780  175.7030  146.1060 C   0  0  0  0  0  2  0  0  0  0  0  0
  194.8900  174.4920  145.4740 N   0  0  0  0  0  2  0  0  0  0  0  0
  196.6710  173.3070  146.1370 C   0  0  0  0  0  1  0  0  0  0  0  0
  196.2880  174.5480  145.3980 C   0  0  1  0  0  3  0  0  0  0  0  0
  196.5730  175.6160  141.7920 O   0  0  0  0  0  0  0  0  0  0  0  0
  196.8580  174.7430  143.9390 C   0  0  1  0  0  3  0  0  0  0  0  0
  196.3880  173.6910  143.0740 N   0  0  0  0  0  2  0  0  0  0  0  0
  196.7870  175.9960  143.1210 C   0  0  0  0  0  0  0  0  0  0  0  0
  196.8250  177.1550  143.4920 O   0  0  0  0  0  0  0  0  0  0  0  0
  196.3980  174.2260  141.6950 C   0  0  0  0  0  2  0  0  0  0  0  0
  184.7270  177.9020  140.5640 C   0  0  0  0  0  2  0  0  0  0  0  0
  183.6990  178.4010  141.3360 N   0  0  0  0  0  2  0  0  0  0  0  0
  182.5200  178.1330  140.6750 C   0  0  0  0  0  0  0  0  0  0  0  0
  182.4340  177.2030  139.7620 O   0  0  0  0  0  0  0  0  0  0  0  0
  181.6340  179.1580  140.7980 C   0  0  0  0  0  2  0  0  0  0  0  0
  180.9370  179.4160  143.0880 O   0  0  0  0  0  0  0  0  0  0  0  0
  180.8560  178.8340  141.9800 C   0  0  0  0  0  0  0  0  0  0  0  0
  178.5240  178.3340  141.6560 C   0  0  0  0  0  2  0  0  0  0  0  0
  179.7280  177.9940  141.6360 N   0  0  0  0  0  0  0  0  0  0  0  0
  185.3320  177.2800  143.5080 O   0  0  0  0  0  0  0  0  0  0  0  0
  186.0870  177.4550  145.7440 C   0  0  0  0  0  0  0  0  0  0  0  0
  187.5220  176.3950  145.6570 Cl  0  0  0  0  0  0  0  0  0  0  0  0
  184.1670  178.5890  145.3660 C   0  0  0  0  0  3  0  0  0  0  0  0
  185.7010  178.2840  146.9020 C   0  0  0  0  0  0  0  0  0  0  0  0
  186.1790  178.3700  148.0170 O   0  0  0  0  0  0  0  0  0  0  0  0
  185.1970  177.7060  144.8370 C   0  0  0  0  0  0  0  0  0  0  0  0
  184.4570  178.9420  146.5200 N   0  0  0  0  0  0  0  0  0  0  0  0
  1 22  1  6  0  0  0
  1  2  1  0  0  0  0
  1  3  1  0  0  0  0
  2  4  1  1  0  0  0
  2  3  1  0  0  0  0
  3 31  1  6  0  0  0
  4  6  1  0  0  0  0
  6  5  1  1  0  0  0
  6  7  1  0  0  0  0
  7  8  1  0  0  0  0
  8  9  1  0  0  0  0
  9 10  1  0  0  0  0
 11 10  1  0  0  0  0
 12 11  1  0  0  0  0
 13 12  1  0  0  0  0
 15 13  1  0  0  0  0
 15 14  1  6  0  0  0
 16 19  1  0  0  0  0
 17 15  1  1  0  0  0
 18 17  1  0  0  0  0
 19 20  2  0  0  0  0
 19 17  1  0  0  0  0
 21 16  1  0  0  0  0
 21 18  1  0  0  0  0
 22 23  1  0  0  0  0
 24 26  1  0  0  0  0
 24 23  1  0  0  0  0
 25 24  2  0  0  0  0
 26 28  1  0  0  0  0
 28 27  2  0  0  0  0
 30 29  2  0  0  0  0
 30 28  1  0  0  0  0
 31 37  1  0  0  0  0
 32 35  1  0  0  0  0
 33 32  1  0  0  0  0
 34 38  2  0  0  0  0
 35 36  2  0  0  0  0
 37 34  1  0  0  0  0
 37 32  2  0  0  0  0
 38 35  1  0  0  0  0
M  END
>  <MODEL>
7

>  <REMARK>
 VINA RESULT:      -5.8      1.713      2.106
  Name = 
  18 active torsions:
  status: ('A' for Active; 'I' for Inactive)
    1  A    between atoms: N_2  and  C_26
    2  A    between atoms: C_5  and  C_15
    3  A    between atoms: C_7  and  C_13
    4  A    between atoms: C_7  and  C_37
    5  A    between atoms: C_8  and  O_21
    6  A    between atoms: C_8  and  C_37
    7  A    between atoms: C_10  and  C_26
    8  A    between atoms: C_13  and  N_38
    9  A    between atoms: C_15  and  N_38
   10  A    between atoms: C_17  and  O_21
   11  A    between atoms: C_17  and  C_29
   12  A    between atoms: C_19  and  C_33
   13  A    between atoms: C_22  and  C_25
   14  A    between atoms: N_24  and  C_31
   15  A    between atoms: C_25  and  C_29
   16  A    between atoms: O_27  and  C_30
   17  A    between atoms: O_27  and  C_34
   18  A    between atoms: C_31  and  C_33
                            x       y       z     vdW  Elec       q    Type
                         _______ _______ _______ _____ _____    ______ ____

>  <TORSDO>
F 18

$$$$
=
 OpenBabel11042417093D

 38 40  0  0  1  0  0  0  0  0999 V2000
  188.3640  177.2980  141.7860 C   0  0  2  0  0  3  0  0  0  0  0  0
  187.9900  175.8530  142.3160 C   0  0  2  0  0  3  0  0  0  0  0  0
  188.8040  176.9080  143.2000 C   0  0  2  0  0  3  0  0  0  0  0  0
  188.9220  174.7420  141.7010 C   0  0  0  0  0  2  0  0  0  0  0  0
  187.4240  172.6560  142.0360 O   0  0  0  0  0  1  0  0  0  0  0  0
  188.6970  173.1820  141.6260 C   0  0  2  0  0  3  0  0  0  0  0  0
  189.9570  172.3330  141.9020 C   0  0  0  0  0  2  0  0  0  0  0  0
  191.0970  173.1140  142.0910 O   0  0  0  0  0  0  0  0  0  0  0  0
  192.2390  172.9910  141.1890 C   0  0  0  0  0  2  0  0  0  0  0  0
  193.6510  173.3750  141.7430 C   0  0  0  0  0  2  0  0  0  0  0  0
  193.1570  174.6390  142.2980 C   0  0  0  0  0  2  0  0  0  0  0  0
  194.1860  175.6530  142.3820 C   0  0  0  0  0  2  0  0  0  0  0  0
  195.3170  174.8000  142.5490 N   0  0  0  0  0  2  0  0  0  0  0  0
  196.4130  176.7490  142.4290 C   0  0  0  0  0  1  0  0  0  0  0  0
  196.2550  175.5350  143.2850 C   0  0  1  0  0  3  0  0  0  0  0  0
  194.2910  175.5510  146.5050 O   0  0  0  0  0  0  0  0  0  0  0  0
  195.8780  175.7470  144.8030 C   0  0  1  0  0  3  0  0  0  0  0  0
  195.2380  177.0260  144.9850 N   0  0  0  0  0  2  0  0  0  0  0  0
  195.1150  174.7910  145.6680 C   0  0  0  0  0  0  0  0  0  0  0  0
  195.1120  173.5730  145.6440 O   0  0  0  0  0  0  0  0  0  0  0  0
  194.3810  176.9150  146.1850 C   0  0  0  0  0  2  0  0  0  0  0  0
  187.4070  178.3040  142.1810 C   0  0  0  0  0  2  0  0  0  0  0  0
  186.1170  177.8440  142.3390 N   0  0  0  0  0  2  0  0  0  0  0  0
  185.5860  178.4780  143.4410 C   0  0  0  0  0  0  0  0  0  0  0  0
  186.0820  179.5950  143.9040 O   0  0  0  0  0  0  0  0  0  0  0  0
  184.7980  177.6420  144.1690 C   0  0  0  0  0  2  0  0  0  0  0  0
  183.6970  179.0360  145.7950 O   0  0  0  0  0  0  0  0  0  0  0  0
  184.6530  178.2970  145.4560 C   0  0  0  0  0  0  0  0  0  0  0  0
  185.6920  178.0870  147.6170 C   0  0  0  0  0  2  0  0  0  0  0  0
  185.5590  177.7220  146.4280 N   0  0  0  0  0  0  0  0  0  0  0  0
  188.1890  176.3770  144.4370 O   0  0  0  0  0  0  0  0  0  0  0  0
  189.6580  175.3600  145.9890 C   0  0  0  0  0  0  0  0  0  0  0  0
  189.7130  173.7080  145.3100 Cl  0  0  0  0  0  0  0  0  0  0  0  0
  189.1870  177.5120  146.4960 C   0  0  0  0  0  3  0  0  0  0  0  0
  190.4880  175.8560  147.1040 C   0  0  0  0  0  0  0  0  0  0  0  0
  191.2790  175.2830  147.8290 O   0  0  0  0  0  0  0  0  0  0  0  0
  188.9500  176.3780  145.6150 C   0  0  0  0  0  0  0  0  0  0  0  0
  190.0720  177.2370  147.3210 N   0  0  0  0  0  0  0  0  0  0  0  0
  1 22  1  1  0  0  0
  1  2  1  0  0  0  0
  1  3  1  0  0  0  0
  2  4  1  6  0  0  0
  2  3  1  0  0  0  0
  3 31  1  1  0  0  0
  6  4  1  0  0  0  0
  6  7  1  0  0  0  0
  6  5  1  1  0  0  0
  7  8  1  0  0  0  0
  9 10  1  0  0  0  0
  9  8  1  0  0  0  0
 10 11  1  0  0  0  0
 11 12  1  0  0  0  0
 12 13  1  0  0  0  0
 13 15  1  0  0  0  0
 15 14  1  6  0  0  0
 17 15  1  6  0  0  0
 17 18  1  0  0  0  0
 17 19  1  0  0  0  0
 18 21  1  0  0  0  0
 19 16  1  0  0  0  0
 20 19  2  0  0  0  0
 21 16  1  0  0  0  0
 22 23  1  0  0  0  0
 23 24  1  0  0  0  0
 24 25  2  0  0  0  0
 24 26  1  0  0  0  0
 26 28  1  0  0  0  0
 28 27  2  0  0  0  0
 28 30  1  0  0  0  0
 30 29  2  0  0  0  0
 31 37  1  0  0  0  0
 32 35  1  0  0  0  0
 33 32  1  0  0  0  0
 34 38  2  0  0  0  0
 35 38  1  0  0  0  0
 35 36  2  0  0  0  0
 37 32  2  0  0  0  0
 37 34  1  0  0  0  0
M  END
>  <MODEL>
8

>  <REMARK>
 VINA RESULT:      -5.8      2.986      4.052
  Name = 
  18 active torsions:
  status: ('A' for Active; 'I' for Inactive)
    1  A    between atoms: N_2  and  C_26
    2  A    between atoms: C_5  and  C_15
    3  A    between atoms: C_7  and  C_13
    4  A    between atoms: C_7  and  C_37
    5  A    between atoms: C_8  and  O_21
    6  A    between atoms: C_8  and  C_37
    7  A    between atoms: C_10  and  C_26
    8  A    between atoms: C_13  and  N_38
    9  A    between atoms: C_15  and  N_38
   10  A    between atoms: C_17  and  O_21
   11  A    between atoms: C_17  and  C_29
   12  A    between atoms: C_19  and  C_33
   13  A    between atoms: C_22  and  C_25
   14  A    between atoms: N_24  and  C_31
   15  A    between atoms: C_25  and  C_29
   16  A    between atoms: O_27  and  C_30
   17  A    between atoms: O_27  and  C_34
   18  A    between atoms: C_31  and  C_33
                            x       y       z     vdW  Elec       q    Type
                         _______ _______ _______ _____ _____    ______ ____

>  <TORSDO>
F 18

$$$$
=
 OpenBabel11042417093D

 38 40  0  0  1  0  0  0  0  0999 V2000
  185.3950  178.4150  140.8650 C   0  0  2  0  0  3  0  0  0  0  0  0
  186.1670  177.2720  141.6420 C   0  0  2  0  0  3  0  0  0  0  0  0
  185.2680  178.3610  142.3900 C   0  0  2  0  0  3  0  0  0  0  0  0
  187.7060  177.5810  141.7640 C   0  0  0  0  0  2  0  0  0  0  0  0
  189.8940  177.9150  143.1120 O   0  0  0  0  0  1  0  0  0  0  0  0
  188.7340  177.1030  142.8630 C   0  0  2  0  0  3  0  0  0  0  0  0
  188.8780  175.5710  142.9920 C   0  0  0  0  0  2  0  0  0  0  0  0
  189.7850  175.0410  142.0740 O   0  0  0  0  0  0  0  0  0  0  0  0
  191.2140  175.0130  142.3740 C   0  0  0  0  0  2  0  0  0  0  0  0
  191.6760  174.2400  143.6530 C   0  0  0  0  0  2  0  0  0  0  0  0
  192.9560  174.9540  143.6970 C   0  0  0  0  0  2  0  0  0  0  0  0
  193.2700  175.4580  145.0170 C   0  0  0  0  0  2  0  0  0  0  0  0
  192.3840  174.6380  145.7770 N   0  0  0  0  0  2  0  0  0  0  0  0
  193.1650  176.4230  146.8830 C   0  0  0  0  0  1  0  0  0  0  0  0
  192.1710  175.3120  146.9870 C   0  0  1  0  0  3  0  0  0  0  0  0
  188.4900  175.9460  146.4570 O   0  0  0  0  0  0  0  0  0  0  0  0
  190.6650  175.6940  147.2700 C   0  0  1  0  0  3  0  0  0  0  0  0
  190.4410  177.0880  146.9800 N   0  0  0  0  0  2  0  0  0  0  0  0
  189.4570  174.9780  146.7490 C   0  0  0  0  0  0  0  0  0  0  0  0
  189.3090  173.7890  146.5270 O   0  0  0  0  0  0  0  0  0  0  0  0
  189.0070  177.2370  146.6490 C   0  0  0  0  0  2  0  0  0  0  0  0
  184.0250  178.0670  140.5720 C   0  0  0  0  0  2  0  0  0  0  0  0
  183.1380  178.2910  141.6040 N   0  0  0  0  0  2  0  0  0  0  0  0
  181.8660  178.1800  141.0860 C   0  0  0  0  0  0  0  0  0  0  0  0
  181.6260  177.5440  139.9700 O   0  0  0  0  0  0  0  0  0  0  0  0
  181.0220  179.0970  141.6310 C   0  0  0  0  0  2  0  0  0  0  0  0
  179.0670  177.7290  141.9520 O   0  0  0  0  0  0  0  0  0  0  0  0
  179.6920  178.6090  141.3130 C   0  0  0  0  0  0  0  0  0  0  0  0
  179.3660  180.6760  140.1240 C   0  0  0  0  0  2  0  0  0  0  0  0
  179.0280  179.5000  140.3850 N   0  0  0  0  0  0  0  0  0  0  0  0
  184.9000  177.3730  143.4310 O   0  0  0  0  0  0  0  0  0  0  0  0
  185.4350  178.8560  145.1960 C   0  0  0  0  0  0  0  0  0  0  0  0
  185.5650  180.3820  144.2750 Cl  0  0  0  0  0  0  0  0  0  0  0  0
  185.2580  176.7050  145.8700 C   0  0  0  0  0  3  0  0  0  0  0  0
  185.4940  178.7340  146.6650 C   0  0  0  0  0  0  0  0  0  0  0  0
  185.7160  179.5620  147.5280 O   0  0  0  0  0  0  0  0  0  0  0  0
  185.2340  177.6510  144.7640 C   0  0  0  0  0  0  0  0  0  0  0  0
  185.3760  177.3080  146.9480 N   0  0  0  0  0  0  0  0  0  0  0  0
  1 22  1  6  0  0  0
  1  2  1  0  0  0  0
  1  3  1  0  0  0  0
  2  4  1  1  0  0  0
  2  3  1  0  0  0  0
  3 31  1  6  0  0  0
  4  6  1  0  0  0  0
  6  7  1  0  0  0  0
  6  5  1  6  0  0  0
  8  9  1  0  0  0  0
  8  7  1  0  0  0  0
  9 10  1  0  0  0  0
 10 11  1  0  0  0  0
 11 12  1  0  0  0  0
 12 13  1  0  0  0  0
 13 15  1  0  0  0  0
 15 14  1  6  0  0  0
 16 21  1  0  0  0  0
 16 19  1  0  0  0  0
 17 15  1  6  0  0  0
 18 17  1  0  0  0  0
 19 17  1  0  0  0  0
 20 19  2  0  0  0  0
 21 18  1  0  0  0  0
 22 23  1  0  0  0  0
 24 23  1  0  0  0  0
 24 26  1  0  0  0  0
 25 24  2  0  0  0  0
 28 26  1  0  0  0  0
 28 27  2  0  0  0  0
 29 30  2  0  0  0  0
 30 28  1  0  0  0  0
 31 37  1  0  0  0  0
 32 35  1  0  0  0  0
 33 32  1  0  0  0  0
 34 38  2  0  0  0  0
 35 38  1  0  0  0  0
 35 36  2  0  0  0  0
 37 32  2  0  0  0  0
 37 34  1  0  0  0  0
M  END
>  <MODEL>
9

>  <REMARK>
 VINA RESULT:      -5.8      2.879      3.891
  Name = 
  18 active torsions:
  status: ('A' for Active; 'I' for Inactive)
    1  A    between atoms: N_2  and  C_26
    2  A    between atoms: C_5  and  C_15
    3  A    between atoms: C_7  and  C_13
    4  A    between atoms: C_7  and  C_37
    5  A    between atoms: C_8  and  O_21
    6  A    between atoms: C_8  and  C_37
    7  A    between atoms: C_10  and  C_26
    8  A    between atoms: C_13  and  N_38
    9  A    between atoms: C_15  and  N_38
   10  A    between atoms: C_17  and  O_21
   11  A    between atoms: C_17  and  C_29
   12  A    between atoms: C_19  and  C_33
   13  A    between atoms: C_22  and  C_25
   14  A    between atoms: N_24  and  C_31
   15  A    between atoms: C_25  and  C_29
   16  A    between atoms: O_27  and  C_30
   17  A    between atoms: O_27  and  C_34
   18  A    between atoms: C_31  and  C_33
                            x       y       z     vdW  Elec       q    Type
                         _______ _______ _______ _____ _____    ______ ____

>  <TORSDO>
F 18

$$$$
