=
 OpenBabel11042419533D

 56 60  0  0  1  0  0  0  0  0999 V2000
  193.4200  175.2430  142.1630 O   0  0  0  0  0  0  0  0  0  0  0  0
  194.8010  175.8230  144.1410 C   0  0  1  0  0  3  0  0  0  0  0  0
  195.7630  174.6460  143.9330 C   0  0  2  0  0  3  0  0  0  0  0  0
  193.2190  175.4700  146.3640 C   0  0  1  0  0  3  0  0  0  0  0  0
  196.9880  174.9160  144.5420 O   0  0  0  0  0  1  0  0  0  0  0  0
  192.6390  174.5020  144.2920 C   0  0  1  0  0  3  0  0  0  0  0  0
  193.3990  175.5990  143.5320 C   0  0  2  0  0  3  0  0  0  0  0  0
  193.0340  174.2720  145.6350 O   0  0  0  0  0  0  0  0  0  0  0  0
  196.0200  174.2840  142.4500 C   0  0  2  0  0  3  0  0  0  0  0  0
  194.3520  176.0460  141.4860 C   0  0  0  0  0  2  0  0  0  0  0  0
  195.6990  175.3210  141.3510 C   0  0  0  0  0  2  0  0  0  0  0  0
  194.7180  176.3920  145.8760 S   0  0  0  0  0  0  0  0  0  0  0  0
  191.1210  176.3560  147.4510 C   0  0  0  0  0  0  0  0  0  0  0  0
  192.0380  176.3230  146.3560 N   0  0  0  0  0  2  0  0  0  0  0  0
  191.2200  175.5300  148.3970 O   0  0  0  0  0  0  0  0  0  0  0  0
  190.0560  177.3980  147.4910 C   0  0  0  0  0  2  0  0  0  0  0  0
  188.6020  177.7130  144.0090 C   0  0  0  0  0  3  0  0  0  0  0  0
  187.3960  177.0090  144.1440 C   0  0  0  0  0  0  0  0  0  0  0  0
  189.4710  177.8320  145.0960 C   0  0  0  0  0  3  0  0  0  0  0  0
  187.0760  176.4120  145.3700 C   0  0  0  0  0  3  0  0  0  0  0  0
  187.9470  176.5310  146.4570 C   0  0  0  0  0  3  0  0  0  0  0  0
  189.1460  177.2390  146.3210 C   0  0  0  0  0  0  0  0  0  0  0  0
  186.4500  176.8530  142.9930 C   0  0  2  0  0  3  0  0  0  0  0  0
  187.1110  176.4170  140.6660 N   0  0  0  0  0  0  0  0  0  0  0  0
  188.1920  174.3270  140.9010 C   0  0  0  0  0  3  0  0  0  0  0  0
  187.6960  174.8360  142.1260 O   0  0  0  0  0  0  0  0  0  0  0  0
  187.0740  176.0410  141.8960 C   0  0  0  0  0  0  0  0  0  0  0  0
  187.8170  175.4100  139.8850 C   0  0  0  0  0  3  0  0  0  0  0  0
  185.9430  178.2060  142.5060 C   0  0  0  0  0  2  0  0  0  0  0  0
  184.7800  178.6810  143.3600 C   0  0  0  0  0  2  0  0  0  0  0  0
  185.2270  179.8110  144.2720 C   0  0  0  0  0  2  0  0  0  0  0  0
  184.0760  178.4530  145.9510 N   0  0  0  0  0  1  0  0  0  0  0  0
  185.1490  179.4080  145.7390 C   0  0  0  0  0  2  0  0  0  0  0  0
  195.2400  171.9720  143.2160 C   0  0  0  0  0  1  0  0  0  0  0  0
  195.7010  172.8380  142.0490 C   0  0  2  0  0  3  0  0  0  0  0  0
  196.8450  172.1820  141.2730 C   0  0  1  0  0  3  0  0  0  0  0  0
  197.3280  171.0580  141.9590 O   0  0  0  0  0  1  0  0  0  0  0  0
  196.3810  171.8030  139.9400 N   0  0  0  0  0  2  0  0  0  0  0  0
  196.1280  170.3700  139.9230 C   0  0  0  0  0  2  0  0  0  0  0  0
  194.7320  170.0740  139.3960 C   0  0  0  0  0  2  0  0  0  0  0  0
  193.7440  170.6320  140.2220 O   0  0  0  0  0  0  0  0  0  0  0  0
  190.8030  172.6140  138.8970 C   0  0  0  0  0  0  0  0  0  0  0  0
  193.0220  173.2700  139.4960 O   0  0  0  0  0  1  0  0  0  0  0  0
  193.0220  170.6840  137.9110 C   0  0  0  0  0  2  0  0  0  0  0  0
  189.6710  171.6320  138.6980 C   0  0  0  0  0  2  0  0  0  0  0  0
  190.9930  170.2040  136.9830 C   0  0  1  0  0  3  0  0  0  0  0  0
  191.6490  172.3380  141.1860 C   0  0  0  0  0  1  0  0  0  0  0  0
  190.6780  173.7290  138.4100 O   0  0  0  0  0  0  0  0  0  0  0  0
  192.0320  171.1530  137.0280 O   0  0  0  0  0  0  0  0  0  0  0  0
  190.1090  170.2340  138.2450 C   0  0  0  0  0  2  0  0  0  0  0  0
  192.0440  172.2940  139.7190 C   0  0  1  0  0  0  0  0  0  0  0  0
  192.6430  170.9050  139.3950 C   0  0  2  0  0  3  0  0  0  0  0  0
  190.2020  170.4380  135.8600 O   0  0  0  0  0  1  0  0  0  0  0  0
  191.1270  174.6130  144.1240 C   0  0  0  0  0  2  0  0  0  0  0  0
  190.4360  173.3600  144.6320 C   0  0  0  0  0  2  0  0  0  0  0  0
  189.6910  173.6580  145.7750 O   0  0  0  0  0  1  0  0  0  0  0  0
  2 12  1  1  0  0  0
  3  2  1  0  0  0  0
  3  5  1  6  0  0  0
  4 14  1  6  0  0  0
  6 54  1  1  0  0  0
  6  8  1  0  0  0  0
  7  1  1  6  0  0  0
  7  2  1  0  0  0  0
  7  6  1  0  0  0  0
  8  4  1  0  0  0  0
  9 35  1  6  0  0  0
  9  3  1  0  0  0  0
 10  1  1  0  0  0  0
 11 10  1  0  0  0  0
 11  9  1  0  0  0  0
 12  4  1  0  0  0  0
 13 16  1  0  0  0  0
 13 15  2  0  0  0  0
 14 13  1  0  0  0  0
 17 18  2  0  0  0  0
 17 19  1  0  0  0  0
 18 20  1  0  0  0  0
 19 22  2  0  0  0  0
 20 21  2  0  0  0  0
 22 21  1  0  0  0  0
 22 16  1  0  0  0  0
 23 29  1  6  0  0  0
 23 18  1  0  0  0  0
 24 27  2  0  0  0  0
 25 26  1  0  0  0  0
 27 26  1  0  0  0  0
 27 23  1  0  0  0  0
 28 24  1  0  0  0  0
 28 25  2  0  0  0  0
 29 30  1  0  0  0  0
 30 31  1  0  0  0  0
 31 33  1  0  0  0  0
 33 32  1  0  0  0  0
 35 34  1  1  0  0  0
 36 37  1  1  0  0  0
 36 35  1  0  0  0  0
 38 36  1  0  0  0  0
 39 38  1  0  0  0  0
 40 39  1  0  0  0  0
 40 41  1  0  0  0  0
 42 51  1  0  0  0  0
 43 51  1  0  0  0  0
 44 52  1  0  0  0  0
 45 42  1  0  0  0  0
 46 53  1  6  0  0  0
 46 49  1  0  0  0  0
 46 50  1  0  0  0  0
 48 42  2  0  0  0  0
 49 44  1  0  0  0  0
 50 45  1  0  0  0  0
 51 47  1  1  0  0  0
 52 51  1  0  0  0  0
 52 41  1  1  0  0  0
 54 55  1  0  0  0  0
 55 56  1  0  0  0  0
M  END
>  <MODEL>
1

>  <REMARK>
 VINA RESULT:      -6.4      0.000      0.000
  Name = 
  18 active torsions:
  status: ('A' for Active; 'I' for Inactive)
    1  A    between atoms: C_5  and  C_31
    2  A    between atoms: N_7  and  C_29
    3  A    between atoms: C_11  and  C_27
    4  A    between atoms: C_12  and  C_33
    5  A    between atoms: C_12  and  N_50
    6  A    between atoms: C_16  and  N_50
    7  A    between atoms: C_16  and  C_53
    8  A    between atoms: C_19  and  C_22
    9  A    between atoms: C_19  and  C_38
   10  A    between atoms: C_22  and  C_37
   11  A    between atoms: C_25  and  C_37
   12  A    between atoms: C_27  and  C_41
   13  A    between atoms: C_31  and  C_52
   14  A    between atoms: C_32  and  C_37
   15  A    between atoms: C_33  and  C_46
   16  A    between atoms: C_38  and  C_42
   17  A    between atoms: C_47  and  O_56
   18  A    between atoms: C_53  and  O_56
                            x       y       z     vdW  Elec       q    Type
                         _______ _______ _______ _____ _____    ______ ____

>  <TORSDO>
F 18

$$$$
=
 OpenBabel11042419533D

 56 60  0  0  1  0  0  0  0  0999 V2000
  194.0380  175.8690  141.9780 O   0  0  0  0  0  0  0  0  0  0  0  0
  195.2680  175.6220  144.1180 C   0  0  1  0  0  3  0  0  0  0  0  0
  196.0530  174.3950  143.6350 C   0  0  2  0  0  3  0  0  0  0  0  0
  193.4170  174.9580  146.0430 C   0  0  1  0  0  3  0  0  0  0  0  0
  197.2320  174.2630  144.3690 O   0  0  0  0  0  1  0  0  0  0  0  0
  192.9250  174.7210  143.7470 C   0  0  1  0  0  3  0  0  0  0  0  0
  193.9230  175.8310  143.3880 C   0  0  2  0  0  3  0  0  0  0  0  0
  193.1300  174.0620  144.9870 O   0  0  0  0  0  0  0  0  0  0  0  0
  196.4110  174.4170  142.1300 C   0  0  2  0  0  3  0  0  0  0  0  0
  195.1510  176.6470  141.6210 C   0  0  0  0  0  2  0  0  0  0  0  0
  196.3770  175.7580  141.3630 C   0  0  0  0  0  2  0  0  0  0  0  0
  195.0850  175.6940  145.9360 S   0  0  0  0  0  0  0  0  0  0  0  0
  191.4480  175.9310  147.2840 C   0  0  0  0  0  0  0  0  0  0  0  0
  192.3900  175.9780  146.2120 N   0  0  0  0  0  2  0  0  0  0  0  0
  191.3730  174.9190  148.0310 O   0  0  0  0  0  0  0  0  0  0  0  0
  190.5630  177.1030  147.5420 C   0  0  0  0  0  2  0  0  0  0  0  0
  187.2980  176.6260  145.6840 C   0  0  0  0  0  3  0  0  0  0  0  0
  187.5690  177.2760  144.4700 C   0  0  0  0  0  0  0  0  0  0  0  0
  188.2700  176.5780  146.6870 C   0  0  0  0  0  3  0  0  0  0  0  0
  188.8120  177.8900  144.2760 C   0  0  0  0  0  3  0  0  0  0  0  0
  189.7830  177.8420  145.2800 C   0  0  0  0  0  3  0  0  0  0  0  0
  189.5130  177.1870  146.4870 C   0  0  0  0  0  0  0  0  0  0  0  0
  186.5430  177.3550  143.3810 C   0  0  2  0  0  3  0  0  0  0  0  0
  186.7790  177.0350  140.9550 N   0  0  0  0  0  0  0  0  0  0  0  0
  188.0540  175.0440  140.8990 C   0  0  0  0  0  3  0  0  0  0  0  0
  187.7630  175.4770  142.2140 O   0  0  0  0  0  0  0  0  0  0  0  0
  187.0100  176.6270  142.1540 C   0  0  0  0  0  0  0  0  0  0  0  0
  187.4030  176.1120  140.0160 C   0  0  0  0  0  3  0  0  0  0  0  0
  186.1520  178.8000  143.0930 C   0  0  0  0  0  2  0  0  0  0  0  0
  185.5820  179.4580  144.3380 C   0  0  0  0  0  2  0  0  0  0  0  0
  184.2370  178.8440  144.6860 C   0  0  0  0  0  2  0  0  0  0  0  0
  185.2460  179.0830  146.9020 N   0  0  0  0  0  1  0  0  0  0  0  0
  184.1600  178.4680  146.1610 C   0  0  0  0  0  2  0  0  0  0  0  0
  195.6850  171.9660  142.1400 C   0  0  0  0  0  1  0  0  0  0  0  0
  195.9190  173.2200  141.3070 C   0  0  2  0  0  3  0  0  0  0  0  0
  196.8090  172.9390  140.0950 C   0  0  1  0  0  3  0  0  0  0  0  0
  197.7600  171.9520  140.3980 O   0  0  0  0  0  1  0  0  0  0  0  0
  195.9840  172.5210  138.9640 N   0  0  0  0  0  2  0  0  0  0  0  0
  195.4640  173.7070  138.3010 C   0  0  0  0  0  2  0  0  0  0  0  0
  193.9450  173.6590  138.2200 C   0  0  0  0  0  2  0  0  0  0  0  0
  193.5090  172.5840  137.4290 O   0  0  0  0  0  0  0  0  0  0  0  0
  191.0840  169.8480  138.4130 C   0  0  0  0  0  0  0  0  0  0  0  0
  193.4600  169.8490  138.1530 O   0  0  0  0  0  1  0  0  0  0  0  0
  192.5060  172.3270  139.6190 C   0  0  0  0  0  2  0  0  0  0  0  0
  189.7050  170.4690  138.4140 C   0  0  0  0  0  2  0  0  0  0  0  0
  190.3120  172.2120  140.2370 C   0  0  1  0  0  3  0  0  0  0  0  0
  192.1390  170.3560  136.2540 C   0  0  0  0  0  1  0  0  0  0  0  0
  191.2080  168.7440  138.9210 O   0  0  0  0  0  0  0  0  0  0  0  0
  191.5710  171.5960  140.3740 O   0  0  0  0  0  0  0  0  0  0  0  0
  189.6640  171.9330  138.8670 C   0  0  0  0  0  2  0  0  0  0  0  0
  192.2900  170.5080  137.7580 C   0  0  1  0  0  0  0  0  0  0  0  0
  192.4210  172.0100  138.1060 C   0  0  2  0  0  3  0  0  0  0  0  0
  189.4660  171.7610  141.2480 O   0  0  0  0  0  1  0  0  0  0  0  0
  191.4760  175.1440  143.5280 C   0  0  0  0  0  2  0  0  0  0  0  0
  190.5440  173.9500  143.6420 C   0  0  0  0  0  2  0  0  0  0  0  0
  189.7570  174.0680  144.7890 O   0  0  0  0  0  1  0  0  0  0  0  0
  2 12  1  1  0  0  0
  3  2  1  0  0  0  0
  3  5  1  1  0  0  0
  4 14  1  6  0  0  0
  6 54  1  1  0  0  0
  6  8  1  0  0  0  0
  7  1  1  6  0  0  0
  7  6  1  0  0  0  0
  7  2  1  0  0  0  0
  8  4  1  0  0  0  0
  9 35  1  6  0  0  0
  9  3  1  0  0  0  0
 10  1  1  0  0  0  0
 11 10  1  0  0  0  0
 11  9  1  0  0  0  0
 12  4  1  0  0  0  0
 13 16  1  0  0  0  0
 13 15  2  0  0  0  0
 14 13  1  0  0  0  0
 17 19  1  0  0  0  0
 18 17  2  0  0  0  0
 20 18  1  0  0  0  0
 20 21  2  0  0  0  0
 21 22  1  0  0  0  0
 22 19  2  0  0  0  0
 22 16  1  0  0  0  0
 23 29  1  6  0  0  0
 23 18  1  0  0  0  0
 24 27  2  0  0  0  0
 25 26  1  0  0  0  0
 27 26  1  0  0  0  0
 27 23  1  0  0  0  0
 28 25  2  0  0  0  0
 28 24  1  0  0  0  0
 29 30  1  0  0  0  0
 30 31  1  0  0  0  0
 31 33  1  0  0  0  0
 33 32  1  0  0  0  0
 35 34  1  1  0  0  0
 36 37  1  1  0  0  0
 36 35  1  0  0  0  0
 38 36  1  0  0  0  0
 39 38  1  0  0  0  0
 40 39  1  0  0  0  0
 41 40  1  0  0  0  0
 42 45  1  0  0  0  0
 42 48  2  0  0  0  0
 44 49  1  0  0  0  0
 45 50  1  0  0  0  0
 46 49  1  0  0  0  0
 46 53  1  1  0  0  0
 50 46  1  0  0  0  0
 51 47  1  6  0  0  0
 51 52  1  0  0  0  0
 51 43  1  0  0  0  0
 51 42  1  0  0  0  0
 52 41  1  6  0  0  0
 52 44  1  0  0  0  0
 54 55  1  0  0  0  0
 55 56  1  0  0  0  0
M  END
>  <MODEL>
2

>  <REMARK>
 VINA RESULT:      -6.2      1.319      2.122
  Name = 
  18 active torsions:
  status: ('A' for Active; 'I' for Inactive)
    1  A    between atoms: C_5  and  C_31
    2  A    between atoms: N_7  and  C_29
    3  A    between atoms: C_11  and  C_27
    4  A    between atoms: C_12  and  C_33
    5  A    between atoms: C_12  and  N_50
    6  A    between atoms: C_16  and  N_50
    7  A    between atoms: C_16  and  C_53
    8  A    between atoms: C_19  and  C_22
    9  A    between atoms: C_19  and  C_38
   10  A    between atoms: C_22  and  C_37
   11  A    between atoms: C_25  and  C_37
   12  A    between atoms: C_27  and  C_41
   13  A    between atoms: C_31  and  C_52
   14  A    between atoms: C_32  and  C_37
   15  A    between atoms: C_33  and  C_46
   16  A    between atoms: C_38  and  C_42
   17  A    between atoms: C_47  and  O_56
   18  A    between atoms: C_53  and  O_56
                            x       y       z     vdW  Elec       q    Type
                         _______ _______ _______ _____ _____    ______ ____

>  <TORSDO>
F 18

$$$$
=
 OpenBabel11042419533D

 56 60  0  0  1  0  0  0  0  0999 V2000
  193.8810  175.6100  141.8090 O   0  0  0  0  0  0  0  0  0  0  0  0
  195.2880  175.9550  143.8230 C   0  0  1  0  0  3  0  0  0  0  0  0
  196.2630  174.8300  143.4510 C   0  0  2  0  0  3  0  0  0  0  0  0
  193.7500  175.2950  146.0070 C   0  0  1  0  0  3  0  0  0  0  0  0
  197.4950  175.0410  144.0710 O   0  0  0  0  0  1  0  0  0  0  0  0
  193.1490  174.5910  143.8370 C   0  0  1  0  0  3  0  0  0  0  0  0
  193.8790  175.7880  143.2130 C   0  0  2  0  0  3  0  0  0  0  0  0
  193.5700  174.1970  145.1340 O   0  0  0  0  0  0  0  0  0  0  0  0
  196.4990  174.6650  141.9300 C   0  0  2  0  0  3  0  0  0  0  0  0
  194.7890  176.5090  141.2260 C   0  0  0  0  0  2  0  0  0  0  0  0
  196.1450  175.8290  140.9790 C   0  0  0  0  0  2  0  0  0  0  0  0
  195.2270  176.2960  145.6180 S   0  0  0  0  0  0  0  0  0  0  0  0
  191.6160  175.9440  147.1870 C   0  0  0  0  0  0  0  0  0  0  0  0
  192.5570  176.1220  146.1260 N   0  0  0  0  0  2  0  0  0  0  0  0
  191.7060  174.9590  147.9670 O   0  0  0  0  0  0  0  0  0  0  0  0
  190.5350  176.9500  147.3910 C   0  0  0  0  0  2  0  0  0  0  0  0
  187.7160  176.4820  144.9060 C   0  0  0  0  0  3  0  0  0  0  0  0
  188.1910  177.2080  143.8030 C   0  0  0  0  0  0  0  0  0  0  0  0
  188.4750  176.4050  146.0760 C   0  0  0  0  0  3  0  0  0  0  0  0
  189.4230  177.8690  143.8880 C   0  0  0  0  0  3  0  0  0  0  0  0
  190.1810  177.7930  145.0600 C   0  0  0  0  0  3  0  0  0  0  0  0
  189.7070  177.0630  146.1560 C   0  0  0  0  0  0  0  0  0  0  0  0
  187.3950  177.3190  142.5390 C   0  0  2  0  0  3  0  0  0  0  0  0
  184.9550  177.5050  142.3000 N   0  0  0  0  0  0  0  0  0  0  0  0
  184.5180  179.3560  143.7040 C   0  0  0  0  0  3  0  0  0  0  0  0
  185.8900  179.0140  143.6520 O   0  0  0  0  0  0  0  0  0  0  0  0
  186.0550  177.9410  142.8060 C   0  0  0  0  0  0  0  0  0  0  0  0
  183.8530  178.3180  142.7960 C   0  0  0  0  0  3  0  0  0  0  0  0
  187.2850  175.9720  141.8340 C   0  0  0  0  0  2  0  0  0  0  0  0
  188.6590  175.3450  141.6630 C   0  0  0  0  0  2  0  0  0  0  0  0
  188.5300  173.9560  141.0610 C   0  0  0  0  0  2  0  0  0  0  0  0
  188.1340  172.6840  139.0090 N   0  0  0  0  0  1  0  0  0  0  0  0
  188.2200  174.0200  139.5710 C   0  0  0  0  0  2  0  0  0  0  0  0
  195.4850  172.3540  142.3350 C   0  0  0  0  0  1  0  0  0  0  0  0
  196.1950  173.2780  141.3520 C   0  0  2  0  0  3  0  0  0  0  0  0
  197.4310  172.6150  140.7420 C   0  0  1  0  0  3  0  0  0  0  0  0
  197.5880  171.3100  141.2350 O   0  0  0  0  0  1  0  0  0  0  0  0
  197.3130  172.5980  139.2860 N   0  0  0  0  0  2  0  0  0  0  0  0
  197.2740  171.2140  138.8370 C   0  0  0  0  0  2  0  0  0  0  0  0
  195.9730  170.9210  138.1040 C   0  0  0  0  0  2  0  0  0  0  0  0
  195.4020  172.0940  137.5870 O   0  0  0  0  0  0  0  0  0  0  0  0
  192.0820  173.7330  138.3800 C   0  0  0  0  0  0  0  0  0  0  0  0
  193.2260  173.3780  136.3110 O   0  0  0  0  0  1  0  0  0  0  0  0
  193.3440  170.9150  138.0790 C   0  0  0  0  0  2  0  0  0  0  0  0
  191.8980  173.6400  139.8780 C   0  0  0  0  0  2  0  0  0  0  0  0
  191.9600  171.0470  139.8890 C   0  0  1  0  0  3  0  0  0  0  0  0
  194.2920  174.7140  137.9500 C   0  0  0  0  0  1  0  0  0  0  0  0
  191.1140  174.0620  137.7100 O   0  0  0  0  0  0  0  0  0  0  0  0
  192.0050  171.0640  138.4820 O   0  0  0  0  0  0  0  0  0  0  0  0
  192.4620  172.3630  140.5130 C   0  0  0  0  0  2  0  0  0  0  0  0
  193.4200  173.4960  137.6920 C   0  0  1  0  0  0  0  0  0  0  0  0
  194.1490  172.2320  138.2050 C   0  0  2  0  0  3  0  0  0  0  0  0
  190.6530  170.8070  140.3070 O   0  0  0  0  0  1  0  0  0  0  0  0
  191.6330  174.6970  143.7080 C   0  0  0  0  0  2  0  0  0  0  0  0
  190.9700  173.3720  144.0410 C   0  0  0  0  0  2  0  0  0  0  0  0
  189.8740  173.5860  144.8810 O   0  0  0  0  0  1  0  0  0  0  0  0
  2 12  1  1  0  0  0
  3  2  1  0  0  0  0
  3  5  1  1  0  0  0
  4 14  1  6  0  0  0
  6 54  1  1  0  0  0
  6  8  1  0  0  0  0
  7  1  1  6  0  0  0
  7  2  1  0  0  0  0
  7  6  1  0  0  0  0
  8  4  1  0  0  0  0
  9 35  1  6  0  0  0
  9  3  1  0  0  0  0
 10  1  1  0  0  0  0
 11 10  1  0  0  0  0
 11  9  1  0  0  0  0
 12  4  1  0  0  0  0
 13 16  1  0  0  0  0
 13 15  2  0  0  0  0
 14 13  1  0  0  0  0
 17 19  1  0  0  0  0
 18 20  1  0  0  0  0
 18 17  2  0  0  0  0
 19 22  2  0  0  0  0
 20 21  2  0  0  0  0
 21 22  1  0  0  0  0
 22 16  1  0  0  0  0
 23 29  1  1  0  0  0
 23 27  1  0  0  0  0
 23 18  1  0  0  0  0
 24 28  1  0  0  0  0
 24 27  2  0  0  0  0
 26 25  1  0  0  0  0
 27 26  1  0  0  0  0
 28 25  2  0  0  0  0
 30 29  1  0  0  0  0
 31 30  1  0  0  0  0
 32 33  1  0  0  0  0
 33 31  1  0  0  0  0
 35 34  1  1  0  0  0
 36 37  1  1  0  0  0
 36 35  1  0  0  0  0
 38 36  1  0  0  0  0
 39 38  1  0  0  0  0
 40 39  1  0  0  0  0
 41 40  1  0  0  0  0
 42 45  1  0  0  0  0
 43 51  1  0  0  0  0
 44 52  1  0  0  0  0
 44 49  1  0  0  0  0
 45 50  1  0  0  0  0
 46 53  1  6  0  0  0
 46 50  1  0  0  0  0
 48 42  2  0  0  0  0
 49 46  1  0  0  0  0
 51 47  1  1  0  0  0
 51 52  1  0  0  0  0
 51 42  1  0  0  0  0
 52 41  1  6  0  0  0
 54 55  1  0  0  0  0
 55 56  1  0  0  0  0
M  END
>  <MODEL>
3

>  <REMARK>
 VINA RESULT:      -6.0      1.598      3.142
  Name = 
  18 active torsions:
  status: ('A' for Active; 'I' for Inactive)
    1  A    between atoms: C_5  and  C_31
    2  A    between atoms: N_7  and  C_29
    3  A    between atoms: C_11  and  C_27
    4  A    between atoms: C_12  and  C_33
    5  A    between atoms: C_12  and  N_50
    6  A    between atoms: C_16  and  N_50
    7  A    between atoms: C_16  and  C_53
    8  A    between atoms: C_19  and  C_22
    9  A    between atoms: C_19  and  C_38
   10  A    between atoms: C_22  and  C_37
   11  A    between atoms: C_25  and  C_37
   12  A    between atoms: C_27  and  C_41
   13  A    between atoms: C_31  and  C_52
   14  A    between atoms: C_32  and  C_37
   15  A    between atoms: C_33  and  C_46
   16  A    between atoms: C_38  and  C_42
   17  A    between atoms: C_47  and  O_56
   18  A    between atoms: C_53  and  O_56
                            x       y       z     vdW  Elec       q    Type
                         _______ _______ _______ _____ _____    ______ ____

>  <TORSDO>
F 18

$$$$
=
 OpenBabel11042419533D

 56 60  0  0  1  0  0  0  0  0999 V2000
  194.8140  175.9800  141.9190 O   0  0  0  0  0  0  0  0  0  0  0  0
  195.7080  175.3270  144.1390 C   0  0  1  0  0  3  0  0  0  0  0  0
  196.4360  174.0930  143.5880 C   0  0  2  0  0  3  0  0  0  0  0  0
  193.5560  174.6290  145.7060 C   0  0  1  0  0  3  0  0  0  0  0  0
  197.4850  173.7390  144.4370 O   0  0  0  0  0  1  0  0  0  0  0  0
  193.3660  174.7440  143.3570 C   0  0  1  0  0  3  0  0  0  0  0  0
  194.5020  175.7740  143.2850 C   0  0  2  0  0  3  0  0  0  0  0  0
  193.3360  173.9130  144.5060 O   0  0  0  0  0  0  0  0  0  0  0  0
  196.9990  174.2690  142.1580 C   0  0  2  0  0  3  0  0  0  0  0  0
  196.0320  176.6710  141.8180 C   0  0  0  0  0  2  0  0  0  0  0  0
  197.1950  175.6920  141.5900 C   0  0  0  0  0  2  0  0  0  0  0  0
  195.2840  175.1840  145.9120 S   0  0  0  0  0  0  0  0  0  0  0  0
  191.7360  175.7880  147.0140 C   0  0  0  0  0  0  0  0  0  0  0  0
  192.6140  175.7250  145.8890 N   0  0  0  0  0  2  0  0  0  0  0  0
  191.6370  174.8130  147.8070 O   0  0  0  0  0  0  0  0  0  0  0  0
  190.9520  177.0290  147.2710 C   0  0  0  0  0  2  0  0  0  0  0  0
  188.9430  177.9270  144.1880 C   0  0  0  0  0  3  0  0  0  0  0  0
  187.6880  177.3860  144.5040 C   0  0  0  0  0  0  0  0  0  0  0  0
  190.0080  177.8030  145.0850 C   0  0  0  0  0  3  0  0  0  0  0  0
  187.5120  176.7070  145.7160 C   0  0  0  0  0  3  0  0  0  0  0  0
  188.5780  176.5820  146.6120 C   0  0  0  0  0  3  0  0  0  0  0  0
  189.8270  177.1290  146.2970 C   0  0  0  0  0  0  0  0  0  0  0  0
  186.5320  177.4930  143.5580 C   0  0  2  0  0  3  0  0  0  0  0  0
  186.5980  177.5330  141.1010 N   0  0  0  0  0  0  0  0  0  0  0  0
  187.8110  175.5510  140.6630 C   0  0  0  0  0  3  0  0  0  0  0  0
  187.6200  175.7890  142.0450 O   0  0  0  0  0  0  0  0  0  0  0  0
  186.8960  176.9480  142.2070 C   0  0  0  0  0  0  0  0  0  0  0  0
  187.1330  176.7510  139.9940 C   0  0  0  0  0  3  0  0  0  0  0  0
  186.0000  178.9200  143.4910 C   0  0  0  0  0  2  0  0  0  0  0  0
  185.5700  179.3950  144.8680 C   0  0  0  0  0  2  0  0  0  0  0  0
  184.2420  178.7640  145.2500 C   0  0  0  0  0  2  0  0  0  0  0  0
  185.3350  178.8590  147.4370 N   0  0  0  0  0  1  0  0  0  0  0  0
  184.2660  178.2360  146.6790 C   0  0  0  0  0  2  0  0  0  0  0  0
  195.3740  172.3710  141.6160 C   0  0  0  0  0  1  0  0  0  0  0  0
  196.5170  173.2490  141.1190 C   0  0  2  0  0  3  0  0  0  0  0  0
  197.6640  172.4160  140.5420 C   0  0  1  0  0  3  0  0  0  0  0  0
  197.4680  171.0520  140.8090 O   0  0  0  0  0  1  0  0  0  0  0  0
  197.7620  172.6430  139.1020 N   0  0  0  0  0  2  0  0  0  0  0  0
  197.2800  171.4580  138.4080 C   0  0  0  0  0  2  0  0  0  0  0  0
  196.0310  171.7760  137.6000 C   0  0  0  0  0  2  0  0  0  0  0  0
  195.9420  173.1470  137.3140 O   0  0  0  0  0  0  0  0  0  0  0  0
  192.7580  175.1260  136.7820 C   0  0  0  0  0  0  0  0  0  0  0  0
  195.0580  175.7000  136.4720 O   0  0  0  0  0  1  0  0  0  0  0  0
  194.4570  172.9210  135.4140 C   0  0  0  0  0  2  0  0  0  0  0  0
  191.6110  174.2100  137.1430 C   0  0  0  0  0  2  0  0  0  0  0  0
  192.2230  172.4600  135.3280 C   0  0  1  0  0  3  0  0  0  0  0  0
  194.3480  175.1190  138.6550 C   0  0  0  0  0  1  0  0  0  0  0  0
  192.4900  176.1660  136.1980 O   0  0  0  0  0  0  0  0  0  0  0  0
  193.2290  173.3290  134.8620 O   0  0  0  0  0  0  0  0  0  0  0  0
  191.8380  172.7340  136.7950 C   0  0  0  0  0  2  0  0  0  0  0  0
  194.2030  174.8380  137.1680 C   0  0  1  0  0  0  0  0  0  0  0  0
  194.6250  173.3770  136.8830 C   0  0  2  0  0  3  0  0  0  0  0  0
  191.0930  172.5890  134.5230 O   0  0  0  0  0  1  0  0  0  0  0  0
  192.0060  175.3480  143.0210 C   0  0  0  0  0  2  0  0  0  0  0  0
  191.3910  174.6550  141.8170 C   0  0  0  0  0  2  0  0  0  0  0  0
  191.5160  173.2710  141.9510 O   0  0  0  0  0  1  0  0  0  0  0  0
  2 12  1  1  0  0  0
  3  2  1  0  0  0  0
  3  5  1  1  0  0  0
  4 14  1  6  0  0  0
  4 12  1  0  0  0  0
  6 54  1  1  0  0  0
  6  8  1  0  0  0  0
  7  1  1  6  0  0  0
  7  6  1  0  0  0  0
  7  2  1  0  0  0  0
  8  4  1  0  0  0  0
  9 35  1  6  0  0  0
  9  3  1  0  0  0  0
 10  1  1  0  0  0  0
 11 10  1  0  0  0  0
 11  9  1  0  0  0  0
 13 16  1  0  0  0  0
 13 15  2  0  0  0  0
 14 13  1  0  0  0  0
 17 18  2  0  0  0  0
 17 19  1  0  0  0  0
 18 20  1  0  0  0  0
 19 22  2  0  0  0  0
 20 21  2  0  0  0  0
 22 21  1  0  0  0  0
 22 16  1  0  0  0  0
 23 29  1  6  0  0  0
 23 18  1  0  0  0  0
 24 27  2  0  0  0  0
 25 26  1  0  0  0  0
 26 27  1  0  0  0  0
 27 23  1  0  0  0  0
 28 25  2  0  0  0  0
 28 24  1  0  0  0  0
 29 30  1  0  0  0  0
 30 31  1  0  0  0  0
 31 33  1  0  0  0  0
 33 32  1  0  0  0  0
 35 34  1  1  0  0  0
 36 37  1  6  0  0  0
 36 35  1  0  0  0  0
 38 36  1  0  0  0  0
 39 38  1  0  0  0  0
 40 39  1  0  0  0  0
 41 40  1  0  0  0  0
 42 45  1  0  0  0  0
 42 51  1  0  0  0  0
 43 51  1  0  0  0  0
 44 52  1  0  0  0  0
 46 53  1  6  0  0  0
 46 50  1  0  0  0  0
 48 42  2  0  0  0  0
 49 46  1  0  0  0  0
 49 44  1  0  0  0  0
 50 45  1  0  0  0  0
 51 47  1  1  0  0  0
 52 51  1  0  0  0  0
 52 41  1  6  0  0  0
 55 56  1  0  0  0  0
 55 54  1  0  0  0  0
M  END
>  <MODEL>
4

>  <REMARK>
 VINA RESULT:      -6.0      2.012      2.281
  Name = 
  18 active torsions:
  status: ('A' for Active; 'I' for Inactive)
    1  A    between atoms: C_5  and  C_31
    2  A    between atoms: N_7  and  C_29
    3  A    between atoms: C_11  and  C_27
    4  A    between atoms: C_12  and  C_33
    5  A    between atoms: C_12  and  N_50
    6  A    between atoms: C_16  and  N_50
    7  A    between atoms: C_16  and  C_53
    8  A    between atoms: C_19  and  C_22
    9  A    between atoms: C_19  and  C_38
   10  A    between atoms: C_22  and  C_37
   11  A    between atoms: C_25  and  C_37
   12  A    between atoms: C_27  and  C_41
   13  A    between atoms: C_31  and  C_52
   14  A    between atoms: C_32  and  C_37
   15  A    between atoms: C_33  and  C_46
   16  A    between atoms: C_38  and  C_42
   17  A    between atoms: C_47  and  O_56
   18  A    between atoms: C_53  and  O_56
                            x       y       z     vdW  Elec       q    Type
                         _______ _______ _______ _____ _____    ______ ____

>  <TORSDO>
F 18

$$$$
=
 OpenBabel11042419533D

 56 60  0  0  1  0  0  0  0  0999 V2000
  192.2500  172.8450  141.7050 O   0  0  0  0  0  0  0  0  0  0  0  0
  193.4290  175.0020  142.0370 C   0  0  1  0  0  3  0  0  0  0  0  0
  194.5290  174.6660  141.0210 C   0  0  2  0  0  3  0  0  0  0  0  0
  194.3890  175.0100  144.6160 C   0  0  1  0  0  3  0  0  0  0  0  0
  195.1080  175.8390  140.5380 O   0  0  0  0  0  1  0  0  0  0  0  0
  193.7290  173.0020  143.5690 C   0  0  1  0  0  3  0  0  0  0  0  0
  192.7530  173.7600  142.6590 C   0  0  2  0  0  3  0  0  0  0  0  0
  194.8010  173.7540  144.1160 O   0  0  0  0  0  0  0  0  0  0  0  0
  194.0500  173.8220  139.8160 C   0  0  2  0  0  3  0  0  0  0  0  0
  191.6000  173.5500  140.6790 C   0  0  0  0  0  2  0  0  0  0  0  0
  192.5420  173.7630  139.4840 C   0  0  0  0  0  2  0  0  0  0  0  0
  193.9600  176.2070  143.3050 S   0  0  0  0  0  0  0  0  0  0  0  0
  193.1590  175.8760  146.6420 C   0  0  0  0  0  0  0  0  0  0  0  0
  193.3300  174.9020  145.6110 N   0  0  0  0  0  2  0  0  0  0  0  0
  194.0170  176.7810  146.8200 O   0  0  0  0  0  0  0  0  0  0  0  0
  191.9380  175.8400  147.4970 C   0  0  0  0  0  2  0  0  0  0  0  0
  189.5040  177.5010  145.1180 C   0  0  0  0  0  3  0  0  0  0  0  0
  188.4190  176.6130  145.1620 C   0  0  0  0  0  0  0  0  0  0  0  0
  190.6530  177.2450  145.8720 C   0  0  0  0  0  3  0  0  0  0  0  0
  188.5000  175.4600  145.9520 C   0  0  0  0  0  3  0  0  0  0  0  0
  189.6500  175.2030  146.7040 C   0  0  0  0  0  3  0  0  0  0  0  0
  190.7280  176.0940  146.6640 C   0  0  0  0  0  0  0  0  0  0  0  0
  187.1790  176.8550  144.3560 C   0  0  2  0  0  3  0  0  0  0  0  0
  186.8570  177.1410  141.9360 N   0  0  0  0  0  0  0  0  0  0  0  0
  188.2650  175.4350  141.1010 C   0  0  0  0  0  3  0  0  0  0  0  0
  188.2570  175.5040  142.5150 O   0  0  0  0  0  0  0  0  0  0  0  0
  187.4060  176.5090  142.9130 C   0  0  0  0  0  0  0  0  0  0  0  0
  187.3230  176.5660  140.6810 C   0  0  0  0  0  3  0  0  0  0  0  0
  186.6650  178.2770  144.5450 C   0  0  0  0  0  2  0  0  0  0  0  0
  185.3570  178.2740  145.3190 C   0  0  0  0  0  2  0  0  0  0  0  0
  185.4850  179.1330  146.5660 C   0  0  0  0  0  2  0  0  0  0  0  0
  185.9480  177.1510  147.9230 N   0  0  0  0  0  1  0  0  0  0  0  0
  186.4050  178.4890  147.5950 C   0  0  0  0  0  2  0  0  0  0  0  0
  195.7620  172.1470  140.7110 C   0  0  0  0  0  1  0  0  0  0  0  0
  194.7850  172.4940  139.5940 C   0  0  2  0  0  3  0  0  0  0  0  0
  195.4460  172.4150  138.2170 C   0  0  1  0  0  3  0  0  0  0  0  0
  196.6980  173.0480  138.2320 O   0  0  0  0  0  1  0  0  0  0  0  0
  195.5880  171.0170  137.8180 N   0  0  0  0  0  2  0  0  0  0  0  0
  195.8590  170.9640  136.3890 C   0  0  0  0  0  2  0  0  0  0  0  0
  194.6330  171.3800  135.5900 C   0  0  0  0  0  2  0  0  0  0  0  0
  193.6250  170.4050  135.6540 O   0  0  0  0  0  0  0  0  0  0  0  0
  190.1340  171.1720  136.9010 C   0  0  0  0  0  0  0  0  0  0  0  0
  192.1500  170.6190  138.0590 O   0  0  0  0  0  1  0  0  0  0  0  0
  192.6630  172.6200  135.8370 C   0  0  0  0  0  2  0  0  0  0  0  0
  189.2890  171.4600  135.6790 C   0  0  0  0  0  2  0  0  0  0  0  0
  190.7450  173.4780  134.9460 C   0  0  1  0  0  3  0  0  0  0  0  0
  191.2730  169.0260  136.5430 C   0  0  0  0  0  1  0  0  0  0  0  0
  189.6630  171.4520  137.9940 O   0  0  0  0  0  0  0  0  0  0  0  0
  191.4920  173.3410  136.1320 O   0  0  0  0  0  0  0  0  0  0  0  0
  190.0320  172.1730  134.5430 C   0  0  0  0  0  2  0  0  0  0  0  0
  191.4990  170.5020  136.8260 C   0  0  1  0  0  0  0  0  0  0  0  0
  192.4060  171.0980  135.7230 C   0  0  2  0  0  3  0  0  0  0  0  0
  189.8000  174.4890  135.1100 O   0  0  0  0  0  1  0  0  0  0  0  0
  193.0150  172.1410  144.6060 C   0  0  0  0  0  2  0  0  0  0  0  0
  193.7160  170.8030  144.7710 C   0  0  0  0  0  2  0  0  0  0  0  0
  194.6120  170.8650  145.8410 O   0  0  0  0  0  1  0  0  0  0  0  0
  2  7  1  0  0  0  0
  2 12  1  1  0  0  0
  3  5  1  6  0  0  0
  3  2  1  0  0  0  0
  4 14  1  1  0  0  0
  6  8  1  0  0  0  0
  6 54  1  1  0  0  0
  7  1  1  6  0  0  0
  7  6  1  0  0  0  0
  8  4  1  0  0  0  0
  9 35  1  1  0  0  0
  9  3  1  0  0  0  0
 10  1  1  0  0  0  0
 11  9  1  0  0  0  0
 11 10  1  0  0  0  0
 12  4  1  0  0  0  0
 13 15  2  0  0  0  0
 13 16  1  0  0  0  0
 14 13  1  0  0  0  0
 17 18  2  0  0  0  0
 17 19  1  0  0  0  0
 18 20  1  0  0  0  0
 19 22  2  0  0  0  0
 20 21  2  0  0  0  0
 22 21  1  0  0  0  0
 22 16  1  0  0  0  0
 23 29  1  6  0  0  0
 23 18  1  0  0  0  0
 24 27  2  0  0  0  0
 25 26  1  0  0  0  0
 26 27  1  0  0  0  0
 27 23  1  0  0  0  0
 28 25  2  0  0  0  0
 28 24  1  0  0  0  0
 29 30  1  0  0  0  0
 30 31  1  0  0  0  0
 31 33  1  0  0  0  0
 33 32  1  0  0  0  0
 35 34  1  1  0  0  0
 36 37  1  1  0  0  0
 36 35  1  0  0  0  0
 38 36  1  0  0  0  0
 39 38  1  0  0  0  0
 40 41  1  0  0  0  0
 40 39  1  0  0  0  0
 42 48  2  0  0  0  0
 44 49  1  0  0  0  0
 45 42  1  0  0  0  0
 46 53  1  1  0  0  0
 46 49  1  0  0  0  0
 50 46  1  0  0  0  0
 50 45  1  0  0  0  0
 51 47  1  6  0  0  0
 51 42  1  0  0  0  0
 51 43  1  0  0  0  0
 52 41  1  1  0  0  0
 52 44  1  0  0  0  0
 52 51  1  0  0  0  0
 54 55  1  0  0  0  0
 55 56  1  0  0  0  0
M  END
>  <MODEL>
5

>  <REMARK>
 VINA RESULT:      -5.6      2.147      3.018
  Name = 
  18 active torsions:
  status: ('A' for Active; 'I' for Inactive)
    1  A    between atoms: C_5  and  C_31
    2  A    between atoms: N_7  and  C_29
    3  A    between atoms: C_11  and  C_27
    4  A    between atoms: C_12  and  C_33
    5  A    between atoms: C_12  and  N_50
    6  A    between atoms: C_16  and  N_50
    7  A    between atoms: C_16  and  C_53
    8  A    between atoms: C_19  and  C_22
    9  A    between atoms: C_19  and  C_38
   10  A    between atoms: C_22  and  C_37
   11  A    between atoms: C_25  and  C_37
   12  A    between atoms: C_27  and  C_41
   13  A    between atoms: C_31  and  C_52
   14  A    between atoms: C_32  and  C_37
   15  A    between atoms: C_33  and  C_46
   16  A    between atoms: C_38  and  C_42
   17  A    between atoms: C_47  and  O_56
   18  A    between atoms: C_53  and  O_56
                            x       y       z     vdW  Elec       q    Type
                         _______ _______ _______ _____ _____    ______ ____

>  <TORSDO>
F 18

$$$$
=
 OpenBabel11042419533D

 56 60  0  0  1  0  0  0  0  0999 V2000
  194.9290  176.1190  141.2410 O   0  0  0  0  0  0  0  0  0  0  0  0
  196.2290  175.1120  143.0980 C   0  0  1  0  0  3  0  0  0  0  0  0
  196.7590  173.9620  142.2300 C   0  0  2  0  0  3  0  0  0  0  0  0
  194.4160  174.2270  144.9690 C   0  0  1  0  0  3  0  0  0  0  0  0
  197.9410  173.4580  142.7730 O   0  0  0  0  0  1  0  0  0  0  0  0
  193.7480  174.7080  142.7580 C   0  0  1  0  0  3  0  0  0  0  0  0
  194.8980  175.7110  142.5960 C   0  0  2  0  0  3  0  0  0  0  0  0
  193.9130  173.7090  143.7530 O   0  0  0  0  0  0  0  0  0  0  0  0
  197.0210  174.3450  140.7530 C   0  0  2  0  0  3  0  0  0  0  0  0
  196.1350  176.7900  140.9830 C   0  0  0  0  0  2  0  0  0  0  0  0
  197.1710  175.8340  140.3720 C   0  0  0  0  0  2  0  0  0  0  0  0
  196.1760  174.7060  144.8800 S   0  0  0  0  0  0  0  0  0  0  0  0
  192.4500  175.0420  146.3230 C   0  0  0  0  0  0  0  0  0  0  0  0
  193.5940  175.3020  145.5080 N   0  0  0  0  0  2  0  0  0  0  0  0
  192.0210  173.8670  146.4750 O   0  0  0  0  0  0  0  0  0  0  0  0
  191.7730  176.1690  147.0270 C   0  0  0  0  0  2  0  0  0  0  0  0
  188.1360  176.1040  145.9740 C   0  0  0  0  0  3  0  0  0  0  0  0
  188.1170  177.0860  144.9720 C   0  0  0  0  0  0  0  0  0  0  0  0
  189.3250  175.8110  146.6480 C   0  0  0  0  0  3  0  0  0  0  0  0
  189.2910  177.7830  144.6640 C   0  0  0  0  0  3  0  0  0  0  0  0
  190.4790  177.4920  145.3400 C   0  0  0  0  0  3  0  0  0  0  0  0
  190.4970  176.5070  146.3340 C   0  0  0  0  0  0  0  0  0  0  0  0
  186.8550  177.4290  144.2410 C   0  0  2  0  0  3  0  0  0  0  0  0
  184.5880  178.0820  144.9320 N   0  0  0  0  0  0  0  0  0  0  0  0
  185.0410  179.0900  147.0220 C   0  0  0  0  0  3  0  0  0  0  0  0
  186.2040  178.6060  146.3780 O   0  0  0  0  0  0  0  0  0  0  0  0
  185.8530  178.0500  145.1700 C   0  0  0  0  0  0  0  0  0  0  0  0
  183.9130  178.7230  146.0530 C   0  0  0  0  0  3  0  0  0  0  0  0
  186.2980  176.2200  143.5000 C   0  0  0  0  0  2  0  0  0  0  0  0
  187.1790  175.8680  142.3130 C   0  0  0  0  0  2  0  0  0  0  0  0
  187.5280  177.1210  141.5290 C   0  0  0  0  0  2  0  0  0  0  0  0
  186.7270  177.4920  139.2480 N   0  0  0  0  0  1  0  0  0  0  0  0
  186.3670  177.5720  140.6510 C   0  0  0  0  0  2  0  0  0  0  0  0
  195.5550  172.3010  140.2900 C   0  0  0  0  0  1  0  0  0  0  0  0
  196.2790  173.5080  139.7030 C   0  0  2  0  0  3  0  0  0  0  0  0
  197.1760  173.1160  138.5280 C   0  0  1  0  0  3  0  0  0  0  0  0
  197.5510  171.7670  138.6210 O   0  0  0  0  0  1  0  0  0  0  0  0
  196.4760  173.3640  137.2700 N   0  0  0  0  0  2  0  0  0  0  0  0
  196.3260  172.1010  136.5620 C   0  0  0  0  0  2  0  0  0  0  0  0
  194.8950  171.5940  136.6570 C   0  0  0  0  0  2  0  0  0  0  0  0
  193.9710  172.6360  136.4820 O   0  0  0  0  0  0  0  0  0  0  0  0
  190.8000  173.1230  138.4930 C   0  0  0  0  0  0  0  0  0  0  0  0
  191.6810  174.2950  136.6060 O   0  0  0  0  0  1  0  0  0  0  0  0
  191.9660  171.2930  136.2770 C   0  0  0  0  0  2  0  0  0  0  0  0
  190.7950  172.0540  139.5630 C   0  0  0  0  0  2  0  0  0  0  0  0
  190.8120  170.1070  137.8490 C   0  0  1  0  0  3  0  0  0  0  0  0
  192.9600  174.2870  138.5990 C   0  0  0  0  0  1  0  0  0  0  0  0
  189.7650  173.7470  138.3120 O   0  0  0  0  0  0  0  0  0  0  0  0
  190.6870  171.0500  136.8110 O   0  0  0  0  0  0  0  0  0  0  0  0
  191.4080  170.7160  139.1320 C   0  0  0  0  0  2  0  0  0  0  0  0
  192.0410  173.4870  137.6900 C   0  0  1  0  0  0  0  0  0  0  0  0
  192.8030  172.2490  137.1590 C   0  0  2  0  0  3  0  0  0  0  0  0
  189.5590  169.5660  138.1330 O   0  0  0  0  0  1  0  0  0  0  0  0
  192.3820  175.3850  142.8140 C   0  0  0  0  0  2  0  0  0  0  0  0
  191.2680  174.3650  142.6540 C   0  0  0  0  0  2  0  0  0  0  0  0
  190.3470  174.8130  141.7030 O   0  0  0  0  0  1  0  0  0  0  0  0
  2 12  1  1  0  0  0
  3  5  1  1  0  0  0
  3  2  1  0  0  0  0
  4 14  1  6  0  0  0
  6 54  1  1  0  0  0
  6  8  1  0  0  0  0
  7  1  1  6  0  0  0
  7  6  1  0  0  0  0
  7  2  1  0  0  0  0
  8  4  1  0  0  0  0
  9 35  1  6  0  0  0
  9  3  1  0  0  0  0
 10  1  1  0  0  0  0
 11  9  1  0  0  0  0
 11 10  1  0  0  0  0
 12  4  1  0  0  0  0
 13 15  2  0  0  0  0
 13 16  1  0  0  0  0
 14 13  1  0  0  0  0
 17 19  1  0  0  0  0
 18 17  2  0  0  0  0
 20 18  1  0  0  0  0
 20 21  2  0  0  0  0
 21 22  1  0  0  0  0
 22 19  2  0  0  0  0
 22 16  1  0  0  0  0
 23 29  1  1  0  0  0
 23 18  1  0  0  0  0
 23 27  1  0  0  0  0
 24 27  2  0  0  0  0
 24 28  1  0  0  0  0
 26 25  1  0  0  0  0
 27 26  1  0  0  0  0
 28 25  2  0  0  0  0
 30 29  1  0  0  0  0
 31 30  1  0  0  0  0
 32 33  1  0  0  0  0
 33 31  1  0  0  0  0
 35 34  1  1  0  0  0
 36 37  1  1  0  0  0
 36 35  1  0  0  0  0
 38 36  1  0  0  0  0
 39 40  1  0  0  0  0
 39 38  1  0  0  0  0
 41 40  1  0  0  0  0
 42 45  1  0  0  0  0
 43 51  1  0  0  0  0
 44 49  1  0  0  0  0
 44 52  1  0  0  0  0
 46 53  1  1  0  0  0
 46 50  1  0  0  0  0
 48 42  2  0  0  0  0
 49 46  1  0  0  0  0
 50 45  1  0  0  0  0
 51 42  1  0  0  0  0
 51 47  1  1  0  0  0
 52 41  1  6  0  0  0
 52 51  1  0  0  0  0
 55 54  1  0  0  0  0
 56 55  1  0  0  0  0
M  END
>  <MODEL>
6

>  <REMARK>
 VINA RESULT:      -5.6      1.943      3.308
  Name = 
  18 active torsions:
  status: ('A' for Active; 'I' for Inactive)
    1  A    between atoms: C_5  and  C_31
    2  A    between atoms: N_7  and  C_29
    3  A    between atoms: C_11  and  C_27
    4  A    between atoms: C_12  and  C_33
    5  A    between atoms: C_12  and  N_50
    6  A    between atoms: C_16  and  N_50
    7  A    between atoms: C_16  and  C_53
    8  A    between atoms: C_19  and  C_22
    9  A    between atoms: C_19  and  C_38
   10  A    between atoms: C_22  and  C_37
   11  A    between atoms: C_25  and  C_37
   12  A    between atoms: C_27  and  C_41
   13  A    between atoms: C_31  and  C_52
   14  A    between atoms: C_32  and  C_37
   15  A    between atoms: C_33  and  C_46
   16  A    between atoms: C_38  and  C_42
   17  A    between atoms: C_47  and  O_56
   18  A    between atoms: C_53  and  O_56
                            x       y       z     vdW  Elec       q    Type
                         _______ _______ _______ _____ _____    ______ ____

>  <TORSDO>
F 18

$$$$
=
 OpenBabel11042419533D

 56 60  0  0  1  0  0  0  0  0999 V2000
  192.7230  172.9790  141.4020 O   0  0  0  0  0  0  0  0  0  0  0  0
  193.6900  175.1600  142.0800 C   0  0  1  0  0  3  0  0  0  0  0  0
  194.8990  175.0220  141.1450 C   0  0  2  0  0  3  0  0  0  0  0  0
  194.4130  174.9380  144.7260 C   0  0  1  0  0  3  0  0  0  0  0  0
  195.4220  176.2810  140.8510 O   0  0  0  0  0  1  0  0  0  0  0  0
  194.0130  173.0220  143.4080 C   0  0  1  0  0  3  0  0  0  0  0  0
  193.0640  173.8110  142.4950 C   0  0  2  0  0  3  0  0  0  0  0  0
  194.9680  173.7790  144.1350 O   0  0  0  0  0  0  0  0  0  0  0  0
  194.5980  174.2920  139.8150 C   0  0  2  0  0  3  0  0  0  0  0  0
  192.1120  173.7500  140.4010 C   0  0  0  0  0  2  0  0  0  0  0  0
  193.1360  174.1660  139.3340 C   0  0  0  0  0  2  0  0  0  0  0  0
  194.0080  176.2450  143.5170 S   0  0  0  0  0  0  0  0  0  0  0  0
  192.9190  175.4960  146.6810 C   0  0  0  0  0  0  0  0  0  0  0  0
  193.2830  174.6410  145.5950 N   0  0  0  0  0  2  0  0  0  0  0  0
  193.6610  176.4560  147.0200 O   0  0  0  0  0  0  0  0  0  0  0  0
  191.6330  175.2680  147.4010 C   0  0  0  0  0  2  0  0  0  0  0  0
  188.1970  175.9220  145.9500 C   0  0  0  0  0  3  0  0  0  0  0  0
  188.4300  177.0760  145.1870 C   0  0  0  0  0  0  0  0  0  0  0  0
  189.2380  175.3380  146.6770 C   0  0  0  0  0  3  0  0  0  0  0  0
  189.7070  177.6500  145.1720 C   0  0  0  0  0  3  0  0  0  0  0  0
  190.7470  177.0670  145.9010 C   0  0  0  0  0  3  0  0  0  0  0  0
  190.5140  175.9120  146.6550 C   0  0  0  0  0  0  0  0  0  0  0  0
  187.3310  177.7310  144.4070 C   0  0  2  0  0  3  0  0  0  0  0  0
  184.9580  178.0630  144.9560 N   0  0  0  0  0  0  0  0  0  0  0  0
  185.1260  178.8050  147.1950 C   0  0  0  0  0  3  0  0  0  0  0  0
  186.3840  178.5270  146.6080 O   0  0  0  0  0  0  0  0  0  0  0  0
  186.1940  178.1170  145.3080 C   0  0  0  0  0  0  0  0  0  0  0  0
  184.1280  178.4730  146.0820 C   0  0  0  0  0  3  0  0  0  0  0  0
  186.8830  176.8580  143.2400 C   0  0  0  0  0  2  0  0  0  0  0  0
  187.9470  176.8290  142.1560 C   0  0  0  0  0  2  0  0  0  0  0  0
  187.9310  175.4890  141.4410 C   0  0  0  0  0  2  0  0  0  0  0  0
  189.6370  174.5840  142.9420 N   0  0  0  0  0  1  0  0  0  0  0  0
  188.3200  174.3520  142.3780 C   0  0  0  0  0  2  0  0  0  0  0  0
  196.5830  172.8450  140.5270 C   0  0  0  0  0  1  0  0  0  0  0  0
  195.4550  173.0530  139.5230 C   0  0  2  0  0  3  0  0  0  0  0  0
  195.9650  173.0230  138.0810 C   0  0  1  0  0  3  0  0  0  0  0  0
  197.1510  173.7640  137.9600 O   0  0  0  0  0  1  0  0  0  0  0  0
  196.1860  171.6400  137.6650 N   0  0  0  0  0  2  0  0  0  0  0  0
  196.1630  171.5800  136.2110 C   0  0  0  0  0  2  0  0  0  0  0  0
  194.7330  171.5290  135.6940 C   0  0  0  0  0  2  0  0  0  0  0  0
  194.0800  170.3580  136.1100 O   0  0  0  0  0  0  0  0  0  0  0  0
  190.8610  170.4490  138.1010 C   0  0  0  0  0  0  0  0  0  0  0  0
  193.1490  170.6470  138.7660 O   0  0  0  0  0  1  0  0  0  0  0  0
  192.5820  172.2550  136.2570 C   0  0  0  0  0  2  0  0  0  0  0  0
  189.7320  170.2800  137.1090 C   0  0  0  0  0  2  0  0  0  0  0  0
  190.3550  172.4210  135.7850 C   0  0  1  0  0  3  0  0  0  0  0  0
  192.4680  168.6280  137.7330 C   0  0  0  0  0  1  0  0  0  0  0  0
  190.5720  170.8030  139.2340 O   0  0  0  0  0  0  0  0  0  0  0  0
  191.3420  172.7030  136.7490 O   0  0  0  0  0  0  0  0  0  0  0  0
  189.9800  170.9280  135.7420 C   0  0  0  0  0  2  0  0  0  0  0  0
  192.3140  170.1400  137.7640 C   0  0  1  0  0  0  0  0  0  0  0  0
  192.7570  170.7240  136.4010 C   0  0  2  0  0  3  0  0  0  0  0  0
  189.2160  173.1760  136.0580 O   0  0  0  0  0  1  0  0  0  0  0  0
  193.2810  171.9990  144.2700 C   0  0  0  0  0  2  0  0  0  0  0  0
  193.7110  170.5870  143.9130 C   0  0  0  0  0  2  0  0  0  0  0  0
  194.7050  170.6260  142.9320 O   0  0  0  0  0  1  0  0  0  0  0  0
  2  7  1  0  0  0  0
  2 12  1  1  0  0  0
  3  5  1  6  0  0  0
  3  2  1  0  0  0  0
  4 14  1  6  0  0  0
  6  8  1  0  0  0  0
  6 54  1  1  0  0  0
  7  1  1  6  0  0  0
  7  6  1  0  0  0  0
  8  4  1  0  0  0  0
  9 35  1  1  0  0  0
  9  3  1  0  0  0  0
 10  1  1  0  0  0  0
 11  9  1  0  0  0  0
 11 10  1  0  0  0  0
 12  4  1  0  0  0  0
 13 15  2  0  0  0  0
 13 16  1  0  0  0  0
 14 13  1  0  0  0  0
 17 19  1  0  0  0  0
 18 17  2  0  0  0  0
 20 18  1  0  0  0  0
 20 21  2  0  0  0  0
 21 22  1  0  0  0  0
 22 19  2  0  0  0  0
 22 16  1  0  0  0  0
 23 29  1  6  0  0  0
 23 18  1  0  0  0  0
 23 27  1  0  0  0  0
 24 27  2  0  0  0  0
 24 28  1  0  0  0  0
 26 25  1  0  0  0  0
 27 26  1  0  0  0  0
 28 25  2  0  0  0  0
 30 29  1  0  0  0  0
 31 30  1  0  0  0  0
 31 33  1  0  0  0  0
 33 32  1  0  0  0  0
 35 34  1  1  0  0  0
 36 37  1  1  0  0  0
 36 35  1  0  0  0  0
 38 36  1  0  0  0  0
 39 38  1  0  0  0  0
 40 41  1  0  0  0  0
 40 39  1  0  0  0  0
 42 48  2  0  0  0  0
 44 52  1  0  0  0  0
 44 49  1  0  0  0  0
 45 42  1  0  0  0  0
 46 53  1  1  0  0  0
 46 49  1  0  0  0  0
 50 46  1  0  0  0  0
 50 45  1  0  0  0  0
 51 47  1  6  0  0  0
 51 42  1  0  0  0  0
 51 43  1  0  0  0  0
 52 41  1  1  0  0  0
 52 51  1  0  0  0  0
 55 54  1  0  0  0  0
 56 55  1  0  0  0  0
M  END
>  <MODEL>
7

>  <REMARK>
 VINA RESULT:      -5.5      2.181      3.792
  Name = 
  18 active torsions:
  status: ('A' for Active; 'I' for Inactive)
    1  A    between atoms: C_5  and  C_31
    2  A    between atoms: N_7  and  C_29
    3  A    between atoms: C_11  and  C_27
    4  A    between atoms: C_12  and  C_33
    5  A    between atoms: C_12  and  N_50
    6  A    between atoms: C_16  and  N_50
    7  A    between atoms: C_16  and  C_53
    8  A    between atoms: C_19  and  C_22
    9  A    between atoms: C_19  and  C_38
   10  A    between atoms: C_22  and  C_37
   11  A    between atoms: C_25  and  C_37
   12  A    between atoms: C_27  and  C_41
   13  A    between atoms: C_31  and  C_52
   14  A    between atoms: C_32  and  C_37
   15  A    between atoms: C_33  and  C_46
   16  A    between atoms: C_38  and  C_42
   17  A    between atoms: C_47  and  O_56
   18  A    between atoms: C_53  and  O_56
                            x       y       z     vdW  Elec       q    Type
                         _______ _______ _______ _____ _____    ______ ____

>  <TORSDO>
F 18

$$$$
=
 OpenBabel11042419533D

 56 60  0  0  1  0  0  0  0  0999 V2000
  195.8020  175.7480  140.7320 O   0  0  0  0  0  0  0  0  0  0  0  0
  196.6980  173.9110  142.1390 C   0  0  1  0  0  3  0  0  0  0  0  0
  196.9600  172.9920  140.9380 C   0  0  2  0  0  3  0  0  0  0  0  0
  194.6210  172.9950  143.6930 C   0  0  1  0  0  3  0  0  0  0  0  0
  197.9410  172.0540  141.2590 O   0  0  0  0  0  1  0  0  0  0  0  0
  194.2180  174.2960  141.7660 C   0  0  1  0  0  3  0  0  0  0  0  0
  195.5950  174.9630  141.8910 C   0  0  2  0  0  3  0  0  0  0  0  0
  194.0670  173.0310  142.3930 O   0  0  0  0  0  0  0  0  0  0  0  0
  197.3900  173.7310  139.6480 C   0  0  2  0  0  3  0  0  0  0  0  0
  197.1530  176.1270  140.6600 C   0  0  0  0  0  2  0  0  0  0  0  0
  197.9380  175.1720  139.7480 C   0  0  0  0  0  2  0  0  0  0  0  0
  196.4470  173.0020  143.7040 S   0  0  0  0  0  0  0  0  0  0  0  0
  192.8990  173.8090  145.3480 C   0  0  0  0  0  0  0  0  0  0  0  0
  194.0750  174.0260  144.5670 N   0  0  0  0  0  2  0  0  0  0  0  0
  192.2030  172.7710  145.1880 O   0  0  0  0  0  0  0  0  0  0  0  0
  192.5060  174.8060  146.3850 C   0  0  0  0  0  2  0  0  0  0  0  0
  188.8920  175.6870  145.6790 C   0  0  0  0  0  3  0  0  0  0  0  0
  189.0270  176.9210  145.0230 C   0  0  0  0  0  0  0  0  0  0  0  0
  190.0240  175.0030  146.1290 C   0  0  0  0  0  3  0  0  0  0  0  0
  190.3010  177.4700  144.8380 C   0  0  0  0  0  3  0  0  0  0  0  0
  191.4330  176.7860  145.2910 C   0  0  0  0  0  3  0  0  0  0  0  0
  191.2960  175.5530  145.9380 C   0  0  0  0  0  0  0  0  0  0  0  0
  187.8310  177.6830  144.5400 C   0  0  2  0  0  3  0  0  0  0  0  0
  185.5420  177.3880  145.3880 N   0  0  0  0  0  0  0  0  0  0  0  0
  185.8250  178.0320  147.6450 C   0  0  0  0  0  3  0  0  0  0  0  0
  187.0230  178.1050  146.8950 O   0  0  0  0  0  0  0  0  0  0  0  0
  186.7660  177.7290  145.5970 C   0  0  0  0  0  0  0  0  0  0  0  0
  184.7960  177.5220  146.6320 C   0  0  0  0  0  3  0  0  0  0  0  0
  187.3190  177.1290  143.2150 C   0  0  0  0  0  2  0  0  0  0  0  0
  187.0230  178.2580  142.2430 C   0  0  0  0  0  2  0  0  0  0  0  0
  185.5760  178.1880  141.7840 C   0  0  0  0  0  2  0  0  0  0  0  0
  186.7700  177.5210  139.7560 N   0  0  0  0  0  1  0  0  0  0  0  0
  185.4770  177.9080  140.2900 C   0  0  0  0  0  2  0  0  0  0  0  0
  196.7110  172.1070  137.7940 C   0  0  0  0  0  1  0  0  0  0  0  0
  196.5140  173.4860  138.4130 C   0  0  2  0  0  3  0  0  0  0  0  0
  196.6480  174.5990  137.3720 C   0  0  1  0  0  3  0  0  0  0  0  0
  197.1920  174.0980  136.1790 O   0  0  0  0  0  1  0  0  0  0  0  0
  195.3400  175.2000  137.1210 N   0  0  0  0  0  2  0  0  0  0  0  0
  194.8600  174.7480  135.8230 C   0  0  0  0  0  2  0  0  0  0  0  0
  193.4970  174.0850  135.9530 C   0  0  0  0  0  2  0  0  0  0  0  0
  193.5020  173.0940  136.9470 O   0  0  0  0  0  0  0  0  0  0  0  0
  190.6270  170.7840  137.8040 C   0  0  0  0  0  0  0  0  0  0  0  0
  192.7470  171.1410  138.8500 O   0  0  0  0  0  1  0  0  0  0  0  0
  191.4520  173.7650  138.0480 C   0  0  0  0  0  2  0  0  0  0  0  0
  189.5520  171.0260  136.7680 C   0  0  0  0  0  2  0  0  0  0  0  0
  189.2770  173.5270  137.3980 C   0  0  1  0  0  3  0  0  0  0  0  0
  192.7340  170.3500  136.6180 C   0  0  0  0  0  1  0  0  0  0  0  0
  190.3240  170.1330  138.7930 O   0  0  0  0  0  0  0  0  0  0  0  0
  190.1790  173.3350  138.4630 O   0  0  0  0  0  0  0  0  0  0  0  0
  189.4460  172.4770  136.2840 C   0  0  0  0  0  2  0  0  0  0  0  0
  192.0640  171.2600  137.6350 C   0  0  1  0  0  0  0  0  0  0  0  0
  192.1630  172.7260  137.1480 C   0  0  2  0  0  3  0  0  0  0  0  0
  187.9730  173.4790  137.8840 O   0  0  0  0  0  1  0  0  0  0  0  0
  193.0720  175.2540  142.0730 C   0  0  0  0  0  2  0  0  0  0  0  0
  191.7640  174.7300  141.5050 C   0  0  0  0  0  2  0  0  0  0  0  0
  191.1250  173.9230  142.4490 O   0  0  0  0  0  1  0  0  0  0  0  0
  2 12  1  1  0  0  0
  3  5  1  1  0  0  0
  3  2  1  0  0  0  0
  4 12  1  0  0  0  0
  4 14  1  1  0  0  0
  6  7  1  0  0  0  0
  6 54  1  1  0  0  0
  6  8  1  0  0  0  0
  7  1  1  6  0  0  0
  7  2  1  0  0  0  0
  8  4  1  0  0  0  0
  9 35  1  6  0  0  0
  9 11  1  0  0  0  0
  9  3  1  0  0  0  0
 10  1  1  0  0  0  0
 11 10  1  0  0  0  0
 13 16  1  0  0  0  0
 14 13  1  0  0  0  0
 15 13  2  0  0  0  0
 17 19  1  0  0  0  0
 18 17  2  0  0  0  0
 20 18  1  0  0  0  0
 20 21  2  0  0  0  0
 21 22  1  0  0  0  0
 22 19  2  0  0  0  0
 22 16  1  0  0  0  0
 23 29  1  6  0  0  0
 23 18  1  0  0  0  0
 23 27  1  0  0  0  0
 24 27  2  0  0  0  0
 24 28  1  0  0  0  0
 26 25  1  0  0  0  0
 27 26  1  0  0  0  0
 28 25  2  0  0  0  0
 30 29  1  0  0  0  0
 31 30  1  0  0  0  0
 32 33  1  0  0  0  0
 33 31  1  0  0  0  0
 35 34  1  6  0  0  0
 36 37  1  6  0  0  0
 36 35  1  0  0  0  0
 38 36  1  0  0  0  0
 39 40  1  0  0  0  0
 39 38  1  0  0  0  0
 40 41  1  0  0  0  0
 42 48  2  0  0  0  0
 44 49  1  0  0  0  0
 45 42  1  0  0  0  0
 46 53  1  1  0  0  0
 46 49  1  0  0  0  0
 50 45  1  0  0  0  0
 50 46  1  0  0  0  0
 51 47  1  6  0  0  0
 51 42  1  0  0  0  0
 51 43  1  0  0  0  0
 52 41  1  1  0  0  0
 52 51  1  0  0  0  0
 52 44  1  0  0  0  0
 55 54  1  0  0  0  0
 55 56  1  0  0  0  0
M  END
>  <MODEL>
8

>  <REMARK>
 VINA RESULT:      -5.4      2.450      4.092
  Name = 
  18 active torsions:
  status: ('A' for Active; 'I' for Inactive)
    1  A    between atoms: C_5  and  C_31
    2  A    between atoms: N_7  and  C_29
    3  A    between atoms: C_11  and  C_27
    4  A    between atoms: C_12  and  C_33
    5  A    between atoms: C_12  and  N_50
    6  A    between atoms: C_16  and  N_50
    7  A    between atoms: C_16  and  C_53
    8  A    between atoms: C_19  and  C_22
    9  A    between atoms: C_19  and  C_38
   10  A    between atoms: C_22  and  C_37
   11  A    between atoms: C_25  and  C_37
   12  A    between atoms: C_27  and  C_41
   13  A    between atoms: C_31  and  C_52
   14  A    between atoms: C_32  and  C_37
   15  A    between atoms: C_33  and  C_46
   16  A    between atoms: C_38  and  C_42
   17  A    between atoms: C_47  and  O_56
   18  A    between atoms: C_53  and  O_56
                            x       y       z     vdW  Elec       q    Type
                         _______ _______ _______ _____ _____    ______ ____

>  <TORSDO>
F 18

$$$$
=
 OpenBabel11042419533D

 56 60  0  0  1  0  0  0  0  0999 V2000
  193.1180  173.5640  142.0100 O   0  0  0  0  0  0  0  0  0  0  0  0
  194.3120  175.6010  142.7730 C   0  0  1  0  0  3  0  0  0  0  0  0
  195.5460  175.3170  141.9060 C   0  0  2  0  0  3  0  0  0  0  0  0
  194.8450  175.2700  145.4520 C   0  0  1  0  0  3  0  0  0  0  0  0
  196.2400  176.5020  141.6610 O   0  0  0  0  0  1  0  0  0  0  0  0
  194.2840  173.4300  144.0860 C   0  0  1  0  0  3  0  0  0  0  0  0
  193.4970  174.3390  143.1320 C   0  0  2  0  0  3  0  0  0  0  0  0
  195.2830  174.0550  144.8770 O   0  0  0  0  0  0  0  0  0  0  0  0
  195.2340  174.6400  140.5500 C   0  0  2  0  0  3  0  0  0  0  0  0
  192.6690  174.4140  140.9860 C   0  0  0  0  0  2  0  0  0  0  0  0
  193.7980  174.7040  139.9850 C   0  0  0  0  0  2  0  0  0  0  0  0
  194.6790  176.6270  144.2410 S   0  0  0  0  0  0  0  0  0  0  0  0
  193.1330  176.1670  147.0740 C   0  0  0  0  0  0  0  0  0  0  0  0
  193.6370  175.1130  146.2510 N   0  0  0  0  0  2  0  0  0  0  0  0
  193.8050  177.2160  147.2590 O   0  0  0  0  0  0  0  0  0  0  0  0
  191.7850  176.0360  147.6970 C   0  0  0  0  0  2  0  0  0  0  0  0
  188.5480  175.6390  145.7720 C   0  0  0  0  0  3  0  0  0  0  0  0
  188.7750  176.4750  144.6680 C   0  0  0  0  0  0  0  0  0  0  0  0
  189.5250  175.5020  146.7620 C   0  0  0  0  0  3  0  0  0  0  0  0
  189.9770  177.1860  144.5730 C   0  0  0  0  0  3  0  0  0  0  0  0
  190.9530  177.0500  145.5650 C   0  0  0  0  0  3  0  0  0  0  0  0
  190.7280  176.2100  146.6610 C   0  0  0  0  0  0  0  0  0  0  0  0
  187.7420  176.6510  143.5980 C   0  0  2  0  0  3  0  0  0  0  0  0
  187.8340  176.0250  141.2220 N   0  0  0  0  0  0  0  0  0  0  0  0
  188.5840  173.7890  141.3870 C   0  0  0  0  0  3  0  0  0  0  0  0
  188.4380  174.4180  142.6470 O   0  0  0  0  0  0  0  0  0  0  0  0
  187.9870  175.7040  142.4590 C   0  0  0  0  0  0  0  0  0  0  0  0
  188.1910  174.8830  140.3910 C   0  0  0  0  0  3  0  0  0  0  0  0
  187.6550  178.1040  143.1450 C   0  0  0  0  0  2  0  0  0  0  0  0
  186.3170  178.7070  143.5350 C   0  0  0  0  0  2  0  0  0  0  0  0
  185.6880  177.9030  144.6610 C   0  0  0  0  0  2  0  0  0  0  0  0
  184.2120  178.2600  146.5780 N   0  0  0  0  0  1  0  0  0  0  0  0
  184.4140  178.5620  145.1730 C   0  0  0  0  0  2  0  0  0  0  0  0
  196.7700  172.8160  141.4740 C   0  0  0  0  0  1  0  0  0  0  0  0
  195.9430  173.3050  140.2900 C   0  0  2  0  0  3  0  0  0  0  0  0
  196.7580  173.3190  138.9960 C   0  0  1  0  0  3  0  0  0  0  0  0
  197.9410  174.0550  139.1640 O   0  0  0  0  0  1  0  0  0  0  0  0
  197.0660  171.9490  138.5920 N   0  0  0  0  0  2  0  0  0  0  0  0
  196.4150  171.6800  137.3180 C   0  0  0  0  0  2  0  0  0  0  0  0
  195.0740  170.9920  137.5310 C   0  0  0  0  0  2  0  0  0  0  0  0
  194.0050  171.8720  137.3010 O   0  0  0  0  0  0  0  0  0  0  0  0
  190.4090  170.7750  137.7430 C   0  0  0  0  0  0  0  0  0  0  0  0
  191.9530  170.4760  135.9430 O   0  0  0  0  0  1  0  0  0  0  0  0
  193.2740  169.9830  138.6290 C   0  0  0  0  0  2  0  0  0  0  0  0
  189.9720  171.2560  139.1090 C   0  0  0  0  0  2  0  0  0  0  0  0
  191.7820  169.8760  140.3530 C   0  0  1  0  0  3  0  0  0  0  0  0
  191.3640  172.6910  136.5380 C   0  0  0  0  0  1  0  0  0  0  0  0
  189.6860  169.9760  137.1660 O   0  0  0  0  0  0  0  0  0  0  0  0
  192.1520  169.2950  139.1250 O   0  0  0  0  0  0  0  0  0  0  0  0
  191.0730  171.2320  140.1760 C   0  0  0  0  0  2  0  0  0  0  0  0
  191.6610  171.2880  137.0440 C   0  0  1  0  0  0  0  0  0  0  0  0
  192.8970  171.3340  137.9740 C   0  0  2  0  0  3  0  0  0  0  0  0
  190.9440  169.0020  141.0420 O   0  0  0  0  0  1  0  0  0  0  0  0
  193.3800  172.5020  144.8910 C   0  0  0  0  0  2  0  0  0  0  0  0
  193.7280  171.0470  144.6260 C   0  0  0  0  0  2  0  0  0  0  0  0
  194.9710  170.9640  143.9930 O   0  0  0  0  0  1  0  0  0  0  0  0
  2  7  1  0  0  0  0
  2 12  1  1  0  0  0
  3  5  1  6  0  0  0
  3  2  1  0  0  0  0
  4 14  1  6  0  0  0
  6  8  1  0  0  0  0
  6 54  1  1  0  0  0
  7  1  1  6  0  0  0
  7  6  1  0  0  0  0
  8  4  1  0  0  0  0
  9 35  1  1  0  0  0
  9  3  1  0  0  0  0
 10  1  1  0  0  0  0
 11  9  1  0  0  0  0
 11 10  1  0  0  0  0
 12  4  1  0  0  0  0
 13 15  2  0  0  0  0
 13 16  1  0  0  0  0
 14 13  1  0  0  0  0
 17 19  1  0  0  0  0
 18 17  2  0  0  0  0
 20 18  1  0  0  0  0
 20 21  2  0  0  0  0
 21 22  1  0  0  0  0
 22 19  2  0  0  0  0
 22 16  1  0  0  0  0
 23 29  1  6  0  0  0
 23 18  1  0  0  0  0
 24 27  2  0  0  0  0
 25 26  1  0  0  0  0
 27 26  1  0  0  0  0
 27 23  1  0  0  0  0
 28 24  1  0  0  0  0
 28 25  2  0  0  0  0
 29 30  1  0  0  0  0
 30 31  1  0  0  0  0
 31 33  1  0  0  0  0
 33 32  1  0  0  0  0
 35 34  1  1  0  0  0
 36 37  1  1  0  0  0
 36 35  1  0  0  0  0
 38 36  1  0  0  0  0
 39 40  1  0  0  0  0
 39 38  1  0  0  0  0
 41 40  1  0  0  0  0
 42 45  1  0  0  0  0
 43 51  1  0  0  0  0
 44 49  1  0  0  0  0
 45 50  1  0  0  0  0
 46 53  1  6  0  0  0
 48 42  2  0  0  0  0
 49 46  1  0  0  0  0
 50 46  1  0  0  0  0
 51 47  1  6  0  0  0
 51 42  1  0  0  0  0
 51 52  1  0  0  0  0
 52 41  1  6  0  0  0
 52 44  1  0  0  0  0
 55 54  1  0  0  0  0
 56 55  1  0  0  0  0
M  END
>  <MODEL>
9

>  <REMARK>
 VINA RESULT:      -5.2      1.810      2.652
  Name = 
  18 active torsions:
  status: ('A' for Active; 'I' for Inactive)
    1  A    between atoms: C_5  and  C_31
    2  A    between atoms: N_7  and  C_29
    3  A    between atoms: C_11  and  C_27
    4  A    between atoms: C_12  and  C_33
    5  A    between atoms: C_12  and  N_50
    6  A    between atoms: C_16  and  N_50
    7  A    between atoms: C_16  and  C_53
    8  A    between atoms: C_19  and  C_22
    9  A    between atoms: C_19  and  C_38
   10  A    between atoms: C_22  and  C_37
   11  A    between atoms: C_25  and  C_37
   12  A    between atoms: C_27  and  C_41
   13  A    between atoms: C_31  and  C_52
   14  A    between atoms: C_32  and  C_37
   15  A    between atoms: C_33  and  C_46
   16  A    between atoms: C_38  and  C_42
   17  A    between atoms: C_47  and  O_56
   18  A    between atoms: C_53  and  O_56
                            x       y       z     vdW  Elec       q    Type
                         _______ _______ _______ _____ _____    ______ ____

>  <TORSDO>
F 18

$$$$
