=
 OpenBabel11042414473D

 28 29  0  0  1  0  0  0  0  0999 V2000
  190.1490  177.9000  144.3660 C   0  0  2  0  0  3  0  0  0  0  0  0
  189.3530  177.7810  143.1560 N   0  0  0  0  0  2  0  0  0  0  0  0
  188.0270  177.5890  143.5660 N   0  0  0  0  0  2  0  0  0  0  0  0
  185.8130  176.8120  143.2000 N   0  0  0  0  0  0  0  0  0  0  0  0
  187.0400  176.9090  142.7750 C   0  0  0  0  0  0  0  0  0  0  0  0
  184.0350  179.0950  143.3490 N   0  0  0  0  0  1  0  0  0  0  0  0
  184.7670  177.6680  146.7100 N   0  0  0  0  0  0  0  0  0  0  0  0
  185.5290  176.8080  145.7970 C   0  0  0  0  0  3  0  0  0  0  0  0
  184.0880  178.6650  145.8750 C   0  0  0  0  0  2  0  0  0  0  0  0
  184.4760  178.3590  144.4850 C   0  0  0  0  0  0  0  0  0  0  0  0
  185.2770  177.3280  144.4300 C   0  0  0  0  0  0  0  0  0  0  0  0
  188.0120  175.0300  141.4170 N   0  0  0  0  0  1  0  0  0  0  0  0
  187.1030  176.9070  140.3570 N   0  0  0  0  0  2  0  0  0  0  0  0
  187.3690  176.3000  141.4650 C   0  0  0  0  0  0  0  0  0  0  0  0
  191.1890  176.7810  144.4280 C   0  0  1  0  0  3  0  0  0  0  0  0
  190.7800  174.3990  143.6800 C   0  0  0  0  0  1  0  0  0  0  0  0
  191.0650  175.8260  143.2370 C   0  0  0  0  0  2  0  0  0  0  0  0
  192.5020  177.3310  144.4940 O   0  0  0  0  0  0  0  0  0  0  0  0
  194.7570  176.2350  144.1230 C   0  0  0  0  0  3  0  0  0  0  0  0
  194.9670  175.4040  146.1880 C   0  0  0  0  0  2  0  0  0  0  0  0
  193.6990  176.1190  146.1150 N   0  0  0  0  0  0  0  0  0  0  0  0
  193.6020  176.5870  144.9220 C   0  0  0  0  0  0  0  0  0  0  0  0
  195.5580  175.5430  144.8590 N   0  0  0  0  0  0  0  0  0  0  0  0
  189.2730  177.8270  145.5260 N   0  0  0  0  0  2  0  0  0  0  0  0
  190.3170  177.3870  147.5650 O   0  0  0  0  0  1  0  0  0  0  0  0
  189.8010  176.7980  146.4100 C   0  0  1  0  0  3  0  0  0  0  0  0
  188.7190  175.7810  146.7710 C   0  0  0  0  0  2  0  0  0  0  0  0
  189.3130  174.4930  147.3180 C   0  0  0  0  0  1  0  0  0  0  0  0
  1  2  1  6  0  0  0
  1 15  1  0  0  0  0
  1 24  1  0  0  0  0
  2  3  1  0  0  0  0
  4 11  1  0  0  0  0
  5  4  2  0  0  0  0
  5  3  1  0  0  0  0
  6 10  1  0  0  0  0
  8  7  2  0  0  0  0
  9  7  1  0  0  0  0
 10  9  1  0  0  0  0
 11 10  2  0  0  0  0
 11  8  1  0  0  0  0
 12 14  1  0  0  0  0
 13 14  2  0  0  0  0
 14  5  1  0  0  0  0
 15 17  1  6  0  0  0
 15 18  1  0  0  0  0
 17 16  1  0  0  0  0
 18 22  1  0  0  0  0
 19 23  2  0  0  0  0
 19 22  1  0  0  0  0
 21 20  1  0  0  0  0
 22 21  2  0  0  0  0
 23 20  1  0  0  0  0
 24 26  1  0  0  0  0
 26 27  1  0  0  0  0
 26 25  1  1  0  0  0
 27 28  1  0  0  0  0
M  END
>  <MODEL>
1

>  <REMARK>
 VINA RESULT:      -5.9      0.000      0.000
  Name = 
  11 active torsions:
  status: ('A' for Active; 'I' for Inactive)
    1  A    between atoms: O_5  and  C_16
    2  A    between atoms: O_5  and  C_23
    3  A    between atoms: C_10  and  C_15
    4  A    between atoms: C_10  and  N_22
    5  A    between atoms: N_11  and  C_14
    6  A    between atoms: N_11  and  N_17
    7  A    between atoms: C_13  and  C_16
    8  A    between atoms: C_14  and  C_16
    9  A    between atoms: C_14  and  N_22
   10  A    between atoms: N_20  and  C_26
   11  A    between atoms: C_24  and  C_27
                            x       y       z     vdW  Elec       q    Type
                         _______ _______ _______ _____ _____    ______ ____

>  <TORSDO>
F 11

$$$$
=
 OpenBabel11042414473D

 28 29  0  0  1  0  0  0  0  0999 V2000
  188.5840  176.6860  144.3720 C   0  0  2  0  0  3  0  0  0  0  0  0
  189.3890  175.9970  143.3760 N   0  0  0  0  0  2  0  0  0  0  0  0
  190.6460  175.7800  143.9560 N   0  0  0  0  0  2  0  0  0  0  0  0
  192.3860  174.3510  144.7110 N   0  0  0  0  0  0  0  0  0  0  0  0
  191.2340  174.4800  144.1170 C   0  0  0  0  0  0  0  0  0  0  0  0
  194.4890  175.7030  143.2450 N   0  0  0  0  0  1  0  0  0  0  0  0
  194.1500  176.9950  146.7210 N   0  0  0  0  0  0  0  0  0  0  0  0
  193.1160  175.9580  146.6370 C   0  0  0  0  0  2  0  0  0  0  0  0
  194.8140  177.0300  145.4130 C   0  0  0  0  0  3  0  0  0  0  0  0
  194.1450  176.0020  144.5940 C   0  0  0  0  0  0  0  0  0  0  0  0
  193.1990  175.3990  145.2650 C   0  0  0  0  0  0  0  0  0  0  0  0
  189.7620  172.4800  144.5090 N   0  0  0  0  0  1  0  0  0  0  0  0
  190.7170  172.8510  142.4060 N   0  0  0  0  0  2  0  0  0  0  0  0
  190.5680  173.2520  143.6240 C   0  0  0  0  0  0  0  0  0  0  0  0
  187.6610  177.7000  143.6970 C   0  0  1  0  0  3  0  0  0  0  0  0
  186.9230  177.7770  141.2780 C   0  0  0  0  0  1  0  0  0  0  0  0
  188.0790  177.9700  142.2480 C   0  0  0  0  0  2  0  0  0  0  0  0
  186.3100  177.2490  143.7520 O   0  0  0  0  0  0  0  0  0  0  0  0
  184.5860  178.8740  144.6520 C   0  0  0  0  0  3  0  0  0  0  0  0
  184.2430  177.8160  146.5910 C   0  0  0  0  0  2  0  0  0  0  0  0
  185.2360  177.0640  145.8360 N   0  0  0  0  0  0  0  0  0  0  0  0
  185.4150  177.6900  144.7280 C   0  0  0  0  0  0  0  0  0  0  0  0
  183.8990  178.9520  145.7400 N   0  0  0  0  0  0  0  0  0  0  0  0
  189.4630  177.3650  145.3120 N   0  0  0  0  0  2  0  0  0  0  0  0
  188.1140  177.9610  147.1190 O   0  0  0  0  0  1  0  0  0  0  0  0
  189.0250  177.0120  146.6550 C   0  0  1  0  0  3  0  0  0  0  0  0
  188.3960  175.6200  146.6750 C   0  0  0  0  0  2  0  0  0  0  0  0
  189.2760  174.6120  147.3980 C   0  0  0  0  0  1  0  0  0  0  0  0
  1  2  1  6  0  0  0
  1 24  1  0  0  0  0
  2  3  1  0  0  0  0
  3  5  1  0  0  0  0
  4 11  1  0  0  0  0
  5  4  2  0  0  0  0
  6 10  1  0  0  0  0
  8  7  1  0  0  0  0
  9  7  2  0  0  0  0
 10 11  2  0  0  0  0
 10  9  1  0  0  0  0
 11  8  1  0  0  0  0
 13 14  2  0  0  0  0
 14  5  1  0  0  0  0
 14 12  1  0  0  0  0
 15 17  1  6  0  0  0
 15 18  1  0  0  0  0
 15  1  1  0  0  0  0
 16 17  1  0  0  0  0
 18 22  1  0  0  0  0
 19 22  1  0  0  0  0
 19 23  2  0  0  0  0
 21 20  1  0  0  0  0
 22 21  2  0  0  0  0
 23 20  1  0  0  0  0
 24 26  1  0  0  0  0
 26 27  1  0  0  0  0
 26 25  1  6  0  0  0
 27 28  1  0  0  0  0
M  END
>  <MODEL>
2

>  <REMARK>
 VINA RESULT:      -5.8      2.049      6.945
  Name = 
  11 active torsions:
  status: ('A' for Active; 'I' for Inactive)
    1  A    between atoms: O_5  and  C_16
    2  A    between atoms: O_5  and  C_23
    3  A    between atoms: C_10  and  C_15
    4  A    between atoms: C_10  and  N_22
    5  A    between atoms: N_11  and  C_14
    6  A    between atoms: N_11  and  N_17
    7  A    between atoms: C_13  and  C_16
    8  A    between atoms: C_14  and  C_16
    9  A    between atoms: C_14  and  N_22
   10  A    between atoms: N_20  and  C_26
   11  A    between atoms: C_24  and  C_27
                            x       y       z     vdW  Elec       q    Type
                         _______ _______ _______ _____ _____    ______ ____

>  <TORSDO>
F 11

$$$$
=
 OpenBabel11042414473D

 28 29  0  0  1  0  0  0  0  0999 V2000
  190.6130  177.0750  144.2740 C   0  0  2  0  0  3  0  0  0  0  0  0
  189.7780  177.6610  143.2390 N   0  0  0  0  0  2  0  0  0  0  0  0
  188.4590  177.6090  143.7110 N   0  0  0  0  0  2  0  0  0  0  0  0
  186.1340  177.2490  143.3940 N   0  0  0  0  0  0  0  0  0  0  0  0
  187.3380  177.2260  142.8990 C   0  0  0  0  0  0  0  0  0  0  0  0
  185.4050  179.9510  144.1450 N   0  0  0  0  0  1  0  0  0  0  0  0
  185.2310  177.6000  147.0270 N   0  0  0  0  0  0  0  0  0  0  0  0
  185.6600  176.7480  145.9130 C   0  0  0  0  0  3  0  0  0  0  0  0
  185.0750  178.9530  146.4820 C   0  0  0  0  0  2  0  0  0  0  0  0
  185.4220  178.8530  145.0520 C   0  0  0  0  0  0  0  0  0  0  0  0
  185.7480  177.6310  144.7250 C   0  0  0  0  0  0  0  0  0  0  0  0
  187.1080  177.6710  140.4360 N   0  0  0  0  0  2  0  0  0  0  0  0
  187.9770  175.6350  141.1930 N   0  0  0  0  0  1  0  0  0  0  0  0
  187.5010  176.7990  141.4900 C   0  0  0  0  0  0  0  0  0  0  0  0
  191.5370  176.0160  143.6720 C   0  0  1  0  0  3  0  0  0  0  0  0
  193.4150  175.2000  145.1580 C   0  0  0  0  0  1  0  0  0  0  0  0
  192.9910  176.2180  144.1090 C   0  0  0  0  0  2  0  0  0  0  0  0
  191.0850  174.7110  144.0240 O   0  0  0  0  0  0  0  0  0  0  0  0
  189.4040  172.9620  143.2900 C   0  0  0  0  0  3  0  0  0  0  0  0
  190.2080  172.7020  141.2210 C   0  0  0  0  0  2  0  0  0  0  0  0
  191.0240  173.6990  141.9010 N   0  0  0  0  0  0  0  0  0  0  0  0
  190.5420  173.8310  143.0860 C   0  0  0  0  0  0  0  0  0  0  0  0
  189.2040  172.2990  142.2030 N   0  0  0  0  0  0  0  0  0  0  0  0
  189.7640  176.4710  145.2910 N   0  0  0  0  0  2  0  0  0  0  0  0
  189.5980  177.7650  147.2240 O   0  0  0  0  0  1  0  0  0  0  0  0
  190.3500  176.7770  146.5890 C   0  0  1  0  0  3  0  0  0  0  0  0
  190.4260  175.5260  147.4620 C   0  0  0  0  0  2  0  0  0  0  0  0
  189.2240  174.6180  147.2560 C   0  0  0  0  0  1  0  0  0  0  0  0
  1  2  1  6  0  0  0
  1 24  1  0  0  0  0
  2  3  1  0  0  0  0
  4 11  1  0  0  0  0
  5  4  2  0  0  0  0
  5  3  1  0  0  0  0
  6 10  1  0  0  0  0
  8  7  2  0  0  0  0
  9  7  1  0  0  0  0
 10  9  1  0  0  0  0
 11 10  2  0  0  0  0
 11  8  1  0  0  0  0
 12 14  2  0  0  0  0
 13 14  1  0  0  0  0
 14  5  1  0  0  0  0
 15 18  1  0  0  0  0
 15 17  1  1  0  0  0
 15  1  1  0  0  0  0
 17 16  1  0  0  0  0
 20 21  1  0  0  0  0
 20 23  1  0  0  0  0
 21 22  2  0  0  0  0
 22 19  1  0  0  0  0
 22 18  1  0  0  0  0
 23 19  2  0  0  0  0
 24 26  1  0  0  0  0
 26 25  1  1  0  0  0
 26 27  1  0  0  0  0
 28 27  1  0  0  0  0
M  END
>  <MODEL>
3

>  <REMARK>
 VINA RESULT:      -5.7      1.718      3.024
  Name = 
  11 active torsions:
  status: ('A' for Active; 'I' for Inactive)
    1  A    between atoms: O_5  and  C_16
    2  A    between atoms: O_5  and  C_23
    3  A    between atoms: C_10  and  C_15
    4  A    between atoms: C_10  and  N_22
    5  A    between atoms: N_11  and  C_14
    6  A    between atoms: N_11  and  N_17
    7  A    between atoms: C_13  and  C_16
    8  A    between atoms: C_14  and  C_16
    9  A    between atoms: C_14  and  N_22
   10  A    between atoms: N_20  and  C_26
   11  A    between atoms: C_24  and  C_27
                            x       y       z     vdW  Elec       q    Type
                         _______ _______ _______ _____ _____    ______ ____

>  <TORSDO>
F 11

$$$$
=
 OpenBabel11042414473D

 28 29  0  0  1  0  0  0  0  0999 V2000
  187.4680  177.1330  145.1720 C   0  0  2  0  0  3  0  0  0  0  0  0
  188.4360  177.6910  144.2420 N   0  0  0  0  0  2  0  0  0  0  0  0
  188.9480  176.6150  143.5040 N   0  0  0  0  0  2  0  0  0  0  0  0
  190.7440  175.4270  142.5040 N   0  0  0  0  0  0  0  0  0  0  0  0
  190.3460  176.4250  143.2400 C   0  0  0  0  0  0  0  0  0  0  0  0
  190.7810  172.6220  143.2290 N   0  0  0  0  0  1  0  0  0  0  0  0
  188.3640  173.3270  140.4860 N   0  0  0  0  0  0  0  0  0  0  0  0
  188.9430  174.6420  140.7820 C   0  0  0  0  0  3  0  0  0  0  0  0
  189.0030  172.3750  141.4010 C   0  0  0  0  0  2  0  0  0  0  0  0
  189.9470  173.1660  142.2120 C   0  0  0  0  0  0  0  0  0  0  0  0
  189.9210  174.4290  141.8760 C   0  0  0  0  0  0  0  0  0  0  0  0
  192.3580  176.8400  144.6880 N   0  0  0  0  0  1  0  0  0  0  0  0
  191.3960  178.5910  143.4720 N   0  0  0  0  0  2  0  0  0  0  0  0
  191.3770  177.3380  143.7840 C   0  0  0  0  0  0  0  0  0  0  0  0
  186.1010  177.7870  144.9690 C   0  0  1  0  0  3  0  0  0  0  0  0
  184.1110  178.4970  146.3600 C   0  0  0  0  0  1  0  0  0  0  0  0
  185.6270  178.5130  146.2320 C   0  0  0  0  0  2  0  0  0  0  0  0
  186.1450  178.6850  143.8630 O   0  0  0  0  0  0  0  0  0  0  0  0
  183.9640  178.2930  142.6330 C   0  0  0  0  0  3  0  0  0  0  0  0
  184.8550  178.1890  140.5850 C   0  0  0  0  0  2  0  0  0  0  0  0
  185.9350  178.4200  141.5360 N   0  0  0  0  0  0  0  0  0  0  0  0
  185.3980  178.4760  142.7030 C   0  0  0  0  0  0  0  0  0  0  0  0
  183.6420  178.1240  141.3960 N   0  0  0  0  0  0  0  0  0  0  0  0
  187.9280  177.3580  146.5350 N   0  0  0  0  0  2  0  0  0  0  0  0
  190.0240  177.4040  147.5570 O   0  0  0  0  0  1  0  0  0  0  0  0
  189.2100  176.6840  146.6820 C   0  0  1  0  0  3  0  0  0  0  0  0
  189.0200  175.2560  147.1910 C   0  0  0  0  0  2  0  0  0  0  0  0
  189.5860  174.2300  146.2210 C   0  0  0  0  0  1  0  0  0  0  0  0
  1  2  1  6  0  0  0
  1 24  1  0  0  0  0
  3  2  1  0  0  0  0
  4  5  2  0  0  0  0
  5  3  1  0  0  0  0
  5 14  1  0  0  0  0
  7  8  2  0  0  0  0
  7  9  1  0  0  0  0
  8 11  1  0  0  0  0
  9 10  1  0  0  0  0
 10  6  1  0  0  0  0
 11 10  2  0  0  0  0
 11  4  1  0  0  0  0
 13 14  2  0  0  0  0
 14 12  1  0  0  0  0
 15  1  1  0  0  0  0
 15 17  1  1  0  0  0
 17 16  1  0  0  0  0
 18 15  1  0  0  0  0
 19 22  1  0  0  0  0
 20 23  1  0  0  0  0
 20 21  1  0  0  0  0
 21 22  2  0  0  0  0
 22 18  1  0  0  0  0
 23 19  2  0  0  0  0
 24 26  1  0  0  0  0
 26 27  1  0  0  0  0
 26 25  1  1  0  0  0
 28 27  1  0  0  0  0
M  END
>  <MODEL>
4

>  <REMARK>
 VINA RESULT:      -5.7      2.261      6.801
  Name = 
  11 active torsions:
  status: ('A' for Active; 'I' for Inactive)
    1  A    between atoms: O_5  and  C_16
    2  A    between atoms: O_5  and  C_23
    3  A    between atoms: C_10  and  C_15
    4  A    between atoms: C_10  and  N_22
    5  A    between atoms: N_11  and  C_14
    6  A    between atoms: N_11  and  N_17
    7  A    between atoms: C_13  and  C_16
    8  A    between atoms: C_14  and  C_16
    9  A    between atoms: C_14  and  N_22
   10  A    between atoms: N_20  and  C_26
   11  A    between atoms: C_24  and  C_27
                            x       y       z     vdW  Elec       q    Type
                         _______ _______ _______ _____ _____    ______ ____

>  <TORSDO>
F 11

$$$$
=
 OpenBabel11042414473D

 28 29  0  0  1  0  0  0  0  0999 V2000
  187.9180  177.2770  144.4900 C   0  0  2  0  0  3  0  0  0  0  0  0
  189.2490  177.8420  144.6420 N   0  0  0  0  0  2  0  0  0  0  0  0
  190.1540  176.8480  144.2440 N   0  0  0  0  0  2  0  0  0  0  0  0
  191.5600  174.9910  144.7030 N   0  0  0  0  0  0  0  0  0  0  0  0
  190.6850  175.8540  145.1340 C   0  0  0  0  0  0  0  0  0  0  0  0
  194.1430  176.0620  143.9410 N   0  0  0  0  0  1  0  0  0  0  0  0
  192.4090  174.4190  141.0850 N   0  0  0  0  0  0  0  0  0  0  0  0
  191.4680  174.2570  142.1980 C   0  0  0  0  0  2  0  0  0  0  0  0
  193.5690  175.1390  141.6200 C   0  0  0  0  0  3  0  0  0  0  0  0
  193.2710  175.3820  143.0440 C   0  0  0  0  0  0  0  0  0  0  0  0
  192.1050  174.8950  143.3770 C   0  0  0  0  0  0  0  0  0  0  0  0
  190.8670  176.6240  147.5190 N   0  0  0  0  0  1  0  0  0  0  0  0
  189.3780  174.9150  146.9400 N   0  0  0  0  0  2  0  0  0  0  0  0
  190.2670  175.7680  146.5520 C   0  0  0  0  0  0  0  0  0  0  0  0
  187.5100  177.2750  143.0160 C   0  0  1  0  0  3  0  0  0  0  0  0
  187.7280  174.8850  142.2170 C   0  0  0  0  0  1  0  0  0  0  0  0
  186.7690  175.9900  142.6360 C   0  0  0  0  0  2  0  0  0  0  0  0
  186.7100  178.4180  142.7250 O   0  0  0  0  0  0  0  0  0  0  0  0
  185.3080  178.3210  140.6160 C   0  0  0  0  0  3  0  0  0  0  0  0
  183.3300  178.1570  141.6440 C   0  0  0  0  0  2  0  0  0  0  0  0
  184.3660  178.2320  142.6670 N   0  0  0  0  0  0  0  0  0  0  0  0
  185.4910  178.3240  142.0520 C   0  0  0  0  0  0  0  0  0  0  0  0
  184.0460  178.2240  140.3730 N   0  0  0  0  0  0  0  0  0  0  0  0
  186.9710  178.0650  145.2650 N   0  0  0  0  0  2  0  0  0  0  0  0
  186.8930  177.8730  147.5880 O   0  0  0  0  0  1  0  0  0  0  0  0
  186.5410  177.2480  146.3910 C   0  0  1  0  0  3  0  0  0  0  0  0
  185.0330  177.0050  146.3440 C   0  0  0  0  0  2  0  0  0  0  0  0
  184.2470  178.3030  146.4370 C   0  0  0  0  0  1  0  0  0  0  0  0
  1  2  1  6  0  0  0
  1 24  1  0  0  0  0
  3  2  1  0  0  0  0
  3  5  1  0  0  0  0
  4  5  2  0  0  0  0
  5 14  1  0  0  0  0
  7  9  2  0  0  0  0
  7  8  1  0  0  0  0
  8 11  1  0  0  0  0
  9 10  1  0  0  0  0
 10 11  2  0  0  0  0
 10  6  1  0  0  0  0
 11  4  1  0  0  0  0
 14 13  2  0  0  0  0
 14 12  1  0  0  0  0
 15 17  1  1  0  0  0
 15  1  1  0  0  0  0
 16 17  1  0  0  0  0
 18 15  1  0  0  0  0
 19 22  1  0  0  0  0
 20 21  1  0  0  0  0
 22 21  2  0  0  0  0
 22 18  1  0  0  0  0
 23 19  2  0  0  0  0
 23 20  1  0  0  0  0
 24 26  1  0  0  0  0
 26 25  1  1  0  0  0
 27 26  1  0  0  0  0
 27 28  1  0  0  0  0
M  END
>  <MODEL>
5

>  <REMARK>
 VINA RESULT:      -5.7      2.477      7.355
  Name = 
  11 active torsions:
  status: ('A' for Active; 'I' for Inactive)
    1  A    between atoms: O_5  and  C_16
    2  A    between atoms: O_5  and  C_23
    3  A    between atoms: C_10  and  C_15
    4  A    between atoms: C_10  and  N_22
    5  A    between atoms: N_11  and  C_14
    6  A    between atoms: N_11  and  N_17
    7  A    between atoms: C_13  and  C_16
    8  A    between atoms: C_14  and  C_16
    9  A    between atoms: C_14  and  N_22
   10  A    between atoms: N_20  and  C_26
   11  A    between atoms: C_24  and  C_27
                            x       y       z     vdW  Elec       q    Type
                         _______ _______ _______ _____ _____    ______ ____

>  <TORSDO>
F 11

$$$$
=
 OpenBabel11042414473D

 28 29  0  0  1  0  0  0  0  0999 V2000
  189.8320  176.3330  144.6860 C   0  0  2  0  0  3  0  0  0  0  0  0
  189.5920  176.7950  143.3290 N   0  0  0  0  0  2  0  0  0  0  0  0
  189.3880  175.6510  142.5460 N   0  0  0  0  0  2  0  0  0  0  0  0
  188.0750  174.3230  141.0800 N   0  0  0  0  0  0  0  0  0  0  0  0
  188.2170  175.4340  141.7440 C   0  0  0  0  0  0  0  0  0  0  0  0
  189.7170  173.6690  138.7840 N   0  0  0  0  0  1  0  0  0  0  0  0
  190.2440  171.2960  141.6040 N   0  0  0  0  0  0  0  0  0  0  0  0
  189.2420  172.2330  142.1250 C   0  0  0  0  0  2  0  0  0  0  0  0
  190.5580  171.7360  140.2400 C   0  0  0  0  0  3  0  0  0  0  0  0
  189.7220  172.9260  139.9990 C   0  0  0  0  0  0  0  0  0  0  0  0
  188.9870  173.2120  141.0410 C   0  0  0  0  0  0  0  0  0  0  0  0
  187.1880  177.4250  140.6070 N   0  0  0  0  0  2  0  0  0  0  0  0
  186.1620  176.4740  142.4820 N   0  0  0  0  0  1  0  0  0  0  0  0
  187.1410  176.4460  141.6400 C   0  0  0  0  0  0  0  0  0  0  0  0
  188.5490  176.4280  145.5120 C   0  0  1  0  0  3  0  0  0  0  0  0
  189.1560  174.5970  147.1480 C   0  0  0  0  0  1  0  0  0  0  0  0
  188.7910  176.0650  146.9790 C   0  0  0  0  0  2  0  0  0  0  0  0
  187.9910  177.7360  145.4050 O   0  0  0  0  0  0  0  0  0  0  0  0
  185.8890  179.1050  145.0440 C   0  0  0  0  0  3  0  0  0  0  0  0
  184.5280  177.7790  146.2210 C   0  0  0  0  0  2  0  0  0  0  0  0
  185.8660  177.2030  146.2610 N   0  0  0  0  0  0  0  0  0  0  0  0
  186.6280  177.9810  145.5780 C   0  0  0  0  0  0  0  0  0  0  0  0
  184.6610  178.9920  145.4170 N   0  0  0  0  0  0  0  0  0  0  0  0
  190.8740  177.1490  145.2940 N   0  0  0  0  0  2  0  0  0  0  0  0
  193.0030  176.9280  144.3690 O   0  0  0  0  0  1  0  0  0  0  0  0
  192.1040  176.3710  145.2790 C   0  0  1  0  0  3  0  0  0  0  0  0
  192.7290  176.3110  146.6710 C   0  0  0  0  0  2  0  0  0  0  0  0
  194.1680  176.8010  146.6670 C   0  0  0  0  0  1  0  0  0  0  0  0
  1  2  1  6  0  0  0
  1 24  1  0  0  0  0
  1 15  1  0  0  0  0
  3  2  1  0  0  0  0
  4  5  2  0  0  0  0
  5  3  1  0  0  0  0
  6 10  1  0  0  0  0
  7  8  1  0  0  0  0
  9  7  2  0  0  0  0
 10  9  1  0  0  0  0
 10 11  2  0  0  0  0
 11  4  1  0  0  0  0
 11  8  1  0  0  0  0
 12 14  2  0  0  0  0
 14  5  1  0  0  0  0
 14 13  1  0  0  0  0
 15 17  1  1  0  0  0
 17 16  1  0  0  0  0
 18 15  1  0  0  0  0
 18 22  1  0  0  0  0
 19 23  2  0  0  0  0
 19 22  1  0  0  0  0
 20 21  1  0  0  0  0
 22 21  2  0  0  0  0
 23 20  1  0  0  0  0
 26 25  1  6  0  0  0
 26 24  1  0  0  0  0
 26 27  1  0  0  0  0
 28 27  1  0  0  0  0
M  END
>  <MODEL>
6

>  <REMARK>
 VINA RESULT:      -5.7      2.185      6.255
  Name = 
  11 active torsions:
  status: ('A' for Active; 'I' for Inactive)
    1  A    between atoms: O_5  and  C_16
    2  A    between atoms: O_5  and  C_23
    3  A    between atoms: C_10  and  C_15
    4  A    between atoms: C_10  and  N_22
    5  A    between atoms: N_11  and  C_14
    6  A    between atoms: N_11  and  N_17
    7  A    between atoms: C_13  and  C_16
    8  A    between atoms: C_14  and  C_16
    9  A    between atoms: C_14  and  N_22
   10  A    between atoms: N_20  and  C_26
   11  A    between atoms: C_24  and  C_27
                            x       y       z     vdW  Elec       q    Type
                         _______ _______ _______ _____ _____    ______ ____

>  <TORSDO>
F 11

$$$$
=
 OpenBabel11042414473D

 28 29  0  0  1  0  0  0  0  0999 V2000
  189.3580  176.9100  143.1270 C   0  0  2  0  0  3  0  0  0  0  0  0
  189.7140  177.6490  144.3270 N   0  0  0  0  0  2  0  0  0  0  0  0
  188.6470  177.4970  145.2220 N   0  0  0  0  0  2  0  0  0  0  0  0
  187.5910  176.4280  147.0610 N   0  0  0  0  0  0  0  0  0  0  0  0
  188.6400  176.5460  146.2990 C   0  0  0  0  0  0  0  0  0  0  0  0
  187.0940  178.9240  148.4470 N   0  0  0  0  0  1  0  0  0  0  0  0
  184.1730  177.8520  146.4010 N   0  0  0  0  0  0  0  0  0  0  0  0
  185.1620  176.7920  146.1710 C   0  0  0  0  0  3  0  0  0  0  0  0
  184.7990  178.8160  147.3130 C   0  0  0  0  0  2  0  0  0  0  0  0
  186.1470  178.2880  147.5950 C   0  0  0  0  0  0  0  0  0  0  0  0
  186.3600  177.1630  146.9650 C   0  0  0  0  0  0  0  0  0  0  0  0
  189.8530  174.3600  146.0390 N   0  0  0  0  0  2  0  0  0  0  0  0
  190.7760  176.0770  147.3320 N   0  0  0  0  0  1  0  0  0  0  0  0
  189.8040  175.6760  146.5820 C   0  0  0  0  0  0  0  0  0  0  0  0
  190.5590  176.1100  142.6230 C   0  0  1  0  0  3  0  0  0  0  0  0
  193.0880  176.0800  142.6140 C   0  0  0  0  0  1  0  0  0  0  0  0
  191.8370  176.4620  143.3900 C   0  0  0  0  0  2  0  0  0  0  0  0
  190.2910  174.7130  142.7110 O   0  0  0  0  0  0  0  0  0  0  0  0
  188.4120  173.2150  141.9060 C   0  0  0  0  0  3  0  0  0  0  0  0
  189.0120  173.2060  139.7530 C   0  0  0  0  0  2  0  0  0  0  0  0
  189.9650  174.0320  140.4840 N   0  0  0  0  0  0  0  0  0  0  0  0
  189.5990  174.0210  141.7160 C   0  0  0  0  0  0  0  0  0  0  0  0
  188.0650  172.7350  140.7610 N   0  0  0  0  0  0  0  0  0  0  0  0
  188.9200  177.8450  142.1000 N   0  0  0  0  0  2  0  0  0  0  0  0
  187.1490  176.3540  142.3800 O   0  0  0  0  0  1  0  0  0  0  0  0
  187.5070  177.5960  141.8550 C   0  0  1  0  0  3  0  0  0  0  0  0
  186.6440  178.6980  142.4670 C   0  0  0  0  0  2  0  0  0  0  0  0
  185.1860  178.2810  142.5740 C   0  0  0  0  0  1  0  0  0  0  0  0
  1 24  1  6  0  0  0
  1  2  1  0  0  0  0
  2  3  1  0  0  0  0
  3  5  1  0  0  0  0
  5 14  1  0  0  0  0
  5  4  2  0  0  0  0
  7  9  1  0  0  0  0
  8  7  2  0  0  0  0
  8 11  1  0  0  0  0
  9 10  1  0  0  0  0
 10  6  1  0  0  0  0
 11  4  1  0  0  0  0
 11 10  2  0  0  0  0
 12 14  2  0  0  0  0
 14 13  1  0  0  0  0
 15 18  1  0  0  0  0
 15  1  1  0  0  0  0
 15 17  1  1  0  0  0
 16 17  1  0  0  0  0
 20 21  1  0  0  0  0
 20 23  1  0  0  0  0
 21 22  2  0  0  0  0
 22 19  1  0  0  0  0
 22 18  1  0  0  0  0
 23 19  2  0  0  0  0
 26 24  1  0  0  0  0
 26 25  1  1  0  0  0
 26 27  1  0  0  0  0
 27 28  1  0  0  0  0
M  END
>  <MODEL>
7

>  <REMARK>
 VINA RESULT:      -5.6      2.542      5.040
  Name = 
  11 active torsions:
  status: ('A' for Active; 'I' for Inactive)
    1  A    between atoms: O_5  and  C_16
    2  A    between atoms: O_5  and  C_23
    3  A    between atoms: C_10  and  C_15
    4  A    between atoms: C_10  and  N_22
    5  A    between atoms: N_11  and  C_14
    6  A    between atoms: N_11  and  N_17
    7  A    between atoms: C_13  and  C_16
    8  A    between atoms: C_14  and  C_16
    9  A    between atoms: C_14  and  N_22
   10  A    between atoms: N_20  and  C_26
   11  A    between atoms: C_24  and  C_27
                            x       y       z     vdW  Elec       q    Type
                         _______ _______ _______ _____ _____    ______ ____

>  <TORSDO>
F 11

$$$$
=
 OpenBabel11042414473D

 28 29  0  0  1  0  0  0  0  0999 V2000
  189.2930  177.0120  143.9690 C   0  0  2  0  0  3  0  0  0  0  0  0
  190.0460  177.6030  145.0630 N   0  0  0  0  0  2  0  0  0  0  0  0
  191.2870  176.9530  145.0930 N   0  0  0  0  0  2  0  0  0  0  0  0
  192.9850  175.7310  146.2150 N   0  0  0  0  0  0  0  0  0  0  0  0
  191.8010  176.2710  146.2470 C   0  0  0  0  0  0  0  0  0  0  0  0
  194.9440  177.8140  145.7470 N   0  0  0  0  0  1  0  0  0  0  0  0
  195.0990  175.1390  143.1620 N   0  0  0  0  0  0  0  0  0  0  0  0
  194.0210  174.6950  144.0530 C   0  0  0  0  0  2  0  0  0  0  0  0
  195.5960  176.4070  143.7080 C   0  0  0  0  0  3  0  0  0  0  0  0
  194.7870  176.6720  144.9120 C   0  0  0  0  0  0  0  0  0  0  0  0
  193.9080  175.7260  145.1140 C   0  0  0  0  0  0  0  0  0  0  0  0
  190.0460  175.1250  147.6350 N   0  0  0  0  0  2  0  0  0  0  0  0
  191.1880  176.9850  148.4750 N   0  0  0  0  0  1  0  0  0  0  0  0
  191.0200  176.1550  147.5000 C   0  0  0  0  0  0  0  0  0  0  0  0
  187.9490  177.7230  143.8080 C   0  0  1  0  0  3  0  0  0  0  0  0
  186.2740  177.2900  141.9620 C   0  0  0  0  0  1  0  0  0  0  0  0
  187.5970  177.9430  142.3340 C   0  0  0  0  0  2  0  0  0  0  0  0
  186.9200  176.9840  144.4630 O   0  0  0  0  0  0  0  0  0  0  0  0
  184.8670  177.9300  145.6090 C   0  0  0  0  0  3  0  0  0  0  0  0
  185.7910  178.1370  147.6340 C   0  0  0  0  0  2  0  0  0  0  0  0
  186.7960  177.5880  146.7330 N   0  0  0  0  0  0  0  0  0  0  0  0
  186.2420  177.4780  145.5780 C   0  0  0  0  0  0  0  0  0  0  0  0
  184.5990  178.3160  146.8100 N   0  0  0  0  0  0  0  0  0  0  0  0
  189.0770  175.5990  144.2430 N   0  0  0  0  0  2  0  0  0  0  0  0
  190.4530  173.8560  143.5310 O   0  0  0  0  0  1  0  0  0  0  0  0
  189.5740  174.8500  143.0980 C   0  0  1  0  0  3  0  0  0  0  0  0
  188.4220  174.2310  142.3090 C   0  0  0  0  0  2  0  0  0  0  0  0
  188.5670  174.4720  140.8140 C   0  0  0  0  0  1  0  0  0  0  0  0
  1 24  1  1  0  0  0
  1  2  1  0  0  0  0
  2  3  1  0  0  0  0
  3  5  1  0  0  0  0
  4  5  2  0  0  0  0
  5 14  1  0  0  0  0
  7  9  2  0  0  0  0
  7  8  1  0  0  0  0
  8 11  1  0  0  0  0
  9 10  1  0  0  0  0
 10 11  2  0  0  0  0
 10  6  1  0  0  0  0
 11  4  1  0  0  0  0
 14 12  2  0  0  0  0
 14 13  1  0  0  0  0
 15 17  1  6  0  0  0
 15  1  1  0  0  0  0
 15 18  1  0  0  0  0
 16 17  1  0  0  0  0
 18 22  1  0  0  0  0
 19 23  2  0  0  0  0
 21 20  1  0  0  0  0
 22 19  1  0  0  0  0
 22 21  2  0  0  0  0
 23 20  1  0  0  0  0
 26 25  1  1  0  0  0
 26 24  1  0  0  0  0
 27 26  1  0  0  0  0
 28 27  1  0  0  0  0
M  END
>  <MODEL>
8

>  <REMARK>
 VINA RESULT:      -5.6      2.305      7.544
  Name = 
  11 active torsions:
  status: ('A' for Active; 'I' for Inactive)
    1  A    between atoms: O_5  and  C_16
    2  A    between atoms: O_5  and  C_23
    3  A    between atoms: C_10  and  C_15
    4  A    between atoms: C_10  and  N_22
    5  A    between atoms: N_11  and  C_14
    6  A    between atoms: N_11  and  N_17
    7  A    between atoms: C_13  and  C_16
    8  A    between atoms: C_14  and  C_16
    9  A    between atoms: C_14  and  N_22
   10  A    between atoms: N_20  and  C_26
   11  A    between atoms: C_24  and  C_27
                            x       y       z     vdW  Elec       q    Type
                         _______ _______ _______ _____ _____    ______ ____

>  <TORSDO>
F 11

$$$$
=
 OpenBabel11042414473D

 28 29  0  0  1  0  0  0  0  0999 V2000
  187.5890  176.6550  144.7840 C   0  0  2  0  0  3  0  0  0  0  0  0
  187.9660  176.0890  143.4990 N   0  0  0  0  0  2  0  0  0  0  0  0
  189.3000  175.6770  143.6180 N   0  0  0  0  0  2  0  0  0  0  0  0
  191.1020  174.2310  143.0720 N   0  0  0  0  0  0  0  0  0  0  0  0
  189.8660  174.5890  142.8710 C   0  0  0  0  0  0  0  0  0  0  0  0
  192.9440  176.3600  142.3850 N   0  0  0  0  0  1  0  0  0  0  0  0
  193.2850  175.3060  145.9400 N   0  0  0  0  0  0  0  0  0  0  0  0
  192.2210  174.4370  145.4230 C   0  0  0  0  0  2  0  0  0  0  0  0
  193.7000  176.1650  144.8250 C   0  0  0  0  0  3  0  0  0  0  0  0
  192.8610  175.7700  143.6780 C   0  0  0  0  0  0  0  0  0  0  0  0
  192.0350  174.8100  143.9990 C   0  0  0  0  0  0  0  0  0  0  0  0
  188.9160  174.3830  140.5540 N   0  0  0  0  0  2  0  0  0  0  0  0
  188.5280  172.7100  142.1430 N   0  0  0  0  0  1  0  0  0  0  0  0
  189.0840  173.8420  141.8600 C   0  0  0  0  0  0  0  0  0  0  0  0
  186.2830  177.4400  144.6530 C   0  0  1  0  0  3  0  0  0  0  0  0
  184.5080  177.9260  146.3880 C   0  0  0  0  0  1  0  0  0  0  0  0
  185.9400  178.1870  145.9450 C   0  0  0  0  0  2  0  0  0  0  0  0
  186.3610  178.3470  143.5560 O   0  0  0  0  0  0  0  0  0  0  0  0
  184.0040  178.3070  142.6250 C   0  0  0  0  0  3  0  0  0  0  0  0
  184.5930  178.2840  140.4690 C   0  0  0  0  0  2  0  0  0  0  0  0
  185.8110  178.3100  141.2700 N   0  0  0  0  0  0  0  0  0  0  0  0
  185.4460  178.3240  142.5030 C   0  0  0  0  0  0  0  0  0  0  0  0
  183.5010  178.2840  141.4390 N   0  0  0  0  0  0  0  0  0  0  0  0
  188.6510  177.5350  145.2510 N   0  0  0  0  0  2  0  0  0  0  0  0
  189.3910  177.9100  147.4300 O   0  0  0  0  0  1  0  0  0  0  0  0
  189.2220  176.9340  146.4480 C   0  0  1  0  0  3  0  0  0  0  0  0
  188.3340  175.8050  146.9690 C   0  0  0  0  0  2  0  0  0  0  0  0
  189.1360  174.5500  147.2740 C   0  0  0  0  0  1  0  0  0  0  0  0
  1  2  1  6  0  0  0
  1 24  1  0  0  0  0
  2  3  1  0  0  0  0
  4 11  1  0  0  0  0
  5  4  2  0  0  0  0
  5  3  1  0  0  0  0
  6 10  1  0  0  0  0
  8  7  1  0  0  0  0
  9  7  2  0  0  0  0
 10 11  2  0  0  0  0
 10  9  1  0  0  0  0
 11  8  1  0  0  0  0
 12 14  2  0  0  0  0
 14 13  1  0  0  0  0
 14  5  1  0  0  0  0
 15  1  1  0  0  0  0
 15 17  1  1  0  0  0
 17 16  1  0  0  0  0
 18 15  1  0  0  0  0
 20 21  1  0  0  0  0
 20 23  1  0  0  0  0
 21 22  2  0  0  0  0
 22 19  1  0  0  0  0
 22 18  1  0  0  0  0
 23 19  2  0  0  0  0
 24 26  1  0  0  0  0
 26 27  1  0  0  0  0
 26 25  1  1  0  0  0
 27 28  1  0  0  0  0
M  END
>  <MODEL>
9

>  <REMARK>
 VINA RESULT:      -5.5      2.187      6.848
  Name = 
  11 active torsions:
  status: ('A' for Active; 'I' for Inactive)
    1  A    between atoms: O_5  and  C_16
    2  A    between atoms: O_5  and  C_23
    3  A    between atoms: C_10  and  C_15
    4  A    between atoms: C_10  and  N_22
    5  A    between atoms: N_11  and  C_14
    6  A    between atoms: N_11  and  N_17
    7  A    between atoms: C_13  and  C_16
    8  A    between atoms: C_14  and  C_16
    9  A    between atoms: C_14  and  N_22
   10  A    between atoms: N_20  and  C_26
   11  A    between atoms: C_24  and  C_27
                            x       y       z     vdW  Elec       q    Type
                         _______ _______ _______ _____ _____    ______ ____

>  <TORSDO>
F 11

$$$$
