=
 OpenBabel11042418403D

 34 36  0  0  1  0  0  0  0  0999 V2000
  186.5540  178.6250  144.9750 C   0  0  0  0  0  3  0  0  0  0  0  0
  184.9820  178.6520  143.1520 C   0  0  0  0  0  0  0  0  0  0  0  0
  185.0390  178.4770  141.7200 C   0  0  0  0  0  0  0  0  0  0  0  0
  186.2590  178.5060  143.6170 C   0  0  0  0  0  0  0  0  0  0  0  0
  184.1790  179.0400  145.3730 C   0  0  0  0  0  3  0  0  0  0  0  0
  187.1670  178.2310  142.4630 C   0  0  2  0  0  3  0  0  0  0  0  0
  186.2500  178.2380  141.3140 N   0  0  0  0  0  0  0  0  0  0  0  0
  185.4940  178.8970  145.8680 C   0  0  0  0  0  0  0  0  0  0  0  0
  183.9090  178.9190  144.0000 C   0  0  0  0  0  3  0  0  0  0  0  0
  182.7850  177.9740  141.1250 C   0  0  0  0  0  3  0  0  0  0  0  0
  183.9090  178.5530  140.8490 N   0  0  0  0  0  0  0  0  0  0  0  0
  181.7150  178.0810  140.2460 O   0  0  0  0  0  0  0  0  0  0  0  0
  180.6180  178.9320  140.5440 C   0  0  2  0  0  3  0  0  0  0  0  0
  180.8270  179.5590  141.7620 F   0  0  0  0  0  0  0  0  0  0  0  0
  179.2290  177.3280  139.4580 F   0  0  0  0  0  0  0  0  0  0  0  0
  179.3270  178.1280  140.5830 C   0  0  0  0  0  0  0  0  0  0  0  0
  178.2460  178.9880  140.6280 F   0  0  0  0  0  0  0  0  0  0  0  0
  179.3140  177.3310  141.7130 F   0  0  0  0  0  0  0  0  0  0  0  0
  185.7140  179.0300  147.2410 O   0  0  0  0  0  0  0  0  0  0  0  0
  186.1040  177.9400  148.0650 C   0  0  0  0  0  1  0  0  0  0  0  0
  187.8230  176.9240  142.6060 N   0  0  0  0  0  0  0  0  0  0  0  0
  190.0430  177.7100  143.3630 C   0  0  0  0  0  3  0  0  0  0  0  0
  190.1980  175.6240  145.2100 C   0  0  0  0  0  3  0  0  0  0  0  0
  189.0760  175.7470  144.3870 C   0  0  0  0  0  3  0  0  0  0  0  0
  191.1680  177.5850  144.1830 C   0  0  0  0  0  3  0  0  0  0  0  0
  188.9830  176.7940  143.4540 C   0  0  0  0  0  0  0  0  0  0  0  0
  191.2530  176.5430  145.1140 C   0  0  0  0  0  0  0  0  0  0  0  0
  192.2790  176.3130  147.2380 O   0  0  0  0  0  0  0  0  0  0  0  0
  192.4310  176.4170  145.9890 C   0  0  0  0  0  0  0  0  0  0  0  0
  194.6250  177.3160  145.6910 C   0  0  0  0  0  2  0  0  0  0  0  0
  193.7460  176.4070  145.4190 N   0  0  0  0  0  0  0  0  0  0  0  0
  187.2570  175.7440  141.9430 C   0  0  0  0  0  2  0  0  0  0  0  0
  188.1950  175.2060  140.9090 C   0  0  0  0  0  3  0  0  0  0  0  0
  188.6830  174.0260  141.0240 N   0  0  0  0  0  2  0  0  0  0  0  0
  1  8  1  0  0  0  0
  2  4  1  0  0  0  0
  2  9  2  0  0  0  0
  3  2  1  0  0  0  0
  4  1  2  0  0  0  0
  5  8  2  0  0  0  0
  6 21  1  1  0  0  0
  6  4  1  0  0  0  0
  7  3  2  0  0  0  0
  7  6  1  0  0  0  0
  8 19  1  0  0  0  0
  9  5  1  0  0  0  0
 11 10  2  0  0  0  0
 11  3  1  0  0  0  0
 12 13  1  0  0  0  0
 12 10  1  0  0  0  0
 13 16  1  0  0  0  0
 13 14  1  1  0  0  0
 15 16  1  0  0  0  0
 16 17  1  0  0  0  0
 16 18  1  0  0  0  0
 19 20  1  0  0  0  0
 21 26  1  0  0  0  0
 22 26  2  0  0  0  0
 22 25  1  0  0  0  0
 24 23  2  0  0  0  0
 25 27  2  0  0  0  0
 26 24  1  0  0  0  0
 27 23  1  0  0  0  0
 27 29  1  0  0  0  0
 29 28  2  0  0  0  0
 31 30  2  0  0  0  0
 31 29  1  0  0  0  0
 32 21  1  0  0  0  0
 33 34  2  0  0  0  0
 33 32  1  0  0  0  0
M  END
>  <MODEL>
1

>  <REMARK>
 VINA RESULT:      -7.4      0.000      0.000
  Name = 
  11 active torsions:
  status: ('A' for Active; 'I' for Inactive)
    1  A    between atoms: C_1  and  O_11
    2  A    between atoms: N_2  and  C_17
    3  A    between atoms: O_3  and  C_30
    4  A    between atoms: C_8  and  C_9
    5  A    between atoms: C_8  and  O_11
    6  A    between atoms: C_10  and  C_13
    7  A    between atoms: C_10  and  N_21
    8  A    between atoms: N_21  and  C_24
    9  A    between atoms: N_21  and  C_28
   10  A    between atoms: N_22  and  C_26
   11  A    between atoms: C_26  and  C_34
                            x       y       z     vdW  Elec       q    Type
                         _______ _______ _______ _____ _____    ______ ____

>  <TORSDO>
F 11

$$$$
=
 OpenBabel11042418403D

 34 36  0  0  1  0  0  0  0  0999 V2000
  188.0330  174.8510  140.2650 C   0  0  0  0  0  3  0  0  0  0  0  0
  189.3520  175.4190  142.1980 C   0  0  0  0  0  0  0  0  0  0  0  0
  189.6470  176.6180  142.9460 C   0  0  0  0  0  0  0  0  0  0  0  0
  188.5080  175.7840  141.1870 C   0  0  0  0  0  0  0  0  0  0  0  0
  189.3090  173.1430  141.4590 C   0  0  0  0  0  3  0  0  0  0  0  0
  188.2500  177.2530  141.2770 C   0  0  2  0  0  3  0  0  0  0  0  0
  189.0410  177.6540  142.4510 N   0  0  0  0  0  0  0  0  0  0  0  0
  188.4420  173.5060  140.4050 C   0  0  0  0  0  0  0  0  0  0  0  0
  189.7760  174.1030  142.3710 C   0  0  0  0  0  3  0  0  0  0  0  0
  190.1450  177.2510  145.1910 C   0  0  0  0  0  3  0  0  0  0  0  0
  190.4990  176.6670  144.0920 N   0  0  0  0  0  0  0  0  0  0  0  0
  191.0100  177.2680  146.2780 O   0  0  0  0  0  0  0  0  0  0  0  0
  190.5920  176.7740  147.5410 C   0  0  2  0  0  3  0  0  0  0  0  0
  191.2730  177.4340  148.5530 F   0  0  0  0  0  0  0  0  0  0  0  0
  189.6590  174.5810  147.4920 F   0  0  0  0  0  0  0  0  0  0  0  0
  190.8480  175.2760  147.6290 C   0  0  0  0  0  0  0  0  0  0  0  0
  191.4170  174.9740  148.8520 F   0  0  0  0  0  0  0  0  0  0  0  0
  191.7170  174.8970  146.6220 F   0  0  0  0  0  0  0  0  0  0  0  0
  188.0060  172.5170  139.5200 O   0  0  0  0  0  0  0  0  0  0  0  0
  188.7680  172.1070  138.3930 C   0  0  0  0  0  1  0  0  0  0  0  0
  186.8220  177.5280  141.4850 N   0  0  0  0  0  0  0  0  0  0  0  0
  185.9740  176.7420  143.6720 C   0  0  0  0  0  3  0  0  0  0  0  0
  185.7230  179.3740  144.5660 C   0  0  0  0  0  3  0  0  0  0  0  0
  186.1960  179.1160  143.2770 C   0  0  0  0  0  3  0  0  0  0  0  0
  185.4970  177.0000  144.9590 C   0  0  0  0  0  3  0  0  0  0  0  0
  186.3300  177.7960  142.8140 C   0  0  0  0  0  0  0  0  0  0  0  0
  185.3690  178.3180  145.4170 C   0  0  0  0  0  0  0  0  0  0  0  0
  183.7200  178.2200  147.1160 O   0  0  0  0  0  0  0  0  0  0  0  0
  184.8790  178.5910  146.7790 C   0  0  0  0  0  0  0  0  0  0  0  0
  186.8190  178.7490  148.1650 C   0  0  0  0  0  2  0  0  0  0  0  0
  185.7210  179.2690  147.7190 N   0  0  0  0  0  0  0  0  0  0  0  0
  185.9150  177.5990  140.3340 C   0  0  0  0  0  2  0  0  0  0  0  0
  184.7280  178.4560  140.6370 C   0  0  0  0  0  3  0  0  0  0  0  0
  183.5510  178.0850  140.2870 N   0  0  0  0  0  2  0  0  0  0  0  0
  1  8  2  0  0  0  0
  1  4  1  0  0  0  0
  2  9  1  0  0  0  0
  2  3  1  0  0  0  0
  3 11  1  0  0  0  0
  4  6  1  0  0  0  0
  4  2  2  0  0  0  0
  5  9  2  0  0  0  0
  6 21  1  1  0  0  0
  6  7  1  0  0  0  0
  7  3  2  0  0  0  0
  8  5  1  0  0  0  0
 10 12  1  0  0  0  0
 11 10  2  0  0  0  0
 12 13  1  0  0  0  0
 13 16  1  0  0  0  0
 13 14  1  1  0  0  0
 15 16  1  0  0  0  0
 16 17  1  0  0  0  0
 18 16  1  0  0  0  0
 19  8  1  0  0  0  0
 20 19  1  0  0  0  0
 21 26  1  0  0  0  0
 22 25  1  0  0  0  0
 23 27  1  0  0  0  0
 24 23  2  0  0  0  0
 25 27  2  0  0  0  0
 26 24  1  0  0  0  0
 26 22  2  0  0  0  0
 27 29  1  0  0  0  0
 29 28  2  0  0  0  0
 29 31  1  0  0  0  0
 31 30  2  0  0  0  0
 32 33  1  0  0  0  0
 32 21  1  0  0  0  0
 34 33  2  0  0  0  0
M  END
>  <MODEL>
2

>  <REMARK>
 VINA RESULT:      -6.8      5.019      8.515
  Name = 
  11 active torsions:
  status: ('A' for Active; 'I' for Inactive)
    1  A    between atoms: C_1  and  O_11
    2  A    between atoms: N_2  and  C_17
    3  A    between atoms: O_3  and  C_30
    4  A    between atoms: C_8  and  C_9
    5  A    between atoms: C_8  and  O_11
    6  A    between atoms: C_10  and  C_13
    7  A    between atoms: C_10  and  N_21
    8  A    between atoms: N_21  and  C_24
    9  A    between atoms: N_21  and  C_28
   10  A    between atoms: N_22  and  C_26
   11  A    between atoms: C_26  and  C_34
                            x       y       z     vdW  Elec       q    Type
                         _______ _______ _______ _____ _____    ______ ____

>  <TORSDO>
F 11

$$$$
=
 OpenBabel11042418403D

 34 36  0  0  1  0  0  0  0  0999 V2000
  190.3350  173.8370  143.0250 C   0  0  0  0  0  3  0  0  0  0  0  0
  189.0170  175.4500  144.2340 C   0  0  0  0  0  0  0  0  0  0  0  0
  189.0440  176.0470  145.5480 C   0  0  0  0  0  0  0  0  0  0  0  0
  190.0770  174.5890  144.1720 C   0  0  0  0  0  0  0  0  0  0  0  0
  188.3860  174.8890  141.9940 C   0  0  0  0  0  3  0  0  0  0  0  0
  190.8080  174.6250  145.4750 C   0  0  2  0  0  3  0  0  0  0  0  0
  190.0370  175.6020  146.2580 N   0  0  0  0  0  0  0  0  0  0  0  0
  189.4730  173.9910  141.9170 C   0  0  0  0  0  0  0  0  0  0  0  0
  188.1460  175.6320  143.1620 C   0  0  0  0  0  3  0  0  0  0  0  0
  187.2050  176.7230  146.9080 C   0  0  0  0  0  3  0  0  0  0  0  0
  188.0990  177.0100  146.0190 N   0  0  0  0  0  0  0  0  0  0  0  0
  186.3100  177.6970  147.3330 O   0  0  0  0  0  0  0  0  0  0  0  0
  184.9680  177.6950  146.8730 C   0  0  2  0  0  3  0  0  0  0  0  0
  184.5650  176.3970  146.6020 F   0  0  0  0  0  0  0  0  0  0  0  0
  185.7890  179.5620  145.6400 F   0  0  0  0  0  0  0  0  0  0  0  0
  184.8420  178.5530  145.6220 C   0  0  0  0  0  0  0  0  0  0  0  0
  183.5790  179.1130  145.5680 F   0  0  0  0  0  0  0  0  0  0  0  0
  185.0330  177.7670  144.5010 F   0  0  0  0  0  0  0  0  0  0  0  0
  189.6690  173.2710  140.7370 O   0  0  0  0  0  0  0  0  0  0  0  0
  188.6010  172.9090  139.8720 C   0  0  0  0  0  1  0  0  0  0  0  0
  192.1950  175.0730  145.2920 N   0  0  0  0  0  0  0  0  0  0  0  0
  193.0170  172.7430  145.1570 C   0  0  0  0  0  3  0  0  0  0  0  0
  195.6330  173.5960  145.6290 C   0  0  0  0  0  3  0  0  0  0  0  0
  194.5920  174.5270  145.5830 C   0  0  0  0  0  3  0  0  0  0  0  0
  194.0580  171.8120  145.2080 C   0  0  0  0  0  3  0  0  0  0  0  0
  193.2710  174.1120  145.3440 C   0  0  0  0  0  0  0  0  0  0  0  0
  195.3730  172.2310  145.4430 C   0  0  0  0  0  0  0  0  0  0  0  0
  197.6430  171.6070  145.1700 O   0  0  0  0  0  0  0  0  0  0  0  0
  196.4730  171.2510  145.4830 C   0  0  0  0  0  0  0  0  0  0  0  0
  196.5930  169.4340  147.0290 C   0  0  0  0  0  2  0  0  0  0  0  0
  196.2120  169.9010  145.8850 N   0  0  0  0  0  0  0  0  0  0  0  0
  192.4760  176.4800  144.9870 C   0  0  0  0  0  2  0  0  0  0  0  0
  192.6020  176.6960  143.5130 C   0  0  0  0  0  3  0  0  0  0  0  0
  191.7510  177.4220  142.8860 N   0  0  0  0  0  2  0  0  0  0  0  0
  1  4  1  0  0  0  0
  2  3  1  0  0  0  0
  3 11  1  0  0  0  0
  3  7  2  0  0  0  0
  4  2  2  0  0  0  0
  4  6  1  0  0  0  0
  5  9  2  0  0  0  0
  6 21  1  6  0  0  0
  6  7  1  0  0  0  0
  8  5  1  0  0  0  0
  8  1  2  0  0  0  0
  9  2  1  0  0  0  0
 10 12  1  0  0  0  0
 11 10  2  0  0  0  0
 13 14  1  6  0  0  0
 13 12  1  0  0  0  0
 16 15  1  0  0  0  0
 16 13  1  0  0  0  0
 17 16  1  0  0  0  0
 18 16  1  0  0  0  0
 19  8  1  0  0  0  0
 20 19  1  0  0  0  0
 21 26  1  0  0  0  0
 22 25  2  0  0  0  0
 22 26  1  0  0  0  0
 24 23  1  0  0  0  0
 25 27  1  0  0  0  0
 26 24  2  0  0  0  0
 27 29  1  0  0  0  0
 27 23  2  0  0  0  0
 28 29  2  0  0  0  0
 29 31  1  0  0  0  0
 31 30  2  0  0  0  0
 32 21  1  0  0  0  0
 33 32  1  0  0  0  0
 34 33  2  0  0  0  0
M  END
>  <MODEL>
3

>  <REMARK>
 VINA RESULT:      -6.8      4.175      6.860
  Name = 
  11 active torsions:
  status: ('A' for Active; 'I' for Inactive)
    1  A    between atoms: C_1  and  O_11
    2  A    between atoms: N_2  and  C_17
    3  A    between atoms: O_3  and  C_30
    4  A    between atoms: C_8  and  C_9
    5  A    between atoms: C_8  and  O_11
    6  A    between atoms: C_10  and  C_13
    7  A    between atoms: C_10  and  N_21
    8  A    between atoms: N_21  and  C_24
    9  A    between atoms: N_21  and  C_28
   10  A    between atoms: N_22  and  C_26
   11  A    between atoms: C_26  and  C_34
                            x       y       z     vdW  Elec       q    Type
                         _______ _______ _______ _____ _____    ______ ____

>  <TORSDO>
F 11

$$$$
=
 OpenBabel11042418403D

 34 36  0  0  1  0  0  0  0  0999 V2000
  187.6170  175.9130  142.7090 C   0  0  0  0  0  3  0  0  0  0  0  0
  185.8030  177.2180  141.8110 C   0  0  0  0  0  0  0  0  0  0  0  0
  184.6330  177.8820  142.3360 C   0  0  0  0  0  0  0  0  0  0  0  0
  186.4420  176.6460  142.8760 C   0  0  0  0  0  0  0  0  0  0  0  0
  187.4740  176.3800  140.3150 C   0  0  0  0  0  3  0  0  0  0  0  0
  185.6700  176.9430  144.1200 C   0  0  2  0  0  3  0  0  0  0  0  0
  184.5400  177.7430  143.6240 N   0  0  0  0  0  0  0  0  0  0  0  0
  188.1410  175.7790  141.4040 C   0  0  0  0  0  0  0  0  0  0  0  0
  186.2890  177.1090  140.5090 C   0  0  0  0  0  3  0  0  0  0  0  0
  182.4520  178.2450  141.4440 C   0  0  0  0  0  3  0  0  0  0  0  0
  183.6900  178.6050  141.5430 N   0  0  0  0  0  0  0  0  0  0  0  0
  181.5740  178.9850  140.6620 O   0  0  0  0  0  0  0  0  0  0  0  0
  180.2140  178.5970  140.5390 C   0  0  2  0  0  3  0  0  0  0  0  0
  180.0690  177.7250  139.4710 F   0  0  0  0  0  0  0  0  0  0  0  0
  178.5110  179.6420  139.2390 F   0  0  0  0  0  0  0  0  0  0  0  0
  179.3350  179.8230  140.3360 C   0  0  0  0  0  0  0  0  0  0  0  0
  180.1300  180.9350  140.1320 F   0  0  0  0  0  0  0  0  0  0  0  0
  178.5590  180.0260  141.4620 F   0  0  0  0  0  0  0  0  0  0  0  0
  189.3140  175.0600  141.1620 O   0  0  0  0  0  0  0  0  0  0  0  0
  189.8430  174.1200  142.0880 C   0  0  0  0  0  1  0  0  0  0  0  0
  186.4810  177.7110  145.0750 N   0  0  0  0  0  0  0  0  0  0  0  0
  188.9490  177.6800  145.2420 C   0  0  0  0  0  3  0  0  0  0  0  0
  188.8440  175.4990  146.9810 C   0  0  0  0  0  3  0  0  0  0  0  0
  187.6630  176.0450  146.4730 C   0  0  0  0  0  3  0  0  0  0  0  0
  190.1300  177.1310  145.7470 C   0  0  0  0  0  3  0  0  0  0  0  0
  187.7000  177.1440  145.5980 C   0  0  0  0  0  0  0  0  0  0  0  0
  190.0880  176.0390  146.6210 C   0  0  0  0  0  0  0  0  0  0  0  0
  191.4260  175.2270  148.4010 O   0  0  0  0  0  0  0  0  0  0  0  0
  191.3320  175.4680  147.1650 C   0  0  0  0  0  0  0  0  0  0  0  0
  193.5890  175.7380  146.4290 C   0  0  0  0  0  2  0  0  0  0  0  0
  192.4290  175.1820  146.2890 N   0  0  0  0  0  0  0  0  0  0  0  0
  186.0860  179.0770  145.4390 C   0  0  0  0  0  2  0  0  0  0  0  0
  185.6010  179.1380  146.8520 C   0  0  0  0  0  3  0  0  0  0  0  0
  184.5860  178.4480  147.2220 N   0  0  0  0  0  2  0  0  0  0  0  0
  1  4  1  0  0  0  0
  2  3  1  0  0  0  0
  2  4  2  0  0  0  0
  3  7  2  0  0  0  0
  4  6  1  0  0  0  0
  5  9  2  0  0  0  0
  5  8  1  0  0  0  0
  6 21  1  1  0  0  0
  7  6  1  0  0  0  0
  8  1  2  0  0  0  0
  9  2  1  0  0  0  0
 10 11  2  0  0  0  0
 11  3  1  0  0  0  0
 12 10  1  0  0  0  0
 13 14  1  6  0  0  0
 13 12  1  0  0  0  0
 15 16  1  0  0  0  0
 16 13  1  0  0  0  0
 16 18  1  0  0  0  0
 17 16  1  0  0  0  0
 19  8  1  0  0  0  0
 19 20  1  0  0  0  0
 21 32  1  0  0  0  0
 21 26  1  0  0  0  0
 22 26  2  0  0  0  0
 22 25  1  0  0  0  0
 24 23  2  0  0  0  0
 25 27  2  0  0  0  0
 26 24  1  0  0  0  0
 27 23  1  0  0  0  0
 27 29  1  0  0  0  0
 29 28  2  0  0  0  0
 31 30  2  0  0  0  0
 31 29  1  0  0  0  0
 32 33  1  0  0  0  0
 33 34  2  0  0  0  0
M  END
>  <MODEL>
4

>  <REMARK>
 VINA RESULT:      -6.7      2.257      3.894
  Name = 
  11 active torsions:
  status: ('A' for Active; 'I' for Inactive)
    1  A    between atoms: C_1  and  O_11
    2  A    between atoms: N_2  and  C_17
    3  A    between atoms: O_3  and  C_30
    4  A    between atoms: C_8  and  C_9
    5  A    between atoms: C_8  and  O_11
    6  A    between atoms: C_10  and  C_13
    7  A    between atoms: C_10  and  N_21
    8  A    between atoms: N_21  and  C_24
    9  A    between atoms: N_21  and  C_28
   10  A    between atoms: N_22  and  C_26
   11  A    between atoms: C_26  and  C_34
                            x       y       z     vdW  Elec       q    Type
                         _______ _______ _______ _____ _____    ______ ____

>  <TORSDO>
F 11

$$$$
=
 OpenBabel11042418403D

 34 36  0  0  1  0  0  0  0  0999 V2000
  191.5580  176.4520  146.1650 C   0  0  0  0  0  3  0  0  0  0  0  0
  189.4590  176.8320  145.0480 C   0  0  0  0  0  0  0  0  0  0  0  0
  188.9400  176.6610  143.7120 C   0  0  0  0  0  0  0  0  0  0  0  0
  190.7590  176.4100  145.0220 C   0  0  0  0  0  0  0  0  0  0  0  0
  189.6420  177.3640  147.3750 C   0  0  0  0  0  3  0  0  0  0  0  0
  191.0940  175.9560  143.6390 C   0  0  2  0  0  3  0  0  0  0  0  0
  189.8360  176.1710  142.9090 N   0  0  0  0  0  0  0  0  0  0  0  0
  190.9880  176.9380  147.3620 C   0  0  0  0  0  0  0  0  0  0  0  0
  188.8600  177.3160  146.2090 C   0  0  0  0  0  3  0  0  0  0  0  0
  187.1440  178.1920  143.3750 C   0  0  0  0  0  3  0  0  0  0  0  0
  187.6070  176.9860  143.3140 N   0  0  0  0  0  0  0  0  0  0  0  0
  185.8410  178.4560  142.9730 O   0  0  0  0  0  0  0  0  0  0  0  0
  184.9940  179.2780  143.7620 C   0  0  2  0  0  3  0  0  0  0  0  0
  185.5650  180.5320  143.9150 F   0  0  0  0  0  0  0  0  0  0  0  0
  184.9050  177.2650  145.0350 F   0  0  0  0  0  0  0  0  0  0  0  0
  184.7640  178.6390  145.1240 C   0  0  0  0  0  0  0  0  0  0  0  0
  183.4910  178.9400  145.5690 F   0  0  0  0  0  0  0  0  0  0  0  0
  185.6860  179.1350  146.0280 F   0  0  0  0  0  0  0  0  0  0  0  0
  191.7280  177.0080  148.5450 O   0  0  0  0  0  0  0  0  0  0  0  0
  191.4950  177.9990  149.5380 C   0  0  0  0  0  1  0  0  0  0  0  0
  191.4760  174.5380  143.6250 N   0  0  0  0  0  0  0  0  0  0  0  0
  192.8240  173.0480  145.0680 C   0  0  0  0  0  3  0  0  0  0  0  0
  195.1550  174.4190  144.3770 C   0  0  0  0  0  3  0  0  0  0  0  0
  193.9260  174.8140  143.8420 C   0  0  0  0  0  3  0  0  0  0  0  0
  194.0520  172.6540  145.6060 C   0  0  0  0  0  3  0  0  0  0  0  0
  192.7450  174.1320  144.1790 C   0  0  0  0  0  0  0  0  0  0  0  0
  195.2270  173.3350  145.2640 C   0  0  0  0  0  0  0  0  0  0  0  0
  197.1620  173.6890  146.5840 O   0  0  0  0  0  0  0  0  0  0  0  0
  196.5240  172.9130  145.8200 C   0  0  0  0  0  0  0  0  0  0  0  0
  197.7500  171.4050  144.4300 C   0  0  0  0  0  2  0  0  0  0  0  0
  197.0520  171.6210  145.4980 N   0  0  0  0  0  0  0  0  0  0  0  0
  190.5390  173.5320  143.1130 C   0  0  0  0  0  2  0  0  0  0  0  0
  191.0120  172.9700  141.8110 C   0  0  0  0  0  3  0  0  0  0  0  0
  190.2240  172.2720  141.0790 N   0  0  0  0  0  2  0  0  0  0  0  0
  1  8  1  0  0  0  0
  2  9  2  0  0  0  0
  3  2  1  0  0  0  0
  4  2  1  0  0  0  0
  4  1  2  0  0  0  0
  6 21  1  1  0  0  0
  6  4  1  0  0  0  0
  7  6  1  0  0  0  0
  7  3  2  0  0  0  0
  8  5  2  0  0  0  0
  8 19  1  0  0  0  0
  9  5  1  0  0  0  0
 11 10  2  0  0  0  0
 11  3  1  0  0  0  0
 12 10  1  0  0  0  0
 12 13  1  0  0  0  0
 13 14  1  1  0  0  0
 13 16  1  0  0  0  0
 15 16  1  0  0  0  0
 16 17  1  0  0  0  0
 16 18  1  0  0  0  0
 19 20  1  0  0  0  0
 21 26  1  0  0  0  0
 22 25  1  0  0  0  0
 23 27  1  0  0  0  0
 24 26  1  0  0  0  0
 24 23  2  0  0  0  0
 26 22  2  0  0  0  0
 27 25  2  0  0  0  0
 27 29  1  0  0  0  0
 29 28  2  0  0  0  0
 30 31  2  0  0  0  0
 31 29  1  0  0  0  0
 32 21  1  0  0  0  0
 33 32  1  0  0  0  0
 34 33  2  0  0  0  0
M  END
>  <MODEL>
5

>  <REMARK>
 VINA RESULT:      -6.5      3.600      5.548
  Name = 
  11 active torsions:
  status: ('A' for Active; 'I' for Inactive)
    1  A    between atoms: C_1  and  O_11
    2  A    between atoms: N_2  and  C_17
    3  A    between atoms: O_3  and  C_30
    4  A    between atoms: C_8  and  C_9
    5  A    between atoms: C_8  and  O_11
    6  A    between atoms: C_10  and  C_13
    7  A    between atoms: C_10  and  N_21
    8  A    between atoms: N_21  and  C_24
    9  A    between atoms: N_21  and  C_28
   10  A    between atoms: N_22  and  C_26
   11  A    between atoms: C_26  and  C_34
                            x       y       z     vdW  Elec       q    Type
                         _______ _______ _______ _____ _____    ______ ____

>  <TORSDO>
F 11

$$$$
=
 OpenBabel11042418403D

 34 36  0  0  1  0  0  0  0  0999 V2000
  189.2620  173.0170  141.7230 C   0  0  0  0  0  3  0  0  0  0  0  0
  188.9360  174.8390  143.2640 C   0  0  0  0  0  0  0  0  0  0  0  0
  189.2010  175.0850  144.6620 C   0  0  0  0  0  0  0  0  0  0  0  0
  189.3790  173.5730  142.9970 C   0  0  0  0  0  0  0  0  0  0  0  0
  188.2290  175.1080  140.9930 C   0  0  0  0  0  3  0  0  0  0  0  0
  189.9430  172.9830  144.2480 C   0  0  2  0  0  3  0  0  0  0  0  0
  189.7660  174.0630  145.2310 N   0  0  0  0  0  0  0  0  0  0  0  0
  188.6760  173.8000  140.7030 C   0  0  0  0  0  0  0  0  0  0  0  0
  188.3550  175.6420  142.2850 C   0  0  0  0  0  3  0  0  0  0  0  0
  187.6690  176.6520  145.6010 C   0  0  0  0  0  3  0  0  0  0  0  0
  188.8860  176.3010  145.3430 N   0  0  0  0  0  0  0  0  0  0  0  0
  187.4160  177.8440  146.2680 O   0  0  0  0  0  0  0  0  0  0  0  0
  186.5250  177.8780  147.3720 C   0  0  2  0  0  3  0  0  0  0  0  0
  185.8240  176.6850  147.4490 F   0  0  0  0  0  0  0  0  0  0  0  0
  184.2890  178.6640  147.6330 F   0  0  0  0  0  0  0  0  0  0  0  0
  185.5570  179.0440  147.2290 C   0  0  0  0  0  0  0  0  0  0  0  0
  185.5130  179.4510  145.9080 F   0  0  0  0  0  0  0  0  0  0  0  0
  185.9880  180.1010  148.0100 F   0  0  0  0  0  0  0  0  0  0  0  0
  188.5270  173.3090  139.4040 O   0  0  0  0  0  0  0  0  0  0  0  0
  188.1930  174.1430  138.3030 C   0  0  0  0  0  1  0  0  0  0  0  0
  191.3640  172.6500  144.0820 N   0  0  0  0  0  0  0  0  0  0  0  0
  193.1470  173.8180  145.3380 C   0  0  0  0  0  3  0  0  0  0  0  0
  193.5280  175.5980  143.2230 C   0  0  0  0  0  3  0  0  0  0  0  0
  192.5610  174.5940  143.1260 C   0  0  0  0  0  3  0  0  0  0  0  0
  194.1120  174.8240  145.4360 C   0  0  0  0  0  3  0  0  0  0  0  0
  192.3600  173.6890  144.1820 C   0  0  0  0  0  0  0  0  0  0  0  0
  194.3110  175.7200  144.3790 C   0  0  0  0  0  0  0  0  0  0  0  0
  195.2390  177.6650  145.3650 O   0  0  0  0  0  0  0  0  0  0  0  0
  195.3360  176.7740  144.4760 C   0  0  0  0  0  0  0  0  0  0  0  0
  197.2180  175.7540  143.4140 C   0  0  0  0  0  2  0  0  0  0  0  0
  196.4430  176.7790  143.5670 N   0  0  0  0  0  0  0  0  0  0  0  0
  191.7720  171.2540  143.8860 C   0  0  0  0  0  2  0  0  0  0  0  0
  192.1730  171.0050  142.4680 C   0  0  0  0  0  3  0  0  0  0  0  0
  193.4050  171.0670  142.1200 N   0  0  0  0  0  2  0  0  0  0  0  0
  1  4  1  0  0  0  0
  2  3  1  0  0  0  0
  3  7  2  0  0  0  0
  3 11  1  0  0  0  0
  4  2  2  0  0  0  0
  4  6  1  0  0  0  0
  5  9  2  0  0  0  0
  6 21  1  6  0  0  0
  6  7  1  0  0  0  0
  8  5  1  0  0  0  0
  8  1  2  0  0  0  0
  9  2  1  0  0  0  0
 10 12  1  0  0  0  0
 11 10  2  0  0  0  0
 12 13  1  0  0  0  0
 13 14  1  6  0  0  0
 16 13  1  0  0  0  0
 16 15  1  0  0  0  0
 16 18  1  0  0  0  0
 17 16  1  0  0  0  0
 19  8  1  0  0  0  0
 20 19  1  0  0  0  0
 21 26  1  0  0  0  0
 22 25  1  0  0  0  0
 23 27  1  0  0  0  0
 24 23  2  0  0  0  0
 24 26  1  0  0  0  0
 26 22  2  0  0  0  0
 27 29  1  0  0  0  0
 27 25  2  0  0  0  0
 29 28  2  0  0  0  0
 30 31  2  0  0  0  0
 31 29  1  0  0  0  0
 32 21  1  0  0  0  0
 33 32  1  0  0  0  0
 34 33  2  0  0  0  0
M  END
>  <MODEL>
6

>  <REMARK>
 VINA RESULT:      -6.4      4.791      6.788
  Name = 
  11 active torsions:
  status: ('A' for Active; 'I' for Inactive)
    1  A    between atoms: C_1  and  O_11
    2  A    between atoms: N_2  and  C_17
    3  A    between atoms: O_3  and  C_30
    4  A    between atoms: C_8  and  C_9
    5  A    between atoms: C_8  and  O_11
    6  A    between atoms: C_10  and  C_13
    7  A    between atoms: C_10  and  N_21
    8  A    between atoms: N_21  and  C_24
    9  A    between atoms: N_21  and  C_28
   10  A    between atoms: N_22  and  C_26
   11  A    between atoms: C_26  and  C_34
                            x       y       z     vdW  Elec       q    Type
                         _______ _______ _______ _____ _____    ______ ____

>  <TORSDO>
F 11

$$$$
=
 OpenBabel11042418403D

 34 36  0  0  1  0  0  0  0  0999 V2000
  188.0130  176.9210  145.4880 C   0  0  0  0  0  3  0  0  0  0  0  0
  185.8450  177.6950  144.7810 C   0  0  0  0  0  0  0  0  0  0  0  0
  185.3070  178.3990  143.6410 C   0  0  0  0  0  0  0  0  0  0  0  0
  187.1870  177.5570  144.5610 C   0  0  0  0  0  0  0  0  0  0  0  0
  186.0380  176.5570  146.8780 C   0  0  0  0  0  3  0  0  0  0  0  0
  187.5310  178.1860  143.2500 C   0  0  2  0  0  3  0  0  0  0  0  0
  186.2300  178.6810  142.7720 N   0  0  0  0  0  0  0  0  0  0  0  0
  187.4260  176.4120  146.6670 C   0  0  0  0  0  0  0  0  0  0  0  0
  185.2290  177.2050  145.9310 C   0  0  0  0  0  3  0  0  0  0  0  0
  183.2230  178.3140  142.4860 C   0  0  0  0  0  3  0  0  0  0  0  0
  183.9300  178.7440  143.4800 N   0  0  0  0  0  0  0  0  0  0  0  0
  181.8870  178.6780  142.3760 O   0  0  0  0  0  0  0  0  0  0  0  0
  181.0460  178.0570  141.4150 C   0  0  2  0  0  3  0  0  0  0  0  0
  181.4040  178.4700  140.1410 F   0  0  0  0  0  0  0  0  0  0  0  0
  179.1140  179.2610  140.7090 F   0  0  0  0  0  0  0  0  0  0  0  0
  179.5900  178.4070  141.6880 C   0  0  0  0  0  0  0  0  0  0  0  0
  179.4840  179.0220  142.9220 F   0  0  0  0  0  0  0  0  0  0  0  0
  178.8310  177.2510  141.6950 F   0  0  0  0  0  0  0  0  0  0  0  0
  188.1910  175.7640  147.6400 O   0  0  0  0  0  0  0  0  0  0  0  0
  189.1310  174.7450  147.3240 C   0  0  0  0  0  1  0  0  0  0  0  0
  188.0930  177.1980  142.3190 N   0  0  0  0  0  0  0  0  0  0  0  0
  189.8050  175.4130  142.3060 C   0  0  0  0  0  3  0  0  0  0  0  0
  191.7950  177.2600  142.9500 C   0  0  0  0  0  3  0  0  0  0  0  0
  190.4720  177.6820  142.8020 C   0  0  0  0  0  3  0  0  0  0  0  0
  191.1280  174.9900  142.4580 C   0  0  0  0  0  3  0  0  0  0  0  0
  189.4600  176.7630  142.4760 C   0  0  0  0  0  0  0  0  0  0  0  0
  192.1340  175.9100  142.7790 C   0  0  0  0  0  0  0  0  0  0  0  0
  193.8600  174.7400  143.9040 O   0  0  0  0  0  0  0  0  0  0  0  0
  193.5310  175.4680  142.9260 C   0  0  0  0  0  0  0  0  0  0  0  0
  194.3580  175.6360  140.6910 C   0  0  0  0  0  2  0  0  0  0  0  0
  194.5100  175.8600  141.9560 N   0  0  0  0  0  0  0  0  0  0  0  0
  187.2440  176.6050  141.2800 C   0  0  0  0  0  2  0  0  0  0  0  0
  187.0590  177.5470  140.1340 C   0  0  0  0  0  3  0  0  0  0  0  0
  185.9880  177.5140  139.4300 N   0  0  0  0  0  2  0  0  0  0  0  0
  1  8  1  0  0  0  0
  2  9  2  0  0  0  0
  3  2  1  0  0  0  0
  4  2  1  0  0  0  0
  4  1  2  0  0  0  0
  6 21  1  6  0  0  0
  6  4  1  0  0  0  0
  7  6  1  0  0  0  0
  7  3  2  0  0  0  0
  8  5  2  0  0  0  0
  8 19  1  0  0  0  0
  9  5  1  0  0  0  0
 10 11  2  0  0  0  0
 11  3  1  0  0  0  0
 12 10  1  0  0  0  0
 13 14  1  6  0  0  0
 13 16  1  0  0  0  0
 13 12  1  0  0  0  0
 15 16  1  0  0  0  0
 16 18  1  0  0  0  0
 16 17  1  0  0  0  0
 20 19  1  0  0  0  0
 21 26  1  0  0  0  0
 22 25  2  0  0  0  0
 22 26  1  0  0  0  0
 24 23  1  0  0  0  0
 25 27  1  0  0  0  0
 26 24  2  0  0  0  0
 27 29  1  0  0  0  0
 27 23  2  0  0  0  0
 29 28  2  0  0  0  0
 30 31  2  0  0  0  0
 31 29  1  0  0  0  0
 32 21  1  0  0  0  0
 33 32  1  0  0  0  0
 34 33  2  0  0  0  0
M  END
>  <MODEL>
7

>  <REMARK>
 VINA RESULT:      -6.4      2.244      2.776
  Name = 
  11 active torsions:
  status: ('A' for Active; 'I' for Inactive)
    1  A    between atoms: C_1  and  O_11
    2  A    between atoms: N_2  and  C_17
    3  A    between atoms: O_3  and  C_30
    4  A    between atoms: C_8  and  C_9
    5  A    between atoms: C_8  and  O_11
    6  A    between atoms: C_10  and  C_13
    7  A    between atoms: C_10  and  N_21
    8  A    between atoms: N_21  and  C_24
    9  A    between atoms: N_21  and  C_28
   10  A    between atoms: N_22  and  C_26
   11  A    between atoms: C_26  and  C_34
                            x       y       z     vdW  Elec       q    Type
                         _______ _______ _______ _____ _____    ______ ____

>  <TORSDO>
F 11

$$$$
=
 OpenBabel11042418403D

 34 36  0  0  1  0  0  0  0  0999 V2000
  189.6230  177.3190  145.2600 C   0  0  0  0  0  3  0  0  0  0  0  0
  187.3670  177.4470  144.4280 C   0  0  0  0  0  0  0  0  0  0  0  0
  186.7290  177.4420  143.1330 C   0  0  0  0  0  0  0  0  0  0  0  0
  188.7110  177.3360  144.2050 C   0  0  0  0  0  0  0  0  0  0  0  0
  187.7310  177.5200  146.7930 C   0  0  0  0  0  3  0  0  0  0  0  0
  188.9540  177.2590  142.7320 C   0  0  2  0  0  3  0  0  0  0  0  0
  187.5960  177.3350  142.1710 N   0  0  0  0  0  0  0  0  0  0  0  0
  189.1220  177.4120  146.5770 C   0  0  0  0  0  0  0  0  0  0  0  0
  186.8340  177.5390  145.7120 C   0  0  0  0  0  3  0  0  0  0  0  0
  184.6660  178.6370  143.1290 C   0  0  0  0  0  3  0  0  0  0  0  0
  185.3190  177.5400  142.9250 N   0  0  0  0  0  0  0  0  0  0  0  0
  183.2950  178.6810  142.9100 O   0  0  0  0  0  0  0  0  0  0  0  0
  182.7460  178.2340  141.6790 C   0  0  2  0  0  3  0  0  0  0  0  0
  183.4700  178.7640  140.6220 F   0  0  0  0  0  0  0  0  0  0  0  0
  180.4670  177.5380  141.6400 F   0  0  0  0  0  0  0  0  0  0  0  0
  181.2860  178.6520  141.5740 C   0  0  0  0  0  0  0  0  0  0  0  0
  181.0750  179.3050  140.3740 F   0  0  0  0  0  0  0  0  0  0  0  0
  180.9760  179.5100  142.6130 F   0  0  0  0  0  0  0  0  0  0  0  0
  189.9760  177.4020  147.6830 O   0  0  0  0  0  0  0  0  0  0  0  0
  191.0800  176.5140  147.7910 C   0  0  0  0  0  1  0  0  0  0  0  0
  189.6040  175.9930  142.3680 N   0  0  0  0  0  0  0  0  0  0  0  0
  191.9960  176.5430  142.6760 C   0  0  0  0  0  3  0  0  0  0  0  0
  192.3850  174.2080  144.1540 C   0  0  0  0  0  3  0  0  0  0  0  0
  191.1210  174.5070  143.6400 C   0  0  0  0  0  3  0  0  0  0  0  0
  193.2610  176.2420  143.1860 C   0  0  0  0  0  3  0  0  0  0  0  0
  190.9100  175.6800  142.8960 C   0  0  0  0  0  0  0  0  0  0  0  0
  193.4650  175.0730  143.9300 C   0  0  0  0  0  0  0  0  0  0  0  0
  195.4690  173.8100  143.9950 O   0  0  0  0  0  0  0  0  0  0  0  0
  194.7960  174.7610  144.4800 C   0  0  0  0  0  0  0  0  0  0  0  0
  194.5690  176.0630  146.4710 C   0  0  0  0  0  2  0  0  0  0  0  0
  195.3240  175.5420  145.5590 N   0  0  0  0  0  0  0  0  0  0  0  0
  188.8960  175.0210  141.5280 C   0  0  0  0  0  2  0  0  0  0  0  0
  188.2020  173.9920  142.3630 C   0  0  0  0  0  3  0  0  0  0  0  0
  188.0160  172.8060  141.9130 N   0  0  0  0  0  2  0  0  0  0  0  0
  1  8  1  0  0  0  0
  2  9  2  0  0  0  0
  3  2  1  0  0  0  0
  4  2  1  0  0  0  0
  4  1  2  0  0  0  0
  6 21  1  1  0  0  0
  6  4  1  0  0  0  0
  7  6  1  0  0  0  0
  7  3  2  0  0  0  0
  8  5  2  0  0  0  0
  8 19  1  0  0  0  0
  9  5  1  0  0  0  0
 11 10  2  0  0  0  0
 11  3  1  0  0  0  0
 12 10  1  0  0  0  0
 13 14  1  6  0  0  0
 13 12  1  0  0  0  0
 16 15  1  0  0  0  0
 16 13  1  0  0  0  0
 16 18  1  0  0  0  0
 17 16  1  0  0  0  0
 19 20  1  0  0  0  0
 21 26  1  0  0  0  0
 22 26  2  0  0  0  0
 22 25  1  0  0  0  0
 24 23  2  0  0  0  0
 25 27  2  0  0  0  0
 26 24  1  0  0  0  0
 27 23  1  0  0  0  0
 27 29  1  0  0  0  0
 28 29  2  0  0  0  0
 29 31  1  0  0  0  0
 31 30  2  0  0  0  0
 32 33  1  0  0  0  0
 32 21  1  0  0  0  0
 34 33  2  0  0  0  0
M  END
>  <MODEL>
8

>  <REMARK>
 VINA RESULT:      -6.3      2.097      2.976
  Name = 
  11 active torsions:
  status: ('A' for Active; 'I' for Inactive)
    1  A    between atoms: C_1  and  O_11
    2  A    between atoms: N_2  and  C_17
    3  A    between atoms: O_3  and  C_30
    4  A    between atoms: C_8  and  C_9
    5  A    between atoms: C_8  and  O_11
    6  A    between atoms: C_10  and  C_13
    7  A    between atoms: C_10  and  N_21
    8  A    between atoms: N_21  and  C_24
    9  A    between atoms: N_21  and  C_28
   10  A    between atoms: N_22  and  C_26
   11  A    between atoms: C_26  and  C_34
                            x       y       z     vdW  Elec       q    Type
                         _______ _______ _______ _____ _____    ______ ____

>  <TORSDO>
F 11

$$$$
=
 OpenBabel11042418403D

 34 36  0  0  1  0  0  0  0  0999 V2000
  191.0080  175.9100  142.7150 C   0  0  0  0  0  3  0  0  0  0  0  0
  188.8130  176.3870  143.5810 C   0  0  0  0  0  0  0  0  0  0  0  0
  187.4510  176.1440  143.1690 C   0  0  0  0  0  0  0  0  0  0  0  0
  189.6180  175.8410  142.6220 C   0  0  0  0  0  0  0  0  0  0  0  0
  190.7270  177.1130  144.8230 C   0  0  0  0  0  3  0  0  0  0  0  0
  188.7620  175.2300  141.5600 C   0  0  2  0  0  3  0  0  0  0  0  0
  187.3990  175.4970  142.0440 N   0  0  0  0  0  0  0  0  0  0  0  0
  191.5710  176.5580  143.8370 C   0  0  0  0  0  0  0  0  0  0  0  0
  189.3300  177.0330  144.7030 C   0  0  0  0  0  3  0  0  0  0  0  0
  185.6200  177.6140  143.5840 C   0  0  0  0  0  3  0  0  0  0  0  0
  186.2970  176.5590  143.9020 N   0  0  0  0  0  0  0  0  0  0  0  0
  184.5030  177.9730  144.3280 O   0  0  0  0  0  0  0  0  0  0  0  0
  184.6280  178.8410  145.4450 C   0  0  2  0  0  3  0  0  0  0  0  0
  185.6320  179.7680  145.2100 F   0  0  0  0  0  0  0  0  0  0  0  0
  186.3090  177.9740  146.8950 F   0  0  0  0  0  0  0  0  0  0  0  0
  184.9410  178.0380  146.7000 C   0  0  0  0  0  0  0  0  0  0  0  0
  184.4370  176.7580  146.5690 F   0  0  0  0  0  0  0  0  0  0  0  0
  184.3510  178.6430  147.7940 F   0  0  0  0  0  0  0  0  0  0  0  0
  192.9550  176.6660  143.9960 O   0  0  0  0  0  0  0  0  0  0  0  0
  193.8630  175.6910  143.5010 C   0  0  0  0  0  1  0  0  0  0  0  0
  189.0080  173.7860  141.4480 N   0  0  0  0  0  0  0  0  0  0  0  0
  190.9100  173.5380  139.8860 C   0  0  0  0  0  3  0  0  0  0  0  0
  189.3810  171.9060  138.2170 C   0  0  0  0  0  3  0  0  0  0  0  0
  188.8230  172.4280  139.3860 C   0  0  0  0  0  3  0  0  0  0  0  0
  191.4670  173.0200  138.7140 C   0  0  0  0  0  3  0  0  0  0  0  0
  189.5820  173.2490  140.2370 C   0  0  0  0  0  0  0  0  0  0  0  0
  190.7080  172.1990  137.8720 C   0  0  0  0  0  0  0  0  0  0  0  0
  192.5350  171.7710  136.4240 O   0  0  0  0  0  0  0  0  0  0  0  0
  191.2980  171.6410  136.6430 C   0  0  0  0  0  0  0  0  0  0  0  0
  190.2420  171.4000  134.5130 C   0  0  0  0  0  2  0  0  0  0  0  0
  190.4690  170.9470  135.7030 N   0  0  0  0  0  0  0  0  0  0  0  0
  188.7350  172.9050  142.5890 C   0  0  0  0  0  2  0  0  0  0  0  0
  189.9070  172.0230  142.8790 C   0  0  0  0  0  3  0  0  0  0  0  0
  190.9240  172.4780  143.5130 N   0  0  0  0  0  2  0  0  0  0  0  0
  1  8  1  0  0  0  0
  2  9  2  0  0  0  0
  3  2  1  0  0  0  0
  3 11  1  0  0  0  0
  4  1  2  0  0  0  0
  4  2  1  0  0  0  0
  6 21  1  1  0  0  0
  6  7  1  0  0  0  0
  6  4  1  0  0  0  0
  7  3  2  0  0  0  0
  8 19  1  0  0  0  0
  8  5  2  0  0  0  0
  9  5  1  0  0  0  0
 10 11  2  0  0  0  0
 10 12  1  0  0  0  0
 12 13  1  0  0  0  0
 13 14  1  6  0  0  0
 13 16  1  0  0  0  0
 16 15  1  0  0  0  0
 16 18  1  0  0  0  0
 17 16  1  0  0  0  0
 20 19  1  0  0  0  0
 21 32  1  0  0  0  0
 22 26  1  0  0  0  0
 23 24  1  0  0  0  0
 24 26  2  0  0  0  0
 25 22  2  0  0  0  0
 26 21  1  0  0  0  0
 27 23  2  0  0  0  0
 27 25  1  0  0  0  0
 28 29  2  0  0  0  0
 29 27  1  0  0  0  0
 30 31  2  0  0  0  0
 31 29  1  0  0  0  0
 32 33  1  0  0  0  0
 33 34  2  0  0  0  0
M  END
>  <MODEL>
9

>  <REMARK>
 VINA RESULT:      -6.2      4.375      7.135
  Name = 
  11 active torsions:
  status: ('A' for Active; 'I' for Inactive)
    1  A    between atoms: C_1  and  O_11
    2  A    between atoms: N_2  and  C_17
    3  A    between atoms: O_3  and  C_30
    4  A    between atoms: C_8  and  C_9
    5  A    between atoms: C_8  and  O_11
    6  A    between atoms: C_10  and  C_13
    7  A    between atoms: C_10  and  N_21
    8  A    between atoms: N_21  and  C_24
    9  A    between atoms: N_21  and  C_28
   10  A    between atoms: N_22  and  C_26
   11  A    between atoms: C_26  and  C_34
                            x       y       z     vdW  Elec       q    Type
                         _______ _______ _______ _____ _____    ______ ____

>  <TORSDO>
F 11

$$$$
