=
 OpenBabel11042418303D

 30 31  0  0  1  0  0  0  0  0999 V2000
  187.7280  176.7310  145.8720 C   0  0  2  0  0  3  0  0  0  0  0  0
  191.0920  175.5650  144.9080 C   0  0  2  0  0  3  0  0  0  0  0  0
  190.2720  177.9830  143.7330 N   0  0  0  0  0  0  0  0  0  0  0  0
  189.6210  177.5360  144.7660 C   0  0  0  0  0  0  0  0  0  0  0  0
  188.9350  174.9190  147.1200 C   0  0  0  0  0  2  0  0  0  0  0  0
  192.0180  176.3480  144.0070 C   0  0  0  0  0  3  0  0  0  0  0  0
  188.9500  175.9320  146.2530 C   0  0  0  0  0  0  0  0  0  0  0  0
  191.5880  177.4840  143.4390 C   0  0  0  0  0  3  0  0  0  0  0  0
  188.2210  177.7120  144.9160 N   0  0  0  0  0  2  0  0  0  0  0  0
  190.2040  176.5340  145.7020 C   0  0  1  0  0  3  0  0  0  0  0  0
  187.1380  177.4580  147.0750 C   0  0  0  0  0  2  0  0  0  0  0  0
  185.9860  176.8040  147.5120 O   0  0  0  0  0  0  0  0  0  0  0  0
  185.0780  176.9520  146.4670 C   0  0  0  0  0  2  0  0  0  0  0  0
  184.3550  178.2720  146.6200 C   0  0  0  0  0  2  0  0  0  0  0  0
  184.0240  178.8370  145.2550 C   0  0  0  0  0  2  0  0  0  0  0  0
  184.8190  178.2100  144.2950 O   0  0  0  0  0  0  0  0  0  0  0  0
  185.2980  179.2500  143.4950 C   0  0  0  0  0  2  0  0  0  0  0  0
  186.0070  177.7260  140.0670 N   0  0  0  0  0  1  0  0  0  0  0  0
  185.9810  178.6990  142.3320 N   0  0  0  0  0  2  0  0  0  0  0  0
  185.2790  178.2440  141.1750 C   0  0  0  0  0  0  0  0  0  0  0  0
  184.0220  178.2970  141.1250 O   0  0  0  0  0  0  0  0  0  0  0  0
  191.8780  174.7490  145.8160 N   0  0  0  0  0  2  0  0  0  0  0  0
  194.4800  174.7800  145.6970 C   0  0  0  0  0  0  0  0  0  0  0  0
  193.2770  174.7670  145.7510 C   0  0  0  0  0  0  0  0  0  0  0  0
  195.9440  174.7940  145.6300 C   0  0  0  0  0  2  0  0  0  0  0  0
  196.4040  174.6740  144.1870 C   0  0  2  0  0  3  0  0  0  0  0  0
  197.7890  174.4870  144.1370 O   0  0  0  0  0  1  0  0  0  0  0  0
  196.0240  175.8990  143.4240 C   0  0  0  0  0  0  0  0  0  0  0  0
  196.6090  176.9950  143.6380 O   0  0  0  0  0  1  0  0  0  0  0  0
  195.0020  175.8340  142.4870 O   0  0  0  0  0  0  0  0  0  0  0  0
  1  7  1  0  0  0  0
  1 11  1  1  0  0  0
  2 10  1  0  0  0  0
  2 22  1  1  0  0  0
  3  4  2  0  0  0  0
  4  9  1  0  0  0  0
  6  2  1  0  0  0  0
  7  5  2  0  0  0  0
  8  3  1  0  0  0  0
  8  6  2  0  0  0  0
  9  1  1  0  0  0  0
 10  4  1  6  0  0  0
 10  7  1  0  0  0  0
 11 12  1  0  0  0  0
 13 14  1  0  0  0  0
 13 12  1  0  0  0  0
 15 14  1  0  0  0  0
 16 15  1  0  0  0  0
 17 16  1  0  0  0  0
 18 20  1  0  0  0  0
 19 17  1  0  0  0  0
 20 19  1  0  0  0  0
 21 20  2  0  0  0  0
 23 24  3  0  0  0  0
 24 22  1  0  0  0  0
 25 23  1  0  0  0  0
 26 27  1  1  0  0  0
 26 25  1  0  0  0  0
 28 29  1  0  0  0  0
 28 26  1  0  0  0  0
 30 28  2  0  0  0  0
M  END
>  <MODEL>
1

>  <REMARK>
 VINA RESULT:      -6.4      0.000      0.000
  Name = 
  13 active torsions:
  status: ('A' for Active; 'I' for Inactive)
    1  A    between atoms: C_1  and  C_8
    2  A    between atoms: C_2  and  C_24
    3  A    between atoms: C_3  and  N_30
    4  A    between atoms: O_5  and  C_20
    5  A    between atoms: O_5  and  C_26
    6  A    between atoms: C_7  and  C_8
    7  A    between atoms: C_7  and  C_11
    8  A    between atoms: N_9  and  C_26
    9  A    between atoms: C_20  and  C_21
   10  A    between atoms: C_21  and  C_25
   11  A    between atoms: C_24  and  O_27
   12  A    between atoms: C_25  and  O_27
   13  A    between atoms: C_29  and  N_30
                            x       y       z     vdW  Elec       q    Type
                         _______ _______ _______ _____ _____    ______ ____

>  <TORSDO>
F 13

$$$$
=
 OpenBabel11042418303D

 30 31  0  0  1  0  0  0  0  0999 V2000
  187.6230  176.2550  146.0120 C   0  0  2  0  0  3  0  0  0  0  0  0
  190.2470  174.2000  144.4300 C   0  0  2  0  0  3  0  0  0  0  0  0
  189.1710  176.2330  142.8150 N   0  0  0  0  0  0  0  0  0  0  0  0
  188.9610  176.2740  144.0980 C   0  0  0  0  0  0  0  0  0  0  0  0
  189.1180  174.7290  147.3300 C   0  0  0  0  0  2  0  0  0  0  0  0
  190.7800  174.4570  143.0400 C   0  0  0  0  0  3  0  0  0  0  0  0
  188.8460  175.3910  146.2050 C   0  0  0  0  0  0  0  0  0  0  0  0
  190.2280  175.4160  142.2830 C   0  0  0  0  0  3  0  0  0  0  0  0
  187.7510  176.7640  144.6540 N   0  0  0  0  0  2  0  0  0  0  0  0
  189.8090  175.5260  145.0680 C   0  0  1  0  0  3  0  0  0  0  0  0
  187.6070  177.4270  146.9860 C   0  0  0  0  0  2  0  0  0  0  0  0
  186.3880  177.4700  147.6630 O   0  0  0  0  0  0  0  0  0  0  0  0
  186.0470  178.8210  147.6890 C   0  0  0  0  0  2  0  0  0  0  0  0
  185.5400  179.2320  146.3250 C   0  0  0  0  0  2  0  0  0  0  0  0
  184.3050  178.4290  145.9730 C   0  0  0  0  0  2  0  0  0  0  0  0
  184.4930  177.8230  144.7290 O   0  0  0  0  0  0  0  0  0  0  0  0
  184.5630  178.8850  143.8240 C   0  0  0  0  0  2  0  0  0  0  0  0
  185.6140  177.7860  140.3220 N   0  0  0  0  0  1  0  0  0  0  0  0
  184.5370  178.3690  142.4610 N   0  0  0  0  0  2  0  0  0  0  0  0
  185.7050  178.3110  141.6410 C   0  0  0  0  0  0  0  0  0  0  0  0
  186.8150  178.7200  142.0750 O   0  0  0  0  0  0  0  0  0  0  0  0
  191.2800  173.5740  145.2360 N   0  0  0  0  0  2  0  0  0  0  0  0
  193.4520  174.8820  145.8350 C   0  0  0  0  0  0  0  0  0  0  0  0
  192.4480  174.2770  145.5570 C   0  0  0  0  0  0  0  0  0  0  0  0
  194.6730  175.6160  146.1750 C   0  0  0  0  0  2  0  0  0  0  0  0
  195.4840  175.8940  144.9210 C   0  0  2  0  0  3  0  0  0  0  0  0
  194.6410  176.3060  143.8840 O   0  0  0  0  0  1  0  0  0  0  0  0
  196.2360  174.6700  144.5140 C   0  0  0  0  0  0  0  0  0  0  0  0
  197.2590  174.3050  145.1520 O   0  0  0  0  0  1  0  0  0  0  0  0
  195.8150  173.9430  143.4090 O   0  0  0  0  0  0  0  0  0  0  0  0
  1  7  1  0  0  0  0
  1 11  1  1  0  0  0
  2 10  1  0  0  0  0
  2 22  1  1  0  0  0
  3  4  2  0  0  0  0
  4  9  1  0  0  0  0
  6  2  1  0  0  0  0
  7  5  2  0  0  0  0
  8  3  1  0  0  0  0
  8  6  2  0  0  0  0
  9  1  1  0  0  0  0
 10  4  1  6  0  0  0
 10  7  1  0  0  0  0
 11 12  1  0  0  0  0
 12 13  1  0  0  0  0
 14 13  1  0  0  0  0
 15 14  1  0  0  0  0
 16 15  1  0  0  0  0
 17 16  1  0  0  0  0
 18 20  1  0  0  0  0
 19 17  1  0  0  0  0
 20 21  2  0  0  0  0
 20 19  1  0  0  0  0
 22 24  1  0  0  0  0
 23 25  1  0  0  0  0
 24 23  3  0  0  0  0
 26 27  1  6  0  0  0
 26 25  1  0  0  0  0
 28 26  1  0  0  0  0
 28 29  1  0  0  0  0
 30 28  2  0  0  0  0
M  END
>  <MODEL>
2

>  <REMARK>
 VINA RESULT:      -6.1      1.417      1.741
  Name = 
  13 active torsions:
  status: ('A' for Active; 'I' for Inactive)
    1  A    between atoms: C_1  and  C_8
    2  A    between atoms: C_2  and  C_24
    3  A    between atoms: C_3  and  N_30
    4  A    between atoms: O_5  and  C_20
    5  A    between atoms: O_5  and  C_26
    6  A    between atoms: C_7  and  C_8
    7  A    between atoms: C_7  and  C_11
    8  A    between atoms: N_9  and  C_26
    9  A    between atoms: C_20  and  C_21
   10  A    between atoms: C_21  and  C_25
   11  A    between atoms: C_24  and  O_27
   12  A    between atoms: C_25  and  O_27
   13  A    between atoms: C_29  and  N_30
                            x       y       z     vdW  Elec       q    Type
                         _______ _______ _______ _____ _____    ______ ____

>  <TORSDO>
F 13

$$$$
=
 OpenBabel11042418303D

 30 31  0  0  1  0  0  0  0  0999 V2000
  189.3610  177.4770  146.4820 C   0  0  2  0  0  3  0  0  0  0  0  0
  192.2780  176.9350  144.2900 C   0  0  2  0  0  3  0  0  0  0  0  0
  192.6040  176.1070  146.9560 N   0  0  0  0  0  0  0  0  0  0  0  0
  191.4040  176.3450  146.5160 C   0  0  0  0  0  0  0  0  0  0  0  0
  189.2130  177.6240  143.9810 C   0  0  0  0  0  2  0  0  0  0  0  0
  193.5450  176.2490  144.7450 C   0  0  0  0  0  3  0  0  0  0  0  0
  189.8670  177.2440  145.0800 C   0  0  0  0  0  0  0  0  0  0  0  0
  193.6820  175.8910  146.0310 C   0  0  0  0  0  3  0  0  0  0  0  0
  190.3900  176.9030  147.3380 N   0  0  0  0  0  2  0  0  0  0  0  0
  191.0790  176.3670  145.0630 C   0  0  1  0  0  3  0  0  0  0  0  0
  188.0430  176.7530  146.7290 C   0  0  0  0  0  2  0  0  0  0  0  0
  187.1240  177.6190  147.3230 O   0  0  0  0  0  0  0  0  0  0  0  0
  185.9490  177.4360  146.5990 C   0  0  0  0  0  2  0  0  0  0  0  0
  185.0060  178.5830  146.8850 C   0  0  0  0  0  2  0  0  0  0  0  0
  184.0380  178.7510  145.7330 C   0  0  0  0  0  2  0  0  0  0  0  0
  184.7350  179.2070  144.6130 O   0  0  0  0  0  0  0  0  0  0  0  0
  184.0860  178.6160  143.5260 C   0  0  0  0  0  2  0  0  0  0  0  0
  186.7660  177.1330  141.2460 N   0  0  0  0  0  1  0  0  0  0  0  0
  185.0340  178.4220  142.4360 N   0  0  0  0  0  2  0  0  0  0  0  0
  185.8690  177.2670  142.3420 C   0  0  0  0  0  0  0  0  0  0  0  0
  185.8170  176.3650  143.2210 O   0  0  0  0  0  0  0  0  0  0  0  0
  192.1010  176.7240  142.8650 N   0  0  0  0  0  2  0  0  0  0  0  0
  191.5320  174.3520  141.9500 C   0  0  0  0  0  0  0  0  0  0  0  0
  191.7950  175.4490  142.3720 C   0  0  0  0  0  0  0  0  0  0  0  0
  191.2100  173.0170  141.4380 C   0  0  0  0  0  2  0  0  0  0  0  0
  189.7670  172.9720  140.9640 C   0  0  2  0  0  3  0  0  0  0  0  0
  189.5160  174.0290  140.0830 O   0  0  0  0  0  1  0  0  0  0  0  0
  188.8410  173.0490  142.1320 C   0  0  0  0  0  0  0  0  0  0  0  0
  188.0040  173.9870  142.2260 O   0  0  0  0  0  0  0  0  0  0  0  0
  188.9190  172.0910  143.1330 O   0  0  0  0  0  1  0  0  0  0  0  0
  1 11  1  6  0  0  0
  1  9  1  0  0  0  0
  2 22  1  6  0  0  0
  2  6  1  0  0  0  0
  2 10  1  0  0  0  0
  4  3  2  0  0  0  0
  4  9  1  0  0  0  0
  5  7  2  0  0  0  0
  6  8  2  0  0  0  0
  7  1  1  0  0  0  0
  8  3  1  0  0  0  0
 10  7  1  1  0  0  0
 10  4  1  0  0  0  0
 11 12  1  0  0  0  0
 13 14  1  0  0  0  0
 13 12  1  0  0  0  0
 15 14  1  0  0  0  0
 16 15  1  0  0  0  0
 17 16  1  0  0  0  0
 18 20  1  0  0  0  0
 19 17  1  0  0  0  0
 20 19  1  0  0  0  0
 20 21  2  0  0  0  0
 23 24  3  0  0  0  0
 24 22  1  0  0  0  0
 25 23  1  0  0  0  0
 26 27  1  6  0  0  0
 26 25  1  0  0  0  0
 26 28  1  0  0  0  0
 28 29  2  0  0  0  0
 28 30  1  0  0  0  0
M  END
>  <MODEL>
3

>  <REMARK>
 VINA RESULT:      -6.1      3.065      4.255
  Name = 
  13 active torsions:
  status: ('A' for Active; 'I' for Inactive)
    1  A    between atoms: C_1  and  C_8
    2  A    between atoms: C_2  and  C_24
    3  A    between atoms: C_3  and  N_30
    4  A    between atoms: O_5  and  C_20
    5  A    between atoms: O_5  and  C_26
    6  A    between atoms: C_7  and  C_8
    7  A    between atoms: C_7  and  C_11
    8  A    between atoms: N_9  and  C_26
    9  A    between atoms: C_20  and  C_21
   10  A    between atoms: C_21  and  C_25
   11  A    between atoms: C_24  and  O_27
   12  A    between atoms: C_25  and  O_27
   13  A    between atoms: C_29  and  N_30
                            x       y       z     vdW  Elec       q    Type
                         _______ _______ _______ _____ _____    ______ ____

>  <TORSDO>
F 13

$$$$
=
 OpenBabel11042418303D

 30 31  0  0  1  0  0  0  0  0999 V2000
  187.7340  176.3420  142.7270 C   0  0  2  0  0  3  0  0  0  0  0  0
  189.4060  174.7430  145.6000 C   0  0  2  0  0  3  0  0  0  0  0  0
  189.2840  173.1910  143.2610 N   0  0  0  0  0  0  0  0  0  0  0  0
  189.0520  174.4680  143.1780 C   0  0  0  0  0  0  0  0  0  0  0  0
  188.4530  177.6320  144.7570 C   0  0  0  0  0  2  0  0  0  0  0  0
  190.0570  173.3820  145.5320 C   0  0  0  0  0  3  0  0  0  0  0  0
  188.5110  176.5310  144.0080 C   0  0  0  0  0  0  0  0  0  0  0  0
  189.9570  172.6530  144.4110 C   0  0  0  0  0  3  0  0  0  0  0  0
  188.1080  175.0120  142.2690 N   0  0  0  0  0  2  0  0  0  0  0  0
  189.4970  175.4270  144.2290 C   0  0  1  0  0  3  0  0  0  0  0  0
  188.1370  177.3670  141.6730 C   0  0  0  0  0  2  0  0  0  0  0  0
  187.1250  178.3140  141.5140 O   0  0  0  0  0  0  0  0  0  0  0  0
  185.9940  177.5700  141.1900 C   0  0  0  0  0  2  0  0  0  0  0  0
  184.7570  178.3740  141.5250 C   0  0  0  0  0  2  0  0  0  0  0  0
  184.2880  178.0340  142.9240 C   0  0  0  0  0  2  0  0  0  0  0  0
  184.9620  178.8420  143.8410 O   0  0  0  0  0  0  0  0  0  0  0  0
  184.1040  178.9230  144.9410 C   0  0  0  0  0  2  0  0  0  0  0  0
  186.1160  177.9110  148.0240 N   0  0  0  0  0  1  0  0  0  0  0  0
  184.8870  178.9720  146.1690 N   0  0  0  0  0  2  0  0  0  0  0  0
  185.3460  177.7940  146.8340 C   0  0  0  0  0  0  0  0  0  0  0  0
  185.0780  176.6530  146.3740 O   0  0  0  0  0  0  0  0  0  0  0  0
  190.0760  175.5490  146.6060 N   0  0  0  0  0  2  0  0  0  0  0  0
  192.6400  175.9840  146.4500 C   0  0  0  0  0  0  0  0  0  0  0  0
  191.4550  175.7820  146.5210 C   0  0  0  0  0  0  0  0  0  0  0  0
  194.0830  176.2270  146.3660 C   0  0  0  0  0  2  0  0  0  0  0  0
  194.7510  175.1350  145.5470 C   0  0  2  0  0  3  0  0  0  0  0  0
  195.8700  174.6420  146.2240 O   0  0  0  0  0  1  0  0  0  0  0  0
  195.1530  175.6680  144.2120 C   0  0  0  0  0  0  0  0  0  0  0  0
  194.8710  175.0370  143.1580 O   0  0  0  0  0  0  0  0  0  0  0  0
  195.8630  176.8580  144.1350 O   0  0  0  0  0  1  0  0  0  0  0  0
  1 11  1  6  0  0  0
  1  7  1  0  0  0  0
  2 22  1  1  0  0  0
  3  8  1  0  0  0  0
  4  3  2  0  0  0  0
  6  2  1  0  0  0  0
  7 10  1  0  0  0  0
  7  5  2  0  0  0  0
  8  6  2  0  0  0  0
  9  1  1  0  0  0  0
  9  4  1  0  0  0  0
 10  4  1  6  0  0  0
 10  2  1  0  0  0  0
 12 11  1  0  0  0  0
 13 12  1  0  0  0  0
 13 14  1  0  0  0  0
 14 15  1  0  0  0  0
 15 16  1  0  0  0  0
 16 17  1  0  0  0  0
 17 19  1  0  0  0  0
 19 20  1  0  0  0  0
 20 18  1  0  0  0  0
 21 20  2  0  0  0  0
 23 24  3  0  0  0  0
 24 22  1  0  0  0  0
 25 23  1  0  0  0  0
 26 27  1  1  0  0  0
 26 25  1  0  0  0  0
 28 26  1  0  0  0  0
 29 28  2  0  0  0  0
 30 28  1  0  0  0  0
M  END
>  <MODEL>
4

>  <REMARK>
 VINA RESULT:      -6.1      2.253      3.892
  Name = 
  13 active torsions:
  status: ('A' for Active; 'I' for Inactive)
    1  A    between atoms: C_1  and  C_8
    2  A    between atoms: C_2  and  C_24
    3  A    between atoms: C_3  and  N_30
    4  A    between atoms: O_5  and  C_20
    5  A    between atoms: O_5  and  C_26
    6  A    between atoms: C_7  and  C_8
    7  A    between atoms: C_7  and  C_11
    8  A    between atoms: N_9  and  C_26
    9  A    between atoms: C_20  and  C_21
   10  A    between atoms: C_21  and  C_25
   11  A    between atoms: C_24  and  O_27
   12  A    between atoms: C_25  and  O_27
   13  A    between atoms: C_29  and  N_30
                            x       y       z     vdW  Elec       q    Type
                         _______ _______ _______ _____ _____    ______ ____

>  <TORSDO>
F 13

$$$$
=
 OpenBabel11042418303D

 30 31  0  0  1  0  0  0  0  0999 V2000
  193.5320  176.3430  146.0310 C   0  0  2  0  0  3  0  0  0  0  0  0
  190.0220  177.3800  145.5700 C   0  0  2  0  0  3  0  0  0  0  0  0
  191.6420  177.5620  143.2810 N   0  0  0  0  0  0  0  0  0  0  0  0
  192.0610  176.8580  144.2910 C   0  0  0  0  0  0  0  0  0  0  0  0
  191.7400  175.8170  147.7080 C   0  0  0  0  0  2  0  0  0  0  0  0
  189.4470  177.8040  144.2390 C   0  0  0  0  0  3  0  0  0  0  0  0
  192.0990  176.2020  146.4820 C   0  0  0  0  0  0  0  0  0  0  0  0
  190.2520  177.9090  143.1710 C   0  0  0  0  0  3  0  0  0  0  0  0
  193.4330  176.7790  144.6450 N   0  0  0  0  0  2  0  0  0  0  0  0
  191.1390  176.3500  145.3450 C   0  0  1  0  0  3  0  0  0  0  0  0
  194.2690  175.0100  146.0840 C   0  0  0  0  0  2  0  0  0  0  0  0
  194.0980  174.3190  144.8840 O   0  0  0  0  0  0  0  0  0  0  0  0
  193.5950  173.0770  145.2600 C   0  0  0  0  0  2  0  0  0  0  0  0
  192.2460  172.8690  144.6100 C   0  0  0  0  0  2  0  0  0  0  0  0
  192.3560  173.0960  143.1160 C   0  0  0  0  0  2  0  0  0  0  0  0
  191.3190  173.9350  142.7040 O   0  0  0  0  0  0  0  0  0  0  0  0
  190.1580  173.3290  143.1900 C   0  0  0  0  0  2  0  0  0  0  0  0
  187.1700  175.5870  142.4430 N   0  0  0  0  0  1  0  0  0  0  0  0
  189.1010  174.3260  143.3140 N   0  0  0  0  0  2  0  0  0  0  0  0
  188.1870  174.6100  142.2540 C   0  0  0  0  0  0  0  0  0  0  0  0
  188.2710  174.0010  141.1540 O   0  0  0  0  0  0  0  0  0  0  0  0
  188.9690  176.8050  146.3890 N   0  0  0  0  0  2  0  0  0  0  0  0
  186.8360  178.1900  146.9490 C   0  0  0  0  0  0  0  0  0  0  0  0
  187.8210  177.5490  146.6890 C   0  0  0  0  0  0  0  0  0  0  0  0
  185.6370  178.9720  147.2640 C   0  0  0  0  0  2  0  0  0  0  0  0
  184.4850  178.5500  146.3680 C   0  0  2  0  0  3  0  0  0  0  0  0
  184.2380  177.1810  146.5140 O   0  0  0  0  0  1  0  0  0  0  0  0
  184.8020  178.8640  144.9440 C   0  0  0  0  0  0  0  0  0  0  0  0
  185.0810  180.0420  144.5940 O   0  0  0  0  0  1  0  0  0  0  0  0
  184.7650  177.8520  143.9940 O   0  0  0  0  0  0  0  0  0  0  0  0
  1 11  1  6  0  0  0
  1  7  1  0  0  0  0
  2 22  1  1  0  0  0
  3  4  2  0  0  0  0
  4  9  1  0  0  0  0
  6  2  1  0  0  0  0
  7  5  2  0  0  0  0
  8  3  1  0  0  0  0
  8  6  2  0  0  0  0
  9  1  1  0  0  0  0
 10  4  1  6  0  0  0
 10  2  1  0  0  0  0
 10  7  1  0  0  0  0
 12 13  1  0  0  0  0
 12 11  1  0  0  0  0
 14 13  1  0  0  0  0
 15 14  1  0  0  0  0
 16 15  1  0  0  0  0
 16 17  1  0  0  0  0
 17 19  1  0  0  0  0
 20 18  1  0  0  0  0
 20 19  1  0  0  0  0
 21 20  2  0  0  0  0
 22 24  1  0  0  0  0
 23 25  1  0  0  0  0
 24 23  3  0  0  0  0
 26 27  1  6  0  0  0
 26 25  1  0  0  0  0
 28 26  1  0  0  0  0
 29 28  1  0  0  0  0
 30 28  2  0  0  0  0
M  END
>  <MODEL>
5

>  <REMARK>
 VINA RESULT:      -6.0      2.430      7.652
  Name = 
  13 active torsions:
  status: ('A' for Active; 'I' for Inactive)
    1  A    between atoms: C_1  and  C_8
    2  A    between atoms: C_2  and  C_24
    3  A    between atoms: C_3  and  N_30
    4  A    between atoms: O_5  and  C_20
    5  A    between atoms: O_5  and  C_26
    6  A    between atoms: C_7  and  C_8
    7  A    between atoms: C_7  and  C_11
    8  A    between atoms: N_9  and  C_26
    9  A    between atoms: C_20  and  C_21
   10  A    between atoms: C_21  and  C_25
   11  A    between atoms: C_24  and  O_27
   12  A    between atoms: C_25  and  O_27
   13  A    between atoms: C_29  and  N_30
                            x       y       z     vdW  Elec       q    Type
                         _______ _______ _______ _____ _____    ______ ____

>  <TORSDO>
F 13

$$$$
=
 OpenBabel11042418303D

 30 31  0  0  1  0  0  0  0  0999 V2000
  191.9800  172.8520  143.9330 C   0  0  2  0  0  3  0  0  0  0  0  0
  191.0700  174.9110  146.8540 C   0  0  2  0  0  3  0  0  0  0  0  0
  193.4150  175.6890  145.5150 N   0  0  0  0  0  0  0  0  0  0  0  0
  192.5930  174.8780  144.9180 C   0  0  0  0  0  0  0  0  0  0  0  0
  189.7140  172.7400  145.0060 C   0  0  0  0  0  2  0  0  0  0  0  0
  191.8410  176.1390  147.2800 C   0  0  0  0  0  3  0  0  0  0  0  0
  190.8800  173.3640  144.8280 C   0  0  0  0  0  0  0  0  0  0  0  0
  192.9720  176.4690  146.6390 C   0  0  0  0  0  3  0  0  0  0  0  0
  193.0380  173.8450  144.0530 N   0  0  0  0  0  2  0  0  0  0  0  0
  191.1670  174.7440  145.3310 C   0  0  1  0  0  3  0  0  0  0  0  0
  191.5290  172.7750  142.4790 C   0  0  0  0  0  2  0  0  0  0  0  0
  191.5350  174.0480  141.9080 O   0  0  0  0  0  0  0  0  0  0  0  0
  190.2830  174.1730  141.3110 C   0  0  0  0  0  2  0  0  0  0  0  0
  189.5030  175.2600  142.0150 C   0  0  0  0  0  2  0  0  0  0  0  0
  188.0200  175.0550  141.7890 C   0  0  0  0  0  2  0  0  0  0  0  0
  187.5620  176.0030  140.8720 O   0  0  0  0  0  0  0  0  0  0  0  0
  187.5730  177.2110  141.5740 C   0  0  0  0  0  2  0  0  0  0  0  0
  183.9190  178.1560  142.1520 N   0  0  0  0  0  1  0  0  0  0  0  0
  186.2740  177.4260  142.1980 N   0  0  0  0  0  2  0  0  0  0  0  0
  185.1650  177.9810  141.4880 C   0  0  0  0  0  0  0  0  0  0  0  0
  185.2800  178.3160  140.2790 O   0  0  0  0  0  0  0  0  0  0  0  0
  189.6810  175.0510  147.2550 N   0  0  0  0  0  2  0  0  0  0  0  0
  188.1690  176.8550  146.1390 C   0  0  0  0  0  0  0  0  0  0  0  0
  188.8670  176.0200  146.6550 C   0  0  0  0  0  0  0  0  0  0  0  0
  187.3210  177.8700  145.5090 C   0  0  0  0  0  2  0  0  0  0  0  0
  185.9310  177.8460  146.1230 C   0  0  2  0  0  3  0  0  0  0  0  0
  185.3430  176.5920  145.9340 O   0  0  0  0  0  1  0  0  0  0  0  0
  185.0810  178.9080  145.5100 C   0  0  0  0  0  0  0  0  0  0  0  0
  185.5800  179.7500  144.7170 O   0  0  0  0  0  0  0  0  0  0  0  0
  183.7340  178.9810  145.8360 O   0  0  0  0  0  1  0  0  0  0  0  0
  1 11  1  6  0  0  0
  1  9  1  0  0  0  0
  1  7  1  0  0  0  0
  2 22  1  6  0  0  0
  2  6  1  0  0  0  0
  3  8  1  0  0  0  0
  4 10  1  0  0  0  0
  4  3  2  0  0  0  0
  7  5  2  0  0  0  0
  8  6  2  0  0  0  0
  9  4  1  0  0  0  0
 10  7  1  1  0  0  0
 10  2  1  0  0  0  0
 12 11  1  0  0  0  0
 13 12  1  0  0  0  0
 13 14  1  0  0  0  0
 15 14  1  0  0  0  0
 16 17  1  0  0  0  0
 16 15  1  0  0  0  0
 17 19  1  0  0  0  0
 20 18  1  0  0  0  0
 20 19  1  0  0  0  0
 21 20  2  0  0  0  0
 23 24  3  0  0  0  0
 24 22  1  0  0  0  0
 25 26  1  0  0  0  0
 25 23  1  0  0  0  0
 26 27  1  6  0  0  0
 28 30  1  0  0  0  0
 28 26  1  0  0  0  0
 29 28  2  0  0  0  0
M  END
>  <MODEL>
6

>  <REMARK>
 VINA RESULT:      -5.9      2.753      6.738
  Name = 
  13 active torsions:
  status: ('A' for Active; 'I' for Inactive)
    1  A    between atoms: C_1  and  C_8
    2  A    between atoms: C_2  and  C_24
    3  A    between atoms: C_3  and  N_30
    4  A    between atoms: O_5  and  C_20
    5  A    between atoms: O_5  and  C_26
    6  A    between atoms: C_7  and  C_8
    7  A    between atoms: C_7  and  C_11
    8  A    between atoms: N_9  and  C_26
    9  A    between atoms: C_20  and  C_21
   10  A    between atoms: C_21  and  C_25
   11  A    between atoms: C_24  and  O_27
   12  A    between atoms: C_25  and  O_27
   13  A    between atoms: C_29  and  N_30
                            x       y       z     vdW  Elec       q    Type
                         _______ _______ _______ _____ _____    ______ ____

>  <TORSDO>
F 13

$$$$
=
 OpenBabel11042418303D

 30 31  0  0  1  0  0  0  0  0999 V2000
  186.3940  178.2970  143.0910 C   0  0  2  0  0  3  0  0  0  0  0  0
  187.3200  177.3480  146.5340 C   0  0  2  0  0  3  0  0  0  0  0  0
  185.1930  179.1710  146.3180 N   0  0  0  0  0  0  0  0  0  0  0  0
  185.5570  178.5060  145.2620 C   0  0  0  0  0  0  0  0  0  0  0  0
  187.8750  176.3340  143.5960 C   0  0  0  0  0  2  0  0  0  0  0  0
  186.5780  177.8290  147.7580 C   0  0  0  0  0  3  0  0  0  0  0  0
  186.9980  177.2540  144.0000 C   0  0  0  0  0  0  0  0  0  0  0  0
  185.5850  178.7210  147.6250 C   0  0  0  0  0  3  0  0  0  0  0  0
  185.5110  179.0640  143.9580 N   0  0  0  0  0  2  0  0  0  0  0  0
  186.3490  177.2470  145.3490 C   0  0  1  0  0  3  0  0  0  0  0  0
  185.5730  177.6600  141.9770 C   0  0  0  0  0  2  0  0  0  0  0  0
  185.7990  178.3280  140.7730 O   0  0  0  0  0  0  0  0  0  0  0  0
  184.5280  178.5730  140.2610 C   0  0  0  0  0  2  0  0  0  0  0  0
  183.4970  177.9270  141.1590 C   0  0  0  0  0  2  0  0  0  0  0  0
  182.1060  178.2170  140.6360 C   0  0  0  0  0  2  0  0  0  0  0  0
  181.2270  178.3330  141.7140 O   0  0  0  0  0  0  0  0  0  0  0  0
  180.4090  179.4180  141.3890 C   0  0  0  0  0  2  0  0  0  0  0  0
  177.7420  178.4570  138.8310 N   0  0  0  0  0  1  0  0  0  0  0  0
  179.7160  179.1510  140.1350 N   0  0  0  0  0  2  0  0  0  0  0  0
  178.3650  178.6890  140.0890 C   0  0  0  0  0  0  0  0  0  0  0  0
  177.7200  178.4860  141.1520 O   0  0  0  0  0  0  0  0  0  0  0  0
  187.9120  176.0500  146.8070 N   0  0  0  0  0  2  0  0  0  0  0  0
  190.4870  175.8210  147.1280 C   0  0  0  0  0  0  0  0  0  0  0  0
  189.2970  175.9270  146.9780 C   0  0  0  0  0  0  0  0  0  0  0  0
  191.9350  175.6900  147.3110 C   0  0  0  0  0  2  0  0  0  0  0  0
  192.6610  176.0590  146.0270 C   0  0  2  0  0  3  0  0  0  0  0  0
  192.5040  175.0460  145.0770 O   0  0  0  0  0  1  0  0  0  0  0  0
  194.1100  176.2830  146.3040 C   0  0  0  0  0  0  0  0  0  0  0  0
  194.9550  175.3790  146.0650 O   0  0  0  0  0  0  0  0  0  0  0  0
  194.5260  177.4890  146.8490 O   0  0  0  0  0  1  0  0  0  0  0  0
  1 11  1  6  0  0  0
  1  9  1  0  0  0  0
  1  7  1  0  0  0  0
  2 22  1  1  0  0  0
  2  6  1  0  0  0  0
  3  8  1  0  0  0  0
  4 10  1  0  0  0  0
  4  3  2  0  0  0  0
  5  7  2  0  0  0  0
  8  6  2  0  0  0  0
  9  4  1  0  0  0  0
 10  7  1  6  0  0  0
 10  2  1  0  0  0  0
 12 11  1  0  0  0  0
 13 12  1  0  0  0  0
 13 14  1  0  0  0  0
 15 14  1  0  0  0  0
 15 16  1  0  0  0  0
 17 16  1  0  0  0  0
 18 20  1  0  0  0  0
 19 17  1  0  0  0  0
 20 19  1  0  0  0  0
 20 21  2  0  0  0  0
 22 24  1  0  0  0  0
 23 25  1  0  0  0  0
 24 23  3  0  0  0  0
 26 27  1  6  0  0  0
 26 28  1  0  0  0  0
 26 25  1  0  0  0  0
 28 30  1  0  0  0  0
 29 28  2  0  0  0  0
M  END
>  <MODEL>
7

>  <REMARK>
 VINA RESULT:      -5.8      3.417      5.264
  Name = 
  13 active torsions:
  status: ('A' for Active; 'I' for Inactive)
    1  A    between atoms: C_1  and  C_8
    2  A    between atoms: C_2  and  C_24
    3  A    between atoms: C_3  and  N_30
    4  A    between atoms: O_5  and  C_20
    5  A    between atoms: O_5  and  C_26
    6  A    between atoms: C_7  and  C_8
    7  A    between atoms: C_7  and  C_11
    8  A    between atoms: N_9  and  C_26
    9  A    between atoms: C_20  and  C_21
   10  A    between atoms: C_21  and  C_25
   11  A    between atoms: C_24  and  O_27
   12  A    between atoms: C_25  and  O_27
   13  A    between atoms: C_29  and  N_30
                            x       y       z     vdW  Elec       q    Type
                         _______ _______ _______ _____ _____    ______ ____

>  <TORSDO>
F 13

$$$$
=
 OpenBabel11042418303D

 30 31  0  0  1  0  0  0  0  0999 V2000
  192.0820  172.5600  144.2630 C   0  0  2  0  0  3  0  0  0  0  0  0
  190.6360  174.8490  146.7680 C   0  0  2  0  0  3  0  0  0  0  0  0
  193.1040  175.6490  145.6890 N   0  0  0  0  0  0  0  0  0  0  0  0
  192.4260  174.7200  145.0810 C   0  0  0  0  0  0  0  0  0  0  0  0
  189.6930  172.3990  145.0150 C   0  0  0  0  0  2  0  0  0  0  0  0
  191.2640  176.1680  147.1510 C   0  0  0  0  0  3  0  0  0  0  0  0
  190.8340  173.0840  144.9300 C   0  0  0  0  0  0  0  0  0  0  0  0
  192.4560  176.5090  146.6410 C   0  0  0  0  0  3  0  0  0  0  0  0
  193.0520  173.6360  144.4140 N   0  0  0  0  0  2  0  0  0  0  0  0
  190.9650  174.5270  145.3040 C   0  0  1  0  0  3  0  0  0  0  0  0
  191.8550  172.2950  142.7800 C   0  0  0  0  0  2  0  0  0  0  0  0
  191.5470  173.4860  142.1220 O   0  0  0  0  0  0  0  0  0  0  0  0
  190.8610  173.0900  140.9770 C   0  0  0  0  0  2  0  0  0  0  0  0
  189.4860  172.5960  141.3670 C   0  0  0  0  0  2  0  0  0  0  0  0
  188.4300  173.5400  140.8300 C   0  0  0  0  0  2  0  0  0  0  0  0
  187.8670  174.2490  141.8920 O   0  0  0  0  0  0  0  0  0  0  0  0
  188.1750  175.5860  141.6300 C   0  0  0  0  0  2  0  0  0  0  0  0
  190.6630  177.7580  143.5460 N   0  0  0  0  0  1  0  0  0  0  0  0
  189.2500  176.0230  142.5120 N   0  0  0  0  0  2  0  0  0  0  0  0
  189.6110  177.3970  142.6590 C   0  0  0  0  0  0  0  0  0  0  0  0
  189.0050  178.2920  142.0120 O   0  0  0  0  0  0  0  0  0  0  0  0
  189.1970  174.9290  146.9510 N   0  0  0  0  0  2  0  0  0  0  0  0
  187.8310  176.8260  145.8030 C   0  0  0  0  0  0  0  0  0  0  0  0
  188.4620  175.9480  146.3340 C   0  0  0  0  0  0  0  0  0  0  0  0
  187.0660  177.8950  145.1550 C   0  0  0  0  0  2  0  0  0  0  0  0
  185.6620  177.4100  144.8300 C   0  0  2  0  0  3  0  0  0  0  0  0
  185.5660  177.0890  143.4730 O   0  0  0  0  0  1  0  0  0  0  0  0
  184.6630  178.4620  145.1800 C   0  0  0  0  0  0  0  0  0  0  0  0
  184.0650  178.4350  146.2890 O   0  0  0  0  0  1  0  0  0  0  0  0
  184.3740  179.4640  144.2640 O   0  0  0  0  0  0  0  0  0  0  0  0
  1 11  1  6  0  0  0
  1  9  1  0  0  0  0
  1  7  1  0  0  0  0
  2 22  1  6  0  0  0
  2  6  1  0  0  0  0
  3  8  1  0  0  0  0
  4 10  1  0  0  0  0
  4  3  2  0  0  0  0
  7  5  2  0  0  0  0
  8  6  2  0  0  0  0
  9  4  1  0  0  0  0
 10  7  1  1  0  0  0
 10  2  1  0  0  0  0
 12 11  1  0  0  0  0
 13 14  1  0  0  0  0
 13 12  1  0  0  0  0
 15 14  1  0  0  0  0
 15 16  1  0  0  0  0
 17 16  1  0  0  0  0
 17 19  1  0  0  0  0
 19 20  1  0  0  0  0
 20 18  1  0  0  0  0
 21 20  2  0  0  0  0
 23 24  3  0  0  0  0
 24 22  1  0  0  0  0
 25 23  1  0  0  0  0
 26 27  1  6  0  0  0
 26 25  1  0  0  0  0
 26 28  1  0  0  0  0
 28 29  1  0  0  0  0
 30 28  2  0  0  0  0
M  END
>  <MODEL>
8

>  <REMARK>
 VINA RESULT:      -5.8      2.983      7.253
  Name = 
  13 active torsions:
  status: ('A' for Active; 'I' for Inactive)
    1  A    between atoms: C_1  and  C_8
    2  A    between atoms: C_2  and  C_24
    3  A    between atoms: C_3  and  N_30
    4  A    between atoms: O_5  and  C_20
    5  A    between atoms: O_5  and  C_26
    6  A    between atoms: C_7  and  C_8
    7  A    between atoms: C_7  and  C_11
    8  A    between atoms: N_9  and  C_26
    9  A    between atoms: C_20  and  C_21
   10  A    between atoms: C_21  and  C_25
   11  A    between atoms: C_24  and  O_27
   12  A    between atoms: C_25  and  O_27
   13  A    between atoms: C_29  and  N_30
                            x       y       z     vdW  Elec       q    Type
                         _______ _______ _______ _____ _____    ______ ____

>  <TORSDO>
F 13

$$$$
=
 OpenBabel11042418303D

 30 31  0  0  1  0  0  0  0  0999 V2000
  188.6270  177.2930  146.2500 C   0  0  2  0  0  3  0  0  0  0  0  0
  191.8650  177.0520  144.4990 C   0  0  2  0  0  3  0  0  0  0  0  0
  191.9150  176.3660  147.2230 N   0  0  0  0  0  0  0  0  0  0  0  0
  190.7680  176.4330  146.6160 C   0  0  0  0  0  0  0  0  0  0  0  0
  188.8120  177.3330  143.7470 C   0  0  0  0  0  2  0  0  0  0  0  0
  193.1300  176.5500  145.1540 C   0  0  0  0  0  3  0  0  0  0  0  0
  189.3480  177.0780  144.9420 C   0  0  0  0  0  0  0  0  0  0  0  0
  193.1300  176.2570  146.4630 C   0  0  0  0  0  3  0  0  0  0  0  0
  189.5890  176.8840  147.2640 N   0  0  0  0  0  2  0  0  0  0  0  0
  190.6480  176.3620  145.1320 C   0  0  1  0  0  3  0  0  0  0  0  0
  187.3860  176.4150  146.3560 C   0  0  0  0  0  2  0  0  0  0  0  0
  186.7600  176.6160  147.5860 O   0  0  0  0  0  0  0  0  0  0  0  0
  186.0070  177.7750  147.4130 C   0  0  0  0  0  2  0  0  0  0  0  0
  184.8320  177.4730  146.5110 C   0  0  0  0  0  2  0  0  0  0  0  0
  184.5770  178.6480  145.5900 C   0  0  0  0  0  2  0  0  0  0  0  0
  185.7820  179.0420  145.0070 O   0  0  0  0  0  0  0  0  0  0  0  0
  185.4080  179.7980  143.8940 C   0  0  0  0  0  2  0  0  0  0  0  0
  185.7980  177.7100  140.7210 N   0  0  0  0  0  1  0  0  0  0  0  0
  185.9510  179.1930  142.6850 N   0  0  0  0  0  2  0  0  0  0  0  0
  185.2140  178.2570  141.8980 C   0  0  0  0  0  0  0  0  0  0  0  0
  184.0490  177.9130  142.2350 O   0  0  0  0  0  0  0  0  0  0  0  0
  191.9150  176.7710  143.0750 N   0  0  0  0  0  2  0  0  0  0  0  0
  194.1490  176.0300  141.9600 C   0  0  0  0  0  0  0  0  0  0  0  0
  193.1160  176.3730  142.4750 C   0  0  0  0  0  0  0  0  0  0  0  0
  195.4050  175.6090  141.3340 C   0  0  0  0  0  2  0  0  0  0  0  0
  196.2300  174.7910  142.3130 C   0  0  2  0  0  3  0  0  0  0  0  0
  195.4760  173.7180  142.7990 O   0  0  0  0  0  1  0  0  0  0  0  0
  196.6860  175.6510  143.4440 C   0  0  0  0  0  0  0  0  0  0  0  0
  196.4400  175.3250  144.6370 O   0  0  0  0  0  1  0  0  0  0  0  0
  197.3660  176.8310  143.1780 O   0  0  0  0  0  0  0  0  0  0  0  0
  1 11  1  6  0  0  0
  1  9  1  0  0  0  0
  2 22  1  6  0  0  0
  2 10  1  0  0  0  0
  2  6  1  0  0  0  0
  4  3  2  0  0  0  0
  4  9  1  0  0  0  0
  5  7  2  0  0  0  0
  6  8  2  0  0  0  0
  7  1  1  0  0  0  0
  8  3  1  0  0  0  0
 10  7  1  6  0  0  0
 10  4  1  0  0  0  0
 11 12  1  0  0  0  0
 13 12  1  0  0  0  0
 14 13  1  0  0  0  0
 15 14  1  0  0  0  0
 16 15  1  0  0  0  0
 17 16  1  0  0  0  0
 18 20  1  0  0  0  0
 19 17  1  0  0  0  0
 20 21  2  0  0  0  0
 20 19  1  0  0  0  0
 23 24  3  0  0  0  0
 24 22  1  0  0  0  0
 25 23  1  0  0  0  0
 25 26  1  0  0  0  0
 26 27  1  1  0  0  0
 26 28  1  0  0  0  0
 28 29  1  0  0  0  0
 30 28  2  0  0  0  0
M  END
>  <MODEL>
9

>  <REMARK>
 VINA RESULT:      -5.8      1.444      2.355
  Name = 
  13 active torsions:
  status: ('A' for Active; 'I' for Inactive)
    1  A    between atoms: C_1  and  C_8
    2  A    between atoms: C_2  and  C_24
    3  A    between atoms: C_3  and  N_30
    4  A    between atoms: O_5  and  C_20
    5  A    between atoms: O_5  and  C_26
    6  A    between atoms: C_7  and  C_8
    7  A    between atoms: C_7  and  C_11
    8  A    between atoms: N_9  and  C_26
    9  A    between atoms: C_20  and  C_21
   10  A    between atoms: C_21  and  C_25
   11  A    between atoms: C_24  and  O_27
   12  A    between atoms: C_25  and  O_27
   13  A    between atoms: C_29  and  N_30
                            x       y       z     vdW  Elec       q    Type
                         _______ _______ _______ _____ _____    ______ ____

>  <TORSDO>
F 13

$$$$
