=
 OpenBabel11042418483D

 60 66  0  0  1  0  0  0  0  0999 V2000
  188.3400  177.7620  143.3110 C   0  0  1  0  0  3  0  0  0  0  0  0
  189.5520  176.9480  142.8470 C   0  0  1  0  0  0  0  0  0  0  0  0
  188.9540  177.9920  141.9290 C   0  0  0  0  0  2  0  0  0  0  0  0
  187.1900  176.9480  143.2380 O   0  0  0  0  0  0  0  0  0  0  0  0
  186.0910  177.6550  143.7550 C   0  0  0  0  0  0  0  0  0  0  0  0
  184.9590  177.6700  142.7400 C   0  0  0  0  0  2  0  0  0  0  0  0
  185.7190  178.9510  143.0530 C   0  0  0  0  0  2  0  0  0  0  0  0
  185.6560  177.3950  145.2130 C   0  0  2  0  0  3  0  0  0  0  0  0
  184.2490  178.2430  146.9590 O   0  0  0  0  0  1  0  0  0  0  0  0
  184.5050  178.3220  145.5910 C   0  0  0  0  0  2  0  0  0  0  0  0
  186.8090  177.5560  146.2090 C   0  0  0  0  0  2  0  0  0  0  0  0
  187.2170  176.2310  146.8200 C   0  0  0  0  0  2  0  0  0  0  0  0
  188.7240  176.1940  146.9460 C   0  0  0  0  0  2  0  0  0  0  0  0
  190.5640  174.7980  145.9830 C   0  0  0  0  0  0  0  0  0  0  0  0
  189.2780  175.1650  146.0140 C   0  0  0  0  0  3  0  0  0  0  0  0
  191.6450  171.2120  143.9550 C   0  0  1  0  0  3  0  0  0  0  0  0
  192.4070  173.3180  145.0970 C   0  0  0  0  0  2  0  0  0  0  0  0
  191.8360  170.3610  142.7170 C   0  0  0  0  0  1  0  0  0  0  0  0
  190.0770  172.6380  145.0890 O   0  0  0  0  0  0  0  0  0  0  0  0
  192.7150  172.3060  143.9990 C   0  0  0  0  0  2  0  0  0  0  0  0
  190.9410  173.7480  144.9790 C   0  0  1  0  0  3  0  0  0  0  0  0
  190.2630  171.8630  143.9300 C   0  0  0  0  0  2  0  0  0  0  0  0
  191.5050  175.1050  148.1580 O   0  0  0  0  0  0  0  0  0  0  0  0
  191.5800  175.3480  146.9210 C   0  0  0  0  0  0  0  0  0  0  0  0
  192.6480  176.1600  146.4200 N   0  0  0  0  0  2  0  0  0  0  0  0
  194.6020  177.4210  146.5700 O   0  0  0  0  0  1  0  0  0  0  0  0
  193.5480  176.8820  147.3090 C   0  0  0  0  0  2  0  0  0  0  0  0
  190.8680  177.3040  143.5240 C   0  0  0  0  0  2  0  0  0  0  0  0
  191.9720  177.1210  142.5940 N   0  0  0  0  0  2  0  0  0  0  0  0
  193.0260  176.4730  143.3510 C   0  0  0  0  0  2  0  0  0  0  0  0
  195.4610  176.0510  143.0330 O   0  0  0  0  0  1  0  0  0  0  0  0
  194.2000  176.2260  142.4740 C   0  0  0  0  0  0  0  0  0  0  0  0
  194.0550  176.1850  141.2250 O   0  0  0  0  0  0  0  0  0  0  0  0
  189.2750  175.5580  142.6030 O   0  0  0  0  0  0  0  0  0  0  0  0
  188.5770  173.3650  138.3110 O   0  0  0  0  0  0  0  0  0  0  0  0
  191.5520  171.4920  137.7390 C   0  0  0  0  0  0  0  0  0  0  0  0
  189.3610  172.5350  137.6560 C   0  0  0  0  0  0  0  0  0  0  0  0
  189.2580  173.7580  139.3630 C   0  0  0  0  0  0  0  0  0  0  0  0
  189.0310  171.8680  136.5250 N   0  0  0  0  0  0  0  0  0  0  0  0
  190.5930  172.3830  138.2660 C   0  0  0  0  0  0  0  0  0  0  0  0
  190.5300  173.2130  139.3710 C   0  0  0  0  0  0  0  0  0  0  0  0
  189.6780  174.8230  141.4770 C   0  0  0  0  0  0  0  0  0  0  0  0
  189.9010  170.9610  136.0080 C   0  0  0  0  0  3  0  0  0  0  0  0
  191.4170  173.4660  140.4100 C   0  0  0  0  0  3  0  0  0  0  0  0
  191.1590  170.7550  136.6030 C   0  0  0  0  0  3  0  0  0  0  0  0
  188.8010  174.5690  140.4010 C   0  0  0  0  0  3  0  0  0  0  0  0
  190.9850  174.2930  141.4600 C   0  0  0  0  0  3  0  0  0  0  0  0
  194.8290  170.9460  139.4840 C   0  0  0  0  0  0  0  0  0  0  0  0
  193.4050  170.5120  139.3700 C   0  0  0  0  0  2  0  0  0  0  0  0
  195.0650  171.8690  138.5500 C   0  0  0  0  0  0  0  0  0  0  0  0
  192.9530  171.3530  138.2180 C   0  0  0  0  0  0  0  0  0  0  0  0
  193.8990  172.1170  137.7730 N   0  0  0  0  0  0  0  0  0  0  0  0
  195.7420  170.4660  140.4890 N   0  0  0  0  0  0  0  0  0  0  0  0
  195.7570  171.0950  141.8040 C   0  0  0  0  0  1  0  0  0  0  0  0
  196.5910  169.2990  140.2850 C   0  0  0  0  0  2  0  0  0  0  0  0
  196.4760  168.3560  141.4710 C   0  0  0  0  0  1  0  0  0  0  0  0
  196.2970  172.7090  138.4080 C   0  0  0  0  0  2  0  0  0  0  0  0
  196.0370  174.1380  138.8850 C   0  0  0  0  0  2  0  0  0  0  0  0
  197.2910  174.9450  138.8560 C   0  0  0  0  0  3  0  0  0  0  0  0
  197.8100  175.3900  139.9390 N   0  0  0  0  0  2  0  0  0  0  0  0
  1  4  1  6  0  0  0
  2  1  1  0  0  0  0
  2 28  1  1  0  0  0
  3  2  1  0  0  0  0
  3  1  1  0  0  0  0
  4  5  1  0  0  0  0
  5  8  1  0  0  0  0
  6  7  1  0  0  0  0
  6  5  1  0  0  0  0
  7  5  1  0  0  0  0
  8 10  1  1  0  0  0
  8 11  1  0  0  0  0
 10  9  1  0  0  0  0
 11 12  1  0  0  0  0
 12 13  1  0  0  0  0
 14 15  2  0  0  0  0
 14 24  1  0  0  0  0
 15 13  1  0  0  0  0
 16 18  1  6  0  0  0
 16 20  1  0  0  0  0
 20 17  1  0  0  0  0
 21 19  1  0  0  0  0
 21 17  1  0  0  0  0
 21 14  1  1  0  0  0
 22 16  1  0  0  0  0
 22 19  1  0  0  0  0
 24 23  2  0  0  0  0
 25 24  1  0  0  0  0
 25 27  1  0  0  0  0
 26 27  1  0  0  0  0
 29 30  1  0  0  0  0
 29 28  1  0  0  0  0
 32 31  1  0  0  0  0
 32 30  1  0  0  0  0
 33 32  2  0  0  0  0
 34  2  1  0  0  0  0
 35 38  1  0  0  0  0
 36 51  1  0  0  0  0
 36 40  2  0  0  0  0
 37 40  1  0  0  0  0
 37 35  1  0  0  0  0
 38 41  2  0  0  0  0
 38 46  1  0  0  0  0
 39 37  2  0  0  0  0
 40 41  1  0  0  0  0
 41 44  1  0  0  0  0
 42 34  1  0  0  0  0
 43 39  1  0  0  0  0
 43 45  2  0  0  0  0
 44 47  2  0  0  0  0
 45 36  1  0  0  0  0
 46 42  2  0  0  0  0
 47 42  1  0  0  0  0
 48 53  1  0  0  0  0
 49 48  1  0  0  0  0
 50 48  2  0  0  0  0
 51 49  1  0  0  0  0
 52 51  2  0  0  0  0
 52 50  1  0  0  0  0
 53 54  1  0  0  0  0
 55 53  1  0  0  0  0
 55 56  1  0  0  0  0
 57 50  1  0  0  0  0
 57 58  1  0  0  0  0
 59 58  1  0  0  0  0
 59 60  2  0  0  0  0
M  END
>  <MODEL>
1

>  <REMARK>
 VINA RESULT:      -5.8      0.000      0.000
  Name = 
  23 active torsions:
  status: ('A' for Active; 'I' for Inactive)
    1  A    between atoms: O_2  and  C_18
    2  A    between atoms: O_2  and  C_46
    3  A    between atoms: C_3  and  N_23
    4  A    between atoms: C_4  and  C_9
    5  A    between atoms: C_4  and  C_38
    6  A    between atoms: C_5  and  C_18
    7  A    between atoms: C_5  and  N_33
    8  A    between atoms: C_7  and  N_23
    9  A    between atoms: C_9  and  C_17
   10  A    between atoms: C_11  and  C_36
   11  A    between atoms: C_11  and  C_40
   12  A    between atoms: C_14  and  O_59
   13  A    between atoms: C_15  and  C_25
   14  A    between atoms: C_16  and  C_28
   15  A    between atoms: C_21  and  C_60
   16  A    between atoms: C_28  and  C_45
   17  A    between atoms: C_30  and  C_31
   18  A    between atoms: C_31  and  N_33
   19  A    between atoms: C_38  and  C_60
   20  A    between atoms: C_39  and  O_59
   21  A    between atoms: C_39  and  C_60
   22  A    between atoms: C_43  and  C_45
   23  A    between atoms: C_56  and  N_58
                            x       y       z     vdW  Elec       q    Type
                         _______ _______ _______ _____ _____    ______ ____

>  <TORSDO>
F 23

$$$$
=
 OpenBabel11042418483D

 60 66  0  0  1  0  0  0  0  0999 V2000
  193.1590  170.0860  140.6350 C   0  0  1  0  0  3  0  0  0  0  0  0
  192.3810  170.3350  141.9310 C   0  0  1  0  0  0  0  0  0  0  0  0
  193.1410  169.0390  141.7500 C   0  0  0  0  0  2  0  0  0  0  0  0
  192.2470  169.7670  139.6080 O   0  0  0  0  0  0  0  0  0  0  0  0
  192.6220  170.4370  138.4320 C   0  0  0  0  0  0  0  0  0  0  0  0
  193.3280  169.4750  137.4890 C   0  0  0  0  0  2  0  0  0  0  0  0
  194.1130  170.5840  138.1740 C   0  0  0  0  0  2  0  0  0  0  0  0
  191.6080  171.3850  137.7570 C   0  0  2  0  0  3  0  0  0  0  0  0
  189.7850  169.9660  137.1190 O   0  0  0  0  0  1  0  0  0  0  0  0
  190.8870  170.6620  136.6240 C   0  0  0  0  0  2  0  0  0  0  0  0
  192.2610  172.6670  137.2300 C   0  0  0  0  0  2  0  0  0  0  0  0
  192.0610  173.8320  138.1780 C   0  0  0  0  0  2  0  0  0  0  0  0
  193.3990  174.2130  138.7740 C   0  0  0  0  0  2  0  0  0  0  0  0
  194.2030  174.9770  141.0170 C   0  0  0  0  0  0  0  0  0  0  0  0
  193.2330  174.4930  140.2330 C   0  0  0  0  0  3  0  0  0  0  0  0
  193.0780  174.5850  145.1070 C   0  0  1  0  0  3  0  0  0  0  0  0
  192.3570  175.0250  142.7380 C   0  0  0  0  0  2  0  0  0  0  0  0
  192.9510  175.0860  146.5310 C   0  0  0  0  0  1  0  0  0  0  0  0
  194.6220  174.3430  143.2810 O   0  0  0  0  0  0  0  0  0  0  0  0
  192.0890  175.3320  144.2080 C   0  0  0  0  0  2  0  0  0  0  0  0
  193.8550  175.1960  142.4610 C   0  0  1  0  0  3  0  0  0  0  0  0
  194.4990  174.8250  144.5960 C   0  0  0  0  0  2  0  0  0  0  0  0
  196.0360  176.4840  140.7300 O   0  0  0  0  0  0  0  0  0  0  0  0
  195.5490  175.3420  140.4980 C   0  0  0  0  0  0  0  0  0  0  0  0
  196.2970  174.3930  139.7290 N   0  0  0  0  0  2  0  0  0  0  0  0
  197.2230  175.1310  137.7220 O   0  0  0  0  0  1  0  0  0  0  0  0
  197.5230  174.7620  139.0340 C   0  0  0  0  0  2  0  0  0  0  0  0
  192.9950  171.3640  142.8670 C   0  0  0  0  0  2  0  0  0  0  0  0
  194.3390  170.9550  143.2460 N   0  0  0  0  0  2  0  0  0  0  0  0
  194.3790  171.0090  144.6940 C   0  0  0  0  0  2  0  0  0  0  0  0
  196.6870  171.9060  144.4210 O   0  0  0  0  0  0  0  0  0  0  0  0
  195.7840  171.1480  145.1570 C   0  0  0  0  0  0  0  0  0  0  0  0
  196.1600  170.5730  146.2110 O   0  0  0  0  0  1  0  0  0  0  0  0
  190.9510  170.3370  141.7720 O   0  0  0  0  0  0  0  0  0  0  0  0
  188.4880  173.5940  139.1170 O   0  0  0  0  0  0  0  0  0  0  0  0
  187.6120  176.1760  141.4080 C   0  0  0  0  0  0  0  0  0  0  0  0
  187.9680  174.7470  139.4770 C   0  0  0  0  0  0  0  0  0  0  0  0
  188.9540  173.0430  140.2160 C   0  0  0  0  0  0  0  0  0  0  0  0
  187.4100  175.6540  138.6410 N   0  0  0  0  0  0  0  0  0  0  0  0
  188.0680  174.9680  140.8390 C   0  0  0  0  0  0  0  0  0  0  0  0
  188.6910  173.8310  141.3220 C   0  0  0  0  0  0  0  0  0  0  0  0
  190.1440  171.4710  141.5900 C   0  0  0  0  0  0  0  0  0  0  0  0
  187.0020  176.8530  139.1340 C   0  0  0  0  0  3  0  0  0  0  0  0
  189.1220  173.4600  142.5900 C   0  0  0  0  0  3  0  0  0  0  0  0
  187.1010  177.1350  140.5090 C   0  0  0  0  0  3  0  0  0  0  0  0
  189.6780  171.8570  140.3150 C   0  0  0  0  0  3  0  0  0  0  0  0
  189.8400  172.2600  142.7190 C   0  0  0  0  0  3  0  0  0  0  0  0
  187.9530  176.5900  145.1220 C   0  0  0  0  0  0  0  0  0  0  0  0
  188.6780  176.4300  143.8280 C   0  0  0  0  0  3  0  0  0  0  0  0
  186.6460  176.6790  144.8650 C   0  0  1  0  0  3  0  0  0  0  0  0
  187.5330  176.4660  142.8640 C   0  0  0  0  0  0  0  0  0  0  0  0
  186.3950  176.5990  143.4670 N   0  0  0  0  0  0  0  0  0  0  0  0
  188.5910  176.5810  146.4130 N   0  0  0  0  0  0  0  0  0  0  0  0
  189.1920  177.8070  146.9250 C   0  0  0  0  0  1  0  0  0  0  0  0
  188.5740  175.4170  147.2890 C   0  0  0  0  0  2  0  0  0  0  0  0
  189.3720  174.2840  146.6670 C   0  0  0  0  0  1  0  0  0  0  0  0
  185.5310  176.6680  145.8660 C   0  0  0  0  0  2  0  0  0  0  0  0
  184.9210  178.0610  146.0150 C   0  0  0  0  0  2  0  0  0  0  0  0
  185.2290  178.6360  147.3560 C   0  0  0  0  0  3  0  0  0  0  0  0
  185.8540  177.9470  148.2370 N   0  0  0  0  0  2  0  0  0  0  0  0
  1  4  1  6  0  0  0
  1  3  1  0  0  0  0
  1  2  1  0  0  0  0
  2 28  1  1  0  0  0
  3  2  1  0  0  0  0
  5  4  1  0  0  0  0
  6  7  1  0  0  0  0
  6  5  1  0  0  0  0
  7  5  1  0  0  0  0
  8 10  1  6  0  0  0
  8  5  1  0  0  0  0
 10  9  1  0  0  0  0
 11  8  1  0  0  0  0
 11 12  1  0  0  0  0
 12 13  1  0  0  0  0
 13 15  1  0  0  0  0
 15 14  2  0  0  0  0
 16 18  1  1  0  0  0
 17 20  1  0  0  0  0
 19 22  1  0  0  0  0
 20 16  1  0  0  0  0
 21 14  1  6  0  0  0
 21 17  1  0  0  0  0
 21 19  1  0  0  0  0
 22 16  1  0  0  0  0
 24 23  2  0  0  0  0
 24 14  1  0  0  0  0
 25 24  1  0  0  0  0
 26 27  1  0  0  0  0
 27 25  1  0  0  0  0
 28 29  1  0  0  0  0
 29 30  1  0  0  0  0
 30 32  1  0  0  0  0
 31 32  2  0  0  0  0
 32 33  1  0  0  0  0
 34  2  1  0  0  0  0
 35 37  1  0  0  0  0
 35 38  1  0  0  0  0
 36 51  1  0  0  0  0
 37 40  1  0  0  0  0
 38 46  2  0  0  0  0
 38 41  1  0  0  0  0
 39 43  1  0  0  0  0
 39 37  2  0  0  0  0
 40 41  1  0  0  0  0
 40 36  2  0  0  0  0
 41 44  2  0  0  0  0
 42 34  1  0  0  0  0
 42 47  2  0  0  0  0
 43 45  2  0  0  0  0
 44 47  1  0  0  0  0
 45 36  1  0  0  0  0
 46 42  1  0  0  0  0
 48 53  1  0  0  0  0
 49 48  2  0  0  0  0
 50 48  1  0  0  0  0
 50 57  1  1  0  0  0
 51 52  2  0  0  0  0
 51 49  1  0  0  0  0
 52 50  1  0  0  0  0
 53 54  1  0  0  0  0
 53 55  1  0  0  0  0
 56 55  1  0  0  0  0
 57 58  1  0  0  0  0
 58 59  1  0  0  0  0
 59 60  2  0  0  0  0
M  END
>  <MODEL>
2

>  <REMARK>
 VINA RESULT:      -5.5      2.786      8.751
  Name = 
  23 active torsions:
  status: ('A' for Active; 'I' for Inactive)
    1  A    between atoms: O_2  and  C_18
    2  A    between atoms: O_2  and  C_46
    3  A    between atoms: C_3  and  N_23
    4  A    between atoms: C_4  and  C_9
    5  A    between atoms: C_4  and  C_38
    6  A    between atoms: C_5  and  C_18
    7  A    between atoms: C_5  and  N_33
    8  A    between atoms: C_7  and  N_23
    9  A    between atoms: C_9  and  C_17
   10  A    between atoms: C_11  and  C_36
   11  A    between atoms: C_11  and  C_40
   12  A    between atoms: C_14  and  O_59
   13  A    between atoms: C_15  and  C_25
   14  A    between atoms: C_16  and  C_28
   15  A    between atoms: C_21  and  C_60
   16  A    between atoms: C_28  and  C_45
   17  A    between atoms: C_30  and  C_31
   18  A    between atoms: C_31  and  N_33
   19  A    between atoms: C_38  and  C_60
   20  A    between atoms: C_39  and  O_59
   21  A    between atoms: C_39  and  C_60
   22  A    between atoms: C_43  and  C_45
   23  A    between atoms: C_56  and  N_58
                            x       y       z     vdW  Elec       q    Type
                         _______ _______ _______ _____ _____    ______ ____

>  <TORSDO>
F 23

$$$$
=
 OpenBabel11042418483D

 60 66  0  0  1  0  0  0  0  0999 V2000
  194.8680  174.2590  144.6550 C   0  0  1  0  0  3  0  0  0  0  0  0
  195.9030  174.1390  143.5320 C   0  0  1  0  0  0  0  0  0  0  0  0
  196.3590  174.4390  144.9430 C   0  0  0  0  0  2  0  0  0  0  0  0
  194.2090  175.5000  144.5370 O   0  0  0  0  0  0  0  0  0  0  0  0
  192.9400  175.4080  145.1330 C   0  0  0  0  0  0  0  0  0  0  0  0
  192.9980  174.4790  146.3360 C   0  0  0  0  0  2  0  0  0  0  0  0
  192.2550  174.0520  145.0780 C   0  0  0  0  0  2  0  0  0  0  0  0
  192.1190  176.6980  145.3450 C   0  0  2  0  0  3  0  0  0  0  0  0
  190.6510  177.0020  147.2140 O   0  0  0  0  0  1  0  0  0  0  0  0
  190.7730  176.3650  145.9800 C   0  0  0  0  0  2  0  0  0  0  0  0
  191.9080  177.4810  144.0440 C   0  0  0  0  0  2  0  0  0  0  0  0
  190.6120  178.2660  144.0620 C   0  0  0  0  0  2  0  0  0  0  0  0
  189.8370  177.9590  142.8000 C   0  0  0  0  0  2  0  0  0  0  0  0
  189.0550  175.5890  142.6210 C   0  0  0  0  0  0  0  0  0  0  0  0
  190.0050  176.5160  142.4500 C   0  0  0  0  0  3  0  0  0  0  0  0
  190.6180  171.6390  142.3030 C   0  0  1  0  0  3  0  0  0  0  0  0
  190.8350  174.0660  141.6800 C   0  0  0  0  0  2  0  0  0  0  0  0
  190.6400  170.2320  141.7420 C   0  0  0  0  0  1  0  0  0  0  0  0
  189.1840  173.2980  143.2860 O   0  0  0  0  0  0  0  0  0  0  0  0
  191.0730  172.6290  141.2270 C   0  0  0  0  0  2  0  0  0  0  0  0
  189.4020  174.1870  142.2120 C   0  0  1  0  0  3  0  0  0  0  0  0
  189.2010  171.9990  142.7480 C   0  0  0  0  0  2  0  0  0  0  0  0
  186.6920  175.8430  142.3770 O   0  0  0  0  0  0  0  0  0  0  0  0
  187.6980  175.9140  143.1360 C   0  0  0  0  0  0  0  0  0  0  0  0
  187.5310  176.3120  144.5020 N   0  0  0  0  0  2  0  0  0  0  0  0
  186.1000  178.1500  144.5800 O   0  0  0  0  0  1  0  0  0  0  0  0
  186.2650  176.8300  145.0020 C   0  0  0  0  0  2  0  0  0  0  0  0
  196.1430  172.7260  143.0210 C   0  0  0  0  0  2  0  0  0  0  0  0
  196.4660  171.8420  144.1310 N   0  0  0  0  0  2  0  0  0  0  0  0
  195.8320  170.5740  143.8260 C   0  0  0  0  0  2  0  0  0  0  0  0
  195.6070  170.1810  146.2760 O   0  0  0  0  0  1  0  0  0  0  0  0
  195.8960  169.6800  145.0120 C   0  0  0  0  0  0  0  0  0  0  0  0
  196.2190  168.4720  144.8730 O   0  0  0  0  0  0  0  0  0  0  0  0
  195.8580  175.2060  142.5680 O   0  0  0  0  0  0  0  0  0  0  0  0
  197.1110  175.5060  137.8700 O   0  0  0  0  0  0  0  0  0  0  0  0
  194.0950  174.9060  136.0730 C   0  0  0  0  0  0  0  0  0  0  0  0
  196.3630  175.3930  136.7950 C   0  0  0  0  0  0  0  0  0  0  0  0
  196.3270  175.2410  138.8920 C   0  0  0  0  0  0  0  0  0  0  0  0
  196.7710  175.6210  135.5240 N   0  0  0  0  0  0  0  0  0  0  0  0
  195.0620  175.0270  137.0940 C   0  0  0  0  0  0  0  0  0  0  0  0
  195.0540  174.9000  138.4710 C   0  0  0  0  0  0  0  0  0  0  0  0
  195.6420  175.0600  141.1880 C   0  0  0  0  0  0  0  0  0  0  0  0
  195.8650  175.5660  134.5130 C   0  0  0  0  0  3  0  0  0  0  0  0
  194.0470  174.6110  139.3840 C   0  0  0  0  0  3  0  0  0  0  0  0
  194.5260  175.2180  134.7670 C   0  0  0  0  0  3  0  0  0  0  0  0
  196.6550  175.3300  140.2440 C   0  0  0  0  0  3  0  0  0  0  0  0
  194.3560  174.6780  140.7520 C   0  0  0  0  0  3  0  0  0  0  0  0
  190.8900  173.0270  136.5990 C   0  0  0  0  0  0  0  0  0  0  0  0
  192.3480  173.0900  136.9130 C   0  0  0  0  0  2  0  0  0  0  0  0
  190.5660  174.1050  135.8820 C   0  0  0  0  0  0  0  0  0  0  0  0
  192.7150  174.3830  136.2520 C   0  0  0  0  0  0  0  0  0  0  0  0
  191.7010  174.9360  135.6700 N   0  0  0  0  0  0  0  0  0  0  0  0
  190.0290  171.9350  136.9740 N   0  0  0  0  0  0  0  0  0  0  0  0
  189.7850  170.8550  136.0250 C   0  0  0  0  0  1  0  0  0  0  0  0
  189.4650  171.8050  138.3110 C   0  0  0  0  0  2  0  0  0  0  0  0
  188.4380  172.8970  138.5530 C   0  0  0  0  0  1  0  0  0  0  0  0
  189.2590  174.3690  135.1980 C   0  0  0  0  0  2  0  0  0  0  0  0
  188.5840  175.6110  135.7780 C   0  0  0  0  0  2  0  0  0  0  0  0
  188.5770  176.7250  134.7860 C   0  0  0  0  0  3  0  0  0  0  0  0
  188.1210  177.8800  135.1010 N   0  0  0  0  0  2  0  0  0  0  0  0
  1  4  1  6  0  0  0
  1  3  1  0  0  0  0
  2 28  1  6  0  0  0
  2  1  1  0  0  0  0
  2  3  1  0  0  0  0
  4  5  1  0  0  0  0
  5  8  1  0  0  0  0
  5  6  1  0  0  0  0
  7  5  1  0  0  0  0
  7  6  1  0  0  0  0
  8 11  1  6  0  0  0
  8 10  1  0  0  0  0
 10  9  1  0  0  0  0
 11 12  1  0  0  0  0
 13 12  1  0  0  0  0
 14 24  1  0  0  0  0
 15 14  2  0  0  0  0
 15 13  1  0  0  0  0
 16 18  1  6  0  0  0
 16 22  1  0  0  0  0
 17 21  1  0  0  0  0
 20 17  1  0  0  0  0
 20 16  1  0  0  0  0
 21 14  1  1  0  0  0
 21 19  1  0  0  0  0
 22 19  1  0  0  0  0
 23 24  2  0  0  0  0
 24 25  1  0  0  0  0
 25 27  1  0  0  0  0
 26 27  1  0  0  0  0
 28 29  1  0  0  0  0
 30 29  1  0  0  0  0
 30 32  1  0  0  0  0
 32 31  1  0  0  0  0
 33 32  2  0  0  0  0
 34  2  1  0  0  0  0
 35 38  1  0  0  0  0
 36 51  1  0  0  0  0
 36 40  2  0  0  0  0
 37 40  1  0  0  0  0
 37 35  1  0  0  0  0
 38 46  1  0  0  0  0
 39 37  2  0  0  0  0
 40 41  1  0  0  0  0
 41 38  2  0  0  0  0
 41 44  1  0  0  0  0
 42 34  1  0  0  0  0
 43 45  2  0  0  0  0
 43 39  1  0  0  0  0
 44 47  2  0  0  0  0
 45 36  1  0  0  0  0
 46 42  2  0  0  0  0
 47 42  1  0  0  0  0
 48 49  1  0  0  0  0
 48 53  1  0  0  0  0
 50 48  2  0  0  0  0
 51 49  1  0  0  0  0
 52 50  1  0  0  0  0
 52 51  2  0  0  0  0
 53 55  1  0  0  0  0
 54 53  1  0  0  0  0
 55 56  1  0  0  0  0
 57 58  1  0  0  0  0
 57 50  1  0  0  0  0
 59 60  2  0  0  0  0
 59 58  1  0  0  0  0
M  END
>  <MODEL>
3

>  <REMARK>
 VINA RESULT:      -5.5      2.896      6.602
  Name = 
  23 active torsions:
  status: ('A' for Active; 'I' for Inactive)
    1  A    between atoms: O_2  and  C_18
    2  A    between atoms: O_2  and  C_46
    3  A    between atoms: C_3  and  N_23
    4  A    between atoms: C_4  and  C_9
    5  A    between atoms: C_4  and  C_38
    6  A    between atoms: C_5  and  C_18
    7  A    between atoms: C_5  and  N_33
    8  A    between atoms: C_7  and  N_23
    9  A    between atoms: C_9  and  C_17
   10  A    between atoms: C_11  and  C_36
   11  A    between atoms: C_11  and  C_40
   12  A    between atoms: C_14  and  O_59
   13  A    between atoms: C_15  and  C_25
   14  A    between atoms: C_16  and  C_28
   15  A    between atoms: C_21  and  C_60
   16  A    between atoms: C_28  and  C_45
   17  A    between atoms: C_30  and  C_31
   18  A    between atoms: C_31  and  N_33
   19  A    between atoms: C_38  and  C_60
   20  A    between atoms: C_39  and  O_59
   21  A    between atoms: C_39  and  C_60
   22  A    between atoms: C_43  and  C_45
   23  A    between atoms: C_56  and  N_58
                            x       y       z     vdW  Elec       q    Type
                         _______ _______ _______ _____ _____    ______ ____

>  <TORSDO>
F 23

$$$$
=
 OpenBabel11042418483D

 60 66  0  0  1  0  0  0  0  0999 V2000
  188.0930  177.9690  143.3530 C   0  0  1  0  0  3  0  0  0  0  0  0
  189.2160  177.0430  142.8740 C   0  0  1  0  0  0  0  0  0  0  0  0
  188.6680  178.1020  141.9420 C   0  0  0  0  0  2  0  0  0  0  0  0
  186.8790  177.2520  143.3530 O   0  0  0  0  0  0  0  0  0  0  0  0
  186.0420  177.7610  144.3600 C   0  0  0  0  0  0  0  0  0  0  0  0
  184.7990  178.3790  143.7380 C   0  0  0  0  0  2  0  0  0  0  0  0
  185.8480  179.2680  144.3910 C   0  0  0  0  0  2  0  0  0  0  0  0
  185.7840  176.9060  145.6190 C   0  0  2  0  0  3  0  0  0  0  0  0
  185.2440  178.0320  147.6640 O   0  0  0  0  0  1  0  0  0  0  0  0
  184.6980  177.5480  146.4760 C   0  0  0  0  0  2  0  0  0  0  0  0
  187.0520  176.6880  146.4520 C   0  0  0  0  0  2  0  0  0  0  0  0
  187.8870  175.5410  145.9190 C   0  0  0  0  0  2  0  0  0  0  0  0
  188.7860  175.0360  147.0250 C   0  0  0  0  0  2  0  0  0  0  0  0
  191.1490  175.8320  146.8210 C   0  0  0  0  0  0  0  0  0  0  0  0
  190.1920  174.9460  146.5250 C   0  0  0  0  0  3  0  0  0  0  0  0
  195.2410  174.8930  146.1000 C   0  0  1  0  0  3  0  0  0  0  0  0
  193.5250  176.6580  146.6120 C   0  0  0  0  0  2  0  0  0  0  0  0
  196.4180  174.5620  145.2050 C   0  0  0  0  0  1  0  0  0  0  0  0
  192.9640  174.2970  146.5870 O   0  0  0  0  0  0  0  0  0  0  0  0
  194.8460  176.3600  145.9110 C   0  0  0  0  0  2  0  0  0  0  0  0
  192.5050  175.5810  146.2270 C   0  0  1  0  0  3  0  0  0  0  0  0
  194.0510  174.0030  145.7440 C   0  0  0  0  0  2  0  0  0  0  0  0
  190.1450  177.9220  147.4010 O   0  0  0  0  0  0  0  0  0  0  0  0
  190.9240  176.9850  147.7340 C   0  0  0  0  0  0  0  0  0  0  0  0
  191.5940  177.0350  148.9990 N   0  0  0  0  0  2  0  0  0  0  0  0
  191.4750  177.8480  151.1800 O   0  0  0  0  0  1  0  0  0  0  0  0
  191.5650  178.2240  149.8380 C   0  0  0  0  0  2  0  0  0  0  0  0
  190.5820  177.3120  143.4880 C   0  0  0  0  0  2  0  0  0  0  0  0
  191.6210  177.1480  142.4830 N   0  0  0  0  0  2  0  0  0  0  0  0
  192.6920  176.4170  143.1320 C   0  0  0  0  0  2  0  0  0  0  0  0
  194.0530  176.8140  141.0840 O   0  0  0  0  0  0  0  0  0  0  0  0
  193.6820  175.9660  142.1210 C   0  0  0  0  0  0  0  0  0  0  0  0
  194.1800  174.8120  142.1980 O   0  0  0  0  0  1  0  0  0  0  0  0
  188.8170  175.6730  142.6910 O   0  0  0  0  0  0  0  0  0  0  0  0
  188.7860  173.4450  138.3610 O   0  0  0  0  0  0  0  0  0  0  0  0
  191.2450  170.8820  138.6260 C   0  0  0  0  0  0  0  0  0  0  0  0
  189.4870  172.4130  137.9440 C   0  0  0  0  0  0  0  0  0  0  0  0
  189.2320  173.7300  139.5640 C   0  0  0  0  0  0  0  0  0  0  0  0
  189.3200  171.7740  136.7620 N   0  0  0  0  0  0  0  0  0  0  0  0
  190.4300  172.0080  138.8720 C   0  0  0  0  0  0  0  0  0  0  0  0
  190.2780  172.8970  139.9210 C   0  0  0  0  0  0  0  0  0  0  0  0
  189.3140  174.7940  141.7170 C   0  0  0  0  0  0  0  0  0  0  0  0
  190.0460  170.6540  136.5020 C   0  0  0  0  0  3  0  0  0  0  0  0
  190.8850  172.9960  141.1670 C   0  0  0  0  0  3  0  0  0  0  0  0
  191.0040  170.1900  137.4210 C   0  0  0  0  0  3  0  0  0  0  0  0
  188.7270  174.6900  140.4380 C   0  0  0  0  0  3  0  0  0  0  0  0
  190.4040  173.9660  142.0600 C   0  0  0  0  0  3  0  0  0  0  0  0
  193.6990  169.7600  141.2330 C   0  0  0  0  0  0  0  0  0  0  0  0
  192.2740  169.7350  140.7900 C   0  0  0  0  0  2  0  0  0  0  0  0
  194.4200  170.3880  140.3020 C   0  0  0  0  0  0  0  0  0  0  0  0
  192.3840  170.4420  139.4750 C   0  0  0  0  0  0  0  0  0  0  0  0
  193.5980  170.8090  139.2200 N   0  0  0  0  0  0  0  0  0  0  0  0
  194.1630  169.2350  142.4910 N   0  0  0  0  0  0  0  0  0  0  0  0
  193.5590  169.7050  143.7320 C   0  0  0  0  0  1  0  0  0  0  0  0
  195.1500  168.1660  142.5800 C   0  0  0  0  0  2  0  0  0  0  0  0
  195.9940  168.3370  143.8310 C   0  0  0  0  0  1  0  0  0  0  0  0
  195.8560  170.8020  140.4060 C   0  0  0  0  0  2  0  0  0  0  0  0
  196.7480  169.8780  139.5790 C   0  0  0  0  0  2  0  0  0  0  0  0
  197.4420  170.6360  138.4970 C   0  0  0  0  0  3  0  0  0  0  0  0
  196.8080  171.0100  137.4490 N   0  0  0  0  0  2  0  0  0  0  0  0
  1  4  1  6  0  0  0
  2  1  1  0  0  0  0
  2 28  1  1  0  0  0
  3  2  1  0  0  0  0
  3  1  1  0  0  0  0
  4  5  1  0  0  0  0
  5  7  1  0  0  0  0
  5  8  1  0  0  0  0
  6  5  1  0  0  0  0
  6  7  1  0  0  0  0
  8 11  1  1  0  0  0
  8 10  1  0  0  0  0
 10  9  1  0  0  0  0
 12 11  1  0  0  0  0
 12 13  1  0  0  0  0
 14 24  1  0  0  0  0
 15 14  2  0  0  0  0
 15 13  1  0  0  0  0
 16 18  1  6  0  0  0
 20 16  1  0  0  0  0
 20 17  1  0  0  0  0
 21 19  1  0  0  0  0
 21 17  1  0  0  0  0
 21 14  1  1  0  0  0
 22 16  1  0  0  0  0
 22 19  1  0  0  0  0
 23 24  2  0  0  0  0
 24 25  1  0  0  0  0
 25 27  1  0  0  0  0
 27 26  1  0  0  0  0
 29 30  1  0  0  0  0
 29 28  1  0  0  0  0
 31 32  2  0  0  0  0
 32 33  1  0  0  0  0
 32 30  1  0  0  0  0
 34  2  1  0  0  0  0
 35 38  1  0  0  0  0
 36 40  2  0  0  0  0
 36 51  1  0  0  0  0
 37 35  1  0  0  0  0
 37 40  1  0  0  0  0
 38 41  2  0  0  0  0
 38 46  1  0  0  0  0
 39 37  2  0  0  0  0
 40 41  1  0  0  0  0
 41 44  1  0  0  0  0
 42 47  1  0  0  0  0
 42 34  1  0  0  0  0
 43 39  1  0  0  0  0
 43 45  2  0  0  0  0
 44 47  2  0  0  0  0
 45 36  1  0  0  0  0
 46 42  2  0  0  0  0
 48 53  1  0  0  0  0
 49 48  1  0  0  0  0
 50 57  1  0  0  0  0
 50 48  2  0  0  0  0
 51 49  1  0  0  0  0
 52 51  2  0  0  0  0
 52 50  1  0  0  0  0
 53 55  1  0  0  0  0
 53 54  1  0  0  0  0
 55 56  1  0  0  0  0
 58 57  1  0  0  0  0
 59 58  1  0  0  0  0
 60 59  2  0  0  0  0
M  END
>  <MODEL>
4

>  <REMARK>
 VINA RESULT:      -5.5      1.769      2.525
  Name = 
  23 active torsions:
  status: ('A' for Active; 'I' for Inactive)
    1  A    between atoms: O_2  and  C_18
    2  A    between atoms: O_2  and  C_46
    3  A    between atoms: C_3  and  N_23
    4  A    between atoms: C_4  and  C_9
    5  A    between atoms: C_4  and  C_38
    6  A    between atoms: C_5  and  C_18
    7  A    between atoms: C_5  and  N_33
    8  A    between atoms: C_7  and  N_23
    9  A    between atoms: C_9  and  C_17
   10  A    between atoms: C_11  and  C_36
   11  A    between atoms: C_11  and  C_40
   12  A    between atoms: C_14  and  O_59
   13  A    between atoms: C_15  and  C_25
   14  A    between atoms: C_16  and  C_28
   15  A    between atoms: C_21  and  C_60
   16  A    between atoms: C_28  and  C_45
   17  A    between atoms: C_30  and  C_31
   18  A    between atoms: C_31  and  N_33
   19  A    between atoms: C_38  and  C_60
   20  A    between atoms: C_39  and  O_59
   21  A    between atoms: C_39  and  C_60
   22  A    between atoms: C_43  and  C_45
   23  A    between atoms: C_56  and  N_58
                            x       y       z     vdW  Elec       q    Type
                         _______ _______ _______ _____ _____    ______ ____

>  <TORSDO>
F 23

$$$$
=
 OpenBabel11042418483D

 60 66  0  0  1  0  0  0  0  0999 V2000
  193.6220  175.0570  145.5030 C   0  0  1  0  0  3  0  0  0  0  0  0
  194.6660  174.8330  144.4030 C   0  0  1  0  0  0  0  0  0  0  0  0
  195.0980  175.3740  145.7490 C   0  0  0  0  0  2  0  0  0  0  0  0
  192.8850  176.2210  145.2010 O   0  0  0  0  0  0  0  0  0  0  0  0
  191.5490  176.0370  145.5980 C   0  0  0  0  0  0  0  0  0  0  0  0
  191.4640  174.9290  146.6360 C   0  0  0  0  0  2  0  0  0  0  0  0
  190.9050  174.7080  145.2380 C   0  0  0  0  0  2  0  0  0  0  0  0
  190.6820  177.2780  145.8960 C   0  0  2  0  0  3  0  0  0  0  0  0
  191.1120  177.5490  148.2380 O   0  0  0  0  0  1  0  0  0  0  0  0
  190.1270  177.2020  147.3150 C   0  0  0  0  0  2  0  0  0  0  0  0
  189.5370  177.4510  144.8920 C   0  0  0  0  0  2  0  0  0  0  0  0
  188.1800  177.3300  145.5560 C   0  0  0  0  0  2  0  0  0  0  0  0
  187.1730  176.8610  144.5290 C   0  0  0  0  0  2  0  0  0  0  0  0
  187.5880  175.8660  142.2710 C   0  0  0  0  0  0  0  0  0  0  0  0
  187.8300  175.9050  143.5860 C   0  0  0  0  0  3  0  0  0  0  0  0
  189.6820  172.4200  140.8980 C   0  0  1  0  0  3  0  0  0  0  0  0
  189.8070  174.7180  141.9100 C   0  0  0  0  0  2  0  0  0  0  0  0
  190.2670  171.5300  139.8200 C   0  0  0  0  0  1  0  0  0  0  0  0
  187.6880  173.5890  141.5570 O   0  0  0  0  0  0  0  0  0  0  0  0
  190.5060  173.7050  141.0090 C   0  0  0  0  0  2  0  0  0  0  0  0
  188.3410  174.8370  141.4790 C   0  0  1  0  0  3  0  0  0  0  0  0
  188.2380  172.7790  140.5480 C   0  0  0  0  0  2  0  0  0  0  0  0
  186.9870  177.3430  140.4910 O   0  0  0  0  0  0  0  0  0  0  0  0
  186.6670  176.8180  141.5940 C   0  0  0  0  0  0  0  0  0  0  0  0
  185.4090  177.1450  142.1980 N   0  0  0  0  0  2  0  0  0  0  0  0
  183.8160  178.7610  142.7260 O   0  0  0  0  0  1  0  0  0  0  0  0
  184.5640  178.2130  141.6830 C   0  0  0  0  0  2  0  0  0  0  0  0
  194.9970  173.3770  144.1120 C   0  0  0  0  0  2  0  0  0  0  0  0
  196.4070  173.1250  144.3700 N   0  0  0  0  0  2  0  0  0  0  0  0
  196.8830  172.3430  143.2450 C   0  0  0  0  0  2  0  0  0  0  0  0
  195.5350  170.2490  143.3110 O   0  0  0  0  0  0  0  0  0  0  0  0
  196.7450  170.8940  143.5420 C   0  0  0  0  0  0  0  0  0  0  0  0
  197.7200  170.2510  144.0110 O   0  0  0  0  0  1  0  0  0  0  0  0
  194.5550  175.7350  143.2880 O   0  0  0  0  0  0  0  0  0  0  0  0
  197.4020  175.8530  139.3390 O   0  0  0  0  0  0  0  0  0  0  0  0
  195.3670  174.6030  136.6970 C   0  0  0  0  0  0  0  0  0  0  0  0
  197.1250  175.5250  138.0960 C   0  0  0  0  0  0  0  0  0  0  0  0
  196.3380  175.5440  140.0450 C   0  0  0  0  0  0  0  0  0  0  0  0
  197.9410  175.7130  137.0320 N   0  0  0  0  0  0  0  0  0  0  0  0
  195.8650  174.9700  137.9660 C   0  0  0  0  0  0  0  0  0  0  0  0
  195.3650  174.9590  139.2560 C   0  0  0  0  0  0  0  0  0  0  0  0
  194.8830  175.4410  141.9550 C   0  0  0  0  0  0  0  0  0  0  0  0
  197.4870  175.4210  135.7840 C   0  0  0  0  0  3  0  0  0  0  0  0
  194.1380  174.5800  139.7860 C   0  0  0  0  0  3  0  0  0  0  0  0
  196.2050  174.8740  135.5970 C   0  0  0  0  0  3  0  0  0  0  0  0
  196.1290  175.7990  141.4000 C   0  0  0  0  0  3  0  0  0  0  0  0
  193.9090  174.8110  141.1530 C   0  0  0  0  0  3  0  0  0  0  0  0
  191.8820  173.2760  136.2780 C   0  0  0  0  0  0  0  0  0  0  0  0
  192.7470  174.4920  136.2700 C   0  0  0  0  0  3  0  0  0  0  0  0
  192.6600  172.2050  136.4480 C   0  0  1  0  0  3  0  0  0  0  0  0
  194.0970  173.8700  136.4510 C   0  0  0  0  0  0  0  0  0  0  0  0
  194.0270  172.5820  136.5570 N   0  0  0  0  0  0  0  0  0  0  0  0
  190.4450  173.3060  136.1770 N   0  0  0  0  0  0  0  0  0  0  0  0
  189.6630  173.9160  137.2460 C   0  0  0  0  0  1  0  0  0  0  0  0
  189.7320  172.8410  134.9950 C   0  0  0  0  0  2  0  0  0  0  0  0
  189.0800  171.4980  135.2730 C   0  0  0  0  0  1  0  0  0  0  0  0
  192.2090  170.7980  136.6970 C   0  0  0  0  0  2  0  0  0  0  0  0
  193.3590  169.9480  137.2380 C   0  0  0  0  0  2  0  0  0  0  0  0
  193.1800  169.6760  138.6940 C   0  0  0  0  0  3  0  0  0  0  0  0
  193.7780  170.3900  139.5730 N   0  0  0  0  0  2  0  0  0  0  0  0
  1  4  1  6  0  0  0
  1  3  1  0  0  0  0
  2 28  1  6  0  0  0
  2  1  1  0  0  0  0
  2  3  1  0  0  0  0
  4  5  1  0  0  0  0
  5  8  1  0  0  0  0
  5  6  1  0  0  0  0
  7  5  1  0  0  0  0
  7  6  1  0  0  0  0
  8 11  1  6  0  0  0
  8 10  1  0  0  0  0
 10  9  1  0  0  0  0
 11 12  1  0  0  0  0
 13 12  1  0  0  0  0
 14 15  2  0  0  0  0
 15 13  1  0  0  0  0
 16 18  1  6  0  0  0
 16 20  1  0  0  0  0
 20 17  1  0  0  0  0
 21 19  1  0  0  0  0
 21 17  1  0  0  0  0
 21 14  1  1  0  0  0
 22 16  1  0  0  0  0
 22 19  1  0  0  0  0
 23 24  2  0  0  0  0
 24 25  1  0  0  0  0
 24 14  1  0  0  0  0
 27 25  1  0  0  0  0
 27 26  1  0  0  0  0
 28 29  1  0  0  0  0
 30 32  1  0  0  0  0
 30 29  1  0  0  0  0
 31 32  2  0  0  0  0
 32 33  1  0  0  0  0
 34  2  1  0  0  0  0
 35 38  1  0  0  0  0
 36 40  2  0  0  0  0
 37 35  1  0  0  0  0
 38 46  1  0  0  0  0
 39 37  2  0  0  0  0
 40 37  1  0  0  0  0
 40 41  1  0  0  0  0
 41 44  1  0  0  0  0
 41 38  2  0  0  0  0
 42 34  1  0  0  0  0
 43 39  1  0  0  0  0
 44 47  2  0  0  0  0
 45 43  2  0  0  0  0
 45 36  1  0  0  0  0
 46 42  2  0  0  0  0
 47 42  1  0  0  0  0
 48 50  1  0  0  0  0
 49 48  2  0  0  0  0
 49 51  1  0  0  0  0
 50 52  1  0  0  0  0
 50 57  1  1  0  0  0
 51 52  2  0  0  0  0
 51 36  1  0  0  0  0
 53 48  1  0  0  0  0
 53 54  1  0  0  0  0
 55 56  1  0  0  0  0
 55 53  1  0  0  0  0
 57 58  1  0  0  0  0
 58 59  1  0  0  0  0
 59 60  2  0  0  0  0
M  END
>  <MODEL>
5

>  <REMARK>
 VINA RESULT:      -5.2      2.551      6.390
  Name = 
  23 active torsions:
  status: ('A' for Active; 'I' for Inactive)
    1  A    between atoms: O_2  and  C_18
    2  A    between atoms: O_2  and  C_46
    3  A    between atoms: C_3  and  N_23
    4  A    between atoms: C_4  and  C_9
    5  A    between atoms: C_4  and  C_38
    6  A    between atoms: C_5  and  C_18
    7  A    between atoms: C_5  and  N_33
    8  A    between atoms: C_7  and  N_23
    9  A    between atoms: C_9  and  C_17
   10  A    between atoms: C_11  and  C_36
   11  A    between atoms: C_11  and  C_40
   12  A    between atoms: C_14  and  O_59
   13  A    between atoms: C_15  and  C_25
   14  A    between atoms: C_16  and  C_28
   15  A    between atoms: C_21  and  C_60
   16  A    between atoms: C_28  and  C_45
   17  A    between atoms: C_30  and  C_31
   18  A    between atoms: C_31  and  N_33
   19  A    between atoms: C_38  and  C_60
   20  A    between atoms: C_39  and  O_59
   21  A    between atoms: C_39  and  C_60
   22  A    between atoms: C_43  and  C_45
   23  A    between atoms: C_56  and  N_58
                            x       y       z     vdW  Elec       q    Type
                         _______ _______ _______ _____ _____    ______ ____

>  <TORSDO>
F 23

$$$$
=
 OpenBabel11042418483D

 60 66  0  0  1  0  0  0  0  0999 V2000
  193.3540  169.8410  141.3350 C   0  0  1  0  0  3  0  0  0  0  0  0
  192.5070  170.0990  142.5860 C   0  0  1  0  0  0  0  0  0  0  0  0
  193.3020  168.8170  142.4700 C   0  0  0  0  0  2  0  0  0  0  0  0
  192.5000  169.4820  140.2730 O   0  0  0  0  0  0  0  0  0  0  0  0
  192.9730  170.0620  139.0840 C   0  0  0  0  0  0  0  0  0  0  0  0
  193.9730  169.1320  138.4150 C   0  0  0  0  0  2  0  0  0  0  0  0
  194.4460  170.4350  139.0430 C   0  0  0  0  0  2  0  0  0  0  0  0
  191.9640  170.7310  138.1260 C   0  0  2  0  0  3  0  0  0  0  0  0
  189.9900  169.3740  138.0440 O   0  0  0  0  0  1  0  0  0  0  0  0
  191.1740  169.6690  137.3700 C   0  0  0  0  0  2  0  0  0  0  0  0
  192.6370  171.6900  137.1380 C   0  0  0  0  0  2  0  0  0  0  0  0
  192.2480  173.1310  137.3970 C   0  0  0  0  0  2  0  0  0  0  0  0
  193.5040  173.9400  137.6400 C   0  0  0  0  0  2  0  0  0  0  0  0
  194.3300  174.5670  139.9170 C   0  0  0  0  0  0  0  0  0  0  0  0
  193.4010  174.6380  138.9570 C   0  0  0  0  0  3  0  0  0  0  0  0
  193.8880  175.8950  143.9400 C   0  0  1  0  0  3  0  0  0  0  0  0
  192.8300  174.8110  141.9330 C   0  0  0  0  0  2  0  0  0  0  0  0
  193.6800  176.9560  145.0020 C   0  0  0  0  0  1  0  0  0  0  0  0
  195.1980  175.3390  142.0040 O   0  0  0  0  0  0  0  0  0  0  0  0
  192.5890  175.6910  143.1550 C   0  0  0  0  0  2  0  0  0  0  0  0
  194.0560  175.3360  141.1770 C   0  0  1  0  0  3  0  0  0  0  0  0
  194.9920  176.3320  142.9780 C   0  0  0  0  0  2  0  0  0  0  0  0
  195.8260  172.7750  140.4290 O   0  0  0  0  0  0  0  0  0  0  0  0
  195.6030  173.8170  139.7490 C   0  0  0  0  0  0  0  0  0  0  0  0
  196.5850  174.2780  138.8130 N   0  0  0  0  0  2  0  0  0  0  0  0
  197.9320  172.6440  137.8400 O   0  0  0  0  0  1  0  0  0  0  0  0
  197.9200  173.7010  138.7520 C   0  0  0  0  0  2  0  0  0  0  0  0
  193.0520  171.1610  143.5300 C   0  0  0  0  0  2  0  0  0  0  0  0
  193.9010  170.5430  144.5380 N   0  0  0  0  0  2  0  0  0  0  0  0
  195.1780  171.2250  144.4550 C   0  0  0  0  0  2  0  0  0  0  0  0
  195.7840  169.4650  146.1110 O   0  0  0  0  0  1  0  0  0  0  0  0
  196.1530  170.5860  145.3760 C   0  0  0  0  0  0  0  0  0  0  0  0
  197.3110  171.0640  145.4990 O   0  0  0  0  0  0  0  0  0  0  0  0
  191.0870  170.0680  142.3570 O   0  0  0  0  0  0  0  0  0  0  0  0
  188.6440  173.0740  139.4050 O   0  0  0  0  0  0  0  0  0  0  0  0
  187.7050  175.8240  141.4630 C   0  0  0  0  0  0  0  0  0  0  0  0
  188.1080  174.2470  139.6600 C   0  0  0  0  0  0  0  0  0  0  0  0
  189.0950  172.6190  140.5520 C   0  0  0  0  0  0  0  0  0  0  0  0
  187.5580  175.0770  138.7440 N   0  0  0  0  0  0  0  0  0  0  0  0
  188.1810  174.5780  141.0020 C   0  0  0  0  0  0  0  0  0  0  0  0
  188.8050  173.4910  141.5860 C   0  0  0  0  0  0  0  0  0  0  0  0
  190.2740  171.1750  142.0700 C   0  0  0  0  0  0  0  0  0  0  0  0
  187.1300  176.3080  139.1310 C   0  0  0  0  0  3  0  0  0  0  0  0
  189.2170  173.2290  142.8870 C   0  0  0  0  0  3  0  0  0  0  0  0
  187.2020  176.7010  140.4790 C   0  0  0  0  0  3  0  0  0  0  0  0
  189.8280  171.4510  140.7600 C   0  0  0  0  0  3  0  0  0  0  0  0
  189.9420  172.0500  143.1250 C   0  0  0  0  0  3  0  0  0  0  0  0
  186.8940  177.1180  144.8900 C   0  0  0  0  0  0  0  0  0  0  0  0
  186.3380  176.6340  143.5920 C   0  0  0  0  0  3  0  0  0  0  0  0
  188.2220  176.9950  144.8540 C   0  0  1  0  0  3  0  0  0  0  0  0
  187.5970  176.2300  142.8890 C   0  0  0  0  0  0  0  0  0  0  0  0
  188.6480  176.4480  143.6120 N   0  0  0  0  0  0  0  0  0  0  0  0
  186.0960  177.6740  145.9530 N   0  0  0  0  0  0  0  0  0  0  0  0
  185.8470  176.8840  147.1530 C   0  0  0  0  0  1  0  0  0  0  0  0
  185.6070  179.0470  145.9310 C   0  0  0  0  0  2  0  0  0  0  0  0
  184.1100  179.0630  145.6760 C   0  0  0  0  0  1  0  0  0  0  0  0
  189.2000  177.5200  145.8590 C   0  0  0  0  0  2  0  0  0  0  0  0
  190.3290  176.5160  146.0940 C   0  0  0  0  0  2  0  0  0  0  0  0
  189.7820  175.1520  146.3500 C   0  0  0  0  0  3  0  0  0  0  0  0
  189.2390  174.8630  147.4740 N   0  0  0  0  0  2  0  0  0  0  0  0
  1  4  1  6  0  0  0
  1  3  1  0  0  0  0
  1  2  1  0  0  0  0
  2 28  1  1  0  0  0
  3  2  1  0  0  0  0
  5  4  1  0  0  0  0
  6  7  1  0  0  0  0
  6  5  1  0  0  0  0
  7  5  1  0  0  0  0
  8 11  1  6  0  0  0
  8  5  1  0  0  0  0
 10  9  1  0  0  0  0
 10  8  1  0  0  0  0
 11 12  1  0  0  0  0
 12 13  1  0  0  0  0
 13 15  1  0  0  0  0
 15 14  2  0  0  0  0
 16 18  1  1  0  0  0
 17 20  1  0  0  0  0
 19 22  1  0  0  0  0
 20 16  1  0  0  0  0
 21 14  1  6  0  0  0
 21 17  1  0  0  0  0
 21 19  1  0  0  0  0
 22 16  1  0  0  0  0
 24 14  1  0  0  0  0
 24 23  2  0  0  0  0
 25 24  1  0  0  0  0
 26 27  1  0  0  0  0
 27 25  1  0  0  0  0
 28 29  1  0  0  0  0
 30 29  1  0  0  0  0
 30 32  1  0  0  0  0
 32 33  2  0  0  0  0
 32 31  1  0  0  0  0
 34  2  1  0  0  0  0
 35 37  1  0  0  0  0
 35 38  1  0  0  0  0
 36 51  1  0  0  0  0
 37 40  1  0  0  0  0
 38 46  2  0  0  0  0
 38 41  1  0  0  0  0
 39 43  1  0  0  0  0
 39 37  2  0  0  0  0
 40 36  2  0  0  0  0
 40 41  1  0  0  0  0
 41 44  2  0  0  0  0
 42 34  1  0  0  0  0
 42 47  2  0  0  0  0
 43 45  2  0  0  0  0
 44 47  1  0  0  0  0
 45 36  1  0  0  0  0
 46 42  1  0  0  0  0
 48 53  1  0  0  0  0
 49 48  2  0  0  0  0
 50 48  1  0  0  0  0
 50 57  1  6  0  0  0
 51 49  1  0  0  0  0
 51 52  2  0  0  0  0
 52 50  1  0  0  0  0
 53 54  1  0  0  0  0
 55 53  1  0  0  0  0
 56 55  1  0  0  0  0
 57 58  1  0  0  0  0
 58 59  1  0  0  0  0
 59 60  2  0  0  0  0
M  END
>  <MODEL>
6

>  <REMARK>
 VINA RESULT:      -5.0      2.812      9.031
  Name = 
  23 active torsions:
  status: ('A' for Active; 'I' for Inactive)
    1  A    between atoms: O_2  and  C_18
    2  A    between atoms: O_2  and  C_46
    3  A    between atoms: C_3  and  N_23
    4  A    between atoms: C_4  and  C_9
    5  A    between atoms: C_4  and  C_38
    6  A    between atoms: C_5  and  C_18
    7  A    between atoms: C_5  and  N_33
    8  A    between atoms: C_7  and  N_23
    9  A    between atoms: C_9  and  C_17
   10  A    between atoms: C_11  and  C_36
   11  A    between atoms: C_11  and  C_40
   12  A    between atoms: C_14  and  O_59
   13  A    between atoms: C_15  and  C_25
   14  A    between atoms: C_16  and  C_28
   15  A    between atoms: C_21  and  C_60
   16  A    between atoms: C_28  and  C_45
   17  A    between atoms: C_30  and  C_31
   18  A    between atoms: C_31  and  N_33
   19  A    between atoms: C_38  and  C_60
   20  A    between atoms: C_39  and  O_59
   21  A    between atoms: C_39  and  C_60
   22  A    between atoms: C_43  and  C_45
   23  A    between atoms: C_56  and  N_58
                            x       y       z     vdW  Elec       q    Type
                         _______ _______ _______ _____ _____    ______ ____

>  <TORSDO>
F 23

$$$$
=
 OpenBabel11042418483D

 60 66  0  0  1  0  0  0  0  0999 V2000
  188.0340  176.1230  144.0080 C   0  0  1  0  0  3  0  0  0  0  0  0
  188.1190  175.6560  142.5510 C   0  0  1  0  0  0  0  0  0  0  0  0
  186.8140  175.5220  143.3070 C   0  0  0  0  0  2  0  0  0  0  0  0
  188.6800  175.1750  144.8290 O   0  0  0  0  0  0  0  0  0  0  0  0
  189.1020  175.8020  146.0130 C   0  0  0  0  0  0  0  0  0  0  0  0
  187.9030  176.1010  146.8990 C   0  0  0  0  0  2  0  0  0  0  0  0
  188.6540  177.2390  146.2240 C   0  0  0  0  0  2  0  0  0  0  0  0
  190.3370  175.2440  146.7530 C   0  0  2  0  0  3  0  0  0  0  0  0
  191.2840  176.4930  148.5660 O   0  0  0  0  0  1  0  0  0  0  0  0
  191.2560  176.3850  147.1760 C   0  0  0  0  0  2  0  0  0  0  0  0
  191.1150  174.2260  145.9130 C   0  0  0  0  0  2  0  0  0  0  0  0
  192.5610  174.6380  145.7240 C   0  0  0  0  0  2  0  0  0  0  0  0
  193.4300  173.3990  145.7500 C   0  0  0  0  0  2  0  0  0  0  0  0
  193.6130  171.3120  144.3820 C   0  0  0  0  0  0  0  0  0  0  0  0
  192.9820  172.4520  144.6840 C   0  0  0  0  0  3  0  0  0  0  0  0
  191.0800  169.0370  141.8230 C   0  0  1  0  0  3  0  0  0  0  0  0
  192.7420  169.0410  143.7100 C   0  0  0  0  0  2  0  0  0  0  0  0
  190.7310  168.3660  140.5100 C   0  0  0  0  0  1  0  0  0  0  0  0
  191.8480  171.1000  142.7880 O   0  0  0  0  0  0  0  0  0  0  0  0
  192.2070  168.2630  142.5130 C   0  0  0  0  0  2  0  0  0  0  0  0
  193.0180  170.4860  143.2790 C   0  0  1  0  0  3  0  0  0  0  0  0
  191.5420  170.4710  141.5670 C   0  0  0  0  0  2  0  0  0  0  0  0
  194.6860  170.1770  146.1900 O   0  0  0  0  0  0  0  0  0  0  0  0
  194.8130  170.8380  145.1220 C   0  0  0  0  0  0  0  0  0  0  0  0
  196.1230  171.1340  144.6220 N   0  0  0  0  0  2  0  0  0  0  0  0
  197.8460  169.6240  145.0490 O   0  0  0  0  0  1  0  0  0  0  0  0
  197.3230  170.8690  145.4030 C   0  0  0  0  0  2  0  0  0  0  0  0
  188.2010  176.7700  141.5180 C   0  0  0  0  0  2  0  0  0  0  0  0
  186.9300  176.8990  140.8210 N   0  0  0  0  0  2  0  0  0  0  0  0
  186.3880  178.1850  141.2170 C   0  0  0  0  0  2  0  0  0  0  0  0
  184.3140  177.9750  142.5820 O   0  0  0  0  0  1  0  0  0  0  0  0
  184.9080  178.0960  141.3310 C   0  0  0  0  0  0  0  0  0  0  0  0
  184.1950  178.1220  140.2950 O   0  0  0  0  0  0  0  0  0  0  0  0
  188.9360  174.4890  142.3490 O   0  0  0  0  0  0  0  0  0  0  0  0
  193.6020  175.8610  142.6110 O   0  0  0  0  0  0  0  0  0  0  0  0
  195.1040  174.5870  139.6430 C   0  0  0  0  0  0  0  0  0  0  0  0
  194.5810  175.6690  141.7530 C   0  0  0  0  0  0  0  0  0  0  0  0
  192.5640  175.2100  142.1330 C   0  0  0  0  0  0  0  0  0  0  0  0
  195.8230  176.2000  141.8460 N   0  0  0  0  0  0  0  0  0  0  0  0
  194.2030  174.8640  140.6940 C   0  0  0  0  0  0  0  0  0  0  0  0
  192.8860  174.5420  140.9660 C   0  0  0  0  0  0  0  0  0  0  0  0
  190.2810  174.4850  141.9470 C   0  0  0  0  0  0  0  0  0  0  0  0
  196.7090  176.0030  140.8340 C   0  0  0  0  0  3  0  0  0  0  0  0
  191.9310  173.8130  140.2660 C   0  0  0  0  0  3  0  0  0  0  0  0
  196.3670  175.2090  139.7250 C   0  0  0  0  0  3  0  0  0  0  0  0
  191.2710  175.2020  142.6520 C   0  0  0  0  0  3  0  0  0  0  0  0
  190.6240  173.7750  140.7780 C   0  0  0  0  0  3  0  0  0  0  0  0
  193.9050  172.3630  136.8690 C   0  0  0  0  0  0  0  0  0  0  0  0
  193.7150  173.6640  137.5750 C   0  0  0  0  0  2  0  0  0  0  0  0
  194.9690  171.7510  137.3910 C   0  0  0  0  0  0  0  0  0  0  0  0
  194.8640  173.6260  138.5350 C   0  0  0  0  0  0  0  0  0  0  0  0
  195.5540  172.5370  138.4220 N   0  0  0  0  0  0  0  0  0  0  0  0
  193.0250  171.8640  135.8440 N   0  0  0  0  0  0  0  0  0  0  0  0
  192.9400  172.5650  134.5670 C   0  0  0  0  0  1  0  0  0  0  0  0
  192.2830  170.6180  135.9840 C   0  0  0  0  0  2  0  0  0  0  0  0
  190.8910  170.7690  135.3940 C   0  0  0  0  0  1  0  0  0  0  0  0
  195.4230  170.3490  137.1170 C   0  0  0  0  0  2  0  0  0  0  0  0
  194.8530  169.3820  138.1540 C   0  0  0  0  0  2  0  0  0  0  0  0
  195.2750  169.7690  139.5310 C   0  0  0  0  0  3  0  0  0  0  0  0
  194.9490  169.0530  140.5430 N   0  0  0  0  0  2  0  0  0  0  0  0
  1  4  1  1  0  0  0
  2 28  1  6  0  0  0
  2  3  1  0  0  0  0
  2  1  1  0  0  0  0
  3  1  1  0  0  0  0
  4  5  1  0  0  0  0
  5  7  1  0  0  0  0
  5  8  1  0  0  0  0
  5  6  1  0  0  0  0
  7  6  1  0  0  0  0
  8 11  1  6  0  0  0
  8 10  1  0  0  0  0
 10  9  1  0  0  0  0
 12 13  1  0  0  0  0
 12 11  1  0  0  0  0
 14 15  2  0  0  0  0
 14 24  1  0  0  0  0
 15 13  1  0  0  0  0
 16 18  1  6  0  0  0
 16 20  1  0  0  0  0
 19 21  1  0  0  0  0
 20 17  1  0  0  0  0
 21 17  1  0  0  0  0
 21 14  1  1  0  0  0
 22 16  1  0  0  0  0
 22 19  1  0  0  0  0
 24 23  2  0  0  0  0
 25 24  1  0  0  0  0
 25 27  1  0  0  0  0
 26 27  1  0  0  0  0
 29 30  1  0  0  0  0
 29 28  1  0  0  0  0
 30 32  1  0  0  0  0
 32 31  1  0  0  0  0
 33 32  2  0  0  0  0
 34  2  1  0  0  0  0
 36 45  1  0  0  0  0
 36 40  2  0  0  0  0
 37 39  2  0  0  0  0
 37 35  1  0  0  0  0
 38 35  1  0  0  0  0
 38 46  1  0  0  0  0
 40 41  1  0  0  0  0
 40 37  1  0  0  0  0
 41 38  2  0  0  0  0
 42 34  1  0  0  0  0
 42 46  2  0  0  0  0
 43 39  1  0  0  0  0
 44 47  2  0  0  0  0
 44 41  1  0  0  0  0
 45 43  2  0  0  0  0
 47 42  1  0  0  0  0
 48 50  2  0  0  0  0
 48 49  1  0  0  0  0
 49 51  1  0  0  0  0
 50 52  1  0  0  0  0
 51 36  1  0  0  0  0
 52 51  2  0  0  0  0
 53 55  1  0  0  0  0
 53 48  1  0  0  0  0
 54 53  1  0  0  0  0
 56 55  1  0  0  0  0
 57 50  1  0  0  0  0
 57 58  1  0  0  0  0
 58 59  1  0  0  0  0
 59 60  2  0  0  0  0
M  END
>  <MODEL>
7

>  <REMARK>
 VINA RESULT:      -4.9      2.375      5.659
  Name = 
  23 active torsions:
  status: ('A' for Active; 'I' for Inactive)
    1  A    between atoms: O_2  and  C_18
    2  A    between atoms: O_2  and  C_46
    3  A    between atoms: C_3  and  N_23
    4  A    between atoms: C_4  and  C_9
    5  A    between atoms: C_4  and  C_38
    6  A    between atoms: C_5  and  C_18
    7  A    between atoms: C_5  and  N_33
    8  A    between atoms: C_7  and  N_23
    9  A    between atoms: C_9  and  C_17
   10  A    between atoms: C_11  and  C_36
   11  A    between atoms: C_11  and  C_40
   12  A    between atoms: C_14  and  O_59
   13  A    between atoms: C_15  and  C_25
   14  A    between atoms: C_16  and  C_28
   15  A    between atoms: C_21  and  C_60
   16  A    between atoms: C_28  and  C_45
   17  A    between atoms: C_30  and  C_31
   18  A    between atoms: C_31  and  N_33
   19  A    between atoms: C_38  and  C_60
   20  A    between atoms: C_39  and  O_59
   21  A    between atoms: C_39  and  C_60
   22  A    between atoms: C_43  and  C_45
   23  A    between atoms: C_56  and  N_58
                            x       y       z     vdW  Elec       q    Type
                         _______ _______ _______ _____ _____    ______ ____

>  <TORSDO>
F 23

$$$$
=
 OpenBabel11042418483D

 60 66  0  0  1  0  0  0  0  0999 V2000
  189.0310  176.6490  143.0630 C   0  0  1  0  0  3  0  0  0  0  0  0
  187.7310  176.0200  142.5510 C   0  0  1  0  0  0  0  0  0  0  0  0
  188.4490  175.4020  143.7320 C   0  0  0  0  0  2  0  0  0  0  0  0
  190.0770  176.3210  142.1760 O   0  0  0  0  0  0  0  0  0  0  0  0
  191.3060  176.6570  142.7660 C   0  0  0  0  0  0  0  0  0  0  0  0
  191.0770  177.2050  144.1660 C   0  0  0  0  0  2  0  0  0  0  0  0
  191.5470  178.1300  143.0540 C   0  0  0  0  0  2  0  0  0  0  0  0
  192.4910  175.6760  142.6350 C   0  0  2  0  0  3  0  0  0  0  0  0
  194.8430  176.0690  142.8690 O   0  0  0  0  0  1  0  0  0  0  0  0
  193.7230  176.4060  142.1120 C   0  0  0  0  0  2  0  0  0  0  0  0
  192.1660  174.4790  141.7350 C   0  0  0  0  0  2  0  0  0  0  0  0
  193.1020  173.3140  141.9870 C   0  0  0  0  0  2  0  0  0  0  0  0
  192.6070  172.5410  143.1890 C   0  0  0  0  0  2  0  0  0  0  0  0
  193.3320  173.5720  145.3510 C   0  0  0  0  0  0  0  0  0  0  0  0
  192.4500  173.4700  144.3500 C   0  0  0  0  0  3  0  0  0  0  0  0
  191.8190  176.7860  147.7020 C   0  0  1  0  0  3  0  0  0  0  0  0
  193.6310  175.9370  146.1810 C   0  0  0  0  0  2  0  0  0  0  0  0
  191.5660  177.5040  149.0120 C   0  0  0  0  0  1  0  0  0  0  0  0
  191.6110  174.6600  146.6000 O   0  0  0  0  0  0  0  0  0  0  0  0
  193.3090  176.8490  147.3600 C   0  0  0  0  0  2  0  0  0  0  0  0
  193.0080  174.5600  146.4340 C   0  0  1  0  0  3  0  0  0  0  0  0
  191.3940  175.3220  147.8220 C   0  0  0  0  0  2  0  0  0  0  0  0
  195.6830  173.3280  145.0030 O   0  0  0  0  0  0  0  0  0  0  0  0
  194.6020  172.7990  145.3860 C   0  0  0  0  0  0  0  0  0  0  0  0
  194.6000  171.4450  145.8540 N   0  0  0  0  0  2  0  0  0  0  0  0
  196.8330  171.1290  146.4420 O   0  0  0  0  0  1  0  0  0  0  0  0
  195.7680  170.5840  145.7230 C   0  0  0  0  0  2  0  0  0  0  0  0
  186.4670  176.8100  142.8560 C   0  0  0  0  0  2  0  0  0  0  0  0
  185.8790  176.3490  144.1040 N   0  0  0  0  0  2  0  0  0  0  0  0
  186.0160  177.4490  145.0390 C   0  0  0  0  0  2  0  0  0  0  0  0
  183.9380  178.5520  144.2210 O   0  0  0  0  0  0  0  0  0  0  0  0
  185.2900  178.6410  144.5280 C   0  0  0  0  0  0  0  0  0  0  0  0
  185.9020  179.7280  144.3650 O   0  0  0  0  0  1  0  0  0  0  0  0
  187.8420  175.3980  141.2590 O   0  0  0  0  0  0  0  0  0  0  0  0
  189.6520  171.0080  142.3460 O   0  0  0  0  0  0  0  0  0  0  0  0
  191.7240  170.1550  139.5790 C   0  0  0  0  0  0  0  0  0  0  0  0
  190.4950  170.2590  141.6710 C   0  0  0  0  0  0  0  0  0  0  0  0
  189.3940  172.0480  141.5850 C   0  0  0  0  0  0  0  0  0  0  0  0
  191.0480  169.1040  142.1110 N   0  0  0  0  0  0  0  0  0  0  0  0
  190.7950  170.7910  140.4300 C   0  0  0  0  0  0  0  0  0  0  0  0
  190.0450  171.9520  140.3680 C   0  0  0  0  0  0  0  0  0  0  0  0
  188.5250  174.2050  140.9760 C   0  0  0  0  0  0  0  0  0  0  0  0
  191.9860  168.4820  141.3480 C   0  0  0  0  0  3  0  0  0  0  0  0
  189.9440  172.9580  139.4150 C   0  0  0  0  0  3  0  0  0  0  0  0
  192.3410  168.9930  140.0880 C   0  0  0  0  0  3  0  0  0  0  0  0
  188.6260  173.1620  141.9200 C   0  0  0  0  0  3  0  0  0  0  0  0
  189.1620  174.0830  139.7230 C   0  0  0  0  0  3  0  0  0  0  0  0
  192.8120  171.6010  136.2920 C   0  0  0  0  0  0  0  0  0  0  0  0
  193.1790  171.3760  137.7210 C   0  0  0  0  0  2  0  0  0  0  0  0
  191.6450  170.9990  136.0550 C   0  0  0  0  0  0  0  0  0  0  0  0
  192.0160  170.5490  138.1750 C   0  0  0  0  0  0  0  0  0  0  0  0
  191.1580  170.3540  137.2250 N   0  0  0  0  0  0  0  0  0  0  0  0
  193.5890  172.3950  135.3740 N   0  0  0  0  0  0  0  0  0  0  0  0
  193.4300  173.8450  135.3670 C   0  0  0  0  0  1  0  0  0  0  0  0
  194.6140  171.8200  134.5130 C   0  0  0  0  0  2  0  0  0  0  0  0
  195.9330  172.5450  134.7150 C   0  0  0  0  0  1  0  0  0  0  0  0
  190.8120  171.1120  134.8150 C   0  0  0  0  0  2  0  0  0  0  0  0
  189.5460  171.9250  135.0840 C   0  0  0  0  0  2  0  0  0  0  0  0
  189.8050  173.3840  134.9200 C   0  0  0  0  0  3  0  0  0  0  0  0
  189.4770  174.2160  135.8380 N   0  0  0  0  0  2  0  0  0  0  0  0
  1  4  1  6  0  0  0
  1  3  1  0  0  0  0
  2 28  1  1  0  0  0
  2  1  1  0  0  0  0
  2  3  1  0  0  0  0
  4  5  1  0  0  0  0
  5  7  1  0  0  0  0
  5  6  1  0  0  0  0
  7  6  1  0  0  0  0
  8 11  1  6  0  0  0
  8  5  1  0  0  0  0
 10  8  1  0  0  0  0
 10  9  1  0  0  0  0
 11 12  1  0  0  0  0
 12 13  1  0  0  0  0
 13 15  1  0  0  0  0
 14 24  1  0  0  0  0
 15 14  2  0  0  0  0
 16 22  1  0  0  0  0
 16 18  1  1  0  0  0
 17 21  1  0  0  0  0
 17 20  1  0  0  0  0
 19 22  1  0  0  0  0
 20 16  1  0  0  0  0
 21 14  1  6  0  0  0
 21 19  1  0  0  0  0
 23 24  2  0  0  0  0
 24 25  1  0  0  0  0
 27 25  1  0  0  0  0
 27 26  1  0  0  0  0
 28 29  1  0  0  0  0
 29 30  1  0  0  0  0
 31 32  2  0  0  0  0
 32 30  1  0  0  0  0
 33 32  1  0  0  0  0
 34  2  1  0  0  0  0
 36 45  1  0  0  0  0
 36 40  2  0  0  0  0
 37 39  2  0  0  0  0
 37 35  1  0  0  0  0
 38 46  1  0  0  0  0
 38 35  1  0  0  0  0
 40 37  1  0  0  0  0
 41 40  1  0  0  0  0
 41 38  2  0  0  0  0
 42 34  1  0  0  0  0
 42 46  2  0  0  0  0
 43 39  1  0  0  0  0
 44 47  2  0  0  0  0
 44 41  1  0  0  0  0
 45 43  2  0  0  0  0
 47 42  1  0  0  0  0
 48 49  1  0  0  0  0
 49 51  1  0  0  0  0
 50 48  2  0  0  0  0
 50 52  1  0  0  0  0
 51 36  1  0  0  0  0
 52 51  2  0  0  0  0
 53 48  1  0  0  0  0
 54 53  1  0  0  0  0
 55 56  1  0  0  0  0
 55 53  1  0  0  0  0
 57 58  1  0  0  0  0
 57 50  1  0  0  0  0
 59 58  1  0  0  0  0
 59 60  2  0  0  0  0
M  END
>  <MODEL>
8

>  <REMARK>
 VINA RESULT:      -4.9      2.609      5.964
  Name = 
  23 active torsions:
  status: ('A' for Active; 'I' for Inactive)
    1  A    between atoms: O_2  and  C_18
    2  A    between atoms: O_2  and  C_46
    3  A    between atoms: C_3  and  N_23
    4  A    between atoms: C_4  and  C_9
    5  A    between atoms: C_4  and  C_38
    6  A    between atoms: C_5  and  C_18
    7  A    between atoms: C_5  and  N_33
    8  A    between atoms: C_7  and  N_23
    9  A    between atoms: C_9  and  C_17
   10  A    between atoms: C_11  and  C_36
   11  A    between atoms: C_11  and  C_40
   12  A    between atoms: C_14  and  O_59
   13  A    between atoms: C_15  and  C_25
   14  A    between atoms: C_16  and  C_28
   15  A    between atoms: C_21  and  C_60
   16  A    between atoms: C_28  and  C_45
   17  A    between atoms: C_30  and  C_31
   18  A    between atoms: C_31  and  N_33
   19  A    between atoms: C_38  and  C_60
   20  A    between atoms: C_39  and  O_59
   21  A    between atoms: C_39  and  C_60
   22  A    between atoms: C_43  and  C_45
   23  A    between atoms: C_56  and  N_58
                            x       y       z     vdW  Elec       q    Type
                         _______ _______ _______ _____ _____    ______ ____

>  <TORSDO>
F 23

$$$$
=
 OpenBabel11042418483D

 60 66  0  0  1  0  0  0  0  0999 V2000
  193.4060  172.2180  138.9910 C   0  0  1  0  0  3  0  0  0  0  0  0
  191.9690  172.3440  138.4750 C   0  0  1  0  0  0  0  0  0  0  0  0
  192.8450  173.5750  138.5610 C   0  0  0  0  0  2  0  0  0  0  0  0
  193.3760  172.0640  140.3920 O   0  0  0  0  0  0  0  0  0  0  0  0
  193.7520  170.7510  140.7200 C   0  0  0  0  0  0  0  0  0  0  0  0
  195.2680  170.6480  140.7930 C   0  0  0  0  0  2  0  0  0  0  0  0
  194.5120  169.9710  139.6600 C   0  0  0  0  0  2  0  0  0  0  0  0
  192.9940  170.0170  141.8470 C   0  0  2  0  0  3  0  0  0  0  0  0
  190.7410  169.2060  141.9150 O   0  0  0  0  0  1  0  0  0  0  0  0
  191.9590  169.0680  141.2530 C   0  0  0  0  0  2  0  0  0  0  0  0
  192.3210  170.9820  142.8290 C   0  0  0  0  0  2  0  0  0  0  0  0
  192.9080  170.8720  144.2210 C   0  0  0  0  0  2  0  0  0  0  0  0
  193.3530  172.2460  144.6740 C   0  0  0  0  0  2  0  0  0  0  0  0
  194.8260  174.0460  143.7530 C   0  0  0  0  0  0  0  0  0  0  0  0
  194.3110  172.8140  143.6770 C   0  0  0  0  0  3  0  0  0  0  0  0
  196.8960  174.6130  140.0740 C   0  0  1  0  0  3  0  0  0  0  0  0
  196.6670  173.2910  142.2000 C   0  0  0  0  0  2  0  0  0  0  0  0
  197.8980  175.3110  139.1760 C   0  0  0  0  0  1  0  0  0  0  0  0
  195.0600  174.9980  141.5750 O   0  0  0  0  0  0  0  0  0  0  0  0
  197.6380  173.8060  141.1430 C   0  0  0  0  0  2  0  0  0  0  0  0
  195.7730  174.4480  142.6600 C   0  0  1  0  0  3  0  0  0  0  0  0
  196.0010  175.6470  140.7560 C   0  0  0  0  0  2  0  0  0  0  0  0
  194.5920  174.5620  146.0750 O   0  0  0  0  0  0  0  0  0  0  0  0
  194.5350  174.9710  144.8810 C   0  0  0  0  0  0  0  0  0  0  0  0
  194.1850  176.3350  144.6130 N   0  0  0  0  0  2  0  0  0  0  0  0
  194.7540  178.0080  146.1330 O   0  0  0  0  0  1  0  0  0  0  0  0
  193.7010  177.2240  145.6600 C   0  0  0  0  0  2  0  0  0  0  0  0
  191.7270  171.7710  137.0860 C   0  0  0  0  0  2  0  0  0  0  0  0
  190.5000  170.9890  137.0750 N   0  0  0  0  0  2  0  0  0  0  0  0
  190.7530  169.8640  136.1970 C   0  0  0  0  0  2  0  0  0  0  0  0
  192.8060  168.4610  136.3640 O   0  0  0  0  0  0  0  0  0  0  0  0
  191.5840  168.8510  136.8990 C   0  0  0  0  0  0  0  0  0  0  0  0
  191.1770  168.3400  137.9750 O   0  0  0  0  0  1  0  0  0  0  0  0
  190.9590  172.1300  139.4760 O   0  0  0  0  0  0  0  0  0  0  0  0
  187.4090  175.4280  138.9810 O   0  0  0  0  0  0  0  0  0  0  0  0
  187.2380  177.0790  142.1320 C   0  0  0  0  0  0  0  0  0  0  0  0
  186.9650  176.3170  139.8420 C   0  0  0  0  0  0  0  0  0  0  0  0
  188.2990  174.7070  139.6240 C   0  0  0  0  0  0  0  0  0  0  0  0
  186.0580  177.2870  139.5750 N   0  0  0  0  0  0  0  0  0  0  0  0
  187.5500  176.1810  141.0880 C   0  0  0  0  0  0  0  0  0  0  0  0
  188.4030  175.1020  140.9460 C   0  0  0  0  0  0  0  0  0  0  0  0
  190.0480  173.0900  139.9460 C   0  0  0  0  0  0  0  0  0  0  0  0
  185.7640  178.2050  140.5320 C   0  0  0  0  0  3  0  0  0  0  0  0
  189.3100  174.4980  141.8090 C   0  0  0  0  0  3  0  0  0  0  0  0
  186.3470  178.1230  141.8100 C   0  0  0  0  0  3  0  0  0  0  0  0
  189.1070  173.7030  139.0920 C   0  0  0  0  0  3  0  0  0  0  0  0
  190.1230  173.4730  141.3010 C   0  0  0  0  0  3  0  0  0  0  0  0
  188.8460  176.4110  145.4550 C   0  0  0  0  0  0  0  0  0  0  0  0
  189.0720  176.5950  143.9920 C   0  0  0  0  0  3  0  0  0  0  0  0
  187.5530  176.6220  145.7130 C   0  0  1  0  0  3  0  0  0  0  0  0
  187.6880  176.9480  143.5430 C   0  0  0  0  0  0  0  0  0  0  0  0
  186.8440  176.9500  144.5240 N   0  0  0  0  0  0  0  0  0  0  0  0
  189.8690  176.0110  146.3880 N   0  0  0  0  0  0  0  0  0  0  0  0
  190.2530  176.9170  147.4640 C   0  0  0  0  0  1  0  0  0  0  0  0
  190.4740  174.6860  146.3680 C   0  0  0  0  0  2  0  0  0  0  0  0
  189.8790  173.8570  145.2430 C   0  0  0  0  0  1  0  0  0  0  0  0
  186.8430  176.3720  147.0080 C   0  0  0  0  0  2  0  0  0  0  0  0
  185.6290  177.2900  147.1470 C   0  0  0  0  0  2  0  0  0  0  0  0
  185.8190  178.2590  148.2660 C   0  0  0  0  0  3  0  0  0  0  0  0
  186.3150  179.4200  148.0500 N   0  0  0  0  0  2  0  0  0  0  0  0
  1  4  1  1  0  0  0
  2 28  1  6  0  0  0
  2  3  1  0  0  0  0
  2  1  1  0  0  0  0
  2 34  1  0  0  0  0
  3  1  1  0  0  0  0
  4  5  1  0  0  0  0
  5  6  1  0  0  0  0
  5  8  1  0  0  0  0
  7  5  1  0  0  0  0
  7  6  1  0  0  0  0
  8 10  1  6  0  0  0
  8 11  1  0  0  0  0
 10  9  1  0  0  0  0
 11 12  1  0  0  0  0
 12 13  1  0  0  0  0
 14 24  1  0  0  0  0
 15 14  2  0  0  0  0
 15 13  1  0  0  0  0
 16 18  1  6  0  0  0
 16 22  1  0  0  0  0
 16 20  1  0  0  0  0
 17 21  1  0  0  0  0
 19 21  1  0  0  0  0
 20 17  1  0  0  0  0
 21 14  1  1  0  0  0
 22 19  1  0  0  0  0
 24 23  2  0  0  0  0
 25 24  1  0  0  0  0
 25 27  1  0  0  0  0
 27 26  1  0  0  0  0
 29 28  1  0  0  0  0
 30 32  1  0  0  0  0
 30 29  1  0  0  0  0
 31 32  2  0  0  0  0
 32 33  1  0  0  0  0
 34 42  1  0  0  0  0
 35 38  1  0  0  0  0
 35 37  1  0  0  0  0
 36 51  1  0  0  0  0
 37 40  1  0  0  0  0
 38 41  1  0  0  0  0
 39 37  2  0  0  0  0
 39 43  1  0  0  0  0
 40 36  2  0  0  0  0
 41 40  1  0  0  0  0
 41 44  2  0  0  0  0
 42 47  2  0  0  0  0
 43 45  2  0  0  0  0
 45 36  1  0  0  0  0
 46 38  2  0  0  0  0
 46 42  1  0  0  0  0
 47 44  1  0  0  0  0
 48 50  1  0  0  0  0
 48 53  1  0  0  0  0
 49 48  2  0  0  0  0
 50 57  1  6  0  0  0
 51 49  1  0  0  0  0
 51 52  2  0  0  0  0
 52 50  1  0  0  0  0
 53 54  1  0  0  0  0
 55 53  1  0  0  0  0
 56 55  1  0  0  0  0
 57 58  1  0  0  0  0
 58 59  1  0  0  0  0
 60 59  2  0  0  0  0
M  END
>  <MODEL>
9

>  <REMARK>
 VINA RESULT:      -4.8      2.607      8.548
  Name = 
  23 active torsions:
  status: ('A' for Active; 'I' for Inactive)
    1  A    between atoms: O_2  and  C_18
    2  A    between atoms: O_2  and  C_46
    3  A    between atoms: C_3  and  N_23
    4  A    between atoms: C_4  and  C_9
    5  A    between atoms: C_4  and  C_38
    6  A    between atoms: C_5  and  C_18
    7  A    between atoms: C_5  and  N_33
    8  A    between atoms: C_7  and  N_23
    9  A    between atoms: C_9  and  C_17
   10  A    between atoms: C_11  and  C_36
   11  A    between atoms: C_11  and  C_40
   12  A    between atoms: C_14  and  O_59
   13  A    between atoms: C_15  and  C_25
   14  A    between atoms: C_16  and  C_28
   15  A    between atoms: C_21  and  C_60
   16  A    between atoms: C_28  and  C_45
   17  A    between atoms: C_30  and  C_31
   18  A    between atoms: C_31  and  N_33
   19  A    between atoms: C_38  and  C_60
   20  A    between atoms: C_39  and  O_59
   21  A    between atoms: C_39  and  C_60
   22  A    between atoms: C_43  and  C_45
   23  A    between atoms: C_56  and  N_58
                            x       y       z     vdW  Elec       q    Type
                         _______ _______ _______ _____ _____    ______ ____

>  <TORSDO>
F 23

$$$$
