=
 OpenBabel11042414523D

 32 35  0  0  1  0  0  0  0  0999 V2000
  188.2210  177.3890  144.6110 N   0  0  0  0  0  0  0  0  0  0  0  0
  184.1810  178.8000  146.0870 C   0  0  0  0  0  3  0  0  0  0  0  0
  187.0580  178.2860  142.6640 C   0  0  0  0  0  0  0  0  0  0  0  0
  186.0080  178.8000  142.1960 O   0  0  0  0  0  0  0  0  0  0  0  0
  185.9780  177.7690  147.3950 C   0  0  0  0  0  3  0  0  0  0  0  0
  187.9710  177.2080  145.9310 C   0  0  0  0  0  0  0  0  0  0  0  0
  184.9500  178.7080  144.9110 C   0  0  0  0  0  3  0  0  0  0  0  0
  186.7090  177.6880  146.2110 C   0  0  0  0  0  0  0  0  0  0  0  0
  184.6920  178.3360  147.3200 C   0  0  0  0  0  3  0  0  0  0  0  0
  186.2200  178.1400  145.0160 C   0  0  0  0  0  0  0  0  0  0  0  0
  187.1500  177.9500  144.0570 N   0  0  0  0  0  0  0  0  0  0  0  0
  188.9570  176.6520  146.9080 C   0  0  1  0  0  3  0  0  0  0  0  0
  188.6100  175.2130  147.2380 C   0  0  0  0  0  2  0  0  0  0  0  0
  189.7300  175.5130  146.2670 C   0  0  2  0  0  3  0  0  0  0  0  0
  191.0630  175.3640  146.9740 C   0  0  0  0  0  2  0  0  0  0  0  0
  192.1700  175.0640  145.9750 C   0  0  0  0  0  2  0  0  0  0  0  0
  192.8490  176.3440  145.4980 C   0  0  2  0  0  3  0  0  0  0  0  0
  192.5320  176.6450  144.0340 C   0  0  0  0  0  2  0  0  0  0  0  0
  191.6110  177.7650  143.9180 N   0  0  0  0  0  1  0  0  0  0  0  0
  194.2870  176.2360  145.6920 N   0  0  0  0  0  2  0  0  0  0  0  0
  194.8040  177.5870  145.8190 C   0  0  0  0  0  1  0  0  0  0  0  0
  188.2220  178.0590  141.7560 C   0  0  0  0  0  2  0  0  0  0  0  0
  187.4650  176.0680  140.6910 O   0  0  0  0  0  0  0  0  0  0  0  0
  189.4150  175.8470  141.9500 N   0  0  0  0  0  2  0  0  0  0  0  0
  188.3370  176.6130  141.4180 C   0  0  0  0  0  0  0  0  0  0  0  0
  189.5380  174.4790  141.6670 N   0  0  0  0  0  2  0  0  0  0  0  0
  192.2130  172.3820  143.1900 C   0  0  0  0  0  3  0  0  0  0  0  0
  190.2050  173.5880  142.5610 C   0  0  0  0  0  0  0  0  0  0  0  0
  191.5430  173.2550  142.3250 C   0  0  0  0  0  3  0  0  0  0  0  0
  191.5470  171.8420  144.2940 C   0  0  0  0  0  3  0  0  0  0  0  0
  189.5390  173.0440  143.6690 C   0  0  0  0  0  3  0  0  0  0  0  0
  190.2090  172.1730  144.5330 C   0  0  0  0  0  3  0  0  0  0  0  0
  1  6  2  0  0  0  0
  2  9  1  0  0  0  0
  3 11  1  0  0  0  0
  4  3  2  0  0  0  0
  6  8  1  0  0  0  0
  7 10  1  0  0  0  0
  7  2  2  0  0  0  0
  8  5  1  0  0  0  0
  9  5  2  0  0  0  0
 10  8  2  0  0  0  0
 11  1  1  0  0  0  0
 11 10  1  0  0  0  0
 12  6  1  6  0  0  0
 12 13  1  0  0  0  0
 14 12  1  0  0  0  0
 14 15  1  1  0  0  0
 14 13  1  0  0  0  0
 16 15  1  0  0  0  0
 17 18  1  6  0  0  0
 17 20  1  0  0  0  0
 17 16  1  0  0  0  0
 19 18  1  0  0  0  0
 20 21  1  0  0  0  0
 22  3  1  0  0  0  0
 23 25  2  0  0  0  0
 25 22  1  0  0  0  0
 25 24  1  0  0  0  0
 26 24  1  0  0  0  0
 26 28  1  0  0  0  0
 27 30  1  0  0  0  0
 28 31  2  0  0  0  0
 29 28  1  0  0  0  0
 29 27  2  0  0  0  0
 30 32  2  0  0  0  0
 31 32  1  0  0  0  0
M  END
>  <MODEL>
1

>  <REMARK>
 VINA RESULT:      -7.0      0.000      0.000
  Name = 
  10 active torsions:
  status: ('A' for Active; 'I' for Inactive)
    1  A    between atoms: C_1  and  C_5
    2  A    between atoms: N_3  and  C_14
    3  A    between atoms: N_3  and  N_27
    4  A    between atoms: C_5  and  N_16
    5  A    between atoms: C_5  and  C_25
    6  A    between atoms: C_6  and  C_9
    7  A    between atoms: C_6  and  C_30
    8  A    between atoms: C_8  and  C_17
    9  A    between atoms: C_21  and  C_25
   10  A    between atoms: C_21  and  C_28
                            x       y       z     vdW  Elec       q    Type
                         _______ _______ _______ _____ _____    ______ ____

>  <TORSDO>
F 10

$$$$
=
 OpenBabel11042414523D

 32 35  0  0  1  0  0  0  0  0999 V2000
  187.0770  178.3070  143.9230 N   0  0  0  0  0  0  0  0  0  0  0  0
  184.0210  178.1700  140.5860 C   0  0  0  0  0  3  0  0  0  0  0  0
  184.9230  178.8140  144.9480 C   0  0  0  0  0  0  0  0  0  0  0  0
  183.6870  178.9980  144.7910 O   0  0  0  0  0  0  0  0  0  0  0  0
  186.4340  177.7770  140.4250 C   0  0  0  0  0  3  0  0  0  0  0  0
  187.5560  178.0280  142.6860 C   0  0  0  0  0  0  0  0  0  0  0  0
  184.1260  178.4100  141.9690 C   0  0  0  0  0  3  0  0  0  0  0  0
  186.5030  178.0250  141.7950 C   0  0  0  0  0  0  0  0  0  0  0  0
  185.1660  177.8550  139.8200 C   0  0  0  0  0  3  0  0  0  0  0  0
  185.3970  178.3280  142.5410 C   0  0  0  0  0  0  0  0  0  0  0  0
  185.7640  178.4960  143.8280 N   0  0  0  0  0  0  0  0  0  0  0  0
  188.9840  177.7000  142.3880 C   0  0  1  0  0  3  0  0  0  0  0  0
  189.8180  177.8050  143.6490 C   0  0  0  0  0  2  0  0  0  0  0  0
  189.3910  176.4470  143.1420 C   0  0  2  0  0  3  0  0  0  0  0  0
  190.5520  175.7920  142.4180 C   0  0  0  0  0  2  0  0  0  0  0  0
  190.2510  174.3290  142.1340 C   0  0  0  0  0  2  0  0  0  0  0  0
  188.7870  174.1250  141.7590 C   0  0  2  0  0  3  0  0  0  0  0  0
  188.3280  172.6900  142.0140 C   0  0  0  0  0  2  0  0  0  0  0  0
  189.0510  172.1020  143.1320 N   0  0  0  0  0  1  0  0  0  0  0  0
  188.5860  174.4790  140.3620 N   0  0  0  0  0  2  0  0  0  0  0  0
  189.1650  173.4130  139.5630 C   0  0  0  0  0  1  0  0  0  0  0  0
  185.5000  178.9000  146.3230 C   0  0  0  0  0  2  0  0  0  0  0  0
  185.2940  176.5910  146.8710 O   0  0  0  0  0  0  0  0  0  0  0  0
  187.4560  177.4560  146.9860 N   0  0  0  0  0  2  0  0  0  0  0  0
  186.0600  177.5810  146.7290 C   0  0  0  0  0  0  0  0  0  0  0  0
  188.0100  176.2320  147.3890 N   0  0  0  0  0  2  0  0  0  0  0  0
  190.6150  174.1040  145.7900 C   0  0  0  0  0  3  0  0  0  0  0  0
  189.2800  175.7920  146.9080 C   0  0  0  0  0  0  0  0  0  0  0  0
  189.3790  174.5530  146.2670 C   0  0  0  0  0  3  0  0  0  0  0  0
  191.7560  174.8960  145.9530 C   0  0  0  0  0  3  0  0  0  0  0  0
  190.4270  176.5830  147.0700 C   0  0  0  0  0  3  0  0  0  0  0  0
  191.6620  176.1350  146.5930 C   0  0  0  0  0  3  0  0  0  0  0  0
  2  7  1  0  0  0  0
  3 22  1  0  0  0  0
  4  3  2  0  0  0  0
  5  8  2  0  0  0  0
  6  1  2  0  0  0  0
  7 10  2  0  0  0  0
  8 10  1  0  0  0  0
  8  6  1  0  0  0  0
  9  5  1  0  0  0  0
  9  2  2  0  0  0  0
 10 11  1  0  0  0  0
 11  1  1  0  0  0  0
 11  3  1  0  0  0  0
 12  6  1  1  0  0  0
 12 14  1  0  0  0  0
 12 13  1  0  0  0  0
 14 15  1  6  0  0  0
 14 13  1  0  0  0  0
 16 15  1  0  0  0  0
 17 18  1  6  0  0  0
 17 16  1  0  0  0  0
 18 19  1  0  0  0  0
 20 17  1  0  0  0  0
 21 20  1  0  0  0  0
 22 25  1  0  0  0  0
 24 26  1  0  0  0  0
 25 23  2  0  0  0  0
 25 24  1  0  0  0  0
 27 30  2  0  0  0  0
 27 29  1  0  0  0  0
 28 31  1  0  0  0  0
 28 26  1  0  0  0  0
 29 28  2  0  0  0  0
 30 32  1  0  0  0  0
 32 31  2  0  0  0  0
M  END
>  <MODEL>
2

>  <REMARK>
 VINA RESULT:      -7.0      2.485      5.192
  Name = 
  10 active torsions:
  status: ('A' for Active; 'I' for Inactive)
    1  A    between atoms: C_1  and  C_5
    2  A    between atoms: N_3  and  C_14
    3  A    between atoms: N_3  and  N_27
    4  A    between atoms: C_5  and  N_16
    5  A    between atoms: C_5  and  C_25
    6  A    between atoms: C_6  and  C_9
    7  A    between atoms: C_6  and  C_30
    8  A    between atoms: C_8  and  C_17
    9  A    between atoms: C_21  and  C_25
   10  A    between atoms: C_21  and  C_28
                            x       y       z     vdW  Elec       q    Type
                         _______ _______ _______ _____ _____    ______ ____

>  <TORSDO>
F 10

$$$$
=
 OpenBabel11042414523D

 32 35  0  0  1  0  0  0  0  0999 V2000
  188.2910  177.3920  144.6300 N   0  0  0  0  0  0  0  0  0  0  0  0
  184.3140  178.6940  146.3550 C   0  0  0  0  0  3  0  0  0  0  0  0
  186.9990  178.2880  142.7660 C   0  0  0  0  0  0  0  0  0  0  0  0
  185.9130  178.7860  142.3660 O   0  0  0  0  0  0  0  0  0  0  0  0
  186.2050  177.6850  147.5430 C   0  0  0  0  0  3  0  0  0  0  0  0
  188.1220  177.1880  145.9590 C   0  0  0  0  0  0  0  0  0  0  0  0
  185.0150  178.6340  145.1360 C   0  0  0  0  0  3  0  0  0  0  0  0
  186.8680  177.6360  146.3180 C   0  0  0  0  0  0  0  0  0  0  0  0
  184.9050  178.2250  147.5500 C   0  0  0  0  0  3  0  0  0  0  0  0
  186.3010  178.0930  145.1600 C   0  0  0  0  0  0  0  0  0  0  0  0
  187.1780  177.9360  144.1470 N   0  0  0  0  0  0  0  0  0  0  0  0
  189.1740  176.6410  146.8700 C   0  0  1  0  0  3  0  0  0  0  0  0
  188.9090  175.1750  147.1530 C   0  0  0  0  0  2  0  0  0  0  0  0
  189.9700  175.5670  146.1490 C   0  0  2  0  0  3  0  0  0  0  0  0
  191.3380  175.4540  146.7930 C   0  0  0  0  0  2  0  0  0  0  0  0
  192.2870  174.6710  145.9010 C   0  0  0  0  0  2  0  0  0  0  0  0
  193.4070  175.5580  145.3670 C   0  0  2  0  0  3  0  0  0  0  0  0
  194.3760  175.9790  146.4700 C   0  0  0  0  0  2  0  0  0  0  0  0
  194.5240  177.4260  146.5130 N   0  0  0  0  0  1  0  0  0  0  0  0
  192.8360  176.7300  144.7210 N   0  0  0  0  0  2  0  0  0  0  0  0
  192.5860  176.3770  143.3350 C   0  0  0  0  0  1  0  0  0  0  0  0
  188.1120  178.0990  141.7890 C   0  0  0  0  0  2  0  0  0  0  0  0
  187.3290  176.1620  140.6470 O   0  0  0  0  0  0  0  0  0  0  0  0
  189.2830  175.8680  141.8850 N   0  0  0  0  0  2  0  0  0  0  0  0
  188.2100  176.6670  141.3910 C   0  0  0  0  0  0  0  0  0  0  0  0
  189.3900  174.5120  141.5440 N   0  0  0  0  0  2  0  0  0  0  0  0
  189.8840  172.2000  144.4220 C   0  0  0  0  0  3  0  0  0  0  0  0
  190.0010  173.5680  142.4230 C   0  0  0  0  0  0  0  0  0  0  0  0
  189.3000  173.1240  143.5490 C   0  0  0  0  0  3  0  0  0  0  0  0
  191.1710  171.7150  144.1690 C   0  0  0  0  0  3  0  0  0  0  0  0
  191.2930  173.0800  142.1730 C   0  0  0  0  0  3  0  0  0  0  0  0
  191.8760  172.1560  143.0440 C   0  0  0  0  0  3  0  0  0  0  0  0
  1  6  2  0  0  0  0
  2  9  1  0  0  0  0
  3 11  1  0  0  0  0
  4  3  2  0  0  0  0
  5  9  2  0  0  0  0
  6  8  1  0  0  0  0
  7 10  1  0  0  0  0
  7  2  2  0  0  0  0
  8  5  1  0  0  0  0
 10  8  2  0  0  0  0
 11  1  1  0  0  0  0
 11 10  1  0  0  0  0
 12  6  1  6  0  0  0
 12 13  1  0  0  0  0
 14 15  1  1  0  0  0
 14 12  1  0  0  0  0
 14 13  1  0  0  0  0
 16 15  1  0  0  0  0
 17 16  1  1  0  0  0
 17 18  1  0  0  0  0
 18 19  1  0  0  0  0
 20 17  1  0  0  0  0
 21 20  1  0  0  0  0
 22  3  1  0  0  0  0
 23 25  2  0  0  0  0
 25 22  1  0  0  0  0
 25 24  1  0  0  0  0
 26 24  1  0  0  0  0
 26 28  1  0  0  0  0
 28 29  1  0  0  0  0
 29 27  2  0  0  0  0
 30 27  1  0  0  0  0
 31 28  2  0  0  0  0
 31 32  1  0  0  0  0
 32 30  2  0  0  0  0
M  END
>  <MODEL>
3

>  <REMARK>
 VINA RESULT:      -7.0      0.611      1.448
  Name = 
  10 active torsions:
  status: ('A' for Active; 'I' for Inactive)
    1  A    between atoms: C_1  and  C_5
    2  A    between atoms: N_3  and  C_14
    3  A    between atoms: N_3  and  N_27
    4  A    between atoms: C_5  and  N_16
    5  A    between atoms: C_5  and  C_25
    6  A    between atoms: C_6  and  C_9
    7  A    between atoms: C_6  and  C_30
    8  A    between atoms: C_8  and  C_17
    9  A    between atoms: C_21  and  C_25
   10  A    between atoms: C_21  and  C_28
                            x       y       z     vdW  Elec       q    Type
                         _______ _______ _______ _____ _____    ______ ____

>  <TORSDO>
F 10

$$$$
=
 OpenBabel11042414523D

 32 35  0  0  1  0  0  0  0  0999 V2000
  190.4500  174.0420  145.4510 N   0  0  0  0  0  0  0  0  0  0  0  0
  194.6440  175.6090  146.1140 C   0  0  0  0  0  3  0  0  0  0  0  0
  191.9370  172.5570  144.2150 C   0  0  0  0  0  0  0  0  0  0  0  0
  193.1140  172.2860  143.8580 O   0  0  0  0  0  0  0  0  0  0  0  0
  192.5480  176.5150  147.0030 C   0  0  0  0  0  3  0  0  0  0  0  0
  190.5570  175.1510  146.2220 C   0  0  0  0  0  0  0  0  0  0  0  0
  193.9470  174.5860  145.4440 C   0  0  0  0  0  3  0  0  0  0  0  0
  191.8900  175.4920  146.3220 C   0  0  0  0  0  0  0  0  0  0  0  0
  193.9500  176.5660  146.8890 C   0  0  0  0  0  3  0  0  0  0  0  0
  192.5580  174.5620  145.5740 C   0  0  0  0  0  0  0  0  0  0  0  0
  191.6690  173.6920  145.0530 N   0  0  0  0  0  0  0  0  0  0  0  0
  189.4070  175.8200  146.9050 C   0  0  1  0  0  3  0  0  0  0  0  0
  189.3420  177.2820  146.5060 C   0  0  0  0  0  2  0  0  0  0  0  0
  188.3970  176.2860  145.8710 C   0  0  2  0  0  3  0  0  0  0  0  0
  187.0350  176.3960  146.5280 C   0  0  0  0  0  2  0  0  0  0  0  0
  185.9650  176.7100  145.4950 C   0  0  0  0  0  2  0  0  0  0  0  0
  185.2200  177.9960  145.8410 C   0  0  2  0  0  3  0  0  0  0  0  0
  185.8630  179.2190  145.1910 C   0  0  0  0  0  2  0  0  0  0  0  0
  185.1160  179.6410  144.0150 N   0  0  0  0  0  1  0  0  0  0  0  0
  185.1700  178.1580  147.2860 N   0  0  0  0  0  2  0  0  0  0  0  0
  185.8840  179.3830  147.6030 C   0  0  0  0  0  1  0  0  0  0  0  0
  190.8240  171.6600  143.7820 C   0  0  0  0  0  2  0  0  0  0  0  0
  188.6140  172.1360  143.0320 O   0  0  0  0  0  0  0  0  0  0  0  0
  190.2940  173.4460  142.0840 N   0  0  0  0  0  2  0  0  0  0  0  0
  189.8390  172.4210  142.9640 C   0  0  0  0  0  0  0  0  0  0  0  0
  189.3930  174.1660  141.2860 N   0  0  0  0  0  2  0  0  0  0  0  0
  189.3680  177.5720  142.7930 C   0  0  0  0  0  3  0  0  0  0  0  0
  188.9510  175.4730  141.6520 C   0  0  0  0  0  0  0  0  0  0  0  0
  189.7850  176.2880  142.4240 C   0  0  0  0  0  3  0  0  0  0  0  0
  188.1160  178.0440  142.3890 C   0  0  0  0  0  3  0  0  0  0  0  0
  187.6950  175.9490  141.2490 C   0  0  0  0  0  3  0  0  0  0  0  0
  187.2780  177.2320  141.6170 C   0  0  0  0  0  3  0  0  0  0  0  0
  1  6  2  0  0  0  0
  2  9  1  0  0  0  0
  3 11  1  0  0  0  0
  4  3  2  0  0  0  0
  6  8  1  0  0  0  0
  7 10  1  0  0  0  0
  7  2  2  0  0  0  0
  8  5  1  0  0  0  0
  9  5  2  0  0  0  0
 10  8  2  0  0  0  0
 11  1  1  0  0  0  0
 11 10  1  0  0  0  0
 12  6  1  6  0  0  0
 13 12  1  0  0  0  0
 14 13  1  0  0  0  0
 14 15  1  1  0  0  0
 14 12  1  0  0  0  0
 16 17  1  0  0  0  0
 16 15  1  0  0  0  0
 17 18  1  6  0  0  0
 17 20  1  0  0  0  0
 19 18  1  0  0  0  0
 20 21  1  0  0  0  0
 22  3  1  0  0  0  0
 24 25  1  0  0  0  0
 25 23  2  0  0  0  0
 25 22  1  0  0  0  0
 26 28  1  0  0  0  0
 26 24  1  0  0  0  0
 28 29  2  0  0  0  0
 29 27  1  0  0  0  0
 30 27  2  0  0  0  0
 31 32  2  0  0  0  0
 31 28  1  0  0  0  0
 32 30  1  0  0  0  0
M  END
>  <MODEL>
4

>  <REMARK>
 VINA RESULT:      -6.5      2.314      6.452
  Name = 
  10 active torsions:
  status: ('A' for Active; 'I' for Inactive)
    1  A    between atoms: C_1  and  C_5
    2  A    between atoms: N_3  and  C_14
    3  A    between atoms: N_3  and  N_27
    4  A    between atoms: C_5  and  N_16
    5  A    between atoms: C_5  and  C_25
    6  A    between atoms: C_6  and  C_9
    7  A    between atoms: C_6  and  C_30
    8  A    between atoms: C_8  and  C_17
    9  A    between atoms: C_21  and  C_25
   10  A    between atoms: C_21  and  C_28
                            x       y       z     vdW  Elec       q    Type
                         _______ _______ _______ _____ _____    ______ ____

>  <TORSDO>
F 10

$$$$
=
 OpenBabel11042414523D

 32 35  0  0  1  0  0  0  0  0999 V2000
  188.5260  176.3720  141.8940 N   0  0  0  0  0  0  0  0  0  0  0  0
  188.7270  172.7070  139.2450 C   0  0  0  0  0  3  0  0  0  0  0  0
  187.0750  176.8270  139.9880 C   0  0  0  0  0  0  0  0  0  0  0  0
  186.6090  176.4300  138.8870 O   0  0  0  0  0  0  0  0  0  0  0  0
  189.8870  173.0860  141.3700 C   0  0  0  0  0  3  0  0  0  0  0  0
  189.3330  175.3710  142.3210 C   0  0  0  0  0  0  0  0  0  0  0  0
  188.1280  173.9790  139.3170 C   0  0  0  0  0  3  0  0  0  0  0  0
  189.2800  174.3400  141.4070 C   0  0  0  0  0  0  0  0  0  0  0  0
  189.6000  172.2640  140.2650 C   0  0  0  0  0  3  0  0  0  0  0  0
  188.4320  174.7720  140.4240 C   0  0  0  0  0  0  0  0  0  0  0  0
  187.9860  176.0060  140.7350 N   0  0  0  0  0  0  0  0  0  0  0  0
  190.0790  175.3820  143.6170 C   0  0  1  0  0  3  0  0  0  0  0  0
  189.4830  176.4140  144.5540 C   0  0  0  0  0  2  0  0  0  0  0  0
  189.1580  174.9490  144.7440 C   0  0  2  0  0  3  0  0  0  0  0  0
  189.9950  174.3910  145.8780 C   0  0  0  0  0  2  0  0  0  0  0  0
  189.7860  175.2000  147.1480 C   0  0  0  0  0  2  0  0  0  0  0  0
  191.1150  175.6510  147.7450 C   0  0  2  0  0  3  0  0  0  0  0  0
  191.1930  177.1710  147.8780 C   0  0  0  0  0  2  0  0  0  0  0  0
  191.5690  177.5600  149.2290 N   0  0  0  0  0  1  0  0  0  0  0  0
  192.2110  175.1580  146.9260 N   0  0  0  0  0  2  0  0  0  0  0  0
  192.8360  176.3140  146.3060 C   0  0  0  0  0  1  0  0  0  0  0  0
  186.6400  178.1510  140.5240 C   0  0  0  0  0  2  0  0  0  0  0  0
  184.3510  177.9080  141.1360 O   0  0  0  0  0  0  0  0  0  0  0  0
  185.8640  177.9000  142.9090 N   0  0  0  0  0  0  0  0  0  0  0  0
  185.5480  177.9690  141.5210 C   0  0  0  0  0  0  0  0  0  0  0  0
  184.8570  177.7500  143.8730 N   0  0  0  0  0  0  0  0  0  0  0  0
  184.8260  178.6660  147.4830 C   0  0  0  0  0  3  0  0  0  0  0  0
  185.1550  177.7330  145.2690 C   0  0  0  0  0  0  0  0  0  0  0  0
  184.5450  178.6670  146.1130 C   0  0  0  0  0  3  0  0  0  0  0  0
  185.7180  177.7300  148.0140 C   0  0  0  0  0  3  0  0  0  0  0  0
  186.0510  176.7950  145.8050 C   0  0  0  0  0  3  0  0  0  0  0  0
  186.3310  176.7940  147.1740 C   0  0  0  0  0  3  0  0  0  0  0  0
  1  6  2  0  0  0  0
  2  7  2  0  0  0  0
  2  9  1  0  0  0  0
  3 22  1  0  0  0  0
  3 11  1  0  0  0  0
  4  3  2  0  0  0  0
  5  8  1  0  0  0  0
  7 10  1  0  0  0  0
  8  6  1  0  0  0  0
  9  5  2  0  0  0  0
 10 11  1  0  0  0  0
 10  8  2  0  0  0  0
 11  1  1  0  0  0  0
 12  6  1  6  0  0  0
 12 13  1  0  0  0  0
 12 14  1  0  0  0  0
 13 14  1  0  0  0  0
 14 15  1  1  0  0  0
 15 16  1  0  0  0  0
 17 16  1  6  0  0  0
 17 18  1  0  0  0  0
 18 19  1  0  0  0  0
 20 17  1  0  0  0  0
 21 20  1  0  0  0  0
 22 25  1  0  0  0  0
 23 25  2  0  0  0  0
 24 26  2  0  0  0  0
 25 24  1  0  0  0  0
 26 28  1  0  0  0  0
 27 30  1  0  0  0  0
 28 31  2  0  0  0  0
 28 29  1  0  0  0  0
 29 27  2  0  0  0  0
 31 32  1  0  0  0  0
 32 30  2  0  0  0  0
M  END
>  <MODEL>
5

>  <REMARK>
 VINA RESULT:      -6.4      2.016      5.852
  Name = 
  10 active torsions:
  status: ('A' for Active; 'I' for Inactive)
    1  A    between atoms: C_1  and  C_5
    2  A    between atoms: N_3  and  C_14
    3  A    between atoms: N_3  and  N_27
    4  A    between atoms: C_5  and  N_16
    5  A    between atoms: C_5  and  C_25
    6  A    between atoms: C_6  and  C_9
    7  A    between atoms: C_6  and  C_30
    8  A    between atoms: C_8  and  C_17
    9  A    between atoms: C_21  and  C_25
   10  A    between atoms: C_21  and  C_28
                            x       y       z     vdW  Elec       q    Type
                         _______ _______ _______ _____ _____    ______ ____

>  <TORSDO>
F 10

$$$$
=
 OpenBabel11042414523D

 32 35  0  0  1  0  0  0  0  0999 V2000
  188.0770  177.3250  144.5000 N   0  0  0  0  0  0  0  0  0  0  0  0
  184.0880  178.6710  146.1630 C   0  0  0  0  0  3  0  0  0  0  0  0
  186.7970  178.1680  142.6040 C   0  0  0  0  0  0  0  0  0  0  0  0
  185.7130  178.6530  142.1830 O   0  0  0  0  0  0  0  0  0  0  0  0
  185.9720  177.6970  147.3900 C   0  0  0  0  0  3  0  0  0  0  0  0
  187.9000  177.1580  145.8330 C   0  0  0  0  0  0  0  0  0  0  0  0
  184.7970  178.5780  144.9500 C   0  0  0  0  0  3  0  0  0  0  0  0
  186.6430  177.6150  146.1720 C   0  0  0  0  0  0  0  0  0  0  0  0
  184.6720  178.2350  147.3740 C   0  0  0  0  0  3  0  0  0  0  0  0
  186.0840  178.0390  144.9970 C   0  0  0  0  0  0  0  0  0  0  0  0
  186.9670  177.8540  143.9950 N   0  0  0  0  0  0  0  0  0  0  0  0
  188.9460  176.6370  146.7660 C   0  0  1  0  0  3  0  0  0  0  0  0
  188.5780  175.2450  147.2390 C   0  0  0  0  0  2  0  0  0  0  0  0
  189.6180  175.4200  146.1550 C   0  0  2  0  0  3  0  0  0  0  0  0
  191.0020  175.2690  146.7570 C   0  0  0  0  0  2  0  0  0  0  0  0
  192.0450  175.0840  145.6660 C   0  0  0  0  0  2  0  0  0  0  0  0
  192.4930  176.4250  145.0930 C   0  0  2  0  0  3  0  0  0  0  0  0
  192.5220  176.4100  143.5660 C   0  0  0  0  0  2  0  0  0  0  0  0
  191.3270  175.7810  143.0260 N   0  0  0  0  0  1  0  0  0  0  0  0
  193.8040  176.7680  145.6210 N   0  0  0  0  0  2  0  0  0  0  0  0
  194.7600  175.8560  145.0180 C   0  0  0  0  0  1  0  0  0  0  0  0
  187.9170  177.9530  141.6390 C   0  0  0  0  0  2  0  0  0  0  0  0
  187.0400  176.5940  139.8910 O   0  0  0  0  0  0  0  0  0  0  0  0
  188.3530  175.4770  141.4610 N   0  0  0  0  0  2  0  0  0  0  0  0
  187.7450  176.6530  140.9330 C   0  0  0  0  0  0  0  0  0  0  0  0
  188.1920  174.2350  140.8300 N   0  0  0  0  0  2  0  0  0  0  0  0
  189.4410  173.3870  137.4250 C   0  0  0  0  0  3  0  0  0  0  0  0
  189.0650  173.8100  139.7830 C   0  0  0  0  0  0  0  0  0  0  0  0
  188.6000  173.8010  138.4640 C   0  0  0  0  0  3  0  0  0  0  0  0
  190.7500  172.9810  137.7040 C   0  0  0  0  0  3  0  0  0  0  0  0
  190.3780  173.4020  140.0590 C   0  0  0  0  0  3  0  0  0  0  0  0
  191.2180  172.9880  139.0210 C   0  0  0  0  0  3  0  0  0  0  0  0
  1  6  2  0  0  0  0
  2  9  1  0  0  0  0
  3 11  1  0  0  0  0
  4  3  2  0  0  0  0
  6  8  1  0  0  0  0
  7 10  1  0  0  0  0
  7  2  2  0  0  0  0
  8  5  1  0  0  0  0
  9  5  2  0  0  0  0
 10  8  2  0  0  0  0
 11  1  1  0  0  0  0
 11 10  1  0  0  0  0
 12  6  1  6  0  0  0
 12 13  1  0  0  0  0
 14 15  1  1  0  0  0
 14 12  1  0  0  0  0
 14 13  1  0  0  0  0
 16 15  1  0  0  0  0
 17 18  1  6  0  0  0
 17 20  1  0  0  0  0
 17 16  1  0  0  0  0
 19 18  1  0  0  0  0
 21 20  1  0  0  0  0
 22  3  1  0  0  0  0
 23 25  2  0  0  0  0
 25 24  1  0  0  0  0
 25 22  1  0  0  0  0
 26 24  1  0  0  0  0
 27 30  2  0  0  0  0
 27 29  1  0  0  0  0
 28 31  1  0  0  0  0
 28 26  1  0  0  0  0
 29 28  2  0  0  0  0
 30 32  1  0  0  0  0
 32 31  2  0  0  0  0
M  END
>  <MODEL>
6

>  <REMARK>
 VINA RESULT:      -6.4      1.840      2.386
  Name = 
  10 active torsions:
  status: ('A' for Active; 'I' for Inactive)
    1  A    between atoms: C_1  and  C_5
    2  A    between atoms: N_3  and  C_14
    3  A    between atoms: N_3  and  N_27
    4  A    between atoms: C_5  and  N_16
    5  A    between atoms: C_5  and  C_25
    6  A    between atoms: C_6  and  C_9
    7  A    between atoms: C_6  and  C_30
    8  A    between atoms: C_8  and  C_17
    9  A    between atoms: C_21  and  C_25
   10  A    between atoms: C_21  and  C_28
                            x       y       z     vdW  Elec       q    Type
                         _______ _______ _______ _____ _____    ______ ____

>  <TORSDO>
F 10

$$$$
=
 OpenBabel11042414523D

 32 35  0  0  1  0  0  0  0  0999 V2000
  188.4870  176.1060  144.5920 N   0  0  0  0  0  0  0  0  0  0  0  0
  184.4990  178.0930  145.3940 C   0  0  0  0  0  3  0  0  0  0  0  0
  187.4280  176.4140  142.4170 C   0  0  0  0  0  0  0  0  0  0  0  0
  186.4220  176.8080  141.7700 O   0  0  0  0  0  0  0  0  0  0  0  0
  186.2000  177.4300  147.0290 C   0  0  0  0  0  3  0  0  0  0  0  0
  188.1940  176.3520  145.8920 C   0  0  0  0  0  0  0  0  0  0  0  0
  185.2910  177.6060  144.3360 C   0  0  0  0  0  3  0  0  0  0  0  0
  186.9550  176.9540  145.9590 C   0  0  0  0  0  0  0  0  0  0  0  0
  184.9510  178.0060  146.7300 C   0  0  0  0  0  3  0  0  0  0  0  0
  186.5230  177.0390  144.6630 C   0  0  0  0  0  0  0  0  0  0  0  0
  187.4640  176.5190  143.8490 N   0  0  0  0  0  0  0  0  0  0  0  0
  189.1200  176.0780  147.0330 C   0  0  1  0  0  3  0  0  0  0  0  0
  189.0490  174.6140  147.4230 C   0  0  0  0  0  2  0  0  0  0  0  0
  190.2080  175.1150  146.5910 C   0  0  2  0  0  3  0  0  0  0  0  0
  191.4220  175.3030  147.4800 C   0  0  0  0  0  2  0  0  0  0  0  0
  192.6860  175.4250  146.6440 C   0  0  0  0  0  2  0  0  0  0  0  0
  192.3690  175.4140  145.1530 C   0  0  2  0  0  3  0  0  0  0  0  0
  193.0840  174.2760  144.4260 C   0  0  0  0  0  2  0  0  0  0  0  0
  192.2150  173.1170  144.2870 N   0  0  0  0  0  1  0  0  0  0  0  0
  192.7320  176.6950  144.5660 N   0  0  0  0  0  2  0  0  0  0  0  0
  191.8540  176.9100  143.4290 C   0  0  0  0  0  1  0  0  0  0  0  0
  188.5990  175.8630  141.6710 C   0  0  0  0  0  2  0  0  0  0  0  0
  187.6840  173.7060  142.0940 O   0  0  0  0  0  0  0  0  0  0  0  0
  188.9320  173.8940  140.1340 N   0  0  0  0  0  0  0  0  0  0  0  0
  188.3610  174.4350  141.3220 C   0  0  0  0  0  0  0  0  0  0  0  0
  188.7430  172.5480  139.7890 N   0  0  0  0  0  0  0  0  0  0  0  0
  189.4620  172.4040  136.1370 C   0  0  0  0  0  3  0  0  0  0  0  0
  189.1340  172.0420  138.5130 C   0  0  0  0  0  0  0  0  0  0  0  0
  189.0840  172.8830  137.3960 C   0  0  0  0  0  3  0  0  0  0  0  0
  189.8910  171.0810  135.9920 C   0  0  0  0  0  3  0  0  0  0  0  0
  189.5640  170.7150  138.3630 C   0  0  0  0  0  3  0  0  0  0  0  0
  189.9410  170.2360  137.1050 C   0  0  0  0  0  3  0  0  0  0  0  0
  1  6  2  0  0  0  0
  2  9  1  0  0  0  0
  3 11  1  0  0  0  0
  4  3  2  0  0  0  0
  6  8  1  0  0  0  0
  7 10  1  0  0  0  0
  7  2  2  0  0  0  0
  8  5  1  0  0  0  0
  9  5  2  0  0  0  0
 10  8  2  0  0  0  0
 11  1  1  0  0  0  0
 11 10  1  0  0  0  0
 12  6  1  6  0  0  0
 12 13  1  0  0  0  0
 14 12  1  0  0  0  0
 14 13  1  0  0  0  0
 14 15  1  1  0  0  0
 16 15  1  0  0  0  0
 17 18  1  6  0  0  0
 17 16  1  0  0  0  0
 19 18  1  0  0  0  0
 20 17  1  0  0  0  0
 21 20  1  0  0  0  0
 22  3  1  0  0  0  0
 24 25  1  0  0  0  0
 25 22  1  0  0  0  0
 25 23  2  0  0  0  0
 26 24  2  0  0  0  0
 27 29  1  0  0  0  0
 28 26  1  0  0  0  0
 29 28  2  0  0  0  0
 30 27  2  0  0  0  0
 30 32  1  0  0  0  0
 31 28  1  0  0  0  0
 32 31  2  0  0  0  0
M  END
>  <MODEL>
7

>  <REMARK>
 VINA RESULT:      -6.3      2.902      3.420
  Name = 
  10 active torsions:
  status: ('A' for Active; 'I' for Inactive)
    1  A    between atoms: C_1  and  C_5
    2  A    between atoms: N_3  and  C_14
    3  A    between atoms: N_3  and  N_27
    4  A    between atoms: C_5  and  N_16
    5  A    between atoms: C_5  and  C_25
    6  A    between atoms: C_6  and  C_9
    7  A    between atoms: C_6  and  C_30
    8  A    between atoms: C_8  and  C_17
    9  A    between atoms: C_21  and  C_25
   10  A    between atoms: C_21  and  C_28
                            x       y       z     vdW  Elec       q    Type
                         _______ _______ _______ _____ _____    ______ ____

>  <TORSDO>
F 10

$$$$
=
 OpenBabel11042414523D

 32 35  0  0  1  0  0  0  0  0999 V2000
  187.3400  176.0990  144.5010 N   0  0  0  0  0  0  0  0  0  0  0  0
  183.9080  179.0250  144.8920 C   0  0  0  0  0  3  0  0  0  0  0  0
  187.1560  176.6220  146.8760 C   0  0  0  0  0  0  0  0  0  0  0  0
  186.5750  177.2810  147.7780 O   0  0  0  0  0  0  0  0  0  0  0  0
  184.7670  177.9870  142.8450 C   0  0  0  0  0  3  0  0  0  0  0  0
  186.7230  176.4520  143.3480 C   0  0  0  0  0  0  0  0  0  0  0  0
  184.8720  178.3520  145.6680 C   0  0  0  0  0  3  0  0  0  0  0  0
  185.7110  177.3410  143.6430 C   0  0  0  0  0  0  0  0  0  0  0  0
  183.8560  178.8420  143.4920 C   0  0  0  0  0  3  0  0  0  0  0  0
  185.7630  177.5120  144.9990 C   0  0  0  0  0  0  0  0  0  0  0  0
  186.7580  176.7520  145.5020 N   0  0  0  0  0  0  0  0  0  0  0  0
  187.0570  175.8870  142.0040 C   0  0  1  0  0  3  0  0  0  0  0  0
  187.9370  176.8540  141.2360 C   0  0  0  0  0  2  0  0  0  0  0  0
  188.5530  175.6460  141.9060 C   0  0  2  0  0  3  0  0  0  0  0  0
  188.8110  174.5710  140.8680 C   0  0  0  0  0  2  0  0  0  0  0  0
  189.5650  173.4020  141.4810 C   0  0  0  0  0  2  0  0  0  0  0  0
  190.5200  173.8700  142.5740 C   0  0  2  0  0  3  0  0  0  0  0  0
  191.9190  174.1490  142.0270 C   0  0  0  0  0  2  0  0  0  0  0  0
  192.2620  175.5560  142.1600 N   0  0  0  0  0  1  0  0  0  0  0  0
  190.5810  172.8710  143.6300 N   0  0  0  0  0  2  0  0  0  0  0  0
  189.7910  173.3740  144.7410 C   0  0  0  0  0  1  0  0  0  0  0  0
  188.2470  175.6770  147.2580 C   0  0  0  0  0  2  0  0  0  0  0  0
  189.6490  177.5240  146.7130 O   0  0  0  0  0  0  0  0  0  0  0  0
  190.7380  175.6840  147.6440 N   0  0  0  0  0  2  0  0  0  0  0  0
  189.5680  176.3620  147.1930 C   0  0  0  0  0  0  0  0  0  0  0  0
  191.9980  176.2950  147.5770 N   0  0  0  0  0  2  0  0  0  0  0  0
  193.9000  174.1140  145.2320 C   0  0  0  0  0  3  0  0  0  0  0  0
  192.9910  175.8610  146.6470 C   0  0  0  0  0  0  0  0  0  0  0  0
  192.9360  174.5570  146.1440 C   0  0  0  0  0  3  0  0  0  0  0  0
  194.9220  174.9750  144.8210 C   0  0  0  0  0  3  0  0  0  0  0  0
  194.0170  176.7220  146.2320 C   0  0  0  0  0  3  0  0  0  0  0  0
  194.9810  176.2790  145.3210 C   0  0  0  0  0  3  0  0  0  0  0  0
  1 11  1  0  0  0  0
  2  7  1  0  0  0  0
  3 22  1  0  0  0  0
  3  4  2  0  0  0  0
  5  9  1  0  0  0  0
  5  8  2  0  0  0  0
  6  8  1  0  0  0  0
  6  1  2  0  0  0  0
  8 10  1  0  0  0  0
  9  2  2  0  0  0  0
 10 11  1  0  0  0  0
 10  7  2  0  0  0  0
 11  3  1  0  0  0  0
 12  6  1  1  0  0  0
 13 14  1  0  0  0  0
 13 12  1  0  0  0  0
 14 15  1  6  0  0  0
 14 12  1  0  0  0  0
 15 16  1  0  0  0  0
 17 16  1  6  0  0  0
 17 20  1  0  0  0  0
 18 19  1  0  0  0  0
 18 17  1  0  0  0  0
 20 21  1  0  0  0  0
 23 25  2  0  0  0  0
 25 22  1  0  0  0  0
 25 24  1  0  0  0  0
 26 24  1  0  0  0  0
 27 29  1  0  0  0  0
 28 26  1  0  0  0  0
 29 28  2  0  0  0  0
 30 27  2  0  0  0  0
 30 32  1  0  0  0  0
 31 28  1  0  0  0  0
 32 31  2  0  0  0  0
M  END
>  <MODEL>
8

>  <REMARK>
 VINA RESULT:      -6.2      2.277      4.818
  Name = 
  10 active torsions:
  status: ('A' for Active; 'I' for Inactive)
    1  A    between atoms: C_1  and  C_5
    2  A    between atoms: N_3  and  C_14
    3  A    between atoms: N_3  and  N_27
    4  A    between atoms: C_5  and  N_16
    5  A    between atoms: C_5  and  C_25
    6  A    between atoms: C_6  and  C_9
    7  A    between atoms: C_6  and  C_30
    8  A    between atoms: C_8  and  C_17
    9  A    between atoms: C_21  and  C_25
   10  A    between atoms: C_21  and  C_28
                            x       y       z     vdW  Elec       q    Type
                         _______ _______ _______ _____ _____    ______ ____

>  <TORSDO>
F 10

$$$$
=
 OpenBabel11042414523D

 32 35  0  0  1  0  0  0  0  0999 V2000
  188.0860  177.3650  144.3340 N   0  0  0  0  0  0  0  0  0  0  0  0
  184.2640  178.7800  146.3040 C   0  0  0  0  0  3  0  0  0  0  0  0
  186.6990  178.2840  142.5520 C   0  0  0  0  0  0  0  0  0  0  0  0
  185.6030  178.8080  142.2190 O   0  0  0  0  0  0  0  0  0  0  0  0
  186.2010  177.7280  147.3740 C   0  0  0  0  0  3  0  0  0  0  0  0
  187.9980  177.1720  145.6730 C   0  0  0  0  0  0  0  0  0  0  0  0
  184.8830  178.6950  145.0430 C   0  0  0  0  0  3  0  0  0  0  0  0
  186.7820  177.6550  146.1090 C   0  0  0  0  0  0  0  0  0  0  0  0
  184.9190  178.3010  147.4610 C   0  0  0  0  0  3  0  0  0  0  0  0
  186.1540  178.1200  144.9870 C   0  0  0  0  0  0  0  0  0  0  0  0
  186.9580  177.9350  143.9200 N   0  0  0  0  0  0  0  0  0  0  0  0
  189.0930  176.6030  146.5180 C   0  0  1  0  0  3  0  0  0  0  0  0
  188.6840  175.2460  147.0570 C   0  0  0  0  0  2  0  0  0  0  0  0
  189.6280  175.3340  145.8790 C   0  0  2  0  0  3  0  0  0  0  0  0
  191.0490  175.1050  146.3550 C   0  0  0  0  0  2  0  0  0  0  0  0
  191.9110  174.5590  145.2270 C   0  0  0  0  0  2  0  0  0  0  0  0
  193.2690  175.2520  145.1810 C   0  0  2  0  0  3  0  0  0  0  0  0
  194.4010  174.3120  145.5910 C   0  0  0  0  0  2  0  0  0  0  0  0
  195.0460  173.7290  144.4230 N   0  0  0  0  0  1  0  0  0  0  0  0
  193.2490  176.4240  146.0420 N   0  0  0  0  0  2  0  0  0  0  0  0
  194.5090  177.1210  145.8450 C   0  0  0  0  0  1  0  0  0  0  0  0
  187.7420  178.0610  141.5060 C   0  0  0  0  0  2  0  0  0  0  0  0
  187.5680  175.7650  140.8970 O   0  0  0  0  0  0  0  0  0  0  0  0
  186.6840  177.2770  139.3570 N   0  0  0  0  0  2  0  0  0  0  0  0
  187.3250  176.9630  140.5910 C   0  0  0  0  0  0  0  0  0  0  0  0
  186.2990  176.2660  138.4650 N   0  0  0  0  0  2  0  0  0  0  0  0
  187.9740  176.0890  135.1430 C   0  0  0  0  0  3  0  0  0  0  0  0
  187.1590  175.8300  137.4130 C   0  0  0  0  0  0  0  0  0  0  0  0
  187.1390  176.5030  136.1870 C   0  0  0  0  0  3  0  0  0  0  0  0
  188.8330  175.0010  135.3240 C   0  0  0  0  0  3  0  0  0  0  0  0
  188.0220  174.7380  137.5910 C   0  0  0  0  0  3  0  0  0  0  0  0
  188.8570  174.3250  136.5480 C   0  0  0  0  0  3  0  0  0  0  0  0
  1  6  2  0  0  0  0
  2  9  1  0  0  0  0
  3 11  1  0  0  0  0
  4  3  2  0  0  0  0
  5  9  2  0  0  0  0
  6  8  1  0  0  0  0
  7  2  2  0  0  0  0
  8  5  1  0  0  0  0
 10  7  1  0  0  0  0
 10  8  2  0  0  0  0
 11  1  1  0  0  0  0
 11 10  1  0  0  0  0
 12  6  1  6  0  0  0
 12 13  1  0  0  0  0
 14 15  1  1  0  0  0
 14 12  1  0  0  0  0
 14 13  1  0  0  0  0
 16 15  1  0  0  0  0
 17 16  1  1  0  0  0
 17 18  1  0  0  0  0
 17 20  1  0  0  0  0
 19 18  1  0  0  0  0
 21 20  1  0  0  0  0
 22  3  1  0  0  0  0
 24 25  1  0  0  0  0
 25 23  2  0  0  0  0
 25 22  1  0  0  0  0
 26 24  1  0  0  0  0
 27 30  2  0  0  0  0
 27 29  1  0  0  0  0
 28 31  1  0  0  0  0
 28 26  1  0  0  0  0
 29 28  2  0  0  0  0
 30 32  1  0  0  0  0
 32 31  2  0  0  0  0
M  END
>  <MODEL>
9

>  <REMARK>
 VINA RESULT:      -6.2      2.706      3.963
  Name = 
  10 active torsions:
  status: ('A' for Active; 'I' for Inactive)
    1  A    between atoms: C_1  and  C_5
    2  A    between atoms: N_3  and  C_14
    3  A    between atoms: N_3  and  N_27
    4  A    between atoms: C_5  and  N_16
    5  A    between atoms: C_5  and  C_25
    6  A    between atoms: C_6  and  C_9
    7  A    between atoms: C_6  and  C_30
    8  A    between atoms: C_8  and  C_17
    9  A    between atoms: C_21  and  C_25
   10  A    between atoms: C_21  and  C_28
                            x       y       z     vdW  Elec       q    Type
                         _______ _______ _______ _____ _____    ______ ____

>  <TORSDO>
F 10

$$$$
