=
 OpenBabel11042417483D

 25 29  0  0  1  0  0  0  0  0999 V2000
  187.2860  177.8220  145.5270 O   0  0  0  0  0  0  0  0  0  0  0  0
  185.2710  177.7790  141.0030 N   0  0  0  0  0  2  0  0  0  0  0  0
  186.6940  177.8270  142.7410 C   0  0  2  0  0  0  0  0  0  0  0  0
  185.4170  179.4230  144.7410 C   0  0  2  0  0  3  0  0  0  0  0  0
  185.9870  178.0460  145.0890 C   0  0  2  0  0  0  0  0  0  0  0  0
  185.4870  179.0280  146.1560 C   0  0  0  0  0  2  0  0  0  0  0  0
  187.4960  178.1550  141.5680 N   0  0  0  0  0  2  0  0  0  0  0  0
  184.0630  178.3050  142.9890 C   0  0  0  0  0  3  0  0  0  0  0  0
  187.3050  176.7420  143.5420 C   0  0  2  0  0  3  0  0  0  0  0  0
  185.2590  177.7700  142.2890 C   0  0  1  0  0  3  0  0  0  0  0  0
  186.5710  177.9020  140.5720 O   0  0  0  0  0  0  0  0  0  0  0  0
  184.1150  179.0660  144.0950 C   0  0  0  0  0  3  0  0  0  0  0  0
  187.2140  178.1600  144.1760 C   0  0  2  0  0  0  0  0  0  0  0  0
  188.7670  176.4220  143.2300 C   0  0  0  0  0  2  0  0  0  0  0  0
  190.0470  174.4150  143.3420 O   0  0  0  0  0  1  0  0  0  0  0  0
  189.2620  175.2780  144.1070 C   0  0  1  0  0  3  0  0  0  0  0  0
  190.0600  175.7850  145.2770 C   0  0  0  0  0  0  0  0  0  0  0  0
  190.4660  176.9360  145.2870 O   0  0  0  0  0  0  0  0  0  0  0  0
  189.1740  174.7150  147.3300 C   0  0  0  0  0  1  0  0  0  0  0  0
  190.3870  174.8840  146.4350 C   0  0  2  0  0  3  0  0  0  0  0  0
  191.5570  175.4140  147.2500 C   0  0  0  0  0  2  0  0  0  0  0  0
  192.8730  175.0460  146.5910 C   0  0  0  0  0  2  0  0  0  0  0  0
  193.7770  176.2590  146.5630 C   0  0  0  0  0  2  0  0  0  0  0  0
  194.0900  176.6220  145.1270 C   0  0  0  0  0  2  0  0  0  0  0  0
  193.4470  175.7290  144.2720 O   0  0  0  0  0  1  0  0  0  0  0  0
  2 10  1  0  0  0  0
  3  7  1  6  0  0  0
  3  9  1  0  0  0  0
  3 13  1  0  0  0  0
  4 12  1  6  0  0  0
  4  5  1  0  0  0  0
  4  6  1  0  0  0  0
  5  1  1  0  0  0  0
  5  6  1  6  0  0  0
  8 12  2  0  0  0  0
  9 14  1  6  0  0  0
  9 13  1  0  0  0  0
 10  3  1  0  0  0  0
 10  8  1  1  0  0  0
 11  2  1  0  0  0  0
 11  7  1  0  0  0  0
 13  5  1  0  0  0  0
 13  1  1  1  0  0  0
 14 16  1  0  0  0  0
 16 15  1  6  0  0  0
 16 17  1  0  0  0  0
 17 18  2  0  0  0  0
 17 20  1  0  0  0  0
 20 21  1  0  0  0  0
 20 19  1  1  0  0  0
 22 21  1  0  0  0  0
 23 22  1  0  0  0  0
 24 23  1  0  0  0  0
 25 24  1  0  0  0  0
M  END
>  <MODEL>
1

>  <REMARK>
 VINA RESULT:      -6.7      0.000      0.000
  Name = 
  8 active torsions:
  status: ('A' for Active; 'I' for Inactive)
    1  A    between atoms: C_1  and  C_9
    2  A    between atoms: C_1  and  C_12
    3  A    between atoms: C_4  and  C_12
    4  A    between atoms: C_7  and  C_11
    5  A    between atoms: C_7  and  C_20
    6  A    between atoms: C_9  and  C_20
    7  A    between atoms: C_11  and  C_15
    8  A    between atoms: C_15  and  C_19
                            x       y       z     vdW  Elec       q    Type
                         _______ _______ _______ _____ _____    ______ ____

>  <TORSDO>
F 8

$$$$
=
 OpenBabel11042417483D

 25 29  0  0  1  0  0  0  0  0999 V2000
  186.2580  178.2830  146.2110 O   0  0  0  0  0  0  0  0  0  0  0  0
  186.9920  177.0150  141.4800 N   0  0  0  0  0  2  0  0  0  0  0  0
  187.2470  177.7040  143.6030 C   0  0  2  0  0  0  0  0  0  0  0  0
  184.8820  179.1890  144.2210 C   0  0  2  0  0  3  0  0  0  0  0  0
  185.3760  178.0830  145.1570 C   0  0  2  0  0  0  0  0  0  0  0  0
  184.2460  179.0480  145.5390 C   0  0  0  0  0  2  0  0  0  0  0  0
  188.4910  178.0510  142.9260 N   0  0  0  0  0  2  0  0  0  0  0  0
  184.8510  177.4970  142.4080 C   0  0  0  0  0  3  0  0  0  0  0  0
  187.4900  176.9570  144.8580 C   0  0  2  0  0  3  0  0  0  0  0  0
  186.2990  177.1990  142.5480 C   0  0  1  0  0  3  0  0  0  0  0  0
  188.2880  177.4110  141.7180 O   0  0  0  0  0  0  0  0  0  0  0  0
  184.1940  178.4050  143.1490 C   0  0  0  0  0  3  0  0  0  0  0  0
  186.8670  178.3790  144.9600 C   0  0  2  0  0  0  0  0  0  0  0  0
  188.9220  176.9940  145.3920 C   0  0  0  0  0  2  0  0  0  0  0  0
  187.7740  175.7110  147.0410 O   0  0  0  0  0  1  0  0  0  0  0  0
  189.0080  176.2870  146.7390 C   0  0  1  0  0  3  0  0  0  0  0  0
  190.0750  175.2260  146.7380 C   0  0  0  0  0  0  0  0  0  0  0  0
  189.9320  174.2170  146.0650 O   0  0  0  0  0  0  0  0  0  0  0  0
  191.3700  176.7640  148.1880 C   0  0  0  0  0  1  0  0  0  0  0  0
  191.3140  175.3780  147.5740 C   0  0  2  0  0  3  0  0  0  0  0  0
  192.5770  175.1230  146.7650 C   0  0  0  0  0  2  0  0  0  0  0  0
  193.3470  176.4150  146.5620 C   0  0  0  0  0  2  0  0  0  0  0  0
  193.7900  176.5140  145.1180 C   0  0  0  0  0  2  0  0  0  0  0  0
  192.5780  176.4470  144.2130 C   0  0  0  0  0  2  0  0  0  0  0  0
  191.9910  177.7080  144.1310 O   0  0  0  0  0  1  0  0  0  0  0  0
  2 11  1  0  0  0  0
  2 10  1  0  0  0  0
  3  7  1  6  0  0  0
  3  9  1  0  0  0  0
  3 13  1  0  0  0  0
  4 12  1  6  0  0  0
  4  5  1  0  0  0  0
  4  6  1  0  0  0  0
  5  6  1  6  0  0  0
  5  1  1  0  0  0  0
  8 12  2  0  0  0  0
  9 13  1  0  0  0  0
  9 14  1  1  0  0  0
 10  8  1  6  0  0  0
 10  3  1  0  0  0  0
 11  7  1  0  0  0  0
 13  5  1  0  0  0  0
 13  1  1  1  0  0  0
 14 16  1  0  0  0  0
 16 15  1  6  0  0  0
 17 16  1  0  0  0  0
 17 20  1  0  0  0  0
 18 17  2  0  0  0  0
 20 19  1  6  0  0  0
 21 20  1  0  0  0  0
 22 21  1  0  0  0  0
 23 22  1  0  0  0  0
 24 23  1  0  0  0  0
 25 24  1  0  0  0  0
M  END
>  <MODEL>
2

>  <REMARK>
 VINA RESULT:      -6.6      1.397      1.950
  Name = 
  8 active torsions:
  status: ('A' for Active; 'I' for Inactive)
    1  A    between atoms: C_1  and  C_9
    2  A    between atoms: C_1  and  C_12
    3  A    between atoms: C_4  and  C_12
    4  A    between atoms: C_7  and  C_11
    5  A    between atoms: C_7  and  C_20
    6  A    between atoms: C_9  and  C_20
    7  A    between atoms: C_11  and  C_15
    8  A    between atoms: C_15  and  C_19
                            x       y       z     vdW  Elec       q    Type
                         _______ _______ _______ _____ _____    ______ ____

>  <TORSDO>
F 8

$$$$
=
 OpenBabel11042417483D

 25 29  0  0  1  0  0  0  0  0999 V2000
  187.5310  177.2720  146.1490 O   0  0  0  0  0  0  0  0  0  0  0  0
  184.8690  178.3930  142.1250 N   0  0  0  0  0  2  0  0  0  0  0  0
  186.5340  177.9630  143.5720 C   0  0  2  0  0  0  0  0  0  0  0  0
  185.7030  179.0950  146.0620 C   0  0  2  0  0  3  0  0  0  0  0  0
  186.2040  177.6510  145.9910 C   0  0  2  0  0  0  0  0  0  0  0  0
  185.9500  178.3740  147.3200 C   0  0  0  0  0  2  0  0  0  0  0  0
  187.1770  178.5240  142.3890 N   0  0  0  0  0  2  0  0  0  0  0  0
  184.0180  178.4860  144.3480 C   0  0  0  0  0  3  0  0  0  0  0  0
  187.1670  176.6930  143.9950 C   0  0  2  0  0  3  0  0  0  0  0  0
  185.0480  178.0790  143.3600 C   0  0  1  0  0  3  0  0  0  0  0  0
  186.0970  178.5550  141.5270 O   0  0  0  0  0  0  0  0  0  0  0  0
  184.2950  178.9610  145.5740 C   0  0  0  0  0  3  0  0  0  0  0  0
  187.2870  177.9230  144.9400 C   0  0  2  0  0  0  0  0  0  0  0  0
  188.5350  176.3910  143.3840 C   0  0  0  0  0  2  0  0  0  0  0  0
  188.6130  174.4650  141.9820 O   0  0  0  0  0  1  0  0  0  0  0  0
  188.7630  174.8870  143.3030 C   0  0  1  0  0  3  0  0  0  0  0  0
  190.1310  174.5080  143.8030 C   0  0  0  0  0  0  0  0  0  0  0  0
  191.1240  174.8450  143.1770 O   0  0  0  0  0  0  0  0  0  0  0  0
  189.6850  172.3210  144.8810 C   0  0  0  0  0  1  0  0  0  0  0  0
  190.2970  173.6980  145.0570 C   0  0  2  0  0  3  0  0  0  0  0  0
  189.6730  174.3870  146.2620 C   0  0  0  0  0  2  0  0  0  0  0  0
  190.5190  175.5700  146.6950 C   0  0  0  0  0  2  0  0  0  0  0  0
  191.9160  175.0940  147.0250 C   0  0  0  0  0  2  0  0  0  0  0  0
  192.9130  176.1830  146.6900 C   0  0  0  0  0  2  0  0  0  0  0  0
  192.5970  176.7350  145.4510 O   0  0  0  0  0  1  0  0  0  0  0  0
  2 10  1  0  0  0  0
  3  7  1  6  0  0  0
  3  9  1  0  0  0  0
  3 13  1  0  0  0  0
  4 12  1  6  0  0  0
  4  6  1  0  0  0  0
  5  4  1  0  0  0  0
  5  1  1  0  0  0  0
  5  6  1  6  0  0  0
  8 12  2  0  0  0  0
  9 14  1  6  0  0  0
  9 13  1  0  0  0  0
 10  3  1  0  0  0  0
 10  8  1  1  0  0  0
 11  2  1  0  0  0  0
 11  7  1  0  0  0  0
 13  5  1  0  0  0  0
 13  1  1  1  0  0  0
 16 15  1  6  0  0  0
 16 14  1  0  0  0  0
 16 17  1  0  0  0  0
 17 20  1  0  0  0  0
 18 17  2  0  0  0  0
 20 19  1  6  0  0  0
 20 21  1  0  0  0  0
 21 22  1  0  0  0  0
 22 23  1  0  0  0  0
 24 23  1  0  0  0  0
 25 24  1  0  0  0  0
M  END
>  <MODEL>
3

>  <REMARK>
 VINA RESULT:      -6.6      1.252      1.720
  Name = 
  8 active torsions:
  status: ('A' for Active; 'I' for Inactive)
    1  A    between atoms: C_1  and  C_9
    2  A    between atoms: C_1  and  C_12
    3  A    between atoms: C_4  and  C_12
    4  A    between atoms: C_7  and  C_11
    5  A    between atoms: C_7  and  C_20
    6  A    between atoms: C_9  and  C_20
    7  A    between atoms: C_11  and  C_15
    8  A    between atoms: C_15  and  C_19
                            x       y       z     vdW  Elec       q    Type
                         _______ _______ _______ _____ _____    ______ ____

>  <TORSDO>
F 8

$$$$
=
 OpenBabel11042417483D

 25 29  0  0  1  0  0  0  0  0999 V2000
  186.7340  177.1900  142.1280 O   0  0  0  0  0  0  0  0  0  0  0  0
  186.1730  178.4310  146.8900 N   0  0  0  0  0  2  0  0  0  0  0  0
  186.6770  177.3800  144.9700 C   0  0  2  0  0  0  0  0  0  0  0  0
  184.4990  177.9220  143.1980 C   0  0  2  0  0  3  0  0  0  0  0  0
  185.9450  178.1490  142.7490 C   0  0  2  0  0  0  0  0  0  0  0  0
  184.7580  178.2180  141.7800 C   0  0  0  0  0  2  0  0  0  0  0  0
  186.8810  176.3920  146.0230 N   0  0  0  0  0  2  0  0  0  0  0  0
  184.9610  179.4400  145.1030 C   0  0  0  0  0  3  0  0  0  0  0  0
  187.8500  177.4790  144.0720 C   0  0  2  0  0  3  0  0  0  0  0  0
  186.0670  178.5930  145.6180 C   0  0  1  0  0  3  0  0  0  0  0  0
  186.7360  177.2000  147.1350 O   0  0  0  0  0  0  0  0  0  0  0  0
  184.2310  179.1460  144.0150 C   0  0  0  0  0  3  0  0  0  0  0  0
  186.5190  176.9310  143.4810 C   0  0  2  0  0  0  0  0  0  0  0  0
  188.8660  176.3410  144.1680 C   0  0  0  0  0  2  0  0  0  0  0  0
  190.2940  178.2260  144.4590 O   0  0  0  0  0  1  0  0  0  0  0  0
  190.1970  176.8560  144.7000 C   0  0  1  0  0  3  0  0  0  0  0  0
  190.3440  176.5900  146.1730 C   0  0  0  0  0  0  0  0  0  0  0  0
  190.1290  177.4820  146.9800 O   0  0  0  0  0  0  0  0  0  0  0  0
  191.3070  175.3480  148.0900 C   0  0  0  0  0  1  0  0  0  0  0  0
  190.7750  175.2400  146.6740 C   0  0  2  0  0  3  0  0  0  0  0  0
  191.8310  174.6140  145.7750 C   0  0  0  0  0  2  0  0  0  0  0  0
  193.2190  175.0610  146.1950 C   0  0  0  0  0  2  0  0  0  0  0  0
  193.8570  175.8430  145.0670 C   0  0  0  0  0  2  0  0  0  0  0  0
  194.3670  177.1670  145.5970 C   0  0  0  0  0  2  0  0  0  0  0  0
  194.1700  177.2210  146.9760 O   0  0  0  0  0  1  0  0  0  0  0  0
  1  5  1  0  0  0  0
  2 11  1  0  0  0  0
  3 10  1  0  0  0  0
  3  7  1  1  0  0  0
  4  6  1  6  0  0  0
  4 12  1  0  0  0  0
  5  6  1  1  0  0  0
  5  4  1  0  0  0  0
  5 13  1  0  0  0  0
  7 11  1  0  0  0  0
  9 14  1  1  0  0  0
  9  3  1  0  0  0  0
 10  8  1  1  0  0  0
 10  2  1  0  0  0  0
 12  8  2  0  0  0  0
 13  1  1  6  0  0  0
 13  9  1  0  0  0  0
 13  3  1  0  0  0  0
 14 16  1  0  0  0  0
 16 15  1  1  0  0  0
 16 17  1  0  0  0  0
 17 20  1  0  0  0  0
 17 18  2  0  0  0  0
 20 19  1  1  0  0  0
 21 22  1  0  0  0  0
 21 20  1  0  0  0  0
 23 24  1  0  0  0  0
 23 22  1  0  0  0  0
 24 25  1  0  0  0  0
M  END
>  <MODEL>
4

>  <REMARK>
 VINA RESULT:      -6.5      2.034      2.976
  Name = 
  8 active torsions:
  status: ('A' for Active; 'I' for Inactive)
    1  A    between atoms: C_1  and  C_9
    2  A    between atoms: C_1  and  C_12
    3  A    between atoms: C_4  and  C_12
    4  A    between atoms: C_7  and  C_11
    5  A    between atoms: C_7  and  C_20
    6  A    between atoms: C_9  and  C_20
    7  A    between atoms: C_11  and  C_15
    8  A    between atoms: C_15  and  C_19
                            x       y       z     vdW  Elec       q    Type
                         _______ _______ _______ _____ _____    ______ ____

>  <TORSDO>
F 8

$$$$
=
 OpenBabel11042417483D

 25 29  0  0  1  0  0  0  0  0999 V2000
  187.7980  176.3710  143.5140 O   0  0  0  0  0  0  0  0  0  0  0  0
  185.4190  179.1630  146.8430 N   0  0  0  0  0  2  0  0  0  0  0  0
  186.4740  177.4920  145.7740 C   0  0  2  0  0  0  0  0  0  0  0  0
  185.5910  177.6340  143.0580 C   0  0  2  0  0  3  0  0  0  0  0  0
  187.0830  177.5550  143.3890 C   0  0  2  0  0  0  0  0  0  0  0  0
  186.5450  177.4190  141.9600 C   0  0  0  0  0  2  0  0  0  0  0  0
  185.9050  176.8920  146.9750 N   0  0  0  0  0  2  0  0  0  0  0  0
  185.4800  179.6420  144.5090 C   0  0  0  0  0  3  0  0  0  0  0  0
  187.9120  177.1720  145.6250 C   0  0  2  0  0  3  0  0  0  0  0  0
  185.9630  178.9060  145.7050 C   0  0  1  0  0  3  0  0  0  0  0  0
  185.4700  178.0320  147.6240 O   0  0  0  0  0  0  0  0  0  0  0  0
  185.2930  179.0800  143.3030 C   0  0  0  0  0  3  0  0  0  0  0  0
  186.9200  176.5960  144.5740 C   0  0  2  0  0  0  0  0  0  0  0  0
  188.4390  176.0340  146.4980 C   0  0  0  0  0  2  0  0  0  0  0  0
  190.3590  175.2520  147.6740 O   0  0  0  0  0  1  0  0  0  0  0  0
  189.9370  176.1880  146.7300 C   0  0  1  0  0  3  0  0  0  0  0  0
  190.7150  176.0080  145.4560 C   0  0  0  0  0  0  0  0  0  0  0  0
  190.6570  174.9490  144.8490 O   0  0  0  0  0  0  0  0  0  0  0  0
  191.1050  177.5460  143.5510 C   0  0  0  0  0  1  0  0  0  0  0  0
  191.5870  177.1090  144.9220 C   0  0  2  0  0  3  0  0  0  0  0  0
  193.0470  176.6870  144.8420 C   0  0  0  0  0  2  0  0  0  0  0  0
  193.6400  176.5600  146.2320 C   0  0  0  0  0  2  0  0  0  0  0  0
  194.7250  175.5050  146.2210 C   0  0  0  0  0  2  0  0  0  0  0  0
  194.2510  174.3020  145.4340 C   0  0  0  0  0  2  0  0  0  0  0  0
  195.2180  173.9530  144.4930 O   0  0  0  0  0  1  0  0  0  0  0  0
  2 11  1  0  0  0  0
  3  7  1  1  0  0  0
  4  6  1  6  0  0  0
  4 12  1  0  0  0  0
  4  5  1  0  0  0  0
  5  6  1  1  0  0  0
  5  1  1  0  0  0  0
  5 13  1  0  0  0  0
  7 11  1  0  0  0  0
  9  3  1  0  0  0  0
  9 14  1  1  0  0  0
 10  8  1  6  0  0  0
 10  3  1  0  0  0  0
 10  2  1  0  0  0  0
 12  8  2  0  0  0  0
 13  1  1  6  0  0  0
 13  9  1  0  0  0  0
 13  3  1  0  0  0  0
 14 16  1  0  0  0  0
 16 15  1  1  0  0  0
 17 16  1  0  0  0  0
 18 17  2  0  0  0  0
 20 19  1  6  0  0  0
 20 17  1  0  0  0  0
 21 20  1  0  0  0  0
 21 22  1  0  0  0  0
 23 22  1  0  0  0  0
 24 23  1  0  0  0  0
 25 24  1  0  0  0  0
M  END
>  <MODEL>
5

>  <REMARK>
 VINA RESULT:      -6.4      2.301      3.471
  Name = 
  8 active torsions:
  status: ('A' for Active; 'I' for Inactive)
    1  A    between atoms: C_1  and  C_9
    2  A    between atoms: C_1  and  C_12
    3  A    between atoms: C_4  and  C_12
    4  A    between atoms: C_7  and  C_11
    5  A    between atoms: C_7  and  C_20
    6  A    between atoms: C_9  and  C_20
    7  A    between atoms: C_11  and  C_15
    8  A    between atoms: C_15  and  C_19
                            x       y       z     vdW  Elec       q    Type
                         _______ _______ _______ _____ _____    ______ ____

>  <TORSDO>
F 8

$$$$
=
 OpenBabel11042417483D

 25 29  0  0  1  0  0  0  0  0999 V2000
  187.5010  176.7830  143.2610 O   0  0  0  0  0  0  0  0  0  0  0  0
  185.4980  178.9080  147.2610 N   0  0  0  0  0  2  0  0  0  0  0  0
  186.5690  177.5300  145.8470 C   0  0  2  0  0  0  0  0  0  0  0  0
  185.0460  177.5700  143.4280 C   0  0  2  0  0  3  0  0  0  0  0  0
  186.5600  177.7940  143.4000 C   0  0  2  0  0  0  0  0  0  0  0  0
  185.7290  177.5940  142.1260 C   0  0  0  0  0  2  0  0  0  0  0  0
  186.4360  176.7860  147.0950 N   0  0  0  0  0  2  0  0  0  0  0  0
  184.8980  179.4630  145.0230 C   0  0  0  0  0  3  0  0  0  0  0  0
  187.9620  177.5230  145.3460 C   0  0  2  0  0  3  0  0  0  0  0  0
  185.7900  178.8070  146.0120 C   0  0  1  0  0  3  0  0  0  0  0  0
  185.9560  177.7890  147.9160 O   0  0  0  0  0  0  0  0  0  0  0  0
  184.5390  178.9120  143.8510 C   0  0  0  0  0  3  0  0  0  0  0  0
  186.8780  176.7850  144.5090 C   0  0  2  0  0  0  0  0  0  0  0  0
  188.8970  176.4940  145.9800 C   0  0  0  0  0  2  0  0  0  0  0  0
  189.8730  177.9140  147.6260 O   0  0  0  0  0  1  0  0  0  0  0  0
  190.1670  177.1650  146.4870 C   0  0  1  0  0  3  0  0  0  0  0  0
  191.2360  176.1560  146.8060 C   0  0  0  0  0  0  0  0  0  0  0  0
  191.0720  175.3610  147.7180 O   0  0  0  0  0  0  0  0  0  0  0  0
  193.6650  176.6470  146.8800 C   0  0  0  0  0  1  0  0  0  0  0  0
  192.5220  176.1230  146.0300 C   0  0  2  0  0  3  0  0  0  0  0  0
  192.4270  176.9290  144.7430 C   0  0  0  0  0  2  0  0  0  0  0  0
  192.3910  176.0070  143.5400 C   0  0  0  0  0  2  0  0  0  0  0  0
  191.0030  176.0210  142.9370 C   0  0  0  0  0  2  0  0  0  0  0  0
  190.3640  174.6600  143.1070 C   0  0  0  0  0  2  0  0  0  0  0  0
  189.5110  174.4100  142.0340 O   0  0  0  0  0  1  0  0  0  0  0  0
  1  5  1  0  0  0  0
  2 11  1  0  0  0  0
  3 10  1  0  0  0  0
  3  7  1  1  0  0  0
  4  6  1  6  0  0  0
  4 12  1  0  0  0  0
  5  6  1  1  0  0  0
  5  4  1  0  0  0  0
  5 13  1  0  0  0  0
  7 11  1  0  0  0  0
  9  3  1  0  0  0  0
  9 14  1  1  0  0  0
 10  8  1  6  0  0  0
 10  2  1  0  0  0  0
 12  8  2  0  0  0  0
 13  1  1  6  0  0  0
 13  9  1  0  0  0  0
 13  3  1  0  0  0  0
 14 16  1  0  0  0  0
 16 17  1  0  0  0  0
 16 15  1  1  0  0  0
 17 18  2  0  0  0  0
 20 17  1  0  0  0  0
 20 19  1  1  0  0  0
 21 20  1  0  0  0  0
 22 21  1  0  0  0  0
 23 24  1  0  0  0  0
 23 22  1  0  0  0  0
 25 24  1  0  0  0  0
M  END
>  <MODEL>
6

>  <REMARK>
 VINA RESULT:      -6.3      2.407      3.875
  Name = 
  8 active torsions:
  status: ('A' for Active; 'I' for Inactive)
    1  A    between atoms: C_1  and  C_9
    2  A    between atoms: C_1  and  C_12
    3  A    between atoms: C_4  and  C_12
    4  A    between atoms: C_7  and  C_11
    5  A    between atoms: C_7  and  C_20
    6  A    between atoms: C_9  and  C_20
    7  A    between atoms: C_11  and  C_15
    8  A    between atoms: C_15  and  C_19
                            x       y       z     vdW  Elec       q    Type
                         _______ _______ _______ _____ _____    ______ ____

>  <TORSDO>
F 8

$$$$
=
 OpenBabel11042417483D

 25 29  0  0  1  0  0  0  0  0999 V2000
  189.4400  176.2920  146.8640 O   0  0  0  0  0  0  0  0  0  0  0  0
  192.4970  176.5070  142.9740 N   0  0  0  0  0  2  0  0  0  0  0  0
  190.7500  176.1470  144.3390 C   0  0  2  0  0  0  0  0  0  0  0  0
  191.8800  175.4440  146.8690 C   0  0  2  0  0  3  0  0  0  0  0  0
  190.8050  176.5280  146.7700 C   0  0  2  0  0  0  0  0  0  0  0  0
  191.2890  175.9650  148.1110 C   0  0  0  0  0  2  0  0  0  0  0  0
  190.4670  175.3830  143.1290 N   0  0  0  0  0  2  0  0  0  0  0  0
  193.2070  176.7530  145.2350 C   0  0  0  0  0  3  0  0  0  0  0  0
  189.6110  177.0090  144.7270 C   0  0  2  0  0  3  0  0  0  0  0  0
  192.1470  176.6900  144.1970 C   0  0  1  0  0  3  0  0  0  0  0  0
  191.4900  175.8390  142.3180 O   0  0  0  0  0  0  0  0  0  0  0  0
  193.1100  176.1840  146.4480 C   0  0  0  0  0  3  0  0  0  0  0  0
  189.9950  175.8320  145.6700 C   0  0  2  0  0  0  0  0  0  0  0  0
  188.2750  176.6980  144.0520 C   0  0  0  0  0  2  0  0  0  0  0  0
  188.5760  178.0910  142.1410 O   0  0  0  0  0  1  0  0  0  0  0  0
  187.7780  177.9080  143.2700 C   0  0  1  0  0  3  0  0  0  0  0  0
  186.3410  177.7440  142.8540 C   0  0  0  0  0  0  0  0  0  0  0  0
  186.0140  176.8020  142.1480 O   0  0  0  0  0  0  0  0  0  0  0  0
  185.9520  179.9610  143.8900 C   0  0  0  0  0  1  0  0  0  0  0  0
  185.2970  178.7380  143.2760 C   0  0  2  0  0  3  0  0  0  0  0  0
  184.3080  178.1350  144.2630 C   0  0  0  0  0  2  0  0  0  0  0  0
  185.0330  177.6100  145.4880 C   0  0  0  0  0  2  0  0  0  0  0  0
  184.4420  178.2420  146.7300 C   0  0  0  0  0  2  0  0  0  0  0  0
  185.5580  178.6990  147.6440 C   0  0  0  0  0  2  0  0  0  0  0  0
  186.7850  178.3070  147.1100 O   0  0  0  0  0  1  0  0  0  0  0  0
  2 10  1  0  0  0  0
  3  7  1  6  0  0  0
  3  9  1  0  0  0  0
  3 13  1  0  0  0  0
  4 12  1  1  0  0  0
  4  6  1  0  0  0  0
  5  1  1  0  0  0  0
  5  4  1  0  0  0  0
  5  6  1  6  0  0  0
  8 12  2  0  0  0  0
  9 14  1  6  0  0  0
  9 13  1  0  0  0  0
 10  3  1  0  0  0  0
 10  8  1  1  0  0  0
 11  2  1  0  0  0  0
 11  7  1  0  0  0  0
 13  5  1  0  0  0  0
 13  1  1  1  0  0  0
 16 15  1  6  0  0  0
 16 14  1  0  0  0  0
 17 16  1  0  0  0  0
 17 20  1  0  0  0  0
 18 17  2  0  0  0  0
 20 19  1  1  0  0  0
 20 21  1  0  0  0  0
 21 22  1  0  0  0  0
 22 23  1  0  0  0  0
 23 24  1  0  0  0  0
 25 24  1  0  0  0  0
M  END
>  <MODEL>
7

>  <REMARK>
 VINA RESULT:      -6.2      2.044      6.602
  Name = 
  8 active torsions:
  status: ('A' for Active; 'I' for Inactive)
    1  A    between atoms: C_1  and  C_9
    2  A    between atoms: C_1  and  C_12
    3  A    between atoms: C_4  and  C_12
    4  A    between atoms: C_7  and  C_11
    5  A    between atoms: C_7  and  C_20
    6  A    between atoms: C_9  and  C_20
    7  A    between atoms: C_11  and  C_15
    8  A    between atoms: C_15  and  C_19
                            x       y       z     vdW  Elec       q    Type
                         _______ _______ _______ _____ _____    ______ ____

>  <TORSDO>
F 8

$$$$
=
 OpenBabel11042417483D

 25 29  0  0  1  0  0  0  0  0999 V2000
  187.5780  176.8550  143.2190 O   0  0  0  0  0  0  0  0  0  0  0  0
  185.4950  178.8000  147.2690 N   0  0  0  0  0  2  0  0  0  0  0  0
  186.6140  177.4980  145.8210 C   0  0  2  0  0  0  0  0  0  0  0  0
  185.0990  177.5600  143.3970 C   0  0  2  0  0  3  0  0  0  0  0  0
  186.6050  177.8320  143.3820 C   0  0  2  0  0  0  0  0  0  0  0  0
  185.7870  177.6430  142.0990 C   0  0  0  0  0  2  0  0  0  0  0  0
  186.5000  176.7140  147.0460 N   0  0  0  0  0  2  0  0  0  0  0  0
  184.8860  179.4000  145.0450 C   0  0  0  0  0  3  0  0  0  0  0  0
  188.0080  177.5490  145.3260 C   0  0  2  0  0  3  0  0  0  0  0  0
  185.7940  178.7440  146.0190 C   0  0  1  0  0  3  0  0  0  0  0  0
  185.9850  177.6770  147.8940 O   0  0  0  0  0  0  0  0  0  0  0  0
  184.5490  178.8730  143.8560 C   0  0  0  0  0  3  0  0  0  0  0  0
  186.9510  176.8020  144.4630 C   0  0  2  0  0  0  0  0  0  0  0  0
  188.9730  176.5310  145.9350 C   0  0  0  0  0  2  0  0  0  0  0  0
  190.4860  177.8900  144.6920 O   0  0  0  0  0  1  0  0  0  0  0  0
  190.3430  176.6310  145.2750 C   0  0  1  0  0  3  0  0  0  0  0  0
  191.4510  176.4030  146.2660 C   0  0  0  0  0  0  0  0  0  0  0  0
  191.3200  176.7670  147.4240 O   0  0  0  0  0  0  0  0  0  0  0  0
  192.7070  174.2680  146.1760 C   0  0  0  0  0  1  0  0  0  0  0  0
  192.7370  175.7490  145.8470 C   0  0  2  0  0  3  0  0  0  0  0  0
  193.9440  176.3970  146.5090 C   0  0  0  0  0  2  0  0  0  0  0  0
  194.7440  177.1910  145.4940 C   0  0  0  0  0  2  0  0  0  0  0  0
  194.7930  176.4300  144.1870 C   0  0  0  0  0  2  0  0  0  0  0  0
  196.2080  175.9580  143.9300 C   0  0  0  0  0  2  0  0  0  0  0  0
  196.4430  174.7850  144.6460 O   0  0  0  0  0  1  0  0  0  0  0  0
  1  5  1  0  0  0  0
  2 11  1  0  0  0  0
  3 10  1  0  0  0  0
  3  7  1  1  0  0  0
  4  6  1  6  0  0  0
  4 12  1  0  0  0  0
  5  6  1  1  0  0  0
  5  4  1  0  0  0  0
  5 13  1  0  0  0  0
  7 11  1  0  0  0  0
  9  3  1  0  0  0  0
  9 14  1  1  0  0  0
 10  8  1  6  0  0  0
 10  2  1  0  0  0  0
 12  8  2  0  0  0  0
 13  1  1  6  0  0  0
 13  9  1  0  0  0  0
 13  3  1  0  0  0  0
 16 15  1  1  0  0  0
 16 14  1  0  0  0  0
 16 17  1  0  0  0  0
 17 18  2  0  0  0  0
 20 19  1  1  0  0  0
 20 17  1  0  0  0  0
 20 21  1  0  0  0  0
 22 21  1  0  0  0  0
 23 22  1  0  0  0  0
 24 23  1  0  0  0  0
 24 25  1  0  0  0  0
M  END
>  <MODEL>
8

>  <REMARK>
 VINA RESULT:      -6.2      2.365      3.424
  Name = 
  8 active torsions:
  status: ('A' for Active; 'I' for Inactive)
    1  A    between atoms: C_1  and  C_9
    2  A    between atoms: C_1  and  C_12
    3  A    between atoms: C_4  and  C_12
    4  A    between atoms: C_7  and  C_11
    5  A    between atoms: C_7  and  C_20
    6  A    between atoms: C_9  and  C_20
    7  A    between atoms: C_11  and  C_15
    8  A    between atoms: C_15  and  C_19
                            x       y       z     vdW  Elec       q    Type
                         _______ _______ _______ _____ _____    ______ ____

>  <TORSDO>
F 8

$$$$
=
 OpenBabel11042417483D

 25 29  0  0  1  0  0  0  0  0999 V2000
  187.7900  177.1810  146.2850 O   0  0  0  0  0  0  0  0  0  0  0  0
  184.0430  178.6650  143.4060 N   0  0  0  0  0  2  0  0  0  0  0  0
  186.0680  178.1640  144.2400 C   0  0  2  0  0  0  0  0  0  0  0  0
  185.9470  178.8370  147.0170 C   0  0  2  0  0  3  0  0  0  0  0  0
  186.4610  177.4670  146.5680 C   0  0  2  0  0  0  0  0  0  0  0  0
  186.5730  177.9590  148.0170 C   0  0  0  0  0  2  0  0  0  0  0  0
  186.3220  178.9480  143.0370 N   0  0  0  0  0  2  0  0  0  0  0  0
  183.8640  178.3530  145.7620 C   0  0  0  0  0  3  0  0  0  0  0  0
  186.8430  176.9030  144.2520 C   0  0  2  0  0  3  0  0  0  0  0  0
  184.5810  178.1860  144.4720 C   0  0  1  0  0  3  0  0  0  0  0  0
  185.0400  179.0170  142.5260 O   0  0  0  0  0  0  0  0  0  0  0  0
  184.4650  178.6600  146.9240 C   0  0  0  0  0  3  0  0  0  0  0  0
  187.1840  177.9830  145.3190 C   0  0  2  0  0  0  0  0  0  0  0  0
  187.9880  176.8110  143.2440 C   0  0  0  0  0  2  0  0  0  0  0  0
  188.6050  174.5550  142.7870 O   0  0  0  0  0  1  0  0  0  0  0  0
  188.9140  175.6520  143.5910 C   0  0  1  0  0  3  0  0  0  0  0  0
  190.3600  176.0250  143.4050 C   0  0  0  0  0  0  0  0  0  0  0  0
  191.0040  175.5340  142.4900 O   0  0  0  0  0  0  0  0  0  0  0  0
  191.1380  178.3570  143.7140 C   0  0  0  0  0  1  0  0  0  0  0  0
  191.0360  176.9810  144.3450 C   0  0  2  0  0  3  0  0  0  0  0  0
  192.4220  176.4970  144.7450 C   0  0  0  0  0  2  0  0  0  0  0  0
  192.3660  175.7670  146.0740 C   0  0  0  0  0  2  0  0  0  0  0  0
  191.3050  176.3980  146.9490 C   0  0  0  0  0  2  0  0  0  0  0  0
  190.3950  175.3190  147.4960 C   0  0  0  0  0  2  0  0  0  0  0  0
  190.2030  174.3380  146.5250 O   0  0  0  0  0  1  0  0  0  0  0  0
  1  5  1  0  0  0  0
  2 10  1  0  0  0  0
  3  7  1  6  0  0  0
  3  9  1  0  0  0  0
  3 10  1  0  0  0  0
  3 13  1  0  0  0  0
  4 12  1  1  0  0  0
  4  6  1  0  0  0  0
  5  4  1  0  0  0  0
  5  6  1  6  0  0  0
  8 12  2  0  0  0  0
  9 14  1  6  0  0  0
  9 13  1  0  0  0  0
 10  8  1  1  0  0  0
 11  7  1  0  0  0  0
 11  2  1  0  0  0  0
 13  1  1  1  0  0  0
 13  5  1  0  0  0  0
 14 16  1  0  0  0  0
 16 15  1  6  0  0  0
 17 16  1  0  0  0  0
 17 20  1  0  0  0  0
 18 17  2  0  0  0  0
 20 19  1  6  0  0  0
 20 21  1  0  0  0  0
 21 22  1  0  0  0  0
 22 23  1  0  0  0  0
 23 24  1  0  0  0  0
 25 24  1  0  0  0  0
M  END
>  <MODEL>
9

>  <REMARK>
 VINA RESULT:      -6.1      1.739      2.625
  Name = 
  8 active torsions:
  status: ('A' for Active; 'I' for Inactive)
    1  A    between atoms: C_1  and  C_9
    2  A    between atoms: C_1  and  C_12
    3  A    between atoms: C_4  and  C_12
    4  A    between atoms: C_7  and  C_11
    5  A    between atoms: C_7  and  C_20
    6  A    between atoms: C_9  and  C_20
    7  A    between atoms: C_11  and  C_15
    8  A    between atoms: C_15  and  C_19
                            x       y       z     vdW  Elec       q    Type
                         _______ _______ _______ _____ _____    ______ ____

>  <TORSDO>
F 8

$$$$
