=
 OpenBabel11042418123D

 47 51  0  0  1  0  0  0  0  0999 V2000
  185.6170  178.1590  142.2230 C   0  0  2  0  0  3  0  0  0  0  0  0
  185.5410  179.3420  144.4250 C   0  0  0  0  0  3  0  0  0  0  0  0
  185.5810  176.9240  145.8310 C   0  0  0  0  0  3  0  0  0  0  0  0
  185.5920  178.1320  143.7230 C   0  0  0  0  0  0  0  0  0  0  0  0
  185.6110  176.9200  144.4330 C   0  0  0  0  0  3  0  0  0  0  0  0
  185.5060  178.1410  147.9120 O   0  0  0  0  0  1  0  0  0  0  0  0
  185.5130  179.3450  145.8220 C   0  0  0  0  0  3  0  0  0  0  0  0
  185.5330  178.1370  146.5250 C   0  0  0  0  0  0  0  0  0  0  0  0
  183.9440  178.1180  140.3030 C   0  0  0  0  0  3  0  0  0  0  0  0
  184.2380  178.1860  141.6460 C   0  0  0  0  0  0  0  0  0  0  0  0
  182.6050  178.1590  140.1760 N   0  0  0  0  0  0  0  0  0  0  0  0
  182.1420  178.2550  141.4380 C   0  0  0  0  0  0  0  0  0  0  0  0
  183.1090  178.2680  142.3750 N   0  0  0  0  0  2  0  0  0  0  0  0
  180.6880  178.2820  141.7690 C   0  0  0  0  0  2  0  0  0  0  0  0
  178.9540  178.5840  139.9370 C   0  0  0  0  0  0  0  0  0  0  0  0
  180.2100  180.4930  140.7210 C   0  0  0  0  0  3  0  0  0  0  0  0
  178.2890  179.3990  139.0720 N   0  0  0  0  0  0  0  0  0  0  0  0
  178.5470  180.7330  138.9980 C   0  0  0  0  0  0  0  0  0  0  0  0
  179.5150  181.3040  139.8250 C   0  0  0  0  0  3  0  0  0  0  0  0
  179.9410  179.1240  140.7830 C   0  0  0  0  0  0  0  0  0  0  0  0
  177.8610  181.5070  138.1250 F   0  0  0  0  0  0  0  0  0  0  0  0
  178.6210  177.1260  139.9740 C   0  0  0  0  0  3  0  0  0  0  0  0
  177.6930  176.8740  140.9840 O   0  0  0  0  0  1  0  0  0  0  0  0
  178.0990  176.7210  138.7440 O   0  0  0  0  0  1  0  0  0  0  0  0
  186.4270  177.0080  141.6400 C   0  0  0  0  0  2  0  0  0  0  0  0
  187.8370  177.1990  141.9310 N   0  0  0  0  0  2  0  0  0  0  0  0
  189.7480  175.8090  142.4590 C   0  0  0  0  0  2  0  0  0  0  0  0
  188.5050  175.9520  141.6050 C   0  0  1  0  0  3  0  0  0  0  0  0
  188.4890  175.0520  142.8220 C   0  0  1  0  0  3  0  0  0  0  0  0
  188.6220  173.6100  142.3710 C   0  0  0  0  0  2  0  0  0  0  0  0
  189.8040  172.9460  143.0740 C   0  0  2  0  0  3  0  0  0  0  0  0
  190.2110  171.7380  142.4610 O   0  0  0  0  0  0  0  0  0  0  0  0
  191.1300  172.0250  141.4380 C   0  0  0  0  0  1  0  0  0  0  0  0
  189.5680  172.8180  144.5850 C   0  0  0  0  0  2  0  0  0  0  0  0
  190.6570  173.4770  145.4340 C   0  0  2  0  0  3  0  0  0  0  0  0
  188.8050  174.7710  146.2580 F   0  0  0  0  0  0  0  0  0  0  0  0
  190.1790  174.7690  146.0960 C   0  0  0  0  0  2  0  0  0  0  0  0
  191.9660  173.6600  144.6670 C   0  0  0  0  0  2  0  0  0  0  0  0
  193.1070  174.0410  145.5980 C   0  0  0  0  0  2  0  0  0  0  0  0
  195.4980  174.6550  145.7480 C   0  0  1  0  0  3  0  0  0  0  0  0
  194.4250  174.1120  144.8300 C   0  0  2  0  0  3  0  0  0  0  0  0
  196.7260  174.1000  145.3950 O   0  0  0  0  0  1  0  0  0  0  0  0
  194.9940  175.5230  144.6080 C   0  0  1  0  0  3  0  0  0  0  0  0
  194.1380  176.6550  145.1170 C   0  0  0  0  0  0  0  0  0  0  0  0
  193.1810  177.0460  144.4630 O   0  0  0  0  0  0  0  0  0  0  0  0
  193.3990  176.9970  147.3380 O   0  0  0  0  0  1  0  0  0  0  0  0
  194.4320  177.2770  146.4430 C   0  0  0  0  0  2  0  0  0  0  0  0
  1 25  1  6  0  0  0
  1  4  1  0  0  0  0
  2  7  1  0  0  0  0
  3  8  1  0  0  0  0
  4  2  2  0  0  0  0
  4  5  1  0  0  0  0
  5  3  2  0  0  0  0
  7  8  2  0  0  0  0
  8  6  1  0  0  0  0
  9 10  2  0  0  0  0
 10  1  1  0  0  0  0
 10 13  1  0  0  0  0
 11  9  1  0  0  0  0
 11 12  2  0  0  0  0
 12 14  1  0  0  0  0
 12 13  1  0  0  0  0
 15 22  1  0  0  0  0
 15 20  1  0  0  0  0
 16 20  2  0  0  0  0
 17 15  2  0  0  0  0
 18 17  1  0  0  0  0
 18 19  2  0  0  0  0
 19 16  1  0  0  0  0
 20 14  1  0  0  0  0
 21 18  1  0  0  0  0
 22 23  1  0  0  0  0
 24 22  1  0  0  0  0
 25 26  1  0  0  0  0
 27 29  1  0  0  0  0
 28 26  1  1  0  0  0
 28 27  1  0  0  0  0
 28 29  1  0  0  0  0
 29 30  1  6  0  0  0
 31 30  1  6  0  0  0
 31 34  1  0  0  0  0
 32 31  1  0  0  0  0
 33 32  1  0  0  0  0
 35 34  1  6  0  0  0
 35 37  1  0  0  0  0
 37 36  1  0  0  0  0
 38 35  1  0  0  0  0
 38 39  1  0  0  0  0
 40 42  1  6  0  0  0
 41 39  1  1  0  0  0
 41 40  1  0  0  0  0
 43 41  1  0  0  0  0
 43 44  1  1  0  0  0
 43 40  1  0  0  0  0
 44 47  1  0  0  0  0
 45 44  2  0  0  0  0
 47 46  1  0  0  0  0
M  END
>  <MODEL>
1

>  <REMARK>
 VINA RESULT:      -7.2      0.000      0.000
  Name = 
  19 active torsions:
  status: ('A' for Active; 'I' for Inactive)
    1  A    between atoms: C_2  and  C_40
    2  A    between atoms: C_2  and  C_47
    3  A    between atoms: C_7  and  CA_12
    4  A    between atoms: O_9  and  C_26
    5  A    between atoms: C_10  and  C_26
    6  A    between atoms: C_10  and  C_41
    7  A    between atoms: C_11  and  C_24
    8  A    between atoms: C_14  and  C_41
    9  A    between atoms: C_15  and  C_45
   10  A    between atoms: C_16  and  C_45
   11  A    between atoms: N_20  and  C_33
   12  A    between atoms: N_20  and  C_44
   13  A    between atoms: C_22  and  C_26
   14  A    between atoms: C_22  and  C_38
   15  A    between atoms: C_24  and  C_35
   16  A    between atoms: C_30  and  C_36
   17  A    between atoms: C_35  and  C_41
   18  A    between atoms: C_36  and  C_37
   19  A    between atoms: C_44  and  C_45
                            x       y       z     vdW  Elec       q    Type
                         _______ _______ _______ _____ _____    ______ ____

>  <TORSDO>
F 19

$$$$
=
 OpenBabel11042418123D

 47 51  0  0  1  0  0  0  0  0999 V2000
  189.7000  174.3280  141.4510 C   0  0  2  0  0  3  0  0  0  0  0  0
  188.7790  172.7290  139.7640 C   0  0  0  0  0  3  0  0  0  0  0  0
  191.2260  172.5960  138.4160 C   0  0  0  0  0  3  0  0  0  0  0  0
  189.8700  173.4700  140.2320 C   0  0  0  0  0  0  0  0  0  0  0  0
  191.0970  173.4010  139.5520 C   0  0  0  0  0  3  0  0  0  0  0  0
  190.2610  171.0580  136.8290 O   0  0  0  0  0  1  0  0  0  0  0  0
  188.9090  171.9250  138.6290 C   0  0  0  0  0  3  0  0  0  0  0  0
  190.1320  171.8580  137.9550 C   0  0  0  0  0  0  0  0  0  0  0  0
  190.2100  172.5230  143.1750 C   0  0  0  0  0  2  0  0  0  0  0  0
  190.4310  173.7680  142.6300 C   0  0  0  0  0  0  0  0  0  0  0  0
  191.0610  172.3730  144.2070 N   0  0  0  0  0  0  0  0  0  0  0  0
  191.7550  173.5270  144.2510 C   0  0  0  0  0  0  0  0  0  0  0  0
  191.4070  174.4110  143.2970 N   0  0  0  0  0  0  0  0  0  0  0  0
  192.8530  173.7770  145.2300 C   0  0  0  0  0  2  0  0  0  0  0  0
  194.5180  175.5990  144.6280 C   0  0  0  0  0  0  0  0  0  0  0  0
  194.8310  173.3620  143.7700 C   0  0  0  0  0  3  0  0  0  0  0  0
  195.6550  175.9850  143.9840 N   0  0  0  0  0  0  0  0  0  0  0  0
  196.3900  175.1170  143.2390 C   0  0  0  0  0  0  0  0  0  0  0  0
  195.9900  173.7860  143.1210 C   0  0  0  0  0  3  0  0  0  0  0  0
  194.0800  174.2640  144.5260 C   0  0  0  0  0  0  0  0  0  0  0  0
  197.5140  175.5430  142.6180 F   0  0  0  0  0  0  0  0  0  0  0  0
  193.7550  176.6010  145.4360 C   0  0  0  0  0  3  0  0  0  0  0  0
  194.6370  177.4880  146.0520 O   0  0  0  0  0  1  0  0  0  0  0  0
  192.8740  177.3080  144.6150 O   0  0  0  0  0  1  0  0  0  0  0  0
  188.2340  174.5680  141.7870 C   0  0  0  0  0  2  0  0  0  0  0  0
  187.8110  175.8560  141.2640 N   0  0  0  0  0  2  0  0  0  0  0  0
  188.6990  177.9250  142.1540 C   0  0  0  0  0  2  0  0  0  0  0  0
  187.7510  176.7670  142.3920 C   0  0  1  0  0  3  0  0  0  0  0  0
  187.2140  178.1020  141.9200 C   0  0  1  0  0  3  0  0  0  0  0  0
  186.6020  178.8330  143.0990 C   0  0  0  0  0  2  0  0  0  0  0  0
  185.4450  178.0220  143.6770 C   0  0  2  0  0  3  0  0  0  0  0  0
  184.4870  177.6450  142.7070 O   0  0  0  0  0  0  0  0  0  0  0  0
  183.4420  178.5840  142.7000 C   0  0  0  0  0  1  0  0  0  0  0  0
  184.8330  178.7040  144.9090 C   0  0  0  0  0  2  0  0  0  0  0  0
  184.8520  177.8310  146.1660 C   0  0  2  0  0  3  0  0  0  0  0  0
  185.8960  179.7980  147.0720 F   0  0  0  0  0  0  0  0  0  0  0  0
  185.2740  178.6100  147.4110 C   0  0  0  0  0  2  0  0  0  0  0  0
  185.6580  176.5480  145.9740 C   0  0  0  0  0  2  0  0  0  0  0  0
  187.0890  176.7120  146.4660 C   0  0  0  0  0  2  0  0  0  0  0  0
  188.9530  175.1580  146.9380 C   0  0  1  0  0  3  0  0  0  0  0  0
  187.9870  175.6290  145.8730 C   0  0  2  0  0  3  0  0  0  0  0  0
  189.2510  173.8130  146.7250 O   0  0  0  0  0  1  0  0  0  0  0  0
  189.4810  175.9790  145.7740 C   0  0  1  0  0  3  0  0  0  0  0  0
  189.8500  177.3740  146.2100 C   0  0  0  0  0  0  0  0  0  0  0  0
  189.6970  178.3180  145.4470 O   0  0  0  0  0  0  0  0  0  0  0  0
  189.6380  178.6380  148.1980 O   0  0  0  0  0  1  0  0  0  0  0  0
  190.3660  177.6150  147.5910 C   0  0  0  0  0  2  0  0  0  0  0  0
  1 25  1  1  0  0  0
  1 10  1  0  0  0  0
  2  4  1  0  0  0  0
  3  5  1  0  0  0  0
  4  1  1  0  0  0  0
  5  4  2  0  0  0  0
  6  8  1  0  0  0  0
  7  2  2  0  0  0  0
  8  3  2  0  0  0  0
  8  7  1  0  0  0  0
  9 11  1  0  0  0  0
 10  9  1  0  0  0  0
 10 13  2  0  0  0  0
 11 12  2  0  0  0  0
 12 14  1  0  0  0  0
 13 12  1  0  0  0  0
 15 22  1  0  0  0  0
 16 20  2  0  0  0  0
 17 15  2  0  0  0  0
 18 17  1  0  0  0  0
 19 18  2  0  0  0  0
 19 16  1  0  0  0  0
 20 15  1  0  0  0  0
 20 14  1  0  0  0  0
 21 18  1  0  0  0  0
 22 23  1  0  0  0  0
 24 22  1  0  0  0  0
 26 25  1  0  0  0  0
 27 28  1  0  0  0  0
 28 26  1  6  0  0  0
 29 27  1  0  0  0  0
 29 28  1  0  0  0  0
 29 30  1  1  0  0  0
 31 30  1  6  0  0  0
 31 34  1  0  0  0  0
 32 31  1  0  0  0  0
 33 32  1  0  0  0  0
 35 34  1  6  0  0  0
 35 37  1  0  0  0  0
 36 37  1  0  0  0  0
 38 35  1  0  0  0  0
 38 39  1  0  0  0  0
 40 42  1  6  0  0  0
 41 39  1  1  0  0  0
 41 40  1  0  0  0  0
 43 41  1  0  0  0  0
 43 44  1  1  0  0  0
 43 40  1  0  0  0  0
 44 47  1  0  0  0  0
 45 44  2  0  0  0  0
 47 46  1  0  0  0  0
M  END
>  <MODEL>
2

>  <REMARK>
 VINA RESULT:      -6.9      3.985     10.649
  Name = 
  19 active torsions:
  status: ('A' for Active; 'I' for Inactive)
    1  A    between atoms: C_2  and  C_40
    2  A    between atoms: C_2  and  C_47
    3  A    between atoms: C_7  and  CA_12
    4  A    between atoms: O_9  and  C_26
    5  A    between atoms: C_10  and  C_26
    6  A    between atoms: C_10  and  C_41
    7  A    between atoms: C_11  and  C_24
    8  A    between atoms: C_14  and  C_41
    9  A    between atoms: C_15  and  C_45
   10  A    between atoms: C_16  and  C_45
   11  A    between atoms: N_20  and  C_33
   12  A    between atoms: N_20  and  C_44
   13  A    between atoms: C_22  and  C_26
   14  A    between atoms: C_22  and  C_38
   15  A    between atoms: C_24  and  C_35
   16  A    between atoms: C_30  and  C_36
   17  A    between atoms: C_35  and  C_41
   18  A    between atoms: C_36  and  C_37
   19  A    between atoms: C_44  and  C_45
                            x       y       z     vdW  Elec       q    Type
                         _______ _______ _______ _____ _____    ______ ____

>  <TORSDO>
F 19

$$$$
=
 OpenBabel11042418123D

 47 51  0  0  1  0  0  0  0  0999 V2000
  189.3030  173.6130  141.1530 C   0  0  2  0  0  3  0  0  0  0  0  0
  188.3360  174.0390  138.8870 C   0  0  0  0  0  3  0  0  0  0  0  0
  190.7890  173.5320  137.6420 C   0  0  0  0  0  3  0  0  0  0  0  0
  189.4500  173.6960  139.6620 C   0  0  0  0  0  0  0  0  0  0  0  0
  190.6790  173.4430  139.0330 C   0  0  0  0  0  3  0  0  0  0  0  0
  189.7780  173.9600  135.4930 O   0  0  0  0  0  1  0  0  0  0  0  0
  188.4450  174.1260  137.4970 C   0  0  0  0  0  3  0  0  0  0  0  0
  189.6710  173.8730  136.8740 C   0  0  0  0  0  0  0  0  0  0  0  0
  190.2970  175.7150  142.1930 C   0  0  0  0  0  2  0  0  0  0  0  0
  189.2170  174.9690  141.7770 C   0  0  0  0  0  0  0  0  0  0  0  0
  189.8240  176.8750  142.6880 N   0  0  0  0  0  0  0  0  0  0  0  0
  188.4860  176.7840  142.5600 C   0  0  0  0  0  0  0  0  0  0  0  0
  188.0680  175.6340  141.9990 N   0  0  0  0  0  0  0  0  0  0  0  0
  187.5580  177.8850  142.9470 C   0  0  0  0  0  2  0  0  0  0  0  0
  185.9400  178.3260  144.8560 C   0  0  0  0  0  0  0  0  0  0  0  0
  187.8710  176.9200  145.2250 C   0  0  0  0  0  3  0  0  0  0  0  0
  185.5710  178.1270  146.1520 N   0  0  0  0  0  0  0  0  0  0  0  0
  186.3040  177.3550  146.9980 C   0  0  0  0  0  0  0  0  0  0  0  0
  187.4690  176.7360  146.5470 C   0  0  0  0  0  3  0  0  0  0  0  0
  187.1140  177.7220  144.3670 C   0  0  0  0  0  0  0  0  0  0  0  0
  185.8980  177.1820  148.2780 F   0  0  0  0  0  0  0  0  0  0  0  0
  185.0900  179.1840  143.9740 C   0  0  0  0  0  3  0  0  0  0  0  0
  183.7470  179.0480  144.3280 O   0  0  0  0  0  1  0  0  0  0  0  0
  185.4740  180.5210  144.0880 O   0  0  0  0  0  1  0  0  0  0  0  0
  190.4120  172.7900  141.7960 C   0  0  0  0  0  2  0  0  0  0  0  0
  189.8360  171.7970  142.6880 N   0  0  0  0  0  2  0  0  0  0  0  0
  189.6010  171.7500  145.0960 C   0  0  0  0  0  2  0  0  0  0  0  0
  189.2970  172.5180  143.8260 C   0  0  1  0  0  3  0  0  0  0  0  0
  190.4400  172.9520  144.7200 C   0  0  1  0  0  3  0  0  0  0  0  0
  189.9990  174.1510  145.5380 C   0  0  0  0  0  2  0  0  0  0  0  0
  191.2140  174.8560  146.1350 C   0  0  2  0  0  3  0  0  0  0  0  0
  190.9060  176.1110  146.7090 O   0  0  0  0  0  0  0  0  0  0  0  0
  191.2970  176.1100  148.0580 C   0  0  0  0  0  1  0  0  0  0  0  0
  192.3850  174.9060  145.1440 C   0  0  0  0  0  2  0  0  0  0  0  0
  193.6910  174.3410  145.7070 C   0  0  2  0  0  3  0  0  0  0  0  0
  194.3970  176.6180  145.3910 F   0  0  0  0  0  0  0  0  0  0  0  0
  194.7050  175.4360  146.0400 C   0  0  0  0  0  2  0  0  0  0  0  0
  194.2820  173.2430  144.8250 C   0  0  0  0  0  2  0  0  0  0  0  0
  194.9070  173.8190  143.5630 C   0  0  0  0  0  2  0  0  0  0  0  0
  195.0050  173.5380  141.1090 C   0  0  1  0  0  3  0  0  0  0  0  0
  194.1220  173.3830  142.3280 C   0  0  2  0  0  3  0  0  0  0  0  0
  194.6640  172.5660  140.1700 O   0  0  0  0  0  1  0  0  0  0  0  0
  193.8320  174.4860  141.2970 C   0  0  1  0  0  3  0  0  0  0  0  0
  194.2990  175.8680  141.6760 C   0  0  0  0  0  0  0  0  0  0  0  0
  193.6000  176.5830  142.3810 O   0  0  0  0  0  0  0  0  0  0  0  0
  196.3780  176.7930  142.3250 O   0  0  0  0  0  1  0  0  0  0  0  0
  195.6380  176.3550  141.2270 C   0  0  0  0  0  2  0  0  0  0  0  0
  1 10  1  0  0  0  0
  1 25  1  1  0  0  0
  2  4  1  0  0  0  0
  3  5  1  0  0  0  0
  4  1  1  0  0  0  0
  5  4  2  0  0  0  0
  6  8  1  0  0  0  0
  7  2  2  0  0  0  0
  8  7  1  0  0  0  0
  8  3  2  0  0  0  0
  9 11  1  0  0  0  0
 10 13  2  0  0  0  0
 10  9  1  0  0  0  0
 12 11  2  0  0  0  0
 12 14  1  0  0  0  0
 13 12  1  0  0  0  0
 14 20  1  0  0  0  0
 15 17  1  0  0  0  0
 16 19  2  0  0  0  0
 17 18  2  0  0  0  0
 18 21  1  0  0  0  0
 19 18  1  0  0  0  0
 20 15  2  0  0  0  0
 20 16  1  0  0  0  0
 22 24  1  0  0  0  0
 22 23  1  0  0  0  0
 22 15  1  0  0  0  0
 25 26  1  0  0  0  0
 28 26  1  6  0  0  0
 28 29  1  0  0  0  0
 28 27  1  0  0  0  0
 29 27  1  0  0  0  0
 29 30  1  1  0  0  0
 30 31  1  0  0  0  0
 31 34  1  6  0  0  0
 31 32  1  0  0  0  0
 32 33  1  0  0  0  0
 34 35  1  0  0  0  0
 35 38  1  6  0  0  0
 35 37  1  0  0  0  0
 36 37  1  0  0  0  0
 39 38  1  0  0  0  0
 40 42  1  6  0  0  0
 40 43  1  0  0  0  0
 40 41  1  0  0  0  0
 41 39  1  1  0  0  0
 43 44  1  1  0  0  0
 43 41  1  0  0  0  0
 44 45  2  0  0  0  0
 47 44  1  0  0  0  0
 47 46  1  0  0  0  0
M  END
>  <MODEL>
3

>  <REMARK>
 VINA RESULT:      -6.8      4.569      7.312
  Name = 
  19 active torsions:
  status: ('A' for Active; 'I' for Inactive)
    1  A    between atoms: C_2  and  C_40
    2  A    between atoms: C_2  and  C_47
    3  A    between atoms: C_7  and  CA_12
    4  A    between atoms: O_9  and  C_26
    5  A    between atoms: C_10  and  C_26
    6  A    between atoms: C_10  and  C_41
    7  A    between atoms: C_11  and  C_24
    8  A    between atoms: C_14  and  C_41
    9  A    between atoms: C_15  and  C_45
   10  A    between atoms: C_16  and  C_45
   11  A    between atoms: N_20  and  C_33
   12  A    between atoms: N_20  and  C_44
   13  A    between atoms: C_22  and  C_26
   14  A    between atoms: C_22  and  C_38
   15  A    between atoms: C_24  and  C_35
   16  A    between atoms: C_30  and  C_36
   17  A    between atoms: C_35  and  C_41
   18  A    between atoms: C_36  and  C_37
   19  A    between atoms: C_44  and  C_45
                            x       y       z     vdW  Elec       q    Type
                         _______ _______ _______ _____ _____    ______ ____

>  <TORSDO>
F 19

$$$$
=
 OpenBabel11042418123D

 47 51  0  0  1  0  0  0  0  0999 V2000
  189.1520  173.4340  141.5610 C   0  0  2  0  0  3  0  0  0  0  0  0
  188.4490  173.8340  139.1950 C   0  0  0  0  0  3  0  0  0  0  0  0
  191.0840  173.6240  138.2790 C   0  0  0  0  0  3  0  0  0  0  0  0
  189.4830  173.5820  140.1040 C   0  0  0  0  0  0  0  0  0  0  0  0
  190.8040  173.4780  139.6400 C   0  0  0  0  0  3  0  0  0  0  0  0
  190.3240  174.0180  136.0230 O   0  0  0  0  0  1  0  0  0  0  0  0
  188.7300  173.9790  137.8330 C   0  0  0  0  0  3  0  0  0  0  0  0
  190.0470  173.8740  137.3750 C   0  0  0  0  0  0  0  0  0  0  0  0
  189.1330  175.8900  142.2350 C   0  0  0  0  0  3  0  0  0  0  0  0
  188.5110  174.6680  142.1110 C   0  0  0  0  0  0  0  0  0  0  0  0
  188.2390  176.7510  142.7560 N   0  0  0  0  0  0  0  0  0  0  0  0
  187.1200  176.0220  142.9320 C   0  0  0  0  0  0  0  0  0  0  0  0
  187.2380  174.7380  142.5430 N   0  0  0  0  0  2  0  0  0  0  0  0
  185.8470  176.6000  143.4510 C   0  0  0  0  0  2  0  0  0  0  0  0
  185.7170  178.5670  145.0540 C   0  0  0  0  0  0  0  0  0  0  0  0
  186.6040  176.4540  145.8220 C   0  0  0  0  0  3  0  0  0  0  0  0
  185.9180  179.0830  146.2990 N   0  0  0  0  0  0  0  0  0  0  0  0
  186.4480  178.3410  147.3080 C   0  0  0  0  0  0  0  0  0  0  0  0
  186.8000  177.0090  147.0860 C   0  0  0  0  0  3  0  0  0  0  0  0
  186.0660  177.2280  144.7910 C   0  0  0  0  0  0  0  0  0  0  0  0
  186.6280  178.8930  148.5310 F   0  0  0  0  0  0  0  0  0  0  0  0
  185.1260  179.4330  143.9870 C   0  0  0  0  0  3  0  0  0  0  0  0
  185.9590  179.4470  142.8690 O   0  0  0  0  0  1  0  0  0  0  0  0
  183.8640  178.9570  143.6270 O   0  0  0  0  0  1  0  0  0  0  0  0
  190.3670  173.0380  142.3900 C   0  0  0  0  0  2  0  0  0  0  0  0
  190.2830  171.6320  142.7490 N   0  0  0  0  0  2  0  0  0  0  0  0
  191.8960  169.8460  142.4970 C   0  0  0  0  0  2  0  0  0  0  0  0
  191.6260  171.2090  143.1000 C   0  0  1  0  0  3  0  0  0  0  0  0
  192.4510  171.0890  141.8360 C   0  0  1  0  0  3  0  0  0  0  0  0
  193.9190  171.2350  142.1890 C   0  0  0  0  0  2  0  0  0  0  0  0
  194.2220  172.6760  142.5920 C   0  0  2  0  0  3  0  0  0  0  0  0
  194.1760  173.5820  141.5060 O   0  0  0  0  0  0  0  0  0  0  0  0
  193.5440  174.7670  141.9190 C   0  0  0  0  0  1  0  0  0  0  0  0
  195.5110  172.7760  143.4190 C   0  0  0  0  0  2  0  0  0  0  0  0
  195.2910  173.3090  144.8370 C   0  0  2  0  0  3  0  0  0  0  0  0
  197.2160  173.8190  146.1850 F   0  0  0  0  0  0  0  0  0  0  0  0
  196.3470  172.8050  145.8200 C   0  0  0  0  0  2  0  0  0  0  0  0
  193.8660  173.0750  145.3350 C   0  0  0  0  0  2  0  0  0  0  0  0
  193.3740  174.2400  146.1810 C   0  0  0  0  0  2  0  0  0  0  0  0
  193.8940  176.6280  146.5520 C   0  0  1  0  0  3  0  0  0  0  0  0
  193.6800  175.5680  145.4930 C   0  0  2  0  0  3  0  0  0  0  0  0
  194.8100  177.5670  146.0820 O   0  0  0  0  0  1  0  0  0  0  0  0
  192.6390  176.6820  145.6960 C   0  0  1  0  0  3  0  0  0  0  0  0
  191.4180  176.2910  146.4880 C   0  0  0  0  0  0  0  0  0  0  0  0
  191.4490  176.2960  147.7110 O   0  0  0  0  0  0  0  0  0  0  0  0
  190.0960  174.5580  145.5690 O   0  0  0  0  0  1  0  0  0  0  0  0
  190.1500  175.9350  145.7820 C   0  0  0  0  0  2  0  0  0  0  0  0
  1 10  1  0  0  0  0
  1 25  1  1  0  0  0
  2  4  1  0  0  0  0
  3  5  1  0  0  0  0
  4  1  1  0  0  0  0
  5  4  2  0  0  0  0
  6  8  1  0  0  0  0
  7  2  2  0  0  0  0
  8  7  1  0  0  0  0
  8  3  2  0  0  0  0
  9 11  1  0  0  0  0
 10  9  2  0  0  0  0
 10 13  1  0  0  0  0
 11 12  2  0  0  0  0
 12 14  1  0  0  0  0
 13 12  1  0  0  0  0
 14 20  1  0  0  0  0
 15 17  1  0  0  0  0
 16 19  2  0  0  0  0
 17 18  2  0  0  0  0
 18 21  1  0  0  0  0
 19 18  1  0  0  0  0
 20 15  2  0  0  0  0
 20 16  1  0  0  0  0
 22 15  1  0  0  0  0
 23 22  1  0  0  0  0
 24 22  1  0  0  0  0
 25 26  1  0  0  0  0
 27 28  1  0  0  0  0
 28 26  1  6  0  0  0
 29 30  1  1  0  0  0
 29 27  1  0  0  0  0
 29 28  1  0  0  0  0
 31 30  1  6  0  0  0
 31 34  1  0  0  0  0
 32 33  1  0  0  0  0
 32 31  1  0  0  0  0
 35 34  1  6  0  0  0
 35 38  1  0  0  0  0
 35 37  1  0  0  0  0
 37 36  1  0  0  0  0
 38 39  1  0  0  0  0
 40 42  1  6  0  0  0
 41 43  1  0  0  0  0
 41 39  1  1  0  0  0
 41 40  1  0  0  0  0
 43 44  1  1  0  0  0
 43 40  1  0  0  0  0
 44 45  2  0  0  0  0
 46 47  1  0  0  0  0
 47 44  1  0  0  0  0
M  END
>  <MODEL>
4

>  <REMARK>
 VINA RESULT:      -6.5      4.607      7.202
  Name = 
  19 active torsions:
  status: ('A' for Active; 'I' for Inactive)
    1  A    between atoms: C_2  and  C_40
    2  A    between atoms: C_2  and  C_47
    3  A    between atoms: C_7  and  CA_12
    4  A    between atoms: O_9  and  C_26
    5  A    between atoms: C_10  and  C_26
    6  A    between atoms: C_10  and  C_41
    7  A    between atoms: C_11  and  C_24
    8  A    between atoms: C_14  and  C_41
    9  A    between atoms: C_15  and  C_45
   10  A    between atoms: C_16  and  C_45
   11  A    between atoms: N_20  and  C_33
   12  A    between atoms: N_20  and  C_44
   13  A    between atoms: C_22  and  C_26
   14  A    between atoms: C_22  and  C_38
   15  A    between atoms: C_24  and  C_35
   16  A    between atoms: C_30  and  C_36
   17  A    between atoms: C_35  and  C_41
   18  A    between atoms: C_36  and  C_37
   19  A    between atoms: C_44  and  C_45
                            x       y       z     vdW  Elec       q    Type
                         _______ _______ _______ _____ _____    ______ ____

>  <TORSDO>
F 19

$$$$
=
 OpenBabel11042418123D

 47 51  0  0  1  0  0  0  0  0999 V2000
  189.7610  173.8390  142.3370 C   0  0  2  0  0  3  0  0  0  0  0  0
  190.8390  173.4190  140.1200 C   0  0  0  0  0  3  0  0  0  0  0  0
  188.4830  174.0530  138.7500 C   0  0  0  0  0  3  0  0  0  0  0  0
  189.6970  173.7930  140.8380 C   0  0  0  0  0  0  0  0  0  0  0  0
  188.5160  174.1090  140.1460 C   0  0  0  0  0  3  0  0  0  0  0  0
  189.5970  173.6270  136.6530 O   0  0  0  0  0  1  0  0  0  0  0  0
  190.8050  173.3650  138.7240 C   0  0  0  0  0  3  0  0  0  0  0  0
  189.6290  173.6810  138.0390 C   0  0  0  0  0  0  0  0  0  0  0  0
  190.4800  176.2550  142.6980 C   0  0  0  0  0  2  0  0  0  0  0  0
  189.5760  175.2290  142.8560 C   0  0  0  0  0  0  0  0  0  0  0  0
  189.9620  177.3500  143.2870 N   0  0  0  0  0  0  0  0  0  0  0  0
  188.7750  176.9450  143.7810 C   0  0  0  0  0  0  0  0  0  0  0  0
  188.4930  175.6520  143.5340 N   0  0  0  0  0  0  0  0  0  0  0  0
  187.8330  177.8640  144.4830 C   0  0  0  0  0  2  0  0  0  0  0  0
  185.3000  178.0270  144.3570 C   0  0  0  0  0  0  0  0  0  0  0  0
  186.6050  178.0960  142.3240 C   0  0  0  0  0  3  0  0  0  0  0  0
  184.1670  178.1610  143.6120 N   0  0  0  0  0  0  0  0  0  0  0  0
  184.2060  178.2610  142.2560 C   0  0  0  0  0  0  0  0  0  0  0  0
  185.4300  178.2310  141.5880 C   0  0  0  0  0  3  0  0  0  0  0  0
  186.5540  177.9870  143.7160 C   0  0  0  0  0  0  0  0  0  0  0  0
  183.0550  178.3950  141.5560 F   0  0  0  0  0  0  0  0  0  0  0  0
  185.1920  177.9260  145.8450 C   0  0  0  0  0  3  0  0  0  0  0  0
  184.0450  178.5850  146.2860 O   0  0  0  0  0  1  0  0  0  0  0  0
  185.1430  176.5860  146.2340 O   0  0  0  0  0  1  0  0  0  0  0  0
  191.0440  173.2240  142.8780 C   0  0  0  0  0  2  0  0  0  0  0  0
  190.7320  172.0530  143.6790 N   0  0  0  0  0  2  0  0  0  0  0  0
  191.8370  170.1750  142.6260 C   0  0  0  0  0  2  0  0  0  0  0  0
  191.9290  171.2320  143.7070 C   0  0  1  0  0  3  0  0  0  0  0  0
  192.6790  171.4130  142.4040 C   0  0  1  0  0  3  0  0  0  0  0  0
  194.1410  171.0740  142.6250 C   0  0  0  0  0  2  0  0  0  0  0  0
  195.0210  172.2580  142.2300 C   0  0  2  0  0  3  0  0  0  0  0  0
  195.5090  172.1740  140.9060 O   0  0  0  0  0  0  0  0  0  0  0  0
  196.6430  171.3450  140.8830 C   0  0  0  0  0  1  0  0  0  0  0  0
  196.1160  172.5240  143.2720 C   0  0  0  0  0  2  0  0  0  0  0  0
  195.8570  173.7620  144.1330 C   0  0  2  0  0  3  0  0  0  0  0  0
  196.8630  175.9460  144.1730 F   0  0  0  0  0  0  0  0  0  0  0  0
  197.1190  174.5980  144.3490 C   0  0  0  0  0  2  0  0  0  0  0  0
  195.1460  173.4240  145.4430 C   0  0  0  0  0  2  0  0  0  0  0  0
  193.7140  173.9360  145.4460 C   0  0  0  0  0  2  0  0  0  0  0  0
  193.9040  176.2410  146.3210 C   0  0  1  0  0  3  0  0  0  0  0  0
  193.6730  175.4160  145.0730 C   0  0  2  0  0  3  0  0  0  0  0  0
  194.5580  177.4220  145.9750 O   0  0  0  0  0  1  0  0  0  0  0  0
  192.5220  176.2290  145.6890 C   0  0  1  0  0  3  0  0  0  0  0  0
  191.5450  175.4410  146.5230 C   0  0  0  0  0  0  0  0  0  0  0  0
  190.6890  174.7530  145.9830 O   0  0  0  0  0  0  0  0  0  0  0  0
  191.2570  176.7150  148.4950 O   0  0  0  0  0  1  0  0  0  0  0  0
  191.6430  175.4650  148.0130 C   0  0  0  0  0  2  0  0  0  0  0  0
  1 10  1  0  0  0  0
  1 25  1  6  0  0  0
  2  4  1  0  0  0  0
  3  5  1  0  0  0  0
  4  1  1  0  0  0  0
  5  4  2  0  0  0  0
  6  8  1  0  0  0  0
  7  2  2  0  0  0  0
  8  7  1  0  0  0  0
  8  3  2  0  0  0  0
  9 10  1  0  0  0  0
  9 11  1  0  0  0  0
 10 13  2  0  0  0  0
 11 12  2  0  0  0  0
 12 14  1  0  0  0  0
 13 12  1  0  0  0  0
 15 22  1  0  0  0  0
 16 20  2  0  0  0  0
 17 15  2  0  0  0  0
 18 17  1  0  0  0  0
 19 18  2  0  0  0  0
 19 16  1  0  0  0  0
 20 15  1  0  0  0  0
 20 14  1  0  0  0  0
 21 18  1  0  0  0  0
 22 24  1  0  0  0  0
 22 23  1  0  0  0  0
 25 26  1  0  0  0  0
 27 28  1  0  0  0  0
 28 26  1  6  0  0  0
 29 30  1  1  0  0  0
 29 27  1  0  0  0  0
 29 28  1  0  0  0  0
 31 30  1  1  0  0  0
 31 34  1  0  0  0  0
 32 31  1  0  0  0  0
 33 32  1  0  0  0  0
 35 34  1  1  0  0  0
 35 37  1  0  0  0  0
 35 38  1  0  0  0  0
 36 37  1  0  0  0  0
 38 39  1  0  0  0  0
 40 42  1  6  0  0  0
 41 39  1  1  0  0  0
 41 43  1  0  0  0  0
 41 40  1  0  0  0  0
 43 40  1  0  0  0  0
 43 44  1  1  0  0  0
 44 47  1  0  0  0  0
 45 44  2  0  0  0  0
 47 46  1  0  0  0  0
M  END
>  <MODEL>
5

>  <REMARK>
 VINA RESULT:      -6.5      3.810      6.781
  Name = 
  19 active torsions:
  status: ('A' for Active; 'I' for Inactive)
    1  A    between atoms: C_2  and  C_40
    2  A    between atoms: C_2  and  C_47
    3  A    between atoms: C_7  and  CA_12
    4  A    between atoms: O_9  and  C_26
    5  A    between atoms: C_10  and  C_26
    6  A    between atoms: C_10  and  C_41
    7  A    between atoms: C_11  and  C_24
    8  A    between atoms: C_14  and  C_41
    9  A    between atoms: C_15  and  C_45
   10  A    between atoms: C_16  and  C_45
   11  A    between atoms: N_20  and  C_33
   12  A    between atoms: N_20  and  C_44
   13  A    between atoms: C_22  and  C_26
   14  A    between atoms: C_22  and  C_38
   15  A    between atoms: C_24  and  C_35
   16  A    between atoms: C_30  and  C_36
   17  A    between atoms: C_35  and  C_41
   18  A    between atoms: C_36  and  C_37
   19  A    between atoms: C_44  and  C_45
                            x       y       z     vdW  Elec       q    Type
                         _______ _______ _______ _____ _____    ______ ____

>  <TORSDO>
F 19

$$$$
=
 OpenBabel11042418123D

 47 51  0  0  1  0  0  0  0  0999 V2000
  186.9770  178.1670  143.0970 C   0  0  2  0  0  3  0  0  0  0  0  0
  184.4790  178.2700  143.1400 C   0  0  0  0  0  3  0  0  0  0  0  0
  184.3360  178.2230  140.3470 C   0  0  0  0  0  3  0  0  0  0  0  0
  185.6560  178.2040  142.3860 C   0  0  0  0  0  0  0  0  0  0  0  0
  185.5800  178.1820  140.9840 C   0  0  0  0  0  3  0  0  0  0  0  0
  181.9290  178.3240  140.4750 O   0  0  0  0  0  1  0  0  0  0  0  0
  183.2360  178.3090  142.5030 C   0  0  0  0  0  3  0  0  0  0  0  0
  183.1640  178.2860  141.1070 C   0  0  0  0  0  0  0  0  0  0  0  0
  187.1490  175.7050  142.4680 C   0  0  0  0  0  2  0  0  0  0  0  0
  187.7290  176.9070  142.8030 C   0  0  0  0  0  0  0  0  0  0  0  0
  188.1410  174.8160  142.2680 N   0  0  0  0  0  0  0  0  0  0  0  0
  189.2740  175.5090  142.4950 C   0  0  0  0  0  0  0  0  0  0  0  0
  189.0700  176.7990  142.8200 N   0  0  0  0  0  0  0  0  0  0  0  0
  190.6330  174.9140  142.3380 C   0  0  0  0  0  2  0  0  0  0  0  0
  190.4810  172.3790  142.2650 C   0  0  0  0  0  0  0  0  0  0  0  0
  190.5230  173.6350  140.2010 C   0  0  0  0  0  3  0  0  0  0  0  0
  190.3900  171.2280  141.5410 N   0  0  0  0  0  0  0  0  0  0  0  0
  190.3660  171.2340  140.1810 C   0  0  0  0  0  0  0  0  0  0  0  0
  190.4310  172.4420  139.4860 C   0  0  0  0  0  3  0  0  0  0  0  0
  190.5550  173.6170  141.5970 C   0  0  0  0  0  0  0  0  0  0  0  0
  190.2720  170.0670  139.5020 F   0  0  0  0  0  0  0  0  0  0  0  0
  190.4990  172.3080  143.7590 C   0  0  0  0  0  3  0  0  0  0  0  0
  189.2860  171.8010  144.2270 O   0  0  0  0  0  1  0  0  0  0  0  0
  191.5460  171.4910  144.1880 O   0  0  0  0  0  1  0  0  0  0  0  0
  186.8290  178.3720  144.5990 C   0  0  0  0  0  2  0  0  0  0  0  0
  186.6860  177.0870  145.2620 N   0  0  0  0  0  2  0  0  0  0  0  0
  188.0310  175.7720  146.7840 C   0  0  0  0  0  2  0  0  0  0  0  0
  187.4810  177.1490  146.4730 C   0  0  1  0  0  3  0  0  0  0  0  0
  188.9190  176.8130  146.1360 C   0  0  1  0  0  3  0  0  0  0  0  0
  189.8280  177.4230  147.1860 C   0  0  0  0  0  2  0  0  0  0  0  0
  191.0080  176.4950  147.4630 C   0  0  2  0  0  3  0  0  0  0  0  0
  191.5020  176.5980  148.7840 O   0  0  0  0  0  0  0  0  0  0  0  0
  191.5420  177.9520  149.1580 C   0  0  0  0  0  1  0  0  0  0  0  0
  192.0970  176.6240  146.3900 C   0  0  0  0  0  2  0  0  0  0  0  0
  193.2350  175.6130  146.5440 C   0  0  2  0  0  3  0  0  0  0  0  0
  194.5140  177.6170  146.9030 F   0  0  0  0  0  0  0  0  0  0  0  0
  194.6110  176.2800  146.5630 C   0  0  0  0  0  2  0  0  0  0  0  0
  193.1490  174.4760  145.5270 C   0  0  0  0  0  2  0  0  0  0  0  0
  194.1550  174.6590  144.4010 C   0  0  0  0  0  2  0  0  0  0  0  0
  195.2360  172.9900  142.9310 C   0  0  1  0  0  3  0  0  0  0  0  0
  193.9150  173.6330  143.2960 C   0  0  2  0  0  3  0  0  0  0  0  0
  195.0090  171.6770  142.5250 O   0  0  0  0  0  1  0  0  0  0  0  0
  194.5790  173.9400  141.9430 C   0  0  1  0  0  3  0  0  0  0  0  0
  195.3200  175.2510  141.8680 C   0  0  0  0  0  0  0  0  0  0  0  0
  194.7230  176.2810  141.5870 O   0  0  0  0  0  0  0  0  0  0  0  0
  197.0400  176.3350  143.0760 O   0  0  0  0  0  1  0  0  0  0  0  0
  196.7810  175.3030  142.1750 C   0  0  0  0  0  2  0  0  0  0  0  0
  1 25  1  1  0  0  0
  3  5  2  0  0  0  0
  3  8  1  0  0  0  0
  4  1  1  0  0  0  0
  4  2  2  0  0  0  0
  5  4  1  0  0  0  0
  6  8  1  0  0  0  0
  7  2  1  0  0  0  0
  8  7  2  0  0  0  0
  9 10  1  0  0  0  0
 10 13  2  0  0  0  0
 10  1  1  0  0  0  0
 11  9  1  0  0  0  0
 11 12  2  0  0  0  0
 12 13  1  0  0  0  0
 14 12  1  0  0  0  0
 15 22  1  0  0  0  0
 16 20  2  0  0  0  0
 17 15  2  0  0  0  0
 18 17  1  0  0  0  0
 19 18  2  0  0  0  0
 19 16  1  0  0  0  0
 20 15  1  0  0  0  0
 20 14  1  0  0  0  0
 21 18  1  0  0  0  0
 22 24  1  0  0  0  0
 22 23  1  0  0  0  0
 25 26  1  0  0  0  0
 28 26  1  6  0  0  0
 28 27  1  0  0  0  0
 29 28  1  0  0  0  0
 29 27  1  0  0  0  0
 29 30  1  1  0  0  0
 30 31  1  0  0  0  0
 31 34  1  6  0  0  0
 31 32  1  0  0  0  0
 32 33  1  0  0  0  0
 34 35  1  0  0  0  0
 35 38  1  6  0  0  0
 35 37  1  0  0  0  0
 37 36  1  0  0  0  0
 39 38  1  0  0  0  0
 40 42  1  6  0  0  0
 40 41  1  0  0  0  0
 41 39  1  1  0  0  0
 43 44  1  1  0  0  0
 43 40  1  0  0  0  0
 43 41  1  0  0  0  0
 44 47  1  0  0  0  0
 45 44  2  0  0  0  0
 47 46  1  0  0  0  0
M  END
>  <MODEL>
6

>  <REMARK>
 VINA RESULT:      -6.5      4.154      8.004
  Name = 
  19 active torsions:
  status: ('A' for Active; 'I' for Inactive)
    1  A    between atoms: C_2  and  C_40
    2  A    between atoms: C_2  and  C_47
    3  A    between atoms: C_7  and  CA_12
    4  A    between atoms: O_9  and  C_26
    5  A    between atoms: C_10  and  C_26
    6  A    between atoms: C_10  and  C_41
    7  A    between atoms: C_11  and  C_24
    8  A    between atoms: C_14  and  C_41
    9  A    between atoms: C_15  and  C_45
   10  A    between atoms: C_16  and  C_45
   11  A    between atoms: N_20  and  C_33
   12  A    between atoms: N_20  and  C_44
   13  A    between atoms: C_22  and  C_26
   14  A    between atoms: C_22  and  C_38
   15  A    between atoms: C_24  and  C_35
   16  A    between atoms: C_30  and  C_36
   17  A    between atoms: C_35  and  C_41
   18  A    between atoms: C_36  and  C_37
   19  A    between atoms: C_44  and  C_45
                            x       y       z     vdW  Elec       q    Type
                         _______ _______ _______ _____ _____    ______ ____

>  <TORSDO>
F 19

$$$$
=
 OpenBabel11042418123D

 47 51  0  0  1  0  0  0  0  0999 V2000
  189.5750  172.9260  141.5310 C   0  0  2  0  0  3  0  0  0  0  0  0
  190.3270  171.1810  139.9060 C   0  0  0  0  0  3  0  0  0  0  0  0
  192.1690  172.9320  138.7360 C   0  0  0  0  0  3  0  0  0  0  0  0
  190.4470  172.4880  140.3910 C   0  0  0  0  0  0  0  0  0  0  0  0
  191.3720  173.3640  139.8000 C   0  0  0  0  0  3  0  0  0  0  0  0
  192.8380  171.1930  137.2030 O   0  0  0  0  0  1  0  0  0  0  0  0
  191.1250  170.7490  138.8430 C   0  0  0  0  0  3  0  0  0  0  0  0
  192.0460  171.6240  138.2580 C   0  0  0  0  0  0  0  0  0  0  0  0
  188.1330  174.4910  140.1310 C   0  0  0  0  0  3  0  0  0  0  0  0
  188.9000  174.2290  141.2440 C   0  0  0  0  0  0  0  0  0  0  0  0
  187.6900  175.7580  140.2300 N   0  0  0  0  0  0  0  0  0  0  0  0
  188.2080  176.2150  141.3870 C   0  0  0  0  0  0  0  0  0  0  0  0
  188.9530  175.3080  142.0470 N   0  0  0  0  0  2  0  0  0  0  0  0
  187.9290  177.5800  141.9180 C   0  0  0  0  0  2  0  0  0  0  0  0
  185.7950  177.7430  143.2880 C   0  0  0  0  0  0  0  0  0  0  0  0
  185.7140  178.1050  140.9000 C   0  0  0  0  0  3  0  0  0  0  0  0
  184.4540  177.9730  143.3500 N   0  0  0  0  0  0  0  0  0  0  0  0
  183.7220  178.2630  142.2400 C   0  0  0  0  0  0  0  0  0  0  0  0
  184.3430  178.3350  140.9930 C   0  0  0  0  0  3  0  0  0  0  0  0
  186.4550  177.8010  142.0450 C   0  0  0  0  0  0  0  0  0  0  0  0
  182.3920  178.4880  142.3480 F   0  0  0  0  0  0  0  0  0  0  0  0
  186.5450  177.4330  144.5440 C   0  0  0  0  0  3  0  0  0  0  0  0
  186.6900  178.5890  145.3110 O   0  0  0  0  0  1  0  0  0  0  0  0
  185.8660  176.4620  145.2820 O   0  0  0  0  0  1  0  0  0  0  0  0
  190.3360  172.9880  142.8480 C   0  0  0  0  0  2  0  0  0  0  0  0
  190.9630  171.7050  143.1180 N   0  0  0  0  0  2  0  0  0  0  0  0
  192.9330  170.9640  144.3120 C   0  0  0  0  0  2  0  0  0  0  0  0
  191.7080  171.8540  144.3540 C   0  0  1  0  0  3  0  0  0  0  0  0
  193.0670  172.4470  144.0410 C   0  0  1  0  0  3  0  0  0  0  0  0
  193.6010  173.1390  145.2800 C   0  0  0  0  0  2  0  0  0  0  0  0
  195.1170  173.2960  145.1820 C   0  0  2  0  0  3  0  0  0  0  0  0
  195.8280  172.2120  145.7480 O   0  0  0  0  0  0  0  0  0  0  0  0
  197.1890  172.3330  145.4230 C   0  0  0  0  0  1  0  0  0  0  0  0
  195.5800  174.6660  145.6940 C   0  0  0  0  0  2  0  0  0  0  0  0
  195.0480  175.8410  144.8690 C   0  0  2  0  0  3  0  0  0  0  0  0
  195.6430  176.3520  142.5960 F   0  0  0  0  0  0  0  0  0  0  0  0
  196.0940  176.3970  143.9030 C   0  0  0  0  0  2  0  0  0  0  0  0
  194.4170  176.9270  145.7390 C   0  0  0  0  0  2  0  0  0  0  0  0
  192.9270  176.6890  145.9320 C   0  0  0  0  0  2  0  0  0  0  0  0
  191.3690  177.6110  144.2480 C   0  0  1  0  0  3  0  0  0  0  0  0
  192.2480  176.4280  144.5900 C   0  0  2  0  0  3  0  0  0  0  0  0
  191.3230  177.7620  142.8640 O   0  0  0  0  0  1  0  0  0  0  0  0
  190.7170  176.2940  144.6310 C   0  0  1  0  0  3  0  0  0  0  0  0
  190.0950  176.3670  146.0030 C   0  0  0  0  0  0  0  0  0  0  0  0
  189.6580  177.4290  146.4240 O   0  0  0  0  0  0  0  0  0  0  0  0
  188.6630  174.9890  147.2850 O   0  0  0  0  0  1  0  0  0  0  0  0
  189.9750  175.1330  146.8370 C   0  0  0  0  0  2  0  0  0  0  0  0
  1 25  1  1  0  0  0
  2  4  1  0  0  0  0
  3  5  1  0  0  0  0
  4  1  1  0  0  0  0
  5  4  2  0  0  0  0
  6  8  1  0  0  0  0
  7  2  2  0  0  0  0
  8  3  2  0  0  0  0
  8  7  1  0  0  0  0
  9 11  1  0  0  0  0
  9 10  2  0  0  0  0
 10  1  1  0  0  0  0
 10 13  1  0  0  0  0
 11 12  2  0  0  0  0
 12 14  1  0  0  0  0
 12 13  1  0  0  0  0
 14 20  1  0  0  0  0
 15 17  1  0  0  0  0
 15 22  1  0  0  0  0
 16 19  2  0  0  0  0
 16 20  1  0  0  0  0
 18 21  1  0  0  0  0
 18 17  2  0  0  0  0
 19 18  1  0  0  0  0
 20 15  2  0  0  0  0
 22 24  1  0  0  0  0
 22 23  1  0  0  0  0
 25 26  1  0  0  0  0
 27 28  1  0  0  0  0
 28 26  1  6  0  0  0
 29 27  1  0  0  0  0
 29 28  1  0  0  0  0
 29 30  1  1  0  0  0
 31 30  1  1  0  0  0
 31 34  1  0  0  0  0
 31 32  1  0  0  0  0
 33 32  1  0  0  0  0
 35 37  1  1  0  0  0
 35 34  1  0  0  0  0
 35 38  1  0  0  0  0
 36 37  1  0  0  0  0
 38 39  1  0  0  0  0
 40 42  1  6  0  0  0
 40 41  1  0  0  0  0
 40 43  1  0  0  0  0
 41 43  1  0  0  0  0
 41 39  1  1  0  0  0
 43 44  1  1  0  0  0
 44 45  2  0  0  0  0
 44 47  1  0  0  0  0
 47 46  1  0  0  0  0
M  END
>  <MODEL>
7

>  <REMARK>
 VINA RESULT:      -6.5      3.814      7.285
  Name = 
  19 active torsions:
  status: ('A' for Active; 'I' for Inactive)
    1  A    between atoms: C_2  and  C_40
    2  A    between atoms: C_2  and  C_47
    3  A    between atoms: C_7  and  CA_12
    4  A    between atoms: O_9  and  C_26
    5  A    between atoms: C_10  and  C_26
    6  A    between atoms: C_10  and  C_41
    7  A    between atoms: C_11  and  C_24
    8  A    between atoms: C_14  and  C_41
    9  A    between atoms: C_15  and  C_45
   10  A    between atoms: C_16  and  C_45
   11  A    between atoms: N_20  and  C_33
   12  A    between atoms: N_20  and  C_44
   13  A    between atoms: C_22  and  C_26
   14  A    between atoms: C_22  and  C_38
   15  A    between atoms: C_24  and  C_35
   16  A    between atoms: C_30  and  C_36
   17  A    between atoms: C_35  and  C_41
   18  A    between atoms: C_36  and  C_37
   19  A    between atoms: C_44  and  C_45
                            x       y       z     vdW  Elec       q    Type
                         _______ _______ _______ _____ _____    ______ ____

>  <TORSDO>
F 19

$$$$
=
 OpenBabel11042418123D

 47 51  0  0  1  0  0  0  0  0999 V2000
  193.9100  175.7300  145.6220 C   0  0  2  0  0  3  0  0  0  0  0  0
  196.0920  174.5740  146.0130 C   0  0  0  0  0  3  0  0  0  0  0  0
  194.9550  172.0640  145.5340 C   0  0  0  0  0  3  0  0  0  0  0  0
  194.7330  174.4770  145.6940 C   0  0  0  0  0  0  0  0  0  0  0  0
  194.1660  173.2140  145.4550 C   0  0  0  0  0  3  0  0  0  0  0  0
  197.0970  171.0260  145.9270 O   0  0  0  0  0  1  0  0  0  0  0  0
  196.8810  173.4230  146.0900 C   0  0  0  0  0  3  0  0  0  0  0  0
  196.3130  172.1680  145.8510 C   0  0  0  0  0  0  0  0  0  0  0  0
  192.1630  175.6830  147.4750 C   0  0  0  0  0  2  0  0  0  0  0  0
  192.5300  175.5170  146.1590 C   0  0  0  0  0  0  0  0  0  0  0  0
  190.8470  175.4130  147.5680 N   0  0  0  0  0  0  0  0  0  0  0  0
  190.4720  175.0900  146.3150 C   0  0  0  0  0  0  0  0  0  0  0  0
  191.4720  175.1470  145.4140 N   0  0  0  0  0  0  0  0  0  0  0  0
  189.0650  174.7610  145.9490 C   0  0  0  0  0  2  0  0  0  0  0  0
  188.0280  176.6270  144.5710 C   0  0  0  0  0  0  0  0  0  0  0  0
  187.6720  176.5650  146.9600 C   0  0  0  0  0  3  0  0  0  0  0  0
  187.2620  177.7520  144.5050 N   0  0  0  0  0  0  0  0  0  0  0  0
  186.6990  178.3050  145.6120 C   0  0  0  0  0  0  0  0  0  0  0  0
  186.8940  177.7180  146.8630 C   0  0  0  0  0  3  0  0  0  0  0  0
  188.2520  176.0100  145.8170 C   0  0  0  0  0  0  0  0  0  0  0  0
  185.9430  179.4220  145.5000 F   0  0  0  0  0  0  0  0  0  0  0  0
  188.6170  176.0650  143.3160 C   0  0  0  0  0  3  0  0  0  0  0  0
  187.6610  176.0610  142.3010 O   0  0  0  0  0  1  0  0  0  0  0  0
  189.7190  176.8240  142.9210 O   0  0  0  0  0  1  0  0  0  0  0  0
  193.8600  176.3060  144.2130 C   0  0  0  0  0  2  0  0  0  0  0  0
  195.2020  176.3690  143.6580 N   0  0  0  0  0  2  0  0  0  0  0  0
  196.4960  175.8670  141.6750 C   0  0  0  0  0  2  0  0  0  0  0  0
  195.1350  175.7780  142.3340 C   0  0  1  0  0  3  0  0  0  0  0  0
  196.0370  174.5630  142.2910 C   0  0  1  0  0  3  0  0  0  0  0  0
  195.5580  173.6300  141.1960 C   0  0  0  0  0  2  0  0  0  0  0  0
  194.9590  172.3650  141.8080 C   0  0  2  0  0  3  0  0  0  0  0  0
  195.7250  171.2040  141.5520 O   0  0  0  0  0  0  0  0  0  0  0  0
  196.2950  171.3000  140.2710 C   0  0  0  0  0  1  0  0  0  0  0  0
  193.4740  172.2100  141.4520 C   0  0  0  0  0  2  0  0  0  0  0  0
  192.5270  172.8000  142.5000 C   0  0  2  0  0  3  0  0  0  0  0  0
  191.3480  170.7140  142.2930 F   0  0  0  0  0  0  0  0  0  0  0  0
  191.6660  171.7320  143.1750 C   0  0  0  0  0  2  0  0  0  0  0  0
  191.6990  173.9610  141.9520 C   0  0  0  0  0  2  0  0  0  0  0  0
  191.1680  173.6570  140.5590 C   0  0  0  0  0  2  0  0  0  0  0  0
  188.9540  172.5920  140.8320 C   0  0  1  0  0  3  0  0  0  0  0  0
  189.6600  173.8880  140.4980 C   0  0  2  0  0  3  0  0  0  0  0  0
  187.7450  172.8800  141.4630 O   0  0  0  0  0  1  0  0  0  0  0  0
  188.9090  173.1100  139.4050 C   0  0  1  0  0  3  0  0  0  0  0  0
  189.7720  172.2770  138.4910 C   0  0  0  0  0  0  0  0  0  0  0  0
  190.3290  172.7920  137.5320 O   0  0  0  0  0  0  0  0  0  0  0  0
  191.3390  170.5780  138.9960 O   0  0  0  0  0  1  0  0  0  0  0  0
  189.9830  170.8260  138.7800 C   0  0  0  0  0  2  0  0  0  0  0  0
  1 25  1  6  0  0  0
  1  4  1  0  0  0  0
  1 10  1  0  0  0  0
  2  7  1  0  0  0  0
  3  8  1  0  0  0  0
  4  2  2  0  0  0  0
  5  3  2  0  0  0  0
  5  4  1  0  0  0  0
  8  6  1  0  0  0  0
  8  7  2  0  0  0  0
  9 11  1  0  0  0  0
 10  9  1  0  0  0  0
 12 11  2  0  0  0  0
 13 10  2  0  0  0  0
 13 12  1  0  0  0  0
 14 12  1  0  0  0  0
 15 20  1  0  0  0  0
 17 15  2  0  0  0  0
 17 18  1  0  0  0  0
 18 19  2  0  0  0  0
 19 16  1  0  0  0  0
 20 14  1  0  0  0  0
 20 16  2  0  0  0  0
 21 18  1  0  0  0  0
 22 15  1  0  0  0  0
 23 22  1  0  0  0  0
 24 22  1  0  0  0  0
 26 25  1  0  0  0  0
 27 29  1  0  0  0  0
 27 28  1  0  0  0  0
 28 26  1  1  0  0  0
 29 30  1  6  0  0  0
 29 28  1  0  0  0  0
 31 30  1  6  0  0  0
 32 31  1  0  0  0  0
 33 32  1  0  0  0  0
 34 31  1  0  0  0  0
 35 34  1  6  0  0  0
 35 37  1  0  0  0  0
 36 37  1  0  0  0  0
 38 35  1  0  0  0  0
 39 38  1  0  0  0  0
 40 42  1  1  0  0  0
 41 39  1  6  0  0  0
 41 40  1  0  0  0  0
 43 44  1  6  0  0  0
 43 41  1  0  0  0  0
 43 40  1  0  0  0  0
 44 47  1  0  0  0  0
 45 44  2  0  0  0  0
 47 46  1  0  0  0  0
M  END
>  <MODEL>
8

>  <REMARK>
 VINA RESULT:      -6.4      5.501      9.274
  Name = 
  19 active torsions:
  status: ('A' for Active; 'I' for Inactive)
    1  A    between atoms: C_2  and  C_40
    2  A    between atoms: C_2  and  C_47
    3  A    between atoms: C_7  and  CA_12
    4  A    between atoms: O_9  and  C_26
    5  A    between atoms: C_10  and  C_26
    6  A    between atoms: C_10  and  C_41
    7  A    between atoms: C_11  and  C_24
    8  A    between atoms: C_14  and  C_41
    9  A    between atoms: C_15  and  C_45
   10  A    between atoms: C_16  and  C_45
   11  A    between atoms: N_20  and  C_33
   12  A    between atoms: N_20  and  C_44
   13  A    between atoms: C_22  and  C_26
   14  A    between atoms: C_22  and  C_38
   15  A    between atoms: C_24  and  C_35
   16  A    between atoms: C_30  and  C_36
   17  A    between atoms: C_35  and  C_41
   18  A    between atoms: C_36  and  C_37
   19  A    between atoms: C_44  and  C_45
                            x       y       z     vdW  Elec       q    Type
                         _______ _______ _______ _____ _____    ______ ____

>  <TORSDO>
F 19

$$$$
=
 OpenBabel11042418123D

 47 51  0  0  1  0  0  0  0  0999 V2000
  185.5520  178.6030  142.4030 C   0  0  2  0  0  3  0  0  0  0  0  0
  185.5760  179.4040  144.7710 C   0  0  0  0  0  3  0  0  0  0  0  0
  185.5210  176.7870  145.7560 C   0  0  0  0  0  3  0  0  0  0  0  0
  185.5530  178.3270  143.8780 C   0  0  0  0  0  0  0  0  0  0  0  0
  185.5240  177.0150  144.3770 C   0  0  0  0  0  3  0  0  0  0  0  0
  185.5450  177.6420  148.0120 O   0  0  0  0  0  1  0  0  0  0  0  0
  185.5740  179.1750  146.1500 C   0  0  0  0  0  3  0  0  0  0  0  0
  185.5470  177.8680  146.6430 C   0  0  0  0  0  0  0  0  0  0  0  0
  183.9850  178.0960  140.4610 C   0  0  0  0  0  2  0  0  0  0  0  0
  184.2090  178.3540  141.7940 C   0  0  0  0  0  0  0  0  0  0  0  0
  182.6610  177.9160  140.2980 N   0  0  0  0  0  0  0  0  0  0  0  0
  182.1370  178.0770  141.5290 C   0  0  0  0  0  0  0  0  0  0  0  0
  183.0520  178.3400  142.4810 N   0  0  0  0  0  0  0  0  0  0  0  0
  180.6840  177.9140  141.8200 C   0  0  0  0  0  2  0  0  0  0  0  0
  178.4920  179.0730  141.2640 C   0  0  0  0  0  0  0  0  0  0  0  0
  180.5820  180.0700  140.5720 C   0  0  0  0  0  3  0  0  0  0  0  0
  177.8270  180.1220  140.7030 N   0  0  0  0  0  0  0  0  0  0  0  0
  178.4820  181.1380  140.0800 C   0  0  0  0  0  0  0  0  0  0  0  0
  179.8750  181.1300  140.0050 C   0  0  0  0  0  3  0  0  0  0  0  0
  179.8980  179.0280  141.2030 C   0  0  0  0  0  0  0  0  0  0  0  0
  177.7810  182.1620  139.5380 F   0  0  0  0  0  0  0  0  0  0  0  0
  177.7150  177.9880  141.9390 C   0  0  0  0  0  3  0  0  0  0  0  0
  177.8710  176.7880  141.2450 O   0  0  0  0  0  1  0  0  0  0  0  0
  178.1540  177.8300  143.2550 O   0  0  0  0  0  1  0  0  0  0  0  0
  186.6340  177.8200  141.6700 C   0  0  0  0  0  2  0  0  0  0  0  0
  187.9450  178.3310  142.0320 N   0  0  0  0  0  2  0  0  0  0  0  0
  190.1450  177.6360  142.7630 C   0  0  0  0  0  2  0  0  0  0  0  0
  188.7140  177.2020  142.5240 C   0  0  1  0  0  3  0  0  0  0  0  0
  189.1890  177.5050  143.9290 C   0  0  1  0  0  3  0  0  0  0  0  0
  189.4530  176.1990  144.6530 C   0  0  0  0  0  2  0  0  0  0  0  0
  190.4510  176.4200  145.7880 C   0  0  2  0  0  3  0  0  0  0  0  0
  189.9760  177.3040  146.7850 O   0  0  0  0  0  0  0  0  0  0  0  0
  190.8050  177.2120  147.9160 C   0  0  0  0  0  1  0  0  0  0  0  0
  191.8430  176.7850  145.2570 C   0  0  0  0  0  2  0  0  0  0  0  0
  192.7870  175.5870  145.1330 C   0  0  2  0  0  3  0  0  0  0  0  0
  194.3900  177.0860  146.1150 F   0  0  0  0  0  0  0  0  0  0  0  0
  194.0540  175.7520  145.9730 C   0  0  0  0  0  2  0  0  0  0  0  0
  193.0900  175.2300  143.6780 C   0  0  0  0  0  2  0  0  0  0  0  0
  192.1440  174.1580  143.1600 C   0  0  0  0  0  2  0  0  0  0  0  0
  192.5540  173.5890  140.7890 C   0  0  1  0  0  3  0  0  0  0  0  0
  192.8760  173.2060  142.2170 C   0  0  2  0  0  3  0  0  0  0  0  0
  193.6460  173.2900  139.9770 O   0  0  0  0  0  1  0  0  0  0  0  0
  191.9830  172.3000  141.3550 C   0  0  1  0  0  3  0  0  0  0  0  0
  190.5010  172.4200  141.6080 C   0  0  0  0  0  0  0  0  0  0  0  0
  189.8120  173.1380  140.8970 O   0  0  0  0  0  0  0  0  0  0  0  0
  188.5240  172.0010  142.8380 O   0  0  0  0  0  1  0  0  0  0  0  0
  189.8620  171.6300  142.7030 C   0  0  0  0  0  2  0  0  0  0  0  0
  1 25  1  6  0  0  0
  1  4  1  0  0  0  0
  2  7  1  0  0  0  0
  3  8  1  0  0  0  0
  4  5  1  0  0  0  0
  4  2  2  0  0  0  0
  5  3  2  0  0  0  0
  7  8  2  0  0  0  0
  8  6  1  0  0  0  0
  9 10  1  0  0  0  0
 10  1  1  0  0  0  0
 10 13  2  0  0  0  0
 11  9  1  0  0  0  0
 11 12  2  0  0  0  0
 12 14  1  0  0  0  0
 12 13  1  0  0  0  0
 15 22  1  0  0  0  0
 16 20  2  0  0  0  0
 17 15  2  0  0  0  0
 18 17  1  0  0  0  0
 19 18  2  0  0  0  0
 19 16  1  0  0  0  0
 20 15  1  0  0  0  0
 20 14  1  0  0  0  0
 21 18  1  0  0  0  0
 22 24  1  0  0  0  0
 23 22  1  0  0  0  0
 25 26  1  0  0  0  0
 27 29  1  0  0  0  0
 28 26  1  6  0  0  0
 28 27  1  0  0  0  0
 28 29  1  0  0  0  0
 29 30  1  1  0  0  0
 31 30  1  6  0  0  0
 31 32  1  0  0  0  0
 32 33  1  0  0  0  0
 34 31  1  0  0  0  0
 35 38  1  6  0  0  0
 35 34  1  0  0  0  0
 35 37  1  0  0  0  0
 37 36  1  0  0  0  0
 39 38  1  0  0  0  0
 40 42  1  6  0  0  0
 40 43  1  0  0  0  0
 40 41  1  0  0  0  0
 41 39  1  1  0  0  0
 43 44  1  1  0  0  0
 43 41  1  0  0  0  0
 44 47  1  0  0  0  0
 45 44  2  0  0  0  0
 47 46  1  0  0  0  0
M  END
>  <MODEL>
9

>  <REMARK>
 VINA RESULT:      -6.4      1.989      3.669
  Name = 
  19 active torsions:
  status: ('A' for Active; 'I' for Inactive)
    1  A    between atoms: C_2  and  C_40
    2  A    between atoms: C_2  and  C_47
    3  A    between atoms: C_7  and  CA_12
    4  A    between atoms: O_9  and  C_26
    5  A    between atoms: C_10  and  C_26
    6  A    between atoms: C_10  and  C_41
    7  A    between atoms: C_11  and  C_24
    8  A    between atoms: C_14  and  C_41
    9  A    between atoms: C_15  and  C_45
   10  A    between atoms: C_16  and  C_45
   11  A    between atoms: N_20  and  C_33
   12  A    between atoms: N_20  and  C_44
   13  A    between atoms: C_22  and  C_26
   14  A    between atoms: C_22  and  C_38
   15  A    between atoms: C_24  and  C_35
   16  A    between atoms: C_30  and  C_36
   17  A    between atoms: C_35  and  C_41
   18  A    between atoms: C_36  and  C_37
   19  A    between atoms: C_44  and  C_45
                            x       y       z     vdW  Elec       q    Type
                         _______ _______ _______ _____ _____    ______ ____

>  <TORSDO>
F 19

$$$$
