=
 OpenBabel11042418373D

 37 44  0  0  1  0  0  0  0  0999 V2000
  189.3820  174.2140  141.9380 N   0  0  2  0  0  0  0  0  0  0  0  0
  190.2300  173.2720  143.7070 C   0  0  2  0  0  3  0  0  0  0  0  0
  190.0020  175.5910  143.9560 C   0  0  2  0  0  3  0  0  0  0  0  0
  189.0350  176.0690  145.0710 C   0  0  1  0  0  0  0  0  0  0  0  0
  187.5790  176.0080  144.6310 C   0  0  0  0  0  1  0  0  0  0  0  0
  194.0620  175.2300  145.6280 C   0  0  0  0  0  0  0  0  0  0  0  0
  192.0340  171.8580  142.8110 S   0  0  0  0  0  0  0  0  0  0  0  0
  196.2630  175.4940  143.9200 C   0  0  0  0  0  0  0  0  0  0  0  0
  189.2810  172.4680  140.3680 C   0  0  0  0  0  2  0  0  0  0  0  0
  188.2480  173.5480  139.9850 C   0  0  1  0  0  3  0  0  0  0  0  0
  189.5160  174.3450  143.2720 C   0  0  1  0  0  3  0  0  0  0  0  0
  190.6010  175.5100  146.9090 C   0  0  2  0  0  3  0  0  0  0  0  0
  197.3360  175.6210  143.1030 F   0  0  0  0  0  0  0  0  0  0  0  0
  193.8420  172.4940  145.2270 S   0  0  0  0  0  0  0  0  0  0  0  0
  192.8510  175.1130  146.3800 N   0  0  0  0  0  2  0  0  0  0  0  0
  195.7380  176.6190  144.5620 C   0  0  0  0  0  3  0  0  0  0  0  0
  194.5770  174.1050  144.9670 C   0  0  0  0  0  0  0  0  0  0  0  0
  191.3590  175.0970  144.5620 C   0  0  1  0  0  3  0  0  0  0  0  0
  188.2630  177.8560  147.5090 O   0  0  0  0  0  1  0  0  0  0  0  0
  194.6300  176.4900  145.4050 C   0  0  0  0  0  3  0  0  0  0  0  0
  189.5190  177.8480  146.9010 C   0  0  2  0  0  3  0  0  0  0  0  0
  191.6600  175.6740  145.8910 N   0  0  1  0  0  0  0  0  0  0  0  0
  191.3090  173.5830  144.5030 C   0  0  2  0  0  3  0  0  0  0  0  0
  188.2870  174.6200  141.0900 C   0  0  0  0  0  2  0  0  0  0  0  0
  189.2360  175.1630  146.2950 C   0  0  0  0  0  2  0  0  0  0  0  0
  195.6800  174.2390  144.1170 C   0  0  0  0  0  3  0  0  0  0  0  0
  189.3680  177.5440  145.3970 C   0  0  0  0  0  2  0  0  0  0  0  0
  190.4420  172.3920  142.6700 C   0  0  2  0  0  3  0  0  0  0  0  0
  189.9090  173.0460  141.5720 C   0  0  2  0  0  3  0  0  0  0  0  0
  192.4120  172.7880  144.1790 C   0  0  2  0  0  3  0  0  0  0  0  0
  190.4450  176.8530  147.6340 C   0  0  0  0  0  2  0  0  0  0  0  0
  188.6250  174.1800  138.6580 C   0  0  0  0  0  2  0  0  0  0  0  0
  188.5050  173.2400  137.6320 O   0  0  0  0  0  0  0  0  0  0  0  0
  189.6030  173.7300  136.4370 P   0  0  0  0  0  0  0  0  0  0  0  0
  189.0450  174.9160  135.6810 O   0  0  0  0  0  1  0  0  0  0  0  0
  191.0810  174.1530  137.1460 O   0  0  0  0  0  1  0  0  0  0  0  0
  189.8500  172.4520  135.3590 O   0  0  0  0  0  0  0  0  0  0  0  0
  1 24  1  1  0  0  0
  1 11  1  0  0  0  0
  2 23  1  0  0  0  0
  3 18  1  0  0  0  0
  3  4  1  0  0  0  0
  4 27  1  0  0  0  0
  4 25  1  0  0  0  0
  5  4  1  0  0  0  0
  6 15  1  0  0  0  0
  7 30  1  0  0  0  0
  8 26  2  0  0  0  0
  8 16  1  0  0  0  0
  9 29  1  0  0  0  0
 10  9  1  0  0  0  0
 10 24  1  0  0  0  0
 11  2  1  0  0  0  0
 11  3  1  0  0  0  0
 12 31  1  0  0  0  0
 13  8  1  0  0  0  0
 16 20  2  0  0  0  0
 17 14  1  0  0  0  0
 17  6  2  0  0  0  0
 18 22  1  0  0  0  0
 20  6  1  0  0  0  0
 21 19  1  0  0  0  0
 21 31  1  0  0  0  0
 22 15  1  0  0  0  0
 22 12  1  0  0  0  0
 23 18  1  0  0  0  0
 25 12  1  0  0  0  0
 26 17  1  0  0  0  0
 27 21  1  0  0  0  0
 28  7  1  0  0  0  0
 28  2  1  0  0  0  0
 29  1  1  0  0  0  0
 29 28  1  0  0  0  0
 30 23  1  0  0  0  0
 30 14  1  0  0  0  0
 32 10  1  0  0  0  0
 33 32  1  0  0  0  0
 34 36  1  0  0  0  0
 34 33  1  0  0  0  0
 35 34  1  0  0  0  0
 37 34  2  0  0  0  0
M  END
>  <MODEL>
1

>  <REMARK>
 VINA RESULT:      -7.6      0.000      0.000
  Name = 
  3 active torsions:
  status: ('A' for Active; 'I' for Inactive)
    1  A    between atoms: P_3  and  O_19
    2  A    between atoms: C_11  and  C_33
    3  A    between atoms: O_19  and  C_33
                            x       y       z     vdW  Elec       q    Type
                         _______ _______ _______ _____ _____    ______ ____

>  <TORSDO>
F 3

$$$$
=
 OpenBabel11042418373D

 37 44  0  0  1  0  0  0  0  0999 V2000
  188.4840  174.5210  139.7130 N   0  0  2  0  0  0  0  0  0  0  0  0
  188.0430  173.8590  141.7390 C   0  0  2  0  0  3  0  0  0  0  0  0
  188.2110  176.1920  141.5820 C   0  0  2  0  0  3  0  0  0  0  0  0
  186.9250  176.9950  141.9110 C   0  0  1  0  0  0  0  0  0  0  0  0
  185.9510  177.0210  140.7410 C   0  0  0  0  0  1  0  0  0  0  0  0
  190.5790  175.6940  145.2620 C   0  0  0  0  0  0  0  0  0  0  0  0
  189.7030  172.0900  142.1530 S   0  0  0  0  0  0  0  0  0  0  0  0
  193.3490  175.3460  145.0590 C   0  0  0  0  0  0  0  0  0  0  0  0
  188.8690  172.5210  138.5420 C   0  0  0  0  0  2  0  0  0  0  0  0
  188.4510  173.6170  137.5400 C   0  0  1  0  0  3  0  0  0  0  0  0
  187.9130  174.9010  140.8730 C   0  0  1  0  0  3  0  0  0  0  0  0
  187.1170  176.6350  144.3540 C   0  0  2  0  0  3  0  0  0  0  0  0
  194.6900  175.1780  144.9720 F   0  0  0  0  0  0  0  0  0  0  0  0
  190.0370  172.9780  145.0870 S   0  0  0  0  0  0  0  0  0  0  0  0
  189.1610  175.8740  145.2170 N   0  0  0  0  0  2  0  0  0  0  0  0
  192.8130  176.6310  145.1790 C   0  0  0  0  0  3  0  0  0  0  0  0
  191.1180  174.4060  145.1200 C   0  0  0  0  0  0  0  0  0  0  0  0
  188.8990  175.6720  142.8880 C   0  0  1  0  0  3  0  0  0  0  0  0
  185.3720  179.3140  143.3040 O   0  0  0  0  0  1  0  0  0  0  0  0
  191.4290  176.8070  145.2680 C   0  0  0  0  0  3  0  0  0  0  0  0
  186.7240  179.0350  143.5070 C   0  0  2  0  0  3  0  0  0  0  0  0
  188.5620  176.4630  144.0910 N   0  0  1  0  0  0  0  0  0  0  0  0
  188.5710  174.1940  142.9650 C   0  0  2  0  0  3  0  0  0  0  0  0
  188.1210  174.8770  138.3620 C   0  0  0  0  0  2  0  0  0  0  0  0
  186.2500  176.3360  143.1220 C   0  0  0  0  0  2  0  0  0  0  0  0
  192.5020  174.2350  145.0230 C   0  0  0  0  0  3  0  0  0  0  0  0
  187.3350  178.4560  142.2150 C   0  0  0  0  0  2  0  0  0  0  0  0
  188.5830  172.7710  141.0930 C   0  0  2  0  0  3  0  0  0  0  0  0
  188.8660  173.2500  139.8250 C   0  0  2  0  0  3  0  0  0  0  0  0
  189.4820  173.2240  143.3960 C   0  0  2  0  0  3  0  0  0  0  0  0
  186.8860  178.1050  144.7280 C   0  0  0  0  0  2  0  0  0  0  0  0
  189.5980  173.9200  136.5940 C   0  0  0  0  0  2  0  0  0  0  0  0
  190.7950  174.0070  137.3090 O   0  0  0  0  0  0  0  0  0  0  0  0
  191.8950  174.7600  136.2630 P   0  0  0  0  0  0  0  0  0  0  0  0
  192.4920  173.7370  135.3210 O   0  0  0  0  0  0  0  0  0  0  0  0
  191.1140  175.9670  135.3690 O   0  0  0  0  0  1  0  0  0  0  0  0
  193.1330  175.4600  137.1770 O   0  0  0  0  0  1  0  0  0  0  0  0
  1 24  1  6  0  0  0
  1 29  1  0  0  0  0
  1 11  1  0  0  0  0
  2 23  1  0  0  0  0
  3  4  1  0  0  0  0
  3 18  1  0  0  0  0
  4 27  1  0  0  0  0
  4 25  1  0  0  0  0
  5  4  1  0  0  0  0
  6 20  1  0  0  0  0
  7 30  1  0  0  0  0
  8 16  1  0  0  0  0
  9 29  1  0  0  0  0
 10 24  1  0  0  0  0
 10  9  1  0  0  0  0
 11  3  1  0  0  0  0
 11  2  1  0  0  0  0
 12 31  1  0  0  0  0
 13  8  1  0  0  0  0
 14 17  1  0  0  0  0
 15  6  1  0  0  0  0
 16 20  2  0  0  0  0
 17  6  2  0  0  0  0
 18 23  1  0  0  0  0
 18 22  1  0  0  0  0
 19 21  1  0  0  0  0
 21 31  1  0  0  0  0
 22 12  1  0  0  0  0
 22 15  1  0  0  0  0
 23 30  1  0  0  0  0
 25 12  1  0  0  0  0
 26  8  2  0  0  0  0
 26 17  1  0  0  0  0
 27 21  1  0  0  0  0
 28  2  1  0  0  0  0
 28  7  1  0  0  0  0
 29 28  1  0  0  0  0
 30 14  1  0  0  0  0
 32 33  1  0  0  0  0
 32 10  1  0  0  0  0
 34 37  1  0  0  0  0
 34 33  1  0  0  0  0
 35 34  2  0  0  0  0
 36 34  1  0  0  0  0
M  END
>  <MODEL>
2

>  <REMARK>
 VINA RESULT:      -7.6      2.253      3.430
  Name = 
  3 active torsions:
  status: ('A' for Active; 'I' for Inactive)
    1  A    between atoms: P_3  and  O_19
    2  A    between atoms: C_11  and  C_33
    3  A    between atoms: O_19  and  C_33
                            x       y       z     vdW  Elec       q    Type
                         _______ _______ _______ _____ _____    ______ ____

>  <TORSDO>
F 3

$$$$
=
 OpenBabel11042418373D

 37 44  0  0  1  0  0  0  0  0999 V2000
  190.8670  175.3280  145.2660 N   0  0  2  0  0  0  0  0  0  0  0  0
  191.5970  173.3700  144.6580 C   0  0  2  0  0  3  0  0  0  0  0  0
  192.7010  175.1160  143.5490 C   0  0  2  0  0  3  0  0  0  0  0  0
  194.2240  175.2430  143.8150 C   0  0  1  0  0  0  0  0  0  0  0  0
  194.5180  175.9410  145.1350 C   0  0  0  0  0  1  0  0  0  0  0  0
  192.0630  172.5240  140.0450 C   0  0  0  0  0  0  0  0  0  0  0  0
  189.5450  172.1070  144.1570 S   0  0  0  0  0  0  0  0  0  0  0  0
  189.7370  172.8460  138.5210 C   0  0  0  0  0  0  0  0  0  0  0  0
  189.0330  174.8350  146.6500 C   0  0  0  0  0  2  0  0  0  0  0  0
  189.5680  176.2380  147.0060 C   0  0  1  0  0  3  0  0  0  0  0  0
  191.9400  174.6820  144.7700 C   0  0  1  0  0  3  0  0  0  0  0  0
  194.8090  173.2920  142.4040 C   0  0  2  0  0  3  0  0  0  0  0  0
  188.6150  172.9930  137.7770 F   0  0  0  0  0  0  0  0  0  0  0  0
  190.9000  170.6930  141.7750 S   0  0  0  0  0  0  0  0  0  0  0  0
  193.1980  172.4660  140.9120 N   0  0  0  0  0  2  0  0  0  0  0  0
  190.8900  173.5660  138.1970 C   0  0  0  0  0  3  0  0  0  0  0  0
  190.8980  171.8170  140.3820 C   0  0  0  0  0  0  0  0  0  0  0  0
  192.3980  173.9360  142.5650 C   0  0  1  0  0  3  0  0  0  0  0  0
  197.1850  175.6200  142.9130 O   0  0  0  0  0  1  0  0  0  0  0  0
  192.0490  173.4150  138.9650 C   0  0  0  0  0  3  0  0  0  0  0  0
  196.1040  175.4890  142.0400 C   0  0  2  0  0  3  0  0  0  0  0  0
  193.5420  173.5780  141.6980 N   0  0  1  0  0  0  0  0  0  0  0  0
  191.8550  172.8120  143.4260 C   0  0  2  0  0  3  0  0  0  0  0  0
  190.8200  176.4750  146.1410 C   0  0  0  0  0  2  0  0  0  0  0  0
  194.8200  173.8280  143.8430 C   0  0  0  0  0  2  0  0  0  0  0  0
  189.7390  171.9770  139.6170 C   0  0  0  0  0  3  0  0  0  0  0  0
  194.8410  176.0960  142.6820 C   0  0  0  0  0  2  0  0  0  0  0  0
  190.3500  173.1580  145.2000 C   0  0  2  0  0  3  0  0  0  0  0  0
  189.9240  174.4290  145.5460 C   0  0  2  0  0  3  0  0  0  0  0  0
  190.8060  171.9760  143.0290 C   0  0  2  0  0  3  0  0  0  0  0  0
  195.9340  174.0060  141.6430 C   0  0  0  0  0  2  0  0  0  0  0  0
  188.5250  177.2910  146.6780 C   0  0  0  0  0  2  0  0  0  0  0  0
  187.3530  176.6760  146.2320 O   0  0  0  0  0  0  0  0  0  0  0  0
  186.9770  177.4300  144.7610 P   0  0  0  0  0  0  0  0  0  0  0  0
  188.2440  177.6820  143.9740 O   0  0  0  0  0  1  0  0  0  0  0  0
  185.9320  176.4510  143.8580 O   0  0  0  0  0  0  0  0  0  0  0  0
  186.2170  178.9070  145.0780 O   0  0  0  0  0  1  0  0  0  0  0  0
  1 29  1  0  0  0  0
  1 24  1  1  0  0  0
  2 11  1  0  0  0  0
  2 28  1  0  0  0  0
  3  4  1  0  0  0  0
  3 11  1  0  0  0  0
  4 25  1  0  0  0  0
  4  5  1  0  0  0  0
  6 17  1  0  0  0  0
  6 15  1  0  0  0  0
  7 28  1  0  0  0  0
  8 26  1  0  0  0  0
  9 10  1  0  0  0  0
 11  1  1  0  0  0  0
 12 25  1  0  0  0  0
 13  8  1  0  0  0  0
 14 30  1  0  0  0  0
 15 22  1  0  0  0  0
 16  8  2  0  0  0  0
 16 20  1  0  0  0  0
 17 14  1  0  0  0  0
 18 23  1  0  0  0  0
 18  3  1  0  0  0  0
 20  6  2  0  0  0  0
 21 27  1  0  0  0  0
 21 19  1  0  0  0  0
 22 12  1  0  0  0  0
 22 18  1  0  0  0  0
 23  2  1  0  0  0  0
 24 10  1  0  0  0  0
 26 17  2  0  0  0  0
 27  4  1  0  0  0  0
 28 29  1  0  0  0  0
 29  9  1  0  0  0  0
 30 23  1  0  0  0  0
 30  7  1  0  0  0  0
 31 21  1  0  0  0  0
 31 12  1  0  0  0  0
 32 10  1  0  0  0  0
 33 32  1  0  0  0  0
 34 37  1  0  0  0  0
 34 33  1  0  0  0  0
 35 34  1  0  0  0  0
 36 34  2  0  0  0  0
M  END
>  <MODEL>
3

>  <REMARK>
 VINA RESULT:      -7.5      4.085      6.923
  Name = 
  3 active torsions:
  status: ('A' for Active; 'I' for Inactive)
    1  A    between atoms: P_3  and  O_19
    2  A    between atoms: C_11  and  C_33
    3  A    between atoms: O_19  and  C_33
                            x       y       z     vdW  Elec       q    Type
                         _______ _______ _______ _____ _____    ______ ____

>  <TORSDO>
F 3

$$$$
=
 OpenBabel11042418373D

 37 44  0  0  1  0  0  0  0  0999 V2000
  189.9350  175.4890  144.2070 N   0  0  2  0  0  0  0  0  0  0  0  0
  191.8780  175.3610  143.2350 C   0  0  2  0  0  3  0  0  0  0  0  0
  190.4760  173.5720  142.6620 C   0  0  2  0  0  3  0  0  0  0  0  0
  190.0820  173.4630  141.1650 C   0  0  1  0  0  0  0  0  0  0  0  0
  188.9550  174.4180  140.7990 C   0  0  0  0  0  1  0  0  0  0  0  0
  194.1390  171.2280  143.3610 C   0  0  0  0  0  0  0  0  0  0  0  0
  193.4780  175.7050  145.0740 S   0  0  0  0  0  0  0  0  0  0  0  0
  194.6280  170.2010  145.9190 C   0  0  0  0  0  0  0  0  0  0  0  0
  190.1630  177.3090  145.6760 C   0  0  0  0  0  2  0  0  0  0  0  0
  188.6680  177.1050  145.3580 C   0  0  1  0  0  3  0  0  0  0  0  0
  190.5710  174.9980  143.1260 C   0  0  1  0  0  3  0  0  0  0  0  0
  192.3020  172.6150  140.4630 C   0  0  2  0  0  3  0  0  0  0  0  0
  194.8740  169.6990  147.1520 F   0  0  0  0  0  0  0  0  0  0  0  0
  195.4230  173.6330  143.8780 S   0  0  0  0  0  0  0  0  0  0  0  0
  193.7670  171.8150  142.1110 N   0  0  0  0  0  2  0  0  0  0  0  0
  193.9200  169.4410  144.9840 C   0  0  0  0  0  3  0  0  0  0  0  0
  194.8320  171.9980  144.3080 C   0  0  0  0  0  0  0  0  0  0  0  0
  191.9430  173.0760  142.8950 C   0  0  1  0  0  3  0  0  0  0  0  0
  189.6630  171.8890  138.5050 O   0  0  0  0  0  1  0  0  0  0  0  0
  193.6650  169.9580  143.7100 C   0  0  0  0  0  3  0  0  0  0  0  0
  190.2080  171.3430  139.6690 C   0  0  2  0  0  3  0  0  0  0  0  0
  192.4240  172.1380  141.8580 N   0  0  1  0  0  0  0  0  0  0  0  0
  192.7760  174.3300  143.0790 C   0  0  2  0  0  3  0  0  0  0  0  0
  188.5780  175.9670  144.3240 C   0  0  0  0  0  2  0  0  0  0  0  0
  191.3230  173.7900  140.3220 C   0  0  0  0  0  2  0  0  0  0  0  0
  195.0780  171.4810  145.5830 C   0  0  0  0  0  3  0  0  0  0  0  0
  189.5820  172.0220  140.9040 C   0  0  0  0  0  2  0  0  0  0  0  0
  192.0500  176.1900  144.3200 C   0  0  2  0  0  3  0  0  0  0  0  0
  190.7990  176.2180  144.9120 C   0  0  2  0  0  3  0  0  0  0  0  0
  193.8190  174.4320  144.0050 C   0  0  2  0  0  3  0  0  0  0  0  0
  191.7470  171.4570  139.6240 C   0  0  0  0  0  2  0  0  0  0  0  0
  187.9190  176.7020  146.6150 C   0  0  0  0  0  2  0  0  0  0  0  0
  187.3960  177.8350  147.2420 O   0  0  0  0  0  0  0  0  0  0  0  0
  185.8460  178.0410  146.5860 P   0  0  0  0  0  0  0  0  0  0  0  0
  184.8930  178.5200  147.6600 O   0  0  0  0  0  1  0  0  0  0  0  0
  185.8950  179.1710  145.3260 O   0  0  0  0  0  0  0  0  0  0  0  0
  185.3020  176.5590  145.9820 O   0  0  0  0  0  1  0  0  0  0  0  0
  1 24  1  6  0  0  0
  1 29  1  0  0  0  0
  2 28  1  0  0  0  0
  3 18  1  0  0  0  0
  3 11  1  0  0  0  0
  4  3  1  0  0  0  0
  5  4  1  0  0  0  0
  6 20  2  0  0  0  0
  6 17  1  0  0  0  0
  8 13  1  0  0  0  0
 10  9  1  0  0  0  0
 10 32  1  0  0  0  0
 11  2  1  0  0  0  0
 11  1  1  0  0  0  0
 12 22  1  0  0  0  0
 14 30  1  0  0  0  0
 14 17  1  0  0  0  0
 15  6  1  0  0  0  0
 16  8  2  0  0  0  0
 17 26  2  0  0  0  0
 18 23  1  0  0  0  0
 19 21  1  0  0  0  0
 20 16  1  0  0  0  0
 21 27  1  0  0  0  0
 22 15  1  0  0  0  0
 22 18  1  0  0  0  0
 23  2  1  0  0  0  0
 23 30  1  0  0  0  0
 24 10  1  0  0  0  0
 25 12  1  0  0  0  0
 25  4  1  0  0  0  0
 26  8  1  0  0  0  0
 27  4  1  0  0  0  0
 28 29  1  0  0  0  0
 28  7  1  0  0  0  0
 29  9  1  0  0  0  0
 30  7  1  0  0  0  0
 31 21  1  0  0  0  0
 31 12  1  0  0  0  0
 32 33  1  0  0  0  0
 34 33  1  0  0  0  0
 34 35  1  0  0  0  0
 36 34  2  0  0  0  0
 37 34  1  0  0  0  0
M  END
>  <MODEL>
4

>  <REMARK>
 VINA RESULT:      -7.5      3.275      6.904
  Name = 
  3 active torsions:
  status: ('A' for Active; 'I' for Inactive)
    1  A    between atoms: P_3  and  O_19
    2  A    between atoms: C_11  and  C_33
    3  A    between atoms: O_19  and  C_33
                            x       y       z     vdW  Elec       q    Type
                         _______ _______ _______ _____ _____    ______ ____

>  <TORSDO>
F 3

$$$$
=
 OpenBabel11042418373D

 37 44  0  0  1  0  0  0  0  0999 V2000
  189.2070  176.0200  143.2720 N   0  0  2  0  0  0  0  0  0  0  0  0
  190.1040  174.0680  142.9240 C   0  0  2  0  0  3  0  0  0  0  0  0
  191.7100  175.7250  143.3320 C   0  0  2  0  0  3  0  0  0  0  0  0
  192.5810  175.5390  144.6020 C   0  0  1  0  0  0  0  0  0  0  0  0
  191.8540  175.9820  145.8640 C   0  0  0  0  0  1  0  0  0  0  0  0
  193.7210  173.8070  139.9140 C   0  0  0  0  0  0  0  0  0  0  0  0
  189.0070  173.2760  140.8680 S   0  0  0  0  0  0  0  0  0  0  0  0
  193.2070  174.7510  137.3300 C   0  0  0  0  0  0  0  0  0  0  0  0
  186.9260  175.6750  142.8270 C   0  0  0  0  0  2  0  0  0  0  0  0
  187.0770  176.8950  143.7590 C   0  0  1  0  0  3  0  0  0  0  0  0
  190.2940  175.2680  143.5360 C   0  0  1  0  0  3  0  0  0  0  0  0
  193.9540  173.7330  143.6070 C   0  0  2  0  0  3  0  0  0  0  0  0
  192.9660  175.1990  136.0750 F   0  0  0  0  0  0  0  0  0  0  0  0
  191.6250  171.9890  139.8690 S   0  0  0  0  0  0  0  0  0  0  0  0
  193.8860  173.4250  141.2830 N   0  0  0  0  0  2  0  0  0  0  0  0
  194.2590  175.2900  138.0750 C   0  0  0  0  0  3  0  0  0  0  0  0
  192.6520  173.2800  139.1730 C   0  0  0  0  0  0  0  0  0  0  0  0
  192.1780  174.7690  142.1840 C   0  0  1  0  0  3  0  0  0  0  0  0
  195.2970  175.5030  146.1350 O   0  0  0  0  0  1  0  0  0  0  0  0
  194.5090  174.8280  139.3710 C   0  0  0  0  0  3  0  0  0  0  0  0
  195.1690  175.6910  144.7580 C   0  0  2  0  0  3  0  0  0  0  0  0
  193.5870  174.3370  142.3090 N   0  0  1  0  0  0  0  0  0  0  0  0
  191.1540  173.6510  142.1380 C   0  0  2  0  0  3  0  0  0  0  0  0
  188.5740  177.0230  144.0950 C   0  0  0  0  0  2  0  0  0  0  0  0
  192.9410  174.0510  144.7170 C   0  0  0  0  0  2  0  0  0  0  0  0
  192.4000  173.7500  137.8810 C   0  0  0  0  0  3  0  0  0  0  0  0
  193.8450  176.4180  144.4530 C   0  0  0  0  0  2  0  0  0  0  0  0
  188.8420  174.0090  142.3770 C   0  0  2  0  0  3  0  0  0  0  0  0
  188.3290  175.2750  142.6030 C   0  0  2  0  0  3  0  0  0  0  0  0
  190.6900  173.0800  140.9490 C   0  0  2  0  0  3  0  0  0  0  0  0
  195.3000  174.3330  144.0340 C   0  0  0  0  0  2  0  0  0  0  0  0
  186.6130  178.1530  143.0480 C   0  0  0  0  0  2  0  0  0  0  0  0
  185.2560  178.0490  142.7340 O   0  0  0  0  0  0  0  0  0  0  0  0
  184.4390  178.8720  143.9700 P   0  0  0  0  0  0  0  0  0  0  0  0
  185.1380  180.1810  144.2660 O   0  0  0  0  0  1  0  0  0  0  0  0
  182.8390  179.1740  143.5070 O   0  0  0  0  0  0  0  0  0  0  0  0
  184.4420  177.9150  145.3630 O   0  0  0  0  0  1  0  0  0  0  0  0
  1 11  1  0  0  0  0
  1 24  1  1  0  0  0
  2 11  1  0  0  0  0
  3 11  1  0  0  0  0
  3  4  1  0  0  0  0
  4 25  1  0  0  0  0
  4  5  1  0  0  0  0
  6 15  1  0  0  0  0
  7 30  1  0  0  0  0
  7 28  1  0  0  0  0
  8 26  2  0  0  0  0
  8 16  1  0  0  0  0
  9 10  1  0  0  0  0
 10 24  1  0  0  0  0
 12 31  1  0  0  0  0
 12 25  1  0  0  0  0
 13  8  1  0  0  0  0
 14 30  1  0  0  0  0
 15 22  1  0  0  0  0
 16 20  2  0  0  0  0
 17 14  1  0  0  0  0
 17  6  2  0  0  0  0
 18 22  1  0  0  0  0
 18  3  1  0  0  0  0
 20  6  1  0  0  0  0
 21 19  1  0  0  0  0
 22 12  1  0  0  0  0
 23 18  1  0  0  0  0
 23  2  1  0  0  0  0
 26 17  1  0  0  0  0
 27  4  1  0  0  0  0
 27 21  1  0  0  0  0
 28 29  1  0  0  0  0
 28  2  1  0  0  0  0
 29  9  1  0  0  0  0
 29  1  1  0  0  0  0
 30 23  1  0  0  0  0
 31 21  1  0  0  0  0
 32 10  1  0  0  0  0
 33 32  1  0  0  0  0
 33 34  1  0  0  0  0
 34 35  1  0  0  0  0
 34 37  1  0  0  0  0
 36 34  2  0  0  0  0
M  END
>  <MODEL>
5

>  <REMARK>
 VINA RESULT:      -7.2      4.262      6.147
  Name = 
  3 active torsions:
  status: ('A' for Active; 'I' for Inactive)
    1  A    between atoms: P_3  and  O_19
    2  A    between atoms: C_11  and  C_33
    3  A    between atoms: O_19  and  C_33
                            x       y       z     vdW  Elec       q    Type
                         _______ _______ _______ _____ _____    ______ ____

>  <TORSDO>
F 3

$$$$
=
 OpenBabel11042418373D

 37 44  0  0  1  0  0  0  0  0999 V2000
  189.7170  175.8180  143.1370 N   0  0  2  0  0  0  0  0  0  0  0  0
  190.4390  173.9280  142.3350 C   0  0  2  0  0  3  0  0  0  0  0  0
  192.1630  175.4890  142.6240 C   0  0  2  0  0  3  0  0  0  0  0  0
  193.2690  175.1070  143.6430 C   0  0  1  0  0  0  0  0  0  0  0  0
  192.8380  175.3680  145.0800 C   0  0  0  0  0  1  0  0  0  0  0  0
  193.3400  174.0700  138.6240 C   0  0  0  0  0  0  0  0  0  0  0  0
  188.9070  173.4600  140.4660 S   0  0  0  0  0  0  0  0  0  0  0  0
  192.3430  175.3890  136.3660 C   0  0  0  0  0  0  0  0  0  0  0  0
  187.3800  175.5690  143.1380 C   0  0  0  0  0  2  0  0  0  0  0  0
  187.7720  176.6370  144.1800 C   0  0  1  0  0  3  0  0  0  0  0  0
  190.8010  175.0230  143.0560 C   0  0  1  0  0  3  0  0  0  0  0  0
  194.3290  173.4510  142.1360 C   0  0  2  0  0  3  0  0  0  0  0  0
  191.8660  176.0200  135.2660 F   0  0  0  0  0  0  0  0  0  0  0  0
  191.2050  172.3030  138.7660 S   0  0  0  0  0  0  0  0  0  0  0  0
  193.7680  173.4900  139.8590 N   0  0  0  0  0  2  0  0  0  0  0  0
  193.5480  175.8010  136.9410 C   0  0  0  0  0  3  0  0  0  0  0  0
  192.1200  173.6700  138.0580 C   0  0  0  0  0  0  0  0  0  0  0  0
  192.3420  174.7060  141.2810 C   0  0  1  0  0  3  0  0  0  0  0  0
  196.2400  174.8150  144.5480 O   0  0  0  0  0  1  0  0  0  0  0  0
  194.0410  175.1510  138.0760 C   0  0  0  0  0  3  0  0  0  0  0  0
  195.8380  175.2040  143.2690 C   0  0  2  0  0  3  0  0  0  0  0  0
  193.7270  174.2440  141.0430 N   0  0  1  0  0  0  0  0  0  0  0  0
  191.2850  173.6190  141.2940 C   0  0  2  0  0  3  0  0  0  0  0  0
  189.3110  176.6960  144.2070 C   0  0  0  0  0  2  0  0  0  0  0  0
  193.5810  173.6140  143.4680 C   0  0  0  0  0  2  0  0  0  0  0  0
  191.6260  174.3280  136.9280 C   0  0  0  0  0  3  0  0  0  0  0  0
  194.5110  175.9840  143.3570 C   0  0  0  0  0  2  0  0  0  0  0  0
  189.0900  173.9650  142.0630 C   0  0  2  0  0  3  0  0  0  0  0  0
  188.6880  175.1900  142.5690 C   0  0  2  0  0  3  0  0  0  0  0  0
  190.5610  173.2340  140.1610 C   0  0  2  0  0  3  0  0  0  0  0  0
  195.7580  173.9670  142.3500 C   0  0  0  0  0  2  0  0  0  0  0  0
  187.2240  177.9910  143.7680 C   0  0  0  0  0  2  0  0  0  0  0  0
  186.6970  178.6500  144.8800 O   0  0  0  0  0  0  0  0  0  0  0  0
  185.0800  178.1500  144.9790 P   0  0  0  0  0  0  0  0  0  0  0  0
  184.2280  179.2730  145.5300 O   0  0  0  0  0  1  0  0  0  0  0  0
  184.5150  177.7090  143.4460 O   0  0  0  0  0  0  0  0  0  0  0  0
  184.9780  176.8170  146.0130 O   0  0  0  0  0  1  0  0  0  0  0  0
  1 24  1  1  0  0  0
  2 11  1  0  0  0  0
  3 11  1  0  0  0  0
  3  4  1  0  0  0  0
  4  5  1  0  0  0  0
  6 15  1  0  0  0  0
  7 28  1  0  0  0  0
  8 26  2  0  0  0  0
  8 16  1  0  0  0  0
  9 10  1  0  0  0  0
 10 24  1  0  0  0  0
 11  1  1  0  0  0  0
 12 31  1  0  0  0  0
 12 25  1  0  0  0  0
 13  8  1  0  0  0  0
 14 30  1  0  0  0  0
 15 22  1  0  0  0  0
 16 20  2  0  0  0  0
 17  6  2  0  0  0  0
 17 14  1  0  0  0  0
 18 23  1  0  0  0  0
 18  3  1  0  0  0  0
 20  6  1  0  0  0  0
 21 27  1  0  0  0  0
 21 19  1  0  0  0  0
 22 18  1  0  0  0  0
 22 12  1  0  0  0  0
 23  2  1  0  0  0  0
 25  4  1  0  0  0  0
 26 17  1  0  0  0  0
 27  4  1  0  0  0  0
 28  2  1  0  0  0  0
 28 29  1  0  0  0  0
 29  1  1  0  0  0  0
 29  9  1  0  0  0  0
 30  7  1  0  0  0  0
 30 23  1  0  0  0  0
 31 21  1  0  0  0  0
 32 10  1  0  0  0  0
 32 33  1  0  0  0  0
 33 34  1  0  0  0  0
 34 35  1  0  0  0  0
 34 37  1  0  0  0  0
 36 34  2  0  0  0  0
M  END
>  <MODEL>
6

>  <REMARK>
 VINA RESULT:      -7.2      4.561      6.820
  Name = 
  3 active torsions:
  status: ('A' for Active; 'I' for Inactive)
    1  A    between atoms: P_3  and  O_19
    2  A    between atoms: C_11  and  C_33
    3  A    between atoms: O_19  and  C_33
                            x       y       z     vdW  Elec       q    Type
                         _______ _______ _______ _____ _____    ______ ____

>  <TORSDO>
F 3

$$$$
=
 OpenBabel11042418373D

 37 44  0  0  1  0  0  0  0  0999 V2000
  189.9570  175.5660  143.9400 N   0  0  2  0  0  0  0  0  0  0  0  0
  191.6390  175.6170  142.5610 C   0  0  2  0  0  3  0  0  0  0  0  0
  191.0520  173.4310  143.1660 C   0  0  2  0  0  3  0  0  0  0  0  0
  190.5570  172.5110  142.0190 C   0  0  1  0  0  0  0  0  0  0  0  0
  189.0980  172.7690  141.6680 C   0  0  0  0  0  1  0  0  0  0  0  0
  195.4150  172.9890  143.5840 C   0  0  0  0  0  0  0  0  0  0  0  0
  193.1650  177.2730  143.5560 S   0  0  0  0  0  0  0  0  0  0  0  0
  196.6020  173.5020  146.0660 C   0  0  0  0  0  0  0  0  0  0  0  0
  189.5870  177.8280  144.4550 C   0  0  0  0  0  2  0  0  0  0  0  0
  188.2850  177.0370  144.7030 C   0  0  1  0  0  3  0  0  0  0  0  0
  190.6010  174.8540  142.9950 C   0  0  1  0  0  3  0  0  0  0  0  0
  192.8220  172.1860  141.0680 C   0  0  2  0  0  3  0  0  0  0  0  0
  197.1860  173.7470  147.2630 F   0  0  0  0  0  0  0  0  0  0  0  0
  195.6320  175.6190  142.7270 S   0  0  0  0  0  0  0  0  0  0  0  0
  194.6790  172.7660  142.3770 N   0  0  0  0  0  2  0  0  0  0  0  0
  196.1650  172.2120  145.7530 C   0  0  0  0  0  3  0  0  0  0  0  0
  195.8350  174.2880  143.9070 C   0  0  0  0  0  0  0  0  0  0  0  0
  192.6080  173.5960  143.1220 C   0  0  1  0  0  3  0  0  0  0  0  0
  190.5050  169.8300  140.4250 O   0  0  0  0  0  1  0  0  0  0  0  0
  195.5610  171.9570  144.5180 C   0  0  0  0  0  3  0  0  0  0  0  0
  191.3680  170.1010  141.4880 C   0  0  2  0  0  3  0  0  0  0  0  0
  193.3040  172.4870  142.4330 N   0  0  1  0  0  0  0  0  0  0  0  0
  192.8590  174.9790  142.5520 C   0  0  2  0  0  3  0  0  0  0  0  0
  188.5510  175.5850  144.2640 C   0  0  0  0  0  2  0  0  0  0  0  0
  191.4320  172.7770  140.7860 C   0  0  0  0  0  2  0  0  0  0  0  0
  196.4310  174.5410  145.1460 C   0  0  0  0  0  3  0  0  0  0  0  0
  190.6750  171.0440  142.4930 C   0  0  0  0  0  2  0  0  0  0  0  0
  191.5830  176.8660  143.1380 C   0  0  2  0  0  3  0  0  0  0  0  0
  190.5190  176.7710  144.0180 C   0  0  2  0  0  3  0  0  0  0  0  0
  193.8700  175.8300  143.0100 C   0  0  2  0  0  3  0  0  0  0  0  0
  192.7010  170.6610  140.9460 C   0  0  0  0  0  2  0  0  0  0  0  0
  187.9360  177.0600  146.1800 C   0  0  0  0  0  2  0  0  0  0  0  0
  186.5930  176.7220  146.3560 O   0  0  0  0  0  0  0  0  0  0  0  0
  185.7940  178.1840  146.6680 P   0  0  0  0  0  0  0  0  0  0  0  0
  184.3270  177.9230  146.9290 O   0  0  0  0  0  1  0  0  0  0  0  0
  186.4830  178.9460  148.0130 O   0  0  0  0  0  1  0  0  0  0  0  0
  185.9470  179.1930  145.3200 O   0  0  0  0  0  0  0  0  0  0  0  0
  1 29  1  0  0  0  0
  1 24  1  6  0  0  0
  2 11  1  0  0  0  0
  2 28  1  0  0  0  0
  4 27  1  0  0  0  0
  4  3  1  0  0  0  0
  5  4  1  0  0  0  0
  6 17  2  0  0  0  0
  6 20  1  0  0  0  0
  8 13  1  0  0  0  0
  9 10  1  0  0  0  0
 10 32  1  0  0  0  0
 11  3  1  0  0  0  0
 11  1  1  0  0  0  0
 12 22  1  0  0  0  0
 14 30  1  0  0  0  0
 14 17  1  0  0  0  0
 15 22  1  0  0  0  0
 15  6  1  0  0  0  0
 16  8  1  0  0  0  0
 17 26  1  0  0  0  0
 18  3  1  0  0  0  0
 19 21  1  0  0  0  0
 20 16  2  0  0  0  0
 21 27  1  0  0  0  0
 22 18  1  0  0  0  0
 23  2  1  0  0  0  0
 23 30  1  0  0  0  0
 23 18  1  0  0  0  0
 24 10  1  0  0  0  0
 25 12  1  0  0  0  0
 25  4  1  0  0  0  0
 26  8  2  0  0  0  0
 28  7  1  0  0  0  0
 28 29  1  0  0  0  0
 29  9  1  0  0  0  0
 30  7  1  0  0  0  0
 31 12  1  0  0  0  0
 31 21  1  0  0  0  0
 32 33  1  0  0  0  0
 33 34  1  0  0  0  0
 34 35  1  0  0  0  0
 34 36  1  0  0  0  0
 37 34  2  0  0  0  0
M  END
>  <MODEL>
7

>  <REMARK>
 VINA RESULT:      -7.1      3.532      6.651
  Name = 
  3 active torsions:
  status: ('A' for Active; 'I' for Inactive)
    1  A    between atoms: P_3  and  O_19
    2  A    between atoms: C_11  and  C_33
    3  A    between atoms: O_19  and  C_33
                            x       y       z     vdW  Elec       q    Type
                         _______ _______ _______ _____ _____    ______ ____

>  <TORSDO>
F 3

$$$$
=
 OpenBabel11042418373D

 37 44  0  0  1  0  0  0  0  0999 V2000
  191.7690  175.0490  142.9000 N   0  0  2  0  0  0  0  0  0  0  0  0
  192.7270  173.2230  142.2010 C   0  0  2  0  0  3  0  0  0  0  0  0
  194.2010  174.6010  143.3940 C   0  0  2  0  0  3  0  0  0  0  0  0
  194.7740  174.0130  144.7110 C   0  0  1  0  0  0  0  0  0  0  0  0
  193.7880  174.1260  145.8650 C   0  0  0  0  0  1  0  0  0  0  0  0
  196.9130  173.6030  140.0700 C   0  0  0  0  0  0  0  0  0  0  0  0
  192.1060  173.1070  139.8220 S   0  0  0  0  0  0  0  0  0  0  0  0
  196.9710  175.2640  137.8180 C   0  0  0  0  0  0  0  0  0  0  0  0
  189.6410  174.9790  141.9060 C   0  0  0  0  0  2  0  0  0  0  0  0
  189.5810  175.8760  143.1590 C   0  0  1  0  0  3  0  0  0  0  0  0
  192.7750  174.1900  143.1570 C   0  0  1  0  0  3  0  0  0  0  0  0
  196.3370  172.4810  143.5500 C   0  0  2  0  0  3  0  0  0  0  0  0
  197.0070  176.0600  136.7230 F   0  0  0  0  0  0  0  0  0  0  0  0
  194.8830  171.9990  139.0670 S   0  0  0  0  0  0  0  0  0  0  0  0
  196.7770  172.8440  141.2750 N   0  0  0  0  0  2  0  0  0  0  0  0
  197.8340  175.5090  138.8900 C   0  0  0  0  0  3  0  0  0  0  0  0
  196.0330  173.3700  139.0030 C   0  0  0  0  0  0  0  0  0  0  0  0
  194.9100  173.9790  142.1450 C   0  0  1  0  0  3  0  0  0  0  0  0
  197.0920  173.3870  146.7020 O   0  0  0  0  0  1  0  0  0  0  0  0
  197.7970  174.6870  140.0200 C   0  0  0  0  0  3  0  0  0  0  0  0
  197.2660  173.9610  145.4420 C   0  0  2  0  0  3  0  0  0  0  0  0
  196.2600  173.4460  142.4330 N   0  0  1  0  0  0  0  0  0  0  0  0
  193.9240  172.9820  141.5670 C   0  0  2  0  0  3  0  0  0  0  0  0
  190.9690  175.8150  143.8240 C   0  0  0  0  0  2  0  0  0  0  0  0
  195.1050  172.5340  144.4660 C   0  0  0  0  0  2  0  0  0  0  0  0
  196.0670  174.1990  137.8770 C   0  0  0  0  0  3  0  0  0  0  0  0
  196.0380  174.8220  145.0890 C   0  0  0  0  0  2  0  0  0  0  0  0
  191.6150  173.3950  141.4090 C   0  0  2  0  0  3  0  0  0  0  0  0
  191.0600  174.5750  141.8760 C   0  0  2  0  0  3  0  0  0  0  0  0
  193.7320  172.7970  140.1940 C   0  0  2  0  0  3  0  0  0  0  0  0
  197.5560  172.8560  144.4030 C   0  0  0  0  0  2  0  0  0  0  0  0
  189.2790  177.3090  142.7590 C   0  0  0  0  0  2  0  0  0  0  0  0
  188.2380  177.8130  143.5420 O   0  0  0  0  0  0  0  0  0  0  0  0
  186.8620  177.7650  142.5530 P   0  0  0  0  0  0  0  0  0  0  0  0
  186.0880  176.4910  142.8090 O   0  0  0  0  0  1  0  0  0  0  0  0
  185.8750  179.1030  142.8690 O   0  0  0  0  0  1  0  0  0  0  0  0
  187.3470  177.8040  140.9340 O   0  0  0  0  0  0  0  0  0  0  0  0
  1 11  1  0  0  0  0
  1 24  1  1  0  0  0
  2 11  1  0  0  0  0
  3  4  1  0  0  0  0
  4 27  1  0  0  0  0
  4  5  1  0  0  0  0
  6 15  1  0  0  0  0
  7 30  1  0  0  0  0
  7 28  1  0  0  0  0
  8 26  2  0  0  0  0
  8 16  1  0  0  0  0
  9 10  1  0  0  0  0
 10 24  1  0  0  0  0
 11  3  1  0  0  0  0
 12 31  1  0  0  0  0
 12 25  1  0  0  0  0
 13  8  1  0  0  0  0
 14 30  1  0  0  0  0
 15 22  1  0  0  0  0
 16 20  2  0  0  0  0
 17 14  1  0  0  0  0
 17  6  2  0  0  0  0
 18 22  1  0  0  0  0
 18  3  1  0  0  0  0
 20  6  1  0  0  0  0
 21 19  1  0  0  0  0
 22 12  1  0  0  0  0
 23 18  1  0  0  0  0
 23  2  1  0  0  0  0
 25  4  1  0  0  0  0
 26 17  1  0  0  0  0
 27 21  1  0  0  0  0
 28 29  1  0  0  0  0
 28  2  1  0  0  0  0
 29  9  1  0  0  0  0
 29  1  1  0  0  0  0
 30 23  1  0  0  0  0
 31 21  1  0  0  0  0
 32 10  1  0  0  0  0
 32 33  1  0  0  0  0
 34 35  1  0  0  0  0
 34 36  1  0  0  0  0
 34 33  1  0  0  0  0
 37 34  2  0  0  0  0
M  END
>  <MODEL>
8

>  <REMARK>
 VINA RESULT:      -7.0      4.246      6.154
  Name = 
  3 active torsions:
  status: ('A' for Active; 'I' for Inactive)
    1  A    between atoms: P_3  and  O_19
    2  A    between atoms: C_11  and  C_33
    3  A    between atoms: O_19  and  C_33
                            x       y       z     vdW  Elec       q    Type
                         _______ _______ _______ _____ _____    ______ ____

>  <TORSDO>
F 3

$$$$
=
 OpenBabel11042418373D

 37 44  0  0  1  0  0  0  0  0999 V2000
  189.5700  175.3510  142.5780 N   0  0  2  0  0  0  0  0  0  0  0  0
  190.0230  173.5990  141.3690 C   0  0  2  0  0  3  0  0  0  0  0  0
  191.9550  174.7580  142.0160 C   0  0  2  0  0  3  0  0  0  0  0  0
  192.9450  173.9850  142.9260 C   0  0  1  0  0  0  0  0  0  0  0  0
  192.5010  173.9820  144.3820 C   0  0  0  0  0  1  0  0  0  0  0  0
  193.0630  174.1050  137.8030 C   0  0  0  0  0  0  0  0  0  0  0  0
  188.5160  173.8140  139.4340 S   0  0  0  0  0  0  0  0  0  0  0  0
  192.3760  176.0410  135.9010 C   0  0  0  0  0  0  0  0  0  0  0  0
  187.2250  175.4850  142.5100 C   0  0  0  0  0  2  0  0  0  0  0  0
  187.7330  176.2140  143.7710 C   0  0  1  0  0  3  0  0  0  0  0  0
  190.5210  174.4310  142.3230 C   0  0  1  0  0  3  0  0  0  0  0  0
  193.7980  172.5620  141.0860 C   0  0  2  0  0  3  0  0  0  0  0  0
  192.0490  176.9700  134.9730 F   0  0  0  0  0  0  0  0  0  0  0  0
  190.6760  172.7170  137.5260 S   0  0  0  0  0  0  0  0  0  0  0  0
  193.3440  173.2010  138.8750 N   0  0  0  0  0  2  0  0  0  0  0  0
  193.6060  176.1140  136.5610 C   0  0  0  0  0  3  0  0  0  0  0  0
  191.8200  174.0440  137.1550 C   0  0  0  0  0  0  0  0  0  0  0  0
  192.0660  174.2790  140.5300 C   0  0  1  0  0  3  0  0  0  0  0  0
  195.7950  173.0250  143.7550 O   0  0  0  0  0  1  0  0  0  0  0  0
  193.9450  175.1550  137.5200 C   0  0  0  0  0  3  0  0  0  0  0  0
  195.5110  173.7510  142.5970 C   0  0  2  0  0  3  0  0  0  0  0  0
  193.3720  173.6670  140.2000 N   0  0  1  0  0  0  0  0  0  0  0  0
  190.8540  173.4000  140.2890 C   0  0  2  0  0  3  0  0  0  0  0  0
  189.2600  176.0190  143.8190 C   0  0  0  0  0  2  0  0  0  0  0  0
  193.0300  172.5390  142.4160 C   0  0  0  0  0  2  0  0  0  0  0  0
  191.4810  175.0090  136.2020 C   0  0  0  0  0  3  0  0  0  0  0  0
  194.3180  174.6940  142.8540 C   0  0  0  0  0  2  0  0  0  0  0  0
  188.7090  173.9110  141.1060 C   0  0  2  0  0  3  0  0  0  0  0  0
  188.4810  175.0390  141.8760 C   0  0  2  0  0  3  0  0  0  0  0  0
  190.1270  173.4010  139.0950 C   0  0  2  0  0  3  0  0  0  0  0  0
  195.2790  172.7810  141.4190 C   0  0  0  0  0  2  0  0  0  0  0  0
  187.4190  177.6960  143.6760 C   0  0  0  0  0  2  0  0  0  0  0  0
  186.3640  177.9030  142.7850 O   0  0  0  0  0  0  0  0  0  0  0  0
  185.1060  178.5550  143.7150 P   0  0  0  0  0  0  0  0  0  0  0  0
  184.9610  177.7750  145.0030 O   0  0  0  0  0  1  0  0  0  0  0  0
  185.4260  180.1790  144.0670 O   0  0  0  0  0  1  0  0  0  0  0  0
  183.6640  178.4520  142.8390 O   0  0  0  0  0  0  0  0  0  0  0  0
  1 24  1  1  0  0  0
  2 11  1  0  0  0  0
  3 11  1  0  0  0  0
  3  4  1  0  0  0  0
  4  5  1  0  0  0  0
  6 15  1  0  0  0  0
  7 28  1  0  0  0  0
  8 26  2  0  0  0  0
  8 16  1  0  0  0  0
  9 10  1  0  0  0  0
 10 24  1  0  0  0  0
 11  1  1  0  0  0  0
 12 31  1  0  0  0  0
 12 25  1  0  0  0  0
 13  8  1  0  0  0  0
 14 30  1  0  0  0  0
 15 22  1  0  0  0  0
 16 20  2  0  0  0  0
 17 14  1  0  0  0  0
 17  6  2  0  0  0  0
 18  3  1  0  0  0  0
 20  6  1  0  0  0  0
 21 27  1  0  0  0  0
 21 19  1  0  0  0  0
 22 18  1  0  0  0  0
 22 12  1  0  0  0  0
 23 18  1  0  0  0  0
 23  2  1  0  0  0  0
 25  4  1  0  0  0  0
 26 17  1  0  0  0  0
 27  4  1  0  0  0  0
 28  2  1  0  0  0  0
 28 29  1  0  0  0  0
 29  9  1  0  0  0  0
 29  1  1  0  0  0  0
 30  7  1  0  0  0  0
 30 23  1  0  0  0  0
 31 21  1  0  0  0  0
 32 10  1  0  0  0  0
 33 32  1  0  0  0  0
 33 34  1  0  0  0  0
 34 36  1  0  0  0  0
 34 35  1  0  0  0  0
 37 34  2  0  0  0  0
M  END
>  <MODEL>
9

>  <REMARK>
 VINA RESULT:      -6.9      4.479      7.048
  Name = 
  3 active torsions:
  status: ('A' for Active; 'I' for Inactive)
    1  A    between atoms: P_3  and  O_19
    2  A    between atoms: C_11  and  C_33
    3  A    between atoms: O_19  and  C_33
                            x       y       z     vdW  Elec       q    Type
                         _______ _______ _______ _____ _____    ______ ____

>  <TORSDO>
F 3

$$$$
