=
 OpenBabel11042419183D

 43 47  0  0  1  0  0  0  0  0999 V2000
  188.4160  176.0270  145.3360 C   0  0  0  0  0  0  0  0  0  0  0  0
  187.9620  176.8600  144.2860 C   0  0  0  0  0  0  0  0  0  0  0  0
  186.5230  177.9690  145.8590 C   0  0  0  0  0  0  0  0  0  0  0  0
  186.9530  177.1730  146.8680 N   0  0  0  0  0  0  0  0  0  0  0  0
  187.8830  176.2070  146.6280 C   0  0  0  0  0  3  0  0  0  0  0  0
  183.1610  177.4600  141.2400 O   0  0  0  0  0  0  0  0  0  0  0  0
  185.5700  179.0880  146.0050 C   0  0  0  0  0  2  0  0  0  0  0  0
  183.0390  178.3170  142.1560 C   0  0  0  0  0  0  0  0  0  0  0  0
  185.5180  178.2290  142.6420 C   0  0  0  0  0  2  0  0  0  0  0  0
  185.5240  179.7120  144.6020 C   0  0  2  0  0  3  0  0  0  0  0  0
  184.1130  179.6180  144.0510 C   0  0  0  0  0  2  0  0  0  0  0  0
  184.1840  178.7200  142.9180 N   0  0  0  0  0  0  0  0  0  0  0  0
  186.9970  177.8340  144.5830 C   0  0  0  0  0  0  0  0  0  0  0  0
  186.4290  178.8660  143.6780 C   0  0  1  0  0  3  0  0  0  0  0  0
  191.7430  174.2060  145.0920 C   0  0  0  0  0  3  0  0  0  0  0  0
  189.9620  172.6930  144.4810 C   0  0  0  0  0  3  0  0  0  0  0  0
  189.0270  173.7080  144.6980 C   0  0  0  0  0  3  0  0  0  0  0  0
  191.3290  172.9360  144.6740 C   0  0  0  0  0  0  0  0  0  0  0  0
  190.8140  175.2260  145.3210 C   0  0  0  0  0  0  0  0  0  0  0  0
  189.4370  174.9800  145.1150 C   0  0  0  0  0  0  0  0  0  0  0  0
  193.7920  169.2740  142.7920 O   0  0  0  0  0  1  0  0  0  0  0  0
  192.3010  171.9000  144.4540 N   0  0  0  0  0  0  0  0  0  0  0  0
  193.2740  169.8730  143.9440 C   0  0  1  0  0  3  0  0  0  0  0  0
  193.5090  171.9390  145.0790 O   0  0  0  0  0  0  0  0  0  0  0  0
  194.2490  170.8980  144.4890 C   0  0  0  0  0  2  0  0  0  0  0  0
  192.0310  170.6970  143.6890 C   0  0  2  0  0  3  0  0  0  0  0  0
  191.8330  171.0590  142.2160 C   0  0  0  0  0  2  0  0  0  0  0  0
  190.7400  170.3630  141.6990 O   0  0  0  0  0  1  0  0  0  0  0  0
  191.3240  176.5750  145.7120 C   0  0  0  0  0  2  0  0  0  0  0  0
  192.1770  176.4570  146.8820 N   0  0  0  0  0  2  0  0  0  0  0  0
  191.3330  176.6980  148.0370 C   0  0  0  0  0  1  0  0  0  0  0  0
  187.9980  175.8520  141.9990 C   0  0  0  0  0  0  0  0  0  0  0  0
  188.5420  175.8040  140.6840 N   0  0  0  0  0  1  0  0  0  0  0  0
  187.0560  175.0720  142.3040 O   0  0  0  0  0  0  0  0  0  0  0  0
  188.5230  176.7710  142.9700 N   0  0  0  0  0  0  0  0  0  0  0  0
  189.6600  177.6160  142.6390 C   0  0  0  0  0  1  0  0  0  0  0  0
  181.6870  178.9060  142.4280 C   0  0  0  0  0  2  0  0  0  0  0  0
  180.5940  178.3740  141.4920 C   0  0  1  0  0  3  0  0  0  0  0  0
  179.7170  177.5260  142.1720 O   0  0  0  0  0  1  0  0  0  0  0  0
  179.3330  178.9870  139.5470 F   0  0  0  0  0  0  0  0  0  0  0  0
  178.7800  179.9290  141.5240 F   0  0  0  0  0  0  0  0  0  0  0  0
  179.8280  179.4680  140.7470 C   0  0  0  0  0  0  0  0  0  0  0  0
  180.6840  180.5210  140.4850 F   0  0  0  0  0  0  0  0  0  0  0  0
  1  5  1  0  0  0  0
  2 13  1  0  0  0  0
  2  1  2  0  0  0  0
  3  7  1  0  0  0  0
  3  4  1  0  0  0  0
  5  4  2  0  0  0  0
  6  8  2  0  0  0  0
  8 37  1  0  0  0  0
  8 12  1  0  0  0  0
  9 12  1  0  0  0  0
 10 11  1  6  0  0  0
 10  7  1  0  0  0  0
 12 11  1  0  0  0  0
 13  3  2  0  0  0  0
 14  9  1  6  0  0  0
 14 13  1  0  0  0  0
 14 10  1  0  0  0  0
 15 19  1  0  0  0  0
 16 18  1  0  0  0  0
 16 17  2  0  0  0  0
 17 20  1  0  0  0  0
 18 15  2  0  0  0  0
 19 29  1  0  0  0  0
 20 19  2  0  0  0  0
 20  1  1  0  0  0  0
 22 18  1  0  0  0  0
 22 24  1  0  0  0  0
 23 21  1  6  0  0  0
 23 25  1  0  0  0  0
 25 24  1  0  0  0  0
 26 27  1  6  0  0  0
 26 23  1  0  0  0  0
 26 22  1  0  0  0  0
 28 27  1  0  0  0  0
 29 30  1  0  0  0  0
 30 31  1  0  0  0  0
 32 34  2  0  0  0  0
 32 35  1  0  0  0  0
 33 32  1  0  0  0  0
 35  2  1  0  0  0  0
 36 35  1  0  0  0  0
 38 39  1  1  0  0  0
 38 37  1  0  0  0  0
 40 42  1  0  0  0  0
 42 38  1  0  0  0  0
 42 41  1  0  0  0  0
 43 42  1  0  0  0  0
M  END
>  <MODEL>
1

>  <REMARK>
 VINA RESULT:      -7.2      0.000      0.000
  Name = 
  9 active torsions:
  status: ('A' for Active; 'I' for Inactive)
    1  A    between atoms: N_2  and  C_23
    2  A    between atoms: C_3  and  C_42
    3  A    between atoms: C_4  and  N_40
    4  A    between atoms: C_5  and  C_43
    5  A    between atoms: N_7  and  C_35
    6  A    between atoms: C_18  and  C_27
    7  A    between atoms: C_18  and  C_31
    8  A    between atoms: C_19  and  C_31
    9  A    between atoms: C_23  and  C_36
                            x       y       z     vdW  Elec       q    Type
                         _______ _______ _______ _____ _____    ______ ____

>  <TORSDO>
F 9

$$$$
=
 OpenBabel11042419183D

 43 47  0  0  1  0  0  0  0  0999 V2000
  191.3480  176.1890  143.4280 C   0  0  0  0  0  0  0  0  0  0  0  0
  191.6490  175.2550  144.4470 C   0  0  0  0  0  0  0  0  0  0  0  0
  193.9860  175.6210  144.0210 C   0  0  0  0  0  0  0  0  0  0  0  0
  193.7030  176.5160  143.0420 N   0  0  0  0  0  0  0  0  0  0  0  0
  192.4080  176.8050  142.7340 C   0  0  0  0  0  3  0  0  0  0  0  0
  193.7250  169.9350  144.7230 O   0  0  0  0  0  0  0  0  0  0  0  0
  195.3420  175.2720  144.4890 C   0  0  0  0  0  2  0  0  0  0  0  0
  194.7410  170.6580  144.8980 C   0  0  0  0  0  0  0  0  0  0  0  0
  193.2930  172.6480  145.4730 C   0  0  0  0  0  2  0  0  0  0  0  0
  195.0870  174.3190  145.6660 C   0  0  2  0  0  3  0  0  0  0  0  0
  195.6970  172.9630  145.3620 C   0  0  0  0  0  2  0  0  0  0  0  0
  194.5870  172.0400  145.2450 N   0  0  0  0  0  0  0  0  0  0  0  0
  192.9980  174.9850  144.7210 C   0  0  0  0  0  0  0  0  0  0  0  0
  193.5590  174.1120  145.7840 C   0  0  1  0  0  3  0  0  0  0  0  0
  187.8830  176.1420  141.8680 C   0  0  0  0  0  3  0  0  0  0  0  0
  188.0530  178.0260  143.3700 C   0  0  0  0  0  3  0  0  0  0  0  0
  189.3670  177.6640  143.6730 C   0  0  0  0  0  3  0  0  0  0  0  0
  187.3010  177.2690  142.4620 C   0  0  0  0  0  0  0  0  0  0  0  0
  189.1960  175.7670  142.1710 C   0  0  0  0  0  0  0  0  0  0  0  0
  189.9540  176.5400  143.0790 C   0  0  0  0  0  0  0  0  0  0  0  0
  182.7990  178.9060  142.7300 O   0  0  0  0  0  1  0  0  0  0  0  0
  185.9470  177.6300  142.1420 N   0  0  0  0  0  0  0  0  0  0  0  0
  183.6620  177.9110  142.2600 C   0  0  1  0  0  3  0  0  0  0  0  0
  185.5590  177.7860  140.8470 O   0  0  0  0  0  0  0  0  0  0  0  0
  184.2580  178.3160  140.9270 C   0  0  0  0  0  2  0  0  0  0  0  0
  184.8850  177.7160  143.1280 C   0  0  2  0  0  3  0  0  0  0  0  0
  185.1560  178.8880  144.0720 C   0  0  0  0  0  2  0  0  0  0  0  0
  185.2470  178.4270  145.3860 O   0  0  0  0  0  1  0  0  0  0  0  0
  189.7780  174.5880  141.4610 C   0  0  0  0  0  2  0  0  0  0  0  0
  188.7430  173.9190  140.6920 N   0  0  0  0  0  2  0  0  0  0  0  0
  188.2800  172.8060  141.4990 C   0  0  0  0  0  1  0  0  0  0  0  0
  190.1220  175.2880  146.4260 C   0  0  0  0  0  0  0  0  0  0  0  0
  189.0660  174.6950  147.1760 N   0  0  0  0  0  1  0  0  0  0  0  0
  190.6270  176.3720  146.8250 O   0  0  0  0  0  0  0  0  0  0  0  0
  190.6130  174.6540  145.2360 N   0  0  0  0  0  0  0  0  0  0  0  0
  190.0830  173.3640  144.8200 C   0  0  0  0  0  1  0  0  0  0  0  0
  196.1030  170.0510  144.7430 C   0  0  0  0  0  2  0  0  0  0  0  0
  196.3370  168.8430  145.6600 C   0  0  1  0  0  3  0  0  0  0  0  0
  197.5080  168.1660  145.3120 O   0  0  0  0  0  1  0  0  0  0  0  0
  196.8260  170.4560  147.3660 F   0  0  0  0  0  0  0  0  0  0  0  0
  195.0350  169.1090  147.6450 F   0  0  0  0  0  0  0  0  0  0  0  0
  196.3250  169.1840  147.1510 C   0  0  0  0  0  0  0  0  0  0  0  0
  197.1140  168.2740  147.8290 F   0  0  0  0  0  0  0  0  0  0  0  0
  1  2  1  0  0  0  0
  2 13  2  0  0  0  0
  2 35  1  0  0  0  0
  3  7  1  0  0  0  0
  3 13  1  0  0  0  0
  4  3  2  0  0  0  0
  5  4  1  0  0  0  0
  5  1  2  0  0  0  0
  6  8  2  0  0  0  0
  8 12  1  0  0  0  0
 10  7  1  6  0  0  0
 10 14  1  0  0  0  0
 11 10  1  0  0  0  0
 12 11  1  0  0  0  0
 12  9  1  0  0  0  0
 13 14  1  0  0  0  0
 14  9  1  6  0  0  0
 15 19  2  0  0  0  0
 15 18  1  0  0  0  0
 16 17  1  0  0  0  0
 18 16  2  0  0  0  0
 19 20  1  0  0  0  0
 20  1  1  0  0  0  0
 20 17  2  0  0  0  0
 22 18  1  0  0  0  0
 22 26  1  0  0  0  0
 23 21  1  1  0  0  0
 23 26  1  0  0  0  0
 24 25  1  0  0  0  0
 24 22  1  0  0  0  0
 25 23  1  0  0  0  0
 26 27  1  1  0  0  0
 27 28  1  0  0  0  0
 29 19  1  0  0  0  0
 30 29  1  0  0  0  0
 30 31  1  0  0  0  0
 32 34  2  0  0  0  0
 32 33  1  0  0  0  0
 35 32  1  0  0  0  0
 36 35  1  0  0  0  0
 37  8  1  0  0  0  0
 37 38  1  0  0  0  0
 38 39  1  6  0  0  0
 38 42  1  0  0  0  0
 42 40  1  0  0  0  0
 42 41  1  0  0  0  0
 42 43  1  0  0  0  0
M  END
>  <MODEL>
2

>  <REMARK>
 VINA RESULT:      -7.2      5.980     11.474
  Name = 
  9 active torsions:
  status: ('A' for Active; 'I' for Inactive)
    1  A    between atoms: N_2  and  C_23
    2  A    between atoms: C_3  and  C_42
    3  A    between atoms: C_4  and  N_40
    4  A    between atoms: C_5  and  C_43
    5  A    between atoms: N_7  and  C_35
    6  A    between atoms: C_18  and  C_27
    7  A    between atoms: C_18  and  C_31
    8  A    between atoms: C_19  and  C_31
    9  A    between atoms: C_23  and  C_36
                            x       y       z     vdW  Elec       q    Type
                         _______ _______ _______ _____ _____    ______ ____

>  <TORSDO>
F 9

$$$$
=
 OpenBabel11042419183D

 43 47  0  0  1  0  0  0  0  0999 V2000
  189.1670  175.6760  145.8160 C   0  0  0  0  0  0  0  0  0  0  0  0
  188.7750  176.7010  144.9230 C   0  0  0  0  0  0  0  0  0  0  0  0
  186.8610  177.1140  146.3150 C   0  0  0  0  0  0  0  0  0  0  0  0
  187.2310  176.1320  147.1750 N   0  0  0  0  0  0  0  0  0  0  0  0
  188.3620  175.4100  146.9420 C   0  0  0  0  0  3  0  0  0  0  0  0
  184.6550  177.4690  141.0340 O   0  0  0  0  0  0  0  0  0  0  0  0
  185.6970  178.0050  146.4910 C   0  0  0  0  0  2  0  0  0  0  0  0
  184.1870  178.0090  142.0710 C   0  0  0  0  0  0  0  0  0  0  0  0
  186.4860  178.1280  143.1130 C   0  0  0  0  0  2  0  0  0  0  0  0
  185.8090  178.9860  145.3150 C   0  0  2  0  0  3  0  0  0  0  0  0
  184.5830  178.8580  144.4290 C   0  0  0  0  0  2  0  0  0  0  0  0
  185.0550  178.3340  143.1650 N   0  0  0  0  0  0  0  0  0  0  0  0
  187.5980  177.4090  145.2010 C   0  0  0  0  0  0  0  0  0  0  0  0
  187.0290  178.5660  144.4630 C   0  0  1  0  0  3  0  0  0  0  0  0
  191.6080  173.0340  144.5920 C   0  0  0  0  0  3  0  0  0  0  0  0
  192.7590  174.5520  146.0770 C   0  0  0  0  0  3  0  0  0  0  0  0
  191.5760  175.2730  146.2550 C   0  0  0  0  0  3  0  0  0  0  0  0
  192.7840  173.4240  145.2460 C   0  0  0  0  0  0  0  0  0  0  0  0
  190.4210  173.7550  144.7560 C   0  0  0  0  0  0  0  0  0  0  0  0
  190.3980  174.8840  145.6040 C   0  0  0  0  0  0  0  0  0  0  0  0
  197.2530  172.1420  144.0650 O   0  0  0  0  0  1  0  0  0  0  0  0
  193.9950  172.6740  145.0540 N   0  0  0  0  0  0  0  0  0  0  0  0
  195.9020  171.7850  144.1140 C   0  0  1  0  0  3  0  0  0  0  0  0
  194.2320  171.5450  145.7770 O   0  0  0  0  0  0  0  0  0  0  0  0
  195.5610  171.1990  145.4700 C   0  0  0  0  0  2  0  0  0  0  0  0
  194.9630  172.9650  144.0130 C   0  0  2  0  0  3  0  0  0  0  0  0
  195.6380  174.3070  144.3020 C   0  0  0  0  0  2  0  0  0  0  0  0
  195.3300  175.2200  143.2920 O   0  0  0  0  0  1  0  0  0  0  0  0
  189.1890  173.2540  144.0750 C   0  0  0  0  0  2  0  0  0  0  0  0
  189.5380  172.6770  142.7890 N   0  0  0  0  0  2  0  0  0  0  0  0
  188.3590  172.7850  141.9510 C   0  0  0  0  0  1  0  0  0  0  0  0
  190.6520  178.0240  143.9350 C   0  0  0  0  0  0  0  0  0  0  0  0
  191.4800  178.3440  142.8200 N   0  0  0  0  0  1  0  0  0  0  0  0
  190.8560  178.6000  145.0370 O   0  0  0  0  0  0  0  0  0  0  0  0
  189.5930  177.0640  143.8020 N   0  0  0  0  0  0  0  0  0  0  0  0
  189.3110  176.4570  142.5100 C   0  0  0  0  0  1  0  0  0  0  0  0
  182.7190  178.3060  142.1380 C   0  0  0  0  0  2  0  0  0  0  0  0
  182.1090  178.6640  140.7770 C   0  0  1  0  0  3  0  0  0  0  0  0
  182.1420  177.5710  139.9080 O   0  0  0  0  0  1  0  0  0  0  0  0
  179.8050  178.4850  140.1370 F   0  0  0  0  0  0  0  0  0  0  0  0
  180.2880  179.3100  142.1830 F   0  0  0  0  0  0  0  0  0  0  0  0
  180.6990  179.2520  140.8630 C   0  0  0  0  0  0  0  0  0  0  0  0
  180.7120  180.5330  140.3440 F   0  0  0  0  0  0  0  0  0  0  0  0
  1  5  1  0  0  0  0
  2 13  1  0  0  0  0
  2  1  2  0  0  0  0
  3  7  1  0  0  0  0
  3  4  1  0  0  0  0
  5  4  2  0  0  0  0
  6  8  2  0  0  0  0
  8 37  1  0  0  0  0
  8 12  1  0  0  0  0
  9 12  1  0  0  0  0
 10 11  1  6  0  0  0
 10  7  1  0  0  0  0
 12 11  1  0  0  0  0
 13  3  2  0  0  0  0
 14  9  1  6  0  0  0
 14 13  1  0  0  0  0
 14 10  1  0  0  0  0
 15 19  2  0  0  0  0
 15 18  1  0  0  0  0
 16 17  1  0  0  0  0
 18 16  2  0  0  0  0
 19 20  1  0  0  0  0
 20  1  1  0  0  0  0
 20 17  2  0  0  0  0
 22 18  1  0  0  0  0
 22 24  1  0  0  0  0
 23 21  1  1  0  0  0
 23 25  1  0  0  0  0
 25 24  1  0  0  0  0
 26 23  1  0  0  0  0
 26 27  1  1  0  0  0
 26 22  1  0  0  0  0
 28 27  1  0  0  0  0
 29 19  1  0  0  0  0
 30 29  1  0  0  0  0
 31 30  1  0  0  0  0
 32 34  2  0  0  0  0
 33 32  1  0  0  0  0
 35 32  1  0  0  0  0
 35  2  1  0  0  0  0
 36 35  1  0  0  0  0
 38 39  1  6  0  0  0
 38 42  1  0  0  0  0
 38 37  1  0  0  0  0
 40 42  1  0  0  0  0
 42 41  1  0  0  0  0
 43 42  1  0  0  0  0
M  END
>  <MODEL>
3

>  <REMARK>
 VINA RESULT:      -7.2      1.987      3.016
  Name = 
  9 active torsions:
  status: ('A' for Active; 'I' for Inactive)
    1  A    between atoms: N_2  and  C_23
    2  A    between atoms: C_3  and  C_42
    3  A    between atoms: C_4  and  N_40
    4  A    between atoms: C_5  and  C_43
    5  A    between atoms: N_7  and  C_35
    6  A    between atoms: C_18  and  C_27
    7  A    between atoms: C_18  and  C_31
    8  A    between atoms: C_19  and  C_31
    9  A    between atoms: C_23  and  C_36
                            x       y       z     vdW  Elec       q    Type
                         _______ _______ _______ _____ _____    ______ ____

>  <TORSDO>
F 9

$$$$
=
 OpenBabel11042419183D

 43 47  0  0  1  0  0  0  0  0999 V2000
  192.2030  176.0830  144.2140 C   0  0  0  0  0  0  0  0  0  0  0  0
  192.3440  174.9620  143.3630 C   0  0  0  0  0  0  0  0  0  0  0  0
  194.7250  175.2850  143.4180 C   0  0  0  0  0  0  0  0  0  0  0  0
  194.5950  176.3610  144.2330 N   0  0  0  0  0  0  0  0  0  0  0  0
  193.3590  176.7710  144.6310 C   0  0  0  0  0  3  0  0  0  0  0  0
  193.7650  174.0470  137.9010 O   0  0  0  0  0  0  0  0  0  0  0  0
  196.0070  174.7060  142.9690 C   0  0  0  0  0  2  0  0  0  0  0  0
  194.8500  173.8840  138.5200 C   0  0  0  0  0  0  0  0  0  0  0  0
  193.6200  173.5920  140.7080 C   0  0  0  0  0  2  0  0  0  0  0  0
  195.5870  173.4590  142.1780 C   0  0  2  0  0  3  0  0  0  0  0  0
  196.0470  173.5930  140.7380 C   0  0  0  0  0  2  0  0  0  0  0  0
  194.8430  173.6830  139.9390 N   0  0  0  0  0  0  0  0  0  0  0  0
  193.6370  174.5840  142.9730 C   0  0  0  0  0  0  0  0  0  0  0  0
  194.0410  173.4100  142.1570 C   0  0  1  0  0  3  0  0  0  0  0  0
  189.0750  176.5870  146.3130 C   0  0  0  0  0  3  0  0  0  0  0  0
  188.8920  177.8910  144.2880 C   0  0  0  0  0  3  0  0  0  0  0  0
  190.1450  177.4300  143.8800 C   0  0  0  0  0  3  0  0  0  0  0  0
  188.3450  177.4700  145.5080 C   0  0  0  0  0  0  0  0  0  0  0  0
  190.3350  176.1280  145.9170 C   0  0  0  0  0  0  0  0  0  0  0  0
  190.8780  176.5460  144.6810 C   0  0  0  0  0  0  0  0  0  0  0  0
  183.6900  178.6190  145.6530 O   0  0  0  0  0  1  0  0  0  0  0  0
  187.0560  177.9370  145.9400 N   0  0  0  0  0  0  0  0  0  0  0  0
  184.9990  178.9760  145.9870 C   0  0  1  0  0  3  0  0  0  0  0  0
  186.7730  178.0660  147.2650 O   0  0  0  0  0  0  0  0  0  0  0  0
  185.3970  178.3500  147.3090 C   0  0  0  0  0  2  0  0  0  0  0  0
  186.0360  178.4280  145.0320 C   0  0  2  0  0  3  0  0  0  0  0  0
  185.5190  177.2750  144.1690 C   0  0  0  0  0  2  0  0  0  0  0  0
  185.2960  177.7220  142.8660 O   0  0  0  0  0  1  0  0  0  0  0  0
  191.0380  175.1430  146.7950 C   0  0  0  0  0  2  0  0  0  0  0  0
  190.9400  175.5640  148.1810 N   0  0  0  0  0  2  0  0  0  0  0  0
  191.7420  176.7660  148.3090 C   0  0  0  0  0  1  0  0  0  0  0  0
  190.8390  172.9910  143.6810 C   0  0  0  0  0  0  0  0  0  0  0  0
  189.6870  172.2480  143.2970 N   0  0  0  0  0  1  0  0  0  0  0  0
  191.5370  172.5870  144.6500 O   0  0  0  0  0  0  0  0  0  0  0  0
  191.2090  174.1800  142.9670 N   0  0  0  0  0  0  0  0  0  0  0  0
  190.4470  174.6010  141.8010 C   0  0  0  0  0  1  0  0  0  0  0  0
  196.1370  173.9000  137.7500 C   0  0  0  0  0  2  0  0  0  0  0  0
  196.5980  175.3110  137.3660 C   0  0  1  0  0  3  0  0  0  0  0  0
  197.7950  175.6420  138.0040 O   0  0  0  0  0  1  0  0  0  0  0  0
  195.4490  175.4860  135.2690 F   0  0  0  0  0  0  0  0  0  0  0  0
  197.2710  176.7770  135.6040 F   0  0  0  0  0  0  0  0  0  0  0  0
  196.7000  175.5420  135.8570 C   0  0  0  0  0  0  0  0  0  0  0  0
  197.4980  174.5600  135.3030 F   0  0  0  0  0  0  0  0  0  0  0  0
  1  5  1  0  0  0  0
  1 20  1  0  0  0  0
  2  1  2  0  0  0  0
  3  4  1  0  0  0  0
  4  5  2  0  0  0  0
  6  8  2  0  0  0  0
  7  3  1  0  0  0  0
  8 12  1  0  0  0  0
 10 11  1  6  0  0  0
 10  7  1  0  0  0  0
 12  9  1  0  0  0  0
 12 11  1  0  0  0  0
 13  2  1  0  0  0  0
 13  3  2  0  0  0  0
 14  9  1  6  0  0  0
 14 10  1  0  0  0  0
 14 13  1  0  0  0  0
 16 18  1  0  0  0  0
 17 16  2  0  0  0  0
 17 20  1  0  0  0  0
 18 22  1  0  0  0  0
 18 15  2  0  0  0  0
 19 15  1  0  0  0  0
 19 29  1  0  0  0  0
 20 19  2  0  0  0  0
 22 24  1  0  0  0  0
 23 21  1  6  0  0  0
 23 25  1  0  0  0  0
 24 25  1  0  0  0  0
 26 27  1  1  0  0  0
 26 22  1  0  0  0  0
 26 23  1  0  0  0  0
 28 27  1  0  0  0  0
 29 30  1  0  0  0  0
 30 31  1  0  0  0  0
 32 34  2  0  0  0  0
 33 32  1  0  0  0  0
 35  2  1  0  0  0  0
 35 32  1  0  0  0  0
 36 35  1  0  0  0  0
 37  8  1  0  0  0  0
 38 37  1  0  0  0  0
 38 39  1  1  0  0  0
 40 42  1  0  0  0  0
 41 42  1  0  0  0  0
 42 38  1  0  0  0  0
 43 42  1  0  0  0  0
M  END
>  <MODEL>
4

>  <REMARK>
 VINA RESULT:      -6.8      5.993     10.489
  Name = 
  9 active torsions:
  status: ('A' for Active; 'I' for Inactive)
    1  A    between atoms: N_2  and  C_23
    2  A    between atoms: C_3  and  C_42
    3  A    between atoms: C_4  and  N_40
    4  A    between atoms: C_5  and  C_43
    5  A    between atoms: N_7  and  C_35
    6  A    between atoms: C_18  and  C_27
    7  A    between atoms: C_18  and  C_31
    8  A    between atoms: C_19  and  C_31
    9  A    between atoms: C_23  and  C_36
                            x       y       z     vdW  Elec       q    Type
                         _______ _______ _______ _____ _____    ______ ____

>  <TORSDO>
F 9

$$$$
=
 OpenBabel11042419183D

 43 47  0  0  1  0  0  0  0  0999 V2000
  191.7130  176.3960  144.5290 C   0  0  0  0  0  0  0  0  0  0  0  0
  192.0190  175.0740  144.1270 C   0  0  0  0  0  0  0  0  0  0  0  0
  194.3500  175.5770  144.4250 C   0  0  0  0  0  0  0  0  0  0  0  0
  194.0630  176.8460  144.8100 N   0  0  0  0  0  0  0  0  0  0  0  0
  192.7690  177.2680  144.8620 C   0  0  0  0  0  3  0  0  0  0  0  0
  194.3430  172.5560  139.5500 O   0  0  0  0  0  0  0  0  0  0  0  0
  195.7020  174.9840  144.3890 C   0  0  0  0  0  2  0  0  0  0  0  0
  195.3150  172.6850  140.3420 C   0  0  0  0  0  0  0  0  0  0  0  0
  193.7470  173.0220  142.2960 C   0  0  0  0  0  2  0  0  0  0  0  0
  195.4470  173.5200  144.0020 C   0  0  2  0  0  3  0  0  0  0  0  0
  196.1350  173.2170  142.6840 C   0  0  0  0  0  2  0  0  0  0  0  0
  195.0780  172.9530  141.7300 N   0  0  0  0  0  0  0  0  0  0  0  0
  193.3670  174.6900  144.0810 C   0  0  0  0  0  0  0  0  0  0  0  0
  193.9270  173.3510  143.7690 C   0  0  1  0  0  3  0  0  0  0  0  0
  188.2620  177.2860  145.8470 C   0  0  0  0  0  3  0  0  0  0  0  0
  188.4070  177.9030  143.5160 C   0  0  0  0  0  3  0  0  0  0  0  0
  189.7200  177.4310  143.4740 C   0  0  0  0  0  3  0  0  0  0  0  0
  187.6650  177.8320  144.7030 C   0  0  0  0  0  0  0  0  0  0  0  0
  189.5800  176.8190  145.8170 C   0  0  0  0  0  0  0  0  0  0  0  0
  190.3190  176.8830  144.6140 C   0  0  0  0  0  0  0  0  0  0  0  0
  183.1640  179.0280  143.5510 O   0  0  0  0  0  1  0  0  0  0  0  0
  186.3120  178.3140  144.7600 N   0  0  0  0  0  0  0  0  0  0  0  0
  184.3350  179.3740  144.2330 C   0  0  1  0  0  3  0  0  0  0  0  0
  185.6760  178.4540  145.9550 O   0  0  0  0  0  0  0  0  0  0  0  0
  184.3440  178.7530  145.6160 C   0  0  0  0  0  2  0  0  0  0  0  0
  185.5880  178.8090  143.6040 C   0  0  2  0  0  3  0  0  0  0  0  0
  185.3170  177.6560  142.6360 C   0  0  0  0  0  2  0  0  0  0  0  0
  185.6110  178.0540  141.3310 O   0  0  0  0  0  1  0  0  0  0  0  0
  190.1390  176.1970  147.0550 C   0  0  0  0  0  2  0  0  0  0  0  0
  190.5430  177.2350  147.9860 N   0  0  0  0  0  2  0  0  0  0  0  0
  191.8740  176.8860  148.4470 C   0  0  0  0  0  1  0  0  0  0  0  0
  190.4180  174.0030  142.5330 C   0  0  0  0  0  0  0  0  0  0  0  0
  189.4170  173.0260  142.2650 N   0  0  0  0  0  1  0  0  0  0  0  0
  190.7970  174.7680  141.6050 O   0  0  0  0  0  0  0  0  0  0  0  0
  190.9830  174.1230  143.8480 N   0  0  0  0  0  0  0  0  0  0  0  0
  190.4900  173.2920  144.9360 C   0  0  0  0  0  1  0  0  0  0  0  0
  196.7100  172.5490  139.8110 C   0  0  0  0  0  2  0  0  0  0  0  0
  197.1300  173.7100  138.9010 C   0  0  1  0  0  3  0  0  0  0  0  0
  196.2960  173.8020  137.7840 O   0  0  0  0  0  1  0  0  0  0  0  0
  195.9730  175.5610  139.8930 F   0  0  0  0  0  0  0  0  0  0  0  0
  197.9360  174.9130  140.8010 F   0  0  0  0  0  0  0  0  0  0  0  0
  197.2320  175.0570  139.6190 C   0  0  0  0  0  0  0  0  0  0  0  0
  197.9030  175.9520  138.8070 F   0  0  0  0  0  0  0  0  0  0  0  0
  1 20  1  0  0  0  0
  1  5  1  0  0  0  0
  2  1  2  0  0  0  0
  3  4  1  0  0  0  0
  4  5  2  0  0  0  0
  6  8  2  0  0  0  0
  7  3  1  0  0  0  0
  8 12  1  0  0  0  0
 10 11  1  6  0  0  0
 10  7  1  0  0  0  0
 12  9  1  0  0  0  0
 12 11  1  0  0  0  0
 13  2  1  0  0  0  0
 13  3  2  0  0  0  0
 14  9  1  6  0  0  0
 14 10  1  0  0  0  0
 14 13  1  0  0  0  0
 16 18  1  0  0  0  0
 17 16  2  0  0  0  0
 17 20  1  0  0  0  0
 18 22  1  0  0  0  0
 18 15  2  0  0  0  0
 19 15  1  0  0  0  0
 19 29  1  0  0  0  0
 20 19  2  0  0  0  0
 22 24  1  0  0  0  0
 23 21  1  6  0  0  0
 23 25  1  0  0  0  0
 25 24  1  0  0  0  0
 26 27  1  6  0  0  0
 26 23  1  0  0  0  0
 26 22  1  0  0  0  0
 28 27  1  0  0  0  0
 29 30  1  0  0  0  0
 30 31  1  0  0  0  0
 32 35  1  0  0  0  0
 33 32  1  0  0  0  0
 34 32  2  0  0  0  0
 35  2  1  0  0  0  0
 35 36  1  0  0  0  0
 37  8  1  0  0  0  0
 38 39  1  6  0  0  0
 38 42  1  0  0  0  0
 38 37  1  0  0  0  0
 42 40  1  0  0  0  0
 42 41  1  0  0  0  0
 43 42  1  0  0  0  0
M  END
>  <MODEL>
5

>  <REMARK>
 VINA RESULT:      -6.8      5.558     10.520
  Name = 
  9 active torsions:
  status: ('A' for Active; 'I' for Inactive)
    1  A    between atoms: N_2  and  C_23
    2  A    between atoms: C_3  and  C_42
    3  A    between atoms: C_4  and  N_40
    4  A    between atoms: C_5  and  C_43
    5  A    between atoms: N_7  and  C_35
    6  A    between atoms: C_18  and  C_27
    7  A    between atoms: C_18  and  C_31
    8  A    between atoms: C_19  and  C_31
    9  A    between atoms: C_23  and  C_36
                            x       y       z     vdW  Elec       q    Type
                         _______ _______ _______ _____ _____    ______ ____

>  <TORSDO>
F 9

$$$$
=
 OpenBabel11042419183D

 43 47  0  0  1  0  0  0  0  0999 V2000
  192.5350  176.0020  143.2470 C   0  0  0  0  0  0  0  0  0  0  0  0
  192.9130  175.2850  144.4070 C   0  0  0  0  0  0  0  0  0  0  0  0
  195.1970  175.3970  143.6690 C   0  0  0  0  0  0  0  0  0  0  0  0
  194.8400  176.0830  142.5540 N   0  0  0  0  0  0  0  0  0  0  0  0
  193.5320  176.3860  142.3290 C   0  0  0  0  0  3  0  0  0  0  0  0
  194.7800  170.0150  145.6070 O   0  0  0  0  0  0  0  0  0  0  0  0
  196.5830  175.0650  144.0560 C   0  0  0  0  0  2  0  0  0  0  0  0
  195.8400  170.6910  145.5140 C   0  0  0  0  0  0  0  0  0  0  0  0
  194.5540  172.8480  145.7940 C   0  0  0  0  0  2  0  0  0  0  0  0
  196.4270  174.3990  145.4310 C   0  0  2  0  0  3  0  0  0  0  0  0
  196.9390  172.9720  145.3660 C   0  0  0  0  0  2  0  0  0  0  0  0
  195.7850  172.1220  145.5680 N   0  0  0  0  0  0  0  0  0  0  0  0
  194.2720  174.9890  144.5900 C   0  0  0  0  0  0  0  0  0  0  0  0
  194.9160  174.3240  145.7510 C   0  0  1  0  0  3  0  0  0  0  0  0
  188.9240  175.8740  142.0690 C   0  0  0  0  0  3  0  0  0  0  0  0
  189.3240  177.9810  143.1810 C   0  0  0  0  0  3  0  0  0  0  0  0
  190.6480  177.6050  143.4130 C   0  0  0  0  0  3  0  0  0  0  0  0
  188.4510  177.1190  142.5030 C   0  0  0  0  0  0  0  0  0  0  0  0
  190.2470  175.4860  142.3050 C   0  0  0  0  0  0  0  0  0  0  0  0
  191.1260  176.3630  142.9790 C   0  0  0  0  0  0  0  0  0  0  0  0
  183.8640  178.3980  143.0860 O   0  0  0  0  0  1  0  0  0  0  0  0
  187.0850  177.4930  142.2570 N   0  0  0  0  0  0  0  0  0  0  0  0
  184.7870  177.6210  142.3790 C   0  0  1  0  0  3  0  0  0  0  0  0
  186.7110  177.9960  141.0500 O   0  0  0  0  0  0  0  0  0  0  0  0
  185.3830  178.4190  141.2370 C   0  0  0  0  0  2  0  0  0  0  0  0
  186.0040  177.2420  143.1930 C   0  0  2  0  0  3  0  0  0  0  0  0
  186.1950  178.1050  144.4410 C   0  0  0  0  0  2  0  0  0  0  0  0
  186.2820  177.2920  145.5710 O   0  0  0  0  0  1  0  0  0  0  0  0
  190.7050  174.1690  141.7670 C   0  0  0  0  0  2  0  0  0  0  0  0
  189.8390  173.7560  140.6760 N   0  0  0  0  0  2  0  0  0  0  0  0
  189.9220  172.3100  140.6040 C   0  0  0  0  0  1  0  0  0  0  0  0
  191.7440  175.7620  146.5640 C   0  0  0  0  0  0  0  0  0  0  0  0
  190.7580  175.4160  147.5320 N   0  0  0  0  0  1  0  0  0  0  0  0
  192.4380  176.7990  146.7360 O   0  0  0  0  0  0  0  0  0  0  0  0
  191.9520  174.9320  145.4110 N   0  0  0  0  0  0  0  0  0  0  0  0
  191.2030  173.6940  145.2530 C   0  0  0  0  0  1  0  0  0  0  0  0
  197.1470  169.9750  145.3520 C   0  0  0  0  0  2  0  0  0  0  0  0
  197.2600  169.2090  144.0280 C   0  0  1  0  0  3  0  0  0  0  0  0
  196.3150  168.1820  143.9570 O   0  0  0  0  0  1  0  0  0  0  0  0
  195.8830  170.4480  142.5060 F   0  0  0  0  0  0  0  0  0  0  0  0
  197.9400  171.2470  142.9840 F   0  0  0  0  0  0  0  0  0  0  0  0
  197.1920  170.1000  142.7860 C   0  0  0  0  0  0  0  0  0  0  0  0
  197.7110  169.4100  141.7070 F   0  0  0  0  0  0  0  0  0  0  0  0
  1  2  1  0  0  0  0
  2 13  2  0  0  0  0
  2 35  1  0  0  0  0
  3  7  1  0  0  0  0
  3 13  1  0  0  0  0
  4  3  2  0  0  0  0
  5  4  1  0  0  0  0
  5  1  2  0  0  0  0
  8 12  1  0  0  0  0
  8  6  2  0  0  0  0
 10  7  1  6  0  0  0
 10 14  1  0  0  0  0
 11 10  1  0  0  0  0
 11 12  1  0  0  0  0
 12  9  1  0  0  0  0
 13 14  1  0  0  0  0
 14  9  1  6  0  0  0
 15 19  2  0  0  0  0
 15 18  1  0  0  0  0
 16 17  1  0  0  0  0
 18 16  2  0  0  0  0
 19 20  1  0  0  0  0
 20  1  1  0  0  0  0
 20 17  2  0  0  0  0
 22 18  1  0  0  0  0
 22 26  1  0  0  0  0
 23 21  1  1  0  0  0
 23 26  1  0  0  0  0
 24 25  1  0  0  0  0
 24 22  1  0  0  0  0
 25 23  1  0  0  0  0
 26 27  1  1  0  0  0
 27 28  1  0  0  0  0
 29 19  1  0  0  0  0
 30 29  1  0  0  0  0
 31 30  1  0  0  0  0
 32 34  2  0  0  0  0
 32 33  1  0  0  0  0
 35 32  1  0  0  0  0
 36 35  1  0  0  0  0
 37  8  1  0  0  0  0
 38 39  1  6  0  0  0
 38 37  1  0  0  0  0
 40 42  1  0  0  0  0
 42 41  1  0  0  0  0
 42 38  1  0  0  0  0
 43 42  1  0  0  0  0
M  END
>  <MODEL>
6

>  <REMARK>
 VINA RESULT:      -6.7      5.838     11.482
  Name = 
  9 active torsions:
  status: ('A' for Active; 'I' for Inactive)
    1  A    between atoms: N_2  and  C_23
    2  A    between atoms: C_3  and  C_42
    3  A    between atoms: C_4  and  N_40
    4  A    between atoms: C_5  and  C_43
    5  A    between atoms: N_7  and  C_35
    6  A    between atoms: C_18  and  C_27
    7  A    between atoms: C_18  and  C_31
    8  A    between atoms: C_19  and  C_31
    9  A    between atoms: C_23  and  C_36
                            x       y       z     vdW  Elec       q    Type
                         _______ _______ _______ _____ _____    ______ ____

>  <TORSDO>
F 9

$$$$
=
 OpenBabel11042419183D

 43 47  0  0  1  0  0  0  0  0999 V2000
  190.9140  176.6910  144.2890 C   0  0  0  0  0  0  0  0  0  0  0  0
  191.2970  175.4000  144.7220 C   0  0  0  0  0  0  0  0  0  0  0  0
  193.4680  176.2790  145.2580 C   0  0  0  0  0  0  0  0  0  0  0  0
  193.1070  177.5190  144.8430 N   0  0  0  0  0  0  0  0  0  0  0  0
  191.8540  177.7390  144.3580 C   0  0  0  0  0  3  0  0  0  0  0  0
  194.7320  171.2350  142.8390 O   0  0  0  0  0  0  0  0  0  0  0  0
  194.7710  175.9290  145.8590 C   0  0  0  0  0  2  0  0  0  0  0  0
  195.4560  171.8710  143.6510 C   0  0  0  0  0  0  0  0  0  0  0  0
  193.4250  172.9450  144.7030 C   0  0  0  0  0  2  0  0  0  0  0  0
  194.6080  174.4510  146.2450 C   0  0  2  0  0  3  0  0  0  0  0  0
  195.6220  173.6140  145.4870 C   0  0  0  0  0  2  0  0  0  0  0  0
  194.8570  172.7710  144.5920 N   0  0  0  0  0  0  0  0  0  0  0  0
  192.6020  175.2220  145.2050 C   0  0  0  0  0  0  0  0  0  0  0  0
  193.2050  173.9930  145.7820 C   0  0  1  0  0  3  0  0  0  0  0  0
  187.2230  177.5740  144.0980 C   0  0  0  0  0  3  0  0  0  0  0  0
  188.0550  177.1490  141.8710 C   0  0  0  0  0  3  0  0  0  0  0  0
  189.3230  176.8900  142.3950 C   0  0  0  0  0  3  0  0  0  0  0  0
  186.9930  177.4900  142.7200 C   0  0  0  0  0  0  0  0  0  0  0  0
  188.4920  177.3250  144.6320 C   0  0  0  0  0  0  0  0  0  0  0  0
  189.5570  176.9700  143.7730 C   0  0  0  0  0  0  0  0  0  0  0  0
  182.4260  178.8840  142.2600 O   0  0  0  0  0  1  0  0  0  0  0  0
  185.6830  177.7590  142.1930 N   0  0  0  0  0  0  0  0  0  0  0  0
  183.3940  177.9180  141.9730 C   0  0  1  0  0  3  0  0  0  0  0  0
  185.4770  177.8290  140.8490 O   0  0  0  0  0  0  0  0  0  0  0  0
  184.1540  178.2890  140.7150 C   0  0  0  0  0  2  0  0  0  0  0  0
  184.4890  177.8340  143.0130 C   0  0  2  0  0  3  0  0  0  0  0  0
  184.5640  179.0640  143.9180 C   0  0  0  0  0  2  0  0  0  0  0  0
  184.0110  178.7700  145.1660 O   0  0  0  0  0  1  0  0  0  0  0  0
  188.6580  177.3760  146.1160 C   0  0  0  0  0  2  0  0  0  0  0  0
  187.4110  177.0070  146.7630 N   0  0  0  0  0  2  0  0  0  0  0  0
  186.9340  178.1920  147.4500 C   0  0  0  0  0  1  0  0  0  0  0  0
  190.1210  173.5170  143.5740 C   0  0  0  0  0  0  0  0  0  0  0  0
  189.2160  172.4180  143.6240 N   0  0  0  0  0  1  0  0  0  0  0  0
  190.7010  173.7860  142.4880 O   0  0  0  0  0  0  0  0  0  0  0  0
  190.3610  174.3140  144.7430 N   0  0  0  0  0  0  0  0  0  0  0  0
  189.6320  174.0480  145.9740 C   0  0  0  0  0  1  0  0  0  0  0  0
  196.9410  171.6650  143.6190 C   0  0  0  0  0  2  0  0  0  0  0  0
  197.4170  170.5310  144.5350 C   0  0  1  0  0  3  0  0  0  0  0  0
  197.0560  170.7710  145.8630 O   0  0  0  0  0  1  0  0  0  0  0  0
  195.6590  168.9010  144.4820 F   0  0  0  0  0  0  0  0  0  0  0  0
  197.0560  169.0290  142.7130 F   0  0  0  0  0  0  0  0  0  0  0  0
  196.9640  169.1400  144.0890 C   0  0  0  0  0  0  0  0  0  0  0  0
  197.7850  168.1900  144.6680 F   0  0  0  0  0  0  0  0  0  0  0  0
  1  5  2  0  0  0  0
  1  2  1  0  0  0  0
  2 35  1  0  0  0  0
  2 13  2  0  0  0  0
  3  7  1  0  0  0  0
  4  3  2  0  0  0  0
  5  4  1  0  0  0  0
  6  8  2  0  0  0  0
  7 10  1  0  0  0  0
  8 12  1  0  0  0  0
 10 11  1  6  0  0  0
 12  9  1  0  0  0  0
 12 11  1  0  0  0  0
 13  3  1  0  0  0  0
 13 14  1  0  0  0  0
 14  9  1  6  0  0  0
 14 10  1  0  0  0  0
 15 19  1  0  0  0  0
 16 17  2  0  0  0  0
 16 18  1  0  0  0  0
 17 20  1  0  0  0  0
 18 15  2  0  0  0  0
 19 29  1  0  0  0  0
 20  1  1  0  0  0  0
 20 19  2  0  0  0  0
 22 18  1  0  0  0  0
 22 26  1  0  0  0  0
 23 21  1  1  0  0  0
 23 26  1  0  0  0  0
 24 22  1  0  0  0  0
 25 24  1  0  0  0  0
 25 23  1  0  0  0  0
 26 27  1  1  0  0  0
 27 28  1  0  0  0  0
 29 30  1  0  0  0  0
 30 31  1  0  0  0  0
 32 33  1  0  0  0  0
 32 35  1  0  0  0  0
 34 32  2  0  0  0  0
 35 36  1  0  0  0  0
 37  8  1  0  0  0  0
 37 38  1  0  0  0  0
 38 39  1  1  0  0  0
 41 42  1  0  0  0  0
 42 40  1  0  0  0  0
 42 38  1  0  0  0  0
 42 43  1  0  0  0  0
M  END
>  <MODEL>
7

>  <REMARK>
 VINA RESULT:      -6.6      5.796     11.164
  Name = 
  9 active torsions:
  status: ('A' for Active; 'I' for Inactive)
    1  A    between atoms: N_2  and  C_23
    2  A    between atoms: C_3  and  C_42
    3  A    between atoms: C_4  and  N_40
    4  A    between atoms: C_5  and  C_43
    5  A    between atoms: N_7  and  C_35
    6  A    between atoms: C_18  and  C_27
    7  A    between atoms: C_18  and  C_31
    8  A    between atoms: C_19  and  C_31
    9  A    between atoms: C_23  and  C_36
                            x       y       z     vdW  Elec       q    Type
                         _______ _______ _______ _____ _____    ______ ____

>  <TORSDO>
F 9

$$$$
=
 OpenBabel11042419183D

 43 47  0  0  1  0  0  0  0  0999 V2000
  191.7020  174.8650  145.5460 C   0  0  0  0  0  0  0  0  0  0  0  0
  191.8640  173.9880  144.4470 C   0  0  0  0  0  0  0  0  0  0  0  0
  194.1020  173.5410  145.2000 C   0  0  0  0  0  0  0  0  0  0  0  0
  193.9520  174.3810  146.2550 N   0  0  0  0  0  0  0  0  0  0  0  0
  192.7780  175.0450  146.4380 C   0  0  0  0  0  3  0  0  0  0  0  0
  194.7680  173.9960  139.5220 O   0  0  0  0  0  0  0  0  0  0  0  0
  195.2990  172.7190  144.9300 C   0  0  0  0  0  2  0  0  0  0  0  0
  195.5240  173.3670  140.3100 C   0  0  0  0  0  0  0  0  0  0  0  0
  193.6080  172.9590  141.9070 C   0  0  0  0  0  2  0  0  0  0  0  0
  194.8980  171.8850  143.7040 C   0  0  2  0  0  3  0  0  0  0  0  0
  195.8250  172.2070  142.5470 C   0  0  0  0  0  2  0  0  0  0  0  0
  195.0040  172.8490  141.5410 N   0  0  0  0  0  0  0  0  0  0  0  0
  193.0960  173.3350  144.2970 C   0  0  0  0  0  0  0  0  0  0  0  0
  193.4760  172.3210  143.2800 C   0  0  1  0  0  3  0  0  0  0  0  0
  188.9510  177.4840  145.4420 C   0  0  0  0  0  3  0  0  0  0  0  0
  188.2650  175.6680  146.8790 C   0  0  0  0  0  3  0  0  0  0  0  0
  189.4750  175.0170  146.6300 C   0  0  0  0  0  3  0  0  0  0  0  0
  187.9950  176.9100  146.2880 C   0  0  0  0  0  0  0  0  0  0  0  0
  190.1620  176.8350  145.1790 C   0  0  0  0  0  0  0  0  0  0  0  0
  190.4350  175.5890  145.7860 C   0  0  0  0  0  0  0  0  0  0  0  0
  183.6660  178.9070  145.7500 O   0  0  0  0  0  1  0  0  0  0  0  0
  186.7530  177.5910  146.5360 N   0  0  0  0  0  0  0  0  0  0  0  0
  184.9390  178.9970  146.3220 C   0  0  1  0  0  3  0  0  0  0  0  0
  186.2690  177.7120  147.8010 O   0  0  0  0  0  0  0  0  0  0  0  0
  184.9790  178.2480  147.6400 C   0  0  0  0  0  2  0  0  0  0  0  0
  186.0130  178.3060  145.5120 C   0  0  2  0  0  3  0  0  0  0  0  0
  185.4600  177.3110  144.4900 C   0  0  0  0  0  2  0  0  0  0  0  0
  186.1340  177.4540  143.2770 O   0  0  0  0  0  1  0  0  0  0  0  0
  191.1630  177.5270  144.3120 C   0  0  0  0  0  2  0  0  0  0  0  0
  190.5100  178.5750  143.5480 N   0  0  0  0  0  2  0  0  0  0  0  0
  189.8880  177.9310  142.4070 C   0  0  0  0  0  1  0  0  0  0  0  0
  189.8530  172.6470  143.8130 C   0  0  0  0  0  0  0  0  0  0  0  0
  188.7600  172.4090  142.9310 N   0  0  0  0  0  1  0  0  0  0  0  0
  190.0010  171.9060  144.8220 O   0  0  0  0  0  0  0  0  0  0  0  0
  190.7800  173.7100  143.5510 N   0  0  0  0  0  0  0  0  0  0  0  0
  190.6520  174.5150  142.3450 C   0  0  0  0  0  1  0  0  0  0  0  0
  196.9620  173.1670  139.9360 C   0  0  0  0  0  2  0  0  0  0  0  0
  197.1560  172.1880  138.7710 C   0  0  1  0  0  3  0  0  0  0  0  0
  196.2810  171.1040  138.8720 O   0  0  0  0  0  1  0  0  0  0  0  0
  197.9410  172.2390  136.5060 F   0  0  0  0  0  0  0  0  0  0  0  0
  195.7730  172.7310  136.9000 F   0  0  0  0  0  0  0  0  0  0  0  0
  197.0620  172.8400  137.3900 C   0  0  0  0  0  0  0  0  0  0  0  0
  197.3850  174.1790  137.5000 F   0  0  0  0  0  0  0  0  0  0  0  0
  1 20  1  0  0  0  0
  1  5  1  0  0  0  0
  2  1  2  0  0  0  0
  3  4  1  0  0  0  0
  4  5  2  0  0  0  0
  6  8  2  0  0  0  0
  7  3  1  0  0  0  0
  8 12  1  0  0  0  0
 10 11  1  6  0  0  0
 10  7  1  0  0  0  0
 12  9  1  0  0  0  0
 12 11  1  0  0  0  0
 13  2  1  0  0  0  0
 13  3  2  0  0  0  0
 14  9  1  6  0  0  0
 14 10  1  0  0  0  0
 14 13  1  0  0  0  0
 15 18  1  0  0  0  0
 17 16  1  0  0  0  0
 18 22  1  0  0  0  0
 18 16  2  0  0  0  0
 19 15  2  0  0  0  0
 19 20  1  0  0  0  0
 20 17  2  0  0  0  0
 22 24  1  0  0  0  0
 23 21  1  6  0  0  0
 23 25  1  0  0  0  0
 25 24  1  0  0  0  0
 26 27  1  6  0  0  0
 26 23  1  0  0  0  0
 26 22  1  0  0  0  0
 28 27  1  0  0  0  0
 29 19  1  0  0  0  0
 30 29  1  0  0  0  0
 31 30  1  0  0  0  0
 32 34  2  0  0  0  0
 33 32  1  0  0  0  0
 35 32  1  0  0  0  0
 35  2  1  0  0  0  0
 36 35  1  0  0  0  0
 37  8  1  0  0  0  0
 38 39  1  6  0  0  0
 38 37  1  0  0  0  0
 40 42  1  0  0  0  0
 41 42  1  0  0  0  0
 42 43  1  0  0  0  0
 42 38  1  0  0  0  0
M  END
>  <MODEL>
8

>  <REMARK>
 VINA RESULT:      -6.6      5.752     10.692
  Name = 
  9 active torsions:
  status: ('A' for Active; 'I' for Inactive)
    1  A    between atoms: N_2  and  C_23
    2  A    between atoms: C_3  and  C_42
    3  A    between atoms: C_4  and  N_40
    4  A    between atoms: C_5  and  C_43
    5  A    between atoms: N_7  and  C_35
    6  A    between atoms: C_18  and  C_27
    7  A    between atoms: C_18  and  C_31
    8  A    between atoms: C_19  and  C_31
    9  A    between atoms: C_23  and  C_36
                            x       y       z     vdW  Elec       q    Type
                         _______ _______ _______ _____ _____    ______ ____

>  <TORSDO>
F 9

$$$$
=
 OpenBabel11042419183D

 43 47  0  0  1  0  0  0  0  0999 V2000
  191.6170  175.2910  145.6000 C   0  0  0  0  0  0  0  0  0  0  0  0
  191.8250  174.1010  144.8620 C   0  0  0  0  0  0  0  0  0  0  0  0
  194.1440  174.1800  145.4870 C   0  0  0  0  0  0  0  0  0  0  0  0
  193.9510  175.3210  146.1940 N   0  0  0  0  0  0  0  0  0  0  0  0
  192.7130  175.8840  146.2570 C   0  0  0  0  0  3  0  0  0  0  0  0
  194.3950  172.6450  139.9660 O   0  0  0  0  0  0  0  0  0  0  0  0
  195.4200  173.4410  145.3950 C   0  0  0  0  0  2  0  0  0  0  0  0
  195.2730  172.4170  140.8410 C   0  0  0  0  0  0  0  0  0  0  0  0
  193.5290  172.4150  142.6700 C   0  0  0  0  0  2  0  0  0  0  0  0
  195.0570  172.1880  144.5830 C   0  0  2  0  0  3  0  0  0  0  0  0
  195.8610  172.1680  143.2960 C   0  0  0  0  0  2  0  0  0  0  0  0
  194.9030  172.3230  142.2220 N   0  0  0  0  0  0  0  0  0  0  0  0
  193.1200  173.5640  144.8200 C   0  0  0  0  0  0  0  0  0  0  0  0
  193.5670  172.2980  144.1850 C   0  0  1  0  0  3  0  0  0  0  0  0
  188.6060  177.5220  144.9720 C   0  0  0  0  0  3  0  0  0  0  0  0
  188.1270  176.0410  146.8180 C   0  0  0  0  0  3  0  0  0  0  0  0
  189.3950  175.4720  146.6900 C   0  0  0  0  0  3  0  0  0  0  0  0
  187.7230  177.0730  145.9600 C   0  0  0  0  0  0  0  0  0  0  0  0
  189.8760  176.9540  144.8300 C   0  0  0  0  0  0  0  0  0  0  0  0
  190.2830  175.9200  145.7040 C   0  0  0  0  0  0  0  0  0  0  0  0
  183.4620  179.0400  144.9630 O   0  0  0  0  0  1  0  0  0  0  0  0
  186.4190  177.6670  146.0810 N   0  0  0  0  0  0  0  0  0  0  0  0
  184.5970  179.0460  145.7790 C   0  0  1  0  0  3  0  0  0  0  0  0
  185.6990  177.5300  147.2280 O   0  0  0  0  0  0  0  0  0  0  0  0
  184.4330  178.0600  146.9180 C   0  0  0  0  0  2  0  0  0  0  0  0
  185.8430  178.5480  145.0830 C   0  0  2  0  0  3  0  0  0  0  0  0
  185.5520  177.7560  143.8060 C   0  0  0  0  0  2  0  0  0  0  0  0
  186.0440  178.4460  142.6980 O   0  0  0  0  0  1  0  0  0  0  0  0
  190.7920  177.5160  143.7920 C   0  0  0  0  0  2  0  0  0  0  0  0
  190.0290  178.2960  142.8340 N   0  0  0  0  0  2  0  0  0  0  0  0
  189.2660  177.3510  142.0410 C   0  0  0  0  0  1  0  0  0  0  0  0
  190.3630  173.6910  142.8760 C   0  0  0  0  0  0  0  0  0  0  0  0
  189.3010  172.9720  142.2570 N   0  0  0  0  0  1  0  0  0  0  0  0
  190.9670  174.5820  142.2200 O   0  0  0  0  0  0  0  0  0  0  0  0
  190.7340  173.4140  144.2350 N   0  0  0  0  0  0  0  0  0  0  0  0
  189.9850  172.4400  145.0150 C   0  0  0  0  0  1  0  0  0  0  0  0
  196.7000  172.2430  140.4120 C   0  0  0  0  0  2  0  0  0  0  0  0
  197.3190  173.5190  139.8290 C   0  0  1  0  0  3  0  0  0  0  0  0
  196.7660  173.8240  138.5830 O   0  0  0  0  0  1  0  0  0  0  0  0
  197.9410  175.8000  140.2300 F   0  0  0  0  0  0  0  0  0  0  0  0
  195.9340  175.0900  140.9800 F   0  0  0  0  0  0  0  0  0  0  0  0
  197.2510  174.7270  140.7660 C   0  0  0  0  0  0  0  0  0  0  0  0
  197.8230  174.3900  141.9780 F   0  0  0  0  0  0  0  0  0  0  0  0
  1 20  1  0  0  0  0
  1  5  1  0  0  0  0
  2  1  2  0  0  0  0
  3  4  1  0  0  0  0
  4  5  2  0  0  0  0
  6  8  2  0  0  0  0
  7  3  1  0  0  0  0
  8 12  1  0  0  0  0
 10 11  1  6  0  0  0
 10  7  1  0  0  0  0
 12  9  1  0  0  0  0
 12 11  1  0  0  0  0
 13  2  1  0  0  0  0
 13  3  2  0  0  0  0
 14  9  1  6  0  0  0
 14 10  1  0  0  0  0
 14 13  1  0  0  0  0
 15 18  1  0  0  0  0
 17 16  1  0  0  0  0
 18 22  1  0  0  0  0
 18 16  2  0  0  0  0
 19 15  2  0  0  0  0
 19 20  1  0  0  0  0
 20 17  2  0  0  0  0
 22 24  1  0  0  0  0
 23 21  1  6  0  0  0
 23 25  1  0  0  0  0
 25 24  1  0  0  0  0
 26 27  1  6  0  0  0
 26 23  1  0  0  0  0
 26 22  1  0  0  0  0
 28 27  1  0  0  0  0
 29 19  1  0  0  0  0
 30 29  1  0  0  0  0
 31 30  1  0  0  0  0
 32 35  1  0  0  0  0
 33 32  1  0  0  0  0
 34 32  2  0  0  0  0
 35  2  1  0  0  0  0
 35 36  1  0  0  0  0
 37  8  1  0  0  0  0
 38 39  1  6  0  0  0
 38 37  1  0  0  0  0
 38 42  1  0  0  0  0
 40 42  1  0  0  0  0
 42 41  1  0  0  0  0
 42 43  1  0  0  0  0
M  END
>  <MODEL>
9

>  <REMARK>
 VINA RESULT:      -6.5      5.439     10.607
  Name = 
  9 active torsions:
  status: ('A' for Active; 'I' for Inactive)
    1  A    between atoms: N_2  and  C_23
    2  A    between atoms: C_3  and  C_42
    3  A    between atoms: C_4  and  N_40
    4  A    between atoms: C_5  and  C_43
    5  A    between atoms: N_7  and  C_35
    6  A    between atoms: C_18  and  C_27
    7  A    between atoms: C_18  and  C_31
    8  A    between atoms: C_19  and  C_31
    9  A    between atoms: C_23  and  C_36
                            x       y       z     vdW  Elec       q    Type
                         _______ _______ _______ _____ _____    ______ ____

>  <TORSDO>
F 9

$$$$
