=
 OpenBabel11042414413D

 28 32  0  0  1  0  0  0  0  0999 V2000
  189.6430  174.1870  142.6580 C   0  0  0  0  0  0  0  0  0  0  0  0
  187.3360  177.3330  145.9220 C   0  0  0  0  0  3  0  0  0  0  0  0
  186.6070  176.8260  139.7980 N   0  0  0  0  0  1  0  0  0  0  0  0
  186.1190  178.9550  144.3540 C   0  0  2  0  0  3  0  0  0  0  0  0
  187.3200  176.9700  143.4930 C   0  0  0  0  0  0  0  0  0  0  0  0
  185.5990  178.8480  146.7720 C   0  0  0  0  0  0  0  0  0  0  0  0
  186.9210  177.6840  144.5530 C   0  0  1  0  0  3  0  0  0  0  0  0
  185.6490  178.2410  142.0810 C   0  0  0  0  0  3  0  0  0  0  0  0
  185.2760  179.2960  145.5520 C   0  0  0  0  0  3  0  0  0  0  0  0
  188.1850  175.5070  141.2410 C   0  0  0  0  0  0  0  0  0  0  0  0
  188.2410  175.9250  143.6330 O   0  0  0  0  0  0  0  0  0  0  0  0
  185.3340  178.9650  143.1150 N   0  0  0  0  0  0  0  0  0  0  0  0
  189.5490  173.8190  140.2740 C   0  0  0  0  0  3  0  0  0  0  0  0
  187.1670  176.5710  141.0870 C   0  0  0  0  0  0  0  0  0  0  0  0
  188.6220  174.8080  140.1570 N   0  0  0  0  0  2  0  0  0  0  0  0
  184.8580  179.2310  147.8410 F   0  0  0  0  0  0  0  0  0  0  0  0
  186.7160  177.8940  146.9660 C   0  0  0  0  0  3  0  0  0  0  0  0
  186.7560  177.2700  142.1580 C   0  0  0  0  0  0  0  0  0  0  0  0
  190.0750  173.4930  141.5250 C   0  0  0  0  0  3  0  0  0  0  0  0
  188.6910  175.2090  142.5190 C   0  0  0  0  0  0  0  0  0  0  0  0
  190.2080  173.8320  144.0110 C   0  0  0  0  0  2  0  0  0  0  0  0
  191.4610  174.5280  144.3490 N   0  0  0  0  0  0  0  0  0  0  0  0
  192.0950  175.5550  146.4450 C   0  0  1  0  0  3  0  0  0  0  0  0
  192.3710  173.6280  145.0520 C   0  0  0  0  0  2  0  0  0  0  0  0
  191.5130  176.9580  144.4810 C   0  0  0  0  0  1  0  0  0  0  0  0
  191.2030  175.6730  145.2230 C   0  0  1  0  0  3  0  0  0  0  0  0
  191.2840  175.2070  147.5990 N   0  0  0  0  0  1  0  0  0  0  0  0
  193.0480  174.4270  146.1390 C   0  0  0  0  0  2  0  0  0  0  0  0
  1 21  1  0  0  0  0
  2 17  2  0  0  0  0
  3 14  1  0  0  0  0
  4  7  1  0  0  0  0
  4  9  1  1  0  0  0
  5 11  1  0  0  0  0
  5  7  1  0  0  0  0
  6 17  1  0  0  0  0
  6 16  1  0  0  0  0
  7  2  1  6  0  0  0
  8 18  1  0  0  0  0
  8 12  2  0  0  0  0
  9  6  2  0  0  0  0
 10 20  1  0  0  0  0
 12  4  1  0  0  0  0
 13 19  2  0  0  0  0
 14 10  2  0  0  0  0
 14 18  1  0  0  0  0
 15 13  1  0  0  0  0
 15 10  1  0  0  0  0
 18  5  2  0  0  0  0
 19  1  1  0  0  0  0
 20  1  2  0  0  0  0
 20 11  1  0  0  0  0
 21 22  1  0  0  0  0
 22 24  1  0  0  0  0
 22 26  1  0  0  0  0
 23 27  1  1  0  0  0
 24 28  1  0  0  0  0
 26 25  1  6  0  0  0
 26 23  1  0  0  0  0
 28 23  1  0  0  0  0
M  END
>  <MODEL>
1

>  <REMARK>
 VINA RESULT:      -8.1      0.000      0.000
  Name = 
  2 active torsions:
  status: ('A' for Active; 'I' for Inactive)
    1  A    between atoms: C_1  and  C_2
    2  A    between atoms: C_2  and  N_3
                            x       y       z     vdW  Elec       q    Type
                         _______ _______ _______ _____ _____    ______ ____

>  <TORSDO>
F 2

$$$$
=
 OpenBabel11042414413D

 28 32  0  0  1  0  0  0  0  0999 V2000
  186.5700  178.0210  142.8100 C   0  0  0  0  0  0  0  0  0  0  0  0
  190.2190  175.4850  145.2830 C   0  0  0  0  0  3  0  0  0  0  0  0
  188.2200  174.7850  139.4690 N   0  0  0  0  0  1  0  0  0  0  0  0
  190.7300  173.5530  143.6770 C   0  0  2  0  0  3  0  0  0  0  0  0
  189.1720  175.3750  143.0640 C   0  0  0  0  0  0  0  0  0  0  0  0
  192.2310  174.1040  145.5670 C   0  0  0  0  0  0  0  0  0  0  0  0
  190.0240  174.8640  143.9610 C   0  0  1  0  0  3  0  0  0  0  0  0
  190.1400  173.8030  141.3340 C   0  0  0  0  0  3  0  0  0  0  0  0
  192.0220  173.4200  144.4340 C   0  0  0  0  0  3  0  0  0  0  0  0
  187.3460  176.4070  141.1760 C   0  0  0  0  0  0  0  0  0  0  0  0
  188.3460  176.4570  143.3900 O   0  0  0  0  0  0  0  0  0  0  0  0
  190.9070  173.2800  142.2460 N   0  0  0  0  0  0  0  0  0  0  0  0
  185.6110  177.9230  140.5950 C   0  0  0  0  0  3  0  0  0  0  0  0
  188.2550  175.3000  140.8000 C   0  0  0  0  0  0  0  0  0  0  0  0
  186.4500  176.9000  140.2780 N   0  0  0  0  0  2  0  0  0  0  0  0
  193.3790  173.9090  146.2620 F   0  0  0  0  0  0  0  0  0  0  0  0
  191.2560  175.1130  146.0410 C   0  0  0  0  0  3  0  0  0  0  0  0
  189.1230  174.8070  141.6980 C   0  0  0  0  0  0  0  0  0  0  0  0
  185.6560  178.4990  141.8660 C   0  0  0  0  0  3  0  0  0  0  0  0
  187.4230  176.9610  142.4670 C   0  0  0  0  0  0  0  0  0  0  0  0
  186.6220  178.6470  144.1810 C   0  0  0  0  0  2  0  0  0  0  0  0
  185.9140  177.8870  145.2250 N   0  0  0  0  0  0  0  0  0  0  0  0
  185.7440  178.3720  147.5880 C   0  0  1  0  0  3  0  0  0  0  0  0
  184.6040  178.4760  145.4850 C   0  0  0  0  0  2  0  0  0  0  0  0
  187.1640  176.5000  146.7870 C   0  0  0  0  0  1  0  0  0  0  0  0
  186.6660  177.8980  146.4800 C   0  0  1  0  0  3  0  0  0  0  0  0
  186.1330  179.7120  147.9960 N   0  0  0  0  0  1  0  0  0  0  0  0
  184.3670  178.4110  146.9750 C   0  0  0  0  0  2  0  0  0  0  0  0
  1 21  1  0  0  0  0
  2 17  2  0  0  0  0
  3 14  1  0  0  0  0
  4  7  1  0  0  0  0
  4  9  1  1  0  0  0
  5 11  1  0  0  0  0
  5  7  1  0  0  0  0
  6 17  1  0  0  0  0
  6 16  1  0  0  0  0
  7  2  1  1  0  0  0
  8 18  1  0  0  0  0
  8 12  2  0  0  0  0
  9  6  2  0  0  0  0
 10 20  1  0  0  0  0
 12  4  1  0  0  0  0
 13 19  2  0  0  0  0
 14 10  2  0  0  0  0
 14 18  1  0  0  0  0
 15 13  1  0  0  0  0
 15 10  1  0  0  0  0
 18  5  2  0  0  0  0
 19  1  1  0  0  0  0
 20  1  2  0  0  0  0
 20 11  1  0  0  0  0
 21 22  1  0  0  0  0
 22 24  1  0  0  0  0
 22 26  1  0  0  0  0
 23 27  1  6  0  0  0
 24 28  1  0  0  0  0
 26 25  1  1  0  0  0
 26 23  1  0  0  0  0
 28 23  1  0  0  0  0
M  END
>  <MODEL>
2

>  <REMARK>
 VINA RESULT:      -7.8      2.455      6.021
  Name = 
  2 active torsions:
  status: ('A' for Active; 'I' for Inactive)
    1  A    between atoms: C_1  and  C_2
    2  A    between atoms: C_2  and  N_3
                            x       y       z     vdW  Elec       q    Type
                         _______ _______ _______ _____ _____    ______ ____

>  <TORSDO>
F 2

$$$$
=
 OpenBabel11042414413D

 28 32  0  0  1  0  0  0  0  0999 V2000
  190.6760  176.5520  144.7100 C   0  0  0  0  0  0  0  0  0  0  0  0
  186.6460  177.3630  141.7160 C   0  0  0  0  0  3  0  0  0  0  0  0
  187.1550  178.0040  147.8490 N   0  0  0  0  0  1  0  0  0  0  0  0
  184.7540  177.6800  143.4160 C   0  0  2  0  0  3  0  0  0  0  0  0
  187.1130  177.4430  144.1260 C   0  0  0  0  0  0  0  0  0  0  0  0
  184.4750  178.2870  141.0320 C   0  0  0  0  0  0  0  0  0  0  0  0
  186.2330  177.5280  143.1210 C   0  0  1  0  0  3  0  0  0  0  0  0
  185.3270  178.3290  145.6860 C   0  0  0  0  0  3  0  0  0  0  0  0
  184.0070  178.3330  142.2860 C   0  0  0  0  0  3  0  0  0  0  0  0
  188.9410  177.2250  146.2640 C   0  0  0  0  0  0  0  0  0  0  0  0
  188.4440  177.0830  143.8900 O   0  0  0  0  0  0  0  0  0  0  0  0
  184.4770  178.3330  144.7010 N   0  0  0  0  0  0  0  0  0  0  0  0
  191.1110  176.7070  147.0810 C   0  0  0  0  0  3  0  0  0  0  0  0
  187.5500  177.6640  146.5200 C   0  0  0  0  0  0  0  0  0  0  0  0
  189.8260  177.0980  147.2910 N   0  0  0  0  0  0  0  0  0  0  0  0
  183.7420  178.8250  140.0260 F   0  0  0  0  0  0  0  0  0  0  0  0
  185.8070  177.7120  140.7350 C   0  0  0  0  0  3  0  0  0  0  0  0
  186.6780  177.7670  145.5040 C   0  0  0  0  0  0  0  0  0  0  0  0
  191.5570  176.4260  145.7880 C   0  0  0  0  0  3  0  0  0  0  0  0
  189.3520  176.9510  144.9470 C   0  0  1  0  0  3  0  0  0  0  0  0
  191.1600  176.2530  143.3130 C   0  0  0  0  0  2  0  0  0  0  0  0
  191.3690  174.8230  143.0340 N   0  0  0  0  0  0  0  0  0  0  0  0
  190.1600  173.3960  141.5000 C   0  0  1  0  0  3  0  0  0  0  0  0
  192.1730  174.6500  141.8280 C   0  0  0  0  0  2  0  0  0  0  0  0
  189.8420  173.1630  143.9510 C   0  0  0  0  0  1  0  0  0  0  0  0
  190.0920  174.1410  142.8200 C   0  0  1  0  0  3  0  0  0  0  0  0
  189.3210  174.0700  140.5240 N   0  0  0  0  0  1  0  0  0  0  0  0
  191.6020  173.4770  141.0680 C   0  0  0  0  0  2  0  0  0  0  0  0
  1 20  1  0  0  0  0
  1 19  2  0  0  0  0
  4  9  1  6  0  0  0
  4 12  1  0  0  0  0
  5 18  2  0  0  0  0
  6  9  2  0  0  0  0
  7  2  1  1  0  0  0
  7  4  1  0  0  0  0
  7  5  1  0  0  0  0
 10 14  2  0  0  0  0
 10 15  1  0  0  0  0
 11  5  1  0  0  0  0
 12  8  2  0  0  0  0
 13 15  2  0  0  0  0
 14  3  1  0  0  0  0
 16  6  1  0  0  0  0
 17  6  1  0  0  0  0
 17  2  2  0  0  0  0
 18  8  1  0  0  0  0
 18 14  1  0  0  0  0
 19 13  1  0  0  0  0
 20 11  1  6  0  0  0
 20 10  1  0  0  0  0
 21  1  1  0  0  0  0
 22 21  1  0  0  0  0
 23 27  1  6  0  0  0
 23 26  1  0  0  0  0
 24 22  1  0  0  0  0
 26 22  1  0  0  0  0
 26 25  1  1  0  0  0
 28 23  1  0  0  0  0
 28 24  1  0  0  0  0
M  END
>  <MODEL>
3

>  <REMARK>
 VINA RESULT:      -7.5      2.228      4.853
  Name = 
  2 active torsions:
  status: ('A' for Active; 'I' for Inactive)
    1  A    between atoms: C_1  and  C_2
    2  A    between atoms: C_2  and  N_3
                            x       y       z     vdW  Elec       q    Type
                         _______ _______ _______ _____ _____    ______ ____

>  <TORSDO>
F 2

$$$$
=
 OpenBabel11042414413D

 28 32  0  0  1  0  0  0  0  0999 V2000
  191.1670  174.2850  142.9020 C   0  0  0  0  0  0  0  0  0  0  0  0
  186.6150  176.5520  142.8360 C   0  0  0  0  0  3  0  0  0  0  0  0
  190.4560  175.6270  147.5980 N   0  0  0  0  0  1  0  0  0  0  0  0
  186.1030  176.8290  145.3330 C   0  0  2  0  0  3  0  0  0  0  0  0
  188.2850  175.9730  144.5400 C   0  0  0  0  0  0  0  0  0  0  0  0
  184.7980  178.0190  143.5980 C   0  0  0  0  0  0  0  0  0  0  0  0
  187.0790  176.4620  144.2310 C   0  0  1  0  0  3  0  0  0  0  0  0
  187.9520  176.8030  146.9070 C   0  0  0  0  0  3  0  0  0  0  0  0
  185.1030  177.8610  144.8930 C   0  0  0  0  0  3  0  0  0  0  0  0
  190.8070  174.9040  145.2180 C   0  0  0  0  0  0  0  0  0  0  0  0
  189.1140  175.4220  143.5550 O   0  0  0  0  0  0  0  0  0  0  0  0
  186.7560  177.2040  146.5920 N   0  0  0  0  0  0  0  0  0  0  0  0
  192.8140  173.7920  144.5980 C   0  0  0  0  0  3  0  0  0  0  0  0
  189.9670  175.5360  146.2600 C   0  0  0  0  0  0  0  0  0  0  0  0
  192.0180  174.3690  145.5380 N   0  0  0  0  0  0  0  0  0  0  0  0
  183.8410  178.9110  143.2420 F   0  0  0  0  0  0  0  0  0  0  0  0
  185.5310  177.2790  142.5450 C   0  0  0  0  0  3  0  0  0  0  0  0
  188.7650  176.0440  145.9390 C   0  0  0  0  0  0  0  0  0  0  0  0
  192.4010  173.7390  143.2650 C   0  0  0  0  0  3  0  0  0  0  0  0
  190.3560  174.8700  143.8860 C   0  0  1  0  0  3  0  0  0  0  0  0
  190.7240  174.2320  141.4610 C   0  0  0  0  0  2  0  0  0  0  0  0
  189.9660  173.0220  141.1010 N   0  0  0  0  0  0  0  0  0  0  0  0
  188.2640  172.7600  139.4030 C   0  0  1  0  0  3  0  0  0  0  0  0
  190.5650  172.3720  139.9380 C   0  0  0  0  0  2  0  0  0  0  0  0
  187.6500  172.7730  141.8090 C   0  0  0  0  0  1  0  0  0  0  0  0
  188.5820  173.3530  140.7630 C   0  0  1  0  0  3  0  0  0  0  0  0
  188.1670  173.8290  138.4230 N   0  0  0  0  0  1  0  0  0  0  0  0
  189.4370  171.8740  139.0680 C   0  0  0  0  0  2  0  0  0  0  0  0
  1 19  2  0  0  0  0
  4  9  1  6  0  0  0
  4 12  1  0  0  0  0
  5 18  2  0  0  0  0
  6  9  2  0  0  0  0
  7  2  1  6  0  0  0
  7  5  1  0  0  0  0
  7  4  1  0  0  0  0
 10 15  1  0  0  0  0
 10 14  2  0  0  0  0
 11 20  1  0  0  0  0
 11  5  1  0  0  0  0
 12  8  2  0  0  0  0
 13 15  2  0  0  0  0
 14  3  1  0  0  0  0
 16  6  1  0  0  0  0
 17  2  2  0  0  0  0
 17  6  1  0  0  0  0
 18 14  1  0  0  0  0
 18  8  1  0  0  0  0
 19 13  1  0  0  0  0
 20  1  1  6  0  0  0
 20 10  1  0  0  0  0
 21  1  1  0  0  0  0
 22 21  1  0  0  0  0
 23 27  1  6  0  0  0
 23 26  1  0  0  0  0
 24 22  1  0  0  0  0
 26 22  1  0  0  0  0
 26 25  1  1  0  0  0
 28 23  1  0  0  0  0
 28 24  1  0  0  0  0
M  END
>  <MODEL>
4

>  <REMARK>
 VINA RESULT:      -7.5      1.993      5.108
  Name = 
  2 active torsions:
  status: ('A' for Active; 'I' for Inactive)
    1  A    between atoms: C_1  and  C_2
    2  A    between atoms: C_2  and  N_3
                            x       y       z     vdW  Elec       q    Type
                         _______ _______ _______ _____ _____    ______ ____

>  <TORSDO>
F 2

$$$$
=
 OpenBabel11042414413D

 28 32  0  0  1  0  0  0  0  0999 V2000
  189.9700  175.0400  145.0470 C   0  0  0  0  0  0  0  0  0  0  0  0
  186.7650  176.9680  141.6000 C   0  0  0  0  0  3  0  0  0  0  0  0
  186.3500  176.9940  147.7740 N   0  0  0  0  0  1  0  0  0  0  0  0
  184.7210  177.5670  143.0260 C   0  0  2  0  0  3  0  0  0  0  0  0
  186.8230  176.7520  144.0460 C   0  0  0  0  0  0  0  0  0  0  0  0
  184.9840  178.4070  140.7120 C   0  0  0  0  0  0  0  0  0  0  0  0
  186.1640  177.1110  142.9380 C   0  0  1  0  0  3  0  0  0  0  0  0
  185.0240  177.8900  145.4140 C   0  0  0  0  0  3  0  0  0  0  0  0
  184.3290  178.4570  141.8800 C   0  0  0  0  0  3  0  0  0  0  0  0
  188.1760  175.9610  146.3920 C   0  0  0  0  0  0  0  0  0  0  0  0
  188.0700  176.1210  143.9710 O   0  0  0  0  0  0  0  0  0  0  0  0
  184.3730  178.1620  144.3210 N   0  0  0  0  0  0  0  0  0  0  0  0
  190.0200  174.9060  147.4570 C   0  0  0  0  0  3  0  0  0  0  0  0
  186.8850  176.6790  146.4880 C   0  0  0  0  0  0  0  0  0  0  0  0
  188.8280  175.5580  147.5180 N   0  0  0  0  0  0  0  0  0  0  0  0
  184.5600  179.1720  139.6760 F   0  0  0  0  0  0  0  0  0  0  0  0
  186.1970  177.5730  140.5520 C   0  0  0  0  0  3  0  0  0  0  0  0
  186.2390  177.0550  145.3720 C   0  0  0  0  0  0  0  0  0  0  0  0
  190.6100  174.6350  146.2220 C   0  0  0  0  0  3  0  0  0  0  0  0
  188.7380  175.7060  145.1280 C   0  0  1  0  0  3  0  0  0  0  0  0
  190.6110  174.7510  143.7120 C   0  0  0  0  0  2  0  0  0  0  0  0
  191.6150  175.7420  143.2910 N   0  0  0  0  0  0  0  0  0  0  0  0
  193.1550  177.0030  144.6650 C   0  0  1  0  0  3  0  0  0  0  0  0
  192.9340  175.1240  143.1980 C   0  0  0  0  0  2  0  0  0  0  0  0
  191.2000  178.1190  143.6190 C   0  0  0  0  0  1  0  0  0  0  0  0
  191.7030  176.8390  144.2560 C   0  0  1  0  0  3  0  0  0  0  0  0
  193.3250  176.5350  146.0300 N   0  0  0  0  0  1  0  0  0  0  0  0
  193.9380  176.1190  143.7280 C   0  0  0  0  0  2  0  0  0  0  0  0
  1 20  1  0  0  0  0
  1 19  2  0  0  0  0
  4  9  1  6  0  0  0
  4 12  1  0  0  0  0
  5 18  2  0  0  0  0
  6  9  2  0  0  0  0
  7  2  1  6  0  0  0
  7  4  1  0  0  0  0
  7  5  1  0  0  0  0
 10 14  2  0  0  0  0
 10 15  1  0  0  0  0
 11  5  1  0  0  0  0
 12  8  2  0  0  0  0
 13 15  2  0  0  0  0
 14  3  1  0  0  0  0
 16  6  1  0  0  0  0
 17  6  1  0  0  0  0
 17  2  2  0  0  0  0
 18  8  1  0  0  0  0
 18 14  1  0  0  0  0
 19 13  1  0  0  0  0
 20 11  1  1  0  0  0
 20 10  1  0  0  0  0
 21  1  1  0  0  0  0
 22 21  1  0  0  0  0
 22 26  1  0  0  0  0
 23 27  1  1  0  0  0
 24 22  1  0  0  0  0
 24 28  1  0  0  0  0
 26 25  1  6  0  0  0
 26 23  1  0  0  0  0
 28 23  1  0  0  0  0
M  END
>  <MODEL>
5

>  <REMARK>
 VINA RESULT:      -7.5      2.616      4.303
  Name = 
  2 active torsions:
  status: ('A' for Active; 'I' for Inactive)
    1  A    between atoms: C_1  and  C_2
    2  A    between atoms: C_2  and  N_3
                            x       y       z     vdW  Elec       q    Type
                         _______ _______ _______ _____ _____    ______ ____

>  <TORSDO>
F 2

$$$$
=
 OpenBabel11042414413D

 28 32  0  0  1  0  0  0  0  0999 V2000
  189.8210  173.2800  144.1190 C   0  0  0  0  0  0  0  0  0  0  0  0
  187.2180  177.6190  144.6300 C   0  0  0  0  0  3  0  0  0  0  0  0
  188.4480  174.3750  139.5060 N   0  0  0  0  0  1  0  0  0  0  0  0
  186.9140  178.3660  142.1960 C   0  0  2  0  0  3  0  0  0  0  0  0
  187.9280  176.1830  142.7680 C   0  0  0  0  0  0  0  0  0  0  0  0
  185.6210  179.3910  144.0430 C   0  0  0  0  0  0  0  0  0  0  0  0
  187.3480  177.3110  143.1950 C   0  0  1  0  0  3  0  0  0  0  0  0
  187.0850  176.6990  140.4390 C   0  0  0  0  0  3  0  0  0  0  0  0
  185.8070  179.2360  142.7250 C   0  0  0  0  0  3  0  0  0  0  0  0
  189.1860  173.8320  141.8450 C   0  0  0  0  0  0  0  0  0  0  0  0
  188.5350  175.3000  143.6680 O   0  0  0  0  0  0  0  0  0  0  0  0
  186.5930  177.8230  140.8720 N   0  0  0  0  0  0  0  0  0  0  0  0
  190.4430  171.8600  142.2670 C   0  0  0  0  0  3  0  0  0  0  0  0
  188.4960  174.7280  140.8890 C   0  0  0  0  0  0  0  0  0  0  0  0
  189.8110  172.7040  141.4080 N   0  0  0  0  0  2  0  0  0  0  0  0
  184.6590  180.2380  144.4860 F   0  0  0  0  0  0  0  0  0  0  0  0
  186.4110  178.6100  145.0230 C   0  0  0  0  0  3  0  0  0  0  0  0
  187.8990  175.8480  141.3270 C   0  0  0  0  0  0  0  0  0  0  0  0
  190.4590  172.1340  143.6360 C   0  0  0  0  0  3  0  0  0  0  0  0
  189.1800  174.1430  143.2170 C   0  0  0  0  0  0  0  0  0  0  0  0
  189.8350  173.5730  145.5980 C   0  0  0  0  0  2  0  0  0  0  0  0
  190.9450  174.4340  146.0380 N   0  0  0  0  0  0  0  0  0  0  0  0
  192.3260  175.9070  144.7070 C   0  0  1  0  0  3  0  0  0  0  0  0
  190.4820  175.8050  146.2300 C   0  0  0  0  0  2  0  0  0  0  0  0
  193.2480  173.7810  145.5970 C   0  0  0  0  0  1  0  0  0  0  0  0
  192.0130  174.4600  145.0390 C   0  0  1  0  0  3  0  0  0  0  0  0
  191.8380  176.2110  143.3730 N   0  0  0  0  0  1  0  0  0  0  0  0
  191.5650  176.7240  145.7210 C   0  0  0  0  0  2  0  0  0  0  0  0
  1 21  1  0  0  0  0
  2 17  2  0  0  0  0
  3 14  1  0  0  0  0
  4  9  1  1  0  0  0
  4  7  1  0  0  0  0
  5  7  1  0  0  0  0
  5 11  1  0  0  0  0
  6 16  1  0  0  0  0
  6 17  1  0  0  0  0
  7  2  1  1  0  0  0
  8 12  2  0  0  0  0
  8 18  1  0  0  0  0
  9  6  2  0  0  0  0
 10 20  1  0  0  0  0
 12  4  1  0  0  0  0
 13 19  2  0  0  0  0
 14 18  1  0  0  0  0
 14 10  2  0  0  0  0
 15 10  1  0  0  0  0
 15 13  1  0  0  0  0
 18  5  2  0  0  0  0
 19  1  1  0  0  0  0
 20 11  1  0  0  0  0
 20  1  2  0  0  0  0
 21 22  1  0  0  0  0
 22 24  1  0  0  0  0
 23 27  1  6  0  0  0
 23 26  1  0  0  0  0
 23 28  1  0  0  0  0
 26 25  1  1  0  0  0
 26 22  1  0  0  0  0
 28 24  1  0  0  0  0
M  END
>  <MODEL>
6

>  <REMARK>
 VINA RESULT:      -7.3      1.447      2.476
  Name = 
  2 active torsions:
  status: ('A' for Active; 'I' for Inactive)
    1  A    between atoms: C_1  and  C_2
    2  A    between atoms: C_2  and  N_3
                            x       y       z     vdW  Elec       q    Type
                         _______ _______ _______ _____ _____    ______ ____

>  <TORSDO>
F 2

$$$$
=
 OpenBabel11042414413D

 28 32  0  0  1  0  0  0  0  0999 V2000
  186.8270  177.9170  145.3450 C   0  0  0  0  0  0  0  0  0  0  0  0
  189.4040  174.0040  143.3670 C   0  0  0  0  0  3  0  0  0  0  0  0
  185.8140  178.1630  140.5210 N   0  0  0  0  0  1  0  0  0  0  0  0
  188.5050  173.9110  140.9680 C   0  0  2  0  0  3  0  0  0  0  0  0
  187.8670  175.7250  142.5260 C   0  0  0  0  0  0  0  0  0  0  0  0
  190.5400  172.6740  141.6430 C   0  0  0  0  0  0  0  0  0  0  0  0
  188.5940  174.6230  142.3040 C   0  0  1  0  0  3  0  0  0  0  0  0
  187.4860  175.9070  140.0310 C   0  0  0  0  0  3  0  0  0  0  0  0
  189.7400  173.1100  140.6620 C   0  0  0  0  0  3  0  0  0  0  0  0
  186.2910  178.0210  142.9830 C   0  0  0  0  0  0  0  0  0  0  0  0
  187.7590  176.2710  143.8100 O   0  0  0  0  0  0  0  0  0  0  0  0
  188.1390  174.7950  139.8560 N   0  0  0  0  0  0  0  0  0  0  0  0
  185.3710  179.6320  144.4670 C   0  0  0  0  0  3  0  0  0  0  0  0
  186.4440  177.4880  141.6100 C   0  0  0  0  0  0  0  0  0  0  0  0
  185.5190  179.1170  143.2170 N   0  0  0  0  0  2  0  0  0  0  0  0
  191.6070  171.8940  141.3370 F   0  0  0  0  0  0  0  0  0  0  0  0
  190.3130  173.0760  143.0500 C   0  0  0  0  0  3  0  0  0  0  0  0
  187.1920  176.3940  141.3910 C   0  0  0  0  0  0  0  0  0  0  0  0
  186.0210  179.0410  145.5510 C   0  0  0  0  0  3  0  0  0  0  0  0
  186.9630  177.3960  144.0500 C   0  0  0  0  0  0  0  0  0  0  0  0
  187.5330  177.2810  146.5160 C   0  0  0  0  0  2  0  0  0  0  0  0
  188.7260  176.4970  146.1560 N   0  0  0  0  0  0  0  0  0  0  0  0
  190.9220  176.5450  147.1680 C   0  0  1  0  0  3  0  0  0  0  0  0
  188.8590  175.3380  147.0340 C   0  0  0  0  0  2  0  0  0  0  0  0
  190.5490  177.5400  144.9240 C   0  0  0  0  0  1  0  0  0  0  0  0
  189.9410  177.3010  146.2920 C   0  0  1  0  0  3  0  0  0  0  0  0
  191.0180  177.2010  148.4610 N   0  0  0  0  0  1  0  0  0  0  0  0
  190.3270  175.1700  147.3420 C   0  0  0  0  0  2  0  0  0  0  0  0
  1 19  1  0  0  0  0
  1 21  1  0  0  0  0
  3 14  1  0  0  0  0
  4  9  1  6  0  0  0
  4  7  1  0  0  0  0
  5 11  1  0  0  0  0
  6 17  1  0  0  0  0
  7  5  1  0  0  0  0
  7  2  1  1  0  0  0
  8 18  1  0  0  0  0
  9  6  2  0  0  0  0
 10 15  1  0  0  0  0
 10 20  1  0  0  0  0
 11 20  1  0  0  0  0
 12  8  2  0  0  0  0
 12  4  1  0  0  0  0
 13 19  2  0  0  0  0
 14 10  2  0  0  0  0
 15 13  1  0  0  0  0
 16  6  1  0  0  0  0
 17  2  2  0  0  0  0
 18 14  1  0  0  0  0
 18  5  2  0  0  0  0
 20  1  2  0  0  0  0
 22 26  1  0  0  0  0
 22 21  1  0  0  0  0
 22 24  1  0  0  0  0
 23 28  1  0  0  0  0
 23 27  1  1  0  0  0
 24 28  1  0  0  0  0
 26 25  1  6  0  0  0
 26 23  1  0  0  0  0
M  END
>  <MODEL>
7

>  <REMARK>
 VINA RESULT:      -7.3      2.702      5.375
  Name = 
  2 active torsions:
  status: ('A' for Active; 'I' for Inactive)
    1  A    between atoms: C_1  and  C_2
    2  A    between atoms: C_2  and  N_3
                            x       y       z     vdW  Elec       q    Type
                         _______ _______ _______ _____ _____    ______ ____

>  <TORSDO>
F 2

$$$$
=
 OpenBabel11042414413D

 28 32  0  0  1  0  0  0  0  0999 V2000
  188.7290  176.6420  145.6720 C   0  0  0  0  0  0  0  0  0  0  0  0
  188.6580  174.0640  141.2890 C   0  0  0  0  0  3  0  0  0  0  0  0
  193.1970  174.5560  145.4660 N   0  0  0  0  0  1  0  0  0  0  0  0
  191.1120  173.3740  141.0180 C   0  0  2  0  0  3  0  0  0  0  0  0
  190.2990  174.5070  143.0620 C   0  0  0  0  0  0  0  0  0  0  0  0
  189.3180  172.3610  139.6460 C   0  0  0  0  0  0  0  0  0  0  0  0
  190.0110  173.9780  141.8670 C   0  0  1  0  0  3  0  0  0  0  0  0
  192.5250  173.3060  142.9930 C   0  0  0  0  0  3  0  0  0  0  0  0
  190.5940  172.3450  140.0530 C   0  0  0  0  0  3  0  0  0  0  0  0
  190.9400  175.6550  145.5590 C   0  0  0  0  0  0  0  0  0  0  0  0
  189.3520  175.2630  143.7630 O   0  0  0  0  0  0  0  0  0  0  0  0
  192.2430  172.8640  141.8020 N   0  0  0  0  0  0  0  0  0  0  0  0
  190.3500  177.0000  147.4260 C   0  0  0  0  0  3  0  0  0  0  0  0
  191.9310  174.8090  144.8560 C   0  0  0  0  0  0  0  0  0  0  0  0
  191.2460  176.2280  146.7560 N   0  0  0  0  0  0  0  0  0  0  0  0
  188.9000  171.4610  138.7210 F   0  0  0  0  0  0  0  0  0  0  0  0
  188.3410  173.3070  140.2340 C   0  0  0  0  0  3  0  0  0  0  0  0
  191.6280  174.2630  143.6660 C   0  0  0  0  0  0  0  0  0  0  0  0
  189.0780  177.2210  146.8960 C   0  0  0  0  0  3  0  0  0  0  0  0
  189.6680  175.8540  144.9910 C   0  0  1  0  0  3  0  0  0  0  0  0
  187.3530  176.8780  145.1020 C   0  0  0  0  0  2  0  0  0  0  0  0
  187.2260  178.1110  144.3070 N   0  0  0  0  0  0  0  0  0  0  0  0
  185.6310  178.6200  142.5610 C   0  0  1  0  0  3  0  0  0  0  0  0
  186.1860  178.9710  144.8640 C   0  0  0  0  0  2  0  0  0  0  0  0
  188.0070  178.1660  142.0020 C   0  0  0  0  0  1  0  0  0  0  0  0
  186.8590  177.8050  142.9240 C   0  0  1  0  0  3  0  0  0  0  0  0
  184.4800  177.7380  142.4690 N   0  0  0  0  0  1  0  0  0  0  0  0
  185.4370  179.5840  143.7050 C   0  0  0  0  0  2  0  0  0  0  0  0
  1 19  2  0  0  0  0
  4  9  1  1  0  0  0
  4 12  1  0  0  0  0
  4  7  1  0  0  0  0
  5 18  2  0  0  0  0
  5 11  1  0  0  0  0
  6  9  2  0  0  0  0
  6 17  1  0  0  0  0
  7  2  1  6  0  0  0
  7  5  1  0  0  0  0
  8 18  1  0  0  0  0
 10 15  1  0  0  0  0
 12  8  2  0  0  0  0
 14  3  1  0  0  0  0
 14 10  2  0  0  0  0
 15 13  2  0  0  0  0
 16  6  1  0  0  0  0
 17  2  2  0  0  0  0
 18 14  1  0  0  0  0
 19 13  1  0  0  0  0
 20 11  1  1  0  0  0
 20 10  1  0  0  0  0
 20  1  1  0  0  0  0
 21  1  1  0  0  0  0
 22 24  1  0  0  0  0
 22 21  1  0  0  0  0
 23 27  1  1  0  0  0
 23 26  1  0  0  0  0
 23 28  1  0  0  0  0
 26 25  1  6  0  0  0
 26 22  1  0  0  0  0
 28 24  1  0  0  0  0
M  END
>  <MODEL>
8

>  <REMARK>
 VINA RESULT:      -7.2      2.933      7.353
  Name = 
  2 active torsions:
  status: ('A' for Active; 'I' for Inactive)
    1  A    between atoms: C_1  and  C_2
    2  A    between atoms: C_2  and  N_3
                            x       y       z     vdW  Elec       q    Type
                         _______ _______ _______ _____ _____    ______ ____

>  <TORSDO>
F 2

$$$$
=
 OpenBabel11042414413D

 28 32  0  0  1  0  0  0  0  0999 V2000
  192.0270  173.5280  142.8770 C   0  0  0  0  0  0  0  0  0  0  0  0
  188.8390  175.9010  146.0500 C   0  0  0  0  0  3  0  0  0  0  0  0
  188.2160  174.7710  139.9980 N   0  0  0  0  0  1  0  0  0  0  0  0
  187.1090  176.9010  144.4440 C   0  0  2  0  0  3  0  0  0  0  0  0
  188.9040  175.3950  143.6480 C   0  0  0  0  0  0  0  0  0  0  0  0
  186.7020  176.7820  146.8830 C   0  0  0  0  0  0  0  0  0  0  0  0
  188.3030  175.9970  144.6810 C   0  0  1  0  0  3  0  0  0  0  0  0
  186.8710  175.9190  142.2350 C   0  0  0  0  0  3  0  0  0  0  0  0
  186.2230  177.0100  145.6540 C   0  0  0  0  0  3  0  0  0  0  0  0
  190.1780  174.1710  141.4470 C   0  0  0  0  0  0  0  0  0  0  0  0
  190.1300  174.7400  143.8090 O   0  0  0  0  0  0  0  0  0  0  0  0
  186.3450  176.5580  143.2390 N   0  0  0  0  0  0  0  0  0  0  0  0
  192.0220  172.9920  140.5220 C   0  0  0  0  0  3  0  0  0  0  0  0
  188.8530  174.8090  141.2760 C   0  0  0  0  0  0  0  0  0  0  0  0
  190.8090  173.5940  140.3880 N   0  0  0  0  0  2  0  0  0  0  0  0
  185.8950  176.9580  147.9580 F   0  0  0  0  0  0  0  0  0  0  0  0
  188.0830  176.2840  147.0850 C   0  0  0  0  0  3  0  0  0  0  0  0
  188.2460  175.3940  142.3220 C   0  0  0  0  0  0  0  0  0  0  0  0
  192.6510  172.9500  141.7680 C   0  0  0  0  0  3  0  0  0  0  0  0
  190.7800  174.1500  142.7190 C   0  0  0  0  0  0  0  0  0  0  0  0
  192.7060  173.4780  144.2240 C   0  0  0  0  0  2  0  0  0  0  0  0
  194.0840  173.9950  144.2300 N   0  0  0  0  0  0  0  0  0  0  0  0
  194.9850  175.8680  145.4680 C   0  0  1  0  0  3  0  0  0  0  0  0
  194.8170  173.4810  145.3840 C   0  0  0  0  0  2  0  0  0  0  0  0
  194.6320  176.0330  143.0160 C   0  0  0  0  0  1  0  0  0  0  0  0
  194.0940  175.4560  144.3110 C   0  0  1  0  0  3  0  0  0  0  0  0
  194.1610  176.3740  146.5520 N   0  0  0  0  0  1  0  0  0  0  0  0
  195.6780  174.6030  145.9100 C   0  0  0  0  0  2  0  0  0  0  0  0
  1 21  1  0  0  0  0
  2 17  2  0  0  0  0
  3 14  1  0  0  0  0
  4  7  1  0  0  0  0
  4  9  1  1  0  0  0
  5 11  1  0  0  0  0
  5  7  1  0  0  0  0
  6 17  1  0  0  0  0
  6 16  1  0  0  0  0
  7  2  1  6  0  0  0
  8 18  1  0  0  0  0
  8 12  2  0  0  0  0
  9  6  2  0  0  0  0
 10 20  1  0  0  0  0
 12  4  1  0  0  0  0
 13 19  2  0  0  0  0
 14 10  2  0  0  0  0
 14 18  1  0  0  0  0
 15 13  1  0  0  0  0
 15 10  1  0  0  0  0
 18  5  2  0  0  0  0
 19  1  1  0  0  0  0
 20  1  2  0  0  0  0
 20 11  1  0  0  0  0
 21 22  1  0  0  0  0
 22 26  1  0  0  0  0
 22 24  1  0  0  0  0
 23 28  1  0  0  0  0
 23 27  1  1  0  0  0
 24 28  1  0  0  0  0
 26 25  1  6  0  0  0
 26 23  1  0  0  0  0
M  END
>  <MODEL>
9

>  <REMARK>
 VINA RESULT:      -7.2      2.038      2.574
  Name = 
  2 active torsions:
  status: ('A' for Active; 'I' for Inactive)
    1  A    between atoms: C_1  and  C_2
    2  A    between atoms: C_2  and  N_3
                            x       y       z     vdW  Elec       q    Type
                         _______ _______ _______ _____ _____    ______ ____

>  <TORSDO>
F 2

$$$$
