=
 OpenBabel11042413483D

 25 26  0  0  1  0  0  0  0  0999 V2000
  186.3850  178.3280  145.8930 C   0  0  1  0  0  3  0  0  0  0  0  0
  188.0440  176.6090  145.2030 C   0  0  1  0  0  3  0  0  0  0  0  0
  187.3920  177.2830  146.4200 C   0  0  0  0  0  2  0  0  0  0  0  0
  186.4680  178.1940  144.4180 C   0  0  0  0  0  0  0  0  0  0  0  0
  187.6180  176.9580  142.6840 C   0  0  0  0  0  0  0  0  0  0  0  0
  186.8870  177.6850  141.7060 C   0  0  0  0  0  0  0  0  0  0  0  0
  187.3840  177.2470  144.0360 C   0  0  0  0  0  0  0  0  0  0  0  0
  185.9610  178.6650  142.1210 C   0  0  0  0  0  3  0  0  0  0  0  0
  185.7470  178.9250  143.4790 C   0  0  0  0  0  3  0  0  0  0  0  0
  184.9010  178.6640  147.6400 N   0  0  0  0  0  1  0  0  0  0  0  0
  184.8120  176.7560  146.5120 O   0  0  0  0  0  1  0  0  0  0  0  0
  185.0160  178.0900  146.3670 N   0  0  0  0  0  0  0  0  0  0  0  0
  190.4600  175.9230  145.4920 C   0  0  0  0  0  0  0  0  0  0  0  0
  190.1200  174.7430  145.7800 O   0  0  0  0  0  0  0  0  0  0  0  0
  189.4700  176.9040  145.1820 N   0  0  0  0  0  2  0  0  0  0  0  0
  191.9110  176.2970  145.4130 C   0  0  1  0  0  3  0  0  0  0  0  0
  192.1240  177.4210  144.6030 O   0  0  0  0  0  1  0  0  0  0  0  0
  192.5100  176.4360  146.6840 O   0  0  0  0  0  0  0  0  0  0  0  0
  194.6000  175.4290  146.1330 C   0  0  0  0  0  1  0  0  0  0  0  0
  193.8790  176.7040  146.5150 C   0  0  0  0  0  2  0  0  0  0  0  0
  187.0680  177.4510  140.2670 C   0  0  0  0  0  3  0  0  0  0  0  0
  186.1000  177.5030  139.4630 O   0  0  0  0  0  0  0  0  0  0  0  0
  188.5630  175.9660  142.3750 O   0  0  0  0  0  0  0  0  0  0  0  0
  188.2550  174.6670  142.2720 O   0  0  0  0  0  0  0  0  0  0  0  0
  189.4850  174.0130  142.3310 C   0  0  0  0  0  1  0  0  0  0  0  0
  1 12  1  1  0  0  0
  1  3  1  0  0  0  0
  2 15  1  6  0  0  0
  2  3  1  0  0  0  0
  4  1  1  0  0  0  0
  5  7  2  0  0  0  0
  6  8  2  0  0  0  0
  6  5  1  0  0  0  0
  7  4  1  0  0  0  0
  7  2  1  0  0  0  0
  8  9  1  0  0  0  0
  9  4  2  0  0  0  0
 12 11  1  0  0  0  0
 12 10  1  0  0  0  0
 13 14  2  0  0  0  0
 15 13  1  0  0  0  0
 16 17  1  1  0  0  0
 16 13  1  0  0  0  0
 16 18  1  0  0  0  0
 19 20  1  0  0  0  0
 20 18  1  0  0  0  0
 21  6  1  0  0  0  0
 22 21  2  0  0  0  0
 23  5  1  0  0  0  0
 24 25  1  0  0  0  0
 24 23  1  0  0  0  0
M  END
>  <MODEL>
1

>  <REMARK>
 VINA RESULT:      -6.0      0.000      0.000
  Name = 
  8 active torsions:
  status: ('A' for Active; 'I' for Inactive)
    1  A    between atoms: C_1  and  C_7
    2  A    between atoms: C_1  and  O_8
    3  A    between atoms: C_2  and  N_12
    4  A    between atoms: C_4  and  N_24
    5  A    between atoms: O_8  and  C_19
    6  A    between atoms: O_11  and  O_17
    7  A    between atoms: C_13  and  O_17
    8  A    between atoms: C_15  and  C_18
                            x       y       z     vdW  Elec       q    Type
                         _______ _______ _______ _____ _____    ______ ____

>  <TORSDO>
F 8

$$$$
=
 OpenBabel11042413483D

 25 26  0  0  1  0  0  0  0  0999 V2000
  186.4080  178.4800  146.1260 C   0  0  1  0  0  3  0  0  0  0  0  0
  187.6130  176.3560  145.6530 C   0  0  1  0  0  3  0  0  0  0  0  0
  187.0930  177.2610  146.7820 C   0  0  0  0  0  2  0  0  0  0  0  0
  186.5280  178.2190  144.6710 C   0  0  0  0  0  0  0  0  0  0  0  0
  187.4130  176.6080  143.0960 C   0  0  0  0  0  0  0  0  0  0  0  0
  186.9370  177.4190  142.0280 C   0  0  0  0  0  0  0  0  0  0  0  0
  187.1930  177.0480  144.4090 C   0  0  0  0  0  0  0  0  0  0  0  0
  186.2690  178.6260  142.3210 C   0  0  0  0  0  3  0  0  0  0  0  0
  186.0610  179.0330  143.6430 C   0  0  0  0  0  3  0  0  0  0  0  0
  184.9570  178.6760  147.9210 N   0  0  0  0  0  1  0  0  0  0  0  0
  184.3080  177.5220  146.1420 O   0  0  0  0  0  1  0  0  0  0  0  0
  185.0020  178.6250  146.5210 N   0  0  0  0  0  0  0  0  0  0  0  0
  189.7560  175.3150  146.4980 C   0  0  0  0  0  0  0  0  0  0  0  0
  189.1120  174.4620  147.1670 O   0  0  0  0  0  0  0  0  0  0  0  0
  189.0660  176.2860  145.7100 N   0  0  0  0  0  2  0  0  0  0  0  0
  191.2560  175.2860  146.4750 C   0  0  1  0  0  3  0  0  0  0  0  0
  191.7520  174.3000  145.6100 O   0  0  0  0  0  1  0  0  0  0  0  0
  191.8240  176.5530  146.2190 O   0  0  0  0  0  0  0  0  0  0  0  0
  194.1810  176.7070  146.5370 C   0  0  0  0  0  1  0  0  0  0  0  0
  193.0600  176.3760  145.5750 C   0  0  0  0  0  2  0  0  0  0  0  0
  187.1250  177.0390  140.6220 C   0  0  0  0  0  3  0  0  0  0  0  0
  186.3160  177.4040  139.7270 O   0  0  0  0  0  0  0  0  0  0  0  0
  188.0910  175.3930  142.9110 O   0  0  0  0  0  0  0  0  0  0  0  0
  189.3810  175.3190  142.5610 O   0  0  0  0  0  0  0  0  0  0  0  0
  189.7370  173.9960  142.8180 C   0  0  0  0  0  1  0  0  0  0  0  0
  1 12  1  1  0  0  0
  1  3  1  0  0  0  0
  2 15  1  6  0  0  0
  2  3  1  0  0  0  0
  4  1  1  0  0  0  0
  5  7  2  0  0  0  0
  6  8  2  0  0  0  0
  6  5  1  0  0  0  0
  7  4  1  0  0  0  0
  7  2  1  0  0  0  0
  8  9  1  0  0  0  0
  9  4  2  0  0  0  0
 11 12  1  0  0  0  0
 12 10  1  0  0  0  0
 13 14  2  0  0  0  0
 15 13  1  0  0  0  0
 16 17  1  6  0  0  0
 16 13  1  0  0  0  0
 18 16  1  0  0  0  0
 20 18  1  0  0  0  0
 20 19  1  0  0  0  0
 21  6  1  0  0  0  0
 22 21  2  0  0  0  0
 23  5  1  0  0  0  0
 24 25  1  0  0  0  0
 24 23  1  0  0  0  0
M  END
>  <MODEL>
2

>  <REMARK>
 VINA RESULT:      -5.9      0.869      1.097
  Name = 
  8 active torsions:
  status: ('A' for Active; 'I' for Inactive)
    1  A    between atoms: C_1  and  C_7
    2  A    between atoms: C_1  and  O_8
    3  A    between atoms: C_2  and  N_12
    4  A    between atoms: C_4  and  N_24
    5  A    between atoms: O_8  and  C_19
    6  A    between atoms: O_11  and  O_17
    7  A    between atoms: C_13  and  O_17
    8  A    between atoms: C_15  and  C_18
                            x       y       z     vdW  Elec       q    Type
                         _______ _______ _______ _____ _____    ______ ____

>  <TORSDO>
F 8

$$$$
=
 OpenBabel11042413483D

 25 26  0  0  1  0  0  0  0  0999 V2000
  185.6740  177.2150  142.5430 C   0  0  1  0  0  3  0  0  0  0  0  0
  187.9760  176.9620  143.4490 C   0  0  1  0  0  3  0  0  0  0  0  0
  187.1300  176.8610  142.1700 C   0  0  0  0  0  2  0  0  0  0  0  0
  185.7410  177.5330  143.9900 C   0  0  0  0  0  0  0  0  0  0  0  0
  187.2970  177.6490  145.8400 C   0  0  0  0  0  0  0  0  0  0  0  0
  186.2300  178.0490  146.6890 C   0  0  0  0  0  0  0  0  0  0  0  0
  187.0100  177.3930  144.4920 C   0  0  0  0  0  0  0  0  0  0  0  0
  184.9290  178.1720  146.1550 C   0  0  0  0  0  3  0  0  0  0  0  0
  184.6780  177.9140  144.8040 C   0  0  0  0  0  3  0  0  0  0  0  0
  183.7800  178.1300  141.5720 N   0  0  0  0  0  1  0  0  0  0  0  0
  185.7330  178.3820  140.5530 O   0  0  0  0  0  1  0  0  0  0  0  0
  185.1480  178.3520  141.7770 N   0  0  0  0  0  0  0  0  0  0  0  0
  189.9100  175.3640  143.7530 C   0  0  0  0  0  0  0  0  0  0  0  0
  190.7380  176.2600  143.4380 O   0  0  0  0  0  0  0  0  0  0  0  0
  188.5120  175.6520  143.7880 N   0  0  0  0  0  2  0  0  0  0  0  0
  190.3860  173.9970  144.1520 C   0  0  1  0  0  3  0  0  0  0  0  0
  189.6980  173.5030  145.2700 O   0  0  0  0  0  1  0  0  0  0  0  0
  190.3820  173.0810  143.0780 O   0  0  0  0  0  0  0  0  0  0  0  0
  188.2750  172.5020  142.1260 C   0  0  0  0  0  1  0  0  0  0  0  0
  189.2820  172.2180  143.2190 C   0  0  0  0  0  2  0  0  0  0  0  0
  186.4370  178.3360  148.1150 C   0  0  0  0  0  3  0  0  0  0  0  0
  187.0940  179.3400  148.4960 O   0  0  0  0  0  0  0  0  0  0  0  0
  188.6240  177.4950  146.2730 O   0  0  0  0  0  0  0  0  0  0  0  0
  189.0430  176.4450  146.9900 O   0  0  0  0  0  0  0  0  0  0  0  0
  190.4040  176.6800  147.1880 C   0  0  0  0  0  1  0  0  0  0  0  0
  1 12  1  6  0  0  0
  1  4  1  0  0  0  0
  2 15  1  1  0  0  0
  2  7  1  0  0  0  0
  3  1  1  0  0  0  0
  3  2  1  0  0  0  0
  4  7  2  0  0  0  0
  4  9  1  0  0  0  0
  5 23  1  0  0  0  0
  5  6  2  0  0  0  0
  6 21  1  0  0  0  0
  7  5  1  0  0  0  0
  8  6  1  0  0  0  0
  9  8  2  0  0  0  0
 10 12  1  0  0  0  0
 11 12  1  0  0  0  0
 13 15  1  0  0  0  0
 13 16  1  0  0  0  0
 14 13  2  0  0  0  0
 16 17  1  1  0  0  0
 18 20  1  0  0  0  0
 18 16  1  0  0  0  0
 19 20  1  0  0  0  0
 21 22  2  0  0  0  0
 23 24  1  0  0  0  0
 24 25  1  0  0  0  0
M  END
>  <MODEL>
3

>  <REMARK>
 VINA RESULT:      -5.8      2.607      4.933
  Name = 
  8 active torsions:
  status: ('A' for Active; 'I' for Inactive)
    1  A    between atoms: C_1  and  C_7
    2  A    between atoms: C_1  and  O_8
    3  A    between atoms: C_2  and  N_12
    4  A    between atoms: C_4  and  N_24
    5  A    between atoms: O_8  and  C_19
    6  A    between atoms: O_11  and  O_17
    7  A    between atoms: C_13  and  O_17
    8  A    between atoms: C_15  and  C_18
                            x       y       z     vdW  Elec       q    Type
                         _______ _______ _______ _____ _____    ______ ____

>  <TORSDO>
F 8

$$$$
=
 OpenBabel11042413483D

 25 26  0  0  1  0  0  0  0  0999 V2000
  185.5310  177.1940  143.9590 C   0  0  1  0  0  3  0  0  0  0  0  0
  187.5690  176.2610  142.8810 C   0  0  1  0  0  3  0  0  0  0  0  0
  186.1000  176.6430  142.6340 C   0  0  0  0  0  2  0  0  0  0  0  0
  186.6810  177.1410  144.8930 C   0  0  0  0  0  0  0  0  0  0  0  0
  189.0110  176.4920  145.0050 C   0  0  0  0  0  0  0  0  0  0  0  0
  189.0380  176.8940  146.3690 C   0  0  0  0  0  0  0  0  0  0  0  0
  187.8060  176.6260  144.3000 C   0  0  0  0  0  0  0  0  0  0  0  0
  187.8660  177.4070  146.9630 C   0  0  0  0  0  3  0  0  0  0  0  0
  186.6820  177.5330  146.2290 C   0  0  0  0  0  3  0  0  0  0  0  0
  183.8510  178.5100  143.0570 N   0  0  0  0  0  1  0  0  0  0  0  0
  185.9120  179.3230  143.1540 O   0  0  0  0  0  1  0  0  0  0  0  0
  185.0160  178.5630  143.8340 N   0  0  0  0  0  0  0  0  0  0  0  0
  188.3330  174.2610  141.5390 C   0  0  0  0  0  0  0  0  0  0  0  0
  188.7520  175.0060  140.6120 O   0  0  0  0  0  0  0  0  0  0  0  0
  187.7390  174.8260  142.7080 N   0  0  0  0  0  2  0  0  0  0  0  0
  188.5060  172.7720  141.4520 C   0  0  1  0  0  3  0  0  0  0  0  0
  189.6720  172.4140  140.7620 O   0  0  0  0  0  1  0  0  0  0  0  0
  188.4160  172.1370  142.7100 O   0  0  0  0  0  0  0  0  0  0  0  0
  189.8530  172.3310  144.6020 C   0  0  0  0  0  1  0  0  0  0  0  0
  189.7120  171.8550  143.1720 C   0  0  0  0  0  2  0  0  0  0  0  0
  190.2550  176.7870  147.1860 C   0  0  0  0  0  3  0  0  0  0  0  0
  190.6380  175.6830  147.6550 O   0  0  0  0  0  0  0  0  0  0  0  0
  190.1200  175.9680  144.3240 O   0  0  0  0  0  0  0  0  0  0  0  0
  191.0210  176.7310  143.6930 O   0  0  0  0  0  0  0  0  0  0  0  0
  191.5180  175.9160  142.6770 C   0  0  0  0  0  1  0  0  0  0  0  0
  1 12  1  6  0  0  0
  1  4  1  0  0  0  0
  2 15  1  1  0  0  0
  2  7  1  0  0  0  0
  3  2  1  0  0  0  0
  3  1  1  0  0  0  0
  4  9  1  0  0  0  0
  5  6  2  0  0  0  0
  6  8  1  0  0  0  0
  6 21  1  0  0  0  0
  7  4  2  0  0  0  0
  7  5  1  0  0  0  0
  9  8  2  0  0  0  0
 10 12  1  0  0  0  0
 11 12  1  0  0  0  0
 13 15  1  0  0  0  0
 14 13  2  0  0  0  0
 16 17  1  1  0  0  0
 16 13  1  0  0  0  0
 16 18  1  0  0  0  0
 18 20  1  0  0  0  0
 20 19  1  0  0  0  0
 21 22  2  0  0  0  0
 23  5  1  0  0  0  0
 24 23  1  0  0  0  0
 25 24  1  0  0  0  0
M  END
>  <MODEL>
4

>  <REMARK>
 VINA RESULT:      -5.8      2.489      4.968
  Name = 
  8 active torsions:
  status: ('A' for Active; 'I' for Inactive)
    1  A    between atoms: C_1  and  C_7
    2  A    between atoms: C_1  and  O_8
    3  A    between atoms: C_2  and  N_12
    4  A    between atoms: C_4  and  N_24
    5  A    between atoms: O_8  and  C_19
    6  A    between atoms: O_11  and  O_17
    7  A    between atoms: C_13  and  O_17
    8  A    between atoms: C_15  and  C_18
                            x       y       z     vdW  Elec       q    Type
                         _______ _______ _______ _____ _____    ______ ____

>  <TORSDO>
F 8

$$$$
=
 OpenBabel11042413483D

 25 26  0  0  1  0  0  0  0  0999 V2000
  187.4030  177.6460  145.8460 C   0  0  1  0  0  3  0  0  0  0  0  0
  189.4100  176.1790  145.9180 C   0  0  1  0  0  3  0  0  0  0  0  0
  188.6290  177.2500  146.6960 C   0  0  0  0  0  2  0  0  0  0  0  0
  187.5030  176.7790  144.6470 C   0  0  0  0  0  0  0  0  0  0  0  0
  188.8940  175.0670  143.6510 C   0  0  0  0  0  0  0  0  0  0  0  0
  188.0060  175.0160  142.5410 C   0  0  0  0  0  0  0  0  0  0  0  0
  188.6100  175.9700  144.6850 C   0  0  0  0  0  0  0  0  0  0  0  0
  186.8810  175.8680  142.5160 C   0  0  0  0  0  3  0  0  0  0  0  0
  186.6240  176.7530  143.5680 C   0  0  0  0  0  3  0  0  0  0  0  0
  185.6560  178.6850  146.9580 N   0  0  0  0  0  1  0  0  0  0  0  0
  186.3480  176.7010  147.6680 O   0  0  0  0  0  1  0  0  0  0  0  0
  186.1300  177.4320  146.5460 N   0  0  0  0  0  0  0  0  0  0  0  0
  191.9250  176.1890  146.1650 C   0  0  0  0  0  0  0  0  0  0  0  0
  191.8750  175.2610  147.0170 O   0  0  0  0  0  0  0  0  0  0  0  0
  190.7280  176.6890  145.5680 N   0  0  0  0  0  2  0  0  0  0  0  0
  193.2490  176.7430  145.7230 C   0  0  1  0  0  3  0  0  0  0  0  0
  194.1360  176.9110  146.7950 O   0  0  0  0  0  1  0  0  0  0  0  0
  193.8250  176.0060  144.6660 O   0  0  0  0  0  0  0  0  0  0  0  0
  195.9960  176.4650  143.7950 C   0  0  0  0  0  1  0  0  0  0  0  0
  195.1970  175.8420  144.9190 C   0  0  0  0  0  2  0  0  0  0  0  0
  188.2250  174.1030  141.4110 C   0  0  0  0  0  3  0  0  0  0  0  0
  187.9370  172.8790  141.4880 O   0  0  0  0  0  0  0  0  0  0  0  0
  190.0400  174.2650  143.7700 O   0  0  0  0  0  0  0  0  0  0  0  0
  190.0440  173.0790  144.3920 O   0  0  0  0  0  0  0  0  0  0  0  0
  191.3950  172.7620  144.5280 C   0  0  0  0  0  1  0  0  0  0  0  0
  1 12  1  1  0  0  0
  1  3  1  0  0  0  0
  2 15  1  6  0  0  0
  2  3  1  0  0  0  0
  4  7  1  0  0  0  0
  4  1  1  0  0  0  0
  5 23  1  0  0  0  0
  5  7  2  0  0  0  0
  6  5  1  0  0  0  0
  7  2  1  0  0  0  0
  8  6  2  0  0  0  0
  8  9  1  0  0  0  0
  9  4  2  0  0  0  0
 12 10  1  0  0  0  0
 12 11  1  0  0  0  0
 13 14  2  0  0  0  0
 15 13  1  0  0  0  0
 16 13  1  0  0  0  0
 16 17  1  1  0  0  0
 18 20  1  0  0  0  0
 18 16  1  0  0  0  0
 19 20  1  0  0  0  0
 21 22  2  0  0  0  0
 21  6  1  0  0  0  0
 23 24  1  0  0  0  0
 24 25  1  0  0  0  0
M  END
>  <MODEL>
5

>  <REMARK>
 VINA RESULT:      -5.5      1.969      2.517
  Name = 
  8 active torsions:
  status: ('A' for Active; 'I' for Inactive)
    1  A    between atoms: C_1  and  C_7
    2  A    between atoms: C_1  and  O_8
    3  A    between atoms: C_2  and  N_12
    4  A    between atoms: C_4  and  N_24
    5  A    between atoms: O_8  and  C_19
    6  A    between atoms: O_11  and  O_17
    7  A    between atoms: C_13  and  O_17
    8  A    between atoms: C_15  and  C_18
                            x       y       z     vdW  Elec       q    Type
                         _______ _______ _______ _____ _____    ______ ____

>  <TORSDO>
F 8

$$$$
=
 OpenBabel11042413483D

 25 26  0  0  1  0  0  0  0  0999 V2000
  185.3240  177.3910  144.3530 C   0  0  1  0  0  3  0  0  0  0  0  0
  187.3580  176.7210  143.0880 C   0  0  1  0  0  3  0  0  0  0  0  0
  185.8510  176.9940  142.9570 C   0  0  0  0  0  2  0  0  0  0  0  0
  186.5320  177.3640  145.2130 C   0  0  0  0  0  0  0  0  0  0  0  0
  188.9080  176.9090  145.1390 C   0  0  0  0  0  0  0  0  0  0  0  0
  188.9900  177.2050  146.5270 C   0  0  0  0  0  0  0  0  0  0  0  0
  187.6550  176.9940  144.5170 C   0  0  0  0  0  0  0  0  0  0  0  0
  187.8210  177.5690  147.2270 C   0  0  0  0  0  3  0  0  0  0  0  0
  186.5860  177.6500  146.5740 C   0  0  0  0  0  3  0  0  0  0  0  0
  183.6130  178.6850  143.4800 N   0  0  0  0  0  1  0  0  0  0  0  0
  185.5700  179.6400  143.8980 O   0  0  0  0  0  1  0  0  0  0  0  0
  184.6950  178.7170  144.3700 N   0  0  0  0  0  0  0  0  0  0  0  0
  187.8890  174.8600  141.4620 C   0  0  0  0  0  0  0  0  0  0  0  0
  187.9040  175.6700  140.4950 O   0  0  0  0  0  0  0  0  0  0  0  0
  187.6310  175.3230  142.7880 N   0  0  0  0  0  2  0  0  0  0  0  0
  188.1980  173.4080  141.2410 C   0  0  1  0  0  3  0  0  0  0  0  0
  187.3800  172.5700  142.0110 O   0  0  0  0  0  1  0  0  0  0  0  0
  188.1920  173.0490  139.8760 O   0  0  0  0  0  0  0  0  0  0  0  0
  190.4530  173.3720  139.1940 C   0  0  0  0  0  1  0  0  0  0  0  0
  189.3850  172.3700  139.5770 C   0  0  0  0  0  2  0  0  0  0  0  0
  190.2610  177.1390  147.2620 C   0  0  0  0  0  3  0  0  0  0  0  0
  190.7440  176.0410  147.6450 O   0  0  0  0  0  0  0  0  0  0  0  0
  190.0110  176.5340  144.3550 O   0  0  0  0  0  0  0  0  0  0  0  0
  190.4220  177.2310  143.2880 O   0  0  0  0  0  0  0  0  0  0  0  0
  191.1560  178.2880  143.8240 C   0  0  0  0  0  1  0  0  0  0  0  0
  1 12  1  6  0  0  0
  1  4  1  0  0  0  0
  2 15  1  1  0  0  0
  2  7  1  0  0  0  0
  3  2  1  0  0  0  0
  3  1  1  0  0  0  0
  4  9  1  0  0  0  0
  5  6  2  0  0  0  0
  6  8  1  0  0  0  0
  6 21  1  0  0  0  0
  7  5  1  0  0  0  0
  7  4  2  0  0  0  0
  9  8  2  0  0  0  0
 10 12  1  0  0  0  0
 11 12  1  0  0  0  0
 13 15  1  0  0  0  0
 14 13  2  0  0  0  0
 16 13  1  0  0  0  0
 16 17  1  1  0  0  0
 18 16  1  0  0  0  0
 19 20  1  0  0  0  0
 20 18  1  0  0  0  0
 21 22  2  0  0  0  0
 23  5  1  0  0  0  0
 24 25  1  0  0  0  0
 24 23  1  0  0  0  0
M  END
>  <MODEL>
6

>  <REMARK>
 VINA RESULT:      -5.4      2.417      5.402
  Name = 
  8 active torsions:
  status: ('A' for Active; 'I' for Inactive)
    1  A    between atoms: C_1  and  C_7
    2  A    between atoms: C_1  and  O_8
    3  A    between atoms: C_2  and  N_12
    4  A    between atoms: C_4  and  N_24
    5  A    between atoms: O_8  and  C_19
    6  A    between atoms: O_11  and  O_17
    7  A    between atoms: C_13  and  O_17
    8  A    between atoms: C_15  and  C_18
                            x       y       z     vdW  Elec       q    Type
                         _______ _______ _______ _____ _____    ______ ____

>  <TORSDO>
F 8

$$$$
=
 OpenBabel11042413483D

 25 26  0  0  1  0  0  0  0  0999 V2000
  187.2190  177.9570  144.3150 C   0  0  1  0  0  3  0  0  0  0  0  0
  188.6120  176.0670  145.1320 C   0  0  1  0  0  3  0  0  0  0  0  0
  187.8550  177.3300  145.5740 C   0  0  0  0  0  2  0  0  0  0  0  0
  187.5970  177.0300  143.2210 C   0  0  0  0  0  0  0  0  0  0  0  0
  188.8310  174.9910  142.8000 C   0  0  0  0  0  0  0  0  0  0  0  0
  188.4940  175.0920  141.4230 C   0  0  0  0  0  0  0  0  0  0  0  0
  188.3670  175.9870  143.6700 C   0  0  0  0  0  0  0  0  0  0  0  0
  187.7140  176.1810  140.9800 C   0  0  0  0  0  3  0  0  0  0  0  0
  187.2620  177.1550  141.8760 C   0  0  0  0  0  3  0  0  0  0  0  0
  185.4620  179.4440  144.5830 N   0  0  0  0  0  1  0  0  0  0  0  0
  185.3250  177.4430  145.5300 O   0  0  0  0  0  1  0  0  0  0  0  0
  185.7590  178.0840  144.4160 N   0  0  0  0  0  0  0  0  0  0  0  0
  190.6910  175.6440  146.5070 C   0  0  0  0  0  0  0  0  0  0  0  0
  190.0430  174.9320  147.3210 O   0  0  0  0  0  0  0  0  0  0  0  0
  190.0360  176.2350  145.3830 N   0  0  0  0  0  2  0  0  0  0  0  0
  192.1700  175.8350  146.6750 C   0  0  1  0  0  3  0  0  0  0  0  0
  192.8570  174.6150  146.7380 O   0  0  0  0  0  1  0  0  0  0  0  0
  192.7220  176.7070  145.7110 O   0  0  0  0  0  0  0  0  0  0  0  0
  194.8190  176.5120  144.5950 C   0  0  0  0  0  1  0  0  0  0  0  0
  194.1120  176.7800  145.9060 C   0  0  0  0  0  2  0  0  0  0  0  0
  188.9380  174.0960  140.4380 C   0  0  0  0  0  3  0  0  0  0  0  0
  188.2560  173.0670  140.1890 O   0  0  0  0  0  0  0  0  0  0  0  0
  189.6030  173.9500  143.3400 O   0  0  0  0  0  0  0  0  0  0  0  0
  189.1120  172.7320  143.6010 O   0  0  0  0  0  0  0  0  0  0  0  0
  189.8350  172.2950  144.7100 C   0  0  0  0  0  1  0  0  0  0  0  0
  1 12  1  1  0  0  0
  1  3  1  0  0  0  0
  2 15  1  6  0  0  0
  2  3  1  0  0  0  0
  4  7  1  0  0  0  0
  4  1  1  0  0  0  0
  5 23  1  0  0  0  0
  5  7  2  0  0  0  0
  6  5  1  0  0  0  0
  7  2  1  0  0  0  0
  8  6  2  0  0  0  0
  8  9  1  0  0  0  0
  9  4  2  0  0  0  0
 12 10  1  0  0  0  0
 12 11  1  0  0  0  0
 13 16  1  0  0  0  0
 13 14  2  0  0  0  0
 15 13  1  0  0  0  0
 16 17  1  6  0  0  0
 18 20  1  0  0  0  0
 18 16  1  0  0  0  0
 19 20  1  0  0  0  0
 21  6  1  0  0  0  0
 22 21  2  0  0  0  0
 23 24  1  0  0  0  0
 24 25  1  0  0  0  0
M  END
>  <MODEL>
7

>  <REMARK>
 VINA RESULT:      -5.3      1.805      2.419
  Name = 
  8 active torsions:
  status: ('A' for Active; 'I' for Inactive)
    1  A    between atoms: C_1  and  C_7
    2  A    between atoms: C_1  and  O_8
    3  A    between atoms: C_2  and  N_12
    4  A    between atoms: C_4  and  N_24
    5  A    between atoms: O_8  and  C_19
    6  A    between atoms: O_11  and  O_17
    7  A    between atoms: C_13  and  O_17
    8  A    between atoms: C_15  and  C_18
                            x       y       z     vdW  Elec       q    Type
                         _______ _______ _______ _____ _____    ______ ____

>  <TORSDO>
F 8

$$$$
=
 OpenBabel11042413483D

 25 26  0  0  1  0  0  0  0  0999 V2000
  192.5280  175.3950  146.1180 C   0  0  1  0  0  3  0  0  0  0  0  0
  190.4400  176.1480  144.9970 C   0  0  1  0  0  3  0  0  0  0  0  0
  191.5740  176.5940  145.9350 C   0  0  0  0  0  2  0  0  0  0  0  0
  191.9380  174.3330  145.2670 C   0  0  0  0  0  0  0  0  0  0  0  0
  190.0680  173.8990  143.7940 C   0  0  0  0  0  0  0  0  0  0  0  0
  190.5580  172.5800  143.5900 C   0  0  0  0  0  0  0  0  0  0  0  0
  190.7860  174.7470  144.6490 C   0  0  0  0  0  0  0  0  0  0  0  0
  191.7370  172.1710  144.2470 C   0  0  0  0  0  3  0  0  0  0  0  0
  192.4330  173.0440  145.0890 C   0  0  0  0  0  3  0  0  0  0  0  0
  194.3870  176.7120  146.5420 N   0  0  0  0  0  1  0  0  0  0  0  0
  193.9050  176.1850  144.4420 O   0  0  0  0  0  1  0  0  0  0  0  0
  193.9060  175.6940  145.7070 N   0  0  0  0  0  0  0  0  0  0  0  0
  188.1110  177.0630  145.3480 C   0  0  0  0  0  0  0  0  0  0  0  0
  188.2390  177.8470  144.3680 O   0  0  0  0  0  0  0  0  0  0  0  0
  189.1720  176.1790  145.7100 N   0  0  0  0  0  2  0  0  0  0  0  0
  186.8190  177.0080  146.1110 C   0  0  1  0  0  3  0  0  0  0  0  0
  186.9530  176.3230  147.3270 O   0  0  0  0  0  1  0  0  0  0  0  0
  186.2280  178.2780  146.2780 O   0  0  0  0  0  0  0  0  0  0  0  0
  183.9140  178.6810  145.8680 C   0  0  0  0  0  1  0  0  0  0  0  0
  184.9430  178.1150  146.8230 C   0  0  0  0  0  2  0  0  0  0  0  0
  189.8700  171.6220  142.7130 C   0  0  0  0  0  3  0  0  0  0  0  0
  190.0370  171.6340  141.4650 O   0  0  0  0  0  0  0  0  0  0  0  0
  188.9050  174.4010  143.1890 O   0  0  0  0  0  0  0  0  0  0  0  0
  188.9230  175.3090  142.2050 O   0  0  0  0  0  0  0  0  0  0  0  0
  188.2940  174.6750  141.1350 C   0  0  0  0  0  1  0  0  0  0  0  0
  1 12  1  6  0  0  0
  2 15  1  1  0  0  0
  2  3  1  0  0  0  0
  3  1  1  0  0  0  0
  4  1  1  0  0  0  0
  5  7  1  0  0  0  0
  6  5  2  0  0  0  0
  6  8  1  0  0  0  0
  7  2  1  0  0  0  0
  7  4  2  0  0  0  0
  8  9  2  0  0  0  0
  9  4  1  0  0  0  0
 11 12  1  0  0  0  0
 12 10  1  0  0  0  0
 13 15  1  0  0  0  0
 13 16  1  0  0  0  0
 14 13  2  0  0  0  0
 16 18  1  0  0  0  0
 16 17  1  1  0  0  0
 18 20  1  0  0  0  0
 19 20  1  0  0  0  0
 21  6  1  0  0  0  0
 22 21  2  0  0  0  0
 23  5  1  0  0  0  0
 24 23  1  0  0  0  0
 25 24  1  0  0  0  0
M  END
>  <MODEL>
8

>  <REMARK>
 VINA RESULT:      -5.1      2.628      6.535
  Name = 
  8 active torsions:
  status: ('A' for Active; 'I' for Inactive)
    1  A    between atoms: C_1  and  C_7
    2  A    between atoms: C_1  and  O_8
    3  A    between atoms: C_2  and  N_12
    4  A    between atoms: C_4  and  N_24
    5  A    between atoms: O_8  and  C_19
    6  A    between atoms: O_11  and  O_17
    7  A    between atoms: C_13  and  O_17
    8  A    between atoms: C_15  and  C_18
                            x       y       z     vdW  Elec       q    Type
                         _______ _______ _______ _____ _____    ______ ____

>  <TORSDO>
F 8

$$$$
=
 OpenBabel11042413483D

 25 26  0  0  1  0  0  0  0  0999 V2000
  190.4280  176.2370  146.3450 C   0  0  1  0  0  3  0  0  0  0  0  0
  188.8990  177.2860  144.6870 C   0  0  1  0  0  3  0  0  0  0  0  0
  189.7110  177.5510  145.9650 C   0  0  0  0  0  2  0  0  0  0  0  0
  190.0370  175.2910  145.2720 C   0  0  0  0  0  0  0  0  0  0  0  0
  188.7040  175.1500  143.2560 C   0  0  0  0  0  0  0  0  0  0  0  0
  189.0960  173.7910  143.1140 C   0  0  0  0  0  0  0  0  0  0  0  0
  189.1920  175.8680  144.3570 C   0  0  0  0  0  0  0  0  0  0  0  0
  189.9530  173.2140  144.0740 C   0  0  0  0  0  3  0  0  0  0  0  0
  190.4270  173.9600  145.1580 C   0  0  0  0  0  3  0  0  0  0  0  0
  192.3520  176.6110  145.1090 N   0  0  0  0  0  1  0  0  0  0  0  0
  192.4400  175.2170  146.8320 O   0  0  0  0  0  1  0  0  0  0  0  0
  191.8880  176.3830  146.4120 N   0  0  0  0  0  0  0  0  0  0  0  0
  186.6370  178.3010  144.1970 C   0  0  0  0  0  0  0  0  0  0  0  0
  187.1070  178.9510  143.2240 O   0  0  0  0  0  0  0  0  0  0  0  0
  187.4790  177.4410  144.9660 N   0  0  0  0  0  2  0  0  0  0  0  0
  185.1750  178.3790  144.5270 C   0  0  1  0  0  3  0  0  0  0  0  0
  184.3680  178.2230  143.3910 O   0  0  0  0  0  1  0  0  0  0  0  0
  184.8010  177.5020  145.5680 O   0  0  0  0  0  0  0  0  0  0  0  0
  185.3020  178.6510  147.5960 C   0  0  0  0  0  1  0  0  0  0  0  0
  184.2260  178.2500  146.6090 C   0  0  0  0  0  2  0  0  0  0  0  0
  188.6310  172.9610  141.9940 C   0  0  0  0  0  3  0  0  0  0  0  0
  187.5100  172.3870  142.0210 O   0  0  0  0  0  0  0  0  0  0  0  0
  187.8540  175.8150  142.3580 O   0  0  0  0  0  0  0  0  0  0  0  0
  188.1320  175.9620  141.0570 O   0  0  0  0  0  0  0  0  0  0  0  0
  187.1420  176.8230  140.5840 C   0  0  0  0  0  1  0  0  0  0  0  0
  1 12  1  6  0  0  0
  2 15  1  1  0  0  0
  2  3  1  0  0  0  0
  3  1  1  0  0  0  0
  4  1  1  0  0  0  0
  5  7  1  0  0  0  0
  6  5  2  0  0  0  0
  6  8  1  0  0  0  0
  7  2  1  0  0  0  0
  7  4  2  0  0  0  0
  8  9  2  0  0  0  0
  9  4  1  0  0  0  0
 10 12  1  0  0  0  0
 12 11  1  0  0  0  0
 13 16  1  0  0  0  0
 13 15  1  0  0  0  0
 14 13  2  0  0  0  0
 16 17  1  6  0  0  0
 16 18  1  0  0  0  0
 18 20  1  0  0  0  0
 20 19  1  0  0  0  0
 21 22  2  0  0  0  0
 21  6  1  0  0  0  0
 23  5  1  0  0  0  0
 24 23  1  0  0  0  0
 25 24  1  0  0  0  0
M  END
>  <MODEL>
9

>  <REMARK>
 VINA RESULT:      -5.0      2.179      5.888
  Name = 
  8 active torsions:
  status: ('A' for Active; 'I' for Inactive)
    1  A    between atoms: C_1  and  C_7
    2  A    between atoms: C_1  and  O_8
    3  A    between atoms: C_2  and  N_12
    4  A    between atoms: C_4  and  N_24
    5  A    between atoms: O_8  and  C_19
    6  A    between atoms: O_11  and  O_17
    7  A    between atoms: C_13  and  O_17
    8  A    between atoms: C_15  and  C_18
                            x       y       z     vdW  Elec       q    Type
                         _______ _______ _______ _____ _____    ______ ____

>  <TORSDO>
F 8

$$$$
