=
 OpenBabel11042414393D

 60 67  0  0  1  0  0  0  0  0999 V2000
  194.8380  174.9060  144.8910 C   0  0  0  0  0  0  0  0  0  0  0  0
  191.4600  175.1250  146.7710 C   0  0  0  0  0  2  0  0  0  0  0  0
  196.3270  174.9540  144.9730 C   0  0  2  0  0  3  0  0  0  0  0  0
  194.4690  175.2560  143.6600 C   0  0  0  0  0  0  0  0  0  0  0  0
  193.9220  174.8490  146.0930 C   0  0  0  0  0  2  0  0  0  0  0  0
  196.7200  175.4300  143.6490 N   0  0  0  0  0  0  0  0  0  0  0  0
  195.6710  175.5640  142.9160 C   0  0  0  0  0  0  0  0  0  0  0  0
  192.2480  176.0700  144.7230 C   0  0  1  0  0  3  0  0  0  0  0  0
  190.7400  177.9340  143.1030 O   0  0  0  0  0  0  0  0  0  0  0  0
  192.4650  174.9110  145.6600 C   0  0  2  0  0  3  0  0  0  0  0  0
  190.2830  175.7890  146.0600 C   0  0  0  0  0  2  0  0  0  0  0  0
  192.7700  175.5040  143.0810 S   0  0  0  0  0  0  0  0  0  0  0  0
  190.1800  177.4160  144.1040 C   0  0  0  0  0  0  0  0  0  0  0  0
  190.8330  176.3650  144.8340 N   0  0  0  0  0  0  0  0  0  0  0  0
  196.9510  173.1450  146.3640 O   0  0  0  0  0  0  0  0  0  0  0  0
  196.8990  173.5960  145.2280 C   0  0  0  0  0  0  0  0  0  0  0  0
  197.4290  172.5900  143.8510 S   0  0  0  0  0  0  0  0  0  0  0  0
  196.1280  171.3520  144.1230 C   0  0  0  0  0  2  0  0  0  0  0  0
  194.8250  171.8180  143.5120 C   0  0  1  0  0  3  0  0  0  0  0  0
  193.9840  170.5950  143.2070 C   0  0  1  0  0  3  0  0  0  0  0  0
  193.6820  171.4400  144.4270 C   0  0  0  0  0  2  0  0  0  0  0  0
  193.0020  170.9310  142.1020 C   0  0  0  0  0  2  0  0  0  0  0  0
  190.2820  172.3360  144.3020 O   0  0  0  0  0  0  0  0  0  0  0  0
  190.8090  170.1250  141.2770 N   0  0  2  0  0  0  0  0  0  0  0  0
  190.5910  170.9610  142.4640 N   0  0  0  0  0  0  0  0  0  0  0  0
  191.7370  170.0820  142.2750 C   0  0  2  0  0  3  0  0  0  0  0  0
  189.8390  171.9180  143.2030 C   0  0  0  0  0  0  0  0  0  0  0  0
  191.3590  169.6320  138.0850 C   0  0  0  0  0  3  0  0  0  0  0  0
  189.7760  171.4930  139.5060 C   0  0  0  0  0  2  0  0  0  0  0  0
  189.8270  171.4470  137.9760 C   0  0  0  0  0  2  0  0  0  0  0  0
  191.0980  171.0330  140.1610 C   0  0  2  0  0  3  0  0  0  0  0  0
  190.3170  170.1560  137.5390 N   0  0  0  0  0  0  0  0  0  0  0  0
  192.0840  170.3670  139.1770 C   0  0  0  0  0  2  0  0  0  0  0  0
  188.4670  173.6870  142.1860 C   0  0  0  0  0  1  0  0  0  0  0  0
  188.6210  172.3710  142.6970 O   0  0  0  0  0  0  0  0  0  0  0  0
  188.8690  177.9670  144.5590 C   0  0  0  0  0  2  0  0  0  0  0  0
  187.7550  177.2110  143.8720 C   0  0  0  0  0  2  0  0  0  0  0  0
  186.7070  178.1480  143.3660 C   0  0  0  0  0  0  0  0  0  0  0  0
  186.8170  178.5900  142.2340 O   0  0  0  0  0  0  0  0  0  0  0  0
  185.3410  180.0010  144.2560 C   0  0  0  0  0  1  0  0  0  0  0  0
  185.4990  178.4880  144.2090 C   0  0  1  0  0  0  0  0  0  0  0  0
  184.3460  177.9620  143.6210 O   0  0  0  0  0  1  0  0  0  0  0  0
  184.4730  177.2240  146.0010 O   0  0  0  0  0  1  0  0  0  0  0  0
  185.6160  177.9450  145.6440 C   0  0  2  0  0  3  0  0  0  0  0  0
  185.8740  179.0360  146.6880 C   0  0  0  0  0  2  0  0  0  0  0  0
  186.4610  178.4640  147.9680 C   0  0  0  0  0  2  0  0  0  0  0  0
  187.1150  179.4630  148.6900 O   0  0  0  0  0  1  0  0  0  0  0  0
  195.6910  176.1350  141.5330 C   0  0  0  0  0  2  0  0  0  0  0  0
  197.1160  174.1810  138.8010 C   0  0  0  0  0  3  0  0  0  0  0  0
  196.9970  175.3910  139.4600 C   0  0  0  0  0  3  0  0  0  0  0  0
  195.7840  173.8120  140.4940 C   0  0  0  0  0  3  0  0  0  0  0  0
  196.1570  175.1350  140.5240 C   0  0  0  0  0  0  0  0  0  0  0  0
  196.3830  173.2400  139.4350 N   0  0  0  0  0  0  0  0  0  0  0  0
  196.3790  170.1380  137.3290 C   0  0  0  0  0  3  0  0  0  0  0  0
  196.5190  171.4780  137.7170 C   0  0  0  0  0  3  0  0  0  0  0  0
  195.7070  169.5480  139.5710 C   0  0  0  0  0  0  0  0  0  0  0  0
  196.2550  171.8670  139.0340 C   0  0  0  0  0  0  0  0  0  0  0  0
  195.3280  168.6180  140.4670 F   0  0  0  0  0  0  0  0  0  0  0  0
  195.8450  170.8860  139.9590 C   0  0  0  0  0  3  0  0  0  0  0  0
  195.9740  169.1760  138.2550 C   0  0  0  0  0  3  0  0  0  0  0  0
  1  3  1  0  0  0  0
  1  5  1  0  0  0  0
  3 16  1  6  0  0  0
  4  1  2  0  0  0  0
  6  3  1  0  0  0  0
  7  6  2  0  0  0  0
  7  4  1  0  0  0  0
  8 12  1  6  0  0  0
  8 14  1  0  0  0  0
  8 10  1  0  0  0  0
  9 13  2  0  0  0  0
 10  5  1  1  0  0  0
 10  2  1  0  0  0  0
 11  2  1  0  0  0  0
 12  4  1  0  0  0  0
 13 36  1  0  0  0  0
 13 14  1  0  0  0  0
 14 11  1  0  0  0  0
 16 15  2  0  0  0  0
 17 18  1  0  0  0  0
 17 16  1  0  0  0  0
 19 18  1  1  0  0  0
 19 21  1  0  0  0  0
 20 22  1  6  0  0  0
 20 19  1  0  0  0  0
 20 21  1  0  0  0  0
 24 26  1  0  0  0  0
 24 25  1  1  0  0  0
 25 27  1  0  0  0  0
 26 22  1  6  0  0  0
 26 25  1  0  0  0  0
 27 23  2  0  0  0  0
 28 33  1  0  0  0  0
 29 31  1  0  0  0  0
 30 29  1  0  0  0  0
 31 33  1  6  0  0  0
 31 24  1  0  0  0  0
 32 30  1  0  0  0  0
 32 28  2  0  0  0  0
 34 35  1  0  0  0  0
 35 27  1  0  0  0  0
 37 36  1  0  0  0  0
 38 37  1  0  0  0  0
 38 41  1  0  0  0  0
 39 38  2  0  0  0  0
 41 40  1  1  0  0  0
 41 44  1  0  0  0  0
 42 41  1  0  0  0  0
 44 43  1  1  0  0  0
 44 45  1  0  0  0  0
 45 46  1  0  0  0  0
 46 47  1  0  0  0  0
 48  7  1  0  0  0  0
 49 53  1  0  0  0  0
 49 50  2  0  0  0  0
 50 52  1  0  0  0  0
 51 52  2  0  0  0  0
 52 48  1  0  0  0  0
 53 51  1  0  0  0  0
 54 55  2  0  0  0  0
 54 60  1  0  0  0  0
 55 57  1  0  0  0  0
 56 59  1  0  0  0  0
 56 58  1  0  0  0  0
 57 53  1  0  0  0  0
 57 59  2  0  0  0  0
 60 56  2  0  0  0  0
M  END
>  <MODEL>
1

>  <REMARK>
 VINA RESULT:      -6.7      0.000      0.000
  Name = 
  18 active torsions:
  status: ('A' for Active; 'I' for Inactive)
    1  A    between atoms: C_9  and  C_25
    2  A    between atoms: C_10  and  C_60
    3  A    between atoms: O_12  and  C_48
    4  A    between atoms: C_13  and  C_18
    5  A    between atoms: C_13  and  C_27
    6  A    between atoms: C_15  and  C_24
    7  A    between atoms: C_15  and  C_47
    8  A    between atoms: C_18  and  C_57
    9  A    between atoms: C_20  and  C_42
   10  A    between atoms: C_25  and  S_56
   11  A    between atoms: C_27  and  C_44
   12  A    between atoms: C_28  and  C_29
   13  A    between atoms: C_29  and  C_37
   14  A    between atoms: C_32  and  N_52
   15  A    between atoms: N_40  and  C_50
   16  A    between atoms: C_42  and  S_56
   17  A    between atoms: C_44  and  C_59
   18  A    between atoms: C_59  and  C_60
                            x       y       z     vdW  Elec       q    Type
                         _______ _______ _______ _____ _____    ______ ____

>  <TORSDO>
F 18

$$$$
=
 OpenBabel11042414393D

 60 67  0  0  1  0  0  0  0  0999 V2000
  195.1240  174.9420  144.9340 C   0  0  0  0  0  0  0  0  0  0  0  0
  192.0260  175.3040  147.2280 C   0  0  0  0  0  2  0  0  0  0  0  0
  196.6110  174.9800  144.8150 C   0  0  2  0  0  3  0  0  0  0  0  0
  194.5960  175.2230  143.7440 C   0  0  0  0  0  0  0  0  0  0  0  0
  194.3760  174.9650  146.2480 C   0  0  0  0  0  2  0  0  0  0  0  0
  196.8250  175.3740  143.4250 N   0  0  0  0  0  0  0  0  0  0  0  0
  195.6890  175.4750  142.8310 C   0  0  0  0  0  0  0  0  0  0  0  0
  192.5370  176.1200  145.0410 C   0  0  1  0  0  3  0  0  0  0  0  0
  190.8310  177.9010  143.5280 O   0  0  0  0  0  0  0  0  0  0  0  0
  192.8740  175.0160  146.0090 C   0  0  2  0  0  3  0  0  0  0  0  0
  190.7670  175.9370  146.6410 C   0  0  0  0  0  2  0  0  0  0  0  0
  192.8360  175.4530  143.3820 S   0  0  0  0  0  0  0  0  0  0  0  0
  190.4080  177.4480  144.6230 C   0  0  0  0  0  0  0  0  0  0  0  0
  191.1500  176.4350  145.3210 N   0  0  0  0  0  0  0  0  0  0  0  0
  197.2320  173.1680  146.2030 O   0  0  0  0  0  0  0  0  0  0  0  0
  197.2090  173.6340  145.0720 C   0  0  0  0  0  0  0  0  0  0  0  0
  197.8130  172.6610  143.7020 S   0  0  0  0  0  0  0  0  0  0  0  0
  196.5830  171.3500  143.9570 C   0  0  0  0  0  2  0  0  0  0  0  0
  195.2200  171.8120  143.4930 C   0  0  1  0  0  3  0  0  0  0  0  0
  194.3940  170.5850  143.1650 C   0  0  1  0  0  3  0  0  0  0  0  0
  194.1710  171.3270  144.4670 C   0  0  0  0  0  2  0  0  0  0  0  0
  193.3110  170.9670  142.1740 C   0  0  0  0  0  2  0  0  0  0  0  0
  190.9910  172.6100  144.6490 O   0  0  0  0  0  0  0  0  0  0  0  0
  190.9810  170.3110  141.6430 N   0  0  2  0  0  0  0  0  0  0  0  0
  190.9720  171.1830  142.8250 N   0  0  0  0  0  0  0  0  0  0  0  0
  192.0200  170.2170  142.5220 C   0  0  2  0  0  3  0  0  0  0  0  0
  190.3870  172.2060  143.6230 C   0  0  0  0  0  0  0  0  0  0  0  0
  190.9650  169.7440  138.4160 C   0  0  0  0  0  3  0  0  0  0  0  0
  189.8490  171.7840  140.0240 C   0  0  0  0  0  2  0  0  0  0  0  0
  189.6540  171.7260  138.5060 C   0  0  0  0  0  2  0  0  0  0  0  0
  191.1950  171.1740  140.4760 C   0  0  2  0  0  3  0  0  0  0  0  0
  189.9170  170.3850  138.0280 N   0  0  0  0  0  0  0  0  0  0  0  0
  191.9320  170.3940  139.3660 C   0  0  0  0  0  2  0  0  0  0  0  0
  189.0240  174.0700  142.7790 C   0  0  0  0  0  1  0  0  0  0  0  0
  189.1510  172.7390  143.2570 O   0  0  0  0  0  0  0  0  0  0  0  0
  189.1710  178.0370  145.2140 C   0  0  0  0  0  2  0  0  0  0  0  0
  187.9680  177.3080  144.6600 C   0  0  0  0  0  2  0  0  0  0  0  0
  186.8840  177.2120  145.6840 C   0  0  0  0  0  0  0  0  0  0  0  0
  186.9660  176.3500  146.5430 O   0  0  0  0  0  0  0  0  0  0  0  0
  184.5010  177.5190  146.2520 C   0  0  0  0  0  1  0  0  0  0  0  0
  185.7420  178.2040  145.6980 C   0  0  1  0  0  0  0  0  0  0  0  0
  186.0500  179.2690  146.5480 O   0  0  0  0  0  1  0  0  0  0  0  0
  184.5650  179.8530  144.3730 O   0  0  0  0  0  1  0  0  0  0  0  0
  185.4330  178.7600  144.2970 C   0  0  2  0  0  3  0  0  0  0  0  0
  184.8470  177.7140  143.3430 C   0  0  0  0  0  2  0  0  0  0  0  0
  185.0740  178.0880  141.8880 C   0  0  0  0  0  2  0  0  0  0  0  0
  183.8530  178.2740  141.2390 O   0  0  0  0  0  1  0  0  0  0  0  0
  195.5260  175.9630  141.4250 C   0  0  0  0  0  2  0  0  0  0  0  0
  194.1230  173.6320  138.9940 C   0  0  0  0  0  3  0  0  0  0  0  0
  194.0830  174.8670  139.6160 C   0  0  0  0  0  3  0  0  0  0  0  0
  195.8000  173.6520  140.3960 C   0  0  0  0  0  3  0  0  0  0  0  0
  195.1500  174.8590  140.4910 C   0  0  0  0  0  0  0  0  0  0  0  0
  195.1620  172.9130  139.4710 N   0  0  0  0  0  0  0  0  0  0  0  0
  196.5800  169.4430  139.5180 C   0  0  0  0  0  3  0  0  0  0  0  0
  196.2310  170.7390  139.9230 C   0  0  0  0  0  3  0  0  0  0  0  0
  195.4990  169.8040  137.3910 C   0  0  0  0  0  0  0  0  0  0  0  0
  195.5120  171.5800  139.0680 C   0  0  0  0  0  0  0  0  0  0  0  0
  195.1350  169.3500  136.1760 F   0  0  0  0  0  0  0  0  0  0  0  0
  195.1500  171.0980  137.7930 C   0  0  0  0  0  3  0  0  0  0  0  0
  196.2140  168.9770  138.2540 C   0  0  0  0  0  3  0  0  0  0  0  0
  1  5  1  0  0  0  0
  3  1  1  0  0  0  0
  3 16  1  6  0  0  0
  4  1  2  0  0  0  0
  6  3  1  0  0  0  0
  7  6  2  0  0  0  0
  7  4  1  0  0  0  0
  8 12  1  6  0  0  0
  8 14  1  0  0  0  0
  8 10  1  0  0  0  0
  9 13  2  0  0  0  0
 10  5  1  1  0  0  0
 10  2  1  0  0  0  0
 11  2  1  0  0  0  0
 12  4  1  0  0  0  0
 13 36  1  0  0  0  0
 13 14  1  0  0  0  0
 14 11  1  0  0  0  0
 16 15  2  0  0  0  0
 17 18  1  0  0  0  0
 17 16  1  0  0  0  0
 19 18  1  1  0  0  0
 19 21  1  0  0  0  0
 20 22  1  6  0  0  0
 20 19  1  0  0  0  0
 20 21  1  0  0  0  0
 24 26  1  0  0  0  0
 24 25  1  1  0  0  0
 25 27  1  0  0  0  0
 26 22  1  6  0  0  0
 26 25  1  0  0  0  0
 27 23  2  0  0  0  0
 28 33  1  0  0  0  0
 29 31  1  0  0  0  0
 30 29  1  0  0  0  0
 31 33  1  6  0  0  0
 31 24  1  0  0  0  0
 32 28  2  0  0  0  0
 32 30  1  0  0  0  0
 34 35  1  0  0  0  0
 35 27  1  0  0  0  0
 37 36  1  0  0  0  0
 37 38  1  0  0  0  0
 38 41  1  0  0  0  0
 38 39  2  0  0  0  0
 41 40  1  1  0  0  0
 41 42  1  0  0  0  0
 44 43  1  1  0  0  0
 44 41  1  0  0  0  0
 45 44  1  0  0  0  0
 46 45  1  0  0  0  0
 47 46  1  0  0  0  0
 48  7  1  0  0  0  0
 49 53  1  0  0  0  0
 49 50  2  0  0  0  0
 50 52  1  0  0  0  0
 51 52  2  0  0  0  0
 52 48  1  0  0  0  0
 53 51  1  0  0  0  0
 54 55  1  0  0  0  0
 56 59  2  0  0  0  0
 56 60  1  0  0  0  0
 57 53  1  0  0  0  0
 57 55  2  0  0  0  0
 58 56  1  0  0  0  0
 59 57  1  0  0  0  0
 60 54  2  0  0  0  0
M  END
>  <MODEL>
2

>  <REMARK>
 VINA RESULT:      -6.6      1.192      2.087
  Name = 
  18 active torsions:
  status: ('A' for Active; 'I' for Inactive)
    1  A    between atoms: C_9  and  C_25
    2  A    between atoms: C_10  and  C_60
    3  A    between atoms: O_12  and  C_48
    4  A    between atoms: C_13  and  C_18
    5  A    between atoms: C_13  and  C_27
    6  A    between atoms: C_15  and  C_24
    7  A    between atoms: C_15  and  C_47
    8  A    between atoms: C_18  and  C_57
    9  A    between atoms: C_20  and  C_42
   10  A    between atoms: C_25  and  S_56
   11  A    between atoms: C_27  and  C_44
   12  A    between atoms: C_28  and  C_29
   13  A    between atoms: C_29  and  C_37
   14  A    between atoms: C_32  and  N_52
   15  A    between atoms: N_40  and  C_50
   16  A    between atoms: C_42  and  S_56
   17  A    between atoms: C_44  and  C_59
   18  A    between atoms: C_59  and  C_60
                            x       y       z     vdW  Elec       q    Type
                         _______ _______ _______ _____ _____    ______ ____

>  <TORSDO>
F 18

$$$$
=
 OpenBabel11042414393D

 60 67  0  0  1  0  0  0  0  0999 V2000
  194.7420  174.6280  145.0730 C   0  0  0  0  0  0  0  0  0  0  0  0
  191.2230  174.5690  146.6870 C   0  0  0  0  0  2  0  0  0  0  0  0
  196.2180  174.5360  145.2730 C   0  0  2  0  0  3  0  0  0  0  0  0
  194.5070  175.3380  143.9710 C   0  0  0  0  0  0  0  0  0  0  0  0
  193.7190  174.3060  146.1390 C   0  0  0  0  0  2  0  0  0  0  0  0
  196.7550  175.3340  144.1740 N   0  0  0  0  0  0  0  0  0  0  0  0
  195.7870  175.7490  143.4360 C   0  0  0  0  0  0  0  0  0  0  0  0
  192.2450  175.9890  145.0590 C   0  0  1  0  0  3  0  0  0  0  0  0
  190.9930  178.3450  143.9390 O   0  0  0  0  0  0  0  0  0  0  0  0
  192.3130  174.6000  145.6370 C   0  0  2  0  0  3  0  0  0  0  0  0
  190.1540  175.4960  146.1130 C   0  0  0  0  0  2  0  0  0  0  0  0
  192.8840  175.8700  143.3670 S   0  0  0  0  0  0  0  0  0  0  0  0
  190.3180  177.6110  144.7060 C   0  0  0  0  0  0  0  0  0  0  0  0
  190.8440  176.3490  145.1480 N   0  0  0  0  0  0  0  0  0  0  0  0
  197.0540  172.5090  146.1630 O   0  0  0  0  0  0  0  0  0  0  0  0
  196.6910  173.1210  145.1680 C   0  0  0  0  0  0  0  0  0  0  0  0
  196.6400  172.2890  143.5890 S   0  0  0  0  0  0  0  0  0  0  0  0
  195.7480  170.8550  144.2570 C   0  0  0  0  0  2  0  0  0  0  0  0
  194.2640  171.1400  144.3110 C   0  0  1  0  0  3  0  0  0  0  0  0
  193.7290  171.1230  142.8940 C   0  0  1  0  0  3  0  0  0  0  0  0
  193.5060  169.9330  143.8050 C   0  0  0  0  0  2  0  0  0  0  0  0
  192.4640  171.9560  142.8310 C   0  0  0  0  0  2  0  0  0  0  0  0
  192.5630  169.6510  139.8500 O   0  0  0  0  0  0  0  0  0  0  0  0
  191.1080  172.9460  141.0080 N   0  0  2  0  0  0  0  0  0  0  0  0
  191.6860  171.6810  140.5370 N   0  0  0  0  0  0  0  0  0  0  0  0
  192.3540  172.6040  141.4460 C   0  0  2  0  0  3  0  0  0  0  0  0
  191.6150  170.4730  139.7870 C   0  0  0  0  0  0  0  0  0  0  0  0
  188.9520  174.7560  142.6840 C   0  0  0  0  0  3  0  0  0  0  0  0
  188.6940  172.4500  141.0700 C   0  0  0  0  0  2  0  0  0  0  0  0
  187.4940  173.1430  141.7210 C   0  0  0  0  0  2  0  0  0  0  0  0
  189.9910  172.6020  141.8960 C   0  0  2  0  0  3  0  0  0  0  0  0
  187.8450  174.5030  142.0760 N   0  0  0  0  0  0  0  0  0  0  0  0
  189.8860  173.6340  143.0400 C   0  0  0  0  0  2  0  0  0  0  0  0
  190.4050  169.0680  138.1720 C   0  0  0  0  0  1  0  0  0  0  0  0
  190.4980  170.2260  138.9890 O   0  0  0  0  0  0  0  0  0  0  0  0
  189.0020  178.1110  145.2040 C   0  0  0  0  0  2  0  0  0  0  0  0
  187.9710  177.9500  144.1100 C   0  0  0  0  0  2  0  0  0  0  0  0
  186.6480  177.5530  144.6780 C   0  0  0  0  0  0  0  0  0  0  0  0
  186.5290  176.4370  145.1570 O   0  0  0  0  0  0  0  0  0  0  0  0
  184.4570  178.0280  145.7120 C   0  0  0  0  0  1  0  0  0  0  0  0
  185.4970  178.5330  144.7220 C   0  0  1  0  0  0  0  0  0  0  0  0
  185.9480  179.7730  145.1810 O   0  0  0  0  0  1  0  0  0  0  0  0
  183.4480  178.8110  143.4630 O   0  0  0  0  0  1  0  0  0  0  0  0
  184.8380  178.7230  143.3450 C   0  0  2  0  0  3  0  0  0  0  0  0
  185.1920  177.6180  142.3440 C   0  0  0  0  0  2  0  0  0  0  0  0
  185.4160  178.1730  140.9470 C   0  0  0  0  0  2  0  0  0  0  0  0
  184.2140  178.2090  140.2410 O   0  0  0  0  0  1  0  0  0  0  0  0
  195.9640  176.6830  142.2810 C   0  0  0  0  0  2  0  0  0  0  0  0
  196.6160  174.9030  139.1630 C   0  0  0  0  0  3  0  0  0  0  0  0
  197.0940  175.4560  140.3380 C   0  0  0  0  0  3  0  0  0  0  0  0
  194.8690  175.7140  140.1970 C   0  0  0  0  0  3  0  0  0  0  0  0
  195.9760  175.9570  140.9740 C   0  0  0  0  0  0  0  0  0  0  0  0
  195.2770  175.0630  139.0930 N   0  0  0  0  0  0  0  0  0  0  0  0
  194.0150  174.3520  135.6340 C   0  0  0  0  0  3  0  0  0  0  0  0
  194.8460  174.7690  136.6840 C   0  0  0  0  0  3  0  0  0  0  0  0
  192.3450  173.6410  137.2250 C   0  0  0  0  0  0  0  0  0  0  0  0
  194.4370  174.6260  138.0130 C   0  0  0  0  0  0  0  0  0  0  0  0
  191.1460  173.0870  137.4870 F   0  0  0  0  0  0  0  0  0  0  0  0
  193.1730  174.0580  138.2740 C   0  0  0  0  0  3  0  0  0  0  0  0
  192.7670  173.7890  135.9060 C   0  0  0  0  0  3  0  0  0  0  0  0
  1  3  1  0  0  0  0
  1  5  1  0  0  0  0
  3 16  1  6  0  0  0
  4  1  2  0  0  0  0
  6  3  1  0  0  0  0
  7  4  1  0  0  0  0
  7  6  2  0  0  0  0
  8 12  1  6  0  0  0
  8 14  1  0  0  0  0
  8 10  1  0  0  0  0
  9 13  2  0  0  0  0
 10  5  1  1  0  0  0
 10  2  1  0  0  0  0
 11  2  1  0  0  0  0
 12  4  1  0  0  0  0
 13 14  1  0  0  0  0
 13 36  1  0  0  0  0
 14 11  1  0  0  0  0
 16 15  2  0  0  0  0
 17 18  1  0  0  0  0
 17 16  1  0  0  0  0
 19 18  1  6  0  0  0
 20 22  1  1  0  0  0
 20 21  1  0  0  0  0
 20 19  1  0  0  0  0
 21 19  1  0  0  0  0
 24 25  1  6  0  0  0
 24 26  1  0  0  0  0
 24 31  1  0  0  0  0
 25 26  1  0  0  0  0
 26 22  1  1  0  0  0
 27 23  2  0  0  0  0
 27 25  1  0  0  0  0
 28 33  1  0  0  0  0
 29 30  1  0  0  0  0
 30 32  1  0  0  0  0
 31 29  1  6  0  0  0
 31 33  1  0  0  0  0
 32 28  2  0  0  0  0
 34 35  1  0  0  0  0
 35 27  1  0  0  0  0
 37 38  1  0  0  0  0
 37 36  1  0  0  0  0
 38 41  1  0  0  0  0
 38 39  2  0  0  0  0
 41 42  1  0  0  0  0
 41 40  1  1  0  0  0
 44 43  1  1  0  0  0
 44 41  1  0  0  0  0
 45 44  1  0  0  0  0
 46 45  1  0  0  0  0
 47 46  1  0  0  0  0
 48  7  1  0  0  0  0
 49 50  2  0  0  0  0
 50 52  1  0  0  0  0
 51 52  2  0  0  0  0
 52 48  1  0  0  0  0
 53 49  1  0  0  0  0
 53 51  1  0  0  0  0
 54 60  2  0  0  0  0
 54 55  1  0  0  0  0
 55 57  2  0  0  0  0
 56 58  1  0  0  0  0
 56 59  2  0  0  0  0
 57 59  1  0  0  0  0
 57 53  1  0  0  0  0
 60 56  1  0  0  0  0
M  END
>  <MODEL>
3

>  <REMARK>
 VINA RESULT:      -6.4      2.297      3.446
  Name = 
  18 active torsions:
  status: ('A' for Active; 'I' for Inactive)
    1  A    between atoms: C_9  and  C_25
    2  A    between atoms: C_10  and  C_60
    3  A    between atoms: O_12  and  C_48
    4  A    between atoms: C_13  and  C_18
    5  A    between atoms: C_13  and  C_27
    6  A    between atoms: C_15  and  C_24
    7  A    between atoms: C_15  and  C_47
    8  A    between atoms: C_18  and  C_57
    9  A    between atoms: C_20  and  C_42
   10  A    between atoms: C_25  and  S_56
   11  A    between atoms: C_27  and  C_44
   12  A    between atoms: C_28  and  C_29
   13  A    between atoms: C_29  and  C_37
   14  A    between atoms: C_32  and  N_52
   15  A    between atoms: N_40  and  C_50
   16  A    between atoms: C_42  and  S_56
   17  A    between atoms: C_44  and  C_59
   18  A    between atoms: C_59  and  C_60
                            x       y       z     vdW  Elec       q    Type
                         _______ _______ _______ _____ _____    ______ ____

>  <TORSDO>
F 18

$$$$
=
 OpenBabel11042414393D

 60 67  0  0  1  0  0  0  0  0999 V2000
  195.2660  174.9310  144.7520 C   0  0  0  0  0  0  0  0  0  0  0  0
  192.1100  174.9160  146.9960 C   0  0  0  0  0  2  0  0  0  0  0  0
  196.7550  174.9830  144.6790 C   0  0  2  0  0  3  0  0  0  0  0  0
  194.7680  175.4090  143.6130 C   0  0  0  0  0  0  0  0  0  0  0  0
  194.4850  174.7370  146.0320 C   0  0  0  0  0  2  0  0  0  0  0  0
  197.0050  175.6030  143.3800 N   0  0  0  0  0  0  0  0  0  0  0  0
  195.8840  175.8060  142.7830 C   0  0  0  0  0  0  0  0  0  0  0  0
  192.6770  176.0840  144.9900 C   0  0  1  0  0  3  0  0  0  0  0  0
  191.0090  178.1000  143.7530 O   0  0  0  0  0  0  0  0  0  0  0  0
  192.9890  174.8320  145.7670 C   0  0  2  0  0  3  0  0  0  0  0  0
  190.8660  175.6440  146.4910 C   0  0  0  0  0  2  0  0  0  0  0  0
  193.0180  175.7040  143.2500 S   0  0  0  0  0  0  0  0  0  0  0  0
  190.5590  177.4720  144.7460 C   0  0  0  0  0  0  0  0  0  0  0  0
  191.2830  176.3530  145.2840 N   0  0  0  0  0  0  0  0  0  0  0  0
  197.4590  173.0130  145.7830 O   0  0  0  0  0  0  0  0  0  0  0  0
  197.3470  173.6100  144.7220 C   0  0  0  0  0  0  0  0  0  0  0  0
  197.8120  172.8020  143.1990 S   0  0  0  0  0  0  0  0  0  0  0  0
  196.5930  171.4730  143.4130 C   0  0  0  0  0  2  0  0  0  0  0  0
  195.7830  171.2950  142.1480 C   0  0  1  0  0  3  0  0  0  0  0  0
  194.3560  170.9770  142.5430 C   0  0  1  0  0  3  0  0  0  0  0  0
  194.7230  172.3710  142.0790 C   0  0  0  0  0  2  0  0  0  0  0  0
  193.6830  170.2270  141.4100 C   0  0  0  0  0  2  0  0  0  0  0  0
  191.7290  172.0830  144.0470 O   0  0  0  0  0  0  0  0  0  0  0  0
  191.2820  169.6590  141.1760 N   0  0  2  0  0  0  0  0  0  0  0  0
  191.4430  170.5800  142.3080 N   0  0  0  0  0  0  0  0  0  0  0  0
  192.4100  169.5540  141.9360 C   0  0  2  0  0  3  0  0  0  0  0  0
  190.9960  171.6630  143.1150 C   0  0  0  0  0  0  0  0  0  0  0  0
  190.6730  169.0140  138.0220 C   0  0  0  0  0  3  0  0  0  0  0  0
  190.0730  171.2130  139.6930 C   0  0  0  0  0  2  0  0  0  0  0  0
  189.6270  171.1390  138.2300 C   0  0  0  0  0  2  0  0  0  0  0  0
  191.3970  170.4600  139.9520 C   0  0  2  0  0  3  0  0  0  0  0  0
  189.6540  169.7640  137.7770 N   0  0  0  0  0  0  0  0  0  0  0  0
  191.8490  169.5690  138.7740 C   0  0  0  0  0  2  0  0  0  0  0  0
  189.6060  173.6250  142.6000 C   0  0  0  0  0  1  0  0  0  0  0  0
  189.7500  172.2370  142.8640 O   0  0  0  0  0  0  0  0  0  0  0  0
  189.3060  177.9590  145.3960 C   0  0  0  0  0  2  0  0  0  0  0  0
  188.1720  177.8720  144.4010 C   0  0  0  0  0  2  0  0  0  0  0  0
  186.9060  177.4430  145.0700 C   0  0  0  0  0  0  0  0  0  0  0  0
  186.9670  176.5960  145.9460 O   0  0  0  0  0  0  0  0  0  0  0  0
  184.6340  177.9400  145.8970 C   0  0  0  0  0  1  0  0  0  0  0  0
  185.5870  178.0930  144.7190 C   0  0  1  0  0  0  0  0  0  0  0  0
  185.7730  179.4600  144.5030 O   0  0  0  0  0  1  0  0  0  0  0  0
  185.7740  176.4930  142.9120 O   0  0  0  0  0  1  0  0  0  0  0  0
  184.9460  177.4740  143.4640 C   0  0  2  0  0  3  0  0  0  0  0  0
  184.5970  178.5070  142.3880 C   0  0  0  0  0  2  0  0  0  0  0  0
  185.3200  178.2270  141.0810 C   0  0  0  0  0  2  0  0  0  0  0  0
  184.4020  177.9350  140.0720 O   0  0  0  0  0  1  0  0  0  0  0  0
  195.7570  176.5230  141.4750 C   0  0  0  0  0  2  0  0  0  0  0  0
  195.8940  174.1060  138.7460 C   0  0  0  0  0  3  0  0  0  0  0  0
  196.5340  174.7760  139.7730 C   0  0  0  0  0  3  0  0  0  0  0  0
  194.3800  175.3910  139.6580 C   0  0  0  0  0  3  0  0  0  0  0  0
  195.5620  175.5760  140.3360 C   0  0  0  0  0  0  0  0  0  0  0  0
  194.5990  174.4840  138.6900 N   0  0  0  0  0  0  0  0  0  0  0  0
  192.6700  172.2150  136.4130 C   0  0  0  0  0  3  0  0  0  0  0  0
  193.6130  172.6690  137.3450 C   0  0  0  0  0  3  0  0  0  0  0  0
  191.7370  174.4350  136.2580 C   0  0  0  0  0  0  0  0  0  0  0  0
  193.6280  174.0090  137.7450 C   0  0  0  0  0  0  0  0  0  0  0  0
  190.8260  175.2840  135.7450 F   0  0  0  0  0  0  0  0  0  0  0  0
  192.6780  174.8910  137.1890 C   0  0  0  0  0  3  0  0  0  0  0  0
  191.7340  173.0970  135.8710 C   0  0  0  0  0  3  0  0  0  0  0  0
  1  5  1  0  0  0  0
  3 16  1  6  0  0  0
  3  1  1  0  0  0  0
  4  1  2  0  0  0  0
  6  3  1  0  0  0  0
  7  6  2  0  0  0  0
  7  4  1  0  0  0  0
  8 12  1  6  0  0  0
  8 14  1  0  0  0  0
  8 10  1  0  0  0  0
  9 13  2  0  0  0  0
 10  5  1  1  0  0  0
 10  2  1  0  0  0  0
 11  2  1  0  0  0  0
 12  4  1  0  0  0  0
 13 14  1  0  0  0  0
 13 36  1  0  0  0  0
 14 11  1  0  0  0  0
 16 15  2  0  0  0  0
 17 18  1  0  0  0  0
 17 16  1  0  0  0  0
 19 20  1  0  0  0  0
 19 18  1  1  0  0  0
 20 22  1  6  0  0  0
 21 19  1  0  0  0  0
 21 20  1  0  0  0  0
 24 26  1  0  0  0  0
 24 25  1  1  0  0  0
 25 27  1  0  0  0  0
 26 22  1  6  0  0  0
 26 25  1  0  0  0  0
 27 23  2  0  0  0  0
 28 33  1  0  0  0  0
 29 31  1  0  0  0  0
 30 29  1  0  0  0  0
 31 33  1  6  0  0  0
 31 24  1  0  0  0  0
 32 28  2  0  0  0  0
 32 30  1  0  0  0  0
 34 35  1  0  0  0  0
 35 27  1  0  0  0  0
 37 38  1  0  0  0  0
 37 36  1  0  0  0  0
 38 39  2  0  0  0  0
 41 38  1  0  0  0  0
 41 40  1  1  0  0  0
 42 41  1  0  0  0  0
 44 43  1  6  0  0  0
 44 41  1  0  0  0  0
 45 44  1  0  0  0  0
 46 45  1  0  0  0  0
 47 46  1  0  0  0  0
 48  7  1  0  0  0  0
 49 50  2  0  0  0  0
 50 52  1  0  0  0  0
 51 52  2  0  0  0  0
 52 48  1  0  0  0  0
 53 49  1  0  0  0  0
 53 51  1  0  0  0  0
 54 55  1  0  0  0  0
 55 57  2  0  0  0  0
 56 59  2  0  0  0  0
 57 53  1  0  0  0  0
 58 56  1  0  0  0  0
 59 57  1  0  0  0  0
 60 56  1  0  0  0  0
 60 54  2  0  0  0  0
M  END
>  <MODEL>
4

>  <REMARK>
 VINA RESULT:      -6.4      2.046      2.897
  Name = 
  18 active torsions:
  status: ('A' for Active; 'I' for Inactive)
    1  A    between atoms: C_9  and  C_25
    2  A    between atoms: C_10  and  C_60
    3  A    between atoms: O_12  and  C_48
    4  A    between atoms: C_13  and  C_18
    5  A    between atoms: C_13  and  C_27
    6  A    between atoms: C_15  and  C_24
    7  A    between atoms: C_15  and  C_47
    8  A    between atoms: C_18  and  C_57
    9  A    between atoms: C_20  and  C_42
   10  A    between atoms: C_25  and  S_56
   11  A    between atoms: C_27  and  C_44
   12  A    between atoms: C_28  and  C_29
   13  A    between atoms: C_29  and  C_37
   14  A    between atoms: C_32  and  N_52
   15  A    between atoms: N_40  and  C_50
   16  A    between atoms: C_42  and  S_56
   17  A    between atoms: C_44  and  C_59
   18  A    between atoms: C_59  and  C_60
                            x       y       z     vdW  Elec       q    Type
                         _______ _______ _______ _____ _____    ______ ____

>  <TORSDO>
F 18

$$$$
=
 OpenBabel11042414393D

 60 67  0  0  1  0  0  0  0  0999 V2000
  188.5480  174.2970  140.2120 C   0  0  0  0  0  0  0  0  0  0  0  0
  186.5590  177.6190  140.2220 C   0  0  0  0  0  2  0  0  0  0  0  0
  188.8670  173.0260  139.4990 C   0  0  2  0  0  3  0  0  0  0  0  0
  188.7480  174.1140  141.5160 C   0  0  0  0  0  0  0  0  0  0  0  0
  187.7730  175.4430  139.6000 C   0  0  0  0  0  2  0  0  0  0  0  0
  189.2100  172.1100  140.5840 N   0  0  0  0  0  0  0  0  0  0  0  0
  189.1700  172.7430  141.7030 C   0  0  0  0  0  0  0  0  0  0  0  0
  186.9640  175.9580  141.8920 C   0  0  1  0  0  3  0  0  0  0  0  0
  185.7800  175.9810  144.5320 O   0  0  0  0  0  0  0  0  0  0  0  0
  187.5400  176.5410  140.6280 C   0  0  2  0  0  3  0  0  0  0  0  0
  186.0310  178.1360  141.5580 C   0  0  0  0  0  2  0  0  0  0  0  0
  188.3650  175.2960  142.8340 S   0  0  0  0  0  0  0  0  0  0  0  0
  185.5830  176.9660  143.7750 C   0  0  0  0  0  0  0  0  0  0  0  0
  186.2850  177.0710  142.5260 N   0  0  0  0  0  0  0  0  0  0  0  0
  191.0720  173.7050  138.9770 O   0  0  0  0  0  0  0  0  0  0  0  0
  190.0320  173.1990  138.5780 C   0  0  0  0  0  0  0  0  0  0  0  0
  189.9350  172.5810  136.9060 S   0  0  0  0  0  0  0  0  0  0  0  0
  190.3460  170.8830  137.4010 C   0  0  0  0  0  2  0  0  0  0  0  0
  191.8320  170.7550  137.6530 C   0  0  1  0  0  3  0  0  0  0  0  0
  192.0280  170.2430  139.0650 C   0  0  1  0  0  3  0  0  0  0  0  0
  192.1750  169.3020  137.8880 C   0  0  0  0  0  2  0  0  0  0  0  0
  193.4010  170.6570  139.5570 C   0  0  0  0  0  2  0  0  0  0  0  0
  195.0270  168.9790  142.5150 O   0  0  0  0  0  0  0  0  0  0  0  0
  194.1020  172.3960  141.1770 N   0  0  2  0  0  0  0  0  0  0  0  0
  194.4450  171.0750  141.7200 N   0  0  0  0  0  0  0  0  0  0  0  0
  193.2620  171.3540  140.9150 C   0  0  2  0  0  3  0  0  0  0  0  0
  195.3020  170.2040  142.4490 C   0  0  0  0  0  0  0  0  0  0  0  0
  194.6060  175.0190  139.2800 C   0  0  0  0  0  3  0  0  0  0  0  0
  196.3340  173.3660  140.7860 C   0  0  0  0  0  2  0  0  0  0  0  0
  196.8290  174.5840  140.0020 C   0  0  0  0  0  2  0  0  0  0  0  0
  195.0950  172.7040  140.1420 C   0  0  2  0  0  3  0  0  0  0  0  0
  195.7220  175.4770  139.7310 N   0  0  0  0  0  0  0  0  0  0  0  0
  194.4490  173.5480  139.0210 C   0  0  0  0  0  2  0  0  0  0  0  0
  196.3280  171.7170  144.0940 C   0  0  0  0  0  1  0  0  0  0  0  0
  196.4300  170.7240  143.0830 O   0  0  0  0  0  0  0  0  0  0  0  0
  184.5540  177.9750  144.1630 C   0  0  0  0  0  2  0  0  0  0  0  0
  184.5250  178.0920  145.6700 C   0  0  0  0  0  2  0  0  0  0  0  0
  185.7600  178.7620  146.1780 C   0  0  0  0  0  0  0  0  0  0  0  0
  186.0830  179.8350  145.6940 O   0  0  0  0  0  0  0  0  0  0  0  0
  186.8630  179.2500  148.3320 C   0  0  0  0  0  1  0  0  0  0  0  0
  186.5570  178.1600  147.3140 C   0  0  1  0  0  0  0  0  0  0  0  0
  185.7980  177.1810  147.9590 O   0  0  0  0  0  1  0  0  0  0  0  0
  188.1300  177.8600  145.4990 O   0  0  0  0  0  1  0  0  0  0  0  0
  187.8750  177.5290  146.8330 C   0  0  2  0  0  3  0  0  0  0  0  0
  187.9140  176.0060  146.9940 C   0  0  0  0  0  2  0  0  0  0  0  0
  189.3380  175.4750  146.9850 C   0  0  0  0  0  2  0  0  0  0  0  0
  189.3740  174.1930  146.4340 O   0  0  0  0  0  1  0  0  0  0  0  0
  189.3620  172.0890  143.0360 C   0  0  0  0  0  2  0  0  0  0  0  0
  192.6830  172.1240  144.5470 C   0  0  0  0  0  3  0  0  0  0  0  0
  191.5670  171.4110  144.1470 C   0  0  0  0  0  3  0  0  0  0  0  0
  191.3190  173.5890  143.6700 C   0  0  0  0  0  3  0  0  0  0  0  0
  190.7230  172.3520  143.5950 C   0  0  0  0  0  0  0  0  0  0  0  0
  192.5210  173.4320  144.2510 N   0  0  0  0  0  0  0  0  0  0  0  0
  194.5700  175.9760  146.0910 C   0  0  0  0  0  3  0  0  0  0  0  0
  193.6550  174.9470  145.8300 C   0  0  0  0  0  3  0  0  0  0  0  0
  195.1290  176.0880  143.7450 C   0  0  0  0  0  0  0  0  0  0  0  0
  193.4670  174.4770  144.5270 C   0  0  0  0  0  0  0  0  0  0  0  0
  195.8470  176.6280  142.7430 F   0  0  0  0  0  0  0  0  0  0  0  0
  194.2140  175.0610  143.4840 C   0  0  0  0  0  3  0  0  0  0  0  0
  195.3060  176.5440  145.0500 C   0  0  0  0  0  3  0  0  0  0  0  0
  1  4  2  0  0  0  0
  2 10  1  0  0  0  0
  2 11  1  0  0  0  0
  3 16  1  6  0  0  0
  3  1  1  0  0  0  0
  3  6  1  0  0  0  0
  4  7  1  0  0  0  0
  4 12  1  0  0  0  0
  5  1  1  0  0  0  0
  6  7  2  0  0  0  0
  7 48  1  0  0  0  0
  8 14  1  0  0  0  0
  8 12  1  1  0  0  0
 10  5  1  6  0  0  0
 10  8  1  0  0  0  0
 11 14  1  0  0  0  0
 13 36  1  0  0  0  0
 13  9  2  0  0  0  0
 14 13  1  0  0  0  0
 16 15  2  0  0  0  0
 17 18  1  0  0  0  0
 17 16  1  0  0  0  0
 19 18  1  1  0  0  0
 19 21  1  0  0  0  0
 19 20  1  0  0  0  0
 20 22  1  6  0  0  0
 21 20  1  0  0  0  0
 24 25  1  1  0  0  0
 25 27  1  0  0  0  0
 26 22  1  6  0  0  0
 26 24  1  0  0  0  0
 26 25  1  0  0  0  0
 27 23  2  0  0  0  0
 27 35  1  0  0  0  0
 28 32  2  0  0  0  0
 30 29  1  0  0  0  0
 31 33  1  6  0  0  0
 31 29  1  0  0  0  0
 31 24  1  0  0  0  0
 32 30  1  0  0  0  0
 33 28  1  0  0  0  0
 35 34  1  0  0  0  0
 36 37  1  0  0  0  0
 37 38  1  0  0  0  0
 38 41  1  0  0  0  0
 39 38  2  0  0  0  0
 41 42  1  0  0  0  0
 41 40  1  1  0  0  0
 44 43  1  6  0  0  0
 44 45  1  0  0  0  0
 44 41  1  0  0  0  0
 46 45  1  0  0  0  0
 47 46  1  0  0  0  0
 48 52  1  0  0  0  0
 50 49  2  0  0  0  0
 51 53  1  0  0  0  0
 52 51  2  0  0  0  0
 52 50  1  0  0  0  0
 53 57  1  0  0  0  0
 53 49  1  0  0  0  0
 55 54  1  0  0  0  0
 56 60  1  0  0  0  0
 57 55  2  0  0  0  0
 58 56  1  0  0  0  0
 59 56  2  0  0  0  0
 59 57  1  0  0  0  0
 60 54  2  0  0  0  0
M  END
>  <MODEL>
5

>  <REMARK>
 VINA RESULT:      -6.3      2.795      6.686
  Name = 
  18 active torsions:
  status: ('A' for Active; 'I' for Inactive)
    1  A    between atoms: C_9  and  C_25
    2  A    between atoms: C_10  and  C_60
    3  A    between atoms: O_12  and  C_48
    4  A    between atoms: C_13  and  C_18
    5  A    between atoms: C_13  and  C_27
    6  A    between atoms: C_15  and  C_24
    7  A    between atoms: C_15  and  C_47
    8  A    between atoms: C_18  and  C_57
    9  A    between atoms: C_20  and  C_42
   10  A    between atoms: C_25  and  S_56
   11  A    between atoms: C_27  and  C_44
   12  A    between atoms: C_28  and  C_29
   13  A    between atoms: C_29  and  C_37
   14  A    between atoms: C_32  and  N_52
   15  A    between atoms: N_40  and  C_50
   16  A    between atoms: C_42  and  S_56
   17  A    between atoms: C_44  and  C_59
   18  A    between atoms: C_59  and  C_60
                            x       y       z     vdW  Elec       q    Type
                         _______ _______ _______ _____ _____    ______ ____

>  <TORSDO>
F 18

$$$$
=
 OpenBabel11042414393D

 60 67  0  0  1  0  0  0  0  0999 V2000
  194.3680  172.8810  142.0160 C   0  0  0  0  0  0  0  0  0  0  0  0
  191.0070  171.7270  140.4790 C   0  0  0  0  0  2  0  0  0  0  0  0
  195.6000  172.5070  142.7700 C   0  0  2  0  0  3  0  0  0  0  0  0
  194.1290  174.1770  142.2110 C   0  0  0  0  0  0  0  0  0  0  0  0
  193.3750  171.8850  141.4600 C   0  0  0  0  0  2  0  0  0  0  0  0
  195.9680  173.7470  143.4470 N   0  0  0  0  0  0  0  0  0  0  0  0
  195.1540  174.6800  143.0990 C   0  0  0  0  0  0  0  0  0  0  0  0
  191.6300  173.6210  141.7970 C   0  0  1  0  0  3  0  0  0  0  0  0
  189.7660  175.5990  142.7900 O   0  0  0  0  0  0  0  0  0  0  0  0
  192.1880  172.6030  140.8360 C   0  0  2  0  0  3  0  0  0  0  0  0
  189.8240  172.6910  140.5330 C   0  0  0  0  0  2  0  0  0  0  0  0
  192.6750  175.0950  141.6410 S   0  0  0  0  0  0  0  0  0  0  0  0
  189.3400  174.7050  142.0120 C   0  0  0  0  0  0  0  0  0  0  0  0
  190.2590  173.8080  141.3680 N   0  0  0  0  0  0  0  0  0  0  0  0
  197.6560  172.8000  141.6380 O   0  0  0  0  0  0  0  0  0  0  0  0
  196.6920  172.0760  141.8430 C   0  0  0  0  0  0  0  0  0  0  0  0
  196.6310  170.4530  141.1020 S   0  0  0  0  0  0  0  0  0  0  0  0
  197.4120  171.0150  139.5620 C   0  0  0  0  0  2  0  0  0  0  0  0
  196.4390  170.9040  138.4090 C   0  0  1  0  0  3  0  0  0  0  0  0
  196.1330  172.3030  137.9140 C   0  0  1  0  0  3  0  0  0  0  0  0
  197.0970  171.4200  137.1490 C   0  0  0  0  0  2  0  0  0  0  0  0
  194.7850  172.3000  137.2210 C   0  0  0  0  0  2  0  0  0  0  0  0
  195.4030  175.7920  135.9440 O   0  0  0  0  0  0  0  0  0  0  0  0
  192.6570  173.5680  137.2960 N   0  0  2  0  0  0  0  0  0  0  0  0
  193.7180  174.4500  136.7930 N   0  0  0  0  0  0  0  0  0  0  0  0
  193.9140  173.4190  137.8040 C   0  0  2  0  0  3  0  0  0  0  0  0
  194.1820  175.4920  135.9420 C   0  0  0  0  0  0  0  0  0  0  0  0
  190.3190  171.2970  136.9560 C   0  0  0  0  0  3  0  0  0  0  0  0
  191.2650  173.3620  135.2730 C   0  0  0  0  0  2  0  0  0  0  0  0
  190.1030  172.4430  134.8840 C   0  0  0  0  0  2  0  0  0  0  0  0
  192.2900  172.6680  136.1970 C   0  0  2  0  0  3  0  0  0  0  0  0
  189.5470  171.8250  136.0700 N   0  0  0  0  0  0  0  0  0  0  0  0
  191.8090  171.3120  136.7580 C   0  0  0  0  0  2  0  0  0  0  0  0
  193.0600  177.5650  135.2430 C   0  0  0  0  0  1  0  0  0  0  0  0
  193.2750  176.1660  135.1250 O   0  0  0  0  0  0  0  0  0  0  0  0
  187.8650  174.5480  141.8390 C   0  0  0  0  0  2  0  0  0  0  0  0
  187.1570  175.3920  142.8750 C   0  0  0  0  0  2  0  0  0  0  0  0
  186.6930  176.6830  142.2860 C   0  0  0  0  0  0  0  0  0  0  0  0
  186.4440  176.7250  141.0920 O   0  0  0  0  0  0  0  0  0  0  0  0
  187.5750  177.9640  144.2040 C   0  0  0  0  0  1  0  0  0  0  0  0
  186.4680  177.8970  143.1600 C   0  0  1  0  0  0  0  0  0  0  0  0
  186.5460  179.0590  142.3880 O   0  0  0  0  0  1  0  0  0  0  0  0
  184.0610  178.0410  142.9550 O   0  0  0  0  0  1  0  0  0  0  0  0
  185.1030  177.8620  143.8690 C   0  0  2  0  0  3  0  0  0  0  0  0
  184.9750  178.8960  144.9930 C   0  0  0  0  0  2  0  0  0  0  0  0
  184.3800  178.2890  146.2520 C   0  0  0  0  0  2  0  0  0  0  0  0
  184.9600  177.0470  146.5130 O   0  0  0  0  0  1  0  0  0  0  0  0
  195.1700  176.0580  143.6830 C   0  0  0  0  0  2  0  0  0  0  0  0
  193.3930  176.4670  146.8430 C   0  0  0  0  0  3  0  0  0  0  0  0
  194.5820  176.4920  146.1370 C   0  0  0  0  0  3  0  0  0  0  0  0
  192.8730  175.9770  144.7770 C   0  0  0  0  0  3  0  0  0  0  0  0
  194.2310  176.1850  144.8380 C   0  0  0  0  0  0  0  0  0  0  0  0
  192.3740  176.1580  146.0120 N   0  0  0  0  0  0  0  0  0  0  0  0
  188.9960  174.6770  146.6830 C   0  0  0  0  0  3  0  0  0  0  0  0
  190.3460  174.7930  146.3240 C   0  0  0  0  0  3  0  0  0  0  0  0
  188.9150  177.0370  147.1830 C   0  0  0  0  0  0  0  0  0  0  0  0
  190.9940  176.0290  146.3910 C   0  0  0  0  0  0  0  0  0  0  0  0
  188.2300  178.1150  147.6090 F   0  0  0  0  0  0  0  0  0  0  0  0
  190.2630  177.1540  146.8240 C   0  0  0  0  0  3  0  0  0  0  0  0
  188.2820  175.7970  147.1120 C   0  0  0  0  0  3  0  0  0  0  0  0
  1  4  2  0  0  0  0
  1  3  1  0  0  0  0
  2 11  1  0  0  0  0
  3 16  1  6  0  0  0
  3  6  1  0  0  0  0
  4  7  1  0  0  0  0
  5  1  1  0  0  0  0
  7  6  2  0  0  0  0
  7 48  1  0  0  0  0
  8 12  1  6  0  0  0
 10  2  1  1  0  0  0
 10  5  1  0  0  0  0
 10  8  1  0  0  0  0
 11 14  1  0  0  0  0
 12  4  1  0  0  0  0
 13  9  2  0  0  0  0
 14  8  1  0  0  0  0
 14 13  1  0  0  0  0
 15 16  2  0  0  0  0
 17 16  1  0  0  0  0
 18 17  1  0  0  0  0
 19 18  1  1  0  0  0
 20 22  1  6  0  0  0
 20 19  1  0  0  0  0
 21 20  1  0  0  0  0
 21 19  1  0  0  0  0
 24 25  1  6  0  0  0
 24 26  1  0  0  0  0
 25 26  1  0  0  0  0
 26 22  1  6  0  0  0
 27 23  2  0  0  0  0
 27 25  1  0  0  0  0
 30 29  1  0  0  0  0
 30 32  1  0  0  0  0
 31 29  1  1  0  0  0
 31 33  1  0  0  0  0
 31 24  1  0  0  0  0
 32 28  2  0  0  0  0
 33 28  1  0  0  0  0
 35 34  1  0  0  0  0
 35 27  1  0  0  0  0
 36 13  1  0  0  0  0
 36 37  1  0  0  0  0
 38 37  1  0  0  0  0
 38 41  1  0  0  0  0
 39 38  2  0  0  0  0
 41 44  1  0  0  0  0
 41 40  1  1  0  0  0
 42 41  1  0  0  0  0
 44 43  1  6  0  0  0
 44 45  1  0  0  0  0
 45 46  1  0  0  0  0
 46 47  1  0  0  0  0
 48 52  1  0  0  0  0
 50 49  2  0  0  0  0
 51 52  2  0  0  0  0
 51 53  1  0  0  0  0
 52 50  1  0  0  0  0
 53 57  1  0  0  0  0
 53 49  1  0  0  0  0
 54 60  1  0  0  0  0
 55 57  1  0  0  0  0
 55 54  2  0  0  0  0
 56 58  1  0  0  0  0
 57 59  2  0  0  0  0
 59 56  1  0  0  0  0
 60 56  2  0  0  0  0
M  END
>  <MODEL>
6

>  <REMARK>
 VINA RESULT:      -6.0      3.261      6.353
  Name = 
  18 active torsions:
  status: ('A' for Active; 'I' for Inactive)
    1  A    between atoms: C_9  and  C_25
    2  A    between atoms: C_10  and  C_60
    3  A    between atoms: O_12  and  C_48
    4  A    between atoms: C_13  and  C_18
    5  A    between atoms: C_13  and  C_27
    6  A    between atoms: C_15  and  C_24
    7  A    between atoms: C_15  and  C_47
    8  A    between atoms: C_18  and  C_57
    9  A    between atoms: C_20  and  C_42
   10  A    between atoms: C_25  and  S_56
   11  A    between atoms: C_27  and  C_44
   12  A    between atoms: C_28  and  C_29
   13  A    between atoms: C_29  and  C_37
   14  A    between atoms: C_32  and  N_52
   15  A    between atoms: N_40  and  C_50
   16  A    between atoms: C_42  and  S_56
   17  A    between atoms: C_44  and  C_59
   18  A    between atoms: C_59  and  C_60
                            x       y       z     vdW  Elec       q    Type
                         _______ _______ _______ _____ _____    ______ ____

>  <TORSDO>
F 18

$$$$
=
 OpenBabel11042414393D

 60 67  0  0  1  0  0  0  0  0999 V2000
  190.1470  173.6300  142.2440 C   0  0  0  0  0  0  0  0  0  0  0  0
  187.8060  174.5630  139.3050 C   0  0  0  0  0  2  0  0  0  0  0  0
  190.6800  172.5580  143.1350 C   0  0  2  0  0  3  0  0  0  0  0  0
  190.2300  174.7950  142.8850 C   0  0  0  0  0  0  0  0  0  0  0  0
  189.3160  173.3720  141.0070 C   0  0  0  0  0  2  0  0  0  0  0  0
  191.0090  173.2770  144.3630 N   0  0  0  0  0  0  0  0  0  0  0  0
  190.7810  174.5310  144.1970 C   0  0  0  0  0  0  0  0  0  0  0  0
  188.2190  175.5600  141.4370 C   0  0  1  0  0  3  0  0  0  0  0  0
  186.7730  177.8400  142.4770 O   0  0  0  0  0  0  0  0  0  0  0  0
  188.8550  174.6840  140.3890 C   0  0  2  0  0  3  0  0  0  0  0  0
  187.0860  175.9090  139.3580 C   0  0  0  0  0  2  0  0  0  0  0  0
  189.5800  176.3840  142.3070 S   0  0  0  0  0  0  0  0  0  0  0  0
  186.5450  177.4690  141.2960 C   0  0  0  0  0  0  0  0  0  0  0  0
  187.3580  176.4520  140.6880 N   0  0  0  0  0  0  0  0  0  0  0  0
  193.0140  172.4040  142.7790 O   0  0  0  0  0  0  0  0  0  0  0  0
  191.9080  171.9320  142.5540 C   0  0  0  0  0  0  0  0  0  0  0  0
  191.7640  170.4320  141.5980 S   0  0  0  0  0  0  0  0  0  0  0  0
  192.8500  171.0470  140.2780 C   0  0  0  0  0  2  0  0  0  0  0  0
  192.1110  172.0450  139.4140 C   0  0  1  0  0  3  0  0  0  0  0  0
  192.9040  172.2410  138.1380 C   0  0  1  0  0  3  0  0  0  0  0  0
  191.6660  171.3670  138.1380 C   0  0  0  0  0  2  0  0  0  0  0  0
  192.5670  173.5960  137.5480 C   0  0  0  0  0  2  0  0  0  0  0  0
  188.9580  173.4150  136.4740 O   0  0  0  0  0  0  0  0  0  0  0  0
  192.3580  174.5620  135.2750 N   0  0  2  0  0  0  0  0  0  0  0  0
  191.0370  174.0990  135.7170 N   0  0  0  0  0  0  0  0  0  0  0  0
  192.2940  173.4390  136.0470 C   0  0  2  0  0  3  0  0  0  0  0  0
  189.6210  174.2300  135.7850 C   0  0  0  0  0  0  0  0  0  0  0  0
  195.0400  176.4220  135.5660 C   0  0  0  0  0  3  0  0  0  0  0  0
  192.3240  177.0160  135.0520 C   0  0  0  0  0  2  0  0  0  0  0  0
  193.4130  178.0920  135.0960 C   0  0  0  0  0  2  0  0  0  0  0  0
  192.6300  175.8190  135.9800 C   0  0  2  0  0  3  0  0  0  0  0  0
  194.7140  177.4820  134.9100 N   0  0  0  0  0  0  0  0  0  0  0  0
  194.0700  175.8150  136.5390 C   0  0  0  0  0  2  0  0  0  0  0  0
  187.8890  175.9680  135.6210 C   0  0  0  0  0  1  0  0  0  0  0  0
  188.9930  175.2570  135.0800 O   0  0  0  0  0  0  0  0  0  0  0  0
  185.3740  178.0490  140.5750 C   0  0  0  0  0  2  0  0  0  0  0  0
  184.1900  178.0890  141.5150 C   0  0  0  0  0  2  0  0  0  0  0  0
  182.9040  178.0530  140.7560 C   0  0  0  0  0  0  0  0  0  0  0  0
  182.8490  177.3960  139.7290 O   0  0  0  0  0  0  0  0  0  0  0  0
  181.8840  179.0820  142.7550 C   0  0  0  0  0  1  0  0  0  0  0  0
  181.6750  178.7600  141.2820 C   0  0  1  0  0  0  0  0  0  0  0  0
  181.4970  179.9700  140.6070 O   0  0  0  0  0  1  0  0  0  0  0  0
  180.0130  177.8380  139.7820 O   0  0  0  0  0  1  0  0  0  0  0  0
  180.4010  177.9120  141.1230 C   0  0  2  0  0  3  0  0  0  0  0  0
  179.2240  178.4190  141.9630 C   0  0  0  0  0  2  0  0  0  0  0  0
  178.0360  177.4730  141.8990 C   0  0  0  0  0  2  0  0  0  0  0  0
  178.2170  176.4070  142.7810 O   0  0  0  0  0  1  0  0  0  0  0  0
  190.9070  175.5510  145.2850 C   0  0  0  0  0  2  0  0  0  0  0  0
  187.8400  175.8270  147.2430 C   0  0  0  0  0  3  0  0  0  0  0  0
  189.0860  175.2530  147.0600 C   0  0  0  0  0  3  0  0  0  0  0  0
  188.6660  176.7490  145.4420 C   0  0  0  0  0  3  0  0  0  0  0  0
  189.5890  175.8500  145.9230 C   0  0  0  0  0  0  0  0  0  0  0  0
  187.6020  176.7260  146.2640 N   0  0  0  0  0  0  0  0  0  0  0  0
  184.0910  177.9670  146.6950 C   0  0  0  0  0  3  0  0  0  0  0  0
  185.2570  177.2040  146.8510 C   0  0  0  0  0  3  0  0  0  0  0  0
  185.2060  179.3600  145.0700 C   0  0  0  0  0  0  0  0  0  0  0  0
  186.4080  177.5110  146.1200 C   0  0  0  0  0  0  0  0  0  0  0  0
  185.1860  180.4060  144.2220 F   0  0  0  0  0  0  0  0  0  0  0  0
  186.3710  178.5990  145.2240 C   0  0  0  0  0  3  0  0  0  0  0  0
  184.0670  179.0430  145.8070 C   0  0  0  0  0  3  0  0  0  0  0  0
  1  4  2  0  0  0  0
  1  3  1  0  0  0  0
  2 11  1  0  0  0  0
  3 16  1  6  0  0  0
  3  6  1  0  0  0  0
  4  7  1  0  0  0  0
  5  1  1  0  0  0  0
  7  6  2  0  0  0  0
  7 48  1  0  0  0  0
  8 12  1  6  0  0  0
 10  2  1  6  0  0  0
 10  5  1  0  0  0  0
 10  8  1  0  0  0  0
 11 14  1  0  0  0  0
 12  4  1  0  0  0  0
 13  9  2  0  0  0  0
 14 13  1  0  0  0  0
 14  8  1  0  0  0  0
 16 15  2  0  0  0  0
 17 16  1  0  0  0  0
 18 17  1  0  0  0  0
 19 18  1  1  0  0  0
 20 22  1  6  0  0  0
 20 19  1  0  0  0  0
 21 20  1  0  0  0  0
 21 19  1  0  0  0  0
 24 25  1  1  0  0  0
 24 31  1  0  0  0  0
 24 26  1  0  0  0  0
 25 27  1  0  0  0  0
 25 26  1  0  0  0  0
 26 22  1  1  0  0  0
 27 23  2  0  0  0  0
 28 33  1  0  0  0  0
 29 30  1  0  0  0  0
 31 29  1  6  0  0  0
 31 33  1  0  0  0  0
 32 30  1  0  0  0  0
 32 28  2  0  0  0  0
 35 34  1  0  0  0  0
 35 27  1  0  0  0  0
 36 13  1  0  0  0  0
 36 37  1  0  0  0  0
 38 41  1  0  0  0  0
 38 37  1  0  0  0  0
 39 38  2  0  0  0  0
 41 40  1  1  0  0  0
 42 41  1  0  0  0  0
 44 43  1  6  0  0  0
 44 41  1  0  0  0  0
 44 45  1  0  0  0  0
 46 45  1  0  0  0  0
 46 47  1  0  0  0  0
 48 52  1  0  0  0  0
 50 49  2  0  0  0  0
 51 52  2  0  0  0  0
 51 53  1  0  0  0  0
 52 50  1  0  0  0  0
 53 49  1  0  0  0  0
 54 55  1  0  0  0  0
 56 59  2  0  0  0  0
 56 60  1  0  0  0  0
 57 53  1  0  0  0  0
 57 55  2  0  0  0  0
 58 56  1  0  0  0  0
 59 57  1  0  0  0  0
 60 54  2  0  0  0  0
M  END
>  <MODEL>
7

>  <REMARK>
 VINA RESULT:      -5.7      4.470      8.507
  Name = 
  18 active torsions:
  status: ('A' for Active; 'I' for Inactive)
    1  A    between atoms: C_9  and  C_25
    2  A    between atoms: C_10  and  C_60
    3  A    between atoms: O_12  and  C_48
    4  A    between atoms: C_13  and  C_18
    5  A    between atoms: C_13  and  C_27
    6  A    between atoms: C_15  and  C_24
    7  A    between atoms: C_15  and  C_47
    8  A    between atoms: C_18  and  C_57
    9  A    between atoms: C_20  and  C_42
   10  A    between atoms: C_25  and  S_56
   11  A    between atoms: C_27  and  C_44
   12  A    between atoms: C_28  and  C_29
   13  A    between atoms: C_29  and  C_37
   14  A    between atoms: C_32  and  N_52
   15  A    between atoms: N_40  and  C_50
   16  A    between atoms: C_42  and  S_56
   17  A    between atoms: C_44  and  C_59
   18  A    between atoms: C_59  and  C_60
                            x       y       z     vdW  Elec       q    Type
                         _______ _______ _______ _____ _____    ______ ____

>  <TORSDO>
F 18

$$$$
=
 OpenBabel11042414393D

 60 67  0  0  1  0  0  0  0  0999 V2000
  188.1090  175.9330  144.2870 C   0  0  0  0  0  0  0  0  0  0  0  0
  189.6070  173.0030  142.2470 C   0  0  0  0  0  2  0  0  0  0  0  0
  187.3370  176.3610  145.4910 C   0  0  2  0  0  3  0  0  0  0  0  0
  187.9650  176.8580  143.3400 C   0  0  0  0  0  0  0  0  0  0  0  0
  188.6270  174.5300  144.0650 C   0  0  0  0  0  2  0  0  0  0  0  0
  186.7080  177.6070  145.0590 N   0  0  0  0  0  0  0  0  0  0  0  0
  187.0940  177.8870  143.8650 C   0  0  0  0  0  0  0  0  0  0  0  0
  188.3630  174.9480  141.6310 C   0  0  1  0  0  3  0  0  0  0  0  0
  187.4520  175.5150  138.9440 O   0  0  0  0  0  0  0  0  0  0  0  0
  189.2810  174.4110  142.6970 C   0  0  2  0  0  3  0  0  0  0  0  0
  189.5930  173.1070  140.7240 C   0  0  0  0  0  2  0  0  0  0  0  0
  188.5730  176.7490  141.6370 S   0  0  0  0  0  0  0  0  0  0  0  0
  188.1940  174.5160  139.1300 C   0  0  0  0  0  0  0  0  0  0  0  0
  188.8020  174.2960  140.4140 N   0  0  0  0  0  0  0  0  0  0  0  0
  188.2330  177.6920  147.2300 O   0  0  0  0  0  0  0  0  0  0  0  0
  188.2440  176.6130  146.6530 C   0  0  0  0  0  0  0  0  0  0  0  0
  189.2860  175.2960  147.2600 S   0  0  0  0  0  0  0  0  0  0  0  0
  190.7610  176.3530  147.3210 C   0  0  0  0  0  2  0  0  0  0  0  0
  192.0140  175.5060  147.3380 C   0  0  1  0  0  3  0  0  0  0  0  0
  192.6120  175.5220  145.9460 C   0  0  1  0  0  3  0  0  0  0  0  0
  193.2110  176.3790  147.0410 C   0  0  0  0  0  2  0  0  0  0  0  0
  193.4590  174.2790  145.7550 C   0  0  0  0  0  2  0  0  0  0  0  0
  195.4010  176.4310  143.3450 O   0  0  0  0  0  0  0  0  0  0  0  0
  194.2640  172.8630  143.8870 N   0  0  2  0  0  0  0  0  0  0  0  0
  194.6910  174.2480  143.6520 N   0  0  0  0  0  0  0  0  0  0  0  0
  193.4310  173.8700  144.2780 C   0  0  2  0  0  3  0  0  0  0  0  0
  195.6360  175.2060  143.1890 C   0  0  0  0  0  0  0  0  0  0  0  0
  194.5630  169.8800  145.2080 C   0  0  0  0  0  3  0  0  0  0  0  0
  196.4410  171.7750  144.2740 C   0  0  0  0  0  2  0  0  0  0  0  0
  196.8500  170.4040  144.8190 C   0  0  0  0  0  2  0  0  0  0  0  0
  195.1460  172.3130  144.9230 C   0  0  2  0  0  3  0  0  0  0  0  0
  195.7180  169.5010  144.7800 N   0  0  0  0  0  0  0  0  0  0  0  0
  194.3870  171.2640  145.7650 C   0  0  0  0  0  2  0  0  0  0  0  0
  196.7740  174.0480  141.3420 C   0  0  0  0  0  1  0  0  0  0  0  0
  196.8050  174.7700  142.5640 O   0  0  0  0  0  0  0  0  0  0  0  0
  188.3650  173.5320  138.0210 C   0  0  0  0  0  2  0  0  0  0  0  0
  189.2120  174.1570  136.9360 C   0  0  0  0  0  2  0  0  0  0  0  0
  190.5560  173.5100  136.8680 C   0  0  0  0  0  0  0  0  0  0  0  0
  191.3590  173.7350  137.7590 O   0  0  0  0  0  0  0  0  0  0  0  0
  189.7520  172.5280  134.7500 C   0  0  0  0  0  1  0  0  0  0  0  0
  190.8950  172.5420  135.7560 C   0  0  1  0  0  0  0  0  0  0  0  0
  192.0420  172.9720  135.0850 O   0  0  0  0  0  1  0  0  0  0  0  0
  191.7620  170.3270  135.3100 O   0  0  0  0  0  1  0  0  0  0  0  0
  191.1310  171.1140  136.2770 C   0  0  2  0  0  3  0  0  0  0  0  0
  189.8470  170.4160  136.7400 C   0  0  0  0  0  2  0  0  0  0  0  0
  190.0680  169.6170  138.0130 C   0  0  0  0  0  2  0  0  0  0  0  0
  190.7270  170.3950  138.9660 O   0  0  0  0  0  1  0  0  0  0  0  0
  186.5640  179.0380  143.0690 C   0  0  0  0  0  2  0  0  0  0  0  0
  184.0740  177.9170  140.6490 C   0  0  0  0  0  3  0  0  0  0  0  0
  185.4020  178.0520  141.0110 C   0  0  0  0  0  3  0  0  0  0  0  0
  184.0650  178.8700  142.6160 C   0  0  0  0  0  3  0  0  0  0  0  0
  185.3730  178.6510  142.2540 C   0  0  0  0  0  0  0  0  0  0  0  0
  183.2810  178.4110  141.6250 N   0  0  0  0  0  0  0  0  0  0  0  0
  179.7240  179.0430  142.6250 C   0  0  0  0  0  3  0  0  0  0  0  0
  181.1250  179.0180  142.6530 C   0  0  0  0  0  3  0  0  0  0  0  0
  179.7350  177.9340  140.4810 C   0  0  0  0  0  0  0  0  0  0  0  0
  181.8460  178.4520  141.5970 C   0  0  0  0  0  0  0  0  0  0  0  0
  179.0680  177.4230  139.4290 F   0  0  0  0  0  0  0  0  0  0  0  0
  181.1340  177.9070  140.5080 C   0  0  0  0  0  3  0  0  0  0  0  0
  179.0310  178.5020  141.5410 C   0  0  0  0  0  3  0  0  0  0  0  0
  1  3  1  0  0  0  0
  3 16  1  1  0  0  0
  4  7  1  0  0  0  0
  4  1  2  0  0  0  0
  5  1  1  0  0  0  0
  6  3  1  0  0  0  0
  7  6  2  0  0  0  0
  8 12  1  6  0  0  0
  8 10  1  0  0  0  0
  9 13  2  0  0  0  0
 10  2  1  6  0  0  0
 10  5  1  0  0  0  0
 11  2  1  0  0  0  0
 12  4  1  0  0  0  0
 13 14  1  0  0  0  0
 14 11  1  0  0  0  0
 14  8  1  0  0  0  0
 16 15  2  0  0  0  0
 16 17  1  0  0  0  0
 17 18  1  0  0  0  0
 19 18  1  6  0  0  0
 20 22  1  1  0  0  0
 20 21  1  0  0  0  0
 20 19  1  0  0  0  0
 21 19  1  0  0  0  0
 24 25  1  6  0  0  0
 24 26  1  0  0  0  0
 24 31  1  0  0  0  0
 25 26  1  0  0  0  0
 26 22  1  1  0  0  0
 27 23  2  0  0  0  0
 27 25  1  0  0  0  0
 28 33  1  0  0  0  0
 29 30  1  0  0  0  0
 31 29  1  6  0  0  0
 31 33  1  0  0  0  0
 32 30  1  0  0  0  0
 32 28  2  0  0  0  0
 34 35  1  0  0  0  0
 35 27  1  0  0  0  0
 36 13  1  0  0  0  0
 37 36  1  0  0  0  0
 38 37  1  0  0  0  0
 38 39  2  0  0  0  0
 41 40  1  6  0  0  0
 41 44  1  0  0  0  0
 41 38  1  0  0  0  0
 42 41  1  0  0  0  0
 44 43  1  6  0  0  0
 44 45  1  0  0  0  0
 45 46  1  0  0  0  0
 46 47  1  0  0  0  0
 48  7  1  0  0  0  0
 49 50  2  0  0  0  0
 49 53  1  0  0  0  0
 50 52  1  0  0  0  0
 52 51  2  0  0  0  0
 52 48  1  0  0  0  0
 53 51  1  0  0  0  0
 54 55  1  0  0  0  0
 56 59  2  0  0  0  0
 56 60  1  0  0  0  0
 57 53  1  0  0  0  0
 57 55  2  0  0  0  0
 58 56  1  0  0  0  0
 59 57  1  0  0  0  0
 60 54  2  0  0  0  0
M  END
>  <MODEL>
8

>  <REMARK>
 VINA RESULT:      -5.7      4.397     10.542
  Name = 
  18 active torsions:
  status: ('A' for Active; 'I' for Inactive)
    1  A    between atoms: C_9  and  C_25
    2  A    between atoms: C_10  and  C_60
    3  A    between atoms: O_12  and  C_48
    4  A    between atoms: C_13  and  C_18
    5  A    between atoms: C_13  and  C_27
    6  A    between atoms: C_15  and  C_24
    7  A    between atoms: C_15  and  C_47
    8  A    between atoms: C_18  and  C_57
    9  A    between atoms: C_20  and  C_42
   10  A    between atoms: C_25  and  S_56
   11  A    between atoms: C_27  and  C_44
   12  A    between atoms: C_28  and  C_29
   13  A    between atoms: C_29  and  C_37
   14  A    between atoms: C_32  and  N_52
   15  A    between atoms: N_40  and  C_50
   16  A    between atoms: C_42  and  S_56
   17  A    between atoms: C_44  and  C_59
   18  A    between atoms: C_59  and  C_60
                            x       y       z     vdW  Elec       q    Type
                         _______ _______ _______ _____ _____    ______ ____

>  <TORSDO>
F 18

$$$$
=
 OpenBabel11042414393D

 60 67  0  0  1  0  0  0  0  0999 V2000
  190.8730  171.4000  140.2110 C   0  0  0  0  0  0  0  0  0  0  0  0
  190.0830  173.3960  143.4330 C   0  0  0  0  0  2  0  0  0  0  0  0
  191.9100  170.7430  139.3610 C   0  0  2  0  0  3  0  0  0  0  0  0
  189.8470  171.7470  139.4360 C   0  0  0  0  0  0  0  0  0  0  0  0
  191.1230  171.9140  141.6110 C   0  0  0  0  0  2  0  0  0  0  0  0
  191.3450  170.8300  138.0170 N   0  0  0  0  0  0  0  0  0  0  0  0
  190.1770  171.3660  138.0800 C   0  0  0  0  0  0  0  0  0  0  0  0
  189.3810  173.6270  141.1610 C   0  0  1  0  0  3  0  0  0  0  0  0
  187.7390  175.7970  140.1760 O   0  0  0  0  0  0  0  0  0  0  0  0
  189.8850  172.6130  142.1540 C   0  0  2  0  0  3  0  0  0  0  0  0
  188.9880  174.4580  143.3700 C   0  0  0  0  0  2  0  0  0  0  0  0
  188.3980  172.7080  139.9460 S   0  0  0  0  0  0  0  0  0  0  0  0
  187.9550  175.7180  141.4130 C   0  0  0  0  0  0  0  0  0  0  0  0
  188.6220  174.5680  141.9590 N   0  0  0  0  0  0  0  0  0  0  0  0
  191.1450  168.5590  139.8530 O   0  0  0  0  0  0  0  0  0  0  0  0
  192.1040  169.3130  139.7520 C   0  0  0  0  0  0  0  0  0  0  0  0
  193.7560  168.6790  139.9860 S   0  0  0  0  0  0  0  0  0  0  0  0
  193.7030  168.9160  141.7860 C   0  0  0  0  0  2  0  0  0  0  0  0
  194.7890  169.8750  142.2210 C   0  0  1  0  0  3  0  0  0  0  0  0
  194.2240  170.7610  143.3120 C   0  0  1  0  0  3  0  0  0  0  0  0
  195.1400  169.6080  143.6670 C   0  0  0  0  0  2  0  0  0  0  0  0
  195.0070  172.0590  143.3520 C   0  0  0  0  0  2  0  0  0  0  0  0
  196.0450  174.9680  145.5130 O   0  0  0  0  0  0  0  0  0  0  0  0
  194.0210  174.1360  142.4260 N   0  0  2  0  0  0  0  0  0  0  0  0
  194.7830  174.4700  143.6360 N   0  0  0  0  0  0  0  0  0  0  0  0
  194.0300  173.2360  143.4510 C   0  0  2  0  0  3  0  0  0  0  0  0
  195.6300  175.3350  144.3850 C   0  0  0  0  0  0  0  0  0  0  0  0
  193.7350  173.8110  139.1790 C   0  0  0  0  0  3  0  0  0  0  0  0
  195.5170  175.2630  140.8240 C   0  0  0  0  0  2  0  0  0  0  0  0
  195.5710  175.3160  139.2940 C   0  0  0  0  0  2  0  0  0  0  0  0
  194.9970  173.9080  141.3550 C   0  0  2  0  0  3  0  0  0  0  0  0
  194.3060  174.8790  138.7420 N   0  0  0  0  0  0  0  0  0  0  0  0
  194.3870  173.0010  140.2640 C   0  0  0  0  0  2  0  0  0  0  0  0
  197.2070  176.7800  143.1730 C   0  0  0  0  0  1  0  0  0  0  0  0
  195.9800  176.5780  143.8570 O   0  0  0  0  0  0  0  0  0  0  0  0
  187.5750  176.8700  142.2830 C   0  0  0  0  0  2  0  0  0  0  0  0
  186.2380  176.5800  142.9250 C   0  0  0  0  0  2  0  0  0  0  0  0
  185.3110  177.7430  142.7780 C   0  0  0  0  0  0  0  0  0  0  0  0
  184.8490  177.9860  141.6750 O   0  0  0  0  0  0  0  0  0  0  0  0
  185.6870  179.8630  143.9860 C   0  0  0  0  0  1  0  0  0  0  0  0
  184.8980  178.5610  143.9810 C   0  0  1  0  0  0  0  0  0  0  0  0
  183.5440  178.8900  143.8880 O   0  0  0  0  0  1  0  0  0  0  0  0
  184.0670  177.9990  146.1840 O   0  0  0  0  0  1  0  0  0  0  0  0
  185.1380  177.8160  145.3050 C   0  0  2  0  0  3  0  0  0  0  0  0
  186.4410  178.2210  146.0030 C   0  0  0  0  0  2  0  0  0  0  0  0
  186.2980  178.2070  147.5160 C   0  0  0  0  0  2  0  0  0  0  0  0
  186.1830  176.8960  147.9810 O   0  0  0  0  0  1  0  0  0  0  0  0
  189.3530  171.7060  136.8780 C   0  0  0  0  0  2  0  0  0  0  0  0
  190.3790  174.2970  134.5230 C   0  0  0  0  0  3  0  0  0  0  0  0
  189.4760  173.3160  134.8900 C   0  0  0  0  0  3  0  0  0  0  0  0
  191.1220  173.4750  136.4070 C   0  0  0  0  0  3  0  0  0  0  0  0
  189.9610  172.8140  136.0810 C   0  0  0  0  0  0  0  0  0  0  0  0
  191.3620  174.3840  135.4450 N   0  0  0  0  0  0  0  0  0  0  0  0
  193.3830  177.5380  135.3240 C   0  0  0  0  0  3  0  0  0  0  0  0
  192.2870  176.6670  135.3870 C   0  0  0  0  0  3  0  0  0  0  0  0
  194.8920  175.6550  135.2760 C   0  0  0  0  0  0  0  0  0  0  0  0
  192.4800  175.2820  135.3950 C   0  0  0  0  0  0  0  0  0  0  0  0
  196.1460  175.1660  135.2360 F   0  0  0  0  0  0  0  0  0  0  0  0
  193.7980  174.7830  135.3380 C   0  0  0  0  0  3  0  0  0  0  0  0
  194.6830  177.0320  135.2700 C   0  0  0  0  0  3  0  0  0  0  0  0
  1  5  1  0  0  0  0
  3 16  1  1  0  0  0
  3  1  1  0  0  0  0
  4 12  1  0  0  0  0
  4  1  2  0  0  0  0
  6  7  2  0  0  0  0
  6  3  1  0  0  0  0
  7  4  1  0  0  0  0
  8 12  1  6  0  0  0
  8 14  1  0  0  0  0
  8 10  1  0  0  0  0
  9 13  2  0  0  0  0
 10  5  1  6  0  0  0
 10  2  1  0  0  0  0
 11  2  1  0  0  0  0
 13 14  1  0  0  0  0
 13 36  1  0  0  0  0
 14 11  1  0  0  0  0
 16 15  2  0  0  0  0
 16 17  1  0  0  0  0
 17 18  1  0  0  0  0
 19 18  1  1  0  0  0
 19 20  1  0  0  0  0
 19 21  1  0  0  0  0
 20 22  1  6  0  0  0
 20 21  1  0  0  0  0
 24 26  1  0  0  0  0
 24 25  1  1  0  0  0
 25 27  1  0  0  0  0
 26 22  1  6  0  0  0
 26 25  1  0  0  0  0
 27 23  2  0  0  0  0
 28 33  1  0  0  0  0
 29 31  1  0  0  0  0
 30 29  1  0  0  0  0
 31 33  1  6  0  0  0
 31 24  1  0  0  0  0
 32 28  2  0  0  0  0
 32 30  1  0  0  0  0
 34 35  1  0  0  0  0
 35 27  1  0  0  0  0
 36 37  1  0  0  0  0
 38 37  1  0  0  0  0
 38 41  1  0  0  0  0
 39 38  2  0  0  0  0
 41 40  1  1  0  0  0
 41 44  1  0  0  0  0
 42 41  1  0  0  0  0
 44 45  1  0  0  0  0
 44 43  1  1  0  0  0
 45 46  1  0  0  0  0
 46 47  1  0  0  0  0
 48  7  1  0  0  0  0
 49 50  2  0  0  0  0
 49 53  1  0  0  0  0
 50 52  1  0  0  0  0
 52 51  2  0  0  0  0
 52 48  1  0  0  0  0
 53 51  1  0  0  0  0
 54 55  1  0  0  0  0
 55 57  2  0  0  0  0
 56 59  2  0  0  0  0
 57 53  1  0  0  0  0
 58 56  1  0  0  0  0
 59 57  1  0  0  0  0
 60 56  1  0  0  0  0
 60 54  2  0  0  0  0
M  END
>  <MODEL>
9

>  <REMARK>
 VINA RESULT:      -5.7      3.089      5.918
  Name = 
  18 active torsions:
  status: ('A' for Active; 'I' for Inactive)
    1  A    between atoms: C_9  and  C_25
    2  A    between atoms: C_10  and  C_60
    3  A    between atoms: O_12  and  C_48
    4  A    between atoms: C_13  and  C_18
    5  A    between atoms: C_13  and  C_27
    6  A    between atoms: C_15  and  C_24
    7  A    between atoms: C_15  and  C_47
    8  A    between atoms: C_18  and  C_57
    9  A    between atoms: C_20  and  C_42
   10  A    between atoms: C_25  and  S_56
   11  A    between atoms: C_27  and  C_44
   12  A    between atoms: C_28  and  C_29
   13  A    between atoms: C_29  and  C_37
   14  A    between atoms: C_32  and  N_52
   15  A    between atoms: N_40  and  C_50
   16  A    between atoms: C_42  and  S_56
   17  A    between atoms: C_44  and  C_59
   18  A    between atoms: C_59  and  C_60
                            x       y       z     vdW  Elec       q    Type
                         _______ _______ _______ _____ _____    ______ ____

>  <TORSDO>
F 18

$$$$
