=
 OpenBabel11042418533D

 27 31  0  0  1  0  0  0  0  0999 V2000
  188.1490  176.6800  144.5420 C   0  0  0  0  0  3  0  0  0  0  0  0
  186.9570  176.4960  143.8440 C   0  0  0  0  0  0  0  0  0  0  0  0
  188.1740  175.2810  142.1330 C   0  0  0  0  0  0  0  0  0  0  0  0
  186.9690  175.7920  142.6340 C   0  0  0  0  0  3  0  0  0  0  0  0
  189.3430  176.1600  144.0270 C   0  0  0  0  0  0  0  0  0  0  0  0
  189.3190  175.4780  142.8470 N   0  0  0  0  0  0  0  0  0  0  0  0
  188.4100  173.1880  140.7960 C   0  0  0  0  0  0  0  0  0  0  0  0
  188.4020  172.4660  139.5130 C   0  0  0  0  0  3  0  0  0  0  0  0
  188.6590  172.4470  141.9450 O   0  0  0  0  0  1  0  0  0  0  0  0
  187.6980  175.0220  137.2210 O   0  0  0  0  0  0  0  0  0  0  0  0
  188.1770  173.0710  138.3900 N   0  0  0  0  0  0  0  0  0  0  0  0
  188.1860  174.5230  140.8480 C   0  0  0  0  0  0  0  0  0  0  0  0
  187.9500  175.3120  139.5750 C   0  0  0  0  0  2  0  0  0  0  0  0
  187.9280  174.4770  138.3310 C   0  0  0  0  0  0  0  0  0  0  0  0
  191.8980  176.3880  146.8190 C   0  0  0  0  0  3  0  0  0  0  0  0
  190.6210  176.3400  144.7490 C   0  0  0  0  0  0  0  0  0  0  0  0
  194.3490  176.8690  146.8160 C   0  0  0  0  0  1  0  0  0  0  0  0
  190.6850  176.2150  146.1460 C   0  0  0  0  0  3  0  0  0  0  0  0
  191.7940  176.6400  144.0380 C   0  0  0  0  0  3  0  0  0  0  0  0
  193.0070  176.8130  144.7100 C   0  0  0  0  0  3  0  0  0  0  0  0
  193.0590  176.6860  146.1010 C   0  0  0  0  0  0  0  0  0  0  0  0
  185.7480  178.9930  146.7960 C   0  0  0  0  0  2  0  0  0  0  0  0
  185.5130  176.6960  145.8660 C   0  0  0  0  0  2  0  0  0  0  0  0
  185.6870  177.0560  144.4060 C   0  0  1  0  0  3  0  0  0  0  0  0
  184.8780  179.0390  145.5550 C   0  0  2  0  0  3  0  0  0  0  0  0
  184.7810  177.8590  146.5130 C   0  0  2  0  0  3  0  0  0  0  0  0
  185.6660  178.5670  144.3450 C   0  0  0  0  0  2  0  0  0  0  0  0
  2  1  2  0  0  0  0
  3  4  2  0  0  0  0
  3  6  1  0  0  0  0
  4  2  1  0  0  0  0
  5  1  1  0  0  0  0
  5 16  1  0  0  0  0
  6  5  2  0  0  0  0
  7 12  2  0  0  0  0
  7  9  1  0  0  0  0
  8  7  1  0  0  0  0
 10 14  2  0  0  0  0
 11  8  2  0  0  0  0
 12  3  1  0  0  0  0
 13 12  1  0  0  0  0
 14 11  1  0  0  0  0
 14 13  1  0  0  0  0
 16 18  2  0  0  0  0
 18 15  1  0  0  0  0
 19 20  2  0  0  0  0
 19 16  1  0  0  0  0
 20 21  1  0  0  0  0
 21 17  1  0  0  0  0
 21 15  2  0  0  0  0
 24  2  1  1  0  0  0
 24 23  1  0  0  0  0
 25 27  1  6  0  0  0
 25 26  1  0  0  0  0
 25 22  1  0  0  0  0
 26 23  1  6  0  0  0
 26 22  1  0  0  0  0
 27 24  1  0  0  0  0
M  END
>  <MODEL>
1

>  <REMARK>
 VINA RESULT:      -8.0      0.000      0.000
  Name = 
  3 active torsions:
  status: ('A' for Active; 'I' for Inactive)
    1  A    between atoms: C_5  and  C_11
    2  A    between atoms: C_6  and  C_17
    3  A    between atoms: C_7  and  C_18
                            x       y       z     vdW  Elec       q    Type
                         _______ _______ _______ _____ _____    ______ ____

>  <TORSDO>
F 3

$$$$
=
 OpenBabel11042418533D

 27 31  0  0  1  0  0  0  0  0999 V2000
  190.2560  176.8990  144.9510 C   0  0  0  0  0  3  0  0  0  0  0  0
  191.4640  176.3130  144.5770 C   0  0  0  0  0  0  0  0  0  0  0  0
  190.2370  174.6670  143.2850 C   0  0  0  0  0  0  0  0  0  0  0  0
  191.4550  175.1920  143.7390 C   0  0  0  0  0  3  0  0  0  0  0  0
  189.0490  176.3620  144.4860 C   0  0  0  0  0  0  0  0  0  0  0  0
  189.0760  175.2710  143.6700 N   0  0  0  0  0  0  0  0  0  0  0  0
  190.2310  172.2090  142.8570 C   0  0  0  0  0  0  0  0  0  0  0  0
  190.2060  171.0570  141.9420 C   0  0  0  0  0  3  0  0  0  0  0  0
  190.2630  171.9420  144.2210 O   0  0  0  0  0  1  0  0  0  0  0  0
  190.1150  172.6010  138.7980 O   0  0  0  0  0  0  0  0  0  0  0  0
  190.1730  171.2060  140.6560 N   0  0  0  0  0  0  0  0  0  0  0  0
  190.2260  173.4780  142.3840 C   0  0  0  0  0  0  0  0  0  0  0  0
  190.2240  173.7400  140.8900 C   0  0  0  0  0  2  0  0  0  0  0  0
  190.1640  172.5000  140.0500 C   0  0  0  0  0  0  0  0  0  0  0  0
  185.8470  177.1180  146.3700 C   0  0  0  0  0  3  0  0  0  0  0  0
  187.7540  176.9660  144.8670 C   0  0  0  0  0  0  0  0  0  0  0  0
  183.9940  178.7390  145.9480 C   0  0  0  0  0  1  0  0  0  0  0  0
  187.0710  176.5410  146.0180 C   0  0  0  0  0  3  0  0  0  0  0  0
  187.1900  177.9780  144.0750 C   0  0  0  0  0  3  0  0  0  0  0  0
  185.9660  178.5550  144.4270 C   0  0  0  0  0  3  0  0  0  0  0  0
  185.2950  178.1250  145.5740 C   0  0  0  0  0  0  0  0  0  0  0  0
  195.0770  175.0750  145.9270 C   0  0  0  0  0  2  0  0  0  0  0  0
  193.0640  176.4280  146.4850 C   0  0  0  0  0  2  0  0  0  0  0  0
  192.7470  176.8970  145.0810 C   0  0  1  0  0  3  0  0  0  0  0  0
  195.1210  176.3820  145.1600 C   0  0  2  0  0  3  0  0  0  0  0  0
  194.5780  176.3490  146.5810 C   0  0  2  0  0  3  0  0  0  0  0  0
  193.9250  176.4820  144.2280 C   0  0  0  0  0  2  0  0  0  0  0  0
  2  1  1  0  0  0  0
  3  6  2  0  0  0  0
  3  4  1  0  0  0  0
  4  2  2  0  0  0  0
  5 16  1  0  0  0  0
  5  1  2  0  0  0  0
  6  5  1  0  0  0  0
  7  9  1  0  0  0  0
  8  7  1  0  0  0  0
 10 14  2  0  0  0  0
 11  8  2  0  0  0  0
 12  7  2  0  0  0  0
 12  3  1  0  0  0  0
 13 12  1  0  0  0  0
 14 11  1  0  0  0  0
 14 13  1  0  0  0  0
 16 18  2  0  0  0  0
 18 15  1  0  0  0  0
 19 20  2  0  0  0  0
 19 16  1  0  0  0  0
 20 21  1  0  0  0  0
 21 17  1  0  0  0  0
 21 15  2  0  0  0  0
 23 26  1  0  0  0  0
 24  2  1  6  0  0  0
 24 23  1  0  0  0  0
 25 27  1  6  0  0  0
 25 22  1  0  0  0  0
 25 26  1  0  0  0  0
 26 22  1  6  0  0  0
 27 24  1  0  0  0  0
M  END
>  <MODEL>
2

>  <REMARK>
 VINA RESULT:      -7.8      1.896      5.902
  Name = 
  3 active torsions:
  status: ('A' for Active; 'I' for Inactive)
    1  A    between atoms: C_5  and  C_11
    2  A    between atoms: C_6  and  C_17
    3  A    between atoms: C_7  and  C_18
                            x       y       z     vdW  Elec       q    Type
                         _______ _______ _______ _____ _____    ______ ____

>  <TORSDO>
F 3

$$$$
=
 OpenBabel11042418533D

 27 31  0  0  1  0  0  0  0  0999 V2000
  190.1850  176.8280  145.0450 C   0  0  0  0  0  3  0  0  0  0  0  0
  191.3740  176.2340  144.6260 C   0  0  0  0  0  0  0  0  0  0  0  0
  190.0890  174.6450  143.3180 C   0  0  0  0  0  0  0  0  0  0  0  0
  191.3260  175.1370  143.7570 C   0  0  0  0  0  3  0  0  0  0  0  0
  188.9590  176.3240  144.5940 C   0  0  0  0  0  0  0  0  0  0  0  0
  188.9490  175.2550  143.7480 N   0  0  0  0  0  0  0  0  0  0  0  0
  189.5130  173.5720  141.1410 C   0  0  0  0  0  0  0  0  0  0  0  0
  189.4890  172.4100  140.2390 C   0  0  0  0  0  3  0  0  0  0  0  0
  188.9720  174.7620  140.6650 O   0  0  0  0  0  1  0  0  0  0  0  0
  191.0210  169.9270  142.1800 O   0  0  0  0  0  0  0  0  0  0  0  0
  189.9700  171.2610  140.5930 N   0  0  0  0  0  0  0  0  0  0  0  0
  190.0380  173.4810  142.3850 C   0  0  0  0  0  0  0  0  0  0  0  0
  190.5910  172.1620  142.8900 C   0  0  0  0  0  2  0  0  0  0  0  0
  190.5490  171.0540  141.8820 C   0  0  0  0  0  0  0  0  0  0  0  0
  185.8850  178.5410  144.6900 C   0  0  0  0  0  3  0  0  0  0  0  0
  187.6830  176.9370  145.0230 C   0  0  0  0  0  0  0  0  0  0  0  0
  183.9780  178.6990  146.2970 C   0  0  0  0  0  1  0  0  0  0  0  0
  187.0900  177.9680  144.2760 C   0  0  0  0  0  3  0  0  0  0  0  0
  187.0480  176.4920  146.1930 C   0  0  0  0  0  3  0  0  0  0  0  0
  185.8420  177.0650  146.6070 C   0  0  0  0  0  3  0  0  0  0  0  0
  185.2610  178.0900  145.8560 C   0  0  0  0  0  0  0  0  0  0  0  0
  195.0020  174.9020  145.8390 C   0  0  0  0  0  2  0  0  0  0  0  0
  193.0240  176.2640  146.4930 C   0  0  0  0  0  2  0  0  0  0  0  0
  192.6780  176.7830  145.1140 C   0  0  1  0  0  3  0  0  0  0  0  0
  195.0450  176.2320  145.1130 C   0  0  2  0  0  3  0  0  0  0  0  0
  194.5380  176.1600  146.5470 C   0  0  2  0  0  3  0  0  0  0  0  0
  193.8270  176.3800  144.2170 C   0  0  0  0  0  2  0  0  0  0  0  0
  2  1  1  0  0  0  0
  3  6  2  0  0  0  0
  3  4  1  0  0  0  0
  4  2  2  0  0  0  0
  5 16  1  0  0  0  0
  5  1  2  0  0  0  0
  6  5  1  0  0  0  0
  7 12  2  0  0  0  0
  8 11  2  0  0  0  0
  8  7  1  0  0  0  0
  9  7  1  0  0  0  0
 11 14  1  0  0  0  0
 12 13  1  0  0  0  0
 12  3  1  0  0  0  0
 14 10  2  0  0  0  0
 14 13  1  0  0  0  0
 15 21  1  0  0  0  0
 16 19  2  0  0  0  0
 18 15  2  0  0  0  0
 18 16  1  0  0  0  0
 19 20  1  0  0  0  0
 21 17  1  0  0  0  0
 21 20  2  0  0  0  0
 23 26  1  0  0  0  0
 24  2  1  6  0  0  0
 24 23  1  0  0  0  0
 25 27  1  6  0  0  0
 25 22  1  0  0  0  0
 25 26  1  0  0  0  0
 26 22  1  6  0  0  0
 27 24  1  0  0  0  0
M  END
>  <MODEL>
3

>  <REMARK>
 VINA RESULT:      -7.8      1.803      6.153
  Name = 
  3 active torsions:
  status: ('A' for Active; 'I' for Inactive)
    1  A    between atoms: C_5  and  C_11
    2  A    between atoms: C_6  and  C_17
    3  A    between atoms: C_7  and  C_18
                            x       y       z     vdW  Elec       q    Type
                         _______ _______ _______ _____ _____    ______ ____

>  <TORSDO>
F 3

$$$$
=
 OpenBabel11042418533D

 27 31  0  0  1  0  0  0  0  0999 V2000
  189.6840  174.4180  143.5130 C   0  0  0  0  0  3  0  0  0  0  0  0
  189.5780  175.0320  144.7600 C   0  0  0  0  0  0  0  0  0  0  0  0
  187.7260  176.3560  143.9220 C   0  0  0  0  0  0  0  0  0  0  0  0
  188.5930  176.0060  144.9660 C   0  0  0  0  0  3  0  0  0  0  0  0
  188.8070  174.7800  142.4830 C   0  0  0  0  0  0  0  0  0  0  0  0
  187.8590  175.7300  142.7180 N   0  0  0  0  0  0  0  0  0  0  0  0
  186.4770  178.4220  143.2910 C   0  0  0  0  0  0  0  0  0  0  0  0
  185.4170  179.4150  143.5300 C   0  0  0  0  0  3  0  0  0  0  0  0
  187.2700  178.5920  142.1620 O   0  0  0  0  0  1  0  0  0  0  0  0
  183.9430  178.2400  146.4840 O   0  0  0  0  0  0  0  0  0  0  0  0
  184.6270  179.3390  144.5530 N   0  0  0  0  0  0  0  0  0  0  0  0
  186.6700  177.3870  144.1430 C   0  0  0  0  0  0  0  0  0  0  0  0
  185.8110  177.2440  145.3840 C   0  0  0  0  0  2  0  0  0  0  0  0
  184.7420  178.2870  145.5130 C   0  0  0  0  0  0  0  0  0  0  0  0
  189.7660  172.4020  139.6900 C   0  0  0  0  0  3  0  0  0  0  0  0
  188.8980  174.1420  141.1510 C   0  0  0  0  0  0  0  0  0  0  0  0
  189.1440  172.3140  137.2720 C   0  0  0  0  0  1  0  0  0  0  0  0
  189.6860  172.9970  140.9520 C   0  0  0  0  0  3  0  0  0  0  0  0
  188.1930  174.6810  140.0640 C   0  0  0  0  0  3  0  0  0  0  0  0
  188.2730  174.0860  138.8020 C   0  0  0  0  0  3  0  0  0  0  0  0
  189.0590  172.9470  138.6150 C   0  0  0  0  0  0  0  0  0  0  0  0
  191.5600  176.7210  147.8620 C   0  0  0  0  0  2  0  0  0  0  0  0
  191.8260  175.3980  145.7710 C   0  0  0  0  0  2  0  0  0  0  0  0
  190.5200  174.6360  145.8530 C   0  0  1  0  0  3  0  0  0  0  0  0
  191.1270  175.2900  148.1130 C   0  0  2  0  0  3  0  0  0  0  0  0
  192.3090  175.5800  147.1990 C   0  0  2  0  0  3  0  0  0  0  0  0
  189.9490  174.9360  147.2210 C   0  0  0  0  0  2  0  0  0  0  0  0
  1  2  1  0  0  0  0
  2  4  2  0  0  0  0
  3 12  1  0  0  0  0
  3  4  1  0  0  0  0
  5  6  1  0  0  0  0
  5  1  2  0  0  0  0
  6  3  2  0  0  0  0
  7  8  1  0  0  0  0
  7 12  2  0  0  0  0
  8 11  2  0  0  0  0
  9  7  1  0  0  0  0
 11 14  1  0  0  0  0
 12 13  1  0  0  0  0
 13 14  1  0  0  0  0
 14 10  2  0  0  0  0
 15 18  1  0  0  0  0
 16  5  1  0  0  0  0
 17 21  1  0  0  0  0
 18 16  2  0  0  0  0
 19 16  1  0  0  0  0
 20 19  2  0  0  0  0
 21 20  1  0  0  0  0
 21 15  2  0  0  0  0
 22 25  1  0  0  0  0
 23 24  1  0  0  0  0
 24  2  1  6  0  0  0
 24 27  1  0  0  0  0
 25 27  1  6  0  0  0
 26 23  1  6  0  0  0
 26 22  1  0  0  0  0
 26 25  1  0  0  0  0
M  END
>  <MODEL>
4

>  <REMARK>
 VINA RESULT:      -7.7      2.687      6.819
  Name = 
  3 active torsions:
  status: ('A' for Active; 'I' for Inactive)
    1  A    between atoms: C_5  and  C_11
    2  A    between atoms: C_6  and  C_17
    3  A    between atoms: C_7  and  C_18
                            x       y       z     vdW  Elec       q    Type
                         _______ _______ _______ _____ _____    ______ ____

>  <TORSDO>
F 3

$$$$
=
 OpenBabel11042418533D

 27 31  0  0  1  0  0  0  0  0999 V2000
  190.4580  175.7270  143.4170 C   0  0  0  0  0  3  0  0  0  0  0  0
  190.3960  176.6960  144.4160 C   0  0  0  0  0  0  0  0  0  0  0  0
  188.0370  177.0020  143.9360 C   0  0  0  0  0  0  0  0  0  0  0  0
  189.1790  177.3360  144.6780 C   0  0  0  0  0  3  0  0  0  0  0  0
  189.3070  175.4040  142.6880 C   0  0  0  0  0  0  0  0  0  0  0  0
  188.1390  176.0460  142.9690 N   0  0  0  0  0  0  0  0  0  0  0  0
  186.1660  178.5460  143.3530 C   0  0  0  0  0  0  0  0  0  0  0  0
  184.8760  179.1850  143.6560 C   0  0  0  0  0  3  0  0  0  0  0  0
  186.7730  178.8710  142.1450 O   0  0  0  0  0  1  0  0  0  0  0  0
  184.0840  177.8220  146.7870 O   0  0  0  0  0  0  0  0  0  0  0  0
  184.2350  178.9430  144.7560 N   0  0  0  0  0  0  0  0  0  0  0  0
  186.7380  177.6780  144.2210 C   0  0  0  0  0  0  0  0  0  0  0  0
  186.0700  177.3660  145.5460 C   0  0  0  0  0  2  0  0  0  0  0  0
  184.7470  178.0430  145.7400 C   0  0  0  0  0  0  0  0  0  0  0  0
  188.5340  173.4790  139.5140 C   0  0  0  0  0  3  0  0  0  0  0  0
  189.3470  174.3780  141.6230 C   0  0  0  0  0  0  0  0  0  0  0  0
  189.4880  171.3830  138.5480 C   0  0  0  0  0  1  0  0  0  0  0  0
  188.4880  174.4540  140.5150 C   0  0  0  0  0  3  0  0  0  0  0  0
  190.2520  173.3090  141.7110 C   0  0  0  0  0  3  0  0  0  0  0  0
  190.2980  172.3340  140.7110 C   0  0  0  0  0  3  0  0  0  0  0  0
  189.4390  172.4200  139.6130 C   0  0  0  0  0  0  0  0  0  0  0  0
  193.7140  174.8600  145.8380 C   0  0  0  0  0  2  0  0  0  0  0  0
  191.7310  176.2250  146.4680 C   0  0  0  0  0  2  0  0  0  0  0  0
  191.6330  177.0310  145.1900 C   0  0  1  0  0  3  0  0  0  0  0  0
  193.9390  176.2980  145.4160 C   0  0  2  0  0  3  0  0  0  0  0  0
  193.2100  175.9890  146.7160 C   0  0  2  0  0  3  0  0  0  0  0  0
  192.8870  176.7170  144.4040 C   0  0  0  0  0  2  0  0  0  0  0  0
  1  2  1  0  0  0  0
  2  4  2  0  0  0  0
  3 12  1  0  0  0  0
  3  4  1  0  0  0  0
  5  6  1  0  0  0  0
  5  1  2  0  0  0  0
  6  3  2  0  0  0  0
  7  8  1  0  0  0  0
  7 12  2  0  0  0  0
  8 11  2  0  0  0  0
  9  7  1  0  0  0  0
 11 14  1  0  0  0  0
 12 13  1  0  0  0  0
 13 14  1  0  0  0  0
 14 10  2  0  0  0  0
 15 21  2  0  0  0  0
 15 18  1  0  0  0  0
 16 19  1  0  0  0  0
 16  5  1  0  0  0  0
 17 21  1  0  0  0  0
 18 16  2  0  0  0  0
 20 19  2  0  0  0  0
 21 20  1  0  0  0  0
 23 26  1  0  0  0  0
 24  2  1  6  0  0  0
 24 23  1  0  0  0  0
 25 27  1  6  0  0  0
 25 22  1  0  0  0  0
 25 26  1  0  0  0  0
 26 22  1  6  0  0  0
 27 24  1  0  0  0  0
M  END
>  <MODEL>
5

>  <REMARK>
 VINA RESULT:      -7.6      2.666      6.968
  Name = 
  3 active torsions:
  status: ('A' for Active; 'I' for Inactive)
    1  A    between atoms: C_5  and  C_11
    2  A    between atoms: C_6  and  C_17
    3  A    between atoms: C_7  and  C_18
                            x       y       z     vdW  Elec       q    Type
                         _______ _______ _______ _____ _____    ______ ____

>  <TORSDO>
F 3

$$$$
=
 OpenBabel11042418533D

 27 31  0  0  1  0  0  0  0  0999 V2000
  187.3100  176.4780  143.9750 C   0  0  0  0  0  3  0  0  0  0  0  0
  187.7170  176.4930  145.3080 C   0  0  0  0  0  0  0  0  0  0  0  0
  189.9620  175.9000  144.6030 C   0  0  0  0  0  0  0  0  0  0  0  0
  189.0500  176.2040  145.6240 C   0  0  0  0  0  3  0  0  0  0  0  0
  188.2360  176.1750  142.9690 C   0  0  0  0  0  0  0  0  0  0  0  0
  189.5260  175.8990  143.3110 N   0  0  0  0  0  0  0  0  0  0  0  0
  191.8430  174.3360  145.0910 C   0  0  0  0  0  0  0  0  0  0  0  0
  193.2550  174.0720  145.4080 C   0  0  0  0  0  3  0  0  0  0  0  0
  191.0010  173.2370  144.9600 O   0  0  0  0  0  1  0  0  0  0  0  0
  194.6080  177.3030  145.5330 O   0  0  0  0  0  0  0  0  0  0  0  0
  194.1140  175.0310  145.5480 N   0  0  0  0  0  0  0  0  0  0  0  0
  191.3840  175.6010  144.9380 C   0  0  0  0  0  0  0  0  0  0  0  0
  192.3180  176.7820  145.1200 C   0  0  0  0  0  2  0  0  0  0  0  0
  193.7390  176.4020  145.4060 C   0  0  0  0  0  0  0  0  0  0  0  0
  187.8160  175.0850  139.3620 C   0  0  0  0  0  3  0  0  0  0  0  0
  187.8300  176.1540  141.5470 C   0  0  0  0  0  0  0  0  0  0  0  0
  186.6340  176.1230  137.4210 C   0  0  0  0  0  1  0  0  0  0  0  0
  188.2040  175.0950  140.7040 C   0  0  0  0  0  3  0  0  0  0  0  0
  187.0590  177.2030  141.0200 C   0  0  0  0  0  3  0  0  0  0  0  0
  186.6710  177.1930  139.6780 C   0  0  0  0  0  3  0  0  0  0  0  0
  187.0490  176.1340  138.8490 C   0  0  0  0  0  0  0  0  0  0  0  0
  184.6610  179.0690  145.9610 C   0  0  0  0  0  2  0  0  0  0  0  0
  186.8430  178.2550  146.8380 C   0  0  0  0  0  2  0  0  0  0  0  0
  186.7180  176.8200  146.3740 C   0  0  1  0  0  3  0  0  0  0  0  0
  184.4690  177.7100  146.6040 C   0  0  2  0  0  3  0  0  0  0  0  0
  185.4430  178.7110  147.2100 C   0  0  2  0  0  3  0  0  0  0  0  0
  185.2980  176.6650  145.8770 C   0  0  0  0  0  2  0  0  0  0  0  0
  1  2  1  0  0  0  0
  2  4  2  0  0  0  0
  3 12  1  0  0  0  0
  3  4  1  0  0  0  0
  5  6  1  0  0  0  0
  5  1  2  0  0  0  0
  6  3  2  0  0  0  0
  7  8  1  0  0  0  0
  8 11  2  0  0  0  0
  9  7  1  0  0  0  0
 12  7  2  0  0  0  0
 12 13  1  0  0  0  0
 13 14  1  0  0  0  0
 14 10  2  0  0  0  0
 14 11  1  0  0  0  0
 15 18  1  0  0  0  0
 16  5  1  0  0  0  0
 17 21  1  0  0  0  0
 18 16  2  0  0  0  0
 19 16  1  0  0  0  0
 20 19  2  0  0  0  0
 21 15  2  0  0  0  0
 21 20  1  0  0  0  0
 22 25  1  0  0  0  0
 23 26  1  0  0  0  0
 24  2  1  6  0  0  0
 24 23  1  0  0  0  0
 25 27  1  6  0  0  0
 25 26  1  0  0  0  0
 26 22  1  6  0  0  0
 27 24  1  0  0  0  0
M  END
>  <MODEL>
6

>  <REMARK>
 VINA RESULT:      -7.6      2.449      6.098
  Name = 
  3 active torsions:
  status: ('A' for Active; 'I' for Inactive)
    1  A    between atoms: C_5  and  C_11
    2  A    between atoms: C_6  and  C_17
    3  A    between atoms: C_7  and  C_18
                            x       y       z     vdW  Elec       q    Type
                         _______ _______ _______ _____ _____    ______ ____

>  <TORSDO>
F 3

$$$$
=
 OpenBabel11042418533D

 27 31  0  0  1  0  0  0  0  0999 V2000
  191.0430  175.6890  143.4550 C   0  0  0  0  0  3  0  0  0  0  0  0
  191.1220  176.6070  144.5010 C   0  0  0  0  0  0  0  0  0  0  0  0
  188.7020  176.7710  144.5060 C   0  0  0  0  0  0  0  0  0  0  0  0
  189.9460  177.1500  145.0300 C   0  0  0  0  0  3  0  0  0  0  0  0
  189.7910  175.3210  142.9460 C   0  0  0  0  0  0  0  0  0  0  0  0
  188.6660  175.8680  143.4860 N   0  0  0  0  0  0  0  0  0  0  0  0
  186.9730  176.9840  146.2920 C   0  0  0  0  0  0  0  0  0  0  0  0
  185.7390  177.5760  146.8330 C   0  0  0  0  0  3  0  0  0  0  0  0
  187.6260  176.0410  147.0780 O   0  0  0  0  0  1  0  0  0  0  0  0
  184.7970  179.7920  144.2860 O   0  0  0  0  0  0  0  0  0  0  0  0
  185.0620  178.4640  146.1750 N   0  0  0  0  0  0  0  0  0  0  0  0
  187.4470  177.3430  145.0760 C   0  0  0  0  0  0  0  0  0  0  0  0
  186.6950  178.3500  144.2260 C   0  0  0  0  0  2  0  0  0  0  0  0
  185.4730  178.9160  144.8840 C   0  0  0  0  0  0  0  0  0  0  0  0
  190.4730  172.3680  140.6670 C   0  0  0  0  0  3  0  0  0  0  0  0
  189.6800  174.3480  141.8380 C   0  0  0  0  0  0  0  0  0  0  0  0
  189.3300  171.5400  138.6060 C   0  0  0  0  0  1  0  0  0  0  0  0
  190.5860  173.2820  141.7190 C   0  0  0  0  0  3  0  0  0  0  0  0
  188.6580  174.4830  140.8840 C   0  0  0  0  0  3  0  0  0  0  0  0
  188.5440  173.5690  139.8320 C   0  0  0  0  0  3  0  0  0  0  0  0
  189.4520  172.5120  139.7240 C   0  0  0  0  0  0  0  0  0  0  0  0
  194.5260  174.8360  145.7970 C   0  0  0  0  0  2  0  0  0  0  0  0
  192.7050  176.4150  146.4160 C   0  0  0  0  0  2  0  0  0  0  0  0
  192.4660  176.9910  145.0360 C   0  0  1  0  0  3  0  0  0  0  0  0
  194.7500  176.1620  145.0960 C   0  0  2  0  0  3  0  0  0  0  0  0
  194.1940  176.1310  146.5130 C   0  0  2  0  0  3  0  0  0  0  0  0
  193.5870  176.4650  144.1670 C   0  0  0  0  0  2  0  0  0  0  0  0
  1  2  1  0  0  0  0
  2  4  2  0  0  0  0
  3  4  1  0  0  0  0
  3 12  1  0  0  0  0
  5  1  2  0  0  0  0
  5  6  1  0  0  0  0
  6  3  2  0  0  0  0
  7  8  1  0  0  0  0
  7  9  1  0  0  0  0
 10 14  2  0  0  0  0
 11  8  2  0  0  0  0
 12  7  2  0  0  0  0
 13 14  1  0  0  0  0
 13 12  1  0  0  0  0
 14 11  1  0  0  0  0
 15 18  1  0  0  0  0
 16  5  1  0  0  0  0
 17 21  1  0  0  0  0
 18 16  2  0  0  0  0
 19 16  1  0  0  0  0
 20 19  2  0  0  0  0
 21 20  1  0  0  0  0
 21 15  2  0  0  0  0
 23 26  1  0  0  0  0
 24  2  1  6  0  0  0
 24 23  1  0  0  0  0
 25 27  1  6  0  0  0
 25 22  1  0  0  0  0
 25 26  1  0  0  0  0
 26 22  1  6  0  0  0
 27 24  1  0  0  0  0
M  END
>  <MODEL>
7

>  <REMARK>
 VINA RESULT:      -7.6      2.691      7.109
  Name = 
  3 active torsions:
  status: ('A' for Active; 'I' for Inactive)
    1  A    between atoms: C_5  and  C_11
    2  A    between atoms: C_6  and  C_17
    3  A    between atoms: C_7  and  C_18
                            x       y       z     vdW  Elec       q    Type
                         _______ _______ _______ _____ _____    ______ ____

>  <TORSDO>
F 3

$$$$
=
 OpenBabel11042418533D

 27 31  0  0  1  0  0  0  0  0999 V2000
  187.2180  175.7200  142.7110 C   0  0  0  0  0  3  0  0  0  0  0  0
  187.0220  176.4440  143.8860 C   0  0  0  0  0  0  0  0  0  0  0  0
  189.2220  175.7610  144.6450 C   0  0  0  0  0  0  0  0  0  0  0  0
  188.0290  176.4660  144.8570 C   0  0  0  0  0  3  0  0  0  0  0  0
  188.4170  175.0230  142.5160 C   0  0  0  0  0  0  0  0  0  0  0  0
  189.3770  175.0670  143.4820 N   0  0  0  0  0  0  0  0  0  0  0  0
  190.1390  175.2610  146.9110 C   0  0  0  0  0  0  0  0  0  0  0  0
  191.2260  175.2940  147.9010 C   0  0  0  0  0  3  0  0  0  0  0  0
  188.9410  174.6680  147.2960 O   0  0  0  0  0  1  0  0  0  0  0  0
  193.7940  176.8980  146.1360 O   0  0  0  0  0  0  0  0  0  0  0  0
  192.3780  175.8230  147.6330 N   0  0  0  0  0  0  0  0  0  0  0  0
  190.3010  175.7910  145.6760 C   0  0  0  0  0  0  0  0  0  0  0  0
  191.6060  176.4610  145.2940 C   0  0  0  0  0  2  0  0  0  0  0  0
  192.6570  176.4100  146.3610 C   0  0  0  0  0  0  0  0  0  0  0  0
  188.4280  173.9820  138.8700 C   0  0  0  0  0  3  0  0  0  0  0  0
  188.6500  174.2480  141.2780 C   0  0  0  0  0  0  0  0  0  0  0  0
  189.3410  171.9720  137.7010 C   0  0  0  0  0  1  0  0  0  0  0  0
  188.2030  174.7230  140.0340 C   0  0  0  0  0  3  0  0  0  0  0  0
  189.3250  173.0180  141.3360 C   0  0  0  0  0  3  0  0  0  0  0  0
  189.5500  172.2780  140.1720 C   0  0  0  0  0  3  0  0  0  0  0  0
  189.1010  172.7600  138.9390 C   0  0  0  0  0  0  0  0  0  0  0  0
  185.5110  179.4070  146.1980 C   0  0  0  0  0  2  0  0  0  0  0  0
  185.2140  177.0380  145.4960 C   0  0  0  0  0  2  0  0  0  0  0  0
  185.7360  177.1850  144.0820 C   0  0  1  0  0  3  0  0  0  0  0  0
  184.9370  179.3660  144.7960 C   0  0  2  0  0  3  0  0  0  0  0  0
  184.5010  178.3370  145.8290 C   0  0  2  0  0  3  0  0  0  0  0  0
  185.9050  178.6710  143.8540 C   0  0  0  0  0  2  0  0  0  0  0  0
  1  2  1  0  0  0  0
  2  4  2  0  0  0  0
  3  4  1  0  0  0  0
  3 12  1  0  0  0  0
  5  1  2  0  0  0  0
  5  6  1  0  0  0  0
  6  3  2  0  0  0  0
  7  9  1  0  0  0  0
  7  8  1  0  0  0  0
 10 14  2  0  0  0  0
 11  8  2  0  0  0  0
 12  7  2  0  0  0  0
 13 12  1  0  0  0  0
 13 14  1  0  0  0  0
 14 11  1  0  0  0  0
 15 21  2  0  0  0  0
 15 18  1  0  0  0  0
 16 19  1  0  0  0  0
 16  5  1  0  0  0  0
 17 21  1  0  0  0  0
 18 16  2  0  0  0  0
 20 19  2  0  0  0  0
 21 20  1  0  0  0  0
 24  2  1  1  0  0  0
 24 23  1  0  0  0  0
 25 27  1  6  0  0  0
 25 26  1  0  0  0  0
 25 22  1  0  0  0  0
 26 23  1  6  0  0  0
 26 22  1  0  0  0  0
 27 24  1  0  0  0  0
M  END
>  <MODEL>
8

>  <REMARK>
 VINA RESULT:      -7.5      2.631      6.180
  Name = 
  3 active torsions:
  status: ('A' for Active; 'I' for Inactive)
    1  A    between atoms: C_5  and  C_11
    2  A    between atoms: C_6  and  C_17
    3  A    between atoms: C_7  and  C_18
                            x       y       z     vdW  Elec       q    Type
                         _______ _______ _______ _____ _____    ______ ____

>  <TORSDO>
F 3

$$$$
=
 OpenBabel11042418533D

 27 31  0  0  1  0  0  0  0  0999 V2000
  188.9420  176.1760  145.5880 C   0  0  0  0  0  3  0  0  0  0  0  0
  187.6160  176.4310  145.2450 C   0  0  0  0  0  0  0  0  0  0  0  0
  188.2000  176.1770  142.9040 C   0  0  0  0  0  0  0  0  0  0  0  0
  187.2420  176.4300  143.8960 C   0  0  0  0  0  3  0  0  0  0  0  0
  189.8850  175.9230  144.5830 C   0  0  0  0  0  0  0  0  0  0  0  0
  189.4860  175.9290  143.2800 N   0  0  0  0  0  0  0  0  0  0  0  0
  187.0920  177.1760  140.9030 C   0  0  0  0  0  0  0  0  0  0  0  0
  186.7260  177.1430  139.4790 C   0  0  0  0  0  3  0  0  0  0  0  0
  186.6790  178.2770  141.6450 O   0  0  0  0  0  1  0  0  0  0  0  0
  188.1420  174.1210  138.4110 O   0  0  0  0  0  0  0  0  0  0  0  0
  187.0670  176.1600  138.7070 N   0  0  0  0  0  0  0  0  0  0  0  0
  187.8000  176.1680  141.4660 C   0  0  0  0  0  0  0  0  0  0  0  0
  188.2090  174.9630  140.6410 C   0  0  0  0  0  2  0  0  0  0  0  0
  187.8160  175.0470  139.1970 C   0  0  0  0  0  0  0  0  0  0  0  0
  193.1640  174.1030  145.1380 C   0  0  0  0  0  3  0  0  0  0  0  0
  191.2980  175.6490  144.9220 C   0  0  0  0  0  0  0  0  0  0  0  0
  195.4070  174.8850  145.9130 C   0  0  0  0  0  1  0  0  0  0  0  0
  191.8270  174.3520  144.8160 C   0  0  0  0  0  3  0  0  0  0  0  0
  192.1310  176.6910  145.3570 C   0  0  0  0  0  3  0  0  0  0  0  0
  193.4690  176.4420  145.6800 C   0  0  0  0  0  3  0  0  0  0  0  0
  193.9840  175.1490  145.5700 C   0  0  0  0  0  0  0  0  0  0  0  0
  185.1880  179.4160  146.5090 C   0  0  0  0  0  2  0  0  0  0  0  0
  187.0240  177.8790  147.1850 C   0  0  0  0  0  2  0  0  0  0  0  0
  186.6180  176.6980  146.3280 C   0  0  1  0  0  3  0  0  0  0  0  0
  184.6240  178.0260  146.7330 C   0  0  2  0  0  3  0  0  0  0  0  0
  185.7370  178.5520  147.6280 C   0  0  2  0  0  3  0  0  0  0  0  0
  185.2570  177.0420  145.7650 C   0  0  0  0  0  2  0  0  0  0  0  0
  2  1  1  0  0  0  0
  3  6  2  0  0  0  0
  3  4  1  0  0  0  0
  4  2  2  0  0  0  0
  5 16  1  0  0  0  0
  5  1  2  0  0  0  0
  6  5  1  0  0  0  0
  7 12  2  0  0  0  0
  7  9  1  0  0  0  0
  8  7  1  0  0  0  0
 10 14  2  0  0  0  0
 11 14  1  0  0  0  0
 11  8  2  0  0  0  0
 12  3  1  0  0  0  0
 13 12  1  0  0  0  0
 14 13  1  0  0  0  0
 15 21  1  0  0  0  0
 16 19  2  0  0  0  0
 18 16  1  0  0  0  0
 18 15  2  0  0  0  0
 19 20  1  0  0  0  0
 21 20  2  0  0  0  0
 21 17  1  0  0  0  0
 22 25  1  0  0  0  0
 23 26  1  0  0  0  0
 24  2  1  6  0  0  0
 24 23  1  0  0  0  0
 25 27  1  6  0  0  0
 25 26  1  0  0  0  0
 26 22  1  6  0  0  0
 27 24  1  0  0  0  0
M  END
>  <MODEL>
9

>  <REMARK>
 VINA RESULT:      -7.5      1.852      2.421
  Name = 
  3 active torsions:
  status: ('A' for Active; 'I' for Inactive)
    1  A    between atoms: C_5  and  C_11
    2  A    between atoms: C_6  and  C_17
    3  A    between atoms: C_7  and  C_18
                            x       y       z     vdW  Elec       q    Type
                         _______ _______ _______ _____ _____    ______ ____

>  <TORSDO>
F 3

$$$$
