=
 OpenBabel11042417113D

 38 43  0  0  1  0  0  0  0  0999 V2000
  190.3720  174.8500  142.3570 C   0  0  0  0  0  0  0  0  0  0  0  0
  191.8360  175.1550  144.4070 C   0  0  2  0  0  3  0  0  0  0  0  0
  190.1750  173.9520  141.3080 C   0  0  0  0  0  3  0  0  0  0  0  0
  189.8360  176.8710  144.9290 C   0  0  1  0  0  3  0  0  0  0  0  0
  188.3240  176.0430  141.6310 C   0  0  0  0  0  0  0  0  0  0  0  0
  188.5820  177.4150  144.3430 N   0  0  0  0  0  0  0  0  0  0  0  0
  189.7060  175.3860  145.2930 C   0  0  1  0  0  3  0  0  0  0  0  0
  187.2020  177.6540  144.2030 C   0  0  0  0  0  0  0  0  0  0  0  0
  189.4630  175.9480  142.5410 C   0  0  0  0  0  0  0  0  0  0  0  0
  188.1900  175.0950  140.6090 C   0  0  0  0  0  3  0  0  0  0  0  0
  186.9340  177.4260  142.9690 C   0  0  0  0  0  0  0  0  0  0  0  0
  189.8090  177.0850  143.5460 C   0  0  2  0  0  3  0  0  0  0  0  0
  190.9620  174.7500  145.4410 O   0  0  0  0  0  0  0  0  0  0  0  0
  191.4910  174.5650  143.1590 O   0  0  0  0  0  0  0  0  0  0  0  0
  189.1050  174.0710  140.4390 C   0  0  0  0  0  3  0  0  0  0  0  0
  187.1750  177.0110  141.7670 C   0  0  0  0  0  0  0  0  0  0  0  0
  186.1810  178.1430  146.3990 C   0  0  0  0  0  0  0  0  0  0  0  0
  185.1070  178.9740  144.4180 C   0  0  0  0  0  2  0  0  0  0  0  0
  184.4700  177.8470  146.7800 S   0  0  0  0  0  0  0  0  0  0  0  0
  187.0510  178.0500  147.2510 O   0  0  0  0  0  0  0  0  0  0  0  0
  184.0910  179.1180  145.5430 C   0  0  0  0  0  2  0  0  0  0  0  0
  186.4680  178.6650  145.0330 C   0  0  2  0  0  3  0  0  0  0  0  0
  186.8350  177.4940  139.4580 O   0  0  0  0  0  0  0  0  0  0  0  0
  186.3590  177.4890  140.6240 C   0  0  0  0  0  0  0  0  0  0  0  0
  184.9700  177.9970  140.8250 C   0  0  0  0  0  1  0  0  0  0  0  0
  189.7580  174.8660  147.6200 O   0  0  0  0  0  1  0  0  0  0  0  0
  188.9110  175.2440  146.5780 C   0  0  0  0  0  2  0  0  0  0  0  0
  193.1820  174.8270  144.7500 O   0  0  0  0  0  0  0  0  0  0  0  0
  196.7180  175.5700  143.9190 C   0  0  0  0  0  3  0  0  0  0  0  0
  195.3210  176.3180  142.0930 C   0  0  0  0  0  0  0  0  0  0  0  0
  194.1880  175.8760  142.7800 C   0  0  0  0  0  3  0  0  0  0  0  0
  195.5870  175.1280  144.6150 C   0  0  0  0  0  0  0  0  0  0  0  0
  196.5860  176.1640  142.6620 C   0  0  0  0  0  3  0  0  0  0  0  0
  194.3090  175.2770  144.0460 C   0  0  0  0  0  0  0  0  0  0  0  0
  195.1910  176.8920  140.8730 F   0  0  0  0  0  0  0  0  0  0  0  0
  195.7650  174.4850  145.9540 C   0  0  0  0  0  2  0  0  0  0  0  0
  197.0370  173.6520  146.0030 C   0  0  0  0  0  2  0  0  0  0  0  0
  196.7290  172.1880  145.7470 C   0  0  0  0  0  1  0  0  0  0  0  0
  1  9  1  0  0  0  0
  1 14  1  0  0  0  0
  2 28  1  1  0  0  0
  2 13  1  0  0  0  0
  3  1  2  0  0  0  0
  4  6  1  1  0  0  0
  4  7  1  0  0  0  0
  5 16  1  0  0  0  0
  5  9  2  0  0  0  0
  7 13  1  0  0  0  0
  7 27  1  1  0  0  0
  8  6  1  0  0  0  0
 10  5  1  0  0  0  0
 11  8  2  0  0  0  0
 12  9  1  6  0  0  0
 12  6  1  0  0  0  0
 12  4  1  0  0  0  0
 14  2  1  0  0  0  0
 15 10  2  0  0  0  0
 15  3  1  0  0  0  0
 16 11  2  0  0  0  0
 17 19  1  0  0  0  0
 17 20  2  0  0  0  0
 18 22  1  0  0  0  0
 18 21  1  0  0  0  0
 21 19  1  0  0  0  0
 22  8  1  6  0  0  0
 22 17  1  0  0  0  0
 23 24  2  0  0  0  0
 24 25  1  0  0  0  0
 24 16  1  0  0  0  0
 27 26  1  0  0  0  0
 29 32  1  0  0  0  0
 30 33  1  0  0  0  0
 30 31  2  0  0  0  0
 31 34  1  0  0  0  0
 32 36  1  0  0  0  0
 33 29  2  0  0  0  0
 34 32  2  0  0  0  0
 34 28  1  0  0  0  0
 35 30  1  0  0  0  0
 36 37  1  0  0  0  0
 38 37  1  0  0  0  0
M  END
>  <MODEL>
1

>  <REMARK>
 VINA RESULT:      -8.8      0.000      0.000
  Name = 
  7 active torsions:
  status: ('A' for Active; 'I' for Inactive)
    1  A    between atoms: C_4  and  O_12
    2  A    between atoms: C_5  and  C_36
    3  A    between atoms: O_12  and  C_23
    4  A    between atoms: C_17  and  C_35
    5  A    between atoms: C_18  and  C_27
    6  A    between atoms: C_22  and  C_38
    7  A    between atoms: C_24  and  C_27
                            x       y       z     vdW  Elec       q    Type
                         _______ _______ _______ _____ _____    ______ ____

>  <TORSDO>
F 7

$$$$
=
 OpenBabel11042417113D

 38 43  0  0  1  0  0  0  0  0999 V2000
  189.5270  175.6300  145.5210 C   0  0  0  0  0  0  0  0  0  0  0  0
  187.9320  175.7600  143.5520 C   0  0  2  0  0  3  0  0  0  0  0  0
  189.5230  175.3250  146.8820 C   0  0  0  0  0  3  0  0  0  0  0  0
  190.3080  175.6960  142.3000 C   0  0  1  0  0  3  0  0  0  0  0  0
  192.0030  175.6980  145.6140 C   0  0  0  0  0  0  0  0  0  0  0  0
  191.7700  175.6630  142.5730 N   0  0  0  0  0  0  0  0  0  0  0  0
  189.6130  174.3950  142.7250 C   0  0  1  0  0  3  0  0  0  0  0  0
  193.0800  175.1500  142.6120 C   0  0  0  0  0  0  0  0  0  0  0  0
  190.7730  175.8540  144.8410 C   0  0  0  0  0  0  0  0  0  0  0  0
  191.9150  175.3800  146.9750 C   0  0  0  0  0  3  0  0  0  0  0  0
  193.5030  175.3710  143.8030 C   0  0  0  0  0  0  0  0  0  0  0  0
  190.7780  176.4310  143.3950 C   0  0  2  0  0  3  0  0  0  0  0  0
  188.2150  174.5500  142.8790 O   0  0  0  0  0  0  0  0  0  0  0  0
  188.2490  175.6840  144.9370 O   0  0  0  0  0  0  0  0  0  0  0  0
  190.6960  175.2070  147.6060 C   0  0  0  0  0  3  0  0  0  0  0  0
  193.4000  175.7190  145.0460 C   0  0  0  0  0  0  0  0  0  0  0  0
  195.0050  174.0540  141.5170 C   0  0  0  0  0  0  0  0  0  0  0  0
  194.7570  176.4340  141.3010 C   0  0  0  0  0  2  0  0  0  0  0  0
  196.6870  174.5990  141.7040 S   0  0  0  0  0  0  0  0  0  0  0  0
  194.7290  172.8760  141.3550 O   0  0  0  0  0  0  0  0  0  0  0  0
  196.1740  176.1110  140.8460 C   0  0  0  0  0  2  0  0  0  0  0  0
  193.9770  175.1280  141.4090 C   0  0  2  0  0  3  0  0  0  0  0  0
  195.4130  175.2440  146.2310 O   0  0  0  0  0  0  0  0  0  0  0  0
  194.6010  176.1150  145.8220 C   0  0  0  0  0  0  0  0  0  0  0  0
  194.8650  177.5450  146.1590 C   0  0  0  0  0  1  0  0  0  0  0  0
  189.7820  173.8330  140.4130 O   0  0  0  0  0  1  0  0  0  0  0  0
  189.8940  173.3100  141.7020 C   0  0  0  0  0  2  0  0  0  0  0  0
  186.5570  176.1030  143.3810 O   0  0  0  0  0  0  0  0  0  0  0  0
  185.3420  179.5590  143.9500 C   0  0  0  0  0  3  0  0  0  0  0  0
  184.6730  178.1860  145.8240 C   0  0  0  0  0  0  0  0  0  0  0  0
  185.2860  177.0800  145.2310 C   0  0  0  0  0  3  0  0  0  0  0  0
  185.9620  178.4560  143.3520 C   0  0  0  0  0  0  0  0  0  0  0  0
  184.6990  179.4260  145.1830 C   0  0  0  0  0  3  0  0  0  0  0  0
  185.9360  177.2030  143.9920 C   0  0  0  0  0  0  0  0  0  0  0  0
  184.0480  178.0540  147.0180 F   0  0  0  0  0  0  0  0  0  0  0  0
  186.6310  178.6310  142.0260 C   0  0  0  0  0  2  0  0  0  0  0  0
  185.7160  178.2110  140.8850 C   0  0  0  0  0  2  0  0  0  0  0  0
  186.4870  177.4290  139.8380 C   0  0  0  0  0  1  0  0  0  0  0  0
  1  3  1  0  0  0  0
  2 28  1  1  0  0  0
  2 14  1  0  0  0  0
  3 15  2  0  0  0  0
  4  6  1  6  0  0  0
  4  7  1  0  0  0  0
  4 12  1  0  0  0  0
  5 10  2  0  0  0  0
  6  8  1  0  0  0  0
  6 12  1  0  0  0  0
  7 27  1  6  0  0  0
  7 13  1  0  0  0  0
  8 11  2  0  0  0  0
  9  1  2  0  0  0  0
  9  5  1  0  0  0  0
 10 15  1  0  0  0  0
 11 16  2  0  0  0  0
 12  9  1  1  0  0  0
 13  2  1  0  0  0  0
 14  1  1  0  0  0  0
 16  5  1  0  0  0  0
 16 24  1  0  0  0  0
 17 19  1  0  0  0  0
 18 22  1  0  0  0  0
 20 17  2  0  0  0  0
 21 18  1  0  0  0  0
 21 19  1  0  0  0  0
 22 17  1  0  0  0  0
 22  8  1  1  0  0  0
 24 25  1  0  0  0  0
 24 23  2  0  0  0  0
 26 27  1  0  0  0  0
 28 34  1  0  0  0  0
 29 33  1  0  0  0  0
 30 35  1  0  0  0  0
 31 30  1  0  0  0  0
 32 29  2  0  0  0  0
 32 34  1  0  0  0  0
 33 30  2  0  0  0  0
 34 31  2  0  0  0  0
 36 32  1  0  0  0  0
 37 36  1  0  0  0  0
 38 37  1  0  0  0  0
M  END
>  <MODEL>
2

>  <REMARK>
 VINA RESULT:      -8.7      3.711      8.892
  Name = 
  7 active torsions:
  status: ('A' for Active; 'I' for Inactive)
    1  A    between atoms: C_4  and  O_12
    2  A    between atoms: C_5  and  C_36
    3  A    between atoms: O_12  and  C_23
    4  A    between atoms: C_17  and  C_35
    5  A    between atoms: C_18  and  C_27
    6  A    between atoms: C_22  and  C_38
    7  A    between atoms: C_24  and  C_27
                            x       y       z     vdW  Elec       q    Type
                         _______ _______ _______ _____ _____    ______ ____

>  <TORSDO>
F 7

$$$$
=
 OpenBabel11042417113D

 38 43  0  0  1  0  0  0  0  0999 V2000
  190.2900  176.8640  145.8600 C   0  0  0  0  0  0  0  0  0  0  0  0
  188.4370  177.5550  144.2700 C   0  0  2  0  0  3  0  0  0  0  0  0
  190.5280  176.7220  147.2270 C   0  0  0  0  0  3  0  0  0  0  0  0
  190.1040  176.2620  142.6060 C   0  0  1  0  0  3  0  0  0  0  0  0
  192.4690  175.7610  145.4350 C   0  0  0  0  0  0  0  0  0  0  0  0
  191.4180  175.5660  142.5790 N   0  0  0  0  0  0  0  0  0  0  0  0
  189.0580  175.4890  143.4230 C   0  0  1  0  0  3  0  0  0  0  0  0
  192.3290  174.5010  142.4590 C   0  0  0  0  0  0  0  0  0  0  0  0
  191.2690  176.4100  144.9110 C   0  0  0  0  0  0  0  0  0  0  0  0
  192.6290  175.6470  146.8220 C   0  0  0  0  0  3  0  0  0  0  0  0
  193.1160  174.6020  143.4670 C   0  0  0  0  0  0  0  0  0  0  0  0
  191.1270  176.7830  143.4070 C   0  0  2  0  0  3  0  0  0  0  0  0
  187.9690  176.3000  143.8190 O   0  0  0  0  0  0  0  0  0  0  0  0
  189.0570  177.4630  145.5470 O   0  0  0  0  0  0  0  0  0  0  0  0
  191.6820  176.1290  147.7080 C   0  0  0  0  0  3  0  0  0  0  0  0
  193.5200  175.0670  144.6050 C   0  0  0  0  0  0  0  0  0  0  0  0
  191.6860  173.1150  140.5170 C   0  0  0  0  0  0  0  0  0  0  0  0
  193.9550  173.0180  141.3010 C   0  0  0  0  0  2  0  0  0  0  0  0
  192.0240  171.3740  140.3920 S   0  0  0  0  0  0  0  0  0  0  0  0
  190.6930  173.6110  140.0090 O   0  0  0  0  0  0  0  0  0  0  0  0
  193.7790  171.8310  140.3630 C   0  0  0  0  0  2  0  0  0  0  0  0
  192.7580  173.9480  141.1310 C   0  0  2  0  0  3  0  0  0  0  0  0
  195.7170  175.9040  144.9990 O   0  0  0  0  0  0  0  0  0  0  0  0
  194.9350  174.9170  145.0240 C   0  0  0  0  0  0  0  0  0  0  0  0
  195.4750  173.5960  145.4610 C   0  0  0  0  0  1  0  0  0  0  0  0
  187.8880  174.7740  141.4710 O   0  0  0  0  0  1  0  0  0  0  0  0
  188.5470  174.3120  142.6120 C   0  0  0  0  0  2  0  0  0  0  0  0
  187.3600  178.4900  144.3130 O   0  0  0  0  0  0  0  0  0  0  0  0
  183.8050  178.3690  143.2660 C   0  0  0  0  0  3  0  0  0  0  0  0
  185.1960  178.2840  141.2900 C   0  0  0  0  0  0  0  0  0  0  0  0
  186.3380  178.3490  142.0930 C   0  0  0  0  0  3  0  0  0  0  0  0
  184.9440  178.4310  144.0770 C   0  0  0  0  0  0  0  0  0  0  0  0
  183.9290  178.2950  141.8770 C   0  0  0  0  0  3  0  0  0  0  0  0
  186.2240  178.4230  143.4910 C   0  0  0  0  0  0  0  0  0  0  0  0
  185.3190  178.2150  139.9430 F   0  0  0  0  0  0  0  0  0  0  0  0
  184.7750  178.5210  145.5600 C   0  0  0  0  0  2  0  0  0  0  0  0
  184.9530  177.1620  146.2200 C   0  0  0  0  0  2  0  0  0  0  0  0
  186.0260  177.2220  147.2910 C   0  0  0  0  0  1  0  0  0  0  0  0
  1  3  1  0  0  0  0
  2 28  1  1  0  0  0
  2 14  1  0  0  0  0
  3 15  2  0  0  0  0
  4  6  1  6  0  0  0
  4 12  1  0  0  0  0
  4  7  1  0  0  0  0
  5 10  2  0  0  0  0
  6 12  1  0  0  0  0
  7 27  1  6  0  0  0
  7 13  1  0  0  0  0
  8  6  1  0  0  0  0
  8 11  2  0  0  0  0
  9  5  1  0  0  0  0
  9  1  2  0  0  0  0
 10 15  1  0  0  0  0
 11 16  2  0  0  0  0
 12  9  1  1  0  0  0
 13  2  1  0  0  0  0
 14  1  1  0  0  0  0
 16 24  1  0  0  0  0
 16  5  1  0  0  0  0
 17 22  1  0  0  0  0
 19 17  1  0  0  0  0
 20 17  2  0  0  0  0
 21 19  1  0  0  0  0
 21 18  1  0  0  0  0
 22 18  1  0  0  0  0
 22  8  1  1  0  0  0
 23 24  2  0  0  0  0
 24 25  1  0  0  0  0
 26 27  1  0  0  0  0
 29 32  1  0  0  0  0
 30 33  1  0  0  0  0
 30 31  2  0  0  0  0
 31 34  1  0  0  0  0
 32 36  1  0  0  0  0
 33 29  2  0  0  0  0
 34 32  2  0  0  0  0
 34 28  1  0  0  0  0
 35 30  1  0  0  0  0
 36 37  1  0  0  0  0
 37 38  1  0  0  0  0
M  END
>  <MODEL>
3

>  <REMARK>
 VINA RESULT:      -8.7      3.304      8.659
  Name = 
  7 active torsions:
  status: ('A' for Active; 'I' for Inactive)
    1  A    between atoms: C_4  and  O_12
    2  A    between atoms: C_5  and  C_36
    3  A    between atoms: O_12  and  C_23
    4  A    between atoms: C_17  and  C_35
    5  A    between atoms: C_18  and  C_27
    6  A    between atoms: C_22  and  C_38
    7  A    between atoms: C_24  and  C_27
                            x       y       z     vdW  Elec       q    Type
                         _______ _______ _______ _____ _____    ______ ____

>  <TORSDO>
F 7

$$$$
=
 OpenBabel11042417113D

 38 43  0  0  1  0  0  0  0  0999 V2000
  188.4830  175.2380  141.7790 C   0  0  0  0  0  0  0  0  0  0  0  0
  188.0430  177.1330  143.4080 C   0  0  2  0  0  3  0  0  0  0  0  0
  188.2100  174.8790  140.4590 C   0  0  0  0  0  3  0  0  0  0  0  0
  190.0710  175.8550  144.6220 C   0  0  1  0  0  3  0  0  0  0  0  0
  190.0160  173.2970  141.9200 C   0  0  0  0  0  0  0  0  0  0  0  0
  190.9490  174.6630  144.4820 N   0  0  0  0  0  0  0  0  0  0  0  0
  190.3470  176.9060  143.5380 C   0  0  1  0  0  3  0  0  0  0  0  0
  192.1340  173.9300  144.2830 C   0  0  0  0  0  0  0  0  0  0  0  0
  189.3800  174.4410  142.5680 C   0  0  0  0  0  0  0  0  0  0  0  0
  189.6990  173.0070  140.5870 C   0  0  0  0  0  3  0  0  0  0  0  0
  191.8450  173.0340  143.4110 C   0  0  0  0  0  0  0  0  0  0  0  0
  189.4990  174.6890  144.1000 C   0  0  2  0  0  3  0  0  0  0  0  0
  189.2780  177.8210  143.3820 O   0  0  0  0  0  0  0  0  0  0  0  0
  187.8190  176.4010  142.2100 O   0  0  0  0  0  0  0  0  0  0  0  0
  188.8010  173.7770  139.8680 C   0  0  0  0  0  3  0  0  0  0  0  0
  191.1100  172.4490  142.5210 C   0  0  0  0  0  0  0  0  0  0  0  0
  193.9060  174.9840  145.6460 C   0  0  0  0  0  0  0  0  0  0  0  0
  194.2010  172.7100  144.9300 C   0  0  0  0  0  2  0  0  0  0  0  0
  195.6270  174.9790  145.2010 S   0  0  0  0  0  0  0  0  0  0  0  0
  193.4080  175.9120  146.2630 O   0  0  0  0  0  0  0  0  0  0  0  0
  195.5630  173.1800  145.4220 C   0  0  0  0  0  2  0  0  0  0  0  0
  193.1530  173.7280  145.3660 C   0  0  2  0  0  3  0  0  0  0  0  0
  190.4430  170.1730  142.2850 O   0  0  0  0  0  0  0  0  0  0  0  0
  191.3530  171.0330  142.1510 C   0  0  0  0  0  0  0  0  0  0  0  0
  192.6820  170.5860  141.6380 C   0  0  0  0  0  1  0  0  0  0  0  0
  191.3670  179.0360  143.8730 O   0  0  0  0  0  1  0  0  0  0  0  0
  191.6180  177.6630  143.8750 C   0  0  0  0  0  2  0  0  0  0  0  0
  186.9770  178.0560  143.6270 O   0  0  0  0  0  0  0  0  0  0  0  0
  184.0570  178.6730  145.8280 C   0  0  0  0  0  3  0  0  0  0  0  0
  185.7290  177.4570  147.0830 C   0  0  0  0  0  0  0  0  0  0  0  0
  186.5630  177.4500  145.9630 C   0  0  0  0  0  3  0  0  0  0  0  0
  184.8890  178.6720  144.7030 C   0  0  0  0  0  0  0  0  0  0  0  0
  184.4750  178.0680  147.0160 C   0  0  0  0  0  3  0  0  0  0  0  0
  186.1530  178.0550  144.7630 C   0  0  0  0  0  0  0  0  0  0  0  0
  186.1350  176.8680  148.2330 F   0  0  0  0  0  0  0  0  0  0  0  0
  184.4060  179.3180  143.4430 C   0  0  0  0  0  2  0  0  0  0  0  0
  183.7620  178.3010  142.5120 C   0  0  0  0  0  2  0  0  0  0  0  0
  184.4580  178.2910  141.1640 C   0  0  0  0  0  1  0  0  0  0  0  0
  1 14  1  0  0  0  0
  1  9  1  0  0  0  0
  2 28  1  6  0  0  0
  3  1  2  0  0  0  0
  4  6  1  6  0  0  0
  5 16  1  0  0  0  0
  5  9  2  0  0  0  0
  7 27  1  1  0  0  0
  7  4  1  0  0  0  0
  8  6  1  0  0  0  0
 10  5  1  0  0  0  0
 11  8  2  0  0  0  0
 12  9  1  6  0  0  0
 12  6  1  0  0  0  0
 12  4  1  0  0  0  0
 13  2  1  0  0  0  0
 13  7  1  0  0  0  0
 14  2  1  0  0  0  0
 15  3  1  0  0  0  0
 15 10  2  0  0  0  0
 16 11  2  0  0  0  0
 17 20  2  0  0  0  0
 18 22  1  0  0  0  0
 18 21  1  0  0  0  0
 19 21  1  0  0  0  0
 19 17  1  0  0  0  0
 22  8  1  6  0  0  0
 22 17  1  0  0  0  0
 24 23  2  0  0  0  0
 24 16  1  0  0  0  0
 25 24  1  0  0  0  0
 26 27  1  0  0  0  0
 28 34  1  0  0  0  0
 29 33  1  0  0  0  0
 30 35  1  0  0  0  0
 31 30  1  0  0  0  0
 32 34  1  0  0  0  0
 32 29  2  0  0  0  0
 33 30  2  0  0  0  0
 34 31  2  0  0  0  0
 36 32  1  0  0  0  0
 37 36  1  0  0  0  0
 38 37  1  0  0  0  0
M  END
>  <MODEL>
4

>  <REMARK>
 VINA RESULT:      -8.5      3.442      8.348
  Name = 
  7 active torsions:
  status: ('A' for Active; 'I' for Inactive)
    1  A    between atoms: C_4  and  O_12
    2  A    between atoms: C_5  and  C_36
    3  A    between atoms: O_12  and  C_23
    4  A    between atoms: C_17  and  C_35
    5  A    between atoms: C_18  and  C_27
    6  A    between atoms: C_22  and  C_38
    7  A    between atoms: C_24  and  C_27
                            x       y       z     vdW  Elec       q    Type
                         _______ _______ _______ _____ _____    ______ ____

>  <TORSDO>
F 7

$$$$
=
 OpenBabel11042417113D

 38 43  0  0  1  0  0  0  0  0999 V2000
  191.8390  176.5210  145.6670 C   0  0  0  0  0  0  0  0  0  0  0  0
  189.4800  176.6810  144.7460 C   0  0  2  0  0  3  0  0  0  0  0  0
  192.5050  176.4310  146.8890 C   0  0  0  0  0  3  0  0  0  0  0  0
  190.8510  175.9420  142.5570 C   0  0  1  0  0  3  0  0  0  0  0  0
  194.0000  176.0900  144.5340 C   0  0  0  0  0  0  0  0  0  0  0  0
  192.2320  175.6500  142.0880 N   0  0  0  0  0  0  0  0  0  0  0  0
  190.3460  174.8910  143.5550 C   0  0  1  0  0  3  0  0  0  0  0  0
  193.3150  174.8890  141.6090 C   0  0  0  0  0  0  0  0  0  0  0  0
  192.5710  176.3790  144.4390 C   0  0  0  0  0  0  0  0  0  0  0  0
  194.5940  176.0040  145.7990 C   0  0  0  0  0  3  0  0  0  0  0  0
  194.3110  175.1940  142.3570 C   0  0  0  0  0  0  0  0  0  0  0  0
  191.8890  176.7200  143.0820 C   0  0  2  0  0  3  0  0  0  0  0  0
  189.2510  175.3520  144.3230 O   0  0  0  0  0  0  0  0  0  0  0  0
  190.4560  176.7490  145.7790 O   0  0  0  0  0  0  0  0  0  0  0  0
  193.8640  176.1830  146.9610 C   0  0  0  0  0  3  0  0  0  0  0  0
  194.8990  175.7380  143.3750 C   0  0  0  0  0  0  0  0  0  0  0  0
  193.8220  173.0650  140.0210 C   0  0  0  0  0  0  0  0  0  0  0  0
  194.5920  175.2830  139.5130 C   0  0  0  0  0  2  0  0  0  0  0  0
  195.4490  172.7330  139.3870 S   0  0  0  0  0  0  0  0  0  0  0  0
  193.0100  172.1710  140.1990 O   0  0  0  0  0  0  0  0  0  0  0  0
  195.3400  174.3480  138.5710 C   0  0  0  0  0  2  0  0  0  0  0  0
  193.4560  174.5030  140.1660 C   0  0  2  0  0  3  0  0  0  0  0  0
  196.8050  177.1680  143.3510 O   0  0  0  0  0  0  0  0  0  0  0  0
  196.3610  175.9890  143.3580 C   0  0  0  0  0  0  0  0  0  0  0  0
  197.3380  174.8620  143.3230 C   0  0  0  0  0  1  0  0  0  0  0  0
  190.9090  172.6390  143.0050 O   0  0  0  0  0  1  0  0  0  0  0  0
  189.9470  173.6300  142.8090 C   0  0  0  0  0  2  0  0  0  0  0  0
  188.2570  177.2700  145.1860 O   0  0  0  0  0  0  0  0  0  0  0  0
  184.7980  177.9150  144.0160 C   0  0  0  0  0  3  0  0  0  0  0  0
  186.3120  178.2180  142.1560 C   0  0  0  0  0  0  0  0  0  0  0  0
  187.3920  177.9030  142.9840 C   0  0  0  0  0  3  0  0  0  0  0  0
  185.8740  177.5950  144.8510 C   0  0  0  0  0  0  0  0  0  0  0  0
  185.0150  178.2250  142.6710 C   0  0  0  0  0  3  0  0  0  0  0  0
  187.1850  177.5890  144.3380 C   0  0  0  0  0  0  0  0  0  0  0  0
  186.5260  178.5210  140.8530 F   0  0  0  0  0  0  0  0  0  0  0  0
  185.6070  177.2790  146.2890 C   0  0  0  0  0  2  0  0  0  0  0  0
  184.9230  178.4420  146.9920 C   0  0  0  0  0  2  0  0  0  0  0  0
  185.9470  179.3410  147.6620 C   0  0  0  0  0  1  0  0  0  0  0  0
  1 14  1  0  0  0  0
  1  3  1  0  0  0  0
  2 28  1  1  0  0  0
  2 14  1  0  0  0  0
  3 15  2  0  0  0  0
  4  6  1  6  0  0  0
  4 12  1  0  0  0  0
  4  7  1  0  0  0  0
  5 10  2  0  0  0  0
  6 12  1  0  0  0  0
  7 27  1  6  0  0  0
  7 13  1  0  0  0  0
  8  6  1  0  0  0  0
  8 11  2  0  0  0  0
  9  5  1  0  0  0  0
  9  1  2  0  0  0  0
 10 15  1  0  0  0  0
 11 16  2  0  0  0  0
 12  9  1  1  0  0  0
 13  2  1  0  0  0  0
 16  5  1  0  0  0  0
 17 22  1  0  0  0  0
 17 20  2  0  0  0  0
 18 22  1  0  0  0  0
 19 17  1  0  0  0  0
 21 19  1  0  0  0  0
 21 18  1  0  0  0  0
 22  8  1  1  0  0  0
 23 24  2  0  0  0  0
 24 16  1  0  0  0  0
 25 24  1  0  0  0  0
 27 26  1  0  0  0  0
 29 32  1  0  0  0  0
 30 33  1  0  0  0  0
 30 31  2  0  0  0  0
 31 34  1  0  0  0  0
 32 36  1  0  0  0  0
 33 29  2  0  0  0  0
 34 32  2  0  0  0  0
 34 28  1  0  0  0  0
 35 30  1  0  0  0  0
 36 37  1  0  0  0  0
 37 38  1  0  0  0  0
M  END
>  <MODEL>
5

>  <REMARK>
 VINA RESULT:      -8.4      3.489      8.778
  Name = 
  7 active torsions:
  status: ('A' for Active; 'I' for Inactive)
    1  A    between atoms: C_4  and  O_12
    2  A    between atoms: C_5  and  C_36
    3  A    between atoms: O_12  and  C_23
    4  A    between atoms: C_17  and  C_35
    5  A    between atoms: C_18  and  C_27
    6  A    between atoms: C_22  and  C_38
    7  A    between atoms: C_24  and  C_27
                            x       y       z     vdW  Elec       q    Type
                         _______ _______ _______ _____ _____    ______ ____

>  <TORSDO>
F 7

$$$$
=
 OpenBabel11042417113D

 38 43  0  0  1  0  0  0  0  0999 V2000
  190.5650  175.1020  142.7480 C   0  0  0  0  0  0  0  0  0  0  0  0
  191.9310  175.5390  144.8410 C   0  0  2  0  0  3  0  0  0  0  0  0
  190.4590  174.1700  141.7160 C   0  0  0  0  0  3  0  0  0  0  0  0
  189.8190  177.1490  145.2450 C   0  0  1  0  0  3  0  0  0  0  0  0
  188.4820  176.1580  141.9170 C   0  0  0  0  0  0  0  0  0  0  0  0
  188.5590  177.6060  144.6000 N   0  0  0  0  0  0  0  0  0  0  0  0
  189.7600  175.6680  145.6430 C   0  0  1  0  0  3  0  0  0  0  0  0
  187.1740  177.7620  144.4040 C   0  0  0  0  0  0  0  0  0  0  0  0
  189.5890  176.1500  142.8700 C   0  0  0  0  0  0  0  0  0  0  0  0
  188.4400  175.1800  140.9150 C   0  0  0  0  0  3  0  0  0  0  0  0
  186.9660  177.4900  143.1680 C   0  0  0  0  0  0  0  0  0  0  0  0
  189.8330  177.3280  143.8570 C   0  0  2  0  0  3  0  0  0  0  0  0
  191.0430  175.1090  145.8530 O   0  0  0  0  0  0  0  0  0  0  0  0
  191.6670  174.9010  143.5970 O   0  0  0  0  0  0  0  0  0  0  0  0
  189.4180  174.2070  140.8050 C   0  0  0  0  0  3  0  0  0  0  0  0
  187.2760  177.0620  141.9860 C   0  0  0  0  0  0  0  0  0  0  0  0
  186.0860  178.2650  146.5650 C   0  0  0  0  0  0  0  0  0  0  0  0
  184.9820  178.9270  144.5360 C   0  0  0  0  0  2  0  0  0  0  0  0
  184.3960  177.8550  146.9370 S   0  0  0  0  0  0  0  0  0  0  0  0
  186.9470  178.2740  147.4300 O   0  0  0  0  0  0  0  0  0  0  0  0
  183.9420  179.0400  145.6420 C   0  0  0  0  0  2  0  0  0  0  0  0
  186.3530  178.7490  145.1810 C   0  0  2  0  0  3  0  0  0  0  0  0
  187.0160  177.5390  139.6660 O   0  0  0  0  0  0  0  0  0  0  0  0
  186.4780  177.4650  140.8020 C   0  0  0  0  0  0  0  0  0  0  0  0
  185.0320  177.8150  140.9280 C   0  0  0  0  0  1  0  0  0  0  0  0
  188.9480  174.1810  147.3210 O   0  0  0  0  0  1  0  0  0  0  0  0
  188.9250  175.5110  146.9010 C   0  0  0  0  0  2  0  0  0  0  0  0
  193.2790  175.2970  145.2410 O   0  0  0  0  0  0  0  0  0  0  0  0
  195.6160  172.9560  143.5650 C   0  0  0  0  0  3  0  0  0  0  0  0
  194.5410  171.7980  145.3950 C   0  0  0  0  0  0  0  0  0  0  0  0
  193.8230  172.9550  145.7040 C   0  0  0  0  0  3  0  0  0  0  0  0
  194.8960  174.1180  143.8660 C   0  0  0  0  0  0  0  0  0  0  0  0
  195.4390  171.7980  144.3260 C   0  0  0  0  0  3  0  0  0  0  0  0
  193.9920  174.1250  144.9450 C   0  0  0  0  0  0  0  0  0  0  0  0
  194.3700  170.6770  146.1360 F   0  0  0  0  0  0  0  0  0  0  0  0
  195.1180  175.3440  143.0390 C   0  0  0  0  0  2  0  0  0  0  0  0
  196.5800  175.4850  142.6400 C   0  0  0  0  0  2  0  0  0  0  0  0
  197.1470  176.8020  143.1360 C   0  0  0  0  0  1  0  0  0  0  0  0
  1  9  1  0  0  0  0
  1 14  1  0  0  0  0
  2 28  1  1  0  0  0
  2 13  1  0  0  0  0
  3  1  2  0  0  0  0
  4  6  1  6  0  0  0
  4  7  1  0  0  0  0
  5 16  1  0  0  0  0
  5  9  2  0  0  0  0
  7 13  1  0  0  0  0
  7 27  1  1  0  0  0
  8  6  1  0  0  0  0
 10  5  1  0  0  0  0
 11  8  2  0  0  0  0
 12  9  1  6  0  0  0
 12  6  1  0  0  0  0
 12  4  1  0  0  0  0
 14  2  1  0  0  0  0
 15 10  2  0  0  0  0
 15  3  1  0  0  0  0
 16 11  2  0  0  0  0
 17 19  1  0  0  0  0
 17 20  2  0  0  0  0
 18 22  1  0  0  0  0
 18 21  1  0  0  0  0
 21 19  1  0  0  0  0
 22  8  1  6  0  0  0
 22 17  1  0  0  0  0
 23 24  2  0  0  0  0
 24 25  1  0  0  0  0
 24 16  1  0  0  0  0
 27 26  1  0  0  0  0
 29 32  2  0  0  0  0
 29 33  1  0  0  0  0
 30 31  1  0  0  0  0
 30 35  1  0  0  0  0
 32 34  1  0  0  0  0
 33 30  2  0  0  0  0
 34 28  1  0  0  0  0
 34 31  2  0  0  0  0
 36 32  1  0  0  0  0
 37 36  1  0  0  0  0
 37 38  1  0  0  0  0
M  END
>  <MODEL>
6

>  <REMARK>
 VINA RESULT:      -8.3      1.621      2.350
  Name = 
  7 active torsions:
  status: ('A' for Active; 'I' for Inactive)
    1  A    between atoms: C_4  and  O_12
    2  A    between atoms: C_5  and  C_36
    3  A    between atoms: O_12  and  C_23
    4  A    between atoms: C_17  and  C_35
    5  A    between atoms: C_18  and  C_27
    6  A    between atoms: C_22  and  C_38
    7  A    between atoms: C_24  and  C_27
                            x       y       z     vdW  Elec       q    Type
                         _______ _______ _______ _____ _____    ______ ____

>  <TORSDO>
F 7

$$$$
=
 OpenBabel11042417113D

 38 43  0  0  1  0  0  0  0  0999 V2000
  191.7460  176.3950  145.8220 C   0  0  0  0  0  0  0  0  0  0  0  0
  189.3240  175.9580  145.2050 C   0  0  2  0  0  3  0  0  0  0  0  0
  192.5150  176.7940  146.9160 C   0  0  0  0  0  3  0  0  0  0  0  0
  190.6120  174.7100  143.2040 C   0  0  1  0  0  3  0  0  0  0  0  0
  193.8490  175.8790  144.6180 C   0  0  0  0  0  0  0  0  0  0  0  0
  191.9790  174.4480  142.6800 N   0  0  0  0  0  0  0  0  0  0  0  0
  190.3580  173.9930  144.5380 C   0  0  1  0  0  3  0  0  0  0  0  0
  193.1240  173.7090  142.3300 C   0  0  0  0  0  0  0  0  0  0  0  0
  192.3900  175.9460  144.6190 C   0  0  0  0  0  0  0  0  0  0  0  0
  194.5500  176.2870  145.7600 C   0  0  0  0  0  3  0  0  0  0  0  0
  194.1180  174.3610  142.8130 C   0  0  0  0  0  0  0  0  0  0  0  0
  191.5560  175.7360  143.3220 C   0  0  2  0  0  3  0  0  0  0  0  0
  189.2710  174.5460  145.2540 O   0  0  0  0  0  0  0  0  0  0  0  0
  190.3580  176.4790  146.0310 O   0  0  0  0  0  0  0  0  0  0  0  0
  193.8970  176.7490  146.8890 C   0  0  0  0  0  3  0  0  0  0  0  0
  194.6950  175.2760  143.5240 C   0  0  0  0  0  0  0  0  0  0  0  0
  192.7190  173.6530  139.8930 C   0  0  0  0  0  0  0  0  0  0  0  0
  192.3000  171.6660  141.1770 C   0  0  0  0  0  2  0  0  0  0  0  0
  191.2070  173.0740  139.1580 S   0  0  0  0  0  0  0  0  0  0  0  0
  193.3820  174.5390  139.3790 O   0  0  0  0  0  0  0  0  0  0  0  0
  191.6390  171.4440  139.8240 C   0  0  0  0  0  2  0  0  0  0  0  0
  193.2060  172.8890  141.0770 C   0  0  2  0  0  3  0  0  0  0  0  0
  196.3390  176.7900  142.6970 O   0  0  0  0  0  0  0  0  0  0  0  0
  196.0940  175.6820  143.2430 C   0  0  0  0  0  0  0  0  0  0  0  0
  197.2400  174.7850  143.5760 C   0  0  0  0  0  1  0  0  0  0  0  0
  189.2950  172.3670  143.1540 O   0  0  0  0  0  1  0  0  0  0  0  0
  190.1010  172.5190  144.2830 C   0  0  0  0  0  2  0  0  0  0  0  0
  188.0640  176.5070  145.5880 O   0  0  0  0  0  0  0  0  0  0  0  0
  184.9160  177.9250  144.2380 C   0  0  0  0  0  3  0  0  0  0  0  0
  186.6010  177.9930  142.5050 C   0  0  0  0  0  0  0  0  0  0  0  0
  187.5230  177.4160  143.3810 C   0  0  0  0  0  3  0  0  0  0  0  0
  185.8340  177.3440  145.1200 C   0  0  0  0  0  0  0  0  0  0  0  0
  185.2970  178.2490  142.9340 C   0  0  0  0  0  3  0  0  0  0  0  0
  187.1510  177.0860  144.6950 C   0  0  0  0  0  0  0  0  0  0  0  0
  186.9730  178.3080  141.2410 F   0  0  0  0  0  0  0  0  0  0  0  0
  185.3960  177.0210  146.5130 C   0  0  0  0  0  2  0  0  0  0  0  0
  184.8290  178.2480  147.2130 C   0  0  0  0  0  2  0  0  0  0  0  0
  185.9400  179.2050  147.6020 C   0  0  0  0  0  1  0  0  0  0  0  0
  1 14  1  0  0  0  0
  1  3  1  0  0  0  0
  2 13  1  0  0  0  0
  2 28  1  1  0  0  0
  2 14  1  0  0  0  0
  4  6  1  6  0  0  0
  4 12  1  0  0  0  0
  4  7  1  0  0  0  0
  5  9  1  0  0  0  0
  5 10  2  0  0  0  0
  6 12  1  0  0  0  0
  7 27  1  6  0  0  0
  7 13  1  0  0  0  0
  8  6  1  0  0  0  0
  8 11  2  0  0  0  0
  9  1  2  0  0  0  0
 10 15  1  0  0  0  0
 11 16  2  0  0  0  0
 12  9  1  1  0  0  0
 15  3  2  0  0  0  0
 16  5  1  0  0  0  0
 17 22  1  0  0  0  0
 19 21  1  0  0  0  0
 19 17  1  0  0  0  0
 20 17  2  0  0  0  0
 21 18  1  0  0  0  0
 22 18  1  0  0  0  0
 22  8  1  1  0  0  0
 23 24  2  0  0  0  0
 24 16  1  0  0  0  0
 24 25  1  0  0  0  0
 26 27  1  0  0  0  0
 29 32  1  0  0  0  0
 30 33  1  0  0  0  0
 30 31  2  0  0  0  0
 31 34  1  0  0  0  0
 32 36  1  0  0  0  0
 33 29  2  0  0  0  0
 34 32  2  0  0  0  0
 34 28  1  0  0  0  0
 35 30  1  0  0  0  0
 36 37  1  0  0  0  0
 37 38  1  0  0  0  0
M  END
>  <MODEL>
7

>  <REMARK>
 VINA RESULT:      -8.3      3.219      8.471
  Name = 
  7 active torsions:
  status: ('A' for Active; 'I' for Inactive)
    1  A    between atoms: C_4  and  O_12
    2  A    between atoms: C_5  and  C_36
    3  A    between atoms: O_12  and  C_23
    4  A    between atoms: C_17  and  C_35
    5  A    between atoms: C_18  and  C_27
    6  A    between atoms: C_22  and  C_38
    7  A    between atoms: C_24  and  C_27
                            x       y       z     vdW  Elec       q    Type
                         _______ _______ _______ _____ _____    ______ ____

>  <TORSDO>
F 7

$$$$
=
 OpenBabel11042417113D

 38 43  0  0  1  0  0  0  0  0999 V2000
  190.4390  176.5100  145.8440 C   0  0  0  0  0  0  0  0  0  0  0  0
  188.6390  177.3140  144.2470 C   0  0  2  0  0  3  0  0  0  0  0  0
  190.6510  176.3290  147.2100 C   0  0  0  0  0  3  0  0  0  0  0  0
  190.2710  175.9870  142.5750 C   0  0  1  0  0  3  0  0  0  0  0  0
  192.5730  175.3250  145.4230 C   0  0  0  0  0  0  0  0  0  0  0  0
  191.5550  175.2370  142.5490 N   0  0  0  0  0  0  0  0  0  0  0  0
  189.1830  175.2420  143.3610 C   0  0  1  0  0  3  0  0  0  0  0  0
  192.4210  174.1360  142.4170 C   0  0  0  0  0  0  0  0  0  0  0  0
  191.4100  176.0350  144.8980 C   0  0  0  0  0  0  0  0  0  0  0  0
  192.7100  175.1730  146.8080 C   0  0  0  0  0  3  0  0  0  0  0  0
  193.1980  174.1820  143.4380 C   0  0  0  0  0  0  0  0  0  0  0  0
  191.3040  176.4470  143.4010 C   0  0  2  0  0  3  0  0  0  0  0  0
  188.1230  176.0910  143.7620 O   0  0  0  0  0  0  0  0  0  0  0  0
  189.2360  177.1680  145.5290 O   0  0  0  0  0  0  0  0  0  0  0  0
  191.7720  175.6770  147.6920 C   0  0  0  0  0  3  0  0  0  0  0  0
  193.6060  174.6050  144.5910 C   0  0  0  0  0  0  0  0  0  0  0  0
  191.7310  172.8610  140.4160 C   0  0  0  0  0  0  0  0  0  0  0  0
  193.9660  172.5750  141.2520 C   0  0  0  0  0  2  0  0  0  0  0  0
  191.9470  171.1040  140.2430 S   0  0  0  0  0  0  0  0  0  0  0  0
  190.7900  173.4430  139.9010 O   0  0  0  0  0  0  0  0  0  0  0  0
  193.7290  171.4330  140.2720 C   0  0  0  0  0  2  0  0  0  0  0  0
  192.8440  173.5950  141.0830 C   0  0  2  0  0  3  0  0  0  0  0  0
  195.8190  175.3470  145.0730 O   0  0  0  0  0  0  0  0  0  0  0  0
  195.0070  174.3850  145.0240 C   0  0  0  0  0  0  0  0  0  0  0  0
  195.4990  173.0230  145.3880 C   0  0  0  0  0  1  0  0  0  0  0  0
  187.3790  174.4560  142.0130 O   0  0  0  0  0  1  0  0  0  0  0  0
  188.6320  174.1070  142.5180 C   0  0  0  0  0  2  0  0  0  0  0  0
  187.6010  178.2940  144.2960 O   0  0  0  0  0  0  0  0  0  0  0  0
  184.2180  178.6870  145.7600 C   0  0  0  0  0  3  0  0  0  0  0  0
  185.7190  177.8960  147.4830 C   0  0  0  0  0  0  0  0  0  0  0  0
  186.7700  177.8940  146.5640 C   0  0  0  0  0  3  0  0  0  0  0  0
  185.2670  178.6910  144.8350 C   0  0  0  0  0  0  0  0  0  0  0  0
  184.4410  178.2910  147.0810 C   0  0  0  0  0  3  0  0  0  0  0  0
  186.5570  178.2900  145.2330 C   0  0  0  0  0  0  0  0  0  0  0  0
  185.9370  177.5090  148.7630 F   0  0  0  0  0  0  0  0  0  0  0  0
  184.9910  179.1090  143.4260 C   0  0  0  0  0  2  0  0  0  0  0  0
  184.6150  177.9160  142.5590 C   0  0  0  0  0  2  0  0  0  0  0  0
  185.6070  177.7440  141.4240 C   0  0  0  0  0  1  0  0  0  0  0  0
  1  3  1  0  0  0  0
  2 28  1  1  0  0  0
  2 14  1  0  0  0  0
  3 15  2  0  0  0  0
  4  6  1  6  0  0  0
  4  7  1  0  0  0  0
  4 12  1  0  0  0  0
  5 10  2  0  0  0  0
  6 12  1  0  0  0  0
  7 27  1  6  0  0  0
  7 13  1  0  0  0  0
  8  6  1  0  0  0  0
  8 11  2  0  0  0  0
  9  5  1  0  0  0  0
  9  1  2  0  0  0  0
 10 15  1  0  0  0  0
 11 16  2  0  0  0  0
 12  9  1  1  0  0  0
 13  2  1  0  0  0  0
 14  1  1  0  0  0  0
 16 24  1  0  0  0  0
 16  5  1  0  0  0  0
 17 22  1  0  0  0  0
 19 21  1  0  0  0  0
 19 17  1  0  0  0  0
 20 17  2  0  0  0  0
 21 18  1  0  0  0  0
 22 18  1  0  0  0  0
 22  8  1  1  0  0  0
 24 23  2  0  0  0  0
 24 25  1  0  0  0  0
 26 27  1  0  0  0  0
 28 34  1  0  0  0  0
 29 33  1  0  0  0  0
 30 35  1  0  0  0  0
 31 30  1  0  0  0  0
 32 34  1  0  0  0  0
 32 29  2  0  0  0  0
 33 30  2  0  0  0  0
 34 31  2  0  0  0  0
 36 32  1  0  0  0  0
 37 36  1  0  0  0  0
 38 37  1  0  0  0  0
M  END
>  <MODEL>
8

>  <REMARK>
 VINA RESULT:      -8.3      3.547      8.906
  Name = 
  7 active torsions:
  status: ('A' for Active; 'I' for Inactive)
    1  A    between atoms: C_4  and  O_12
    2  A    between atoms: C_5  and  C_36
    3  A    between atoms: O_12  and  C_23
    4  A    between atoms: C_17  and  C_35
    5  A    between atoms: C_18  and  C_27
    6  A    between atoms: C_22  and  C_38
    7  A    between atoms: C_24  and  C_27
                            x       y       z     vdW  Elec       q    Type
                         _______ _______ _______ _____ _____    ______ ____

>  <TORSDO>
F 7

$$$$
=
 OpenBabel11042417113D

 38 43  0  0  1  0  0  0  0  0999 V2000
  192.3440  176.4180  145.2290 C   0  0  0  0  0  0  0  0  0  0  0  0
  190.0260  176.9550  144.3480 C   0  0  2  0  0  3  0  0  0  0  0  0
  193.0740  176.4650  146.4170 C   0  0  0  0  0  3  0  0  0  0  0  0
  190.9710  175.3600  142.4040 C   0  0  1  0  0  3  0  0  0  0  0  0
  194.2220  175.1670  144.2040 C   0  0  0  0  0  0  0  0  0  0  0  0
  192.1900  174.6080  142.0000 N   0  0  0  0  0  0  0  0  0  0  0  0
  190.3130  174.7620  143.6550 C   0  0  1  0  0  3  0  0  0  0  0  0
  193.0040  173.4960  141.7160 C   0  0  0  0  0  0  0  0  0  0  0  0
  192.9060  175.7870  144.0670 C   0  0  0  0  0  0  0  0  0  0  0  0
  194.8870  175.2470  145.4340 C   0  0  0  0  0  3  0  0  0  0  0  0
  194.1070  173.7070  142.3360 C   0  0  0  0  0  0  0  0  0  0  0  0
  192.2120  175.9440  142.6830 C   0  0  2  0  0  3  0  0  0  0  0  0
  189.4390  175.6710  144.2970 O   0  0  0  0  0  0  0  0  0  0  0  0
  191.0760  177.0200  145.3050 O   0  0  0  0  0  0  0  0  0  0  0  0
  194.3300  175.8960  146.5230 C   0  0  0  0  0  3  0  0  0  0  0  0
  194.8990  174.3130  143.1610 C   0  0  0  0  0  0  0  0  0  0  0  0
  192.5480  173.6350  139.2910 C   0  0  0  0  0  0  0  0  0  0  0  0
  191.8110  171.6900  140.4930 C   0  0  0  0  0  2  0  0  0  0  0  0
  190.9440  173.3670  138.5720 S   0  0  0  0  0  0  0  0  0  0  0  0
  193.3460  174.4160  138.7990 O   0  0  0  0  0  0  0  0  0  0  0  0
  191.0950  171.6550  139.1500 C   0  0  0  0  0  2  0  0  0  0  0  0
  192.9160  172.7390  140.4240 C   0  0  2  0  0  3  0  0  0  0  0  0
  196.9330  173.0990  143.4240 O   0  0  0  0  0  0  0  0  0  0  0  0
  196.3700  174.1610  143.0470 C   0  0  0  0  0  0  0  0  0  0  0  0
  197.2220  175.2630  142.5080 C   0  0  0  0  0  1  0  0  0  0  0  0
  190.1630  172.3890  143.8480 O   0  0  0  0  0  1  0  0  0  0  0  0
  189.5500  173.5050  143.2770 C   0  0  0  0  0  2  0  0  0  0  0  0
  189.0310  177.9350  144.6420 O   0  0  0  0  0  0  0  0  0  0  0  0
  185.3530  177.4950  144.8210 C   0  0  0  0  0  3  0  0  0  0  0  0
  186.3090  176.8940  146.9590 C   0  0  0  0  0  0  0  0  0  0  0  0
  187.5840  177.1860  146.4700 C   0  0  0  0  0  3  0  0  0  0  0  0
  186.6280  177.7930  144.3250 C   0  0  0  0  0  0  0  0  0  0  0  0
  185.1930  177.0470  146.1340 C   0  0  0  0  0  3  0  0  0  0  0  0
  187.7570  177.6370  145.1510 C   0  0  0  0  0  0  0  0  0  0  0  0
  186.1560  176.4570  148.2320 F   0  0  0  0  0  0  0  0  0  0  0  0
  186.7650  178.2590  142.9110 C   0  0  0  0  0  2  0  0  0  0  0  0
  186.3100  177.1890  141.9300 C   0  0  0  0  0  2  0  0  0  0  0  0
  187.4870  176.3480  141.4690 C   0  0  0  0  0  1  0  0  0  0  0  0
  1 14  1  0  0  0  0
  1  3  1  0  0  0  0
  2 28  1  1  0  0  0
  2 14  1  0  0  0  0
  3 15  2  0  0  0  0
  4  6  1  6  0  0  0
  4 12  1  0  0  0  0
  4  7  1  0  0  0  0
  5 10  2  0  0  0  0
  6 12  1  0  0  0  0
  7 27  1  6  0  0  0
  7 13  1  0  0  0  0
  8  6  1  0  0  0  0
  8 11  2  0  0  0  0
  9  5  1  0  0  0  0
  9  1  2  0  0  0  0
 10 15  1  0  0  0  0
 11 16  2  0  0  0  0
 12  9  1  1  0  0  0
 13  2  1  0  0  0  0
 16  5  1  0  0  0  0
 17 22  1  0  0  0  0
 19 21  1  0  0  0  0
 19 17  1  0  0  0  0
 20 17  2  0  0  0  0
 21 18  1  0  0  0  0
 22 18  1  0  0  0  0
 22  8  1  1  0  0  0
 24 16  1  0  0  0  0
 24 23  2  0  0  0  0
 25 24  1  0  0  0  0
 27 26  1  0  0  0  0
 28 34  1  0  0  0  0
 29 33  1  0  0  0  0
 30 35  1  0  0  0  0
 31 30  1  0  0  0  0
 32 29  2  0  0  0  0
 32 34  1  0  0  0  0
 33 30  2  0  0  0  0
 34 31  2  0  0  0  0
 36 32  1  0  0  0  0
 37 36  1  0  0  0  0
 38 37  1  0  0  0  0
M  END
>  <MODEL>
9

>  <REMARK>
 VINA RESULT:      -8.2      3.473      8.569
  Name = 
  7 active torsions:
  status: ('A' for Active; 'I' for Inactive)
    1  A    between atoms: C_4  and  O_12
    2  A    between atoms: C_5  and  C_36
    3  A    between atoms: O_12  and  C_23
    4  A    between atoms: C_17  and  C_35
    5  A    between atoms: C_18  and  C_27
    6  A    between atoms: C_22  and  C_38
    7  A    between atoms: C_24  and  C_27
                            x       y       z     vdW  Elec       q    Type
                         _______ _______ _______ _____ _____    ______ ____

>  <TORSDO>
F 7

$$$$
