=
 OpenBabel11042416333D

 62 63  0  0  1  0  0  0  0  0999 V2000
  189.0750  173.3750  138.3740 C   0  0  1  0  0  3  0  0  0  0  0  0
  189.1080  174.1990  137.0970 C   0  0  0  0  0  2  0  0  0  0  0  0
  190.4320  174.5050  136.7660 O   0  0  0  0  0  1  0  0  0  0  0  0
  190.4990  172.9700  138.7670 C   0  0  2  0  0  3  0  0  0  0  0  0
  189.4560  170.8080  138.2650 N   0  0  0  0  0  1  0  0  0  0  0  0
  190.7280  171.4920  138.4270 C   0  0  1  0  0  3  0  0  0  0  0  0
  191.5980  171.3150  137.1840 C   0  0  0  0  0  2  0  0  0  0  0  0
  191.7310  169.8490  136.8050 C   0  0  0  0  0  2  0  0  0  0  0  0
  193.1770  169.4020  136.9340 C   0  0  0  0  0  2  0  0  0  0  0  0
  194.0670  170.5930  137.2440 C   0  0  0  0  0  2  0  0  0  0  0  0
  195.0720  170.8310  136.1670 C   0  0  0  0  0  0  0  0  0  0  0  0
  196.1240  170.1360  136.1200 O   0  0  0  0  0  0  0  0  0  0  0  0
  195.0140  174.0330  137.7260 C   0  0  0  0  0  1  0  0  0  0  0  0
  194.8410  171.8850  135.2240 N   0  0  0  0  0  0  0  0  0  0  0  0
  195.1080  174.4070  134.6260 C   0  0  0  0  0  2  0  0  0  0  0  0
  195.7570  175.2190  135.6940 C   0  0  0  0  0  2  0  0  0  0  0  0
  195.8770  173.9550  136.4750 C   0  0  2  0  0  3  0  0  0  0  0  0
  195.1950  173.1180  135.4110 C   0  0  0  0  0  0  0  0  0  0  0  0
  190.7480  173.2160  140.1860 N   0  0  0  0  0  2  0  0  0  0  0  0
  191.9930  173.9650  140.2970 C   0  0  0  0  0  2  0  0  0  0  0  0
  193.1190  173.0530  140.7670 C   0  0  0  0  0  2  0  0  0  0  0  0
  192.6240  172.4430  142.9940 O   0  0  0  0  0  0  0  0  0  0  0  0
  193.3060  173.1310  142.2510 C   0  0  0  0  0  0  0  0  0  0  0  0
  194.3840  173.9920  142.8280 C   0  0  0  0  0  2  0  0  0  0  0  0
  195.7720  173.5000  142.4250 C   0  0  2  0  0  3  0  0  0  0  0  0
  196.9100  171.4180  142.1010 O   0  0  0  0  0  1  0  0  0  0  0  0
  195.8860  172.0320  142.8250 C   0  0  0  0  0  2  0  0  0  0  0  0
  196.8620  174.3570  143.0930 C   0  0  2  0  0  3  0  0  0  0  0  0
  195.8410  175.2100  145.2140 O   0  0  0  0  0  1  0  0  0  0  0  0
  196.1290  176.6020  143.4210 O   0  0  0  0  0  0  0  0  0  0  0  0
  196.2570  175.4520  143.9110 C   0  0  0  0  0  0  0  0  0  0  0  0
  197.8230  174.9680  142.0760 C   0  0  0  0  0  2  0  0  0  0  0  0
  197.2920  174.7430  140.6740 C   0  0  0  0  0  2  0  0  0  0  0  0
  196.7650  175.9360  140.1770 O   0  0  0  0  0  1  0  0  0  0  0  0
  188.2320  174.3340  139.6760 S   0  0  0  0  0  0  0  0  0  0  0  0
  187.6540  175.5770  138.4830 C   0  0  0  0  0  2  0  0  0  0  0  0
  187.7860  177.4570  140.6180 O   0  0  0  0  0  0  0  0  0  0  0  0
  186.6670  177.2700  140.0750 C   0  0  0  0  0  0  0  0  0  0  0  0
  186.5210  176.3010  139.0380 N   0  0  0  0  0  2  0  0  0  0  0  0
  185.4670  178.0180  140.5470 C   0  0  0  0  0  2  0  0  0  0  0  0
  184.9990  177.4850  141.7820 O   0  0  0  0  0  0  0  0  0  0  0  0
  183.9010  178.7680  143.3600 O   0  0  0  0  0  0  0  0  0  0  0  0
  184.9740  178.2410  142.9580 C   0  0  0  0  0  0  0  0  0  0  0  0
  186.1460  179.6430  144.4680 F   0  0  0  0  0  0  0  0  0  0  0  0
  186.2340  178.4750  143.7220 C   0  0  1  0  0  3  0  0  0  0  0  0
  186.5750  177.2740  144.6130 C   0  0  1  0  0  3  0  0  0  0  0  0
  190.4290  176.2320  146.3440 C   0  0  1  0  0  3  0  0  0  0  0  0
  187.9430  176.7940  146.7970 C   0  0  0  0  0  2  0  0  0  0  0  0
  190.0690  176.0830  143.7230 C   0  0  0  0  0  2  0  0  0  0  0  0
  188.8740  176.9700  143.7920 C   0  0  0  0  0  2  0  0  0  0  0  0
  187.6700  176.4410  144.0190 C   0  0  0  0  0  2  0  0  0  0  0  0
  186.9030  177.6850  146.0820 C   0  0  2  0  0  3  0  0  0  0  0  0
  190.2780  175.3470  145.0730 C   0  0  2  0  0  3  0  0  0  0  0  0
  189.7320  178.1780  147.5890 O   0  0  0  0  0  1  0  0  0  0  0  0
  189.3590  177.3260  146.5530 C   0  0  1  0  0  3  0  0  0  0  0  0
  184.5540  176.9200  146.5880 N   0  0  0  0  0  1  0  0  0  0  0  0
  185.6600  177.7570  146.9070 C   0  0  0  0  0  0  0  0  0  0  0  0
  185.5690  178.5770  147.8590 O   0  0  0  0  0  0  0  0  0  0  0  0
  191.8850  175.1850  147.6510 C   0  0  0  0  0  1  0  0  0  0  0  0
  190.5220  175.4260  147.4830 O   0  0  0  0  0  0  0  0  0  0  0  0
  189.9550  173.1580  144.9040 C   0  0  0  0  0  1  0  0  0  0  0  0
  189.3120  174.3470  145.2610 O   0  0  0  0  0  0  0  0  0  0  0  0
  1  2  1  6  0  0  0
  1  4  1  0  0  0  0
  1 35  1  0  0  0  0
  3  2  1  0  0  0  0
  4 19  1  1  0  0  0
  6  5  1  6  0  0  0
  6  4  1  0  0  0  0
  7  6  1  0  0  0  0
  8  9  1  0  0  0  0
  8  7  1  0  0  0  0
  9 10  1  0  0  0  0
 11 10  1  0  0  0  0
 12 11  2  0  0  0  0
 14 18  2  0  0  0  0
 14 11  1  0  0  0  0
 15 18  1  0  0  0  0
 15 16  1  0  0  0  0
 16 17  1  0  0  0  0
 17 13  1  1  0  0  0
 18 17  1  0  0  0  0
 19 20  1  0  0  0  0
 20 21  1  0  0  0  0
 21 23  1  0  0  0  0
 23 24  1  0  0  0  0
 23 22  2  0  0  0  0
 25 27  1  1  0  0  0
 25 24  1  0  0  0  0
 25 28  1  0  0  0  0
 26 27  1  0  0  0  0
 28 32  1  6  0  0  0
 28 31  1  0  0  0  0
 30 31  2  0  0  0  0
 31 29  1  0  0  0  0
 33 32  1  0  0  0  0
 34 33  1  0  0  0  0
 36 39  1  0  0  0  0
 36 35  1  0  0  0  0
 38 40  1  0  0  0  0
 38 37  2  0  0  0  0
 39 38  1  0  0  0  0
 40 41  1  0  0  0  0
 41 43  1  0  0  0  0
 43 42  2  0  0  0  0
 43 45  1  0  0  0  0
 45 44  1  1  0  0  0
 46 45  1  6  0  0  0
 46 52  1  0  0  0  0
 47 55  1  0  0  0  0
 47 60  1  1  0  0  0
 49 50  1  0  0  0  0
 49 53  1  0  0  0  0
 50 51  1  0  0  0  0
 51 46  1  0  0  0  0
 52 48  1  0  0  0  0
 52 57  1  1  0  0  0
 53 62  1  1  0  0  0
 53 47  1  0  0  0  0
 55 48  1  0  0  0  0
 55 54  1  1  0  0  0
 56 57  1  0  0  0  0
 57 58  2  0  0  0  0
 60 59  1  0  0  0  0
 61 62  1  0  0  0  0
M  END
>  <MODEL>
1

>  <REMARK>
 VINA RESULT:      -4.8      0.000      0.000
  Name = 
  31 active torsions:
  status: ('A' for Active; 'I' for Inactive)
    1  A    between atoms: C_1  and  C_42
    2  A    between atoms: C_4  and  C_48
    3  A    between atoms: C_6  and  C_25
    4  A    between atoms: C_6  and  C_46
    5  A    between atoms: C_6  and  C_49
    6  A    between atoms: N_7  and  C_28
    7  A    between atoms: C_9  and  C_26
    8  A    between atoms: C_9  and  C_28
    9  A    between atoms: C_14  and  C_47
   10  A    between atoms: C_16  and  C_41
   11  A    between atoms: C_17  and  O_62
   12  A    between atoms: C_23  and  C_25
   13  A    between atoms: C_23  and  C_56
   14  A    between atoms: O_24  and  C_43
   15  A    between atoms: C_26  and  C_32
   16  A    between atoms: C_30  and  S_53
   17  A    between atoms: C_30  and  N_55
   18  A    between atoms: O_31  and  C_47
   19  A    between atoms: O_31  and  C_60
   20  A    between atoms: C_32  and  C_54
   21  A    between atoms: C_36  and  C_59
   22  A    between atoms: C_42  and  C_60
   23  A    between atoms: C_44  and  N_45
   24  A    between atoms: C_44  and  C_56
   25  A    between atoms: N_45  and  C_58
   26  A    between atoms: C_48  and  S_53
   27  A    between atoms: C_48  and  C_58
   28  A    between atoms: C_49  and  C_59
   29  A    between atoms: C_49  and  C_61
   30  A    between atoms: C_50  and  C_54
   31  A    between atoms: C_50  and  C_58
                            x       y       z     vdW  Elec       q    Type
                         _______ _______ _______ _____ _____    ______ ____

>  <TORSDO>
F 31

$$$$
=
 OpenBabel11042416333D

 62 63  0  0  1  0  0  0  0  0999 V2000
  189.6740  172.5450  138.9460 C   0  0  1  0  0  3  0  0  0  0  0  0
  188.5300  173.1020  138.1130 C   0  0  0  0  0  2  0  0  0  0  0  0
  188.6870  172.7180  136.7780 O   0  0  0  0  0  1  0  0  0  0  0  0
  190.8320  172.1370  138.0290 C   0  0  2  0  0  3  0  0  0  0  0  0
  192.0290  170.1760  137.1720 N   0  0  0  0  0  1  0  0  0  0  0  0
  191.1450  170.6480  138.2240 C   0  0  1  0  0  3  0  0  0  0  0  0
  191.7430  170.3630  139.6000 C   0  0  0  0  0  2  0  0  0  0  0  0
  193.2580  170.4860  139.5830 C   0  0  0  0  0  2  0  0  0  0  0  0
  193.8250  170.2050  140.9630 C   0  0  0  0  0  2  0  0  0  0  0  0
  192.8220  170.6050  142.0310 C   0  0  0  0  0  2  0  0  0  0  0  0
  192.5930  169.5080  143.0160 C   0  0  0  0  0  0  0  0  0  0  0  0
  192.0540  168.4290  142.6470 O   0  0  0  0  0  0  0  0  0  0  0  0
  195.8020  168.1670  143.7880 C   0  0  0  0  0  1  0  0  0  0  0  0
  192.9510  169.7220  144.3870 N   0  0  0  0  0  0  0  0  0  0  0  0
  194.8440  169.9590  146.1610 C   0  0  0  0  0  2  0  0  0  0  0  0
  196.2180  169.7750  145.6120 C   0  0  0  0  0  2  0  0  0  0  0  0
  195.5770  169.5900  144.2790 C   0  0  2  0  0  3  0  0  0  0  0  0
  194.1710  169.7470  144.8240 C   0  0  0  0  0  0  0  0  0  0  0  0
  192.0200  172.9500  138.2820 N   0  0  0  0  0  2  0  0  0  0  0  0
  192.3970  173.5900  137.0290 C   0  0  0  0  0  2  0  0  0  0  0  0
  193.8960  173.4490  136.7920 C   0  0  0  0  0  2  0  0  0  0  0  0
  193.6630  172.5190  134.6340 O   0  0  0  0  0  0  0  0  0  0  0  0
  194.1900  172.4330  135.7310 C   0  0  0  0  0  0  0  0  0  0  0  0
  195.1940  171.3540  135.9820 C   0  0  0  0  0  2  0  0  0  0  0  0
  196.3160  171.8330  136.9000 C   0  0  2  0  0  3  0  0  0  0  0  0
  197.2180  173.0620  135.0530 O   0  0  0  0  0  1  0  0  0  0  0  0
  197.5400  172.1240  136.0360 C   0  0  0  0  0  2  0  0  0  0  0  0
  196.6210  170.7750  137.9760 C   0  0  2  0  0  3  0  0  0  0  0  0
  196.8500  172.7790  139.4590 O   0  0  0  0  0  0  0  0  0  0  0  0
  197.5750  170.7240  140.1610 O   0  0  0  0  0  1  0  0  0  0  0  0
  197.0450  171.4190  139.2570 C   0  0  0  0  0  0  0  0  0  0  0  0
  197.7010  169.7920  137.5320 C   0  0  0  0  0  2  0  0  0  0  0  0
  197.2160  168.3710  137.7430 C   0  0  0  0  0  2  0  0  0  0  0  0
  196.1040  168.3780  138.5860 O   0  0  0  0  0  1  0  0  0  0  0  0
  190.1640  173.7880  140.1870 S   0  0  0  0  0  0  0  0  0  0  0  0
  188.4960  174.5100  140.2230 C   0  0  0  0  0  2  0  0  0  0  0  0
  187.6740  177.1680  140.8300 O   0  0  0  0  0  0  0  0  0  0  0  0
  187.7510  176.3500  141.7830 C   0  0  0  0  0  0  0  0  0  0  0  0
  188.2100  175.0180  141.5550 N   0  0  0  0  0  2  0  0  0  0  0  0
  187.4160  176.7790  143.1710 C   0  0  0  0  0  2  0  0  0  0  0  0
  188.0110  175.9030  144.1220 O   0  0  0  0  0  0  0  0  0  0  0  0
  188.4760  176.6470  146.2610 O   0  0  0  0  0  0  0  0  0  0  0  0
  188.8940  176.3600  145.1060 C   0  0  0  0  0  0  0  0  0  0  0  0
  191.0960  176.6270  145.9390 F   0  0  0  0  0  0  0  0  0  0  0  0
  190.3350  176.5630  144.7790 C   0  0  1  0  0  3  0  0  0  0  0  0
  190.8530  175.4680  143.8370 C   0  0  1  0  0  3  0  0  0  0  0  0
  194.9480  174.0920  143.3250 C   0  0  1  0  0  3  0  0  0  0  0  0
  192.5160  173.4440  143.9290 C   0  0  0  0  0  2  0  0  0  0  0  0
  194.2600  176.5270  142.5380 C   0  0  0  0  0  2  0  0  0  0  0  0
  193.0380  176.5040  143.3910 C   0  0  0  0  0  2  0  0  0  0  0  0
  191.9040  175.9940  142.9080 C   0  0  0  0  0  2  0  0  0  0  0  0
  191.3460  174.1990  144.5990 C   0  0  2  0  0  3  0  0  0  0  0  0
  194.6810  175.0830  142.1550 C   0  0  2  0  0  3  0  0  0  0  0  0
  194.3160  173.2590  145.5000 O   0  0  0  0  0  1  0  0  0  0  0  0
  193.8580  174.0020  144.4150 C   0  0  1  0  0  3  0  0  0  0  0  0
  189.7760  172.3970  143.7930 N   0  0  0  0  0  1  0  0  0  0  0  0
  190.2170  173.2500  144.8430 C   0  0  0  0  0  0  0  0  0  0  0  0
  189.6310  173.2250  145.9570 O   0  0  0  0  0  0  0  0  0  0  0  0
  196.6210  172.7120  142.8520 C   0  0  0  0  0  1  0  0  0  0  0  0
  195.2310  172.8180  142.8210 O   0  0  0  0  0  0  0  0  0  0  0  0
  194.3150  174.9260  139.9730 C   0  0  0  0  0  1  0  0  0  0  0  0
  193.8030  174.5310  141.2110 O   0  0  0  0  0  0  0  0  0  0  0  0
  1  2  1  6  0  0  0
  1 35  1  0  0  0  0
  3  2  1  0  0  0  0
  4  6  1  0  0  0  0
  4 19  1  1  0  0  0
  4  1  1  0  0  0  0
  6  5  1  6  0  0  0
  6  7  1  0  0  0  0
  8  7  1  0  0  0  0
  8  9  1  0  0  0  0
  9 10  1  0  0  0  0
 10 11  1  0  0  0  0
 11 14  1  0  0  0  0
 12 11  2  0  0  0  0
 14 18  2  0  0  0  0
 16 15  1  0  0  0  0
 17 13  1  1  0  0  0
 17 18  1  0  0  0  0
 17 16  1  0  0  0  0
 18 15  1  0  0  0  0
 20 19  1  0  0  0  0
 21 20  1  0  0  0  0
 22 23  2  0  0  0  0
 23 24  1  0  0  0  0
 23 21  1  0  0  0  0
 25 24  1  6  0  0  0
 25 28  1  0  0  0  0
 26 27  1  0  0  0  0
 27 25  1  0  0  0  0
 28 32  1  6  0  0  0
 28 31  1  0  0  0  0
 31 29  2  0  0  0  0
 31 30  1  0  0  0  0
 32 33  1  0  0  0  0
 33 34  1  0  0  0  0
 35 36  1  0  0  0  0
 36 39  1  0  0  0  0
 37 38  2  0  0  0  0
 38 40  1  0  0  0  0
 39 38  1  0  0  0  0
 40 41  1  0  0  0  0
 41 43  1  0  0  0  0
 43 42  2  0  0  0  0
 45 43  1  0  0  0  0
 45 44  1  1  0  0  0
 46 52  1  0  0  0  0
 46 45  1  1  0  0  0
 47 60  1  6  0  0  0
 47 55  1  0  0  0  0
 48 55  1  0  0  0  0
 48 52  1  0  0  0  0
 49 50  1  0  0  0  0
 51 50  1  0  0  0  0
 51 46  1  0  0  0  0
 52 57  1  6  0  0  0
 53 62  1  6  0  0  0
 53 49  1  0  0  0  0
 53 47  1  0  0  0  0
 55 54  1  1  0  0  0
 56 57  1  0  0  0  0
 57 58  2  0  0  0  0
 60 59  1  0  0  0  0
 61 62  1  0  0  0  0
M  END
>  <MODEL>
2

>  <REMARK>
 VINA RESULT:      -4.2      2.661      6.072
  Name = 
  31 active torsions:
  status: ('A' for Active; 'I' for Inactive)
    1  A    between atoms: C_1  and  C_42
    2  A    between atoms: C_4  and  C_48
    3  A    between atoms: C_6  and  C_25
    4  A    between atoms: C_6  and  C_46
    5  A    between atoms: C_6  and  C_49
    6  A    between atoms: N_7  and  C_28
    7  A    between atoms: C_9  and  C_26
    8  A    between atoms: C_9  and  C_28
    9  A    between atoms: C_14  and  C_47
   10  A    between atoms: C_16  and  C_41
   11  A    between atoms: C_17  and  O_62
   12  A    between atoms: C_23  and  C_25
   13  A    between atoms: C_23  and  C_56
   14  A    between atoms: O_24  and  C_43
   15  A    between atoms: C_26  and  C_32
   16  A    between atoms: C_30  and  S_53
   17  A    between atoms: C_30  and  N_55
   18  A    between atoms: O_31  and  C_47
   19  A    between atoms: O_31  and  C_60
   20  A    between atoms: C_32  and  C_54
   21  A    between atoms: C_36  and  C_59
   22  A    between atoms: C_42  and  C_60
   23  A    between atoms: C_44  and  N_45
   24  A    between atoms: C_44  and  C_56
   25  A    between atoms: N_45  and  C_58
   26  A    between atoms: C_48  and  S_53
   27  A    between atoms: C_48  and  C_58
   28  A    between atoms: C_49  and  C_59
   29  A    between atoms: C_49  and  C_61
   30  A    between atoms: C_50  and  C_54
   31  A    between atoms: C_50  and  C_58
                            x       y       z     vdW  Elec       q    Type
                         _______ _______ _______ _____ _____    ______ ____

>  <TORSDO>
F 31

$$$$
=
 OpenBabel11042416333D

 62 63  0  0  1  0  0  0  0  0999 V2000
  189.0150  173.7420  137.4970 C   0  0  1  0  0  3  0  0  0  0  0  0
  189.0590  174.8020  136.4080 C   0  0  0  0  0  2  0  0  0  0  0  0
  189.2370  174.1910  135.1630 O   0  0  0  0  0  1  0  0  0  0  0  0
  190.4220  173.1860  137.7360 C   0  0  2  0  0  3  0  0  0  0  0  0
  189.3840  172.0770  139.6620 N   0  0  0  0  0  1  0  0  0  0  0  0
  190.3350  171.9050  138.5760 C   0  0  1  0  0  3  0  0  0  0  0  0
  189.9730  170.6860  137.7300 C   0  0  0  0  0  2  0  0  0  0  0  0
  189.8400  169.4370  138.5850 C   0  0  0  0  0  2  0  0  0  0  0  0
  190.9730  168.4700  138.2840 C   0  0  0  0  0  2  0  0  0  0  0  0
  192.0330  169.1550  137.4390 C   0  0  0  0  0  2  0  0  0  0  0  0
  193.4010  168.9650  138.0040 C   0  0  0  0  0  0  0  0  0  0  0  0
  193.5740  168.2120  139.0010 O   0  0  0  0  0  0  0  0  0  0  0  0
  196.1450  169.2740  140.2550 C   0  0  0  0  0  1  0  0  0  0  0  0
  194.4950  169.6860  137.4240 N   0  0  0  0  0  0  0  0  0  0  0  0
  197.0560  170.1660  137.4030 C   0  0  0  0  0  2  0  0  0  0  0  0
  197.8200  169.4320  138.4520 C   0  0  0  0  0  2  0  0  0  0  0  0
  196.5250  168.8150  138.8540 C   0  0  2  0  0  3  0  0  0  0  0  0
  195.7270  169.5740  137.8130 C   0  0  0  0  0  0  0  0  0  0  0  0
  191.2790  174.1720  138.3910 N   0  0  0  0  0  2  0  0  0  0  0  0
  192.5540  174.1920  137.6890 C   0  0  0  0  0  2  0  0  0  0  0  0
  193.2650  172.8530  137.8430 C   0  0  0  0  0  2  0  0  0  0  0  0
  195.5830  173.2890  137.9490 O   0  0  0  0  0  0  0  0  0  0  0  0
  194.5690  173.0030  138.5650 C   0  0  0  0  0  0  0  0  0  0  0  0
  194.6200  172.8840  140.0540 C   0  0  0  0  0  2  0  0  0  0  0  0
  195.3010  174.0920  140.6910 C   0  0  2  0  0  3  0  0  0  0  0  0
  197.2700  175.3420  140.1460 O   0  0  0  0  0  1  0  0  0  0  0  0
  196.7820  174.0460  140.3260 C   0  0  0  0  0  2  0  0  0  0  0  0
  195.0930  174.0860  142.2170 C   0  0  2  0  0  3  0  0  0  0  0  0
  193.6560  176.1220  142.4620 O   0  0  0  0  0  0  0  0  0  0  0  0
  195.7340  176.0440  143.4170 O   0  0  0  0  0  1  0  0  0  0  0  0
  194.8520  175.4690  142.7310 C   0  0  0  0  0  0  0  0  0  0  0  0
  196.2790  173.4780  142.9600 C   0  0  0  0  0  2  0  0  0  0  0  0
  195.7790  172.5030  144.0080 C   0  0  0  0  0  2  0  0  0  0  0  0
  196.2450  172.8890  145.2660 O   0  0  0  0  0  1  0  0  0  0  0  0
  188.2820  174.4690  139.0010 S   0  0  0  0  0  0  0  0  0  0  0  0
  187.5080  175.8150  138.0570 C   0  0  0  0  0  2  0  0  0  0  0  0
  187.6170  177.7570  140.1360 O   0  0  0  0  0  0  0  0  0  0  0  0
  186.4820  177.3440  139.7840 C   0  0  0  0  0  0  0  0  0  0  0  0
  186.3600  176.3310  138.7860 N   0  0  0  0  0  2  0  0  0  0  0  0
  185.2520  177.8690  140.4430 C   0  0  0  0  0  2  0  0  0  0  0  0
  185.1650  177.3990  141.7840 O   0  0  0  0  0  0  0  0  0  0  0  0
  184.1380  178.9250  143.1850 O   0  0  0  0  0  0  0  0  0  0  0  0
  185.1710  178.2690  142.8790 C   0  0  0  0  0  0  0  0  0  0  0  0
  186.2680  179.5040  144.5790 F   0  0  0  0  0  0  0  0  0  0  0  0
  186.4210  178.4670  143.6680 C   0  0  1  0  0  3  0  0  0  0  0  0
  186.8480  177.1720  144.3710 C   0  0  1  0  0  3  0  0  0  0  0  0
  190.7560  176.1700  146.0010 C   0  0  1  0  0  3  0  0  0  0  0  0
  188.2300  176.4650  146.4840 C   0  0  0  0  0  2  0  0  0  0  0  0
  190.4320  176.4020  143.3810 C   0  0  0  0  0  2  0  0  0  0  0  0
  189.1710  177.1740  143.5620 C   0  0  0  0  0  2  0  0  0  0  0  0
  188.0100  176.5270  143.6790 C   0  0  0  0  0  2  0  0  0  0  0  0
  187.1300  177.3740  145.8920 C   0  0  2  0  0  3  0  0  0  0  0  0
  190.6860  175.4840  144.6060 C   0  0  2  0  0  3  0  0  0  0  0  0
  189.8980  177.8410  147.5160 O   0  0  0  0  0  1  0  0  0  0  0  0
  189.6020  177.1340  146.3530 C   0  0  1  0  0  3  0  0  0  0  0  0
  185.7670  177.8690  147.9560 N   0  0  0  0  0  1  0  0  0  0  0  0
  185.8770  177.2230  146.6930 C   0  0  0  0  0  0  0  0  0  0  0  0
  184.9330  176.5010  146.2750 O   0  0  0  0  0  0  0  0  0  0  0  0
  192.2770  175.0900  147.2030 C   0  0  0  0  0  1  0  0  0  0  0  0
  190.9020  175.2070  147.0040 O   0  0  0  0  0  0  0  0  0  0  0  0
  190.5160  173.3460  144.0390 C   0  0  0  0  0  1  0  0  0  0  0  0
  189.8000  174.3970  144.6180 O   0  0  0  0  0  0  0  0  0  0  0  0
  1  2  1  6  0  0  0
  1  4  1  0  0  0  0
  1 35  1  0  0  0  0
  3  2  1  0  0  0  0
  4 19  1  1  0  0  0
  4  6  1  0  0  0  0
  6  5  1  1  0  0  0
  7  6  1  0  0  0  0
  7  8  1  0  0  0  0
  9  8  1  0  0  0  0
 10 11  1  0  0  0  0
 10  9  1  0  0  0  0
 11 12  2  0  0  0  0
 14 18  2  0  0  0  0
 14 11  1  0  0  0  0
 15 18  1  0  0  0  0
 15 16  1  0  0  0  0
 16 17  1  0  0  0  0
 17 13  1  1  0  0  0
 18 17  1  0  0  0  0
 20 21  1  0  0  0  0
 20 19  1  0  0  0  0
 21 23  1  0  0  0  0
 22 23  2  0  0  0  0
 23 24  1  0  0  0  0
 25 24  1  6  0  0  0
 25 28  1  0  0  0  0
 26 27  1  0  0  0  0
 27 25  1  0  0  0  0
 28 31  1  0  0  0  0
 28 32  1  1  0  0  0
 29 31  2  0  0  0  0
 31 30  1  0  0  0  0
 32 33  1  0  0  0  0
 33 34  1  0  0  0  0
 36 39  1  0  0  0  0
 36 35  1  0  0  0  0
 38 37  2  0  0  0  0
 38 40  1  0  0  0  0
 39 38  1  0  0  0  0
 40 41  1  0  0  0  0
 41 43  1  0  0  0  0
 43 42  2  0  0  0  0
 43 45  1  0  0  0  0
 45 44  1  1  0  0  0
 46 45  1  6  0  0  0
 46 52  1  0  0  0  0
 47 55  1  0  0  0  0
 47 60  1  1  0  0  0
 49 50  1  0  0  0  0
 49 53  1  0  0  0  0
 50 51  1  0  0  0  0
 51 46  1  0  0  0  0
 52 48  1  0  0  0  0
 52 57  1  1  0  0  0
 53 62  1  1  0  0  0
 53 47  1  0  0  0  0
 55 48  1  0  0  0  0
 55 54  1  1  0  0  0
 57 56  1  0  0  0  0
 58 57  2  0  0  0  0
 60 59  1  0  0  0  0
 61 62  1  0  0  0  0
M  END
>  <MODEL>
3

>  <REMARK>
 VINA RESULT:      -3.7      1.696      2.667
  Name = 
  31 active torsions:
  status: ('A' for Active; 'I' for Inactive)
    1  A    between atoms: C_1  and  C_42
    2  A    between atoms: C_4  and  C_48
    3  A    between atoms: C_6  and  C_25
    4  A    between atoms: C_6  and  C_46
    5  A    between atoms: C_6  and  C_49
    6  A    between atoms: N_7  and  C_28
    7  A    between atoms: C_9  and  C_26
    8  A    between atoms: C_9  and  C_28
    9  A    between atoms: C_14  and  C_47
   10  A    between atoms: C_16  and  C_41
   11  A    between atoms: C_17  and  O_62
   12  A    between atoms: C_23  and  C_25
   13  A    between atoms: C_23  and  C_56
   14  A    between atoms: O_24  and  C_43
   15  A    between atoms: C_26  and  C_32
   16  A    between atoms: C_30  and  S_53
   17  A    between atoms: C_30  and  N_55
   18  A    between atoms: O_31  and  C_47
   19  A    between atoms: O_31  and  C_60
   20  A    between atoms: C_32  and  C_54
   21  A    between atoms: C_36  and  C_59
   22  A    between atoms: C_42  and  C_60
   23  A    between atoms: C_44  and  N_45
   24  A    between atoms: C_44  and  C_56
   25  A    between atoms: N_45  and  C_58
   26  A    between atoms: C_48  and  S_53
   27  A    between atoms: C_48  and  C_58
   28  A    between atoms: C_49  and  C_59
   29  A    between atoms: C_49  and  C_61
   30  A    between atoms: C_50  and  C_54
   31  A    between atoms: C_50  and  C_58
                            x       y       z     vdW  Elec       q    Type
                         _______ _______ _______ _____ _____    ______ ____

>  <TORSDO>
F 31

$$$$
=
 OpenBabel11042416333D

 62 63  0  0  1  0  0  0  0  0999 V2000
  189.4140  174.4770  141.3310 C   0  0  1  0  0  3  0  0  0  0  0  0
  188.1110  175.2540  141.4370 C   0  0  0  0  0  2  0  0  0  0  0  0
  188.3460  176.6060  141.1710 O   0  0  0  0  0  1  0  0  0  0  0  0
  190.3670  174.9080  142.4500 C   0  0  2  0  0  3  0  0  0  0  0  0
  192.4920  176.1320  142.4850 N   0  0  0  0  0  1  0  0  0  0  0  0
  191.7980  174.9950  141.9030 C   0  0  1  0  0  3  0  0  0  0  0  0
  192.5830  173.7060  142.1380 C   0  0  0  0  0  2  0  0  0  0  0  0
  193.8350  173.9610  142.9600 C   0  0  0  0  0  2  0  0  0  0  0  0
  193.8770  173.0290  144.1590 C   0  0  0  0  0  2  0  0  0  0  0  0
  195.3010  172.9000  144.6700 C   0  0  0  0  0  2  0  0  0  0  0  0
  196.2430  173.7770  143.9160 C   0  0  0  0  0  0  0  0  0  0  0  0
  196.6760  174.8390  144.4420 O   0  0  0  0  0  0  0  0  0  0  0  0
  196.2600  176.5870  141.7260 C   0  0  0  0  0  1  0  0  0  0  0  0
  196.6060  173.4150  142.5790 N   0  0  0  0  0  0  0  0  0  0  0  0
  197.5900  174.1560  140.2830 C   0  0  0  0  0  2  0  0  0  0  0  0
  197.9390  175.6040  140.2100 C   0  0  0  0  0  2  0  0  0  0  0  0
  197.4950  175.7030  141.6290 C   0  0  2  0  0  3  0  0  0  0  0  0
  197.1080  174.2390  141.7130 C   0  0  0  0  0  0  0  0  0  0  0  0
  190.3060  173.9870  143.5840 N   0  0  0  0  0  2  0  0  0  0  0  0
  189.3670  174.5340  144.5530 C   0  0  0  0  0  2  0  0  0  0  0  0
  190.0960  174.9340  145.8290 C   0  0  0  0  0  2  0  0  0  0  0  0
  189.7720  176.4260  147.6310 O   0  0  0  0  0  0  0  0  0  0  0  0
  189.2860  175.8940  146.6460 C   0  0  0  0  0  0  0  0  0  0  0  0
  187.9040  176.2670  146.2140 C   0  0  0  0  0  2  0  0  0  0  0  0
  187.5940  177.7290  146.5250 C   0  0  2  0  0  3  0  0  0  0  0  0
  187.7060  179.1820  148.4260 O   0  0  0  0  0  1  0  0  0  0  0  0
  187.4420  177.8670  148.0370 C   0  0  0  0  0  2  0  0  0  0  0  0
  186.3220  178.1800  145.7840 C   0  0  2  0  0  3  0  0  0  0  0  0
  184.3270  178.6620  147.2180 O   0  0  0  0  0  1  0  0  0  0  0  0
  184.7450  176.5350  146.4840 O   0  0  0  0  0  0  0  0  0  0  0  0
  185.0930  177.7420  146.5140 C   0  0  0  0  0  0  0  0  0  0  0  0
  186.2670  177.6500  144.3530 C   0  0  0  0  0  2  0  0  0  0  0  0
  186.5620  178.7760  143.3810 C   0  0  0  0  0  2  0  0  0  0  0  0
  187.7200  178.4800  142.6610 O   0  0  0  0  0  1  0  0  0  0  0  0
  189.0430  172.6920  141.3720 S   0  0  0  0  0  0  0  0  0  0  0  0
  189.8040  172.4250  139.7440 C   0  0  0  0  0  2  0  0  0  0  0  0
  190.0880  171.0930  137.2440 O   0  0  0  0  0  0  0  0  0  0  0  0
  190.2990  170.4220  138.2880 C   0  0  0  0  0  0  0  0  0  0  0  0
  190.1190  171.0150  139.5730 N   0  0  0  0  0  2  0  0  0  0  0  0
  190.6830  168.9850  138.1950 C   0  0  0  0  0  2  0  0  0  0  0  0
  192.0910  168.8550  138.0230 O   0  0  0  0  0  0  0  0  0  0  0  0
  192.9840  168.1780  140.0440 O   0  0  0  0  0  0  0  0  0  0  0  0
  192.9870  168.9980  139.0860 C   0  0  0  0  0  0  0  0  0  0  0  0
  195.2070  169.7440  139.4500 F   0  0  0  0  0  0  0  0  0  0  0  0
  193.9230  170.1590  139.1220 C   0  0  1  0  0  3  0  0  0  0  0  0
  193.9120  170.9250  137.7930 C   0  0  1  0  0  3  0  0  0  0  0  0
  195.8720  174.6950  136.8560 C   0  0  1  0  0  3  0  0  0  0  0  0
  195.6200  172.1890  136.2580 C   0  0  0  0  0  2  0  0  0  0  0  0
  193.8420  174.6430  138.5580 C   0  0  0  0  0  2  0  0  0  0  0  0
  194.0040  173.1780  138.7750 C   0  0  0  0  0  2  0  0  0  0  0  0
  193.3870  172.3170  137.9640 C   0  0  0  0  0  2  0  0  0  0  0  0
  195.3010  170.9220  137.0820 C   0  0  2  0  0  3  0  0  0  0  0  0
  194.3890  175.0500  137.1640 C   0  0  2  0  0  3  0  0  0  0  0  0
  197.6890  173.1160  137.0340 O   0  0  0  0  0  1  0  0  0  0  0  0
  196.3050  173.2400  137.1380 C   0  0  1  0  0  3  0  0  0  0  0  0
  196.6910  169.4810  135.5490 N   0  0  0  0  0  1  0  0  0  0  0  0
  195.4560  169.7140  136.2170 C   0  0  0  0  0  0  0  0  0  0  0  0
  194.4930  168.9200  136.0460 O   0  0  0  0  0  0  0  0  0  0  0  0
  196.2240  176.4380  135.5290 C   0  0  0  0  0  1  0  0  0  0  0  0
  196.1880  175.0440  135.5400 O   0  0  0  0  0  0  0  0  0  0  0  0
  192.4200  175.4470  136.2210 C   0  0  0  0  0  1  0  0  0  0  0  0
  193.5380  174.6120  136.1380 O   0  0  0  0  0  0  0  0  0  0  0  0
  1 35  1  0  0  0  0
  1  2  1  1  0  0  0
  1  4  1  0  0  0  0
  3  2  1  0  0  0  0
  4 19  1  1  0  0  0
  6  7  1  0  0  0  0
  6  4  1  0  0  0  0
  6  5  1  1  0  0  0
  7  8  1  0  0  0  0
  8  9  1  0  0  0  0
  9 10  1  0  0  0  0
 11 12  2  0  0  0  0
 11 10  1  0  0  0  0
 14 11  1  0  0  0  0
 15 18  1  0  0  0  0
 16 15  1  0  0  0  0
 16 17  1  0  0  0  0
 17 18  1  0  0  0  0
 17 13  1  6  0  0  0
 18 14  2  0  0  0  0
 19 20  1  0  0  0  0
 20 21  1  0  0  0  0
 21 23  1  0  0  0  0
 23 22  2  0  0  0  0
 24 23  1  0  0  0  0
 25 24  1  1  0  0  0
 25 27  1  0  0  0  0
 27 26  1  0  0  0  0
 28 32  1  6  0  0  0
 28 31  1  0  0  0  0
 28 25  1  0  0  0  0
 30 31  2  0  0  0  0
 31 29  1  0  0  0  0
 33 32  1  0  0  0  0
 34 33  1  0  0  0  0
 36 35  1  0  0  0  0
 37 38  2  0  0  0  0
 38 39  1  0  0  0  0
 39 36  1  0  0  0  0
 40 38  1  0  0  0  0
 41 40  1  0  0  0  0
 41 43  1  0  0  0  0
 43 45  1  0  0  0  0
 43 42  2  0  0  0  0
 45 44  1  6  0  0  0
 46 51  1  0  0  0  0
 46 45  1  1  0  0  0
 47 60  1  6  0  0  0
 47 55  1  0  0  0  0
 47 53  1  0  0  0  0
 48 52  1  0  0  0  0
 48 55  1  0  0  0  0
 49 50  1  0  0  0  0
 51 50  1  0  0  0  0
 52 57  1  6  0  0  0
 52 46  1  0  0  0  0
 53 62  1  6  0  0  0
 53 49  1  0  0  0  0
 55 54  1  6  0  0  0
 56 57  1  0  0  0  0
 58 57  2  0  0  0  0
 59 60  1  0  0  0  0
 62 61  1  0  0  0  0
M  END
>  <MODEL>
4

>  <REMARK>
 VINA RESULT:      -3.6      3.011     10.019
  Name = 
  31 active torsions:
  status: ('A' for Active; 'I' for Inactive)
    1  A    between atoms: C_1  and  C_42
    2  A    between atoms: C_4  and  C_48
    3  A    between atoms: C_6  and  C_25
    4  A    between atoms: C_6  and  C_46
    5  A    between atoms: C_6  and  C_49
    6  A    between atoms: N_7  and  C_28
    7  A    between atoms: C_9  and  C_26
    8  A    between atoms: C_9  and  C_28
    9  A    between atoms: C_14  and  C_47
   10  A    between atoms: C_16  and  C_41
   11  A    between atoms: C_17  and  O_62
   12  A    between atoms: C_23  and  C_25
   13  A    between atoms: C_23  and  C_56
   14  A    between atoms: O_24  and  C_43
   15  A    between atoms: C_26  and  C_32
   16  A    between atoms: C_30  and  S_53
   17  A    between atoms: C_30  and  N_55
   18  A    between atoms: O_31  and  C_47
   19  A    between atoms: O_31  and  C_60
   20  A    between atoms: C_32  and  C_54
   21  A    between atoms: C_36  and  C_59
   22  A    between atoms: C_42  and  C_60
   23  A    between atoms: C_44  and  N_45
   24  A    between atoms: C_44  and  C_56
   25  A    between atoms: N_45  and  C_58
   26  A    between atoms: C_48  and  S_53
   27  A    between atoms: C_48  and  C_58
   28  A    between atoms: C_49  and  C_59
   29  A    between atoms: C_49  and  C_61
   30  A    between atoms: C_50  and  C_54
   31  A    between atoms: C_50  and  C_58
                            x       y       z     vdW  Elec       q    Type
                         _______ _______ _______ _____ _____    ______ ____

>  <TORSDO>
F 31

$$$$
=
 OpenBabel11042416333D

 62 63  0  0  1  0  0  0  0  0999 V2000
  188.5520  173.7050  138.2800 C   0  0  1  0  0  3  0  0  0  0  0  0
  188.5650  174.8530  137.2820 C   0  0  0  0  0  2  0  0  0  0  0  0
  188.4800  174.3470  135.9820 O   0  0  0  0  0  1  0  0  0  0  0  0
  189.9060  172.9880  138.2620 C   0  0  2  0  0  3  0  0  0  0  0  0
  190.1030  171.5280  136.3020 N   0  0  0  0  0  1  0  0  0  0  0  0
  189.7300  171.5690  137.7060 C   0  0  1  0  0  3  0  0  0  0  0  0
  190.5230  170.5370  138.5050 C   0  0  0  0  0  2  0  0  0  0  0  0
  190.0420  169.1240  138.2160 C   0  0  0  0  0  2  0  0  0  0  0  0
  190.7430  168.5700  136.9880 C   0  0  0  0  0  2  0  0  0  0  0  0
  192.2250  168.3930  137.2680 C   0  0  0  0  0  2  0  0  0  0  0  0
  193.0680  168.9490  136.1690 C   0  0  0  0  0  0  0  0  0  0  0  0
  193.4920  168.1920  135.2540 O   0  0  0  0  0  0  0  0  0  0  0  0
  196.5970  169.4370  136.2040 C   0  0  0  0  0  1  0  0  0  0  0  0
  193.4200  170.3370  136.2010 N   0  0  0  0  0  0  0  0  0  0  0  0
  195.1900  172.1770  135.6810 C   0  0  0  0  0  2  0  0  0  0  0  0
  196.4670  171.6500  135.1220 C   0  0  0  0  0  2  0  0  0  0  0  0
  195.8500  170.2960  135.1930 C   0  0  2  0  0  3  0  0  0  0  0  0
  194.5540  170.8100  135.7880 C   0  0  0  0  0  0  0  0  0  0  0  0
  190.5020  172.9470  139.5960 N   0  0  0  0  0  2  0  0  0  0  0  0
  191.9500  172.9270  139.4370 C   0  0  0  0  0  2  0  0  0  0  0  0
  192.6110  172.3390  140.6770 C   0  0  0  0  0  2  0  0  0  0  0  0
  192.2790  173.6430  142.6180 O   0  0  0  0  0  0  0  0  0  0  0  0
  192.9920  173.4080  141.6550 C   0  0  0  0  0  0  0  0  0  0  0  0
  194.2870  174.1390  141.5040 C   0  0  0  0  0  2  0  0  0  0  0  0
  195.0230  173.7200  140.2340 C   0  0  2  0  0  3  0  0  0  0  0  0
  195.9470  172.3550  141.9710 O   0  0  0  0  0  1  0  0  0  0  0  0
  196.0620  172.6700  140.6160 C   0  0  0  0  0  2  0  0  0  0  0  0
  195.6730  174.9420  139.5600 C   0  0  2  0  0  3  0  0  0  0  0  0
  196.2160  174.6260  137.1360 O   0  0  0  0  0  0  0  0  0  0  0  0
  194.1660  175.4190  137.7750 O   0  0  0  0  0  1  0  0  0  0  0  0
  195.3070  175.0130  138.1120 C   0  0  0  0  0  0  0  0  0  0  0  0
  197.1940  174.9340  139.6890 C   0  0  0  0  0  2  0  0  0  0  0  0
  197.6360  176.0720  140.5880 C   0  0  0  0  0  2  0  0  0  0  0  0
  197.4750  175.7020  141.9240 O   0  0  0  0  0  1  0  0  0  0  0  0
  188.1250  174.3590  139.9280 S   0  0  0  0  0  0  0  0  0  0  0  0
  187.7330  176.0000  139.2530 C   0  0  0  0  0  2  0  0  0  0  0  0
  187.3400  178.2690  140.9270 O   0  0  0  0  0  0  0  0  0  0  0  0
  186.3190  177.6300  140.5630 C   0  0  0  0  0  0  0  0  0  0  0  0
  186.4510  176.4520  139.7690 N   0  0  0  0  0  2  0  0  0  0  0  0
  184.9620  178.0650  141.0020 C   0  0  0  0  0  2  0  0  0  0  0  0
  184.7310  177.6900  142.3560 O   0  0  0  0  0  0  0  0  0  0  0  0
  183.7720  179.3180  143.6870 O   0  0  0  0  0  0  0  0  0  0  0  0
  184.7800  178.6150  143.4030 C   0  0  0  0  0  0  0  0  0  0  0  0
  185.9570  179.9360  144.9810 F   0  0  0  0  0  0  0  0  0  0  0  0
  186.0470  178.8170  144.1630 C   0  0  1  0  0  3  0  0  0  0  0  0
  186.4150  177.5680  144.9750 C   0  0  1  0  0  3  0  0  0  0  0  0
  190.3170  176.4370  146.5340 C   0  0  1  0  0  3  0  0  0  0  0  0
  187.8440  176.9670  147.0890 C   0  0  0  0  0  2  0  0  0  0  0  0
  189.8820  176.4370  143.9200 C   0  0  0  0  0  2  0  0  0  0  0  0
  188.6890  177.3160  144.0730 C   0  0  0  0  0  2  0  0  0  0  0  0
  187.4930  176.7730  144.3040 C   0  0  0  0  0  2  0  0  0  0  0  0
  186.7840  177.8950  146.4550 C   0  0  2  0  0  3  0  0  0  0  0  0
  190.1300  175.6250  145.2190 C   0  0  2  0  0  3  0  0  0  0  0  0
  189.6540  178.3070  147.9070 O   0  0  0  0  0  1  0  0  0  0  0  0
  189.2520  177.5150  146.8350 C   0  0  1  0  0  3  0  0  0  0  0  0
  184.2760  177.9580  146.7140 N   0  0  0  0  0  1  0  0  0  0  0  0
  185.5640  177.9180  147.3180 C   0  0  0  0  0  0  0  0  0  0  0  0
  185.6670  177.9360  148.5730 O   0  0  0  0  0  0  0  0  0  0  0  0
  191.8070  175.3040  147.7240 C   0  0  0  0  0  1  0  0  0  0  0  0
  190.4420  175.5680  147.6220 O   0  0  0  0  0  0  0  0  0  0  0  0
  189.7150  173.5010  144.7310 C   0  0  0  0  0  1  0  0  0  0  0  0
  189.1700  174.6150  145.3770 O   0  0  0  0  0  0  0  0  0  0  0  0
  1  2  1  6  0  0  0
  1 35  1  0  0  0  0
  3  2  1  0  0  0  0
  4  1  1  0  0  0  0
  4 19  1  1  0  0  0
  6  5  1  6  0  0  0
  6  4  1  0  0  0  0
  6  7  1  0  0  0  0
  8  7  1  0  0  0  0
  9 10  1  0  0  0  0
  9  8  1  0  0  0  0
 11 14  1  0  0  0  0
 11 10  1  0  0  0  0
 12 11  2  0  0  0  0
 15 18  1  0  0  0  0
 16 17  1  0  0  0  0
 16 15  1  0  0  0  0
 17 18  1  0  0  0  0
 17 13  1  1  0  0  0
 18 14  2  0  0  0  0
 20 19  1  0  0  0  0
 20 21  1  0  0  0  0
 21 23  1  0  0  0  0
 23 22  2  0  0  0  0
 24 23  1  0  0  0  0
 25 27  1  1  0  0  0
 25 24  1  0  0  0  0
 27 26  1  0  0  0  0
 28 32  1  6  0  0  0
 28 25  1  0  0  0  0
 29 31  2  0  0  0  0
 30 31  1  0  0  0  0
 31 28  1  0  0  0  0
 32 33  1  0  0  0  0
 33 34  1  0  0  0  0
 36 39  1  0  0  0  0
 36 35  1  0  0  0  0
 38 37  2  0  0  0  0
 38 40  1  0  0  0  0
 39 38  1  0  0  0  0
 40 41  1  0  0  0  0
 41 43  1  0  0  0  0
 43 42  2  0  0  0  0
 43 45  1  0  0  0  0
 45 44  1  1  0  0  0
 46 45  1  6  0  0  0
 46 52  1  0  0  0  0
 47 55  1  0  0  0  0
 47 60  1  1  0  0  0
 49 50  1  0  0  0  0
 49 53  1  0  0  0  0
 50 51  1  0  0  0  0
 51 46  1  0  0  0  0
 52 48  1  0  0  0  0
 52 57  1  1  0  0  0
 53 62  1  1  0  0  0
 53 47  1  0  0  0  0
 55 48  1  0  0  0  0
 55 54  1  1  0  0  0
 56 57  1  0  0  0  0
 57 58  2  0  0  0  0
 60 59  1  0  0  0  0
 61 62  1  0  0  0  0
M  END
>  <MODEL>
5

>  <REMARK>
 VINA RESULT:      -3.6      1.457      2.271
  Name = 
  31 active torsions:
  status: ('A' for Active; 'I' for Inactive)
    1  A    between atoms: C_1  and  C_42
    2  A    between atoms: C_4  and  C_48
    3  A    between atoms: C_6  and  C_25
    4  A    between atoms: C_6  and  C_46
    5  A    between atoms: C_6  and  C_49
    6  A    between atoms: N_7  and  C_28
    7  A    between atoms: C_9  and  C_26
    8  A    between atoms: C_9  and  C_28
    9  A    between atoms: C_14  and  C_47
   10  A    between atoms: C_16  and  C_41
   11  A    between atoms: C_17  and  O_62
   12  A    between atoms: C_23  and  C_25
   13  A    between atoms: C_23  and  C_56
   14  A    between atoms: O_24  and  C_43
   15  A    between atoms: C_26  and  C_32
   16  A    between atoms: C_30  and  S_53
   17  A    between atoms: C_30  and  N_55
   18  A    between atoms: O_31  and  C_47
   19  A    between atoms: O_31  and  C_60
   20  A    between atoms: C_32  and  C_54
   21  A    between atoms: C_36  and  C_59
   22  A    between atoms: C_42  and  C_60
   23  A    between atoms: C_44  and  N_45
   24  A    between atoms: C_44  and  C_56
   25  A    between atoms: N_45  and  C_58
   26  A    between atoms: C_48  and  S_53
   27  A    between atoms: C_48  and  C_58
   28  A    between atoms: C_49  and  C_59
   29  A    between atoms: C_49  and  C_61
   30  A    between atoms: C_50  and  C_54
   31  A    between atoms: C_50  and  C_58
                            x       y       z     vdW  Elec       q    Type
                         _______ _______ _______ _____ _____    ______ ____

>  <TORSDO>
F 31

$$$$
=
 OpenBabel11042416333D

 62 63  0  0  1  0  0  0  0  0999 V2000
  188.9470  173.5240  137.0830 C   0  0  1  0  0  3  0  0  0  0  0  0
  189.2690  174.7170  136.1970 C   0  0  0  0  0  2  0  0  0  0  0  0
  188.0940  175.2090  135.6220 O   0  0  0  0  0  1  0  0  0  0  0  0
  190.1650  172.5990  137.1700 C   0  0  2  0  0  3  0  0  0  0  0  0
  190.5610  170.5060  135.9550 N   0  0  0  0  0  1  0  0  0  0  0  0
  189.7240  171.1450  136.9570 C   0  0  1  0  0  3  0  0  0  0  0  0
  189.7330  170.3450  138.2580 C   0  0  0  0  0  2  0  0  0  0  0  0
  190.3630  168.9760  138.0630 C   0  0  0  0  0  2  0  0  0  0  0  0
  191.4320  168.7340  139.1140 C   0  0  0  0  0  2  0  0  0  0  0  0
  191.3680  169.8110  140.1820 C   0  0  0  0  0  2  0  0  0  0  0  0
  192.7280  170.2740  140.5860 C   0  0  0  0  0  0  0  0  0  0  0  0
  193.7360  169.5500  140.3580 O   0  0  0  0  0  0  0  0  0  0  0  0
  193.1290  169.8360  144.0990 C   0  0  0  0  0  1  0  0  0  0  0  0
  192.8580  171.5240  141.2740 N   0  0  0  0  0  0  0  0  0  0  0  0
  193.7320  172.8120  143.3640 C   0  0  0  0  0  2  0  0  0  0  0  0
  194.3810  171.9420  144.3860 C   0  0  0  0  0  2  0  0  0  0  0  0
  194.1220  170.7990  143.4650 C   0  0  2  0  0  3  0  0  0  0  0  0
  193.4350  171.6630  142.4270 C   0  0  0  0  0  0  0  0  0  0  0  0
  190.8510  172.7450  138.4520 N   0  0  0  0  0  2  0  0  0  0  0  0
  192.2580  173.0050  138.1780 C   0  0  0  0  0  2  0  0  0  0  0  0
  192.5510  174.4960  138.2860 C   0  0  0  0  0  2  0  0  0  0  0  0
  194.1980  175.6580  137.0540 O   0  0  0  0  0  0  0  0  0  0  0  0
  193.9640  174.8070  137.8980 C   0  0  0  0  0  0  0  0  0  0  0  0
  195.1010  174.1350  138.5990 C   0  0  0  0  0  2  0  0  0  0  0  0
  195.8500  175.1030  139.5110 C   0  0  2  0  0  3  0  0  0  0  0  0
  197.3760  175.7500  137.7820 O   0  0  0  0  0  1  0  0  0  0  0  0
  197.3020  175.1610  139.0460 C   0  0  0  0  0  2  0  0  0  0  0  0
  195.7430  174.6520  140.9790 C   0  0  2  0  0  3  0  0  0  0  0  0
  195.9270  176.4330  142.7300 O   0  0  0  0  0  1  0  0  0  0  0  0
  193.9200  176.0000  141.7190 O   0  0  0  0  0  0  0  0  0  0  0  0
  195.1430  175.7270  141.8280 C   0  0  0  0  0  0  0  0  0  0  0  0
  197.0960  174.2540  141.5630 C   0  0  0  0  0  2  0  0  0  0  0  0
  197.4030  172.8140  141.2030 C   0  0  0  0  0  2  0  0  0  0  0  0
  197.9400  172.1590  142.3120 O   0  0  0  0  0  1  0  0  0  0  0  0
  188.4050  174.1290  138.7160 S   0  0  0  0  0  0  0  0  0  0  0  0
  187.7150  175.6510  138.0010 C   0  0  0  0  0  2  0  0  0  0  0  0
  187.4770  177.9140  139.7130 O   0  0  0  0  0  0  0  0  0  0  0  0
  186.4480  177.2130  139.5270 C   0  0  0  0  0  0  0  0  0  0  0  0
  186.5140  176.0340  138.7250 N   0  0  0  0  0  2  0  0  0  0  0  0
  185.1620  177.5750  140.1880 C   0  0  0  0  0  2  0  0  0  0  0  0
  185.2540  177.3870  141.5960 O   0  0  0  0  0  0  0  0  0  0  0  0
  184.2510  179.2840  142.4570 O   0  0  0  0  0  0  0  0  0  0  0  0
  185.2030  178.4580  142.4950 C   0  0  0  0  0  0  0  0  0  0  0  0
  185.9690  179.6420  144.3990 F   0  0  0  0  0  0  0  0  0  0  0  0
  186.3080  178.6620  143.4760 C   0  0  1  0  0  3  0  0  0  0  0  0
  186.6800  177.3490  144.1760 C   0  0  1  0  0  3  0  0  0  0  0  0
  190.5220  176.2150  145.8770 C   0  0  1  0  0  3  0  0  0  0  0  0
  187.9960  176.5830  146.3100 C   0  0  0  0  0  2  0  0  0  0  0  0
  190.2590  176.4780  143.2530 C   0  0  0  0  0  2  0  0  0  0  0  0
  189.0180  177.2870  143.4140 C   0  0  0  0  0  2  0  0  0  0  0  0
  187.8360  176.6740  143.5030 C   0  0  0  0  0  2  0  0  0  0  0  0
  186.9370  177.5300  145.7040 C   0  0  2  0  0  3  0  0  0  0  0  0
  190.4600  175.5430  144.4750 C   0  0  2  0  0  3  0  0  0  0  0  0
  189.6840  177.8990  147.3890 O   0  0  0  0  0  1  0  0  0  0  0  0
  189.3910  177.2110  146.2140 C   0  0  1  0  0  3  0  0  0  0  0  0
  185.3080  176.1600  147.0590 N   0  0  0  0  0  1  0  0  0  0  0  0
  185.6630  177.4100  146.4780 C   0  0  0  0  0  0  0  0  0  0  0  0
  184.8870  178.3950  146.5890 O   0  0  0  0  0  0  0  0  0  0  0  0
  191.8370  175.4810  147.5060 C   0  0  0  0  0  1  0  0  0  0  0  0
  190.6170  175.2400  146.8740 O   0  0  0  0  0  0  0  0  0  0  0  0
  190.3190  173.3340  144.6290 C   0  0  0  0  0  1  0  0  0  0  0  0
  189.5410  174.4830  144.4590 O   0  0  0  0  0  0  0  0  0  0  0  0
  1  2  1  6  0  0  0
  1  4  1  0  0  0  0
  1 35  1  0  0  0  0
  3  2  1  0  0  0  0
  4 19  1  1  0  0  0
  6  5  1  6  0  0  0
  6  4  1  0  0  0  0
  6  7  1  0  0  0  0
  8  7  1  0  0  0  0
  8  9  1  0  0  0  0
  9 10  1  0  0  0  0
 10 11  1  0  0  0  0
 11 14  1  0  0  0  0
 12 11  2  0  0  0  0
 14 18  2  0  0  0  0
 15 16  1  0  0  0  0
 17 13  1  1  0  0  0
 17 16  1  0  0  0  0
 18 15  1  0  0  0  0
 18 17  1  0  0  0  0
 20 21  1  0  0  0  0
 20 19  1  0  0  0  0
 22 23  2  0  0  0  0
 23 21  1  0  0  0  0
 23 24  1  0  0  0  0
 25 24  1  6  0  0  0
 25 28  1  0  0  0  0
 26 27  1  0  0  0  0
 27 25  1  0  0  0  0
 28 32  1  1  0  0  0
 28 31  1  0  0  0  0
 30 31  2  0  0  0  0
 31 29  1  0  0  0  0
 33 32  1  0  0  0  0
 33 34  1  0  0  0  0
 36 35  1  0  0  0  0
 36 39  1  0  0  0  0
 38 37  2  0  0  0  0
 38 40  1  0  0  0  0
 39 38  1  0  0  0  0
 40 41  1  0  0  0  0
 41 43  1  0  0  0  0
 42 43  2  0  0  0  0
 43 45  1  0  0  0  0
 45 44  1  1  0  0  0
 46 45  1  6  0  0  0
 46 52  1  0  0  0  0
 47 55  1  0  0  0  0
 47 60  1  1  0  0  0
 49 50  1  0  0  0  0
 49 53  1  0  0  0  0
 50 51  1  0  0  0  0
 51 46  1  0  0  0  0
 52 48  1  0  0  0  0
 52 57  1  1  0  0  0
 53 62  1  1  0  0  0
 53 47  1  0  0  0  0
 55 48  1  0  0  0  0
 55 54  1  1  0  0  0
 57 58  2  0  0  0  0
 57 56  1  0  0  0  0
 60 59  1  0  0  0  0
 62 61  1  0  0  0  0
M  END
>  <MODEL>
6

>  <REMARK>
 VINA RESULT:      -3.5      1.900      3.457
  Name = 
  31 active torsions:
  status: ('A' for Active; 'I' for Inactive)
    1  A    between atoms: C_1  and  C_42
    2  A    between atoms: C_4  and  C_48
    3  A    between atoms: C_6  and  C_25
    4  A    between atoms: C_6  and  C_46
    5  A    between atoms: C_6  and  C_49
    6  A    between atoms: N_7  and  C_28
    7  A    between atoms: C_9  and  C_26
    8  A    between atoms: C_9  and  C_28
    9  A    between atoms: C_14  and  C_47
   10  A    between atoms: C_16  and  C_41
   11  A    between atoms: C_17  and  O_62
   12  A    between atoms: C_23  and  C_25
   13  A    between atoms: C_23  and  C_56
   14  A    between atoms: O_24  and  C_43
   15  A    between atoms: C_26  and  C_32
   16  A    between atoms: C_30  and  S_53
   17  A    between atoms: C_30  and  N_55
   18  A    between atoms: O_31  and  C_47
   19  A    between atoms: O_31  and  C_60
   20  A    between atoms: C_32  and  C_54
   21  A    between atoms: C_36  and  C_59
   22  A    between atoms: C_42  and  C_60
   23  A    between atoms: C_44  and  N_45
   24  A    between atoms: C_44  and  C_56
   25  A    between atoms: N_45  and  C_58
   26  A    between atoms: C_48  and  S_53
   27  A    between atoms: C_48  and  C_58
   28  A    between atoms: C_49  and  C_59
   29  A    between atoms: C_49  and  C_61
   30  A    between atoms: C_50  and  C_54
   31  A    between atoms: C_50  and  C_58
                            x       y       z     vdW  Elec       q    Type
                         _______ _______ _______ _____ _____    ______ ____

>  <TORSDO>
F 31

$$$$
=
 OpenBabel11042416333D

 62 63  0  0  1  0  0  0  0  0999 V2000
  194.5260  170.0560  143.0180 C   0  0  1  0  0  3  0  0  0  0  0  0
  194.2210  168.8540  142.1390 C   0  0  0  0  0  2  0  0  0  0  0  0
  195.4050  168.1720  141.8440 O   0  0  0  0  0  1  0  0  0  0  0  0
  196.0320  170.3350  143.0110 C   0  0  2  0  0  3  0  0  0  0  0  0
  197.8370  169.9900  144.6350 N   0  0  0  0  0  1  0  0  0  0  0  0
  196.5200  170.5740  144.4450 C   0  0  1  0  0  3  0  0  0  0  0  0
  196.5300  172.0570  144.8090 C   0  0  0  0  0  2  0  0  0  0  0  0
  195.5640  172.3570  145.9440 C   0  0  0  0  0  2  0  0  0  0  0  0
  194.6680  173.5280  145.5780 C   0  0  0  0  0  2  0  0  0  0  0  0
  195.2210  174.8120  146.1700 C   0  0  0  0  0  2  0  0  0  0  0  0
  194.5470  176.0180  145.6070 C   0  0  0  0  0  0  0  0  0  0  0  0
  194.6170  177.1230  146.2130 O   0  0  0  0  0  0  0  0  0  0  0  0
  196.5740  176.3750  142.6990 C   0  0  0  0  0  1  0  0  0  0  0  0
  193.7860  175.8860  144.4000 N   0  0  0  0  0  0  0  0  0  0  0  0
  193.7610  175.3040  141.8610 C   0  0  0  0  0  2  0  0  0  0  0  0
  195.1020  174.9740  141.3000 C   0  0  0  0  0  2  0  0  0  0  0  0
  195.6400  175.1730  142.6750 C   0  0  2  0  0  3  0  0  0  0  0  0
  194.2890  175.5380  143.2580 C   0  0  0  0  0  0  0  0  0  0  0  0
  196.3560  171.4790  142.1610 N   0  0  0  0  0  2  0  0  0  0  0  0
  197.3840  171.0580  141.2180 C   0  0  0  0  0  2  0  0  0  0  0  0
  196.7630  170.7410  139.8640 C   0  0  0  0  0  2  0  0  0  0  0  0
  196.5160  173.0590  139.4850 O   0  0  0  0  0  0  0  0  0  0  0  0
  196.0770  171.9380  139.2810 C   0  0  0  0  0  0  0  0  0  0  0  0
  194.8980  171.7630  138.3780 C   0  0  0  0  0  2  0  0  0  0  0  0
  194.9690  172.6980  137.1740 C   0  0  2  0  0  3  0  0  0  0  0  0
  192.9610  173.2260  135.9800 O   0  0  0  0  0  1  0  0  0  0  0  0
  193.9300  172.2360  136.1570 C   0  0  0  0  0  2  0  0  0  0  0  0
  196.3870  172.6990  136.5740 C   0  0  2  0  0  3  0  0  0  0  0  0
  195.8190  175.0810  136.0490 O   0  0  0  0  0  1  0  0  0  0  0  0
  197.9410  174.2900  135.7160 O   0  0  0  0  0  0  0  0  0  0  0  0
  196.7620  174.0620  136.0870 C   0  0  0  0  0  0  0  0  0  0  0  0
  196.5320  171.7030  135.4270 C   0  0  0  0  0  2  0  0  0  0  0  0
  196.3700  170.2900  135.9550 C   0  0  0  0  0  2  0  0  0  0  0  0
  197.6280  169.7200  136.1550 O   0  0  0  0  0  1  0  0  0  0  0  0
  193.5450  171.4790  142.4380 S   0  0  0  0  0  0  0  0  0  0  0  0
  192.3260  170.3990  141.6310 C   0  0  0  0  0  2  0  0  0  0  0  0
  190.4990  169.3910  139.6930 O   0  0  0  0  0  0  0  0  0  0  0  0
  190.4660  170.6250  139.9400 C   0  0  0  0  0  0  0  0  0  0  0  0
  191.3920  171.2020  140.8590 N   0  0  0  0  0  2  0  0  0  0  0  0
  189.4940  171.5070  139.2320 C   0  0  0  0  0  2  0  0  0  0  0  0
  189.6070  172.8480  139.6970 O   0  0  0  0  0  0  0  0  0  0  0  0
  187.8060  173.0290  141.1340 O   0  0  0  0  0  0  0  0  0  0  0  0
  189.0190  173.2730  140.8920 C   0  0  0  0  0  0  0  0  0  0  0  0
  190.4980  175.0930  141.2350 F   0  0  0  0  0  0  0  0  0  0  0  0
  189.8140  174.0670  141.8730 C   0  0  1  0  0  3  0  0  0  0  0  0
  188.9260  174.6110  143.0000 C   0  0  1  0  0  3  0  0  0  0  0  0
  190.1250  176.9660  146.4570 C   0  0  1  0  0  3  0  0  0  0  0  0
  188.6320  176.8420  144.3450 C   0  0  0  0  0  2  0  0  0  0  0  0
  190.8800  174.4350  146.2510 C   0  0  0  0  0  2  0  0  0  0  0  0
  190.6070  174.4260  144.7860 C   0  0  0  0  0  2  0  0  0  0  0  0
  189.3840  174.1300  144.3430 C   0  0  0  0  0  2  0  0  0  0  0  0
  188.7900  176.1650  142.9650 C   0  0  2  0  0  3  0  0  0  0  0  0
  190.0020  175.4990  146.9610 C   0  0  2  0  0  3  0  0  0  0  0  0
  190.3530  178.4900  144.5990 O   0  0  0  0  0  1  0  0  0  0  0  0
  190.0060  177.1830  144.9320 C   0  0  1  0  0  3  0  0  0  0  0  0
  186.3390  176.6200  142.5870 N   0  0  0  0  0  1  0  0  0  0  0  0
  187.6660  176.5840  142.0750 C   0  0  0  0  0  0  0  0  0  0  0  0
  187.8770  176.8700  140.8670 O   0  0  0  0  0  0  0  0  0  0  0  0
  189.9950  178.6510  147.8950 C   0  0  0  0  0  1  0  0  0  0  0  0
  189.2140  177.7850  147.1310 O   0  0  0  0  0  0  0  0  0  0  0  0
  188.6170  174.1560  148.0570 C   0  0  0  0  0  1  0  0  0  0  0  0
  188.6600  175.0930  147.0210 O   0  0  0  0  0  0  0  0  0  0  0  0
  1  2  1  6  0  0  0
  3  2  1  0  0  0  0
  4 19  1  6  0  0  0
  4  1  1  0  0  0  0
  4  6  1  0  0  0  0
  6  5  1  6  0  0  0
  6  7  1  0  0  0  0
  7  8  1  0  0  0  0
  9  8  1  0  0  0  0
  9 10  1  0  0  0  0
 11 10  1  0  0  0  0
 11 12  2  0  0  0  0
 14 11  1  0  0  0  0
 15 18  1  0  0  0  0
 16 15  1  0  0  0  0
 16 17  1  0  0  0  0
 17 13  1  6  0  0  0
 17 18  1  0  0  0  0
 18 14  2  0  0  0  0
 20 19  1  0  0  0  0
 21 20  1  0  0  0  0
 23 22  2  0  0  0  0
 23 21  1  0  0  0  0
 24 23  1  0  0  0  0
 25 27  1  6  0  0  0
 25 24  1  0  0  0  0
 26 27  1  0  0  0  0
 28 32  1  6  0  0  0
 28 25  1  0  0  0  0
 29 31  1  0  0  0  0
 30 31  2  0  0  0  0
 31 28  1  0  0  0  0
 32 33  1  0  0  0  0
 33 34  1  0  0  0  0
 35  1  1  0  0  0  0
 36 35  1  0  0  0  0
 37 38  2  0  0  0  0
 38 39  1  0  0  0  0
 39 36  1  0  0  0  0
 40 41  1  0  0  0  0
 40 38  1  0  0  0  0
 41 43  1  0  0  0  0
 43 42  2  0  0  0  0
 43 45  1  0  0  0  0
 45 44  1  6  0  0  0
 46 45  1  6  0  0  0
 46 51  1  0  0  0  0
 47 53  1  0  0  0  0
 47 60  1  1  0  0  0
 48 55  1  0  0  0  0
 49 53  1  0  0  0  0
 50 49  1  0  0  0  0
 51 50  1  0  0  0  0
 52 57  1  6  0  0  0
 52 46  1  0  0  0  0
 52 48  1  0  0  0  0
 53 62  1  6  0  0  0
 55 54  1  1  0  0  0
 55 47  1  0  0  0  0
 57 56  1  0  0  0  0
 58 57  2  0  0  0  0
 60 59  1  0  0  0  0
 62 61  1  0  0  0  0
M  END
>  <MODEL>
7

>  <REMARK>
 VINA RESULT:      -3.3      3.087      6.924
  Name = 
  31 active torsions:
  status: ('A' for Active; 'I' for Inactive)
    1  A    between atoms: C_1  and  C_42
    2  A    between atoms: C_4  and  C_48
    3  A    between atoms: C_6  and  C_25
    4  A    between atoms: C_6  and  C_46
    5  A    between atoms: C_6  and  C_49
    6  A    between atoms: N_7  and  C_28
    7  A    between atoms: C_9  and  C_26
    8  A    between atoms: C_9  and  C_28
    9  A    between atoms: C_14  and  C_47
   10  A    between atoms: C_16  and  C_41
   11  A    between atoms: C_17  and  O_62
   12  A    between atoms: C_23  and  C_25
   13  A    between atoms: C_23  and  C_56
   14  A    between atoms: O_24  and  C_43
   15  A    between atoms: C_26  and  C_32
   16  A    between atoms: C_30  and  S_53
   17  A    between atoms: C_30  and  N_55
   18  A    between atoms: O_31  and  C_47
   19  A    between atoms: O_31  and  C_60
   20  A    between atoms: C_32  and  C_54
   21  A    between atoms: C_36  and  C_59
   22  A    between atoms: C_42  and  C_60
   23  A    between atoms: C_44  and  N_45
   24  A    between atoms: C_44  and  C_56
   25  A    between atoms: N_45  and  C_58
   26  A    between atoms: C_48  and  S_53
   27  A    between atoms: C_48  and  C_58
   28  A    between atoms: C_49  and  C_59
   29  A    between atoms: C_49  and  C_61
   30  A    between atoms: C_50  and  C_54
   31  A    between atoms: C_50  and  C_58
                            x       y       z     vdW  Elec       q    Type
                         _______ _______ _______ _____ _____    ______ ____

>  <TORSDO>
F 31

$$$$
=
 OpenBabel11042416333D

 62 63  0  0  1  0  0  0  0  0999 V2000
  192.7380  173.9370  144.0100 C   0  0  1  0  0  3  0  0  0  0  0  0
  193.6900  173.7930  145.1870 C   0  0  0  0  0  2  0  0  0  0  0  0
  193.4520  174.8120  146.1140 O   0  0  0  0  0  1  0  0  0  0  0  0
  193.5370  174.0560  142.7090 C   0  0  2  0  0  3  0  0  0  0  0  0
  191.5360  174.7530  141.4730 N   0  0  0  0  0  1  0  0  0  0  0  0
  192.6170  173.7830  141.5120 C   0  0  1  0  0  3  0  0  0  0  0  0
  193.3810  173.7740  140.1900 C   0  0  0  0  0  2  0  0  0  0  0  0
  192.6800  172.9170  139.1490 C   0  0  0  0  0  2  0  0  0  0  0  0
  192.3300  171.5590  139.7330 C   0  0  0  0  0  2  0  0  0  0  0  0
  191.9650  170.5910  138.6220 C   0  0  0  0  0  2  0  0  0  0  0  0
  190.6960  170.9820  137.9400 C   0  0  0  0  0  0  0  0  0  0  0  0
  189.5880  170.7990  138.5130 O   0  0  0  0  0  0  0  0  0  0  0  0
  188.5910  173.8290  137.5450 C   0  0  0  0  0  1  0  0  0  0  0  0
  190.7610  171.5200  136.6130 N   0  0  0  0  0  0  0  0  0  0  0  0
  190.4610  173.5860  135.0540 C   0  0  0  0  0  2  0  0  0  0  0  0
  189.9750  174.8090  135.7530 C   0  0  0  0  0  2  0  0  0  0  0  0
  190.0050  174.0090  137.0100 C   0  0  2  0  0  3  0  0  0  0  0  0
  190.4730  172.7480  136.3120 C   0  0  0  0  0  0  0  0  0  0  0  0
  194.6770  173.1410  142.7000 N   0  0  0  0  0  2  0  0  0  0  0  0
  195.8920  173.9430  142.6540 C   0  0  0  0  0  2  0  0  0  0  0  0
  197.0650  173.1000  142.1720 C   0  0  0  0  0  2  0  0  0  0  0  0
  197.6520  174.7220  140.5590 O   0  0  0  0  0  0  0  0  0  0  0  0
  197.5340  173.5350  140.8170 C   0  0  0  0  0  0  0  0  0  0  0  0
  197.9390  172.5160  139.8000 C   0  0  0  0  0  2  0  0  0  0  0  0
  196.7750  171.6010  139.4280 C   0  0  2  0  0  3  0  0  0  0  0  0
  195.8970  169.7080  140.6040 O   0  0  0  0  0  1  0  0  0  0  0  0
  197.0550  170.2210  140.0160 C   0  0  0  0  0  2  0  0  0  0  0  0
  196.6040  171.5410  137.9000 C   0  0  2  0  0  3  0  0  0  0  0  0
  195.6680  173.7010  137.0440 O   0  0  0  0  0  1  0  0  0  0  0  0
  197.9230  173.3120  137.0000 O   0  0  0  0  0  0  0  0  0  0  0  0
  196.7730  172.8950  137.2880 C   0  0  0  0  0  0  0  0  0  0  0  0
  195.2460  170.9770  137.4910 C   0  0  0  0  0  2  0  0  0  0  0  0
  195.4140  170.0580  136.2960 C   0  0  0  0  0  2  0  0  0  0  0  0
  194.8820  170.6690  135.1590 O   0  0  0  0  0  1  0  0  0  0  0  0
  191.5880  172.5220  144.0030 S   0  0  0  0  0  0  0  0  0  0  0  0
  190.9770  172.9200  145.6670 C   0  0  0  0  0  2  0  0  0  0  0  0
  190.7970  174.8430  147.7590 O   0  0  0  0  0  0  0  0  0  0  0  0
  190.1830  175.0880  146.6880 C   0  0  0  0  0  0  0  0  0  0  0  0
  190.1870  174.1400  145.6220 N   0  0  0  0  0  2  0  0  0  0  0  0
  189.3990  176.3480  146.5420 C   0  0  0  0  0  2  0  0  0  0  0  0
  190.2140  177.3840  146.0060 O   0  0  0  0  0  0  0  0  0  0  0  0
  191.5450  177.1730  144.1280 O   0  0  0  0  0  0  0  0  0  0  0  0
  190.4420  177.5170  144.6320 C   0  0  0  0  0  0  0  0  0  0  0  0
  189.7690  178.0440  142.4220 F   0  0  0  0  0  0  0  0  0  0  0  0
  189.3940  178.1180  143.7570 C   0  0  1  0  0  3  0  0  0  0  0  0
  188.0300  177.4550  143.9850 C   0  0  1  0  0  3  0  0  0  0  0  0
  184.1560  178.6960  142.4400 C   0  0  1  0  0  3  0  0  0  0  0  0
  185.9180  176.8040  142.5760 C   0  0  0  0  0  2  0  0  0  0  0  0
  185.4050  180.1880  144.2390 C   0  0  0  0  0  2  0  0  0  0  0  0
  186.7090  179.5300  143.9440 C   0  0  0  0  0  2  0  0  0  0  0  0
  187.0480  178.4130  144.5890 C   0  0  0  0  0  2  0  0  0  0  0  0
  187.4580  176.7870  142.6970 C   0  0  2  0  0  3  0  0  0  0  0  0
  184.2280  179.2370  143.8980 C   0  0  2  0  0  3  0  0  0  0  0  0
  185.3170  177.8460  140.5030 O   0  0  0  0  0  1  0  0  0  0  0  0
  185.4520  178.0820  141.8690 C   0  0  1  0  0  3  0  0  0  0  0  0
  188.1750  174.8410  141.2620 N   0  0  0  0  0  1  0  0  0  0  0  0
  187.9520  175.3840  142.5590 C   0  0  0  0  0  0  0  0  0  0  0  0
  188.1380  174.6670  143.5770 O   0  0  0  0  0  0  0  0  0  0  0  0
  181.9410  178.5630  142.4050 C   0  0  0  0  0  1  0  0  0  0  0  0
  183.0980  177.7900  142.3140 O   0  0  0  0  0  0  0  0  0  0  0  0
  183.4710  178.7580  145.9280 C   0  0  0  0  0  1  0  0  0  0  0  0
  184.1290  178.1940  144.8320 O   0  0  0  0  0  0  0  0  0  0  0  0
  1  2  1  1  0  0  0
  2  3  1  0  0  0  0
  4 19  1  1  0  0  0
  4  1  1  0  0  0  0
  6  5  1  6  0  0  0
  6  4  1  0  0  0  0
  7  6  1  0  0  0  0
  8  9  1  0  0  0  0
  8  7  1  0  0  0  0
 10  9  1  0  0  0  0
 11 12  2  0  0  0  0
 11 10  1  0  0  0  0
 14 11  1  0  0  0  0
 15 16  1  0  0  0  0
 15 18  1  0  0  0  0
 16 17  1  0  0  0  0
 17 13  1  6  0  0  0
 18 14  2  0  0  0  0
 18 17  1  0  0  0  0
 20 19  1  0  0  0  0
 21 20  1  0  0  0  0
 22 23  2  0  0  0  0
 23 21  1  0  0  0  0
 24 23  1  0  0  0  0
 25 24  1  6  0  0  0
 25 27  1  0  0  0  0
 27 26  1  0  0  0  0
 28 32  1  1  0  0  0
 28 25  1  0  0  0  0
 29 31  1  0  0  0  0
 30 31  2  0  0  0  0
 31 28  1  0  0  0  0
 33 32  1  0  0  0  0
 34 33  1  0  0  0  0
 35  1  1  0  0  0  0
 35 36  1  0  0  0  0
 38 37  2  0  0  0  0
 39 36  1  0  0  0  0
 39 38  1  0  0  0  0
 40 38  1  0  0  0  0
 41 40  1  0  0  0  0
 42 43  2  0  0  0  0
 43 41  1  0  0  0  0
 45 44  1  6  0  0  0
 45 43  1  0  0  0  0
 46 45  1  6  0  0  0
 46 51  1  0  0  0  0
 47 60  1  1  0  0  0
 47 53  1  0  0  0  0
 48 52  1  0  0  0  0
 50 49  1  0  0  0  0
 50 51  1  0  0  0  0
 52 57  1  1  0  0  0
 52 46  1  0  0  0  0
 53 49  1  0  0  0  0
 53 62  1  1  0  0  0
 55 54  1  6  0  0  0
 55 47  1  0  0  0  0
 55 48  1  0  0  0  0
 56 57  1  0  0  0  0
 57 58  2  0  0  0  0
 60 59  1  0  0  0  0
 62 61  1  0  0  0  0
M  END
>  <MODEL>
8

>  <REMARK>
 VINA RESULT:      -3.3      2.364      6.243
  Name = 
  31 active torsions:
  status: ('A' for Active; 'I' for Inactive)
    1  A    between atoms: C_1  and  C_42
    2  A    between atoms: C_4  and  C_48
    3  A    between atoms: C_6  and  C_25
    4  A    between atoms: C_6  and  C_46
    5  A    between atoms: C_6  and  C_49
    6  A    between atoms: N_7  and  C_28
    7  A    between atoms: C_9  and  C_26
    8  A    between atoms: C_9  and  C_28
    9  A    between atoms: C_14  and  C_47
   10  A    between atoms: C_16  and  C_41
   11  A    between atoms: C_17  and  O_62
   12  A    between atoms: C_23  and  C_25
   13  A    between atoms: C_23  and  C_56
   14  A    between atoms: O_24  and  C_43
   15  A    between atoms: C_26  and  C_32
   16  A    between atoms: C_30  and  S_53
   17  A    between atoms: C_30  and  N_55
   18  A    between atoms: O_31  and  C_47
   19  A    between atoms: O_31  and  C_60
   20  A    between atoms: C_32  and  C_54
   21  A    between atoms: C_36  and  C_59
   22  A    between atoms: C_42  and  C_60
   23  A    between atoms: C_44  and  N_45
   24  A    between atoms: C_44  and  C_56
   25  A    between atoms: N_45  and  C_58
   26  A    between atoms: C_48  and  S_53
   27  A    between atoms: C_48  and  C_58
   28  A    between atoms: C_49  and  C_59
   29  A    between atoms: C_49  and  C_61
   30  A    between atoms: C_50  and  C_54
   31  A    between atoms: C_50  and  C_58
                            x       y       z     vdW  Elec       q    Type
                         _______ _______ _______ _____ _____    ______ ____

>  <TORSDO>
F 31

$$$$
=
 OpenBabel11042416333D

 62 63  0  0  1  0  0  0  0  0999 V2000
  194.6920  171.8870  145.0080 C   0  0  1  0  0  3  0  0  0  0  0  0
  194.6400  170.3740  144.8610 C   0  0  0  0  0  2  0  0  0  0  0  0
  194.5760  169.7790  146.1240 O   0  0  0  0  0  1  0  0  0  0  0  0
  196.1020  172.3910  144.6850 C   0  0  2  0  0  3  0  0  0  0  0  0
  197.6480  173.4780  146.2490 N   0  0  0  0  0  1  0  0  0  0  0  0
  196.4040  173.6450  145.5160 C   0  0  1  0  0  3  0  0  0  0  0  0
  196.4490  174.9070  144.6560 C   0  0  0  0  0  2  0  0  0  0  0  0
  195.2990  175.8440  144.9860 C   0  0  0  0  0  2  0  0  0  0  0  0
  194.9380  175.7380  146.4570 C   0  0  0  0  0  2  0  0  0  0  0  0
  193.9740  176.8470  146.8400 C   0  0  0  0  0  2  0  0  0  0  0  0
  192.5520  176.4360  146.6500 C   0  0  0  0  0  0  0  0  0  0  0  0
  191.6900  176.7230  147.5250 O   0  0  0  0  0  0  0  0  0  0  0  0
  190.8630  178.4130  144.2150 C   0  0  0  0  0  1  0  0  0  0  0  0
  192.2000  175.6750  145.4890 N   0  0  0  0  0  0  0  0  0  0  0  0
  191.6380  175.6650  142.9450 C   0  0  0  0  0  2  0  0  0  0  0  0
  191.6150  177.0200  142.3230 C   0  0  0  0  0  2  0  0  0  0  0  0
  191.9920  177.5560  143.6610 C   0  0  2  0  0  3  0  0  0  0  0  0
  191.9940  176.1900  144.3170 C   0  0  0  0  0  0  0  0  0  0  0  0
  196.2520  172.6720  143.2590 N   0  0  0  0  0  2  0  0  0  0  0  0
  197.3200  171.8240  142.7470 C   0  0  0  0  0  2  0  0  0  0  0  0
  197.2360  171.7240  141.2290 C   0  0  0  0  0  2  0  0  0  0  0  0
  195.4040  170.2440  141.0530 O   0  0  0  0  0  0  0  0  0  0  0  0
  195.8590  171.3430  140.7800 C   0  0  0  0  0  0  0  0  0  0  0  0
  195.0010  172.3370  140.0640 C   0  0  0  0  0  2  0  0  0  0  0  0
  194.6140  171.8460  138.6720 C   0  0  2  0  0  3  0  0  0  0  0  0
  196.6410  172.1390  137.4300 O   0  0  0  0  0  1  0  0  0  0  0  0
  195.8380  171.1800  138.0500 C   0  0  0  0  0  2  0  0  0  0  0  0
  194.1060  173.0160  137.8100 C   0  0  2  0  0  3  0  0  0  0  0  0
  195.2430  175.1200  138.5510 O   0  0  0  0  0  0  0  0  0  0  0  0
  193.1190  174.6360  139.2540 O   0  0  0  0  0  1  0  0  0  0  0  0
  194.1250  174.2970  138.5800 C   0  0  0  0  0  0  0  0  0  0  0  0
  192.6960  172.7740  137.2790 C   0  0  0  0  0  2  0  0  0  0  0  0
  192.6160  171.3960  136.6510 C   0  0  0  0  0  2  0  0  0  0  0  0
  191.7290  170.6020  137.3780 O   0  0  0  0  0  1  0  0  0  0  0  0
  193.4170  172.6300  143.9360 S   0  0  0  0  0  0  0  0  0  0  0  0
  192.7480  171.0020  143.4850 C   0  0  0  0  0  2  0  0  0  0  0  0
  192.3440  169.2410  141.2840 O   0  0  0  0  0  0  0  0  0  0  0  0
  191.5460  170.2060  141.4120 C   0  0  0  0  0  0  0  0  0  0  0  0
  191.7270  171.1560  142.4610 N   0  0  0  0  0  2  0  0  0  0  0  0
  190.4360  170.3990  140.4360 C   0  0  0  0  0  2  0  0  0  0  0  0
  190.1850  171.7850  140.2330 O   0  0  0  0  0  0  0  0  0  0  0  0
  188.3380  171.9170  141.6170 O   0  0  0  0  0  0  0  0  0  0  0  0
  189.2870  172.5040  141.0280 C   0  0  0  0  0  0  0  0  0  0  0  0
  190.0420  174.5140  140.0250 F   0  0  0  0  0  0  0  0  0  0  0  0
  189.4140  173.9850  141.1450 C   0  0  1  0  0  3  0  0  0  0  0  0
  188.0480  174.6450  141.3750 C   0  0  1  0  0  3  0  0  0  0  0  0
  187.1840  178.3490  143.4890 C   0  0  1  0  0  3  0  0  0  0  0  0
  186.9980  177.0440  141.2610 C   0  0  0  0  0  2  0  0  0  0  0  0
  188.0580  176.2340  144.8240 C   0  0  0  0  0  2  0  0  0  0  0  0
  188.5770  175.6060  143.5770 C   0  0  0  0  0  2  0  0  0  0  0  0
  187.7720  174.8440  142.8350 C   0  0  0  0  0  2  0  0  0  0  0  0
  187.8750  175.9730  140.5750 C   0  0  2  0  0  3  0  0  0  0  0  0
  186.8900  177.2020  144.4990 C   0  0  2  0  0  3  0  0  0  0  0  0
  188.2610  179.0710  141.4540 O   0  0  0  0  0  1  0  0  0  0  0  0
  187.8550  177.9410  142.1600 C   0  0  1  0  0  3  0  0  0  0  0  0
  187.8890  174.6320  138.4390 N   0  0  0  0  0  1  0  0  0  0  0  0
  187.3490  175.7050  139.2020 C   0  0  0  0  0  0  0  0  0  0  0  0
  186.4590  176.4410  138.7020 O   0  0  0  0  0  0  0  0  0  0  0  0
  185.9180  179.9870  144.2860 C   0  0  0  0  0  1  0  0  0  0  0  0
  186.0180  179.0770  143.2350 O   0  0  0  0  0  0  0  0  0  0  0  0
  185.1080  176.1980  145.3610 C   0  0  0  0  0  1  0  0  0  0  0  0
  185.7300  176.4970  144.1450 O   0  0  0  0  0  0  0  0  0  0  0  0
  1  2  1  6  0  0  0
  2  3  1  0  0  0  0
  4 19  1  6  0  0  0
  4  1  1  0  0  0  0
  4  6  1  0  0  0  0
  6  5  1  6  0  0  0
  7  8  1  0  0  0  0
  7  6  1  0  0  0  0
  8  9  1  0  0  0  0
  9 10  1  0  0  0  0
 11 10  1  0  0  0  0
 11 12  2  0  0  0  0
 14 11  1  0  0  0  0
 15 18  1  0  0  0  0
 16 15  1  0  0  0  0
 16 17  1  0  0  0  0
 17 13  1  1  0  0  0
 17 18  1  0  0  0  0
 18 14  2  0  0  0  0
 20 19  1  0  0  0  0
 21 20  1  0  0  0  0
 23 22  2  0  0  0  0
 23 21  1  0  0  0  0
 24 23  1  0  0  0  0
 25 27  1  6  0  0  0
 25 24  1  0  0  0  0
 26 27  1  0  0  0  0
 28 32  1  1  0  0  0
 28 31  1  0  0  0  0
 28 25  1  0  0  0  0
 29 31  2  0  0  0  0
 31 30  1  0  0  0  0
 33 32  1  0  0  0  0
 33 34  1  0  0  0  0
 35  1  1  0  0  0  0
 36 35  1  0  0  0  0
 37 38  2  0  0  0  0
 38 39  1  0  0  0  0
 39 36  1  0  0  0  0
 40 38  1  0  0  0  0
 41 40  1  0  0  0  0
 41 43  1  0  0  0  0
 43 45  1  0  0  0  0
 43 42  2  0  0  0  0
 45 44  1  6  0  0  0
 46 45  1  1  0  0  0
 46 51  1  0  0  0  0
 47 60  1  6  0  0  0
 47 53  1  0  0  0  0
 48 55  1  0  0  0  0
 50 49  1  0  0  0  0
 51 50  1  0  0  0  0
 52 57  1  6  0  0  0
 52 48  1  0  0  0  0
 52 46  1  0  0  0  0
 53 62  1  6  0  0  0
 53 49  1  0  0  0  0
 55 54  1  6  0  0  0
 55 47  1  0  0  0  0
 56 57  1  0  0  0  0
 58 57  2  0  0  0  0
 60 59  1  0  0  0  0
 62 61  1  0  0  0  0
M  END
>  <MODEL>
9

>  <REMARK>
 VINA RESULT:      -3.1      3.151      7.814
  Name = 
  31 active torsions:
  status: ('A' for Active; 'I' for Inactive)
    1  A    between atoms: C_1  and  C_42
    2  A    between atoms: C_4  and  C_48
    3  A    between atoms: C_6  and  C_25
    4  A    between atoms: C_6  and  C_46
    5  A    between atoms: C_6  and  C_49
    6  A    between atoms: N_7  and  C_28
    7  A    between atoms: C_9  and  C_26
    8  A    between atoms: C_9  and  C_28
    9  A    between atoms: C_14  and  C_47
   10  A    between atoms: C_16  and  C_41
   11  A    between atoms: C_17  and  O_62
   12  A    between atoms: C_23  and  C_25
   13  A    between atoms: C_23  and  C_56
   14  A    between atoms: O_24  and  C_43
   15  A    between atoms: C_26  and  C_32
   16  A    between atoms: C_30  and  S_53
   17  A    between atoms: C_30  and  N_55
   18  A    between atoms: O_31  and  C_47
   19  A    between atoms: O_31  and  C_60
   20  A    between atoms: C_32  and  C_54
   21  A    between atoms: C_36  and  C_59
   22  A    between atoms: C_42  and  C_60
   23  A    between atoms: C_44  and  N_45
   24  A    between atoms: C_44  and  C_56
   25  A    between atoms: N_45  and  C_58
   26  A    between atoms: C_48  and  S_53
   27  A    between atoms: C_48  and  C_58
   28  A    between atoms: C_49  and  C_59
   29  A    between atoms: C_49  and  C_61
   30  A    between atoms: C_50  and  C_54
   31  A    between atoms: C_50  and  C_58
                            x       y       z     vdW  Elec       q    Type
                         _______ _______ _______ _____ _____    ______ ____

>  <TORSDO>
F 31

$$$$
