=
 OpenBabel11042415033D

 33 36  0  0  1  0  0  0  0  0999 V2000
  192.8330  176.5530  144.3180 N   0  0  0  0  0  0  0  0  0  0  0  0
  193.9420  177.2890  146.2400 O   0  0  0  0  0  0  0  0  0  0  0  0
  194.0050  176.6840  145.1360 C   0  0  0  0  0  0  0  0  0  0  0  0
  191.8030  174.9880  142.7620 C   0  0  0  0  0  2  0  0  0  0  0  0
  190.4410  175.6110  143.0720 C   0  0  2  0  0  3  0  0  0  0  0  0
  192.9160  176.0080  142.9670 C   0  0  0  0  0  2  0  0  0  0  0  0
  191.5680  177.1430  144.7450 C   0  0  0  0  0  2  0  0  0  0  0  0
  190.4220  176.1570  144.5110 C   0  0  1  0  0  3  0  0  0  0  0  0
  187.2830  177.2350  146.3760 C   0  0  0  0  0  0  0  0  0  0  0  0
  186.4600  177.2370  147.4840 C   0  0  0  0  0  3  0  0  0  0  0  0
  188.5140  176.5970  146.1310 C   0  0  0  0  0  0  0  0  0  0  0  0
  189.1070  176.8050  144.8580 C   0  0  0  0  0  0  0  0  0  0  0  0
  185.3790  178.0090  147.2210 N   0  0  0  0  0  2  0  0  0  0  0  0
  187.2360  178.2440  144.1830 C   0  0  0  0  0  3  0  0  0  0  0  0
  185.5030  178.4980  145.9640 C   0  0  0  0  0  3  0  0  0  0  0  0
  188.4630  177.6250  143.9000 C   0  0  0  0  0  3  0  0  0  0  0  0
  186.6790  178.0230  145.4360 C   0  0  0  0  0  0  0  0  0  0  0  0
  189.1960  175.7360  147.1270 C   0  0  0  0  0  3  0  0  0  0  0  0
  189.0470  174.4190  147.2040 C   0  0  0  0  0  2  0  0  0  0  0  0
  195.3150  176.0980  144.7110 C   0  0  0  0  0  2  0  0  0  0  0  0
  195.6830  174.8870  145.5660 C   0  0  0  0  0  2  0  0  0  0  0  0
  194.2700  172.7280  145.4690 C   0  0  2  0  0  3  0  0  0  0  0  0
  194.5660  172.4800  143.1110 C   0  0  0  0  0  2  0  0  0  0  0  0
  195.4120  173.5390  144.8850 C   0  0  1  0  0  3  0  0  0  0  0  0
  195.2300  173.6570  143.5010 O   0  0  0  0  0  0  0  0  0  0  0  0
  193.9000  171.8420  144.3180 C   0  0  0  0  0  2  0  0  0  0  0  0
  193.1730  173.5360  145.7790 O   0  0  0  0  0  1  0  0  0  0  0  0
  189.3540  174.5570  142.8830 C   0  0  0  0  0  2  0  0  0  0  0  0
  189.6810  173.2890  143.6540 C   0  0  0  0  0  2  0  0  0  0  0  0
  189.2410  172.0600  142.8790 C   0  0  0  0  0  2  0  0  0  0  0  0
  189.7740  171.8480  140.5640 O   0  0  0  0  0  1  0  0  0  0  0  0
  190.6790  170.3000  142.0390 N   0  0  0  0  0  1  0  0  0  0  0  0
  190.2910  171.6850  141.8500 C   0  0  2  0  0  3  0  0  0  0  0  0
  1  7  1  0  0  0  0
  1  3  1  0  0  0  0
  3  2  2  0  0  0  0
  4  6  1  0  0  0  0
  4  5  1  0  0  0  0
  5 28  1  1  0  0  0
  5  8  1  0  0  0  0
  6  1  1  0  0  0  0
  8  7  1  0  0  0  0
  8 12  1  6  0  0  0
  9 10  2  0  0  0  0
 11  9  1  0  0  0  0
 11 18  1  0  0  0  0
 12 11  2  0  0  0  0
 13 10  1  0  0  0  0
 14 17  1  0  0  0  0
 15 13  1  0  0  0  0
 16 14  2  0  0  0  0
 16 12  1  0  0  0  0
 17 15  2  0  0  0  0
 17  9  1  0  0  0  0
 18 19  2  0  0  0  0
 20  3  1  0  0  0  0
 20 21  1  0  0  0  0
 22 27  1  6  0  0  0
 23 25  1  0  0  0  0
 23 26  1  0  0  0  0
 24 22  1  0  0  0  0
 24 21  1  1  0  0  0
 25 24  1  0  0  0  0
 26 22  1  0  0  0  0
 28 29  1  0  0  0  0
 30 29  1  0  0  0  0
 33 31  1  6  0  0  0
 33 32  1  0  0  0  0
 33 30  1  0  0  0  0
M  END
>  <MODEL>
1

>  <REMARK>
 VINA RESULT:      -6.8      0.000      0.000
  Name = 
  9 active torsions:
  status: ('A' for Active; 'I' for Inactive)
    1  A    between atoms: C_7  and  C_8
    2  A    between atoms: C_7  and  C_24
    3  A    between atoms: C_9  and  C_24
    4  A    between atoms: C_10  and  C_11
    5  A    between atoms: C_14  and  C_33
    6  A    between atoms: C_17  and  C_27
    7  A    between atoms: C_20  and  C_32
    8  A    between atoms: C_31  and  C_32
    9  A    between atoms: C_31  and  C_33
                            x       y       z     vdW  Elec       q    Type
                         _______ _______ _______ _____ _____    ______ ____

>  <TORSDO>
F 9

$$$$
=
 OpenBabel11042415033D

 33 36  0  0  1  0  0  0  0  0999 V2000
  193.0480  176.3510  144.4750 N   0  0  0  0  0  0  0  0  0  0  0  0
  194.1460  176.9480  146.4510 O   0  0  0  0  0  0  0  0  0  0  0  0
  194.2120  176.4110  145.3130 C   0  0  0  0  0  0  0  0  0  0  0  0
  192.0100  174.9030  142.8150 C   0  0  0  0  0  2  0  0  0  0  0  0
  190.6550  175.5310  143.1470 C   0  0  2  0  0  3  0  0  0  0  0  0
  193.1370  175.8890  143.0940 C   0  0  0  0  0  2  0  0  0  0  0  0
  191.7880  176.9370  144.9240 C   0  0  0  0  0  2  0  0  0  0  0  0
  190.6280  175.9870  144.6170 C   0  0  1  0  0  3  0  0  0  0  0  0
  187.3370  176.7960  146.3520 C   0  0  0  0  0  0  0  0  0  0  0  0
  186.3740  176.5660  147.3130 C   0  0  0  0  0  3  0  0  0  0  0  0
  188.5490  176.1360  146.0710 C   0  0  0  0  0  0  0  0  0  0  0  0
  189.3200  176.6360  144.9890 C   0  0  0  0  0  0  0  0  0  0  0  0
  185.3880  177.4830  147.1680 N   0  0  0  0  0  2  0  0  0  0  0  0
  187.6500  178.3830  144.5590 C   0  0  0  0  0  3  0  0  0  0  0  0
  185.7100  178.2910  146.1310 C   0  0  0  0  0  3  0  0  0  0  0  0
  188.8630  177.7520  144.2470 C   0  0  0  0  0  3  0  0  0  0  0  0
  186.9160  177.8720  145.6220 C   0  0  0  0  0  0  0  0  0  0  0  0
  189.0370  174.9670  146.8410 C   0  0  0  0  0  3  0  0  0  0  0  0
  190.0530  175.0050  147.6950 C   0  0  0  0  0  2  0  0  0  0  0  0
  195.5160  175.8280  144.8660 C   0  0  0  0  0  2  0  0  0  0  0  0
  195.8730  174.5850  145.6770 C   0  0  0  0  0  2  0  0  0  0  0  0
  194.5260  172.3970  145.4170 C   0  0  2  0  0  3  0  0  0  0  0  0
  194.9160  172.2790  143.0630 C   0  0  0  0  0  2  0  0  0  0  0  0
  195.6650  173.2670  144.9200 C   0  0  1  0  0  3  0  0  0  0  0  0
  195.5320  173.4510  143.5370 O   0  0  0  0  0  0  0  0  0  0  0  0
  194.2240  171.5630  144.2090 C   0  0  0  0  0  2  0  0  0  0  0  0
  193.3960  173.1600  145.7240 O   0  0  0  0  0  1  0  0  0  0  0  0
  189.5520  174.5100  142.8820 C   0  0  0  0  0  2  0  0  0  0  0  0
  188.7000  174.9220  141.6920 C   0  0  0  0  0  2  0  0  0  0  0  0
  187.3610  175.4670  142.1550 C   0  0  0  0  0  2  0  0  0  0  0  0
  187.9510  177.5120  141.0800 O   0  0  0  0  0  1  0  0  0  0  0  0
  185.7710  177.2680  141.8430 N   0  0  0  0  0  1  0  0  0  0  0  0
  186.9110  176.5960  141.2470 C   0  0  2  0  0  3  0  0  0  0  0  0
  1  7  1  0  0  0  0
  1  3  1  0  0  0  0
  3  2  2  0  0  0  0
  4  6  1  0  0  0  0
  4  5  1  0  0  0  0
  5 28  1  1  0  0  0
  5  8  1  0  0  0  0
  6  1  1  0  0  0  0
  8  7  1  0  0  0  0
  8 12  1  6  0  0  0
  9 10  2  0  0  0  0
 11  9  1  0  0  0  0
 11 18  1  0  0  0  0
 12 11  2  0  0  0  0
 13 10  1  0  0  0  0
 14 17  1  0  0  0  0
 15 13  1  0  0  0  0
 16 14  2  0  0  0  0
 16 12  1  0  0  0  0
 17 15  2  0  0  0  0
 17  9  1  0  0  0  0
 18 19  2  0  0  0  0
 20  3  1  0  0  0  0
 20 21  1  0  0  0  0
 22 27  1  6  0  0  0
 23 25  1  0  0  0  0
 23 26  1  0  0  0  0
 24 22  1  0  0  0  0
 24 21  1  1  0  0  0
 25 24  1  0  0  0  0
 26 22  1  0  0  0  0
 29 30  1  0  0  0  0
 29 28  1  0  0  0  0
 33 31  1  1  0  0  0
 33 32  1  0  0  0  0
 33 30  1  0  0  0  0
M  END
>  <MODEL>
2

>  <REMARK>
 VINA RESULT:      -6.6      1.801      2.296
  Name = 
  9 active torsions:
  status: ('A' for Active; 'I' for Inactive)
    1  A    between atoms: C_7  and  C_8
    2  A    between atoms: C_7  and  C_24
    3  A    between atoms: C_9  and  C_24
    4  A    between atoms: C_10  and  C_11
    5  A    between atoms: C_14  and  C_33
    6  A    between atoms: C_17  and  C_27
    7  A    between atoms: C_20  and  C_32
    8  A    between atoms: C_31  and  C_32
    9  A    between atoms: C_31  and  C_33
                            x       y       z     vdW  Elec       q    Type
                         _______ _______ _______ _____ _____    ______ ____

>  <TORSDO>
F 9

$$$$
=
 OpenBabel11042415033D

 33 36  0  0  1  0  0  0  0  0999 V2000
  189.7860  175.7850  145.2730 N   0  0  0  0  0  0  0  0  0  0  0  0
  189.1900  175.6690  147.5310 O   0  0  0  0  0  0  0  0  0  0  0  0
  188.9660  176.1570  146.3910 C   0  0  0  0  0  0  0  0  0  0  0  0
  190.6930  176.7310  143.2200 C   0  0  0  0  0  2  0  0  0  0  0  0
  191.8110  175.6880  143.2600 C   0  0  2  0  0  3  0  0  0  0  0  0
  189.4460  176.2020  143.9170 C   0  0  0  0  0  2  0  0  0  0  0  0
  190.8670  174.8180  145.4440 C   0  0  0  0  0  2  0  0  0  0  0  0
  192.1240  175.3000  144.7170 C   0  0  1  0  0  3  0  0  0  0  0  0
  195.3640  173.4890  145.5630 C   0  0  0  0  0  0  0  0  0  0  0  0
  196.6070  173.4230  146.1570 C   0  0  0  0  0  3  0  0  0  0  0  0
  194.4010  174.5170  145.5270 C   0  0  0  0  0  0  0  0  0  0  0  0
  193.2050  174.2550  144.8100 C   0  0  0  0  0  0  0  0  0  0  0  0
  197.1490  172.2080  145.9000 N   0  0  0  0  0  2  0  0  0  0  0  0
  194.0000  172.0060  144.2310 C   0  0  0  0  0  3  0  0  0  0  0  0
  196.2680  171.5030  145.1510 C   0  0  0  0  0  3  0  0  0  0  0  0
  193.0170  173.0040  144.1720 C   0  0  0  0  0  3  0  0  0  0  0  0
  195.1620  172.2890  144.9390 C   0  0  0  0  0  0  0  0  0  0  0  0
  194.5880  175.8290  146.1910 C   0  0  0  0  0  3  0  0  0  0  0  0
  194.9700  176.9360  145.5650 C   0  0  0  0  0  2  0  0  0  0  0  0
  187.8450  177.1370  146.2350 C   0  0  0  0  0  2  0  0  0  0  0  0
  186.5330  176.5660  146.7660 C   0  0  0  0  0  2  0  0  0  0  0  0
  184.5740  178.2470  146.7680 C   0  0  2  0  0  3  0  0  0  0  0  0
  184.4780  178.3450  144.3830 C   0  0  0  0  0  2  0  0  0  0  0  0
  185.2850  177.1100  146.0590 C   0  0  1  0  0  3  0  0  0  0  0  0
  185.5320  177.4820  144.7310 O   0  0  0  0  0  0  0  0  0  0  0  0
  183.8320  178.8990  145.6410 C   0  0  0  0  0  2  0  0  0  0  0  0
  185.4810  179.1690  147.2960 O   0  0  0  0  0  1  0  0  0  0  0  0
  193.0520  176.2580  142.5780 C   0  0  0  0  0  2  0  0  0  0  0  0
  193.4860  175.3850  141.4130 C   0  0  0  0  0  2  0  0  0  0  0  0
  194.9120  174.9020  141.6050 C   0  0  0  0  0  2  0  0  0  0  0  0
  196.1930  176.8720  141.2000 O   0  0  0  0  0  1  0  0  0  0  0  0
  196.9190  175.4190  142.8600 N   0  0  0  0  0  1  0  0  0  0  0  0
  195.7630  176.0050  142.2050 C   0  0  2  0  0  3  0  0  0  0  0  0
  1  7  1  0  0  0  0
  1  3  1  0  0  0  0
  3  2  2  0  0  0  0
  4  5  1  0  0  0  0
  4  6  1  0  0  0  0
  5 28  1  1  0  0  0
  5  8  1  0  0  0  0
  6  1  1  0  0  0  0
  8 12  1  6  0  0  0
  8  7  1  0  0  0  0
  9 10  2  0  0  0  0
 11  9  1  0  0  0  0
 11 18  1  0  0  0  0
 12 11  2  0  0  0  0
 13 10  1  0  0  0  0
 14 17  1  0  0  0  0
 15 13  1  0  0  0  0
 16 14  2  0  0  0  0
 16 12  1  0  0  0  0
 17 15  2  0  0  0  0
 17  9  1  0  0  0  0
 19 18  2  0  0  0  0
 20  3  1  0  0  0  0
 20 21  1  0  0  0  0
 22 27  1  6  0  0  0
 23 25  1  0  0  0  0
 23 26  1  0  0  0  0
 24 21  1  1  0  0  0
 24 22  1  0  0  0  0
 25 24  1  0  0  0  0
 26 22  1  0  0  0  0
 29 30  1  0  0  0  0
 29 28  1  0  0  0  0
 30 33  1  0  0  0  0
 33 31  1  6  0  0  0
 33 32  1  0  0  0  0
M  END
>  <MODEL>
3

>  <REMARK>
 VINA RESULT:      -6.6      3.085      8.071
  Name = 
  9 active torsions:
  status: ('A' for Active; 'I' for Inactive)
    1  A    between atoms: C_7  and  C_8
    2  A    between atoms: C_7  and  C_24
    3  A    between atoms: C_9  and  C_24
    4  A    between atoms: C_10  and  C_11
    5  A    between atoms: C_14  and  C_33
    6  A    between atoms: C_17  and  C_27
    7  A    between atoms: C_20  and  C_32
    8  A    between atoms: C_31  and  C_32
    9  A    between atoms: C_31  and  C_33
                            x       y       z     vdW  Elec       q    Type
                         _______ _______ _______ _____ _____    ______ ____

>  <TORSDO>
F 9

$$$$
=
 OpenBabel11042415033D

 33 36  0  0  1  0  0  0  0  0999 V2000
  188.5510  177.0350  142.3320 N   0  0  0  0  0  0  0  0  0  0  0  0
  186.3410  176.6570  141.6690 O   0  0  0  0  0  0  0  0  0  0  0  0
  187.1660  177.4080  142.2540 C   0  0  0  0  0  0  0  0  0  0  0  0
  190.4580  177.2290  143.8340 C   0  0  0  0  0  2  0  0  0  0  0  0
  191.0740  175.9940  143.1750 C   0  0  2  0  0  3  0  0  0  0  0  0
  189.5510  177.9610  142.8520 C   0  0  0  0  0  2  0  0  0  0  0  0
  189.0150  175.7980  141.7120 C   0  0  0  0  0  2  0  0  0  0  0  0
  189.9650  175.0600  142.6570 C   0  0  1  0  0  3  0  0  0  0  0  0
  190.7760  171.4480  141.7700 C   0  0  0  0  0  0  0  0  0  0  0  0
  190.6800  170.0870  141.9800 C   0  0  0  0  0  3  0  0  0  0  0  0
  190.2130  172.5390  142.4610 C   0  0  0  0  0  0  0  0  0  0  0  0
  190.5210  173.8370  141.9760 C   0  0  0  0  0  0  0  0  0  0  0  0
  191.4130  169.4490  141.0360 N   0  0  0  0  0  0  0  0  0  0  0  0
  191.8980  172.8800  140.1830 C   0  0  0  0  0  2  0  0  0  0  0  0
  191.9720  170.3830  140.2310 C   0  0  0  0  0  3  0  0  0  0  0  0
  191.3570  173.9930  140.8430 C   0  0  0  0  0  3  0  0  0  0  0  0
  191.5810  171.6220  140.6790 C   0  0  0  0  0  0  0  0  0  0  0  0
  189.3370  172.3860  143.6470 C   0  0  0  0  0  3  0  0  0  0  0  0
  189.7800  172.2520  144.8910 C   0  0  0  0  0  2  0  0  0  0  0  0
  186.6720  178.6780  142.8720 C   0  0  0  0  0  2  0  0  0  0  0  0
  185.6560  178.3970  143.9760 C   0  0  0  0  0  2  0  0  0  0  0  0
  185.4660  178.8810  146.5050 C   0  0  2  0  0  3  0  0  0  0  0  0
  186.7180  176.9380  147.1080 C   0  0  0  0  0  2  0  0  0  0  0  0
  186.2740  178.2730  145.3750 C   0  0  1  0  0  3  0  0  0  0  0  0
  186.6050  176.9530  145.7060 O   0  0  0  0  0  0  0  0  0  0  0  0
  185.9850  178.1320  147.6940 C   0  0  0  0  0  2  0  0  0  0  0  0
  184.1030  178.6060  146.3660 O   0  0  0  0  0  1  0  0  0  0  0  0
  191.9540  175.2710  144.1910 C   0  0  0  0  0  2  0  0  0  0  0  0
  191.9720  176.0070  145.5210 C   0  0  0  0  0  2  0  0  0  0  0  0
  191.8750  175.0280  146.6770 C   0  0  0  0  0  2  0  0  0  0  0  0
  189.6190  174.7620  147.4040 O   0  0  0  0  0  1  0  0  0  0  0  0
  190.5490  176.8890  147.4810 N   0  0  0  0  0  1  0  0  0  0  0  0
  190.7970  175.4690  147.6490 C   0  0  2  0  0  3  0  0  0  0  0  0
  1  6  1  0  0  0  0
  2  3  2  0  0  0  0
  3  1  1  0  0  0  0
  3 20  1  0  0  0  0
  5  4  1  0  0  0  0
  5 28  1  1  0  0  0
  6  4  1  0  0  0  0
  7  1  1  0  0  0  0
  7  8  1  0  0  0  0
  8 12  1  6  0  0  0
  8  5  1  0  0  0  0
  9 10  1  0  0  0  0
  9 11  2  0  0  0  0
 11 18  1  0  0  0  0
 12 11  1  0  0  0  0
 13 10  2  0  0  0  0
 14 17  1  0  0  0  0
 14 16  1  0  0  0  0
 15 17  2  0  0  0  0
 15 13  1  0  0  0  0
 16 12  2  0  0  0  0
 17  9  1  0  0  0  0
 18 19  2  0  0  0  0
 20 21  1  0  0  0  0
 22 27  1  6  0  0  0
 22 26  1  0  0  0  0
 23 26  1  0  0  0  0
 24 21  1  6  0  0  0
 24 25  1  0  0  0  0
 24 22  1  0  0  0  0
 25 23  1  0  0  0  0
 28 29  1  0  0  0  0
 29 30  1  0  0  0  0
 30 33  1  0  0  0  0
 32 33  1  0  0  0  0
 33 31  1  6  0  0  0
M  END
>  <MODEL>
4

>  <REMARK>
 VINA RESULT:      -6.5      3.076      7.771
  Name = 
  9 active torsions:
  status: ('A' for Active; 'I' for Inactive)
    1  A    between atoms: C_7  and  C_8
    2  A    between atoms: C_7  and  C_24
    3  A    between atoms: C_9  and  C_24
    4  A    between atoms: C_10  and  C_11
    5  A    between atoms: C_14  and  C_33
    6  A    between atoms: C_17  and  C_27
    7  A    between atoms: C_20  and  C_32
    8  A    between atoms: C_31  and  C_32
    9  A    between atoms: C_31  and  C_33
                            x       y       z     vdW  Elec       q    Type
                         _______ _______ _______ _____ _____    ______ ____

>  <TORSDO>
F 9

$$$$
=
 OpenBabel11042415033D

 33 36  0  0  1  0  0  0  0  0999 V2000
  189.8400  175.5370  146.4860 N   0  0  0  0  0  0  0  0  0  0  0  0
  189.5290  177.8120  146.9230 O   0  0  0  0  0  0  0  0  0  0  0  0
  189.0270  176.6580  146.8640 C   0  0  0  0  0  0  0  0  0  0  0  0
  189.6700  173.4210  145.2920 C   0  0  0  0  0  2  0  0  0  0  0  0
  191.1750  173.4780  145.0220 C   0  0  2  0  0  3  0  0  0  0  0  0
  189.3290  174.1730  146.5730 C   0  0  0  0  0  2  0  0  0  0  0  0
  191.2590  175.7220  146.1940 C   0  0  0  0  0  2  0  0  0  0  0  0
  191.6440  174.9420  144.9360 C   0  0  1  0  0  3  0  0  0  0  0  0
  195.0220  175.8220  143.4180 C   0  0  1  0  0  3  0  0  0  0  0  0
  195.8110  176.4190  142.4570 C   0  0  0  0  0  3  0  0  0  0  0  0
  193.6240  175.7680  143.5740 C   0  0  0  0  0  0  0  0  0  0  0  0
  193.1260  175.0530  144.6950 C   0  0  0  0  0  0  0  0  0  0  0  0
  197.1120  176.1810  142.7520 N   0  0  0  0  0  0  0  0  0  0  0  0
  195.4120  174.5120  145.4090 C   0  0  0  0  0  3  0  0  0  0  0  0
  197.1600  175.4430  143.8860 C   0  0  0  0  0  3  0  0  0  0  0  0
  194.0250  174.4350  145.6000 C   0  0  0  0  0  3  0  0  0  0  0  0
  195.8710  175.2170  144.3040 C   0  0  0  0  0  0  0  0  0  0  0  0
  192.6750  176.4110  142.6340 C   0  0  0  0  0  3  0  0  0  0  0  0
  191.9400  177.4770  142.9260 C   0  0  0  0  0  2  0  0  0  0  0  0
  187.5740  176.4880  147.1790 C   0  0  0  0  0  2  0  0  0  0  0  0
  186.7190  176.5850  145.9180 C   0  0  0  0  0  2  0  0  0  0  0  0
  186.3630  178.6770  144.4480 C   0  0  2  0  0  3  0  0  0  0  0  0
  184.1420  179.0310  145.2540 C   0  0  0  0  0  2  0  0  0  0  0  0
  186.0330  177.9440  145.7340 C   0  0  1  0  0  3  0  0  0  0  0  0
  184.6410  177.8730  145.8760 O   0  0  0  0  0  0  0  0  0  0  0  0
  185.1830  179.5890  144.2990 C   0  0  0  0  0  2  0  0  0  0  0  0
  186.3930  177.8060  143.3550 O   0  0  0  0  0  1  0  0  0  0  0  0
  191.4790  172.7390  143.7220 C   0  0  0  0  0  2  0  0  0  0  0  0
  190.2430  172.6500  142.8420 C   0  0  0  0  0  2  0  0  0  0  0  0
  190.3040  173.6760  141.7240 C   0  0  0  0  0  2  0  0  0  0  0  0
  189.0660  175.5340  142.5610 O   0  0  0  0  0  1  0  0  0  0  0  0
  187.9010  173.5990  142.0190 N   0  0  0  0  0  1  0  0  0  0  0  0
  189.0100  174.4660  141.6650 C   0  0  2  0  0  3  0  0  0  0  0  0
  1  6  1  0  0  0  0
  1  3  1  0  0  0  0
  3  2  2  0  0  0  0
  3 20  1  0  0  0  0
  4  6  1  0  0  0  0
  5 28  1  6  0  0  0
  5  4  1  0  0  0  0
  7  1  1  0  0  0  0
  8 12  1  1  0  0  0
  8  5  1  0  0  0  0
  8  7  1  0  0  0  0
  9 10  1  6  0  0  0
  9 11  1  0  0  0  0
  9 17  1  0  0  0  0
 10 13  2  0  0  0  0
 11 12  2  0  0  0  0
 12 16  1  0  0  0  0
 13 15  1  0  0  0  0
 14 16  2  0  0  0  0
 15 17  2  0  0  0  0
 17 14  1  0  0  0  0
 18 19  2  0  0  0  0
 18 11  1  0  0  0  0
 21 20  1  0  0  0  0
 22 27  1  6  0  0  0
 22 24  1  0  0  0  0
 23 25  1  0  0  0  0
 24 25  1  0  0  0  0
 24 21  1  6  0  0  0
 26 22  1  0  0  0  0
 26 23  1  0  0  0  0
 29 28  1  0  0  0  0
 30 29  1  0  0  0  0
 33 30  1  0  0  0  0
 33 32  1  1  0  0  0
 33 31  1  0  0  0  0
M  END
>  <MODEL>
5

>  <REMARK>
 VINA RESULT:      -6.3      2.982      7.533
  Name = 
  9 active torsions:
  status: ('A' for Active; 'I' for Inactive)
    1  A    between atoms: C_7  and  C_8
    2  A    between atoms: C_7  and  C_24
    3  A    between atoms: C_9  and  C_24
    4  A    between atoms: C_10  and  C_11
    5  A    between atoms: C_14  and  C_33
    6  A    between atoms: C_17  and  C_27
    7  A    between atoms: C_20  and  C_32
    8  A    between atoms: C_31  and  C_32
    9  A    between atoms: C_31  and  C_33
                            x       y       z     vdW  Elec       q    Type
                         _______ _______ _______ _____ _____    ______ ____

>  <TORSDO>
F 9

$$$$
=
 OpenBabel11042415033D

 33 36  0  0  1  0  0  0  0  0999 V2000
  191.3760  176.8290  145.2530 N   0  0  0  0  0  0  0  0  0  0  0  0
  189.9120  177.9910  143.8490 O   0  0  0  0  0  0  0  0  0  0  0  0
  190.1080  177.4370  144.9630 C   0  0  0  0  0  0  0  0  0  0  0  0
  192.3110  174.9470  146.4840 C   0  0  0  0  0  2  0  0  0  0  0  0
  193.5320  174.9800  145.5630 C   0  0  2  0  0  3  0  0  0  0  0  0
  191.6850  176.3320  146.5900 C   0  0  0  0  0  2  0  0  0  0  0  0
  192.4550  176.8730  144.2700 C   0  0  0  0  0  2  0  0  0  0  0  0
  193.1340  175.5060  144.1720 C   0  0  1  0  0  3  0  0  0  0  0  0
  195.4450  174.9750  141.1930 C   0  0  1  0  0  3  0  0  0  0  0  0
  195.7550  174.4090  139.9740 C   0  0  0  0  0  3  0  0  0  0  0  0
  194.3070  174.8530  142.0140 C   0  0  0  0  0  0  0  0  0  0  0  0
  194.3090  175.5820  143.2320 C   0  0  0  0  0  0  0  0  0  0  0  0
  196.9810  174.8410  139.5930 N   0  0  0  0  0  0  0  0  0  0  0  0
  196.5370  176.4830  142.7310 C   0  0  0  0  0  3  0  0  0  0  0  0
  197.4540  175.6710  140.5530 C   0  0  0  0  0  3  0  0  0  0  0  0
  195.4220  176.3880  143.5760 C   0  0  0  0  0  3  0  0  0  0  0  0
  196.5080  175.7590  141.5460 C   0  0  0  0  0  0  0  0  0  0  0  0
  193.1370  174.0120  141.6640 C   0  0  0  0  0  3  0  0  0  0  0  0
  192.9780  172.7530  142.0530 C   0  0  0  0  0  2  0  0  0  0  0  0
  188.9940  177.4130  145.9620 C   0  0  0  0  0  2  0  0  0  0  0  0
  187.8840  176.4590  145.5300 C   0  0  0  0  0  2  0  0  0  0  0  0
  185.4970  176.8110  146.4500 C   0  0  2  0  0  3  0  0  0  0  0  0
  185.3250  179.0120  145.5390 C   0  0  0  0  0  2  0  0  0  0  0  0
  186.5130  177.1290  145.3700 C   0  0  1  0  0  3  0  0  0  0  0  0
  186.6030  178.5200  145.2210 O   0  0  0  0  0  0  0  0  0  0  0  0
  184.5650  177.9800  146.3530 C   0  0  0  0  0  2  0  0  0  0  0  0
  186.0810  176.8120  147.7200 O   0  0  0  0  0  1  0  0  0  0  0  0
  194.1190  173.5750  145.4580 C   0  0  0  0  0  2  0  0  0  0  0  0
  195.6080  173.5800  145.7620 C   0  0  0  0  0  2  0  0  0  0  0  0
  196.3040  172.4300  145.0560 C   0  0  0  0  0  2  0  0  0  0  0  0
  197.9410  174.1620  145.0020 O   0  0  0  0  0  1  0  0  0  0  0  0
  197.6810  172.8450  143.1070 N   0  0  0  0  0  1  0  0  0  0  0  0
  197.6680  172.8680  144.5580 C   0  0  2  0  0  3  0  0  0  0  0  0
  1  6  1  0  0  0  0
  2  3  2  0  0  0  0
  3  1  1  0  0  0  0
  3 20  1  0  0  0  0
  4  6  1  0  0  0  0
  5 28  1  6  0  0  0
  5  4  1  0  0  0  0
  7  1  1  0  0  0  0
  8 12  1  6  0  0  0
  8  7  1  0  0  0  0
  8  5  1  0  0  0  0
  9 10  1  1  0  0  0
  9 17  1  0  0  0  0
  9 11  1  0  0  0  0
 11 12  2  0  0  0  0
 12 16  1  0  0  0  0
 13 10  2  0  0  0  0
 13 15  1  0  0  0  0
 14 16  2  0  0  0  0
 15 17  2  0  0  0  0
 17 14  1  0  0  0  0
 18 11  1  0  0  0  0
 18 19  2  0  0  0  0
 21 20  1  0  0  0  0
 22 27  1  1  0  0  0
 23 26  1  0  0  0  0
 24 21  1  1  0  0  0
 24 22  1  0  0  0  0
 25 24  1  0  0  0  0
 25 23  1  0  0  0  0
 26 22  1  0  0  0  0
 28 29  1  0  0  0  0
 30 29  1  0  0  0  0
 33 32  1  6  0  0  0
 33 31  1  0  0  0  0
 33 30  1  0  0  0  0
M  END
>  <MODEL>
6

>  <REMARK>
 VINA RESULT:      -6.3      3.268      8.207
  Name = 
  9 active torsions:
  status: ('A' for Active; 'I' for Inactive)
    1  A    between atoms: C_7  and  C_8
    2  A    between atoms: C_7  and  C_24
    3  A    between atoms: C_9  and  C_24
    4  A    between atoms: C_10  and  C_11
    5  A    between atoms: C_14  and  C_33
    6  A    between atoms: C_17  and  C_27
    7  A    between atoms: C_20  and  C_32
    8  A    between atoms: C_31  and  C_32
    9  A    between atoms: C_31  and  C_33
                            x       y       z     vdW  Elec       q    Type
                         _______ _______ _______ _____ _____    ______ ____

>  <TORSDO>
F 9

$$$$
=
 OpenBabel11042415033D

 33 36  0  0  1  0  0  0  0  0999 V2000
  188.9370  177.0570  143.2160 N   0  0  0  0  0  0  0  0  0  0  0  0
  187.6900  176.6000  141.2920 O   0  0  0  0  0  0  0  0  0  0  0  0
  187.7990  177.2550  142.3630 C   0  0  0  0  0  0  0  0  0  0  0  0
  189.5260  177.0630  145.5790 C   0  0  0  0  0  2  0  0  0  0  0  0
  190.7160  176.1550  145.2610 C   0  0  2  0  0  3  0  0  0  0  0  0
  189.1710  177.9190  144.3700 C   0  0  0  0  0  2  0  0  0  0  0  0
  189.9870  176.1170  142.8350 C   0  0  0  0  0  2  0  0  0  0  0  0
  190.3980  175.2710  144.0410 C   0  0  1  0  0  3  0  0  0  0  0  0
  192.5610  172.1960  143.4390 C   0  0  0  0  0  0  0  0  0  0  0  0
  192.7770  170.8340  143.4490 C   0  0  0  0  0  3  0  0  0  0  0  0
  191.4370  172.9640  143.8020 C   0  0  0  0  0  0  0  0  0  0  0  0
  191.5500  174.3730  143.6710 C   0  0  0  0  0  0  0  0  0  0  0  0
  194.0320  170.5880  143.0040 N   0  0  0  0  0  0  0  0  0  0  0  0
  193.8480  174.1490  142.8390 C   0  0  0  0  0  2  0  0  0  0  0  0
  194.6160  171.7750  142.7110 C   0  0  0  0  0  3  0  0  0  0  0  0
  192.7520  174.9490  143.1910 C   0  0  0  0  0  3  0  0  0  0  0  0
  193.7110  172.7730  142.9770 C   0  0  0  0  0  0  0  0  0  0  0  0
  190.1750  172.3720  144.3060 C   0  0  0  0  0  3  0  0  0  0  0  0
  189.1980  171.9220  143.5280 C   0  0  0  0  0  2  0  0  0  0  0  0
  186.7180  178.2230  142.7280 C   0  0  0  0  0  2  0  0  0  0  0  0
  185.5160  177.5050  143.3390 C   0  0  0  0  0  2  0  0  0  0  0  0
  185.1710  177.1270  145.8700 C   0  0  2  0  0  3  0  0  0  0  0  0
  185.5640  179.4220  146.4040 C   0  0  0  0  0  2  0  0  0  0  0  0
  185.0700  178.0760  144.6910 C   0  0  1  0  0  3  0  0  0  0  0  0
  185.7190  179.2760  145.0130 O   0  0  0  0  0  0  0  0  0  0  0  0
  185.2390  178.0760  147.0270 C   0  0  0  0  0  2  0  0  0  0  0  0
  186.3550  176.3860  145.8320 O   0  0  0  0  0  1  0  0  0  0  0  0
  191.0290  175.2940  146.4810 C   0  0  0  0  0  2  0  0  0  0  0  0
  192.4480  175.5320  146.9700 C   0  0  0  0  0  2  0  0  0  0  0  0
  193.0590  176.7380  146.2790 C   0  0  0  0  0  2  0  0  0  0  0  0
  195.0210  177.1780  144.9980 O   0  0  0  0  0  1  0  0  0  0  0  0
  194.8930  175.1620  146.1430 N   0  0  0  0  0  1  0  0  0  0  0  0
  194.5630  176.5750  146.1690 C   0  0  2  0  0  3  0  0  0  0  0  0
  1  6  1  0  0  0  0
  2  3  2  0  0  0  0
  3 20  1  0  0  0  0
  3  1  1  0  0  0  0
  5  4  1  0  0  0  0
  5 28  1  1  0  0  0
  6  4  1  0  0  0  0
  7  1  1  0  0  0  0
  7  8  1  0  0  0  0
  8 12  1  6  0  0  0
  8  5  1  0  0  0  0
  9 10  1  0  0  0  0
  9 11  2  0  0  0  0
 11 18  1  0  0  0  0
 12 11  1  0  0  0  0
 13 10  2  0  0  0  0
 14 17  1  0  0  0  0
 14 16  1  0  0  0  0
 15 17  2  0  0  0  0
 15 13  1  0  0  0  0
 16 12  2  0  0  0  0
 17  9  1  0  0  0  0
 19 18  2  0  0  0  0
 20 21  1  0  0  0  0
 22 27  1  6  0  0  0
 22 26  1  0  0  0  0
 23 26  1  0  0  0  0
 24 21  1  6  0  0  0
 24 25  1  0  0  0  0
 24 22  1  0  0  0  0
 25 23  1  0  0  0  0
 28 29  1  0  0  0  0
 30 29  1  0  0  0  0
 32 33  1  0  0  0  0
 33 31  1  6  0  0  0
 33 30  1  0  0  0  0
M  END
>  <MODEL>
7

>  <REMARK>
 VINA RESULT:      -6.3      2.746      7.834
  Name = 
  9 active torsions:
  status: ('A' for Active; 'I' for Inactive)
    1  A    between atoms: C_7  and  C_8
    2  A    between atoms: C_7  and  C_24
    3  A    between atoms: C_9  and  C_24
    4  A    between atoms: C_10  and  C_11
    5  A    between atoms: C_14  and  C_33
    6  A    between atoms: C_17  and  C_27
    7  A    between atoms: C_20  and  C_32
    8  A    between atoms: C_31  and  C_32
    9  A    between atoms: C_31  and  C_33
                            x       y       z     vdW  Elec       q    Type
                         _______ _______ _______ _____ _____    ______ ____

>  <TORSDO>
F 9

$$$$
=
 OpenBabel11042415033D

 33 36  0  0  1  0  0  0  0  0999 V2000
  189.5510  173.5990  141.7860 N   0  0  0  0  0  0  0  0  0  0  0  0
  187.9110  172.7730  140.3390 O   0  0  0  0  0  0  0  0  0  0  0  0
  189.1190  172.7680  140.6980 C   0  0  0  0  0  0  0  0  0  0  0  0
  191.4950  174.8790  142.5040 C   0  0  0  0  0  2  0  0  0  0  0  0
  190.5760  175.7480  143.3650 C   0  0  2  0  0  3  0  0  0  0  0  0
  190.9010  173.4870  142.3280 C   0  0  0  0  0  2  0  0  0  0  0  0
  188.5900  174.4340  142.5000 C   0  0  0  0  0  2  0  0  0  0  0  0
  189.1750  175.8290  142.7320 C   0  0  1  0  0  3  0  0  0  0  0  0
  186.5750  178.4000  143.7910 C   0  0  0  0  0  0  0  0  0  0  0  0
  185.6980  179.4310  143.5250 C   0  0  0  0  0  3  0  0  0  0  0  0
  187.4370  177.6700  142.9500 C   0  0  0  0  0  0  0  0  0  0  0  0
  188.2230  176.6550  143.5560 C   0  0  0  0  0  0  0  0  0  0  0  0
  185.0950  179.7980  144.6800 N   0  0  0  0  0  2  0  0  0  0  0  0
  187.2470  177.1610  145.7510 C   0  0  0  0  0  3  0  0  0  0  0  0
  185.5750  179.0160  145.6760 C   0  0  0  0  0  3  0  0  0  0  0  0
  188.1190  176.4120  144.9480 C   0  0  0  0  0  3  0  0  0  0  0  0
  186.4910  178.1480  145.1320 C   0  0  0  0  0  0  0  0  0  0  0  0
  187.5540  177.9160  141.4930 C   0  0  0  0  0  3  0  0  0  0  0  0
  186.6860  177.4780  140.5880 C   0  0  0  0  0  2  0  0  0  0  0  0
  190.0850  171.8950  139.9600 C   0  0  0  0  0  2  0  0  0  0  0  0
  189.6530  171.6940  138.5100 C   0  0  0  0  0  2  0  0  0  0  0  0
  189.6840  173.5020  136.6670 C   0  0  2  0  0  3  0  0  0  0  0  0
  191.9180  174.1780  137.1790 C   0  0  0  0  0  2  0  0  0  0  0  0
  190.4710  172.5070  137.4980 C   0  0  1  0  0  3  0  0  0  0  0  0
  191.5630  173.1610  138.0840 O   0  0  0  0  0  0  0  0  0  0  0  0
  190.7500  174.4720  136.2540 C   0  0  0  0  0  2  0  0  0  0  0  0
  188.7390  174.1820  137.4400 O   0  0  0  0  0  1  0  0  0  0  0  0
  191.1860  177.1400  143.4990 C   0  0  0  0  0  2  0  0  0  0  0  0
  192.2640  177.1640  144.5700 C   0  0  0  0  0  2  0  0  0  0  0  0
  191.7920  176.4500  145.8240 C   0  0  0  0  0  2  0  0  0  0  0  0
  194.0810  176.6080  146.4740 O   0  0  0  0  0  1  0  0  0  0  0  0
  193.2660  174.5280  145.8400 N   0  0  0  0  0  1  0  0  0  0  0  0
  192.9620  175.7760  146.5150 C   0  0  2  0  0  3  0  0  0  0  0  0
  1  6  1  0  0  0  0
  1  7  1  0  0  0  0
  2  3  2  0  0  0  0
  3  1  1  0  0  0  0
  4  5  1  0  0  0  0
  5 28  1  6  0  0  0
  6  4  1  0  0  0  0
  7  8  1  0  0  0  0
  8  5  1  0  0  0  0
  8 12  1  1  0  0  0
  9 17  1  0  0  0  0
 10  9  2  0  0  0  0
 10 13  1  0  0  0  0
 11 12  2  0  0  0  0
 11  9  1  0  0  0  0
 12 16  1  0  0  0  0
 13 15  1  0  0  0  0
 16 14  2  0  0  0  0
 17 15  2  0  0  0  0
 17 14  1  0  0  0  0
 18 11  1  0  0  0  0
 19 18  2  0  0  0  0
 20  3  1  0  0  0  0
 21 20  1  0  0  0  0
 22 27  1  1  0  0  0
 22 24  1  0  0  0  0
 23 25  1  0  0  0  0
 24 25  1  0  0  0  0
 24 21  1  1  0  0  0
 26 22  1  0  0  0  0
 26 23  1  0  0  0  0
 28 29  1  0  0  0  0
 29 30  1  0  0  0  0
 30 33  1  0  0  0  0
 31 33  1  0  0  0  0
 33 32  1  6  0  0  0
M  END
>  <MODEL>
8

>  <REMARK>
 VINA RESULT:      -6.3      2.720      6.039
  Name = 
  9 active torsions:
  status: ('A' for Active; 'I' for Inactive)
    1  A    between atoms: C_7  and  C_8
    2  A    between atoms: C_7  and  C_24
    3  A    between atoms: C_9  and  C_24
    4  A    between atoms: C_10  and  C_11
    5  A    between atoms: C_14  and  C_33
    6  A    between atoms: C_17  and  C_27
    7  A    between atoms: C_20  and  C_32
    8  A    between atoms: C_31  and  C_32
    9  A    between atoms: C_31  and  C_33
                            x       y       z     vdW  Elec       q    Type
                         _______ _______ _______ _____ _____    ______ ____

>  <TORSDO>
F 9

$$$$
=
 OpenBabel11042415033D

 33 36  0  0  1  0  0  0  0  0999 V2000
  189.8290  176.6160  143.7090 N   0  0  0  0  0  0  0  0  0  0  0  0
  189.2710  178.1250  142.0130 O   0  0  0  0  0  0  0  0  0  0  0  0
  188.8760  177.3150  142.8940 C   0  0  0  0  0  0  0  0  0  0  0  0
  190.1240  174.4660  144.8140 C   0  0  0  0  0  2  0  0  0  0  0  0
  191.6390  174.6780  144.7740 C   0  0  2  0  0  3  0  0  0  0  0  0
  189.3990  175.8050  144.8430 C   0  0  0  0  0  2  0  0  0  0  0  0
  191.2590  176.8580  143.5410 C   0  0  0  0  0  2  0  0  0  0  0  0
  192.0220  175.5330  143.5510 C   0  0  1  0  0  3  0  0  0  0  0  0
  195.6490  175.5890  142.3960 C   0  0  1  0  0  3  0  0  0  0  0  0
  196.6530  175.2660  141.5050 C   0  0  0  0  0  3  0  0  0  0  0  0
  194.2690  175.3070  142.3860 C   0  0  0  0  0  0  0  0  0  0  0  0
  193.5040  175.7920  143.4790 C   0  0  0  0  0  0  0  0  0  0  0  0
  197.8220  175.7700  141.9660 N   0  0  0  0  0  0  0  0  0  0  0  0
  195.5100  176.7860  144.4880 C   0  0  0  0  0  3  0  0  0  0  0  0
  197.5770  176.4060  143.1360 C   0  0  0  0  0  3  0  0  0  0  0  0
  194.1320  176.5260  144.5160 C   0  0  0  0  0  3  0  0  0  0  0  0
  196.2340  176.2990  143.4070 C   0  0  0  0  0  0  0  0  0  0  0  0
  193.6030  174.5400  141.3070 C   0  0  0  0  0  3  0  0  0  0  0  0
  193.6180  173.2160  141.2120 C   0  0  0  0  0  2  0  0  0  0  0  0
  187.4060  177.0910  143.0590 C   0  0  0  0  0  2  0  0  0  0  0  0
  186.7120  178.3390  143.5980 C   0  0  0  0  0  2  0  0  0  0  0  0
  184.9870  179.0200  145.3950 C   0  0  2  0  0  3  0  0  0  0  0  0
  185.1450  176.9260  146.5330 C   0  0  0  0  0  2  0  0  0  0  0  0
  186.2130  178.1990  145.0420 C   0  0  1  0  0  3  0  0  0  0  0  0
  185.9940  176.8660  145.4140 O   0  0  0  0  0  0  0  0  0  0  0  0
  184.4400  178.2700  146.5720 C   0  0  0  0  0  2  0  0  0  0  0  0
  184.0380  178.9900  144.3690 O   0  0  0  0  0  1  0  0  0  0  0  0
  192.3330  173.3210  144.7190 C   0  0  0  0  0  2  0  0  0  0  0  0
  193.4400  173.2300  145.7570 C   0  0  0  0  0  2  0  0  0  0  0  0
  194.5130  172.2510  145.3140 C   0  0  0  0  0  2  0  0  0  0  0  0
  196.3700  172.5780  143.8550 O   0  0  0  0  0  1  0  0  0  0  0  0
  196.7500  172.6690  146.1440 N   0  0  0  0  0  1  0  0  0  0  0  0
  195.8210  172.9800  145.0730 C   0  0  2  0  0  3  0  0  0  0  0  0
  1  6  1  0  0  0  0
  2  3  2  0  0  0  0
  3 20  1  0  0  0  0
  3  1  1  0  0  0  0
  4  6  1  0  0  0  0
  5 28  1  6  0  0  0
  5  4  1  0  0  0  0
  7  8  1  0  0  0  0
  7  1  1  0  0  0  0
  8 12  1  1  0  0  0
  8  5  1  0  0  0  0
  9 10  1  1  0  0  0
  9 17  1  0  0  0  0
 10 13  2  0  0  0  0
 11  9  1  0  0  0  0
 11 12  2  0  0  0  0
 12 16  1  0  0  0  0
 13 15  1  0  0  0  0
 14 16  2  0  0  0  0
 15 17  2  0  0  0  0
 17 14  1  0  0  0  0
 18 11  1  0  0  0  0
 19 18  2  0  0  0  0
 20 21  1  0  0  0  0
 22 27  1  6  0  0  0
 22 26  1  0  0  0  0
 23 26  1  0  0  0  0
 24 21  1  6  0  0  0
 24 22  1  0  0  0  0
 24 25  1  0  0  0  0
 25 23  1  0  0  0  0
 28 29  1  0  0  0  0
 30 29  1  0  0  0  0
 33 31  1  6  0  0  0
 33 30  1  0  0  0  0
 33 32  1  0  0  0  0
M  END
>  <MODEL>
9

>  <REMARK>
 VINA RESULT:      -6.3      3.248      8.106
  Name = 
  9 active torsions:
  status: ('A' for Active; 'I' for Inactive)
    1  A    between atoms: C_7  and  C_8
    2  A    between atoms: C_7  and  C_24
    3  A    between atoms: C_9  and  C_24
    4  A    between atoms: C_10  and  C_11
    5  A    between atoms: C_14  and  C_33
    6  A    between atoms: C_17  and  C_27
    7  A    between atoms: C_20  and  C_32
    8  A    between atoms: C_31  and  C_32
    9  A    between atoms: C_31  and  C_33
                            x       y       z     vdW  Elec       q    Type
                         _______ _______ _______ _____ _____    ______ ____

>  <TORSDO>
F 9

$$$$
