=
 OpenBabel11042416513D

 29 31  0  0  1  0  0  0  0  0999 V2000
  184.3620  178.5420  146.5200 N   0  0  0  0  0  0  0  0  0  0  0  0
  185.3560  176.8180  143.0820 N   0  0  0  0  0  1  0  0  0  0  0  0
  188.7240  176.1680  144.3460 C   0  0  0  0  0  3  0  0  0  0  0  0
  186.0240  177.3820  145.2990 C   0  0  0  0  0  0  0  0  0  0  0  0
  187.7820  176.7380  143.6020 C   0  0  0  0  0  0  0  0  0  0  0  0
  185.1710  178.6380  147.5970 C   0  0  0  0  0  3  0  0  0  0  0  0
  187.9510  176.6750  146.6510 C   0  0  0  0  0  3  0  0  0  0  0  0
  188.5640  175.7940  145.7120 N   0  0  0  0  0  0  0  0  0  0  0  0
  184.7800  177.9300  145.4140 N   0  0  0  0  0  0  0  0  0  0  0  0
  186.8430  177.3970  146.4640 C   0  0  0  0  0  0  0  0  0  0  0  0
  186.3820  176.9310  144.0730 C   0  0  0  0  0  0  0  0  0  0  0  0
  186.3930  178.0600  147.5610 N   0  0  0  0  0  0  0  0  0  0  0  0
  191.6810  174.1240  145.7860 O   0  0  0  0  0  0  0  0  0  0  0  0
  191.7520  175.0750  146.8220 C   0  0  2  0  0  3  0  0  0  0  0  0
  190.3950  174.2290  145.2300 C   0  0  0  0  0  2  0  0  0  0  0  0
  189.4540  174.7820  146.2790 C   0  0  1  0  0  3  0  0  0  0  0  0
  190.3570  175.3690  147.3250 C   0  0  0  0  0  2  0  0  0  0  0  0
  192.4020  176.3600  146.3220 C   0  0  0  0  0  2  0  0  0  0  0  0
  193.3380  176.0840  145.1440 C   0  0  1  0  0  3  0  0  0  0  0  0
  192.8450  176.8030  143.8850 C   0  0  2  0  0  3  0  0  0  0  0  0
  191.7400  177.6010  144.1890 O   0  0  0  0  0  1  0  0  0  0  0  0
  192.4640  175.8340  142.8720 N   0  0  0  0  0  1  0  0  0  0  0  0
  194.7970  176.4470  145.4630 C   0  0  2  0  0  3  0  0  0  0  0  0
  194.9200  177.8180  145.6930 O   0  0  0  0  0  1  0  0  0  0  0  0
  196.3010  176.8460  143.6860 O   0  0  0  0  0  0  0  0  0  0  0  0
  195.7480  176.0150  144.3880 C   0  0  0  0  0  3  0  0  0  0  0  0
  188.6500  178.2650  141.9430 N   0  0  0  0  0  2  0  0  0  0  0  0
  188.1480  177.1030  142.2070 C   0  0  0  0  0  0  0  0  0  0  0  0
  188.0560  176.1090  141.0940 C   0  0  0  0  0  1  0  0  0  0  0  0
  1  6  1  0  0  0  0
  2 11  1  0  0  0  0
  3  8  1  0  0  0  0
  4  9  1  0  0  0  0
  4 10  1  0  0  0  0
  5 11  1  0  0  0  0
  5  3  2  0  0  0  0
  8 16  1  0  0  0  0
  8  7  1  0  0  0  0
  9  1  2  0  0  0  0
 10  7  2  0  0  0  0
 10 12  1  0  0  0  0
 11  4  2  0  0  0  0
 12  6  2  0  0  0  0
 13 14  1  0  0  0  0
 14 18  1  6  0  0  0
 14 17  1  0  0  0  0
 15 13  1  0  0  0  0
 16 15  1  6  0  0  0
 16 17  1  0  0  0  0
 19 23  1  0  0  0  0
 19 18  1  1  0  0  0
 20 22  1  6  0  0  0
 20 21  1  0  0  0  0
 20 19  1  0  0  0  0
 23 24  1  6  0  0  0
 25 26  2  0  0  0  0
 26 23  1  0  0  0  0
 27 28  2  0  0  0  0
 28  5  1  0  0  0  0
 29 28  1  0  0  0  0
M  END
>  <MODEL>
1

>  <REMARK>
 VINA RESULT:      -6.9      0.000      0.000
  Name = 
  7 active torsions:
  status: ('A' for Active; 'I' for Inactive)
    1  A    between atoms: C_2  and  C_14
    2  A    between atoms: C_5  and  C_17
    3  A    between atoms: C_7  and  C_14
    4  A    between atoms: C_7  and  C_24
    5  A    between atoms: C_8  and  C_13
    6  A    between atoms: C_13  and  C_14
    7  A    between atoms: C_19  and  N_23
                            x       y       z     vdW  Elec       q    Type
                         _______ _______ _______ _____ _____    ______ ____

>  <TORSDO>
F 7

$$$$
=
 OpenBabel11042416513D

 29 31  0  0  1  0  0  0  0  0999 V2000
  185.6080  178.2630  140.4470 N   0  0  0  0  0  0  0  0  0  0  0  0
  185.1730  179.7840  144.0900 N   0  0  0  0  0  1  0  0  0  0  0  0
  187.8520  177.6350  145.3410 C   0  0  0  0  0  3  0  0  0  0  0  0
  186.4020  178.3130  142.6750 C   0  0  0  0  0  0  0  0  0  0  0  0
  186.6100  178.0810  145.1820 C   0  0  0  0  0  0  0  0  0  0  0  0
  186.5400  177.3500  140.0990 C   0  0  0  0  0  3  0  0  0  0  0  0
  188.5330  177.1340  143.0070 C   0  0  0  0  0  3  0  0  0  0  0  0
  188.8420  177.6050  144.3160 N   0  0  0  0  0  0  0  0  0  0  0  0
  185.5490  178.7270  141.6930 N   0  0  0  0  0  0  0  0  0  0  0  0
  187.4460  177.4230  142.2880 C   0  0  0  0  0  0  0  0  0  0  0  0
  186.1380  178.7400  143.9330 C   0  0  0  0  0  0  0  0  0  0  0  0
  187.4500  176.9480  141.0150 N   0  0  0  0  0  0  0  0  0  0  0  0
  191.4710  176.1920  146.2130 O   0  0  0  0  0  0  0  0  0  0  0  0
  191.5650  175.5830  144.9460 C   0  0  2  0  0  3  0  0  0  0  0  0
  190.4180  177.1190  146.1360 C   0  0  0  0  0  2  0  0  0  0  0  0
  190.2530  177.5510  144.6940 C   0  0  1  0  0  3  0  0  0  0  0  0
  190.9930  176.5130  143.9010 C   0  0  0  0  0  2  0  0  0  0  0  0
  190.8050  174.2620  144.9340 C   0  0  0  0  0  2  0  0  0  0  0  0
  190.7180  173.6870  143.5190 C   0  0  1  0  0  3  0  0  0  0  0  0
  191.6820  172.5100  143.3560 C   0  0  2  0  0  3  0  0  0  0  0  0
  192.2110  172.1470  144.5960 O   0  0  0  0  0  1  0  0  0  0  0  0
  192.7720  172.8750  142.4660 N   0  0  0  0  0  1  0  0  0  0  0  0
  189.2800  173.2920  143.1400 C   0  0  2  0  0  3  0  0  0  0  0  0
  189.0730  171.9300  143.3650 O   0  0  0  0  0  1  0  0  0  0  0  0
  189.6960  174.3360  141.0620 O   0  0  0  0  0  0  0  0  0  0  0  0
  188.9420  173.6390  141.7220 C   0  0  0  0  0  3  0  0  0  0  0  0
  184.8380  177.0280  146.4430 N   0  0  0  0  0  2  0  0  0  0  0  0
  185.7000  177.9870  146.3560 C   0  0  0  0  0  0  0  0  0  0  0  0
  185.8300  178.9220  147.5160 C   0  0  0  0  0  1  0  0  0  0  0  0
  1  9  2  0  0  0  0
  4 11  2  0  0  0  0
  5  3  2  0  0  0  0
  5 28  1  0  0  0  0
  6  1  1  0  0  0  0
  6 12  2  0  0  0  0
  7  8  1  0  0  0  0
  8 16  1  0  0  0  0
  8  3  1  0  0  0  0
  9  4  1  0  0  0  0
 10  4  1  0  0  0  0
 10  7  2  0  0  0  0
 11  2  1  0  0  0  0
 11  5  1  0  0  0  0
 12 10  1  0  0  0  0
 14 18  1  1  0  0  0
 14 13  1  0  0  0  0
 15 13  1  0  0  0  0
 16 17  1  6  0  0  0
 16 15  1  0  0  0  0
 17 14  1  0  0  0  0
 19 18  1  1  0  0  0
 20 22  1  6  0  0  0
 20 19  1  0  0  0  0
 20 21  1  0  0  0  0
 23 24  1  6  0  0  0
 23 19  1  0  0  0  0
 25 26  2  0  0  0  0
 26 23  1  0  0  0  0
 28 27  2  0  0  0  0
 28 29  1  0  0  0  0
M  END
>  <MODEL>
2

>  <REMARK>
 VINA RESULT:      -6.8      2.327      4.919
  Name = 
  7 active torsions:
  status: ('A' for Active; 'I' for Inactive)
    1  A    between atoms: C_2  and  C_14
    2  A    between atoms: C_5  and  C_17
    3  A    between atoms: C_7  and  C_14
    4  A    between atoms: C_7  and  C_24
    5  A    between atoms: C_8  and  C_13
    6  A    between atoms: C_13  and  C_14
    7  A    between atoms: C_19  and  N_23
                            x       y       z     vdW  Elec       q    Type
                         _______ _______ _______ _____ _____    ______ ____

>  <TORSDO>
F 7

$$$$
=
 OpenBabel11042416513D

 29 31  0  0  1  0  0  0  0  0999 V2000
  185.3370  178.3010  140.4450 N   0  0  0  0  0  0  0  0  0  0  0  0
  185.0750  179.5620  144.2030 N   0  0  0  0  0  1  0  0  0  0  0  0
  188.0900  177.6890  145.0730 C   0  0  0  0  0  3  0  0  0  0  0  0
  186.3270  178.3280  142.5940 C   0  0  0  0  0  0  0  0  0  0  0  0
  186.7960  177.9890  145.0530 C   0  0  0  0  0  0  0  0  0  0  0  0
  186.3300  177.5270  139.9580 C   0  0  0  0  0  3  0  0  0  0  0  0
  188.6010  177.3990  142.6610 C   0  0  0  0  0  3  0  0  0  0  0  0
  188.9760  177.8340  143.9660 N   0  0  0  0  0  0  0  0  0  0  0  0
  185.3430  178.6870  141.7190 N   0  0  0  0  0  0  0  0  0  0  0  0
  187.4250  177.5930  142.0600 C   0  0  0  0  0  0  0  0  0  0  0  0
  186.1350  178.6520  143.8950 C   0  0  0  0  0  0  0  0  0  0  0  0
  187.3630  177.1900  140.7640 N   0  0  0  0  0  0  0  0  0  0  0  0
  192.0210  176.3910  145.0410 O   0  0  0  0  0  0  0  0  0  0  0  0
  192.0520  176.3060  143.6350 C   0  0  2  0  0  3  0  0  0  0  0  0
  190.8290  177.0550  145.3770 C   0  0  0  0  0  2  0  0  0  0  0  0
  190.4130  177.9310  144.2150 C   0  0  1  0  0  3  0  0  0  0  0  0
  191.2070  177.4130  143.0490 C   0  0  0  0  0  2  0  0  0  0  0  0
  191.5230  174.9530  143.1730 C   0  0  0  0  0  2  0  0  0  0  0  0
  191.4640  173.9560  144.3320 C   0  0  1  0  0  3  0  0  0  0  0  0
  190.0220  173.5040  144.5800 C   0  0  2  0  0  3  0  0  0  0  0  0
  189.1630  174.1200  143.6670 O   0  0  0  0  0  1  0  0  0  0  0  0
  189.6110  173.8570  145.9280 N   0  0  0  0  0  1  0  0  0  0  0  0
  192.3990  172.7560  144.1150 C   0  0  2  0  0  3  0  0  0  0  0  0
  191.7080  171.5580  144.3010 O   0  0  0  0  0  1  0  0  0  0  0  0
  193.6830  173.6210  145.8990 O   0  0  0  0  0  0  0  0  0  0  0  0
  193.6080  172.7990  145.0010 C   0  0  0  0  0  3  0  0  0  0  0  0
  185.1860  176.7360  146.3470 N   0  0  0  0  0  2  0  0  0  0  0  0
  186.0180  177.7240  146.2940 C   0  0  0  0  0  0  0  0  0  0  0  0
  186.2560  178.5110  147.5420 C   0  0  0  0  0  1  0  0  0  0  0  0
  1  9  2  0  0  0  0
  4 11  2  0  0  0  0
  5  3  2  0  0  0  0
  5 28  1  0  0  0  0
  6  1  1  0  0  0  0
  6 12  2  0  0  0  0
  7  8  1  0  0  0  0
  8 16  1  0  0  0  0
  8  3  1  0  0  0  0
  9  4  1  0  0  0  0
 10  4  1  0  0  0  0
 10  7  2  0  0  0  0
 11  2  1  0  0  0  0
 11  5  1  0  0  0  0
 12 10  1  0  0  0  0
 13 15  1  0  0  0  0
 14 18  1  1  0  0  0
 14 13  1  0  0  0  0
 16 17  1  6  0  0  0
 16 15  1  0  0  0  0
 17 14  1  0  0  0  0
 19 18  1  6  0  0  0
 19 20  1  0  0  0  0
 20 21  1  6  0  0  0
 20 22  1  0  0  0  0
 23 24  1  1  0  0  0
 23 19  1  0  0  0  0
 23 26  1  0  0  0  0
 26 25  2  0  0  0  0
 28 27  2  0  0  0  0
 28 29  1  0  0  0  0
M  END
>  <MODEL>
3

>  <REMARK>
 VINA RESULT:      -6.8      2.293      4.528
  Name = 
  7 active torsions:
  status: ('A' for Active; 'I' for Inactive)
    1  A    between atoms: C_2  and  C_14
    2  A    between atoms: C_5  and  C_17
    3  A    between atoms: C_7  and  C_14
    4  A    between atoms: C_7  and  C_24
    5  A    between atoms: C_8  and  C_13
    6  A    between atoms: C_13  and  C_14
    7  A    between atoms: C_19  and  N_23
                            x       y       z     vdW  Elec       q    Type
                         _______ _______ _______ _____ _____    ______ ____

>  <TORSDO>
F 7

$$$$
=
 OpenBabel11042416513D

 29 31  0  0  1  0  0  0  0  0999 V2000
  188.9890  174.2360  140.6310 N   0  0  0  0  0  0  0  0  0  0  0  0
  187.6490  177.9210  141.2650 N   0  0  0  0  0  1  0  0  0  0  0  0
  187.3350  177.2240  144.8400 C   0  0  0  0  0  3  0  0  0  0  0  0
  188.2950  175.8380  142.2270 C   0  0  0  0  0  0  0  0  0  0  0  0
  186.9310  177.4640  143.5970 C   0  0  0  0  0  0  0  0  0  0  0  0
  189.2060  173.3170  141.5960 C   0  0  0  0  0  3  0  0  0  0  0  0
  188.7140  175.1790  144.5570 C   0  0  0  0  0  3  0  0  0  0  0  0
  188.4700  176.4340  145.1870 N   0  0  0  0  0  0  0  0  0  0  0  0
  188.5520  175.4530  140.9430 N   0  0  0  0  0  0  0  0  0  0  0  0
  188.6150  174.9040  143.2540 C   0  0  0  0  0  0  0  0  0  0  0  0
  187.7060  177.0460  142.3960 C   0  0  0  0  0  0  0  0  0  0  0  0
  189.0260  173.6610  142.8910 N   0  0  0  0  0  0  0  0  0  0  0  0
  190.5850  175.2950  147.7820 O   0  0  0  0  0  0  0  0  0  0  0  0
  191.3660  176.2090  147.0490 C   0  0  2  0  0  3  0  0  0  0  0  0
  189.3110  175.2890  147.1900 C   0  0  0  0  0  2  0  0  0  0  0  0
  189.0880  176.6170  146.4990 C   0  0  1  0  0  3  0  0  0  0  0  0
  190.4600  177.2170  146.3800 C   0  0  0  0  0  2  0  0  0  0  0  0
  192.1910  175.4790  145.9960 C   0  0  0  0  0  2  0  0  0  0  0  0
  192.9080  176.4650  145.0720 C   0  0  1  0  0  3  0  0  0  0  0  0
  194.3840  176.5900  145.4600 C   0  0  2  0  0  3  0  0  0  0  0  0
  195.1650  176.7870  144.3190 O   0  0  0  0  0  1  0  0  0  0  0  0
  194.8290  175.3820  146.1340 N   0  0  0  0  0  1  0  0  0  0  0  0
  192.7470  176.0940  143.5890 C   0  0  2  0  0  3  0  0  0  0  0  0
  191.7240  176.8440  143.0060 O   0  0  0  0  0  1  0  0  0  0  0  0
  193.3890  173.9020  142.9860 O   0  0  0  0  0  0  0  0  0  0  0  0
  192.4950  174.6300  143.3840 C   0  0  0  0  0  3  0  0  0  0  0  0
  184.6520  177.7660  142.8530 N   0  0  0  0  0  2  0  0  0  0  0  0
  185.6920  178.2720  143.4310 C   0  0  0  0  0  0  0  0  0  0  0  0
  185.5710  179.6390  144.0240 C   0  0  0  0  0  1  0  0  0  0  0  0
  1  9  2  0  0  0  0
  1  6  1  0  0  0  0
  2 11  1  0  0  0  0
  3  8  1  0  0  0  0
  4 11  2  0  0  0  0
  4 10  1  0  0  0  0
  5  3  2  0  0  0  0
  6 12  2  0  0  0  0
  7  8  1  0  0  0  0
  9  4  1  0  0  0  0
 10  7  2  0  0  0  0
 11  5  1  0  0  0  0
 12 10  1  0  0  0  0
 14 18  1  6  0  0  0
 14 13  1  0  0  0  0
 15 13  1  0  0  0  0
 16  8  1  6  0  0  0
 16 15  1  0  0  0  0
 17 16  1  0  0  0  0
 17 14  1  0  0  0  0
 19 20  1  0  0  0  0
 19 18  1  1  0  0  0
 20 21  1  6  0  0  0
 20 22  1  0  0  0  0
 23 24  1  1  0  0  0
 23 19  1  0  0  0  0
 25 26  2  0  0  0  0
 26 23  1  0  0  0  0
 27 28  2  0  0  0  0
 28  5  1  0  0  0  0
 28 29  1  0  0  0  0
M  END
>  <MODEL>
4

>  <REMARK>
 VINA RESULT:      -6.5      2.061      4.046
  Name = 
  7 active torsions:
  status: ('A' for Active; 'I' for Inactive)
    1  A    between atoms: C_2  and  C_14
    2  A    between atoms: C_5  and  C_17
    3  A    between atoms: C_7  and  C_14
    4  A    between atoms: C_7  and  C_24
    5  A    between atoms: C_8  and  C_13
    6  A    between atoms: C_13  and  C_14
    7  A    between atoms: C_19  and  N_23
                            x       y       z     vdW  Elec       q    Type
                         _______ _______ _______ _____ _____    ______ ____

>  <TORSDO>
F 7

$$$$
=
 OpenBabel11042416513D

 29 31  0  0  1  0  0  0  0  0999 V2000
  190.9780  170.8770  142.7980 N   0  0  0  0  0  0  0  0  0  0  0  0
  194.0330  172.0670  145.0400 N   0  0  0  0  0  1  0  0  0  0  0  0
  192.2550  175.1460  145.8840 C   0  0  0  0  0  3  0  0  0  0  0  0
  191.8220  172.5210  144.2750 C   0  0  0  0  0  0  0  0  0  0  0  0
  193.1800  174.3810  145.3140 C   0  0  0  0  0  0  0  0  0  0  0  0
  189.8170  171.5530  142.6540 C   0  0  0  0  0  3  0  0  0  0  0  0
  190.1490  174.1650  145.0090 C   0  0  0  0  0  3  0  0  0  0  0  0
  190.8900  174.7750  146.0630 N   0  0  0  0  0  0  0  0  0  0  0  0
  191.9410  171.3490  143.5860 N   0  0  0  0  0  0  0  0  0  0  0  0
  190.5650  173.1860  144.2020 C   0  0  0  0  0  0  0  0  0  0  0  0
  192.9300  172.9690  144.9130 C   0  0  0  0  0  0  0  0  0  0  0  0
  189.6200  172.6890  143.3600 N   0  0  0  0  0  0  0  0  0  0  0  0
  189.3240  177.6890  147.3130 O   0  0  0  0  0  0  0  0  0  0  0  0
  188.2920  176.9560  146.6960 C   0  0  2  0  0  3  0  0  0  0  0  0
  190.4900  176.9130  147.2030 C   0  0  0  0  0  2  0  0  0  0  0  0
  190.0980  175.4560  147.0850 C   0  0  1  0  0  3  0  0  0  0  0  0
  188.6410  175.4860  146.7200 C   0  0  0  0  0  2  0  0  0  0  0  0
  188.1000  177.4170  145.2560 C   0  0  0  0  0  2  0  0  0  0  0  0
  186.6250  177.6870  144.9530 C   0  0  1  0  0  3  0  0  0  0  0  0
  186.0900  176.6720  143.9400 C   0  0  2  0  0  3  0  0  0  0  0  0
  187.1500  176.0360  143.2910 O   0  0  0  0  0  1  0  0  0  0  0  0
  185.2630  177.3410  142.9500 N   0  0  0  0  0  1  0  0  0  0  0  0
  185.7660  177.7160  146.2280 C   0  0  2  0  0  3  0  0  0  0  0  0
  185.0350  176.5330  146.3510 O   0  0  0  0  0  1  0  0  0  0  0  0
  183.7910  178.8840  145.6640 O   0  0  0  0  0  0  0  0  0  0  0  0
  184.8460  178.8990  146.2770 C   0  0  0  0  0  3  0  0  0  0  0  0
  195.2770  175.1790  146.2110 N   0  0  0  0  0  2  0  0  0  0  0  0
  194.5440  174.9590  145.1700 C   0  0  0  0  0  0  0  0  0  0  0  0
  195.1490  175.1930  143.8220 C   0  0  0  0  0  1  0  0  0  0  0  0
  1  9  2  0  0  0  0
  3  8  1  0  0  0  0
  4 11  2  0  0  0  0
  5  3  2  0  0  0  0
  6  1  1  0  0  0  0
  6 12  2  0  0  0  0
  7  8  1  0  0  0  0
  9  4  1  0  0  0  0
 10  4  1  0  0  0  0
 10  7  2  0  0  0  0
 11  2  1  0  0  0  0
 11  5  1  0  0  0  0
 12 10  1  0  0  0  0
 14 18  1  6  0  0  0
 14 17  1  0  0  0  0
 14 13  1  0  0  0  0
 15 13  1  0  0  0  0
 16  8  1  6  0  0  0
 16 15  1  0  0  0  0
 17 16  1  0  0  0  0
 19 18  1  1  0  0  0
 19 23  1  0  0  0  0
 20 22  1  6  0  0  0
 20 19  1  0  0  0  0
 21 20  1  0  0  0  0
 23 26  1  0  0  0  0
 23 24  1  6  0  0  0
 25 26  2  0  0  0  0
 28  5  1  0  0  0  0
 28 27  2  0  0  0  0
 29 28  1  0  0  0  0
M  END
>  <MODEL>
5

>  <REMARK>
 VINA RESULT:      -6.5      3.309      7.440
  Name = 
  7 active torsions:
  status: ('A' for Active; 'I' for Inactive)
    1  A    between atoms: C_2  and  C_14
    2  A    between atoms: C_5  and  C_17
    3  A    between atoms: C_7  and  C_14
    4  A    between atoms: C_7  and  C_24
    5  A    between atoms: C_8  and  C_13
    6  A    between atoms: C_13  and  C_14
    7  A    between atoms: C_19  and  N_23
                            x       y       z     vdW  Elec       q    Type
                         _______ _______ _______ _____ _____    ______ ____

>  <TORSDO>
F 7

$$$$
=
 OpenBabel11042416513D

 29 31  0  0  1  0  0  0  0  0999 V2000
  194.7790  176.0070  146.1400 N   0  0  0  0  0  0  0  0  0  0  0  0
  191.2560  175.6440  147.9400 N   0  0  0  0  0  1  0  0  0  0  0  0
  189.5610  176.8390  144.9300 C   0  0  0  0  0  3  0  0  0  0  0  0
  192.4280  176.1710  145.9320 C   0  0  0  0  0  0  0  0  0  0  0  0
  190.0140  176.8760  146.1790 C   0  0  0  0  0  0  0  0  0  0  0  0
  194.9540  176.3910  144.8580 C   0  0  0  0  0  3  0  0  0  0  0  0
  191.6460  176.4950  143.6250 C   0  0  0  0  0  3  0  0  0  0  0  0
  190.2550  176.2550  143.8310 N   0  0  0  0  0  0  0  0  0  0  0  0
  193.5550  175.8990  146.6520 N   0  0  0  0  0  0  0  0  0  0  0  0
  192.6050  176.4830  144.5540 C   0  0  0  0  0  0  0  0  0  0  0  0
  191.2560  176.1770  146.6120 C   0  0  0  0  0  0  0  0  0  0  0  0
  193.8710  176.6160  144.0800 N   0  0  0  0  0  0  0  0  0  0  0  0
  187.3030  175.0040  142.3380 O   0  0  0  0  0  0  0  0  0  0  0  0
  187.2310  176.4010  142.1750 C   0  0  2  0  0  3  0  0  0  0  0  0
  188.5310  174.7350  142.9660 C   0  0  0  0  0  2  0  0  0  0  0  0
  189.4990  175.8540  142.6460 C   0  0  1  0  0  3  0  0  0  0  0  0
  188.6300  176.9730  142.1460 C   0  0  0  0  0  2  0  0  0  0  0  0
  186.4410  177.0290  143.3170 C   0  0  0  0  0  2  0  0  0  0  0  0
  185.6700  178.2630  142.8440 C   0  0  1  0  0  3  0  0  0  0  0  0
  184.8050  177.9230  141.6270 C   0  0  2  0  0  3  0  0  0  0  0  0
  185.2690  178.6060  140.5010 O   0  0  0  0  0  1  0  0  0  0  0  0
  183.4240  178.3020  141.8730 N   0  0  0  0  0  1  0  0  0  0  0  0
  184.8330  178.8930  143.9700 C   0  0  2  0  0  3  0  0  0  0  0  0
  185.3510  180.1400  144.3240 O   0  0  0  0  0  1  0  0  0  0  0  0
  184.1780  178.4100  146.1870 O   0  0  0  0  0  0  0  0  0  0  0  0
  184.7360  178.0110  145.1780 C   0  0  0  0  0  3  0  0  0  0  0  0
  189.7060  178.3780  148.0450 N   0  0  0  0  0  2  0  0  0  0  0  0
  189.1710  177.5740  147.1860 C   0  0  0  0  0  0  0  0  0  0  0  0
  187.6800  177.4600  147.1640 C   0  0  0  0  0  1  0  0  0  0  0  0
  1  9  2  0  0  0  0
  3  5  2  0  0  0  0
  4 11  2  0  0  0  0
  4  9  1  0  0  0  0
  5 11  1  0  0  0  0
  5 28  1  0  0  0  0
  6  1  1  0  0  0  0
  7  8  1  0  0  0  0
  7 10  2  0  0  0  0
  8  3  1  0  0  0  0
 10  4  1  0  0  0  0
 11  2  1  0  0  0  0
 12 10  1  0  0  0  0
 12  6  2  0  0  0  0
 13 15  1  0  0  0  0
 14 13  1  0  0  0  0
 14 18  1  1  0  0  0
 16 17  1  1  0  0  0
 16 15  1  0  0  0  0
 16  8  1  0  0  0  0
 17 14  1  0  0  0  0
 19 18  1  1  0  0  0
 19 23  1  0  0  0  0
 20 21  1  6  0  0  0
 20 22  1  0  0  0  0
 20 19  1  0  0  0  0
 23 24  1  1  0  0  0
 23 26  1  0  0  0  0
 26 25  2  0  0  0  0
 28 27  2  0  0  0  0
 29 28  1  0  0  0  0
M  END
>  <MODEL>
6

>  <REMARK>
 VINA RESULT:      -6.4      3.406      7.525
  Name = 
  7 active torsions:
  status: ('A' for Active; 'I' for Inactive)
    1  A    between atoms: C_2  and  C_14
    2  A    between atoms: C_5  and  C_17
    3  A    between atoms: C_7  and  C_14
    4  A    between atoms: C_7  and  C_24
    5  A    between atoms: C_8  and  C_13
    6  A    between atoms: C_13  and  C_14
    7  A    between atoms: C_19  and  N_23
                            x       y       z     vdW  Elec       q    Type
                         _______ _______ _______ _____ _____    ______ ____

>  <TORSDO>
F 7

$$$$
=
 OpenBabel11042416513D

 29 31  0  0  1  0  0  0  0  0999 V2000
  186.9630  177.6390  140.8750 N   0  0  0  0  0  0  0  0  0  0  0  0
  185.9370  179.8400  144.0190 N   0  0  0  0  0  1  0  0  0  0  0  0
  186.9690  177.1560  146.2740 C   0  0  0  0  0  3  0  0  0  0  0  0
  186.9020  177.8070  143.2340 C   0  0  0  0  0  0  0  0  0  0  0  0
  186.1330  177.9680  145.6360 C   0  0  0  0  0  0  0  0  0  0  0  0
  187.5260  176.4140  140.9420 C   0  0  0  0  0  3  0  0  0  0  0  0
  188.1550  176.0420  144.3980 C   0  0  0  0  0  3  0  0  0  0  0  0
  188.1550  176.6030  145.7090 N   0  0  0  0  0  0  0  0  0  0  0  0
  186.6670  178.3090  141.9870 N   0  0  0  0  0  0  0  0  0  0  0  0
  187.5820  176.5580  143.3080 C   0  0  0  0  0  0  0  0  0  0  0  0
  186.4110  178.5160  144.2790 C   0  0  0  0  0  0  0  0  0  0  0  0
  187.8350  175.8920  142.1510 N   0  0  0  0  0  0  0  0  0  0  0  0
  191.1530  174.8070  146.2540 O   0  0  0  0  0  0  0  0  0  0  0  0
  191.5480  176.1540  146.1460 C   0  0  2  0  0  3  0  0  0  0  0  0
  189.7510  174.7900  146.1520 C   0  0  0  0  0  2  0  0  0  0  0  0
  189.2130  176.1310  146.6010 C   0  0  1  0  0  3  0  0  0  0  0  0
  190.4040  177.0460  146.5700 C   0  0  0  0  0  2  0  0  0  0  0  0
  191.9510  176.4770  144.7120 C   0  0  0  0  0  2  0  0  0  0  0  0
  193.4680  176.6230  144.5820 C   0  0  1  0  0  3  0  0  0  0  0  0
  194.1250  176.6570  145.9640 C   0  0  2  0  0  3  0  0  0  0  0  0
  194.8860  177.8200  146.1050 O   0  0  0  0  0  1  0  0  0  0  0  0
  194.9910  175.5030  146.1360 N   0  0  0  0  0  1  0  0  0  0  0  0
  194.0830  175.5280  143.6940 C   0  0  2  0  0  3  0  0  0  0  0  0
  194.6440  176.0890  142.5460 O   0  0  0  0  0  1  0  0  0  0  0  0
  192.8600  174.2280  142.1460 O   0  0  0  0  0  0  0  0  0  0  0  0
  193.0930  174.4650  143.3200 C   0  0  0  0  0  3  0  0  0  0  0  0
  184.9740  178.6610  147.6390 N   0  0  0  0  0  2  0  0  0  0  0  0
  184.9170  178.4060  146.3730 C   0  0  0  0  0  0  0  0  0  0  0  0
  183.6300  178.6730  145.6590 C   0  0  0  0  0  1  0  0  0  0  0  0
  1  6  1  0  0  0  0
  1  9  2  0  0  0  0
  2 11  1  0  0  0  0
  4 10  1  0  0  0  0
  4 11  2  0  0  0  0
  5  3  2  0  0  0  0
  5 28  1  0  0  0  0
  6 12  2  0  0  0  0
  7  8  1  0  0  0  0
  8  3  1  0  0  0  0
  9  4  1  0  0  0  0
 10  7  2  0  0  0  0
 11  5  1  0  0  0  0
 12 10  1  0  0  0  0
 14 18  1  6  0  0  0
 14 13  1  0  0  0  0
 14 17  1  0  0  0  0
 15 13  1  0  0  0  0
 15 16  1  0  0  0  0
 16  8  1  6  0  0  0
 17 16  1  0  0  0  0
 19 18  1  1  0  0  0
 19 20  1  0  0  0  0
 20 21  1  6  0  0  0
 20 22  1  0  0  0  0
 23 24  1  6  0  0  0
 23 19  1  0  0  0  0
 25 26  2  0  0  0  0
 26 23  1  0  0  0  0
 28 27  2  0  0  0  0
 29 28  1  0  0  0  0
M  END
>  <MODEL>
7

>  <REMARK>
 VINA RESULT:      -6.4      1.791      3.801
  Name = 
  7 active torsions:
  status: ('A' for Active; 'I' for Inactive)
    1  A    between atoms: C_2  and  C_14
    2  A    between atoms: C_5  and  C_17
    3  A    between atoms: C_7  and  C_14
    4  A    between atoms: C_7  and  C_24
    5  A    between atoms: C_8  and  C_13
    6  A    between atoms: C_13  and  C_14
    7  A    between atoms: C_19  and  N_23
                            x       y       z     vdW  Elec       q    Type
                         _______ _______ _______ _____ _____    ______ ____

>  <TORSDO>
F 7

$$$$
=
 OpenBabel11042416513D

 29 31  0  0  1  0  0  0  0  0999 V2000
  187.8040  176.0290  141.1420 N   0  0  0  0  0  0  0  0  0  0  0  0
  186.7860  178.5330  144.0540 N   0  0  0  0  0  1  0  0  0  0  0  0
  188.2030  176.2620  146.5430 C   0  0  0  0  0  3  0  0  0  0  0  0
  187.8800  176.5000  143.4590 C   0  0  0  0  0  0  0  0  0  0  0  0
  187.2570  176.9110  145.8730 C   0  0  0  0  0  0  0  0  0  0  0  0
  188.4790  174.8730  141.3190 C   0  0  0  0  0  3  0  0  0  0  0  0
  189.3620  175.0120  144.7370 C   0  0  0  0  0  3  0  0  0  0  0  0
  189.3950  175.7390  145.9630 N   0  0  0  0  0  0  0  0  0  0  0  0
  187.5210  176.8130  142.1800 N   0  0  0  0  0  0  0  0  0  0  0  0
  188.6750  175.3310  143.6370 C   0  0  0  0  0  0  0  0  0  0  0  0
  187.3960  177.2980  144.4410 C   0  0  0  0  0  0  0  0  0  0  0  0
  188.9130  174.5420  142.5570 N   0  0  0  0  0  0  0  0  0  0  0  0
  192.8070  174.9000  146.3760 O   0  0  0  0  0  0  0  0  0  0  0  0
  192.7570  176.3010  146.5050 C   0  0  2  0  0  3  0  0  0  0  0  0
  191.4820  174.4650  146.1970 C   0  0  0  0  0  2  0  0  0  0  0  0
  190.5470  175.4770  146.8240 C   0  0  1  0  0  3  0  0  0  0  0  0
  191.3890  176.7080  147.0030 C   0  0  0  0  0  2  0  0  0  0  0  0
  193.0380  176.9690  145.1640 C   0  0  0  0  0  2  0  0  0  0  0  0
  193.6860  175.9900  144.1830 C   0  0  1  0  0  3  0  0  0  0  0  0
  192.9300  175.9810  142.8530 C   0  0  2  0  0  3  0  0  0  0  0  0
  191.8420  176.8550  142.9120 O   0  0  0  0  0  1  0  0  0  0  0  0
  192.4450  174.6420  142.5620 N   0  0  0  0  0  1  0  0  0  0  0  0
  195.1820  176.2800  143.9770 C   0  0  2  0  0  3  0  0  0  0  0  0
  195.4750  176.3930  142.6170 O   0  0  0  0  0  1  0  0  0  0  0  0
  196.2830  174.1910  144.0400 O   0  0  0  0  0  0  0  0  0  0  0  0
  196.0630  175.2460  144.6120 C   0  0  0  0  0  3  0  0  0  0  0  0
  184.9020  176.8090  146.4040 N   0  0  0  0  0  2  0  0  0  0  0  0
  186.0560  177.3410  146.6400 C   0  0  0  0  0  0  0  0  0  0  0  0
  186.1650  178.3080  147.7750 C   0  0  0  0  0  1  0  0  0  0  0  0
  1  6  1  0  0  0  0
  1  9  2  0  0  0  0
  2 11  1  0  0  0  0
  4 10  1  0  0  0  0
  4 11  2  0  0  0  0
  5  3  2  0  0  0  0
  5 28  1  0  0  0  0
  6 12  2  0  0  0  0
  7  8  1  0  0  0  0
  8  3  1  0  0  0  0
  9  4  1  0  0  0  0
 10  7  2  0  0  0  0
 11  5  1  0  0  0  0
 12 10  1  0  0  0  0
 13 14  1  0  0  0  0
 14 18  1  6  0  0  0
 14 17  1  0  0  0  0
 15 13  1  0  0  0  0
 15 16  1  0  0  0  0
 16  8  1  6  0  0  0
 16 17  1  0  0  0  0
 19 18  1  1  0  0  0
 20 22  1  1  0  0  0
 20 21  1  0  0  0  0
 20 19  1  0  0  0  0
 23 24  1  6  0  0  0
 23 19  1  0  0  0  0
 23 26  1  0  0  0  0
 25 26  2  0  0  0  0
 27 28  2  0  0  0  0
 28 29  1  0  0  0  0
M  END
>  <MODEL>
8

>  <REMARK>
 VINA RESULT:      -6.3      1.466      3.623
  Name = 
  7 active torsions:
  status: ('A' for Active; 'I' for Inactive)
    1  A    between atoms: C_2  and  C_14
    2  A    between atoms: C_5  and  C_17
    3  A    between atoms: C_7  and  C_14
    4  A    between atoms: C_7  and  C_24
    5  A    between atoms: C_8  and  C_13
    6  A    between atoms: C_13  and  C_14
    7  A    between atoms: C_19  and  N_23
                            x       y       z     vdW  Elec       q    Type
                         _______ _______ _______ _____ _____    ______ ____

>  <TORSDO>
F 7

$$$$
=
 OpenBabel11042416513D

 29 31  0  0  1  0  0  0  0  0999 V2000
  190.7810  171.1800  142.5760 N   0  0  0  0  0  0  0  0  0  0  0  0
  193.7900  172.4460  144.8380 N   0  0  0  0  0  1  0  0  0  0  0  0
  191.9020  175.4480  145.7230 C   0  0  0  0  0  3  0  0  0  0  0  0
  191.5650  172.8310  144.0770 C   0  0  0  0  0  0  0  0  0  0  0  0
  192.8540  174.7240  145.1440 C   0  0  0  0  0  0  0  0  0  0  0  0
  189.5970  171.8150  142.4400 C   0  0  0  0  0  3  0  0  0  0  0  0
  189.8340  174.4040  144.8310 C   0  0  0  0  0  3  0  0  0  0  0  0
  190.5520  175.0260  145.8940 N   0  0  0  0  0  0  0  0  0  0  0  0
  191.7260  171.6740  143.3710 N   0  0  0  0  0  0  0  0  0  0  0  0
  190.2840  173.4520  144.0110 C   0  0  0  0  0  0  0  0  0  0  0  0
  192.6560  173.3100  144.7220 C   0  0  0  0  0  0  0  0  0  0  0  0
  189.3590  172.9340  143.1610 N   0  0  0  0  0  0  0  0  0  0  0  0
  188.9560  177.8860  147.2290 O   0  0  0  0  0  0  0  0  0  0  0  0
  187.9400  177.1810  146.5560 C   0  0  2  0  0  3  0  0  0  0  0  0
  190.1250  177.1140  147.1150 C   0  0  0  0  0  2  0  0  0  0  0  0
  189.7350  175.6640  146.9250 C   0  0  1  0  0  3  0  0  0  0  0  0
  188.2870  175.7110  146.5260 C   0  0  0  0  0  2  0  0  0  0  0  0
  187.7840  177.7040  145.1330 C   0  0  0  0  0  2  0  0  0  0  0  0
  186.5410  177.1170  144.4600 C   0  0  1  0  0  3  0  0  0  0  0  0
  185.3400  178.0470  144.6460 C   0  0  2  0  0  3  0  0  0  0  0  0
  184.4630  177.9200  143.5660 O   0  0  0  0  0  1  0  0  0  0  0  0
  185.7830  179.4280  144.7350 N   0  0  0  0  0  1  0  0  0  0  0  0
  186.7810  176.7980  142.9750 C   0  0  2  0  0  3  0  0  0  0  0  0
  186.7310  175.4200  142.7580 O   0  0  0  0  0  1  0  0  0  0  0  0
  188.0920  178.0670  141.4760 O   0  0  0  0  0  0  0  0  0  0  0  0
  188.0760  177.3560  142.4670 C   0  0  0  0  0  3  0  0  0  0  0  0
  194.5560  175.9010  143.8950 N   0  0  0  0  0  2  0  0  0  0  0  0
  194.1970  175.3520  145.0090 C   0  0  0  0  0  0  0  0  0  0  0  0
  195.1200  175.4710  146.1800 C   0  0  0  0  0  1  0  0  0  0  0  0
  1  9  2  0  0  0  0
  3  8  1  0  0  0  0
  4 11  2  0  0  0  0
  5  3  2  0  0  0  0
  6  1  1  0  0  0  0
  6 12  2  0  0  0  0
  7  8  1  0  0  0  0
  9  4  1  0  0  0  0
 10  4  1  0  0  0  0
 10  7  2  0  0  0  0
 11  2  1  0  0  0  0
 11  5  1  0  0  0  0
 12 10  1  0  0  0  0
 14 18  1  6  0  0  0
 14 13  1  0  0  0  0
 15 13  1  0  0  0  0
 16  8  1  6  0  0  0
 16 15  1  0  0  0  0
 17 14  1  0  0  0  0
 17 16  1  0  0  0  0
 19 20  1  0  0  0  0
 19 18  1  6  0  0  0
 20 21  1  6  0  0  0
 20 22  1  0  0  0  0
 23 24  1  1  0  0  0
 23 19  1  0  0  0  0
 25 26  2  0  0  0  0
 26 23  1  0  0  0  0
 27 28  2  0  0  0  0
 28  5  1  0  0  0  0
 28 29  1  0  0  0  0
M  END
>  <MODEL>
9

>  <REMARK>
 VINA RESULT:      -6.3      2.977      6.967
  Name = 
  7 active torsions:
  status: ('A' for Active; 'I' for Inactive)
    1  A    between atoms: C_2  and  C_14
    2  A    between atoms: C_5  and  C_17
    3  A    between atoms: C_7  and  C_14
    4  A    between atoms: C_7  and  C_24
    5  A    between atoms: C_8  and  C_13
    6  A    between atoms: C_13  and  C_14
    7  A    between atoms: C_19  and  N_23
                            x       y       z     vdW  Elec       q    Type
                         _______ _______ _______ _____ _____    ______ ____

>  <TORSDO>
F 7

$$$$
