=
 OpenBabel11042418383D

 37 41  0  0  1  0  0  0  0  0999 V2000
  190.9650  174.5130  142.5080 C   0  0  0  0  0  0  0  0  0  0  0  0
  187.7020  176.3820  145.5270 C   0  0  2  0  0  3  0  0  0  0  0  0
  190.5630  175.4880  144.6500 C   0  0  1  0  0  0  0  0  0  0  0  0
  190.6270  175.0200  146.1040 C   0  0  2  0  0  3  0  0  0  0  0  0
  189.6490  175.7210  147.0690 C   0  0  1  0  0  3  0  0  0  0  0  0
  188.7870  174.5720  141.4820 C   0  0  0  0  0  2  0  0  0  0  0  0
  192.0690  175.1680  146.5960 C   0  0  0  0  0  2  0  0  0  0  0  0
  189.2200  175.1450  143.9780 C   0  0  2  0  0  3  0  0  0  0  0  0
  188.5320  173.8790  139.0940 C   0  0  0  0  0  1  0  0  0  0  0  0
  190.8490  176.8440  144.5560 F   0  0  0  0  0  0  0  0  0  0  0  0
  189.3760  174.1080  140.2950 C   0  0  0  0  0  0  0  0  0  0  0  0
  191.5580  174.7560  143.8100 C   0  0  0  0  0  0  0  0  0  0  0  0
  189.6190  174.7920  142.5790 C   0  0  0  0  0  0  0  0  0  0  0  0
  192.7570  173.7660  141.2480 O   0  0  0  0  0  0  0  0  0  0  0  0
  188.7890  176.8610  146.4980 C   0  0  0  0  0  2  0  0  0  0  0  0
  190.7170  173.8470  140.2430 N   0  0  0  0  0  0  0  0  0  0  0  0
  188.2130  176.2800  144.0880 C   0  0  0  0  0  2  0  0  0  0  0  0
  191.5270  174.0290  141.3250 C   0  0  0  0  0  0  0  0  0  0  0  0
  192.6980  174.2470  144.2800 C   0  0  0  0  0  3  0  0  0  0  0  0
  193.0530  174.3320  145.7460 C   0  0  1  0  0  3  0  0  0  0  0  0
  188.8490  174.7750  147.7110 O   0  0  0  0  0  1  0  0  0  0  0  0
  185.5010  177.0070  146.5250 C   0  0  0  0  0  3  0  0  0  0  0  0
  185.2560  179.2110  144.8200 C   0  0  0  0  0  3  0  0  0  0  0  0
  186.5090  177.2800  145.5930 C   0  0  0  0  0  0  0  0  0  0  0  0
  184.3760  177.8320  146.6060 C   0  0  0  0  0  3  0  0  0  0  0  0
  186.3820  178.3870  144.7380 C   0  0  0  0  0  3  0  0  0  0  0  0
  184.2530  178.9330  145.7540 C   0  0  0  0  0  3  0  0  0  0  0  0
  194.4770  174.8430  145.9070 C   0  0  0  0  0  2  0  0  0  0  0  0
  195.2710  174.6410  144.6590 C   0  0  0  0  0  3  0  0  0  0  0  0
  195.9360  175.6490  144.1040 C   0  0  0  0  0  3  0  0  0  0  0  0
  196.7210  175.4780  142.8780 C   0  0  0  0  0  0  0  0  0  0  0  0
  197.9360  175.8140  142.8420 O   0  0  0  0  0  0  0  0  0  0  0  0
  196.0900  174.9230  141.7250 N   0  0  0  0  0  2  0  0  0  0  0  0
  195.7670  174.2270  138.9730 C   0  0  0  0  0  1  0  0  0  0  0  0
  197.9410  173.5750  140.3920 O   0  0  0  0  0  0  0  0  0  0  0  0
  196.9350  174.6800  140.2330 S   0  0  0  0  0  0  0  0  0  0  0  0
  197.6280  175.9500  139.8280 O   0  0  0  0  0  0  0  0  0  0  0  0
  1 13  2  0  0  0  0
  1 12  1  0  0  0  0
  2 24  1  6  0  0  0
  2 15  1  0  0  0  0
  3 10  1  6  0  0  0
  3  4  1  0  0  0  0
  4  7  1  1  0  0  0
  4  5  1  0  0  0  0
  5 21  1  6  0  0  0
  6 13  1  0  0  0  0
  8 17  1  6  0  0  0
  8  3  1  0  0  0  0
  9 11  1  0  0  0  0
 11  6  1  0  0  0  0
 12 19  2  0  0  0  0
 12  3  1  0  0  0  0
 13  8  1  0  0  0  0
 14 18  2  0  0  0  0
 15  5  1  0  0  0  0
 16 11  2  0  0  0  0
 16 18  1  0  0  0  0
 17  2  1  0  0  0  0
 18  1  1  0  0  0  0
 19 20  1  0  0  0  0
 20 28  1  6  0  0  0
 20  7  1  0  0  0  0
 22 25  1  0  0  0  0
 23 27  1  0  0  0  0
 24 22  2  0  0  0  0
 26 23  2  0  0  0  0
 26 24  1  0  0  0  0
 27 25  2  0  0  0  0
 29 28  1  0  0  0  0
 30 29  2  0  0  0  0
 31 30  1  0  0  0  0
 32 31  2  0  0  0  0
 33 31  1  0  0  0  0
 34 36  1  0  0  0  0
 36 35  2  0  0  0  0
 36 33  1  0  0  0  0
 37 36  2  0  0  0  0
M  END
>  <MODEL>
1

>  <REMARK>
 VINA RESULT:      -9.1      0.000      0.000
  Name = 
  5 active torsions:
  status: ('A' for Active; 'I' for Inactive)
    1  A    between atoms: C_3  and  C_20
    2  A    between atoms: C_6  and  C_22
    3  A    between atoms: C_8  and  C_26
    4  A    between atoms: C_26  and  C_34
    5  A    between atoms: S_30  and  N_32
                            x       y       z     vdW  Elec       q    Type
                         _______ _______ _______ _____ _____    ______ ____

>  <TORSDO>
F 5

$$$$
=
 OpenBabel11042418383D

 37 41  0  0  1  0  0  0  0  0999 V2000
  190.9180  174.1500  143.0530 C   0  0  0  0  0  0  0  0  0  0  0  0
  187.0710  176.6450  144.5450 C   0  0  2  0  0  3  0  0  0  0  0  0
  190.0660  175.7650  144.5920 C   0  0  1  0  0  0  0  0  0  0  0  0
  189.8390  175.8360  146.1020 C   0  0  2  0  0  3  0  0  0  0  0  0
  188.6710  176.7360  146.5540 C   0  0  1  0  0  3  0  0  0  0  0  0
  188.9960  173.6540  141.6890 C   0  0  0  0  0  2  0  0  0  0  0  0
  191.1460  176.2750  146.7670 C   0  0  0  0  0  2  0  0  0  0  0  0
  188.8970  175.0910  143.8490 C   0  0  2  0  0  3  0  0  0  0  0  0
  189.2500  172.1580  139.7020 C   0  0  0  0  0  1  0  0  0  0  0  0
  190.3400  177.0250  144.0750 F   0  0  0  0  0  0  0  0  0  0  0  0
  189.8250  172.8630  140.8760 C   0  0  0  0  0  0  0  0  0  0  0  0
  191.2260  174.8810  144.2680 C   0  0  0  0  0  0  0  0  0  0  0  0
  189.5810  174.3140  142.7680 C   0  0  0  0  0  0  0  0  0  0  0  0
  192.9430  173.1780  142.4980 O   0  0  0  0  0  0  0  0  0  0  0  0
  187.9260  177.5260  145.4640 C   0  0  0  0  0  2  0  0  0  0  0  0
  191.1530  172.7220  141.1710 N   0  0  0  0  0  0  0  0  0  0  0  0
  187.8680  176.0980  143.3590 C   0  0  0  0  0  2  0  0  0  0  0  0
  191.7200  173.3400  142.2460 C   0  0  0  0  0  0  0  0  0  0  0  0
  192.2550  174.6700  145.0920 C   0  0  0  0  0  3  0  0  0  0  0  0
  192.2980  175.2880  146.4700 C   0  0  1  0  0  3  0  0  0  0  0  0
  187.7730  176.0030  147.3300 O   0  0  0  0  0  1  0  0  0  0  0  0
  185.5050  177.3080  142.7170 C   0  0  0  0  0  3  0  0  0  0  0  0
  183.9980  178.8900  144.4620 C   0  0  0  0  0  3  0  0  0  0  0  0
  185.8730  177.3990  144.0640 C   0  0  0  0  0  0  0  0  0  0  0  0
  184.3890  178.0030  142.2440 C   0  0  0  0  0  3  0  0  0  0  0  0
  185.1140  178.1950  144.9380 C   0  0  0  0  0  3  0  0  0  0  0  0
  183.6360  178.7940  143.1160 C   0  0  0  0  0  3  0  0  0  0  0  0
  193.6500  175.9500  146.6990 C   0  0  0  0  0  2  0  0  0  0  0  0
  194.6100  175.6180  145.6050 C   0  0  0  0  0  3  0  0  0  0  0  0
  194.8890  176.5020  144.6530 C   0  0  0  0  0  3  0  0  0  0  0  0
  195.8260  176.2010  143.5670 C   0  0  0  0  0  0  0  0  0  0  0  0
  196.8680  176.8940  143.4070 O   0  0  0  0  0  0  0  0  0  0  0  0
  195.5430  175.1100  142.6920 N   0  0  0  0  0  2  0  0  0  0  0  0
  196.7670  176.0690  140.2950 C   0  0  0  0  0  1  0  0  0  0  0  0
  195.9970  173.5250  140.6180 O   0  0  0  0  0  0  0  0  0  0  0  0
  196.5900  174.6750  141.3830 S   0  0  0  0  0  0  0  0  0  0  0  0
  197.9410  174.2930  141.9170 O   0  0  0  0  0  0  0  0  0  0  0  0
  1 12  1  0  0  0  0
  2 24  1  6  0  0  0
  2 15  1  0  0  0  0
  3 10  1  6  0  0  0
  3  4  1  0  0  0  0
  4  5  1  0  0  0  0
  4  7  1  1  0  0  0
  5 21  1  6  0  0  0
  6 13  1  0  0  0  0
  8 17  1  6  0  0  0
  8  3  1  0  0  0  0
  9 11  1  0  0  0  0
 11 16  2  0  0  0  0
 11  6  1  0  0  0  0
 12  3  1  0  0  0  0
 12 19  2  0  0  0  0
 13  1  2  0  0  0  0
 13  8  1  0  0  0  0
 15  5  1  0  0  0  0
 16 18  1  0  0  0  0
 17  2  1  0  0  0  0
 18 14  2  0  0  0  0
 18  1  1  0  0  0  0
 19 20  1  0  0  0  0
 20 28  1  6  0  0  0
 20  7  1  0  0  0  0
 22 24  1  0  0  0  0
 23 26  1  0  0  0  0
 24 26  2  0  0  0  0
 25 22  2  0  0  0  0
 25 27  1  0  0  0  0
 27 23  2  0  0  0  0
 29 28  1  0  0  0  0
 30 29  2  0  0  0  0
 31 30  1  0  0  0  0
 32 31  2  0  0  0  0
 33 31  1  0  0  0  0
 34 36  1  0  0  0  0
 35 36  2  0  0  0  0
 36 37  2  0  0  0  0
 36 33  1  0  0  0  0
M  END
>  <MODEL>
2

>  <REMARK>
 VINA RESULT:      -8.4      1.416      1.716
  Name = 
  5 active torsions:
  status: ('A' for Active; 'I' for Inactive)
    1  A    between atoms: C_3  and  C_20
    2  A    between atoms: C_6  and  C_22
    3  A    between atoms: C_8  and  C_26
    4  A    between atoms: C_26  and  C_34
    5  A    between atoms: S_30  and  N_32
                            x       y       z     vdW  Elec       q    Type
                         _______ _______ _______ _____ _____    ______ ____

>  <TORSDO>
F 5

$$$$
=
 OpenBabel11042418383D

 37 41  0  0  1  0  0  0  0  0999 V2000
  191.8830  174.9480  143.5720 C   0  0  0  0  0  0  0  0  0  0  0  0
  187.5940  177.0530  144.2240 C   0  0  2  0  0  3  0  0  0  0  0  0
  189.5880  175.0350  142.9190 C   0  0  1  0  0  0  0  0  0  0  0  0
  188.8140  175.4190  141.6580 C   0  0  2  0  0  3  0  0  0  0  0  0
  187.3980  175.9820  141.8960 C   0  0  1  0  0  3  0  0  0  0  0  0
  191.9990  176.6010  145.3200 C   0  0  0  0  0  2  0  0  0  0  0  0
  188.7610  174.2010  140.7330 C   0  0  0  0  0  2  0  0  0  0  0  0
  189.9210  176.2520  143.8020 C   0  0  2  0  0  3  0  0  0  0  0  0
  194.1210  176.8800  146.6120 C   0  0  0  0  0  1  0  0  0  0  0  0
  188.9090  174.0570  143.6350 F   0  0  0  0  0  0  0  0  0  0  0  0
  193.3260  176.2070  145.5520 C   0  0  0  0  0  0  0  0  0  0  0  0
  190.9350  174.4900  142.5740 C   0  0  0  0  0  0  0  0  0  0  0  0
  191.2840  175.9300  144.3290 C   0  0  0  0  0  0  0  0  0  0  0  0
  193.7730  173.6930  143.1150 O   0  0  0  0  0  0  0  0  0  0  0  0
  186.8850  176.0140  143.3460 C   0  0  0  0  0  2  0  0  0  0  0  0
  193.8990  175.2220  144.7950 N   0  0  0  0  0  0  0  0  0  0  0  0
  188.8650  176.4980  144.8700 C   0  0  0  0  0  2  0  0  0  0  0  0
  193.2120  174.5870  143.8030 C   0  0  0  0  0  0  0  0  0  0  0  0
  191.2160  173.8730  141.4240 C   0  0  0  0  0  3  0  0  0  0  0  0
  190.1770  173.7200  140.3390 C   0  0  1  0  0  3  0  0  0  0  0  0
  187.2770  177.2400  141.3040 O   0  0  0  0  0  1  0  0  0  0  0  0
  186.7990  177.1260  146.5890 C   0  0  0  0  0  3  0  0  0  0  0  0
  184.8000  178.9760  145.9530 C   0  0  0  0  0  3  0  0  0  0  0  0
  186.6630  177.5750  145.2710 C   0  0  0  0  0  0  0  0  0  0  0  0
  185.9420  177.6000  147.5860 C   0  0  0  0  0  3  0  0  0  0  0  0
  185.6580  178.5040  144.9550 C   0  0  0  0  0  3  0  0  0  0  0  0
  184.9420  178.5240  147.2680 C   0  0  0  0  0  3  0  0  0  0  0  0
  190.1430  172.2780  139.8520 C   0  0  0  0  0  2  0  0  0  0  0  0
  191.1010  171.4250  140.6150 C   0  0  0  0  0  3  0  0  0  0  0  0
  190.6640  170.5380  141.5030 C   0  0  0  0  0  3  0  0  0  0  0  0
  191.5830  169.6890  142.2670 C   0  0  0  0  0  0  0  0  0  0  0  0
  191.6330  168.4470  142.0580 O   0  0  0  0  0  0  0  0  0  0  0  0
  192.4240  170.2910  143.2510 N   0  0  0  0  0  2  0  0  0  0  0  0
  194.3980  170.4670  145.3090 C   0  0  0  0  0  1  0  0  0  0  0  0
  194.5430  168.7010  143.3020 O   0  0  0  0  0  0  0  0  0  0  0  0
  193.5430  169.3720  144.2010 S   0  0  0  0  0  0  0  0  0  0  0  0
  192.8020  168.3410  145.0040 O   0  0  0  0  0  0  0  0  0  0  0  0
  1 18  1  0  0  0  0
  1 13  2  0  0  0  0
  2 17  1  0  0  0  0
  2 24  1  1  0  0  0
  3 10  1  1  0  0  0
  3  8  1  0  0  0  0
  4  7  1  6  0  0  0
  4  5  1  0  0  0  0
  4  3  1  0  0  0  0
  5 21  1  1  0  0  0
  5 15  1  0  0  0  0
  6 11  1  0  0  0  0
  8 13  1  0  0  0  0
  8 17  1  1  0  0  0
 11  9  1  0  0  0  0
 12  3  1  0  0  0  0
 12  1  1  0  0  0  0
 13  6  1  0  0  0  0
 14 18  2  0  0  0  0
 15  2  1  0  0  0  0
 16 11  2  0  0  0  0
 18 16  1  0  0  0  0
 19 12  2  0  0  0  0
 20 28  1  1  0  0  0
 20  7  1  0  0  0  0
 20 19  1  0  0  0  0
 22 25  1  0  0  0  0
 23 27  1  0  0  0  0
 24 22  2  0  0  0  0
 26 24  1  0  0  0  0
 26 23  2  0  0  0  0
 27 25  2  0  0  0  0
 28 29  1  0  0  0  0
 29 30  2  0  0  0  0
 30 31  1  0  0  0  0
 31 33  1  0  0  0  0
 32 31  2  0  0  0  0
 33 36  1  0  0  0  0
 35 36  2  0  0  0  0
 36 37  2  0  0  0  0
 36 34  1  0  0  0  0
M  END
>  <MODEL>
3

>  <REMARK>
 VINA RESULT:      -8.4      3.087      5.451
  Name = 
  5 active torsions:
  status: ('A' for Active; 'I' for Inactive)
    1  A    between atoms: C_3  and  C_20
    2  A    between atoms: C_6  and  C_22
    3  A    between atoms: C_8  and  C_26
    4  A    between atoms: C_26  and  C_34
    5  A    between atoms: S_30  and  N_32
                            x       y       z     vdW  Elec       q    Type
                         _______ _______ _______ _____ _____    ______ ____

>  <TORSDO>
F 5

$$$$
=
 OpenBabel11042418383D

 37 41  0  0  1  0  0  0  0  0999 V2000
  193.2060  175.7730  144.6270 C   0  0  0  0  0  0  0  0  0  0  0  0
  191.2870  173.4640  140.8540 C   0  0  2  0  0  3  0  0  0  0  0  0
  191.2640  174.7330  143.7070 C   0  0  1  0  0  0  0  0  0  0  0  0
  190.4260  173.4920  144.0170 C   0  0  2  0  0  3  0  0  0  0  0  0
  189.7300  172.8440  142.8030 C   0  0  1  0  0  3  0  0  0  0  0  0
  194.8060  175.5830  142.8370 C   0  0  0  0  0  2  0  0  0  0  0  0
  189.4020  173.8570  145.0940 C   0  0  0  0  0  2  0  0  0  0  0  0
  192.4870  174.4160  142.8260 C   0  0  2  0  0  3  0  0  0  0  0  0
  197.0410  176.6820  143.0620 C   0  0  0  0  0  1  0  0  0  0  0  0
  190.4770  175.7320  143.1470 F   0  0  0  0  0  0  0  0  0  0  0  0
  195.6940  176.3600  143.5990 C   0  0  0  0  0  0  0  0  0  0  0  0
  191.8790  175.2860  144.9520 C   0  0  0  0  0  0  0  0  0  0  0  0
  193.5460  175.3230  143.3710 C   0  0  0  0  0  0  0  0  0  0  0  0
  193.8160  176.9390  146.5310 O   0  0  0  0  0  0  0  0  0  0  0  0
  189.8740  173.5520  141.4450 C   0  0  0  0  0  2  0  0  0  0  0  0
  195.3330  176.8070  144.8410 N   0  0  0  0  0  0  0  0  0  0  0  0
  192.1930  174.5960  141.3440 C   0  0  0  0  0  2  0  0  0  0  0  0
  194.1120  176.5240  145.3790 C   0  0  0  0  0  0  0  0  0  0  0  0
  191.3520  175.1440  146.1690 C   0  0  0  0  0  3  0  0  0  0  0  0
  190.0860  174.3490  146.3910 C   0  0  1  0  0  3  0  0  0  0  0  0
  190.0990  171.5020  142.6990 O   0  0  0  0  0  1  0  0  0  0  0  0
  189.9860  173.5430  138.7250 C   0  0  0  0  0  3  0  0  0  0  0  0
  192.3170  173.3440  137.1920 C   0  0  0  0  0  3  0  0  0  0  0  0
  191.2300  173.4530  139.3600 C   0  0  0  0  0  0  0  0  0  0  0  0
  189.9080  173.5350  137.3300 C   0  0  0  0  0  3  0  0  0  0  0  0
  192.3980  173.3530  138.5880 C   0  0  0  0  0  3  0  0  0  0  0  0
  191.0720  173.4350  136.5630 C   0  0  0  0  0  3  0  0  0  0  0  0
  189.1140  175.1490  147.2460 C   0  0  0  0  0  2  0  0  0  0  0  0
  188.2440  176.0240  146.4050 C   0  0  0  0  0  3  0  0  0  0  0  0
  187.1480  176.5800  146.9100 C   0  0  0  0  0  3  0  0  0  0  0  0
  186.2750  177.4410  146.1060 C   0  0  0  0  0  0  0  0  0  0  0  0
  185.2760  178.0070  146.6260 O   0  0  0  0  0  0  0  0  0  0  0  0
  186.5750  177.6310  144.7240 N   0  0  0  0  0  2  0  0  0  0  0  0
  186.2780  178.5920  142.0490 C   0  0  0  0  0  1  0  0  0  0  0  0
  185.6210  180.0460  144.1990 O   0  0  0  0  0  0  0  0  0  0  0  0
  185.6060  178.6310  143.6940 S   0  0  0  0  0  0  0  0  0  0  0  0
  184.1970  178.1130  143.6620 O   0  0  0  0  0  0  0  0  0  0  0  0
  1 12  1  0  0  0  0
  1 18  1  0  0  0  0
  2 24  1  6  0  0  0
  2 17  1  0  0  0  0
  2 15  1  0  0  0  0
  3 10  1  6  0  0  0
  3  4  1  0  0  0  0
  3 12  1  0  0  0  0
  4  7  1  1  0  0  0
  5 21  1  6  0  0  0
  5  4  1  0  0  0  0
  6 13  1  0  0  0  0
  6 11  1  0  0  0  0
  7 20  1  0  0  0  0
  8 17  1  6  0  0  0
  8 13  1  0  0  0  0
  8  3  1  0  0  0  0
  9 11  1  0  0  0  0
 11 16  2  0  0  0  0
 12 19  2  0  0  0  0
 13  1  2  0  0  0  0
 15  5  1  0  0  0  0
 16 18  1  0  0  0  0
 18 14  2  0  0  0  0
 19 20  1  0  0  0  0
 20 28  1  6  0  0  0
 22 24  1  0  0  0  0
 23 26  1  0  0  0  0
 25 22  2  0  0  0  0
 26 24  2  0  0  0  0
 27 23  2  0  0  0  0
 27 25  1  0  0  0  0
 29 30  2  0  0  0  0
 29 28  1  0  0  0  0
 31 32  2  0  0  0  0
 31 30  1  0  0  0  0
 33 31  1  0  0  0  0
 34 36  1  0  0  0  0
 36 35  2  0  0  0  0
 36 33  1  0  0  0  0
 37 36  2  0  0  0  0
M  END
>  <MODEL>
4

>  <REMARK>
 VINA RESULT:      -8.2      3.657      8.272
  Name = 
  5 active torsions:
  status: ('A' for Active; 'I' for Inactive)
    1  A    between atoms: C_3  and  C_20
    2  A    between atoms: C_6  and  C_22
    3  A    between atoms: C_8  and  C_26
    4  A    between atoms: C_26  and  C_34
    5  A    between atoms: S_30  and  N_32
                            x       y       z     vdW  Elec       q    Type
                         _______ _______ _______ _____ _____    ______ ____

>  <TORSDO>
F 5

$$$$
=
 OpenBabel11042418383D

 37 41  0  0  1  0  0  0  0  0999 V2000
  193.4650  175.7780  144.2310 C   0  0  0  0  0  0  0  0  0  0  0  0
  190.5870  173.1300  141.4090 C   0  0  2  0  0  3  0  0  0  0  0  0
  191.2660  174.9160  143.8790 C   0  0  1  0  0  0  0  0  0  0  0  0
  190.3480  173.9150  144.5820 C   0  0  2  0  0  3  0  0  0  0  0  0
  189.3580  173.1680  143.6660 C   0  0  1  0  0  3  0  0  0  0  0  0
  194.6610  174.9800  142.2990 C   0  0  0  0  0  2  0  0  0  0  0  0
  189.6010  174.6480  145.6990 C   0  0  0  0  0  2  0  0  0  0  0  0
  192.2500  174.2350  142.9090 C   0  0  2  0  0  3  0  0  0  0  0  0
  197.0210  175.7140  141.9230 C   0  0  0  0  0  1  0  0  0  0  0  0
  190.5240  175.9030  143.2420 F   0  0  0  0  0  0  0  0  0  0  0  0
  195.7690  175.7320  142.7220 C   0  0  0  0  0  0  0  0  0  0  0  0
  192.1700  175.5900  144.8580 C   0  0  0  0  0  0  0  0  0  0  0  0
  193.5010  175.0410  143.0680 C   0  0  0  0  0  0  0  0  0  0  0  0
  194.5670  177.1740  145.7100 O   0  0  0  0  0  0  0  0  0  0  0  0
  189.3340  173.5650  142.1790 C   0  0  0  0  0  2  0  0  0  0  0  0
  195.7090  176.4650  143.8750 N   0  0  0  0  0  0  0  0  0  0  0  0
  191.7080  174.1680  141.4890 C   0  0  0  0  0  2  0  0  0  0  0  0
  194.5850  176.4990  144.6470 C   0  0  0  0  0  0  0  0  0  0  0  0
  191.8670  175.7780  146.1440 C   0  0  0  0  0  3  0  0  0  0  0  0
  190.5740  175.2620  146.7310 C   0  0  1  0  0  3  0  0  0  0  0  0
  189.5240  171.7900  143.8040 O   0  0  0  0  0  1  0  0  0  0  0  0
  190.6070  171.6000  139.4360 C   0  0  0  0  0  3  0  0  0  0  0  0
  189.2780  173.4830  137.8520 C   0  0  0  0  0  3  0  0  0  0  0  0
  190.2490  172.8370  139.9820 C   0  0  0  0  0  0  0  0  0  0  0  0
  190.3010  171.3030  138.1050 C   0  0  0  0  0  3  0  0  0  0  0  0
  189.5820  173.7810  139.1840 C   0  0  0  0  0  3  0  0  0  0  0  0
  189.6370  172.2450  137.3130 C   0  0  0  0  0  3  0  0  0  0  0  0
  189.8920  176.3640  147.5300 C   0  0  0  0  0  2  0  0  0  0  0  0
  188.9610  177.1590  146.6750 C   0  0  0  0  0  3  0  0  0  0  0  0
  187.6500  177.1310  146.8880 C   0  0  0  0  0  3  0  0  0  0  0  0
  186.7140  177.9000  146.0620 C   0  0  0  0  0  0  0  0  0  0  0  0
  185.7310  178.4910  146.5850 O   0  0  0  0  0  0  0  0  0  0  0  0
  186.9330  177.9710  144.6530 N   0  0  0  0  0  2  0  0  0  0  0  0
  184.3780  177.9420  143.3750 C   0  0  0  0  0  1  0  0  0  0  0  0
  186.5490  179.0400  142.2600 O   0  0  0  0  0  0  0  0  0  0  0  0
  185.8860  178.8560  143.5960 S   0  0  0  0  0  0  0  0  0  0  0  0
  185.5670  180.1950  144.1980 O   0  0  0  0  0  0  0  0  0  0  0  0
  1 18  1  0  0  0  0
  1 12  1  0  0  0  0
  2 24  1  6  0  0  0
  2 17  1  0  0  0  0
  2 15  1  0  0  0  0
  3 10  1  6  0  0  0
  3  4  1  0  0  0  0
  3 12  1  0  0  0  0
  4  7  1  1  0  0  0
  5 21  1  6  0  0  0
  5  4  1  0  0  0  0
  6 11  1  0  0  0  0
  6 13  1  0  0  0  0
  7 20  1  0  0  0  0
  8 17  1  6  0  0  0
  8 13  1  0  0  0  0
  8  3  1  0  0  0  0
  9 11  1  0  0  0  0
 11 16  2  0  0  0  0
 12 19  2  0  0  0  0
 13  1  2  0  0  0  0
 15  5  1  0  0  0  0
 16 18  1  0  0  0  0
 18 14  2  0  0  0  0
 19 20  1  0  0  0  0
 20 28  1  6  0  0  0
 22 24  1  0  0  0  0
 23 26  1  0  0  0  0
 25 22  2  0  0  0  0
 26 24  2  0  0  0  0
 27 23  2  0  0  0  0
 27 25  1  0  0  0  0
 29 30  2  0  0  0  0
 29 28  1  0  0  0  0
 31 32  2  0  0  0  0
 31 30  1  0  0  0  0
 33 31  1  0  0  0  0
 34 36  1  0  0  0  0
 35 36  2  0  0  0  0
 36 37  2  0  0  0  0
 36 33  1  0  0  0  0
M  END
>  <MODEL>
5

>  <REMARK>
 VINA RESULT:      -7.9      3.509      7.890
  Name = 
  5 active torsions:
  status: ('A' for Active; 'I' for Inactive)
    1  A    between atoms: C_3  and  C_20
    2  A    between atoms: C_6  and  C_22
    3  A    between atoms: C_8  and  C_26
    4  A    between atoms: C_26  and  C_34
    5  A    between atoms: S_30  and  N_32
                            x       y       z     vdW  Elec       q    Type
                         _______ _______ _______ _____ _____    ______ ____

>  <TORSDO>
F 5

$$$$
=
 OpenBabel11042418383D

 37 41  0  0  1  0  0  0  0  0999 V2000
  191.7380  174.9660  143.4880 C   0  0  0  0  0  0  0  0  0  0  0  0
  187.4960  177.1350  144.2320 C   0  0  2  0  0  3  0  0  0  0  0  0
  189.4330  175.0930  142.8780 C   0  0  1  0  0  0  0  0  0  0  0  0
  188.6430  175.4970  141.6340 C   0  0  2  0  0  3  0  0  0  0  0  0
  187.2400  176.0810  141.9010 C   0  0  1  0  0  3  0  0  0  0  0  0
  191.9130  176.6070  145.2420 C   0  0  0  0  0  2  0  0  0  0  0  0
  188.5530  174.2850  140.7040 C   0  0  0  0  0  2  0  0  0  0  0  0
  189.8020  176.3000  143.7620 C   0  0  2  0  0  3  0  0  0  0  0  0
  194.0630  176.8450  146.4960 C   0  0  0  0  0  1  0  0  0  0  0  0
  188.7530  174.1210  143.6010 F   0  0  0  0  0  0  0  0  0  0  0  0
  193.2390  176.1910  145.4470 C   0  0  0  0  0  0  0  0  0  0  0  0
  190.7650  174.5300  142.5040 C   0  0  0  0  0  0  0  0  0  0  0  0
  191.1700  175.9530  144.2610 C   0  0  0  0  0  0  0  0  0  0  0  0
  193.6000  173.6850  142.9890 O   0  0  0  0  0  0  0  0  0  0  0  0
  186.7550  176.1120  143.3610 C   0  0  0  0  0  2  0  0  0  0  0  0
  193.7810  175.2010  144.6740 N   0  0  0  0  0  0  0  0  0  0  0  0
  188.7700  176.5560  144.8500 C   0  0  0  0  0  2  0  0  0  0  0  0
  193.0660  174.5830  143.6920 C   0  0  0  0  0  0  0  0  0  0  0  0
  191.0150  173.9140  141.3470 C   0  0  0  0  0  3  0  0  0  0  0  0
  189.9530  173.7850  140.2800 C   0  0  1  0  0  3  0  0  0  0  0  0
  187.1280  177.3440  141.3190 O   0  0  0  0  0  1  0  0  0  0  0  0
  185.3000  178.0730  144.9570 C   0  0  0  0  0  3  0  0  0  0  0  0
  186.1580  178.2600  147.6130 C   0  0  0  0  0  3  0  0  0  0  0  0
  186.5940  177.6650  145.2990 C   0  0  0  0  0  0  0  0  0  0  0  0
  184.4370  178.5710  145.9380 C   0  0  0  0  0  3  0  0  0  0  0  0
  187.0220  177.7610  146.6340 C   0  0  0  0  0  3  0  0  0  0  0  0
  184.8660  178.6650  147.2650 C   0  0  0  0  0  3  0  0  0  0  0  0
  189.8880  172.3460  139.7860 C   0  0  0  0  0  2  0  0  0  0  0  0
  190.7590  172.1410  138.5920 C   0  0  0  0  0  3  0  0  0  0  0  0
  191.2150  173.1770  137.8960 C   0  0  0  0  0  3  0  0  0  0  0  0
  192.0710  173.0040  136.7180 C   0  0  0  0  0  0  0  0  0  0  0  0
  191.5650  172.8020  135.5810 O   0  0  0  0  0  0  0  0  0  0  0  0
  193.4870  173.0680  136.8780 N   0  0  0  0  0  2  0  0  0  0  0  0
  196.2480  173.0300  136.1400 C   0  0  0  0  0  1  0  0  0  0  0  0
  194.3220  173.9460  134.5220 O   0  0  0  0  0  0  0  0  0  0  0  0
  194.5800  172.8780  135.5480 S   0  0  0  0  0  0  0  0  0  0  0  0
  194.3990  171.5200  134.9300 O   0  0  0  0  0  0  0  0  0  0  0  0
  1 18  1  0  0  0  0
  1 13  2  0  0  0  0
  2 17  1  0  0  0  0
  2 24  1  1  0  0  0
  3 10  1  1  0  0  0
  3  8  1  0  0  0  0
  4  7  1  6  0  0  0
  4  5  1  0  0  0  0
  4  3  1  0  0  0  0
  5 21  1  1  0  0  0
  5 15  1  0  0  0  0
  6 11  1  0  0  0  0
  8 13  1  0  0  0  0
  8 17  1  1  0  0  0
 11  9  1  0  0  0  0
 12  3  1  0  0  0  0
 12  1  1  0  0  0  0
 13  6  1  0  0  0  0
 14 18  2  0  0  0  0
 15  2  1  0  0  0  0
 16 11  2  0  0  0  0
 18 16  1  0  0  0  0
 19 12  2  0  0  0  0
 20 28  1  1  0  0  0
 20  7  1  0  0  0  0
 20 19  1  0  0  0  0
 22 24  2  0  0  0  0
 22 25  1  0  0  0  0
 24 26  1  0  0  0  0
 25 27  2  0  0  0  0
 26 23  2  0  0  0  0
 27 23  1  0  0  0  0
 29 28  1  0  0  0  0
 30 29  2  0  0  0  0
 31 33  1  0  0  0  0
 31 30  1  0  0  0  0
 32 31  2  0  0  0  0
 35 36  2  0  0  0  0
 36 34  1  0  0  0  0
 36 33  1  0  0  0  0
 37 36  2  0  0  0  0
M  END
>  <MODEL>
6

>  <REMARK>
 VINA RESULT:      -7.6      3.005      5.264
  Name = 
  5 active torsions:
  status: ('A' for Active; 'I' for Inactive)
    1  A    between atoms: C_3  and  C_20
    2  A    between atoms: C_6  and  C_22
    3  A    between atoms: C_8  and  C_26
    4  A    between atoms: C_26  and  C_34
    5  A    between atoms: S_30  and  N_32
                            x       y       z     vdW  Elec       q    Type
                         _______ _______ _______ _____ _____    ______ ____

>  <TORSDO>
F 5

$$$$
=
 OpenBabel11042418383D

 37 41  0  0  1  0  0  0  0  0999 V2000
  190.6650  174.4490  142.7850 C   0  0  0  0  0  0  0  0  0  0  0  0
  195.0160  172.7960  144.0430 C   0  0  2  0  0  3  0  0  0  0  0  0
  192.3010  174.2650  144.5140 C   0  0  1  0  0  0  0  0  0  0  0  0
  193.2040  175.2290  145.2840 C   0  0  2  0  0  3  0  0  0  0  0  0
  194.5400  174.6350  145.7750 C   0  0  1  0  0  3  0  0  0  0  0  0
  191.6760  173.2330  140.9670 C   0  0  0  0  0  2  0  0  0  0  0  0
  192.4070  175.8030  146.4580 C   0  0  0  0  0  2  0  0  0  0  0  0
  192.9160  173.8250  143.1710 C   0  0  2  0  0  3  0  0  0  0  0  0
  190.3730  172.8480  138.8690 C   0  0  0  0  0  1  0  0  0  0  0  0
  191.9610  173.1720  145.3010 F   0  0  0  0  0  0  0  0  0  0  0  0
  190.4850  173.4020  140.2430 C   0  0  0  0  0  0  0  0  0  0  0  0
  191.0330  174.9370  144.1000 C   0  0  0  0  0  0  0  0  0  0  0  0
  191.7300  173.7520  142.2600 C   0  0  0  0  0  0  0  0  0  0  0  0
  188.5180  175.2650  142.5040 O   0  0  0  0  0  0  0  0  0  0  0  0
  194.7830  173.1370  145.5210 C   0  0  0  0  0  2  0  0  0  0  0  0
  189.4350  174.0890  140.7860 N   0  0  0  0  0  0  0  0  0  0  0  0
  193.7080  172.5330  143.2950 C   0  0  0  0  0  2  0  0  0  0  0  0
  189.4980  174.6260  142.0380 C   0  0  0  0  0  0  0  0  0  0  0  0
  190.4820  175.9580  144.7600 C   0  0  0  0  0  3  0  0  0  0  0  0
  191.1450  176.5570  145.9780 C   0  0  1  0  0  3  0  0  0  0  0  0
  195.6070  175.3940  145.2930 O   0  0  0  0  0  1  0  0  0  0  0  0
  197.0680  171.5520  144.7320 C   0  0  0  0  0  3  0  0  0  0  0  0
  196.5510  169.5070  142.8950 C   0  0  0  0  0  3  0  0  0  0  0  0
  195.9340  171.6220  143.9160 C   0  0  0  0  0  0  0  0  0  0  0  0
  197.9400  170.4640  144.6320 C   0  0  0  0  0  3  0  0  0  0  0  0
  195.6770  170.5940  142.9950 C   0  0  0  0  0  3  0  0  0  0  0  0
  197.6830  169.4430  143.7130 C   0  0  0  0  0  3  0  0  0  0  0  0
  190.1330  176.6920  147.1070 C   0  0  0  0  0  2  0  0  0  0  0  0
  188.8460  177.2670  146.6160 C   0  0  0  0  0  3  0  0  0  0  0  0
  187.7620  176.5070  146.4990 C   0  0  0  0  0  3  0  0  0  0  0  0
  186.4860  177.0460  146.0180 C   0  0  0  0  0  0  0  0  0  0  0  0
  185.4080  176.4250  146.2240 O   0  0  0  0  0  0  0  0  0  0  0  0
  186.4820  178.2870  145.3130 N   0  0  0  0  0  2  0  0  0  0  0  0
  184.4470  178.0610  143.3200 C   0  0  0  0  0  1  0  0  0  0  0  0
  185.3000  180.4150  144.2670 O   0  0  0  0  0  0  0  0  0  0  0  0
  185.0260  179.0050  144.7090 S   0  0  0  0  0  0  0  0  0  0  0  0
  183.9740  179.0000  145.7800 O   0  0  0  0  0  0  0  0  0  0  0  0
  1 12  1  0  0  0  0
  2 24  1  1  0  0  0
  2 15  1  0  0  0  0
  3  4  1  0  0  0  0
  3 10  1  1  0  0  0
  4  5  1  0  0  0  0
  4  7  1  1  0  0  0
  5 21  1  6  0  0  0
  6 13  1  0  0  0  0
  8 17  1  1  0  0  0
  8  3  1  0  0  0  0
  9 11  1  0  0  0  0
 11 16  2  0  0  0  0
 11  6  1  0  0  0  0
 12  3  1  0  0  0  0
 12 19  2  0  0  0  0
 13  1  2  0  0  0  0
 13  8  1  0  0  0  0
 15  5  1  0  0  0  0
 16 18  1  0  0  0  0
 17  2  1  0  0  0  0
 18 14  2  0  0  0  0
 18  1  1  0  0  0  0
 19 20  1  0  0  0  0
 20  7  1  0  0  0  0
 20 28  1  1  0  0  0
 23 26  2  0  0  0  0
 23 27  1  0  0  0  0
 24 22  2  0  0  0  0
 25 22  1  0  0  0  0
 26 24  1  0  0  0  0
 27 25  2  0  0  0  0
 29 28  1  0  0  0  0
 30 29  2  0  0  0  0
 31 32  2  0  0  0  0
 31 30  1  0  0  0  0
 33 31  1  0  0  0  0
 34 36  1  0  0  0  0
 35 36  2  0  0  0  0
 36 33  1  0  0  0  0
 36 37  2  0  0  0  0
M  END
>  <MODEL>
7

>  <REMARK>
 VINA RESULT:      -7.5      3.954      8.829
  Name = 
  5 active torsions:
  status: ('A' for Active; 'I' for Inactive)
    1  A    between atoms: C_3  and  C_20
    2  A    between atoms: C_6  and  C_22
    3  A    between atoms: C_8  and  C_26
    4  A    between atoms: C_26  and  C_34
    5  A    between atoms: S_30  and  N_32
                            x       y       z     vdW  Elec       q    Type
                         _______ _______ _______ _____ _____    ______ ____

>  <TORSDO>
F 5

$$$$
=
 OpenBabel11042418383D

 37 41  0  0  1  0  0  0  0  0999 V2000
  189.7760  174.2120  141.2260 C   0  0  0  0  0  0  0  0  0  0  0  0
  193.3810  174.5860  144.4070 C   0  0  2  0  0  3  0  0  0  0  0  0
  190.4640  175.0010  143.3720 C   0  0  1  0  0  0  0  0  0  0  0  0
  190.6530  176.3650  144.0360 C   0  0  2  0  0  3  0  0  0  0  0  0
  191.7360  176.4220  145.1330 C   0  0  1  0  0  3  0  0  0  0  0  0
  191.7590  173.1220  140.4020 C   0  0  0  0  0  2  0  0  0  0  0  0
  189.3020  176.8250  144.5890 C   0  0  0  0  0  2  0  0  0  0  0  0
  191.6980  174.5620  142.5620 C   0  0  2  0  0  3  0  0  0  0  0  0
  191.6670  171.8670  138.2410 C   0  0  0  0  0  1  0  0  0  0  0  0
  190.1020  174.0420  144.3090 F   0  0  0  0  0  0  0  0  0  0  0  0
  191.0130  172.6860  139.2950 C   0  0  0  0  0  0  0  0  0  0  0  0
  189.3850  175.0560  142.3400 C   0  0  0  0  0  0  0  0  0  0  0  0
  191.1010  173.8720  141.3750 C   0  0  0  0  0  0  0  0  0  0  0  0
  187.8460  174.0960  139.9540 O   0  0  0  0  0  0  0  0  0  0  0  0
  192.4390  175.1040  145.5010 C   0  0  0  0  0  2  0  0  0  0  0  0
  189.6940  173.0270  139.1700 N   0  0  0  0  0  0  0  0  0  0  0  0
  192.6550  173.7100  143.3830 C   0  0  0  0  0  2  0  0  0  0  0  0
  189.0580  173.7890  140.1050 C   0  0  0  0  0  0  0  0  0  0  0  0
  188.3590  175.9080  142.3790 C   0  0  0  0  0  3  0  0  0  0  0  0
  188.2380  176.9430  143.4740 C   0  0  1  0  0  3  0  0  0  0  0  0
  192.6730  177.4110  144.8300 O   0  0  0  0  0  1  0  0  0  0  0  0
  194.4860  172.4400  145.0420 C   0  0  0  0  0  3  0  0  0  0  0  0
  196.6900  173.7910  146.1120 C   0  0  0  0  0  3  0  0  0  0  0  0
  194.5250  173.8380  145.0120 C   0  0  0  0  0  0  0  0  0  0  0  0
  195.5440  171.7190  145.6030 C   0  0  0  0  0  3  0  0  0  0  0  0
  195.6330  174.5130  145.5510 C   0  0  0  0  0  3  0  0  0  0  0  0
  196.6450  172.3940  146.1380 C   0  0  0  0  0  3  0  0  0  0  0  0
  186.8330  176.9140  144.0600 C   0  0  0  0  0  2  0  0  0  0  0  0
  185.7960  177.0320  142.9940 C   0  0  0  0  0  3  0  0  0  0  0  0
  185.1590  178.1800  142.7870 C   0  0  0  0  0  3  0  0  0  0  0  0
  184.1350  178.3210  141.7470 C   0  0  0  0  0  0  0  0  0  0  0  0
  184.4630  178.4990  140.5430 O   0  0  0  0  0  0  0  0  0  0  0  0
  182.7590  178.2540  142.1190 N   0  0  0  0  0  2  0  0  0  0  0  0
  179.9500  177.9160  141.7240 C   0  0  0  0  0  1  0  0  0  0  0  0
  181.7490  177.5190  139.7820 O   0  0  0  0  0  0  0  0  0  0  0  0
  181.4780  178.4080  140.9640 S   0  0  0  0  0  0  0  0  0  0  0  0
  181.3670  179.8370  140.5150 O   0  0  0  0  0  0  0  0  0  0  0  0
  1 13  2  0  0  0  0
  1 12  1  0  0  0  0
  2 24  1  1  0  0  0
  2 15  1  0  0  0  0
  3  4  1  0  0  0  0
  3 10  1  1  0  0  0
  4  7  1  1  0  0  0
  4  5  1  0  0  0  0
  5 21  1  6  0  0  0
  5 15  1  0  0  0  0
  6 13  1  0  0  0  0
  8  3  1  0  0  0  0
  8 17  1  1  0  0  0
  9 11  1  0  0  0  0
 11  6  1  0  0  0  0
 12 19  2  0  0  0  0
 12  3  1  0  0  0  0
 13  8  1  0  0  0  0
 14 18  2  0  0  0  0
 16 11  2  0  0  0  0
 16 18  1  0  0  0  0
 17  2  1  0  0  0  0
 18  1  1  0  0  0  0
 19 20  1  0  0  0  0
 20 28  1  1  0  0  0
 20  7  1  0  0  0  0
 22 25  1  0  0  0  0
 23 27  1  0  0  0  0
 24 22  2  0  0  0  0
 24 26  1  0  0  0  0
 25 27  2  0  0  0  0
 26 23  2  0  0  0  0
 29 28  1  0  0  0  0
 30 29  2  0  0  0  0
 31 33  1  0  0  0  0
 31 30  1  0  0  0  0
 32 31  2  0  0  0  0
 35 36  2  0  0  0  0
 36 34  1  0  0  0  0
 36 33  1  0  0  0  0
 37 36  2  0  0  0  0
M  END
>  <MODEL>
8

>  <REMARK>
 VINA RESULT:      -7.4      4.848      9.046
  Name = 
  5 active torsions:
  status: ('A' for Active; 'I' for Inactive)
    1  A    between atoms: C_3  and  C_20
    2  A    between atoms: C_6  and  C_22
    3  A    between atoms: C_8  and  C_26
    4  A    between atoms: C_26  and  C_34
    5  A    between atoms: S_30  and  N_32
                            x       y       z     vdW  Elec       q    Type
                         _______ _______ _______ _____ _____    ______ ____

>  <TORSDO>
F 5

$$$$
=
 OpenBabel11042418383D

 37 41  0  0  1  0  0  0  0  0999 V2000
  191.3290  175.8370  145.8790 C   0  0  0  0  0  0  0  0  0  0  0  0
  187.2270  177.6800  144.1390 C   0  0  2  0  0  3  0  0  0  0  0  0
  189.7050  175.7810  144.1290 C   0  0  1  0  0  0  0  0  0  0  0  0
  189.6810  176.1110  142.6370 C   0  0  2  0  0  3  0  0  0  0  0  0
  188.3210  176.5880  142.0870 C   0  0  1  0  0  3  0  0  0  0  0  0
  190.4390  177.5030  147.3730 C   0  0  0  0  0  2  0  0  0  0  0  0
  190.1750  174.8860  141.8630 C   0  0  0  0  0  2  0  0  0  0  0  0
  189.4710  177.0210  145.0130 C   0  0  2  0  0  3  0  0  0  0  0  0
  191.5660  177.9160  149.5670 C   0  0  0  0  0  1  0  0  0  0  0  0
  188.8030  174.7660  144.4250 F   0  0  0  0  0  0  0  0  0  0  0  0
  191.4710  177.1910  148.2730 C   0  0  0  0  0  0  0  0  0  0  0  0
  191.0610  175.3170  144.5510 C   0  0  0  0  0  0  0  0  0  0  0  0
  190.3770  176.7850  146.1810 C   0  0  0  0  0  0  0  0  0  0  0  0
  193.2410  174.6970  146.5120 O   0  0  0  0  0  0  0  0  0  0  0  0
  187.1290  176.5960  143.0590 C   0  0  0  0  0  2  0  0  0  0  0  0
  192.4010  176.2390  147.9590 N   0  0  0  0  0  0  0  0  0  0  0  0
  188.0040  177.2070  145.3690 C   0  0  0  0  0  2  0  0  0  0  0  0
  192.3610  175.5580  146.7770 C   0  0  0  0  0  0  0  0  0  0  0  0
  191.9280  174.7120  143.7370 C   0  0  0  0  0  3  0  0  0  0  0  0
  191.6120  174.4900  142.2760 C   0  0  1  0  0  3  0  0  0  0  0  0
  188.4630  177.8320  141.4730 O   0  0  0  0  0  1  0  0  0  0  0  0
  184.9830  178.5980  143.5430 C   0  0  0  0  0  3  0  0  0  0  0  0
  184.1730  178.5950  146.2200 C   0  0  0  0  0  3  0  0  0  0  0  0
  185.8640  178.1500  144.5340 C   0  0  0  0  0  0  0  0  0  0  0  0
  183.7030  179.0420  143.8870 C   0  0  0  0  0  3  0  0  0  0  0  0
  185.4540  178.1500  145.8780 C   0  0  0  0  0  3  0  0  0  0  0  0
  183.2990  179.0410  145.2250 C   0  0  0  0  0  3  0  0  0  0  0  0
  191.9060  173.0470  141.8940 C   0  0  0  0  0  2  0  0  0  0  0  0
  191.7620  172.8320  140.4250 C   0  0  0  0  0  3  0  0  0  0  0  0
  191.1390  171.7580  139.9510 C   0  0  0  0  0  3  0  0  0  0  0  0
  190.9850  171.5230  138.5120 C   0  0  0  0  0  0  0  0  0  0  0  0
  191.1170  170.3640  138.0330 O   0  0  0  0  0  0  0  0  0  0  0  0
  190.6800  172.6260  137.6600 N   0  0  0  0  0  2  0  0  0  0  0  0
  190.1520  174.0420  135.2350 C   0  0  0  0  0  1  0  0  0  0  0  0
  189.3160  171.5370  135.6680 O   0  0  0  0  0  0  0  0  0  0  0  0
  190.4760  172.4480  135.9500 S   0  0  0  0  0  0  0  0  0  0  0  0
  191.7300  171.8840  135.3440 O   0  0  0  0  0  0  0  0  0  0  0  0
  1 13  2  0  0  0  0
  1 18  1  0  0  0  0
  2 24  1  1  0  0  0
  2 17  1  0  0  0  0
  3 10  1  1  0  0  0
  3 12  1  0  0  0  0
  3  8  1  0  0  0  0
  4  7  1  6  0  0  0
  4  3  1  0  0  0  0
  5 21  1  1  0  0  0
  5  4  1  0  0  0  0
  5 15  1  0  0  0  0
  6 11  1  0  0  0  0
  7 20  1  0  0  0  0
  8 17  1  1  0  0  0
  8 13  1  0  0  0  0
 11  9  1  0  0  0  0
 12  1  1  0  0  0  0
 13  6  1  0  0  0  0
 14 18  2  0  0  0  0
 15  2  1  0  0  0  0
 16 11  2  0  0  0  0
 18 16  1  0  0  0  0
 19 12  2  0  0  0  0
 20 28  1  1  0  0  0
 20 19  1  0  0  0  0
 22 25  2  0  0  0  0
 22 24  1  0  0  0  0
 24 26  2  0  0  0  0
 25 27  1  0  0  0  0
 26 23  1  0  0  0  0
 27 23  2  0  0  0  0
 29 28  1  0  0  0  0
 30 29  2  0  0  0  0
 31 30  1  0  0  0  0
 32 31  2  0  0  0  0
 33 31  1  0  0  0  0
 34 36  1  0  0  0  0
 35 36  2  0  0  0  0
 36 33  1  0  0  0  0
 37 36  2  0  0  0  0
M  END
>  <MODEL>
9

>  <REMARK>
 VINA RESULT:      -7.4      3.531      5.772
  Name = 
  5 active torsions:
  status: ('A' for Active; 'I' for Inactive)
    1  A    between atoms: C_3  and  C_20
    2  A    between atoms: C_6  and  C_22
    3  A    between atoms: C_8  and  C_26
    4  A    between atoms: C_26  and  C_34
    5  A    between atoms: S_30  and  N_32
                            x       y       z     vdW  Elec       q    Type
                         _______ _______ _______ _____ _____    ______ ____

>  <TORSDO>
F 5

$$$$
