=
 OpenBabel11042416363D

 32 35  0  0  1  0  0  0  0  0999 V2000
  187.3470  177.0340  143.8990 N   0  0  0  0  0  0  0  0  0  0  0  0
  189.0250  177.7100  142.4080 C   0  0  0  0  0  2  0  0  0  0  0  0
  193.6220  175.1990  143.1600 C   0  0  0  0  0  0  0  0  0  0  0  0
  193.1910  175.1120  145.6910 C   0  0  0  0  0  0  0  0  0  0  0  0
  190.5000  174.8700  145.0150 N   0  0  0  0  0  0  0  0  0  0  0  0
  187.5850  177.6220  142.7740 C   0  0  0  0  0  0  0  0  0  0  0  0
  194.4190  175.0760  146.2000 C   0  0  0  0  0  3  0  0  0  0  0  0
  191.3630  175.4610  144.0670 C   0  0  1  0  0  3  0  0  0  0  0  0
  188.5920  176.5720  144.4930 C   0  0  1  0  0  3  0  0  0  0  0  0
  190.9570  176.5360  143.4460 N   0  0  0  0  0  2  0  0  0  0  0  0
  190.8110  174.8850  146.2600 C   0  0  0  0  0  0  0  0  0  0  0  0
  193.0320  175.2650  141.8620 N   0  0  0  0  0  1  0  0  0  0  0  0
  195.9950  175.0910  144.2540 C   0  0  0  0  0  3  0  0  0  0  0  0
  195.0450  175.0640  143.1930 N   0  0  0  0  0  0  0  0  0  0  0  0
  192.1500  175.0510  146.6410 O   0  0  0  0  0  0  0  0  0  0  0  0
  195.7220  175.1050  145.5470 C   0  0  0  0  0  3  0  0  0  0  0  0
  189.7030  177.2850  143.6980 C   0  0  1  0  0  3  0  0  0  0  0  0
  188.7060  176.8170  145.9530 N   0  0  0  0  0  0  0  0  0  0  0  0
  188.4170  175.5670  146.6720 C   0  0  0  0  0  2  0  0  0  0  0  0
  192.8160  175.2420  144.2450 C   0  0  1  0  0  3  0  0  0  0  0  0
  189.6950  174.9060  147.2570 C   0  0  0  0  0  2  0  0  0  0  0  0
  185.0890  178.3650  140.0440 C   0  0  0  0  0  1  0  0  0  0  0  0
  186.5550  178.1700  141.9410 N   0  0  0  0  0  0  0  0  0  0  0  0
  186.7440  176.5730  140.2700 F   0  0  0  0  0  0  0  0  0  0  0  0
  186.1750  177.6860  140.7970 C   0  0  0  0  0  0  0  0  0  0  0  0
  187.7750  177.8350  146.4330 C   0  0  0  0  0  2  0  0  0  0  0  0
  186.5330  177.1720  146.9970 C   0  0  0  0  0  2  0  0  0  0  0  0
  185.2970  178.4300  147.4320 S   0  0  0  0  0  0  0  0  0  0  0  0
  183.7280  178.6000  143.7670 N   0  0  0  0  0  2  0  0  0  0  0  0
  184.3510  178.0990  145.9760 N   0  0  0  0  0  2  0  0  0  0  0  0
  185.3980  180.0420  144.7150 C   0  0  0  0  0  1  0  0  0  0  0  0
  184.4580  178.8890  144.7910 C   0  0  0  0  0  0  0  0  0  0  0  0
  2  6  1  0  0  0  0
  3 14  2  0  0  0  0
  4  7  2  0  0  0  0
  4 15  1  0  0  0  0
  5 11  2  0  0  0  0
  6  1  2  0  0  0  0
  8 10  1  1  0  0  0
  8 20  1  0  0  0  0
  8  5  1  0  0  0  0
  9  1  1  6  0  0  0
  9 18  1  0  0  0  0
 10 17  1  0  0  0  0
 11 15  1  0  0  0  0
 11 21  1  0  0  0  0
 12  3  1  0  0  0  0
 13 16  2  0  0  0  0
 14 13  1  0  0  0  0
 16  7  1  0  0  0  0
 17  2  1  6  0  0  0
 17  9  1  0  0  0  0
 18 26  1  0  0  0  0
 18 19  1  0  0  0  0
 19 21  1  0  0  0  0
 20  3  1  1  0  0  0
 20  4  1  0  0  0  0
 22 25  1  0  0  0  0
 23  6  1  0  0  0  0
 24 25  1  0  0  0  0
 25 23  2  0  0  0  0
 26 27  1  0  0  0  0
 27 28  1  0  0  0  0
 29 32  2  0  0  0  0
 30 28  1  0  0  0  0
 31 32  1  0  0  0  0
 32 30  1  0  0  0  0
M  END
>  <MODEL>
1

>  <REMARK>
 VINA RESULT:      -7.8      0.000      0.000
  Name = 
  5 active torsions:
  status: ('A' for Active; 'I' for Inactive)
    1  A    between atoms: S_5  and  N_15
    2  A    between atoms: S_5  and  C_18
    3  A    between atoms: C_9  and  N_10
    4  A    between atoms: C_13  and  C_18
    5  A    between atoms: C_13  and  N_29
                            x       y       z     vdW  Elec       q    Type
                         _______ _______ _______ _____ _____    ______ ____

>  <TORSDO>
F 5

$$$$
=
 OpenBabel11042416363D

 32 35  0  0  1  0  0  0  0  0999 V2000
  190.7670  174.5290  142.0540 N   0  0  0  0  0  0  0  0  0  0  0  0
  188.5000  174.5110  141.4560 C   0  0  0  0  0  2  0  0  0  0  0  0
  185.6100  178.0560  144.1170 C   0  0  0  0  0  0  0  0  0  0  0  0
  187.0710  177.7210  146.2030 C   0  0  0  0  0  0  0  0  0  0  0  0
  189.1660  177.3110  144.4140 N   0  0  0  0  0  0  0  0  0  0  0  0
  189.9160  174.1650  141.1530 C   0  0  0  0  0  0  0  0  0  0  0  0
  186.2430  178.0250  147.1970 C   0  0  0  0  0  3  0  0  0  0  0  0
  187.8530  177.0900  143.9460 C   0  0  1  0  0  3  0  0  0  0  0  0
  190.0840  175.2330  143.1280 C   0  0  1  0  0  3  0  0  0  0  0  0
  187.6250  176.0280  143.2220 N   0  0  0  0  0  2  0  0  0  0  0  0
  189.4200  177.2320  145.6710 C   0  0  0  0  0  0  0  0  0  0  0  0
  185.5500  177.9890  142.6920 N   0  0  0  0  0  1  0  0  0  0  0  0
  184.0660  178.6660  146.1380 C   0  0  0  0  0  3  0  0  0  0  0  0
  184.4420  178.5630  144.7670 N   0  0  0  0  0  2  0  0  0  0  0  0
  188.3820  177.3870  146.6010 O   0  0  0  0  0  0  0  0  0  0  0  0
  184.8410  178.4240  147.1810 C   0  0  0  0  0  3  0  0  0  0  0  0
  188.5870  174.9450  142.9080 C   0  0  1  0  0  3  0  0  0  0  0  0
  190.5290  174.8560  144.4940 N   0  0  0  0  0  0  0  0  0  0  0  0
  191.4480  175.8870  145.0000 C   0  0  0  0  0  2  0  0  0  0  0  0
  186.7450  177.6690  144.7400 C   0  0  0  0  0  0  0  0  0  0  0  0
  190.7910  176.7930  146.0780 C   0  0  0  0  0  2  0  0  0  0  0  0
  190.7570  171.5880  138.5300 C   0  0  0  0  0  1  0  0  0  0  0  0
  190.2880  173.4640  139.9590 N   0  0  0  0  0  0  0  0  0  0  0  0
  190.0670  171.3410  140.8680 F   0  0  0  0  0  0  0  0  0  0  0  0
  190.3550  172.1730  139.8350 C   0  0  0  0  0  0  0  0  0  0  0  0
  191.2310  173.5760  144.5290 C   0  0  0  0  0  2  0  0  0  0  0  0
  192.6440  173.7770  145.0430 C   0  0  0  0  0  2  0  0  0  0  0  0
  193.8450  173.2040  143.8070 S   0  0  0  0  0  0  0  0  0  0  0  0
  195.9290  176.6060  143.8880 N   0  0  0  0  0  2  0  0  0  0  0  0
  194.9930  174.4780  144.2330 N   0  0  0  0  0  2  0  0  0  0  0  0
  194.1380  176.0190  142.4000 C   0  0  0  0  0  1  0  0  0  0  0  0
  195.0580  175.7220  143.5340 C   0  0  0  0  0  0  0  0  0  0  0  0
  3 20  2  0  0  0  0
  3 14  1  0  0  0  0
  4 15  1  0  0  0  0
  4  7  2  0  0  0  0
  5 11  2  0  0  0  0
  6  2  1  0  0  0  0
  6  1  2  0  0  0  0
  8 10  1  1  0  0  0
  8  5  1  0  0  0  0
  8 20  1  0  0  0  0
  9  1  1  6  0  0  0
  9 18  1  0  0  0  0
 11 21  1  0  0  0  0
 11 15  1  0  0  0  0
 12  3  1  0  0  0  0
 13 16  2  0  0  0  0
 14 13  1  0  0  0  0
 16  7  1  0  0  0  0
 17  2  1  6  0  0  0
 17  9  1  0  0  0  0
 17 10  1  0  0  0  0
 18 26  1  0  0  0  0
 18 19  1  0  0  0  0
 19 21  1  0  0  0  0
 20  4  1  0  0  0  0
 22 25  1  0  0  0  0
 23  6  1  0  0  0  0
 25 23  2  0  0  0  0
 25 24  1  0  0  0  0
 26 27  1  0  0  0  0
 28 30  1  0  0  0  0
 28 27  1  0  0  0  0
 31 32  1  0  0  0  0
 32 29  2  0  0  0  0
 32 30  1  0  0  0  0
M  END
>  <MODEL>
2

>  <REMARK>
 VINA RESULT:      -7.5      3.264      7.472
  Name = 
  5 active torsions:
  status: ('A' for Active; 'I' for Inactive)
    1  A    between atoms: S_5  and  N_15
    2  A    between atoms: S_5  and  C_18
    3  A    between atoms: C_9  and  N_10
    4  A    between atoms: C_13  and  C_18
    5  A    between atoms: C_13  and  N_29
                            x       y       z     vdW  Elec       q    Type
                         _______ _______ _______ _____ _____    ______ ____

>  <TORSDO>
F 5

$$$$
=
 OpenBabel11042416363D

 32 35  0  0  1  0  0  0  0  0999 V2000
  190.7360  174.5490  141.9690 N   0  0  0  0  0  0  0  0  0  0  0  0
  188.4620  174.5160  141.3990 C   0  0  0  0  0  2  0  0  0  0  0  0
  185.5850  178.0560  144.0810 C   0  0  0  0  0  0  0  0  0  0  0  0
  187.0750  177.7390  146.1500 C   0  0  0  0  0  0  0  0  0  0  0  0
  189.1490  177.3320  144.3370 N   0  0  0  0  0  0  0  0  0  0  0  0
  189.8760  174.1760  141.0800 C   0  0  0  0  0  0  0  0  0  0  0  0
  186.2570  178.0420  147.1530 C   0  0  0  0  0  3  0  0  0  0  0  0
  187.8310  177.1020  143.8860 C   0  0  1  0  0  3  0  0  0  0  0  0
  190.0630  175.2540  143.0480 C   0  0  1  0  0  3  0  0  0  0  0  0
  187.6000  176.0350  143.1700 N   0  0  0  0  0  2  0  0  0  0  0  0
  189.4190  177.2600  145.5900 C   0  0  0  0  0  0  0  0  0  0  0  0
  185.5070  177.9820  142.6570 N   0  0  0  0  0  1  0  0  0  0  0  0
  184.0640  178.6660  146.1190 C   0  0  0  0  0  3  0  0  0  0  0  0
  184.4230  178.5590  144.7440 N   0  0  0  0  0  2  0  0  0  0  0  0
  188.3920  177.4130  146.5320 O   0  0  0  0  0  0  0  0  0  0  0  0
  184.8520  178.4330  147.1530 C   0  0  0  0  0  3  0  0  0  0  0  0
  188.5640  174.9570  142.8480 C   0  0  1  0  0  3  0  0  0  0  0  0
  190.5270  174.8860  144.4090 N   0  0  0  0  0  0  0  0  0  0  0  0
  191.4460  175.9250  144.8990 C   0  0  0  0  0  2  0  0  0  0  0  0
  186.7310  177.6780  144.6910 C   0  0  0  0  0  0  0  0  0  0  0  0
  190.7980  176.8310  145.9820 C   0  0  0  0  0  2  0  0  0  0  0  0
  190.8230  171.6040  138.4890 C   0  0  0  0  0  1  0  0  0  0  0  0
  190.2370  173.4720  139.8850 N   0  0  0  0  0  0  0  0  0  0  0  0
  190.3600  171.3830  140.8840 F   0  0  0  0  0  0  0  0  0  0  0  0
  190.4570  172.1950  139.8010 C   0  0  0  0  0  0  0  0  0  0  0  0
  191.2370  173.6100  144.4410 C   0  0  0  0  0  2  0  0  0  0  0  0
  192.5860  173.7880  145.1110 C   0  0  0  0  0  2  0  0  0  0  0  0
  193.9060  173.1620  144.0320 S   0  0  0  0  0  0  0  0  0  0  0  0
  197.0560  173.7250  146.4170 N   0  0  0  0  0  2  0  0  0  0  0  0
  195.0530  173.0740  145.3730 N   0  0  0  0  0  2  0  0  0  0  0  0
  196.6000  174.7920  144.3150 C   0  0  0  0  0  1  0  0  0  0  0  0
  196.2540  173.8460  145.4130 C   0  0  0  0  0  0  0  0  0  0  0  0
  3 20  2  0  0  0  0
  3 14  1  0  0  0  0
  4 15  1  0  0  0  0
  4  7  2  0  0  0  0
  5 11  2  0  0  0  0
  6  2  1  0  0  0  0
  6  1  2  0  0  0  0
  7 16  1  0  0  0  0
  8 10  1  1  0  0  0
  8  5  1  0  0  0  0
  8 20  1  0  0  0  0
  9  1  1  6  0  0  0
  9 18  1  0  0  0  0
 11 21  1  0  0  0  0
 11 15  1  0  0  0  0
 12  3  1  0  0  0  0
 13 16  2  0  0  0  0
 14 13  1  0  0  0  0
 17  2  1  6  0  0  0
 17  9  1  0  0  0  0
 17 10  1  0  0  0  0
 18 26  1  0  0  0  0
 18 19  1  0  0  0  0
 19 21  1  0  0  0  0
 20  4  1  0  0  0  0
 22 25  1  0  0  0  0
 23  6  1  0  0  0  0
 25 23  2  0  0  0  0
 25 24  1  0  0  0  0
 26 27  1  0  0  0  0
 28 27  1  0  0  0  0
 28 30  1  0  0  0  0
 30 32  1  0  0  0  0
 31 32  1  0  0  0  0
 32 29  2  0  0  0  0
M  END
>  <MODEL>
3

>  <REMARK>
 VINA RESULT:      -7.3      3.369      7.815
  Name = 
  5 active torsions:
  status: ('A' for Active; 'I' for Inactive)
    1  A    between atoms: S_5  and  N_15
    2  A    between atoms: S_5  and  C_18
    3  A    between atoms: C_9  and  N_10
    4  A    between atoms: C_13  and  C_18
    5  A    between atoms: C_13  and  N_29
                            x       y       z     vdW  Elec       q    Type
                         _______ _______ _______ _____ _____    ______ ____

>  <TORSDO>
F 5

$$$$
=
 OpenBabel11042416363D

 32 35  0  0  1  0  0  0  0  0999 V2000
  190.7380  174.0890  140.8500 N   0  0  0  0  0  0  0  0  0  0  0  0
  188.4620  173.9360  140.3090 C   0  0  0  0  0  2  0  0  0  0  0  0
  185.5920  177.9650  142.1890 C   0  0  0  0  0  0  0  0  0  0  0  0
  187.0900  178.0940  144.2730 C   0  0  0  0  0  0  0  0  0  0  0  0
  189.1580  177.3110  142.5800 N   0  0  0  0  0  0  0  0  0  0  0  0
  189.8750  173.5360  140.0640 C   0  0  0  0  0  0  0  0  0  0  0  0
  186.2760  178.6030  145.1920 C   0  0  0  0  0  3  0  0  0  0  0  0
  187.8390  176.9910  142.1930 C   0  0  1  0  0  3  0  0  0  0  0  0
  190.0690  175.0070  141.7580 C   0  0  1  0  0  3  0  0  0  0  0  0
  187.6060  175.7960  141.7200 N   0  0  0  0  0  2  0  0  0  0  0  0
  189.4330  177.5070  143.8190 C   0  0  0  0  0  0  0  0  0  0  0  0
  185.5100  177.5900  140.8140 N   0  0  0  0  0  1  0  0  0  0  0  0
  184.0780  178.9930  144.0570 C   0  0  0  0  0  3  0  0  0  0  0  0
  184.4320  178.5970  142.7350 N   0  0  0  0  0  0  0  0  0  0  0  0
  188.4090  177.8570  144.7110 O   0  0  0  0  0  0  0  0  0  0  0  0
  184.8710  178.9860  145.1140 C   0  0  0  0  0  3  0  0  0  0  0  0
  188.5700  174.6740  141.6310 C   0  0  1  0  0  3  0  0  0  0  0  0
  190.5380  174.9360  143.1650 N   0  0  0  0  0  0  0  0  0  0  0  0
  191.4580  176.0550  143.4200 C   0  0  0  0  0  2  0  0  0  0  0  0
  186.7410  177.7250  142.8620 C   0  0  1  0  0  3  0  0  0  0  0  0
  190.8130  177.1710  144.2880 C   0  0  0  0  0  2  0  0  0  0  0  0
  191.0400  171.8070  136.9200 C   0  0  0  0  0  1  0  0  0  0  0  0
  190.2320  172.5940  139.0440 N   0  0  0  0  0  0  0  0  0  0  0  0
  190.9320  174.1830  137.5070 F   0  0  0  0  0  0  0  0  0  0  0  0
  190.7150  172.8960  137.8770 C   0  0  0  0  0  0  0  0  0  0  0  0
  191.2490  173.6960  143.4640 C   0  0  0  0  0  2  0  0  0  0  0  0
  192.7370  173.9690  143.5740 C   0  0  0  0  0  2  0  0  0  0  0  0
  193.3920  173.2480  145.1070 S   0  0  0  0  0  0  0  0  0  0  0  0
  194.0050  176.7860  146.8470 N   0  0  0  0  0  2  0  0  0  0  0  0
  194.0940  174.7890  145.6110 N   0  0  0  0  0  2  0  0  0  0  0  0
  192.1260  175.3190  147.1300 C   0  0  0  0  0  1  0  0  0  0  0  0
  193.4430  175.6680  146.5300 C   0  0  0  0  0  0  0  0  0  0  0  0
  3 14  2  0  0  0  0
  4 15  1  0  0  0  0
  4  7  2  0  0  0  0
  5 11  2  0  0  0  0
  6  2  1  0  0  0  0
  6  1  2  0  0  0  0
  8 10  1  1  0  0  0
  8  5  1  0  0  0  0
  8 20  1  0  0  0  0
  9  1  1  6  0  0  0
  9 18  1  0  0  0  0
 11 21  1  0  0  0  0
 11 15  1  0  0  0  0
 12  3  1  0  0  0  0
 13 16  2  0  0  0  0
 14 13  1  0  0  0  0
 16  7  1  0  0  0  0
 17  2  1  6  0  0  0
 17 10  1  0  0  0  0
 17  9  1  0  0  0  0
 18 19  1  0  0  0  0
 18 26  1  0  0  0  0
 19 21  1  0  0  0  0
 20  3  1  1  0  0  0
 20  4  1  0  0  0  0
 22 25  1  0  0  0  0
 23  6  1  0  0  0  0
 24 25  1  0  0  0  0
 25 23  2  0  0  0  0
 26 27  1  0  0  0  0
 27 28  1  0  0  0  0
 28 30  1  0  0  0  0
 30 32  1  0  0  0  0
 32 29  2  0  0  0  0
 32 31  1  0  0  0  0
M  END
>  <MODEL>
4

>  <REMARK>
 VINA RESULT:      -7.2      3.564      7.450
  Name = 
  5 active torsions:
  status: ('A' for Active; 'I' for Inactive)
    1  A    between atoms: S_5  and  N_15
    2  A    between atoms: S_5  and  C_18
    3  A    between atoms: C_9  and  N_10
    4  A    between atoms: C_13  and  C_18
    5  A    between atoms: C_13  and  N_29
                            x       y       z     vdW  Elec       q    Type
                         _______ _______ _______ _____ _____    ______ ____

>  <TORSDO>
F 5

$$$$
=
 OpenBabel11042416363D

 32 35  0  0  1  0  0  0  0  0999 V2000
  188.9840  175.6430  143.3380 N   0  0  0  0  0  0  0  0  0  0  0  0
  190.4060  177.4390  142.8430 C   0  0  0  0  0  2  0  0  0  0  0  0
  195.4500  175.9860  142.1710 C   0  0  0  0  0  0  0  0  0  0  0  0
  195.1850  174.1500  143.9490 C   0  0  0  0  0  0  0  0  0  0  0  0
  192.5650  173.9270  143.0290 N   0  0  0  0  0  0  0  0  0  0  0  0
  189.0360  176.8630  142.9180 C   0  0  0  0  0  0  0  0  0  0  0  0
  196.4210  174.0120  144.4190 C   0  0  0  0  0  3  0  0  0  0  0  0
  193.2380  175.1470  142.8020 C   0  0  1  0  0  3  0  0  0  0  0  0
  190.3270  175.1450  143.5910 C   0  0  1  0  0  3  0  0  0  0  0  0
  192.5890  176.2600  143.0180 N   0  0  0  0  0  2  0  0  0  0  0  0
  192.9350  173.1620  143.9920 C   0  0  0  0  0  0  0  0  0  0  0  0
  194.7880  176.7920  141.1970 N   0  0  0  0  0  1  0  0  0  0  0  0
  197.8520  175.6180  143.1380 C   0  0  0  0  0  3  0  0  0  0  0  0
  196.8700  176.1320  142.2420 N   0  0  0  0  0  0  0  0  0  0  0  0
  194.2320  173.2760  144.5130 O   0  0  0  0  0  0  0  0  0  0  0  0
  197.6530  174.7130  144.0800 C   0  0  0  0  0  3  0  0  0  0  0  0
  191.2260  176.3970  143.5820 C   0  0  1  0  0  3  0  0  0  0  0  0
  190.4700  174.3660  144.8470 N   0  0  0  0  0  0  0  0  0  0  0  0
  190.4780  172.9310  144.5210 C   0  0  0  0  0  2  0  0  0  0  0  0
  194.7130  175.1410  142.9270 C   0  0  1  0  0  3  0  0  0  0  0  0
  191.8940  172.3020  144.6380 C   0  0  0  0  0  2  0  0  0  0  0  0
  185.9470  178.2910  141.2880 C   0  0  0  0  0  1  0  0  0  0  0  0
  187.8720  177.6230  142.5670 N   0  0  0  0  0  0  0  0  0  0  0  0
  187.3980  176.4270  140.6360 F   0  0  0  0  0  0  0  0  0  0  0  0
  187.1270  177.4190  141.5220 C   0  0  0  0  0  0  0  0  0  0  0  0
  189.3800  174.6030  145.7900 C   0  0  0  0  0  2  0  0  0  0  0  0
  189.8820  175.4270  146.9600 C   0  0  0  0  0  2  0  0  0  0  0  0
  189.2540  177.1280  146.8410 S   0  0  0  0  0  0  0  0  0  0  0  0
  185.2920  176.7900  146.5030 N   0  0  0  0  0  2  0  0  0  0  0  0
  187.6310  176.5700  146.4220 N   0  0  0  0  0  2  0  0  0  0  0  0
  186.5260  178.5090  147.6380 C   0  0  0  0  0  1  0  0  0  0  0  0
  186.4490  177.2580  146.8330 C   0  0  0  0  0  0  0  0  0  0  0  0
  2  6  1  0  0  0  0
  3 14  2  0  0  0  0
  4  7  2  0  0  0  0
  4 15  1  0  0  0  0
  5 11  2  0  0  0  0
  6  1  2  0  0  0  0
  8 20  1  0  0  0  0
  8 10  1  1  0  0  0
  8  5  1  0  0  0  0
  9  1  1  1  0  0  0
  9 18  1  0  0  0  0
 10 17  1  0  0  0  0
 11 15  1  0  0  0  0
 11 21  1  0  0  0  0
 12  3  1  0  0  0  0
 13 16  2  0  0  0  0
 14 13  1  0  0  0  0
 16  7  1  0  0  0  0
 17  2  1  6  0  0  0
 17  9  1  0  0  0  0
 18 26  1  0  0  0  0
 19 21  1  0  0  0  0
 19 18  1  0  0  0  0
 20  3  1  1  0  0  0
 20  4  1  0  0  0  0
 22 25  1  0  0  0  0
 23  6  1  0  0  0  0
 24 25  1  0  0  0  0
 25 23  2  0  0  0  0
 26 27  1  0  0  0  0
 28 27  1  0  0  0  0
 29 32  2  0  0  0  0
 30 32  1  0  0  0  0
 30 28  1  0  0  0  0
 32 31  1  0  0  0  0
M  END
>  <MODEL>
5

>  <REMARK>
 VINA RESULT:      -6.8      1.971      2.827
  Name = 
  5 active torsions:
  status: ('A' for Active; 'I' for Inactive)
    1  A    between atoms: S_5  and  N_15
    2  A    between atoms: S_5  and  C_18
    3  A    between atoms: C_9  and  N_10
    4  A    between atoms: C_13  and  C_18
    5  A    between atoms: C_13  and  N_29
                            x       y       z     vdW  Elec       q    Type
                         _______ _______ _______ _____ _____    ______ ____

>  <TORSDO>
F 5

$$$$
=
 OpenBabel11042416363D

 32 35  0  0  1  0  0  0  0  0999 V2000
  194.6510  175.5230  143.3150 N   0  0  0  0  0  0  0  0  0  0  0  0
  192.9740  175.4190  141.6800 C   0  0  0  0  0  2  0  0  0  0  0  0
  188.3850  177.5290  143.2580 C   0  0  0  0  0  0  0  0  0  0  0  0
  188.8100  176.7230  145.6610 C   0  0  0  0  0  0  0  0  0  0  0  0
  191.5040  177.1740  145.1140 N   0  0  0  0  0  0  0  0  0  0  0  0
  194.4140  175.3670  142.0550 C   0  0  0  0  0  0  0  0  0  0  0  0
  187.5820  176.5840  146.1480 C   0  0  0  0  0  3  0  0  0  0  0  0
  190.6410  176.9550  144.0190 C   0  0  1  0  0  3  0  0  0  0  0  0
  193.4070  175.7530  144.0320 C   0  0  1  0  0  3  0  0  0  0  0  0
  191.0450  176.1640  143.0610 N   0  0  0  0  0  2  0  0  0  0  0  0
  191.1890  176.7260  146.2760 C   0  0  0  0  0  0  0  0  0  0  0  0
  188.9790  177.9180  142.0200 N   0  0  0  0  0  1  0  0  0  0  0  0
  186.0100  177.2580  144.3190 C   0  0  0  0  0  3  0  0  0  0  0  0
  186.9630  177.6500  143.3350 N   0  0  0  0  0  0  0  0  0  0  0  0
  189.8490  176.4430  146.5730 O   0  0  0  0  0  0  0  0  0  0  0  0
  186.2800  176.7910  145.5260 C   0  0  0  0  0  3  0  0  0  0  0  0
  192.2950  175.3680  143.0370 C   0  0  1  0  0  3  0  0  0  0  0  0
  193.2880  175.0140  145.3140 N   0  0  0  0  0  0  0  0  0  0  0  0
  193.5810  175.9320  146.4250 C   0  0  0  0  0  2  0  0  0  0  0  0
  189.1880  177.1050  144.2600 C   0  0  1  0  0  3  0  0  0  0  0  0
  192.3030  176.3530  147.2030 C   0  0  0  0  0  2  0  0  0  0  0  0
  197.3730  175.6130  139.7280 C   0  0  0  0  0  1  0  0  0  0  0  0
  195.4440  175.1400  141.0840 N   0  0  0  0  0  0  0  0  0  0  0  0
  196.4410  177.2200  141.3240 F   0  0  0  0  0  0  0  0  0  0  0  0
  196.3680  175.9910  140.7540 C   0  0  0  0  0  0  0  0  0  0  0  0
  194.2140  173.8880  145.4080 C   0  0  0  0  0  2  0  0  0  0  0  0
  193.4410  172.5830  145.3880 C   0  0  0  0  0  2  0  0  0  0  0  0
  193.4920  171.8550  143.7240 S   0  0  0  0  0  0  0  0  0  0  0  0
  189.6910  171.5410  142.5480 N   0  0  0  0  0  2  0  0  0  0  0  0
  191.7390  171.6290  143.6970 N   0  0  0  0  0  2  0  0  0  0  0  0
  191.6190  171.9650  141.1810 C   0  0  0  0  0  1  0  0  0  0  0  0
  190.9710  171.7030  142.4960 C   0  0  0  0  0  0  0  0  0  0  0  0
  2  6  1  0  0  0  0
  3 14  2  0  0  0  0
  4  7  2  0  0  0  0
  4 15  1  0  0  0  0
  5 11  2  0  0  0  0
  6  1  2  0  0  0  0
  8 10  1  1  0  0  0
  8 20  1  0  0  0  0
  8  5  1  0  0  0  0
  9  1  1  6  0  0  0
  9 18  1  0  0  0  0
 11 15  1  0  0  0  0
 11 21  1  0  0  0  0
 12  3  1  0  0  0  0
 13 16  2  0  0  0  0
 14 13  1  0  0  0  0
 16  7  1  0  0  0  0
 17  2  1  6  0  0  0
 17 10  1  0  0  0  0
 17  9  1  0  0  0  0
 18 26  1  0  0  0  0
 18 19  1  0  0  0  0
 19 21  1  0  0  0  0
 20  3  1  6  0  0  0
 20  4  1  0  0  0  0
 22 25  1  0  0  0  0
 23  6  1  0  0  0  0
 25 23  2  0  0  0  0
 25 24  1  0  0  0  0
 27 26  1  0  0  0  0
 28 27  1  0  0  0  0
 30 28  1  0  0  0  0
 31 32  1  0  0  0  0
 32 29  2  0  0  0  0
 32 30  1  0  0  0  0
M  END
>  <MODEL>
6

>  <REMARK>
 VINA RESULT:      -6.8      3.495      7.427
  Name = 
  5 active torsions:
  status: ('A' for Active; 'I' for Inactive)
    1  A    between atoms: S_5  and  N_15
    2  A    between atoms: S_5  and  C_18
    3  A    between atoms: C_9  and  N_10
    4  A    between atoms: C_13  and  C_18
    5  A    between atoms: C_13  and  N_29
                            x       y       z     vdW  Elec       q    Type
                         _______ _______ _______ _____ _____    ______ ____

>  <TORSDO>
F 5

$$$$
=
 OpenBabel11042416363D

 32 35  0  0  1  0  0  0  0  0999 V2000
  192.6150  174.0560  144.0340 N   0  0  0  0  0  0  0  0  0  0  0  0
  192.2720  175.7170  145.6520 C   0  0  0  0  0  2  0  0  0  0  0  0
  187.3390  177.6320  145.6670 C   0  0  0  0  0  0  0  0  0  0  0  0
  187.1910  177.3420  143.1190 C   0  0  0  0  0  0  0  0  0  0  0  0
  188.8120  175.1080  143.4880 N   0  0  0  0  0  0  0  0  0  0  0  0
  193.0690  174.5750  145.1260 C   0  0  0  0  0  0  0  0  0  0  0  0
  186.3120  178.2740  142.7660 C   0  0  0  0  0  3  0  0  0  0  0  0
  188.8460  176.1120  144.4780 C   0  0  1  0  0  3  0  0  0  0  0  0
  191.3900  174.7310  143.6330 C   0  0  1  0  0  3  0  0  0  0  0  0
  190.0080  176.4730  144.9540 N   0  0  0  0  0  2  0  0  0  0  0  0
  188.4490  175.4010  142.2910 C   0  0  0  0  0  0  0  0  0  0  0  0
  187.9480  177.1760  146.8760 N   0  0  0  0  0  1  0  0  0  0  0  0
  185.5960  179.4140  144.8770 C   0  0  0  0  0  3  0  0  0  0  0  0
  186.3290  178.6320  145.8160 N   0  0  0  0  0  2  0  0  0  0  0  0
  187.6720  176.5440  142.0600 O   0  0  0  0  0  0  0  0  0  0  0  0
  185.5980  179.2640  143.5640 C   0  0  0  0  0  3  0  0  0  0  0  0
  191.3380  176.0090  144.4920 C   0  0  1  0  0  3  0  0  0  0  0  0
  191.2980  175.0310  142.1820 N   0  0  0  0  0  0  0  0  0  0  0  0
  190.4310  174.0290  141.5410 C   0  0  0  0  0  2  0  0  0  0  0  0
  187.7310  177.0860  144.4940 C   0  0  0  0  0  0  0  0  0  0  0  0
  189.0340  174.6000  141.1700 C   0  0  0  0  0  2  0  0  0  0  0  0
  196.6080  173.7650  146.1530 C   0  0  0  0  0  1  0  0  0  0  0  0
  194.2570  174.1120  145.7810 N   0  0  0  0  0  0  0  0  0  0  0  0
  195.7310  174.9960  144.2240 F   0  0  0  0  0  0  0  0  0  0  0  0
  195.4710  174.3070  145.3640 C   0  0  0  0  0  0  0  0  0  0  0  0
  192.5940  174.9950  141.5110 C   0  0  0  0  0  2  0  0  0  0  0  0
  192.5460  174.0200  140.3490 C   0  0  0  0  0  2  0  0  0  0  0  0
  194.1050  174.0810  139.4190 S   0  0  0  0  0  0  0  0  0  0  0  0
  196.2510  176.8650  141.3100 N   0  0  0  0  0  2  0  0  0  0  0  0
  194.6140  175.5620  140.2390 N   0  0  0  0  0  2  0  0  0  0  0  0
  197.0000  174.7270  140.5130 C   0  0  0  0  0  1  0  0  0  0  0  0
  195.9480  175.7640  140.7070 C   0  0  0  0  0  0  0  0  0  0  0  0
  1  6  2  0  0  0  0
  3 14  1  0  0  0  0
  3 12  1  0  0  0  0
  4 20  1  0  0  0  0
  6  2  1  0  0  0  0
  6 23  1  0  0  0  0
  7  4  2  0  0  0  0
  7 16  1  0  0  0  0
  8  5  1  6  0  0  0
  8 20  1  0  0  0  0
  8 10  1  0  0  0  0
  9  1  1  6  0  0  0
  9 17  1  0  0  0  0
 11  5  2  0  0  0  0
 13 14  1  0  0  0  0
 15 11  1  0  0  0  0
 15  4  1  0  0  0  0
 16 13  2  0  0  0  0
 17 10  1  0  0  0  0
 17  2  1  1  0  0  0
 18  9  1  0  0  0  0
 19 18  1  0  0  0  0
 20  3  2  0  0  0  0
 21 19  1  0  0  0  0
 21 11  1  0  0  0  0
 24 25  1  0  0  0  0
 25 23  2  0  0  0  0
 25 22  1  0  0  0  0
 26 18  1  0  0  0  0
 27 26  1  0  0  0  0
 28 30  1  0  0  0  0
 28 27  1  0  0  0  0
 30 32  1  0  0  0  0
 31 32  1  0  0  0  0
 32 29  2  0  0  0  0
M  END
>  <MODEL>
7

>  <REMARK>
 VINA RESULT:      -6.8      3.660      8.608
  Name = 
  5 active torsions:
  status: ('A' for Active; 'I' for Inactive)
    1  A    between atoms: S_5  and  N_15
    2  A    between atoms: S_5  and  C_18
    3  A    between atoms: C_9  and  N_10
    4  A    between atoms: C_13  and  C_18
    5  A    between atoms: C_13  and  N_29
                            x       y       z     vdW  Elec       q    Type
                         _______ _______ _______ _____ _____    ______ ____

>  <TORSDO>
F 5

$$$$
=
 OpenBabel11042416363D

 32 35  0  0  1  0  0  0  0  0999 V2000
  193.5370  172.0730  143.8370 N   0  0  0  0  0  0  0  0  0  0  0  0
  193.4320  173.4120  145.7590 C   0  0  0  0  0  2  0  0  0  0  0  0
  188.6930  175.6520  146.4870 C   0  0  0  0  0  0  0  0  0  0  0  0
  188.3770  175.8710  143.9460 C   0  0  0  0  0  0  0  0  0  0  0  0
  189.8150  173.4920  143.7720 N   0  0  0  0  0  0  0  0  0  0  0  0
  194.0950  172.3360  144.9710 C   0  0  0  0  0  0  0  0  0  0  0  0
  187.5640  176.9170  143.8380 C   0  0  0  0  0  3  0  0  0  0  0  0
  189.9930  174.2820  144.9290 C   0  0  1  0  0  3  0  0  0  0  0  0
  192.3550  172.9020  143.6590 C   0  0  1  0  0  3  0  0  0  0  0  0
  191.2060  174.4550  145.3790 N   0  0  0  0  0  2  0  0  0  0  0  0
  189.4130  174.0370  142.6810 C   0  0  0  0  0  0  0  0  0  0  0  0
  189.3270  174.9280  147.5410 N   0  0  0  0  0  1  0  0  0  0  0  0
  187.0710  177.6780  146.1720 C   0  0  0  0  0  3  0  0  0  0  0  0
  187.7840  176.6780  146.8920 N   0  0  0  0  0  2  0  0  0  0  0  0
  188.7260  175.2580  142.7250 O   0  0  0  0  0  0  0  0  0  0  0  0
  186.9850  177.7840  144.8570 C   0  0  0  0  0  3  0  0  0  0  0  0
  192.4620  173.9910  144.7440 C   0  0  1  0  0  3  0  0  0  0  0  0
  192.2070  173.4820  142.3000 N   0  0  0  0  0  0  0  0  0  0  0  0
  191.2220  172.6910  141.5470 C   0  0  0  0  0  2  0  0  0  0  0  0
  188.9700  175.3140  145.2070 C   0  0  0  0  0  0  0  0  0  0  0  0
  189.8620  173.4260  141.3900 C   0  0  0  0  0  2  0  0  0  0  0  0
  196.6070  169.9140  146.4060 C   0  0  0  0  0  1  0  0  0  0  0  0
  195.2730  171.6680  145.4410 N   0  0  0  0  0  0  0  0  0  0  0  0
  194.1810  169.7360  146.1160 F   0  0  0  0  0  0  0  0  0  0  0  0
  195.3060  170.4790  145.9630 C   0  0  0  0  0  0  0  0  0  0  0  0
  193.4560  173.4790  141.5430 C   0  0  0  0  0  2  0  0  0  0  0  0
  193.6300  174.8080  140.8310 C   0  0  0  0  0  2  0  0  0  0  0  0
  193.9470  176.1260  142.0400 S   0  0  0  0  0  0  0  0  0  0  0  0
  196.8440  174.8740  144.4840 N   0  0  0  0  0  2  0  0  0  0  0  0
  195.3080  175.2440  142.7440 N   0  0  0  0  0  2  0  0  0  0  0  0
  195.2550  176.6320  144.8730 C   0  0  0  0  0  1  0  0  0  0  0  0
  195.8390  175.5490  144.0340 C   0  0  0  0  0  0  0  0  0  0  0  0
  1  6  2  0  0  0  0
  3 14  1  0  0  0  0
  3 12  1  0  0  0  0
  4 20  1  0  0  0  0
  6 23  1  0  0  0  0
  6  2  1  0  0  0  0
  7  4  2  0  0  0  0
  7 16  1  0  0  0  0
  8  5  1  6  0  0  0
  8 20  1  0  0  0  0
  8 10  1  0  0  0  0
  9  1  1  6  0  0  0
  9 17  1  0  0  0  0
 11 15  1  0  0  0  0
 11  5  2  0  0  0  0
 13 14  1  0  0  0  0
 15  4  1  0  0  0  0
 16 13  2  0  0  0  0
 17 10  1  0  0  0  0
 17  2  1  1  0  0  0
 18  9  1  0  0  0  0
 19 18  1  0  0  0  0
 20  3  2  0  0  0  0
 21 19  1  0  0  0  0
 21 11  1  0  0  0  0
 23 25  2  0  0  0  0
 25 24  1  0  0  0  0
 25 22  1  0  0  0  0
 26 18  1  0  0  0  0
 27 26  1  0  0  0  0
 27 28  1  0  0  0  0
 28 30  1  0  0  0  0
 30 32  1  0  0  0  0
 32 29  2  0  0  0  0
 32 31  1  0  0  0  0
M  END
>  <MODEL>
8

>  <REMARK>
 VINA RESULT:      -6.7      3.782      8.587
  Name = 
  5 active torsions:
  status: ('A' for Active; 'I' for Inactive)
    1  A    between atoms: S_5  and  N_15
    2  A    between atoms: S_5  and  C_18
    3  A    between atoms: C_9  and  N_10
    4  A    between atoms: C_13  and  C_18
    5  A    between atoms: C_13  and  N_29
                            x       y       z     vdW  Elec       q    Type
                         _______ _______ _______ _____ _____    ______ ____

>  <TORSDO>
F 5

$$$$
=
 OpenBabel11042416363D

 32 35  0  0  1  0  0  0  0  0999 V2000
  187.2740  176.1210  143.8370 N   0  0  0  0  0  0  0  0  0  0  0  0
  186.8530  176.4250  141.5510 C   0  0  0  0  0  2  0  0  0  0  0  0
  189.6070  173.1260  138.4630 C   0  0  0  0  0  0  0  0  0  0  0  0
  191.5850  173.2020  140.1010 C   0  0  0  0  0  0  0  0  0  0  0  0
  189.6550  173.4440  142.0950 N   0  0  0  0  0  0  0  0  0  0  0  0
  186.4540  176.6180  142.9720 C   0  0  0  0  0  0  0  0  0  0  0  0
  192.6290  172.9540  139.3170 C   0  0  0  0  0  3  0  0  0  0  0  0
  189.2980  173.8340  140.7860 C   0  0  1  0  0  3  0  0  0  0  0  0
  188.3730  175.4550  143.1560 C   0  0  1  0  0  3  0  0  0  0  0  0
  188.6290  174.9460  140.6330 N   0  0  0  0  0  2  0  0  0  0  0  0
  190.8900  173.4400  142.4460 C   0  0  0  0  0  0  0  0  0  0  0  0
  188.1940  173.2610  138.3090 N   0  0  0  0  0  1  0  0  0  0  0  0
  191.7190  172.6130  137.0090 C   0  0  0  0  0  3  0  0  0  0  0  0
  190.3280  172.7300  137.2940 N   0  0  0  0  0  0  0  0  0  0  0  0
  191.8920  173.3660  141.4680 O   0  0  0  0  0  0  0  0  0  0  0  0
  192.7080  172.7200  137.8800 C   0  0  0  0  0  3  0  0  0  0  0  0
  188.2780  175.9230  141.6910 C   0  0  1  0  0  3  0  0  0  0  0  0
  189.7120  175.7200  143.7400 N   0  0  0  0  0  0  0  0  0  0  0  0
  190.1110  174.5690  144.5650 C   0  0  0  0  0  2  0  0  0  0  0  0
  190.1540  173.3530  139.6790 C   0  0  1  0  0  3  0  0  0  0  0  0
  191.2060  173.7010  143.8860 C   0  0  0  0  0  2  0  0  0  0  0  0
  183.9000  179.0830  144.2490 C   0  0  0  0  0  1  0  0  0  0  0  0
  185.2590  177.3220  143.3370 N   0  0  0  0  0  0  0  0  0  0  0  0
  186.3490  179.1400  144.2800 F   0  0  0  0  0  0  0  0  0  0  0  0
  185.2180  178.4740  143.9350 C   0  0  0  0  0  0  0  0  0  0  0  0
  189.7360  176.9080  144.5890 C   0  0  0  0  0  2  0  0  0  0  0  0
  190.3070  176.5570  145.9500 C   0  0  0  0  0  2  0  0  0  0  0  0
  189.4830  177.5320  147.2420 S   0  0  0  0  0  0  0  0  0  0  0  0
  185.5690  176.8140  146.9370 N   0  0  0  0  0  2  0  0  0  0  0  0
  187.9190  176.7820  146.9040 N   0  0  0  0  0  2  0  0  0  0  0  0
  186.6350  178.7850  147.8000 C   0  0  0  0  0  1  0  0  0  0  0  0
  186.6760  177.4230  147.1970 C   0  0  0  0  0  0  0  0  0  0  0  0
  2  6  1  0  0  0  0
  4 15  1  0  0  0  0
  5 11  2  0  0  0  0
  6 23  1  0  0  0  0
  6  1  2  0  0  0  0
  7  4  2  0  0  0  0
  8 10  1  1  0  0  0
  8  5  1  0  0  0  0
  9 18  1  0  0  0  0
  9  1  1  1  0  0  0
 10 17  1  0  0  0  0
 11 21  1  0  0  0  0
 12  3  1  0  0  0  0
 13 14  1  0  0  0  0
 13 16  2  0  0  0  0
 14  3  2  0  0  0  0
 15 11  1  0  0  0  0
 16  7  1  0  0  0  0
 17  2  1  6  0  0  0
 17  9  1  0  0  0  0
 18 19  1  0  0  0  0
 18 26  1  0  0  0  0
 20  3  1  6  0  0  0
 20  4  1  0  0  0  0
 20  8  1  0  0  0  0
 21 19  1  0  0  0  0
 23 25  2  0  0  0  0
 25 22  1  0  0  0  0
 25 24  1  0  0  0  0
 26 27  1  0  0  0  0
 27 28  1  0  0  0  0
 29 32  2  0  0  0  0
 30 32  1  0  0  0  0
 30 28  1  0  0  0  0
 32 31  1  0  0  0  0
M  END
>  <MODEL>
9

>  <REMARK>
 VINA RESULT:      -6.6      3.628      4.744
  Name = 
  5 active torsions:
  status: ('A' for Active; 'I' for Inactive)
    1  A    between atoms: S_5  and  N_15
    2  A    between atoms: S_5  and  C_18
    3  A    between atoms: C_9  and  N_10
    4  A    between atoms: C_13  and  C_18
    5  A    between atoms: C_13  and  N_29
                            x       y       z     vdW  Elec       q    Type
                         _______ _______ _______ _____ _____    ______ ____

>  <TORSDO>
F 5

$$$$
