=
 OpenBabel11042416153D

 33 38  0  0  1  0  0  0  0  0999 V2000
  190.8960  177.0980  143.1860 N   0  0  0  0  0  2  0  0  0  0  0  0
  194.8020  173.6770  143.2960 C   0  0  0  0  0  0  0  0  0  0  0  0
  187.6230  178.2250  143.0180 C   0  0  0  0  0  2  0  0  0  0  0  0
  195.2960  176.0310  142.5460 C   0  0  0  0  0  0  0  0  0  0  0  0
  189.6120  176.7230  142.6790 C   0  0  0  0  0  0  0  0  0  0  0  0
  193.4650  175.7140  144.2630 C   0  0  2  0  0  3  0  0  0  0  0  0
  195.2370  176.5640  141.3300 C   0  0  0  0  0  2  0  0  0  0  0  0
  186.4180  177.7410  143.2980 C   0  0  0  0  0  3  0  0  0  0  0  0
  192.3000  175.0240  143.6180 C   0  0  0  0  0  0  0  0  0  0  0  0
  187.8150  174.7440  141.8860 N   0  0  0  0  0  0  0  0  0  0  0  0
  189.9430  175.4410  142.6510 C   0  0  0  0  0  0  0  0  0  0  0  0
  189.0470  174.3880  142.1670 C   0  0  0  0  0  3  0  0  0  0  0  0
  191.2430  175.7270  143.2250 C   0  0  0  0  0  0  0  0  0  0  0  0
  192.2970  173.5250  143.5210 C   0  0  0  0  0  2  0  0  0  0  0  0
  188.3480  177.2790  142.1260 C   0  0  1  0  0  3  0  0  0  0  0  0
  186.2710  176.4040  142.7250 C   0  0  0  0  0  3  0  0  0  0  0  0
  187.3770  176.1190  142.0630 C   0  0  2  0  0  3  0  0  0  0  0  0
  194.7490  175.1420  143.6590 C   0  0  1  0  0  0  0  0  0  0  0  0
  195.9770  175.8290  143.9060 C   0  0  0  0  0  2  0  0  0  0  0  0
  193.6630  172.9690  143.2070 C   0  0  0  0  0  3  0  0  0  0  0  0
  192.4700  176.4650  146.4140 C   0  0  2  0  0  3  0  0  0  0  0  0
  193.4320  175.4830  145.7700 C   0  0  2  0  0  3  0  0  0  0  0  0
  193.9630  176.7020  146.4970 C   0  0  0  0  0  2  0  0  0  0  0  0
  191.9840  175.8760  147.6960 C   0  0  0  0  0  3  0  0  0  0  0  0
  190.7960  175.2870  147.8500 C   0  0  0  0  0  3  0  0  0  0  0  0
  188.8830  176.1160  146.6400 C   0  0  0  0  0  2  0  0  0  0  0  0
  189.6950  174.0190  145.9940 O   0  0  0  0  0  1  0  0  0  0  0  0
  189.7600  175.1390  146.8130 C   0  0  0  0  0  0  0  0  0  0  0  0
  196.0410  173.0850  143.0220 O   0  0  0  0  0  0  0  0  0  0  0  0
  196.5090  171.9170  143.6860 C   0  0  0  0  0  2  0  0  0  0  0  0
  197.9410  173.2710  145.0220 O   0  0  0  0  0  0  0  0  0  0  0  0
  197.1420  172.2980  144.9760 C   0  0  0  0  0  0  0  0  0  0  0  0
  196.8230  171.6050  146.1380 O   0  0  0  0  0  1  0  0  0  0  0  0
  1 13  1  0  0  0  0
  2 18  1  0  0  0  0
  3  8  1  0  0  0  0
  4 18  1  0  0  0  0
  4 19  1  0  0  0  0
  5  1  1  0  0  0  0
  6  9  1  6  0  0  0
  6 22  1  0  0  0  0
  7  4  2  0  0  0  0
 10 17  1  0  0  0  0
 10 12  2  0  0  0  0
 11  5  2  0  0  0  0
 11 13  1  0  0  0  0
 12 11  1  0  0  0  0
 13  9  2  0  0  0  0
 14  9  1  0  0  0  0
 15  5  1  0  0  0  0
 15  3  1  1  0  0  0
 16  8  2  0  0  0  0
 17 15  1  0  0  0  0
 17 16  1  1  0  0  0
 18 19  1  1  0  0  0
 18  6  1  0  0  0  0
 20  2  2  0  0  0  0
 20 14  1  0  0  0  0
 21 23  1  0  0  0  0
 21 24  1  1  0  0  0
 22 21  1  0  0  0  0
 22 23  1  1  0  0  0
 24 25  2  0  0  0  0
 26 28  2  0  0  0  0
 27 28  1  0  0  0  0
 28 25  1  0  0  0  0
 29  2  1  0  0  0  0
 29 30  1  0  0  0  0
 30 32  1  0  0  0  0
 32 31  2  0  0  0  0
 32 33  1  0  0  0  0
M  END
>  <MODEL>
1

>  <REMARK>
 VINA RESULT:      -7.1      0.000      0.000
  Name = 
  6 active torsions:
  status: ('A' for Active; 'I' for Inactive)
    1  A    between atoms: C_2  and  O_19
    2  A    between atoms: C_4  and  C_7
    3  A    between atoms: C_9  and  C_12
    4  A    between atoms: C_11  and  C_25
    5  A    between atoms: O_19  and  C_25
    6  A    between atoms: C_24  and  C_28
                            x       y       z     vdW  Elec       q    Type
                         _______ _______ _______ _____ _____    ______ ____

>  <TORSDO>
F 6

$$$$
=
 OpenBabel11042416153D

 33 38  0  0  1  0  0  0  0  0999 V2000
  192.4060  175.7000  142.1500 N   0  0  0  0  0  2  0  0  0  0  0  0
  187.9510  176.3500  144.7370 C   0  0  0  0  0  0  0  0  0  0  0  0
  195.8190  175.3150  141.6850 C   0  0  0  0  0  2  0  0  0  0  0  0
  188.0410  177.0520  142.3190 C   0  0  0  0  0  0  0  0  0  0  0  0
  193.6590  176.0240  142.7610 C   0  0  0  0  0  0  0  0  0  0  0  0
  189.4820  175.0940  143.0210 C   0  0  2  0  0  3  0  0  0  0  0  0
  188.3930  178.2170  141.7860 C   0  0  0  0  0  2  0  0  0  0  0  0
  196.8500  174.8800  142.4020 C   0  0  0  0  0  3  0  0  0  0  0  0
  190.5810  175.5870  143.9140 C   0  0  0  0  0  0  0  0  0  0  0  0
  195.1460  176.6310  145.0400 N   0  0  0  0  0  0  0  0  0  0  0  0
  193.0970  176.1640  143.9520 C   0  0  0  0  0  0  0  0  0  0  0  0
  193.8390  176.5580  145.1520 C   0  0  0  0  0  3  0  0  0  0  0  0
  191.8020  175.7810  143.4260 C   0  0  0  0  0  0  0  0  0  0  0  0
  190.3130  175.7560  145.3820 C   0  0  0  0  0  2  0  0  0  0  0  0
  195.0770  176.3520  142.4540 C   0  0  1  0  0  3  0  0  0  0  0  0
  196.8270  175.4870  143.7310 C   0  0  0  0  0  3  0  0  0  0  0  0
  195.8060  176.3230  143.7810 C   0  0  2  0  0  3  0  0  0  0  0  0
  188.2250  175.9130  143.3180 C   0  0  1  0  0  0  0  0  0  0  0  0
  187.1280  175.8220  142.4070 C   0  0  0  0  0  2  0  0  0  0  0  0
  188.9330  176.3000  145.6530 C   0  0  0  0  0  3  0  0  0  0  0  0
  189.9820  172.7820  142.2550 C   0  0  2  0  0  3  0  0  0  0  0  0
  189.2320  173.6120  143.2810 C   0  0  2  0  0  3  0  0  0  0  0  0
  188.4900  172.9950  142.1130 C   0  0  0  0  0  2  0  0  0  0  0  0
  190.2420  171.4340  142.8390 C   0  0  0  0  0  3  0  0  0  0  0  0
  191.3880  171.0750  143.4200 C   0  0  0  0  0  3  0  0  0  0  0  0
  192.8460  172.4790  144.7320 C   0  0  0  0  0  2  0  0  0  0  0  0
  193.4770  172.1120  142.5090 O   0  0  0  0  0  1  0  0  0  0  0  0
  192.5900  171.9160  143.5610 C   0  0  0  0  0  0  0  0  0  0  0  0
  186.6800  176.8370  145.0690 O   0  0  0  0  0  0  0  0  0  0  0  0
  186.4340  178.1960  145.4100 C   0  0  0  0  0  2  0  0  0  0  0  0
  185.6140  180.0210  144.1190 O   0  0  0  0  0  1  0  0  0  0  0  0
  185.5120  178.8000  144.4130 C   0  0  0  0  0  0  0  0  0  0  0  0
  184.5630  178.0080  143.7760 O   0  0  0  0  0  0  0  0  0  0  0  0
  1  5  1  0  0  0  0
  1 13  1  0  0  0  0
  2 29  1  0  0  0  0
  2 20  2  0  0  0  0
  3  8  1  0  0  0  0
  4 19  1  0  0  0  0
  4 18  1  0  0  0  0
  5 11  2  0  0  0  0
  6 22  1  0  0  0  0
  6 18  1  0  0  0  0
  6  9  1  1  0  0  0
  7  4  2  0  0  0  0
  8 16  2  0  0  0  0
  9 14  1  0  0  0  0
 10 12  2  0  0  0  0
 11 12  1  0  0  0  0
 13  9  2  0  0  0  0
 13 11  1  0  0  0  0
 14 20  1  0  0  0  0
 15  3  1  6  0  0  0
 15  5  1  0  0  0  0
 15 17  1  0  0  0  0
 17 16  1  1  0  0  0
 17 10  1  0  0  0  0
 18 19  1  6  0  0  0
 18  2  1  0  0  0  0
 21 24  1  1  0  0  0
 21 22  1  0  0  0  0
 22 23  1  6  0  0  0
 23 21  1  0  0  0  0
 24 25  2  0  0  0  0
 25 28  1  0  0  0  0
 27 28  1  0  0  0  0
 28 26  2  0  0  0  0
 29 30  1  0  0  0  0
 31 32  1  0  0  0  0
 32 30  1  0  0  0  0
 33 32  2  0  0  0  0
M  END
>  <MODEL>
2

>  <REMARK>
 VINA RESULT:      -6.8      2.568      7.881
  Name = 
  6 active torsions:
  status: ('A' for Active; 'I' for Inactive)
    1  A    between atoms: C_2  and  O_19
    2  A    between atoms: C_4  and  C_7
    3  A    between atoms: C_9  and  C_12
    4  A    between atoms: C_11  and  C_25
    5  A    between atoms: O_19  and  C_25
    6  A    between atoms: C_24  and  C_28
                            x       y       z     vdW  Elec       q    Type
                         _______ _______ _______ _____ _____    ______ ____

>  <TORSDO>
F 6

$$$$
=
 OpenBabel11042416153D

 33 38  0  0  1  0  0  0  0  0999 V2000
  189.1320  175.7740  146.1930 N   0  0  0  0  0  2  0  0  0  0  0  0
  193.2920  175.2050  143.1370 C   0  0  0  0  0  0  0  0  0  0  0  0
  185.9510  176.7850  147.1260 C   0  0  0  0  0  2  0  0  0  0  0  0
  193.6150  175.0690  145.6320 C   0  0  0  0  0  0  0  0  0  0  0  0
  188.1580  176.7850  145.9190 C   0  0  0  0  0  0  0  0  0  0  0  0
  191.4050  174.2680  144.6960 C   0  0  2  0  0  3  0  0  0  0  0  0
  193.8650  176.0350  146.5090 C   0  0  0  0  0  2  0  0  0  0  0  0
  184.8150  177.0940  146.5100 C   0  0  0  0  0  3  0  0  0  0  0  0
  190.6370  175.4450  144.1720 C   0  0  0  0  0  0  0  0  0  0  0  0
  187.0570  178.6660  144.1800 N   0  0  0  0  0  0  0  0  0  0  0  0
  188.6830  177.0370  144.7290 C   0  0  0  0  0  0  0  0  0  0  0  0
  188.1730  178.0720  143.8270 C   0  0  0  0  0  3  0  0  0  0  0  0
  189.6640  175.9840  144.9000 C   0  0  0  0  0  0  0  0  0  0  0  0
  190.9070  175.9360  142.7790 C   0  0  0  0  0  2  0  0  0  0  0  0
  187.0670  177.5810  146.5440 C   0  0  1  0  0  3  0  0  0  0  0  0
  185.0780  178.0180  145.4090 C   0  0  0  0  0  3  0  0  0  0  0  0
  186.3690  178.2940  145.4060 C   0  0  2  0  0  3  0  0  0  0  0  0
  192.8900  174.5060  144.4130 C   0  0  1  0  0  0  0  0  0  0  0  0
  193.8450  173.6630  145.0610 C   0  0  0  0  0  2  0  0  0  0  0  0
  192.3730  175.8810  142.4260 C   0  0  0  0  0  3  0  0  0  0  0  0
  189.4100  172.9270  144.0610 C   0  0  2  0  0  3  0  0  0  0  0  0
  190.9260  172.9930  144.0110 C   0  0  2  0  0  3  0  0  0  0  0  0
  190.2380  172.0890  145.0120 C   0  0  0  0  0  2  0  0  0  0  0  0
  188.9370  172.0790  142.9280 C   0  0  0  0  0  3  0  0  0  0  0  0
  188.3810  172.5570  141.8130 C   0  0  0  0  0  3  0  0  0  0  0  0
  188.5660  174.4930  140.3870 C   0  0  0  0  0  2  0  0  0  0  0  0
  187.3680  174.7760  142.3770 O   0  0  0  0  0  1  0  0  0  0  0  0
  188.1110  173.9760  141.5170 C   0  0  0  0  0  0  0  0  0  0  0  0
  194.6320  175.1690  142.7300 O   0  0  0  0  0  0  0  0  0  0  0  0
  195.3960  176.3390  142.4640 C   0  0  0  0  0  2  0  0  0  0  0  0
  197.2040  177.4810  143.5130 O   0  0  0  0  0  0  0  0  0  0  0  0
  196.5340  176.4180  143.4180 C   0  0  0  0  0  0  0  0  0  0  0  0
  196.8340  175.3320  144.2320 O   0  0  0  0  0  1  0  0  0  0  0  0
  2 18  1  0  0  0  0
  4  7  2  0  0  0  0
  5  1  1  0  0  0  0
  5 15  1  0  0  0  0
  6  9  1  6  0  0  0
  8  3  1  0  0  0  0
  9 13  2  0  0  0  0
 10 17  1  0  0  0  0
 11 13  1  0  0  0  0
 11  5  2  0  0  0  0
 12 10  2  0  0  0  0
 12 11  1  0  0  0  0
 13  1  1  0  0  0  0
 14  9  1  0  0  0  0
 15  3  1  6  0  0  0
 16  8  2  0  0  0  0
 17 16  1  6  0  0  0
 17 15  1  0  0  0  0
 18  6  1  0  0  0  0
 18 19  1  6  0  0  0
 18  4  1  0  0  0  0
 19  4  1  0  0  0  0
 20 14  1  0  0  0  0
 20  2  2  0  0  0  0
 21 24  1  6  0  0  0
 21 23  1  0  0  0  0
 22 21  1  0  0  0  0
 22  6  1  0  0  0  0
 22 23  1  1  0  0  0
 25 24  2  0  0  0  0
 26 28  2  0  0  0  0
 28 25  1  0  0  0  0
 28 27  1  0  0  0  0
 29  2  1  0  0  0  0
 30 29  1  0  0  0  0
 30 32  1  0  0  0  0
 32 31  2  0  0  0  0
 32 33  1  0  0  0  0
M  END
>  <MODEL>
3

>  <REMARK>
 VINA RESULT:      -6.8      2.334      4.299
  Name = 
  6 active torsions:
  status: ('A' for Active; 'I' for Inactive)
    1  A    between atoms: C_2  and  O_19
    2  A    between atoms: C_4  and  C_7
    3  A    between atoms: C_9  and  C_12
    4  A    between atoms: C_11  and  C_25
    5  A    between atoms: O_19  and  C_25
    6  A    between atoms: C_24  and  C_28
                            x       y       z     vdW  Elec       q    Type
                         _______ _______ _______ _____ _____    ______ ____

>  <TORSDO>
F 6

$$$$
=
 OpenBabel11042416153D

 33 38  0  0  1  0  0  0  0  0999 V2000
  192.6340  172.6600  144.9110 N   0  0  0  0  0  2  0  0  0  0  0  0
  189.7000  176.9440  144.8840 C   0  0  0  0  0  0  0  0  0  0  0  0
  194.3560  169.9430  143.6210 C   0  0  0  0  0  2  0  0  0  0  0  0
  189.7890  175.5700  146.9940 C   0  0  0  0  0  0  0  0  0  0  0  0
  192.6340  171.7680  143.7920 C   0  0  0  0  0  0  0  0  0  0  0  0
  191.8570  175.6050  145.5360 C   0  0  2  0  0  3  0  0  0  0  0  0
  189.0340  174.5440  147.3720 C   0  0  0  0  0  2  0  0  0  0  0  0
  194.9180  169.6150  142.4620 C   0  0  0  0  0  3  0  0  0  0  0  0
  191.5710  174.8740  144.2590 C   0  0  0  0  0  0  0  0  0  0  0  0
  192.0000  171.2390  141.1290 N   0  0  0  0  0  0  0  0  0  0  0  0
  191.9700  172.6330  143.0410 C   0  0  0  0  0  0  0  0  0  0  0  0
  191.5550  172.3520  141.6640 C   0  0  0  0  0  3  0  0  0  0  0  0
  191.9830  173.6200  144.1020 C   0  0  0  0  0  0  0  0  0  0  0  0
  190.9110  175.6050  143.1260 C   0  0  0  0  0  2  0  0  0  0  0  0
  192.9490  170.3700  143.3900 C   0  0  1  0  0  3  0  0  0  0  0  0
  193.9980  169.8960  141.3620 C   0  0  0  0  0  3  0  0  0  0  0  0
  192.8680  170.3450  141.8790 C   0  0  2  0  0  3  0  0  0  0  0  0
  190.5860  176.3490  145.9520 C   0  0  1  0  0  0  0  0  0  0  0  0
  190.5210  176.8900  147.2730 C   0  0  0  0  0  2  0  0  0  0  0  0
  189.8460  176.5610  143.6040 C   0  0  0  0  0  3  0  0  0  0  0  0
  194.3300  175.8540  145.4650 C   0  0  2  0  0  3  0  0  0  0  0  0
  193.0070  176.5850  145.3230 C   0  0  2  0  0  3  0  0  0  0  0  0
  193.8180  176.7210  146.5950 C   0  0  0  0  0  2  0  0  0  0  0  0
  195.3640  176.5990  144.6900 C   0  0  0  0  0  3  0  0  0  0  0  0
  195.7180  176.3090  143.4360 C   0  0  0  0  0  3  0  0  0  0  0  0
  194.3380  175.4850  141.6390 C   0  0  0  0  0  2  0  0  0  0  0  0
  195.5670  173.8860  142.8250 O   0  0  0  0  0  1  0  0  0  0  0  0
  195.1850  175.2060  142.6170 C   0  0  0  0  0  0  0  0  0  0  0  0
  188.7090  177.8630  145.2510 O   0  0  0  0  0  0  0  0  0  0  0  0
  187.3250  177.6590  144.9950 C   0  0  0  0  0  2  0  0  0  0  0  0
  187.0780  177.8470  147.3550 O   0  0  0  0  0  1  0  0  0  0  0  0
  186.6150  177.3950  146.2740 C   0  0  0  0  0  0  0  0  0  0  0  0
  185.4210  176.6830  146.2730 O   0  0  0  0  0  0  0  0  0  0  0  0
  2 29  1  0  0  0  0
  2 18  1  0  0  0  0
  4 19  1  0  0  0  0
  4  7  2  0  0  0  0
  5  1  1  0  0  0  0
  6  9  1  6  0  0  0
  6 18  1  0  0  0  0
  8  3  1  0  0  0  0
 10 12  2  0  0  0  0
 10 17  1  0  0  0  0
 11  5  2  0  0  0  0
 11 13  1  0  0  0  0
 12 11  1  0  0  0  0
 13  9  2  0  0  0  0
 13  1  1  0  0  0  0
 14 20  1  0  0  0  0
 14  9  1  0  0  0  0
 15  3  1  6  0  0  0
 15  5  1  0  0  0  0
 16  8  2  0  0  0  0
 17 16  1  6  0  0  0
 17 15  1  0  0  0  0
 18  4  1  0  0  0  0
 18 19  1  1  0  0  0
 20  2  2  0  0  0  0
 21 24  1  6  0  0  0
 21 23  1  0  0  0  0
 22 21  1  0  0  0  0
 22  6  1  0  0  0  0
 22 23  1  1  0  0  0
 25 24  2  0  0  0  0
 26 28  2  0  0  0  0
 28 27  1  0  0  0  0
 28 25  1  0  0  0  0
 30 29  1  0  0  0  0
 30 32  1  0  0  0  0
 32 31  1  0  0  0  0
 33 32  2  0  0  0  0
M  END
>  <MODEL>
4

>  <REMARK>
 VINA RESULT:      -6.5      2.540      7.268
  Name = 
  6 active torsions:
  status: ('A' for Active; 'I' for Inactive)
    1  A    between atoms: C_2  and  O_19
    2  A    between atoms: C_4  and  C_7
    3  A    between atoms: C_9  and  C_12
    4  A    between atoms: C_11  and  C_25
    5  A    between atoms: O_19  and  C_25
    6  A    between atoms: C_24  and  C_28
                            x       y       z     vdW  Elec       q    Type
                         _______ _______ _______ _____ _____    ______ ____

>  <TORSDO>
F 6

$$$$
=
 OpenBabel11042416153D

 33 38  0  0  1  0  0  0  0  0999 V2000
  192.8720  173.9880  142.5990 N   0  0  0  0  0  2  0  0  0  0  0  0
  188.7390  177.1270  142.4550 C   0  0  0  0  0  0  0  0  0  0  0  0
  196.2190  173.0890  142.5910 C   0  0  0  0  0  2  0  0  0  0  0  0
  188.4390  174.7250  141.7570 C   0  0  0  0  0  0  0  0  0  0  0  0
  194.1470  174.4380  142.1300 C   0  0  0  0  0  0  0  0  0  0  0  0
  190.1720  175.2170  143.5330 C   0  0  2  0  0  3  0  0  0  0  0  0
  188.5840  174.1640  140.5620 C   0  0  0  0  0  2  0  0  0  0  0  0
  197.3770  173.6640  142.9020 C   0  0  0  0  0  3  0  0  0  0  0  0
  191.3120  175.9680  142.9140 C   0  0  0  0  0  0  0  0  0  0  0  0
  195.8330  176.5150  141.3470 N   0  0  0  0  0  0  0  0  0  0  0  0
  193.7300  175.6920  142.0510 C   0  0  0  0  0  0  0  0  0  0  0  0
  194.5690  176.7920  141.5700 C   0  0  0  0  0  3  0  0  0  0  0  0
  192.4300  175.3310  142.5830 C   0  0  0  0  0  0  0  0  0  0  0  0
  191.2160  177.4610  142.7710 C   0  0  0  0  0  2  0  0  0  0  0  0
  195.4680  173.9560  141.6430 C   0  0  1  0  0  3  0  0  0  0  0  0
  197.4540  174.9910  142.2950 C   0  0  0  0  0  3  0  0  0  0  0  0
  196.3580  175.1790  141.5820 C   0  0  2  0  0  3  0  0  0  0  0  0
  188.8780  175.6800  142.8630 C   0  0  1  0  0  0  0  0  0  0  0  0
  187.6910  174.9150  143.0830 C   0  0  0  0  0  2  0  0  0  0  0  0
  189.8280  177.9110  142.3880 C   0  0  0  0  0  3  0  0  0  0  0  0
  191.1560  174.6250  145.7390 C   0  0  2  0  0  3  0  0  0  0  0  0
  190.1280  175.4910  145.0330 C   0  0  2  0  0  3  0  0  0  0  0  0
  189.6910  174.2460  145.7780 C   0  0  0  0  0  2  0  0  0  0  0  0
  191.5360  175.2920  147.0180 C   0  0  0  0  0  3  0  0  0  0  0  0
  192.6670  175.9790  147.2000 C   0  0  0  0  0  3  0  0  0  0  0  0
  194.7190  175.2900  146.1380 C   0  0  0  0  0  2  0  0  0  0  0  0
  193.7220  177.2390  145.3120 O   0  0  0  0  0  1  0  0  0  0  0  0
  193.7350  176.1730  146.2030 C   0  0  0  0  0  0  0  0  0  0  0  0
  187.4730  177.6230  142.1150 O   0  0  0  0  0  0  0  0  0  0  0  0
  186.8550  178.7090  142.7960 C   0  0  0  0  0  2  0  0  0  0  0  0
  186.8880  178.2140  145.1250 O   0  0  0  0  0  1  0  0  0  0  0  0
  186.2290  178.2170  144.0510 C   0  0  0  0  0  0  0  0  0  0  0  0
  184.9040  177.7960  144.0480 O   0  0  0  0  0  0  0  0  0  0  0  0
  2 18  1  0  0  0  0
  3  8  1  0  0  0  0
  4 18  1  0  0  0  0
  4 19  1  0  0  0  0
  5  1  1  0  0  0  0
  6  9  1  6  0  0  0
  6 22  1  0  0  0  0
  7  4  2  0  0  0  0
 10 12  2  0  0  0  0
 10 17  1  0  0  0  0
 11  5  2  0  0  0  0
 11 13  1  0  0  0  0
 12 11  1  0  0  0  0
 13  1  1  0  0  0  0
 13  9  2  0  0  0  0
 14  9  1  0  0  0  0
 15  5  1  0  0  0  0
 15  3  1  1  0  0  0
 16  8  2  0  0  0  0
 17 15  1  0  0  0  0
 17 16  1  1  0  0  0
 18 19  1  1  0  0  0
 18  6  1  0  0  0  0
 20  2  2  0  0  0  0
 20 14  1  0  0  0  0
 21 23  1  0  0  0  0
 21 24  1  1  0  0  0
 22 21  1  0  0  0  0
 22 23  1  1  0  0  0
 24 25  2  0  0  0  0
 26 28  2  0  0  0  0
 27 28  1  0  0  0  0
 28 25  1  0  0  0  0
 29  2  1  0  0  0  0
 29 30  1  0  0  0  0
 30 32  1  0  0  0  0
 32 31  1  0  0  0  0
 33 32  2  0  0  0  0
M  END
>  <MODEL>
5

>  <REMARK>
 VINA RESULT:      -6.3      2.628      7.473
  Name = 
  6 active torsions:
  status: ('A' for Active; 'I' for Inactive)
    1  A    between atoms: C_2  and  O_19
    2  A    between atoms: C_4  and  C_7
    3  A    between atoms: C_9  and  C_12
    4  A    between atoms: C_11  and  C_25
    5  A    between atoms: O_19  and  C_25
    6  A    between atoms: C_24  and  C_28
                            x       y       z     vdW  Elec       q    Type
                         _______ _______ _______ _____ _____    ______ ____

>  <TORSDO>
F 6

$$$$
=
 OpenBabel11042416153D

 33 38  0  0  1  0  0  0  0  0999 V2000
  192.2240  172.5140  144.4960 N   0  0  0  0  0  2  0  0  0  0  0  0
  188.6480  176.2540  144.0560 C   0  0  0  0  0  0  0  0  0  0  0  0
  193.9870  169.6480  143.6650 C   0  0  0  0  0  2  0  0  0  0  0  0
  189.5950  175.7680  146.3400 C   0  0  0  0  0  0  0  0  0  0  0  0
  192.0730  171.2740  143.7980 C   0  0  0  0  0  0  0  0  0  0  0  0
  191.1140  175.4150  144.3480 C   0  0  2  0  0  3  0  0  0  0  0  0
  189.1880  174.9020  147.2610 C   0  0  0  0  0  2  0  0  0  0  0  0
  194.2470  168.9580  142.5590 C   0  0  0  0  0  3  0  0  0  0  0  0
  190.6190  174.2440  143.5540 C   0  0  0  0  0  0  0  0  0  0  0  0
  190.8170  169.7520  141.8280 N   0  0  0  0  0  0  0  0  0  0  0  0
  191.0700  171.7480  143.0740 C   0  0  0  0  0  0  0  0  0  0  0  0
  190.3410  170.9490  142.0860 C   0  0  0  0  0  3  0  0  0  0  0  0
  191.1990  173.0550  143.6860 C   0  0  0  0  0  0  0  0  0  0  0  0
  189.5370  174.4540  142.5330 C   0  0  0  0  0  2  0  0  0  0  0  0
  192.5180  169.8540  143.7930 C   0  0  1  0  0  3  0  0  0  0  0  0
  193.0150  168.7430  141.8030 C   0  0  0  0  0  3  0  0  0  0  0  0
  192.0160  169.2660  142.4920 C   0  0  2  0  0  3  0  0  0  0  0  0
  189.8980  176.1640  144.8980 C   0  0  1  0  0  0  0  0  0  0  0  0
  190.1120  177.1480  145.9120 C   0  0  0  0  0  2  0  0  0  0  0  0
  188.4930  175.4370  143.0010 C   0  0  0  0  0  3  0  0  0  0  0  0
  193.3450  175.7530  143.3020 C   0  0  2  0  0  3  0  0  0  0  0  0
  191.9480  176.3290  143.4560 C   0  0  2  0  0  3  0  0  0  0  0  0
  193.1030  176.9150  144.2430 C   0  0  0  0  0  2  0  0  0  0  0  0
  193.9230  176.2560  142.0230 C   0  0  0  0  0  3  0  0  0  0  0  0
  195.2300  176.4120  141.7990 C   0  0  0  0  0  3  0  0  0  0  0  0
  196.7680  174.9130  142.8960 C   0  0  0  0  0  2  0  0  0  0  0  0
  196.8900  177.1660  143.5140 O   0  0  0  0  0  1  0  0  0  0  0  0
  196.3130  176.1490  142.7630 C   0  0  0  0  0  0  0  0  0  0  0  0
  187.6480  177.1670  144.4130 O   0  0  0  0  0  0  0  0  0  0  0  0
  186.2970  176.7890  144.6480 C   0  0  0  0  0  2  0  0  0  0  0  0
  184.8130  176.7640  146.5100 O   0  0  0  0  0  0  0  0  0  0  0  0
  185.9130  177.1550  146.0370 C   0  0  0  0  0  0  0  0  0  0  0  0
  186.7860  177.8950  146.8270 O   0  0  0  0  0  1  0  0  0  0  0  0
  2 29  1  0  0  0  0
  2 18  1  0  0  0  0
  4  7  2  0  0  0  0
  5  1  1  0  0  0  0
  6  9  1  6  0  0  0
  6 18  1  0  0  0  0
  8  3  1  0  0  0  0
  9 13  2  0  0  0  0
 10 12  2  0  0  0  0
 10 17  1  0  0  0  0
 11 13  1  0  0  0  0
 11  5  2  0  0  0  0
 12 11  1  0  0  0  0
 13  1  1  0  0  0  0
 14 20  1  0  0  0  0
 14  9  1  0  0  0  0
 15  3  1  6  0  0  0
 15  5  1  0  0  0  0
 16  8  2  0  0  0  0
 17 16  1  6  0  0  0
 17 15  1  0  0  0  0
 18 19  1  1  0  0  0
 18  4  1  0  0  0  0
 19  4  1  0  0  0  0
 20  2  2  0  0  0  0
 21 24  1  6  0  0  0
 21 22  1  0  0  0  0
 21 23  1  0  0  0  0
 22 23  1  1  0  0  0
 22  6  1  0  0  0  0
 25 24  2  0  0  0  0
 25 28  1  0  0  0  0
 28 26  2  0  0  0  0
 28 27  1  0  0  0  0
 29 30  1  0  0  0  0
 30 32  1  0  0  0  0
 32 31  2  0  0  0  0
 32 33  1  0  0  0  0
M  END
>  <MODEL>
6

>  <REMARK>
 VINA RESULT:      -6.1      2.943      7.665
  Name = 
  6 active torsions:
  status: ('A' for Active; 'I' for Inactive)
    1  A    between atoms: C_2  and  O_19
    2  A    between atoms: C_4  and  C_7
    3  A    between atoms: C_9  and  C_12
    4  A    between atoms: C_11  and  C_25
    5  A    between atoms: O_19  and  C_25
    6  A    between atoms: C_24  and  C_28
                            x       y       z     vdW  Elec       q    Type
                         _______ _______ _______ _____ _____    ______ ____

>  <TORSDO>
F 6

$$$$
=
 OpenBabel11042416153D

 33 38  0  0  1  0  0  0  0  0999 V2000
  189.9100  175.8490  145.0690 N   0  0  0  0  0  2  0  0  0  0  0  0
  194.7320  175.4840  143.1760 C   0  0  0  0  0  0  0  0  0  0  0  0
  186.5320  176.6210  145.1140 C   0  0  0  0  0  2  0  0  0  0  0  0
  194.4300  175.5200  145.6780 C   0  0  0  0  0  0  0  0  0  0  0  0
  188.9640  176.7510  144.4870 C   0  0  0  0  0  0  0  0  0  0  0  0
  192.5890  174.4710  144.2950 C   0  0  2  0  0  3  0  0  0  0  0  0
  194.3810  176.5520  146.5120 C   0  0  0  0  0  2  0  0  0  0  0  0
  185.5660  176.7910  144.2170 C   0  0  0  0  0  3  0  0  0  0  0  0
  191.8930  175.5420  143.5090 C   0  0  0  0  0  0  0  0  0  0  0  0
  188.1990  178.4230  142.3920 N   0  0  0  0  0  0  0  0  0  0  0  0
  189.7500  176.9810  143.4460 C   0  0  0  0  0  0  0  0  0  0  0  0
  189.4090  177.9130  142.3690 C   0  0  0  0  0  3  0  0  0  0  0  0
  190.7320  176.0320  143.9330 C   0  0  0  0  0  0  0  0  0  0  0  0
  192.4660  175.9760  142.1900 C   0  0  0  0  0  2  0  0  0  0  0  0
  187.6970  177.4800  144.7630 C   0  0  1  0  0  3  0  0  0  0  0  0
  186.0280  177.6710  143.1450 C   0  0  0  0  0  3  0  0  0  0  0  0
  187.2550  178.0620  143.4370 C   0  0  2  0  0  3  0  0  0  0  0  0
  194.0760  174.8250  144.3660 C   0  0  1  0  0  0  0  0  0  0  0  0
  194.8970  174.1100  145.2910 C   0  0  0  0  0  2  0  0  0  0  0  0
  193.9730  176.0330  142.2130 C   0  0  0  0  0  3  0  0  0  0  0  0
  191.0730  172.5140  144.0600 C   0  0  2  0  0  3  0  0  0  0  0  0
  192.3910  173.1210  143.6130 C   0  0  2  0  0  3  0  0  0  0  0  0
  192.3750  172.0130  144.6460 C   0  0  0  0  0  2  0  0  0  0  0  0
  190.6050  171.5730  143.0010 C   0  0  0  0  0  3  0  0  0  0  0  0
  189.8230  171.9230  141.9770 C   0  0  0  0  0  3  0  0  0  0  0  0
  188.1780  173.6400  142.3790 C   0  0  0  0  0  2  0  0  0  0  0  0
  189.8730  174.1590  140.8520 O   0  0  0  0  0  1  0  0  0  0  0  0
  189.2680  173.2650  141.7280 C   0  0  0  0  0  0  0  0  0  0  0  0
  196.1300  175.5460  143.1140 O   0  0  0  0  0  0  0  0  0  0  0  0
  196.9310  174.5050  142.5660 C   0  0  0  0  0  2  0  0  0  0  0  0
  197.2280  176.0530  140.7820 O   0  0  0  0  0  1  0  0  0  0  0  0
  197.3290  174.8620  141.1790 C   0  0  0  0  0  0  0  0  0  0  0  0
  197.8480  173.8890  140.3330 O   0  0  0  0  0  0  0  0  0  0  0  0
  2 18  1  0  0  0  0
  4  7  2  0  0  0  0
  5 15  1  0  0  0  0
  5  1  1  0  0  0  0
  6  9  1  6  0  0  0
  6 18  1  0  0  0  0
  8  3  1  0  0  0  0
  9 13  2  0  0  0  0
 10 17  1  0  0  0  0
 11 13  1  0  0  0  0
 11  5  2  0  0  0  0
 12 10  2  0  0  0  0
 12 11  1  0  0  0  0
 13  1  1  0  0  0  0
 14 20  1  0  0  0  0
 14  9  1  0  0  0  0
 15  3  1  6  0  0  0
 16  8  2  0  0  0  0
 17 16  1  6  0  0  0
 17 15  1  0  0  0  0
 18 19  1  1  0  0  0
 18  4  1  0  0  0  0
 19  4  1  0  0  0  0
 20  2  2  0  0  0  0
 21 24  1  6  0  0  0
 21 23  1  0  0  0  0
 22 21  1  0  0  0  0
 22  6  1  0  0  0  0
 22 23  1  1  0  0  0
 25 24  2  0  0  0  0
 27 28  1  0  0  0  0
 28 25  1  0  0  0  0
 28 26  2  0  0  0  0
 29  2  1  0  0  0  0
 30 29  1  0  0  0  0
 31 32  1  0  0  0  0
 32 30  1  0  0  0  0
 33 32  2  0  0  0  0
M  END
>  <MODEL>
7

>  <REMARK>
 VINA RESULT:      -6.1      2.308      3.772
  Name = 
  6 active torsions:
  status: ('A' for Active; 'I' for Inactive)
    1  A    between atoms: C_2  and  O_19
    2  A    between atoms: C_4  and  C_7
    3  A    between atoms: C_9  and  C_12
    4  A    between atoms: C_11  and  C_25
    5  A    between atoms: O_19  and  C_25
    6  A    between atoms: C_24  and  C_28
                            x       y       z     vdW  Elec       q    Type
                         _______ _______ _______ _____ _____    ______ ____

>  <TORSDO>
F 6

$$$$
=
 OpenBabel11042416153D

 33 38  0  0  1  0  0  0  0  0999 V2000
  192.7640  174.3750  142.4900 N   0  0  0  0  0  2  0  0  0  0  0  0
  188.8450  176.2710  145.3200 C   0  0  0  0  0  0  0  0  0  0  0  0
  195.3550  172.2430  141.6200 C   0  0  0  0  0  2  0  0  0  0  0  0
  190.0520  177.8320  143.7540 C   0  0  0  0  0  0  0  0  0  0  0  0
  193.7250  173.4900  143.0740 C   0  0  0  0  0  0  0  0  0  0  0  0
  189.8880  175.3990  143.0790 C   0  0  2  0  0  3  0  0  0  0  0  0
  191.1280  178.5830  143.9660 C   0  0  0  0  0  2  0  0  0  0  0  0
  195.6960  170.9830  141.8690 C   0  0  0  0  0  3  0  0  0  0  0  0
  190.7320  174.5740  144.0020 C   0  0  0  0  0  0  0  0  0  0  0  0
  194.5020  171.8090  145.1580 N   0  0  0  0  0  0  0  0  0  0  0  0
  192.9930  173.3380  144.1670 C   0  0  0  0  0  0  0  0  0  0  0  0
  193.4110  172.5230  145.3100 C   0  0  0  0  0  3  0  0  0  0  0  0
  191.9400  174.1720  143.6210 C   0  0  0  0  0  0  0  0  0  0  0  0
  190.1580  174.1200  145.3140 C   0  0  0  0  0  2  0  0  0  0  0  0
  195.1030  172.9560  142.9020 C   0  0  1  0  0  3  0  0  0  0  0  0
  195.5950  170.7120  143.3010 C   0  0  0  0  0  3  0  0  0  0  0  0
  195.2410  171.8310  143.9050 C   0  0  2  0  0  3  0  0  0  0  0  0
  189.2630  176.5340  143.8930 C   0  0  1  0  0  0  0  0  0  0  0  0
  188.6440  177.6110  143.1870 C   0  0  0  0  0  2  0  0  0  0  0  0
  189.2960  175.1770  145.9580 C   0  0  0  0  0  3  0  0  0  0  0  0
  189.1580  174.2330  141.0070 C   0  0  2  0  0  3  0  0  0  0  0  0
  188.8030  174.5270  142.4540 C   0  0  2  0  0  3  0  0  0  0  0  0
  188.1120  175.2770  141.3330 C   0  0  0  0  0  2  0  0  0  0  0  0
  188.4900  172.9600  140.6080 C   0  0  0  0  0  3  0  0  0  0  0  0
  188.2380  172.6080  139.3450 C   0  0  0  0  0  3  0  0  0  0  0  0
  189.5320  173.0250  137.3530 C   0  0  0  0  0  2  0  0  0  0  0  0
  187.7990  174.5310  137.8040 O   0  0  0  0  0  1  0  0  0  0  0  0
  188.5410  173.4060  138.1440 C   0  0  0  0  0  0  0  0  0  0  0  0
  188.0190  177.1950  145.9720 O   0  0  0  0  0  0  0  0  0  0  0  0
  186.6750  176.9110  146.3410 C   0  0  0  0  0  2  0  0  0  0  0  0
  186.1450  178.9810  145.2900 O   0  0  0  0  0  0  0  0  0  0  0  0
  185.8440  178.1320  146.1710 C   0  0  0  0  0  0  0  0  0  0  0  0
  184.7130  178.3180  146.9580 O   0  0  0  0  0  1  0  0  0  0  0  0
  1  5  1  0  0  0  0
  1 13  1  0  0  0  0
  2 20  2  0  0  0  0
  2 29  1  0  0  0  0
  3  8  1  0  0  0  0
  4 18  1  0  0  0  0
  4  7  2  0  0  0  0
  5 11  2  0  0  0  0
  6 18  1  0  0  0  0
  6  9  1  1  0  0  0
  8 16  2  0  0  0  0
  9 14  1  0  0  0  0
 10 12  2  0  0  0  0
 11 12  1  0  0  0  0
 13  9  2  0  0  0  0
 13 11  1  0  0  0  0
 14 20  1  0  0  0  0
 15  3  1  6  0  0  0
 15  5  1  0  0  0  0
 15 17  1  0  0  0  0
 17 16  1  6  0  0  0
 17 10  1  0  0  0  0
 18 19  1  6  0  0  0
 18  2  1  0  0  0  0
 19  4  1  0  0  0  0
 21 24  1  6  0  0  0
 21 23  1  0  0  0  0
 21 22  1  0  0  0  0
 22 23  1  6  0  0  0
 22  6  1  0  0  0  0
 25 24  2  0  0  0  0
 26 28  2  0  0  0  0
 27 28  1  0  0  0  0
 28 25  1  0  0  0  0
 29 30  1  0  0  0  0
 31 32  2  0  0  0  0
 32 30  1  0  0  0  0
 32 33  1  0  0  0  0
M  END
>  <MODEL>
8

>  <REMARK>
 VINA RESULT:      -6.0      3.858      8.161
  Name = 
  6 active torsions:
  status: ('A' for Active; 'I' for Inactive)
    1  A    between atoms: C_2  and  O_19
    2  A    between atoms: C_4  and  C_7
    3  A    between atoms: C_9  and  C_12
    4  A    between atoms: C_11  and  C_25
    5  A    between atoms: O_19  and  C_25
    6  A    between atoms: C_24  and  C_28
                            x       y       z     vdW  Elec       q    Type
                         _______ _______ _______ _____ _____    ______ ____

>  <TORSDO>
F 6

$$$$
=
 OpenBabel11042416153D

 33 38  0  0  1  0  0  0  0  0999 V2000
  193.9320  175.3590  142.9770 N   0  0  0  0  0  2  0  0  0  0  0  0
  189.7310  176.3050  145.8790 C   0  0  0  0  0  0  0  0  0  0  0  0
  197.0770  174.1350  142.1890 C   0  0  0  0  0  2  0  0  0  0  0  0
  190.2080  177.8340  143.9340 C   0  0  0  0  0  0  0  0  0  0  0  0
  195.1760  175.0040  143.5880 C   0  0  0  0  0  0  0  0  0  0  0  0
  190.9110  175.4130  143.7160 C   0  0  2  0  0  3  0  0  0  0  0  0
  190.9440  178.9390  143.8830 C   0  0  0  0  0  2  0  0  0  0  0  0
  197.8670  173.1530  142.6110 C   0  0  0  0  0  3  0  0  0  0  0  0
  192.0420  175.1420  144.6620 C   0  0  0  0  0  0  0  0  0  0  0  0
  196.6120  174.1650  145.8250 N   0  0  0  0  0  0  0  0  0  0  0  0
  194.6030  174.8340  144.7700 C   0  0  0  0  0  0  0  0  0  0  0  0
  195.3440  174.4690  145.9790 C   0  0  0  0  0  3  0  0  0  0  0  0
  193.2940  175.1170  144.2160 C   0  0  0  0  0  0  0  0  0  0  0  0
  191.7370  174.7950  146.0910 C   0  0  0  0  0  2  0  0  0  0  0  0
  196.6440  174.9620  143.3490 C   0  0  1  0  0  3  0  0  0  0  0  0
  197.9400  173.1630  144.0710 C   0  0  0  0  0  3  0  0  0  0  0  0
  197.2310  174.1860  144.5090 C   0  0  2  0  0  3  0  0  0  0  0  0
  189.9550  176.3990  144.3890 C   0  0  1  0  0  0  0  0  0  0  0  0
  188.9520  177.0240  143.5850 C   0  0  0  0  0  2  0  0  0  0  0  0
  190.5800  175.5930  146.6390 C   0  0  0  0  0  3  0  0  0  0  0  0
  190.7930  173.5010  142.1310 C   0  0  2  0  0  3  0  0  0  0  0  0
  190.1920  174.1090  143.3850 C   0  0  2  0  0  3  0  0  0  0  0  0
  189.4700  174.2340  142.0580 C   0  0  0  0  0  2  0  0  0  0  0  0
  190.5500  172.0290  142.1580 C   0  0  0  0  0  3  0  0  0  0  0  0
  191.4270  171.1310  142.6130 C   0  0  0  0  0  3  0  0  0  0  0  0
  192.9750  171.4100  144.4410 C   0  0  0  0  0  2  0  0  0  0  0  0
  193.8480  171.6760  142.2860 O   0  0  0  0  0  1  0  0  0  0  0  0
  192.7750  171.4210  143.1320 C   0  0  0  0  0  0  0  0  0  0  0  0
  188.6560  176.9960  146.4540 O   0  0  0  0  0  0  0  0  0  0  0  0
  187.4450  176.3620  146.8460 C   0  0  0  0  0  2  0  0  0  0  0  0
  185.1380  176.5990  146.3060 O   0  0  0  0  0  1  0  0  0  0  0  0
  186.2880  177.1130  146.2910 C   0  0  0  0  0  0  0  0  0  0  0  0
  186.4700  178.3970  145.7910 O   0  0  0  0  0  0  0  0  0  0  0  0
  1  5  1  0  0  0  0
  1 13  1  0  0  0  0
  2 29  1  0  0  0  0
  2 20  2  0  0  0  0
  3  8  1  0  0  0  0
  4 18  1  0  0  0  0
  5 11  2  0  0  0  0
  6 18  1  0  0  0  0
  6  9  1  1  0  0  0
  7  4  2  0  0  0  0
  8 16  2  0  0  0  0
  9 14  1  0  0  0  0
 10 12  2  0  0  0  0
 11 12  1  0  0  0  0
 13  9  2  0  0  0  0
 13 11  1  0  0  0  0
 14 20  1  0  0  0  0
 15  3  1  6  0  0  0
 15  5  1  0  0  0  0
 15 17  1  0  0  0  0
 17 16  1  6  0  0  0
 17 10  1  0  0  0  0
 18 19  1  6  0  0  0
 18  2  1  0  0  0  0
 19  4  1  0  0  0  0
 21 24  1  1  0  0  0
 21 22  1  0  0  0  0
 22 23  1  6  0  0  0
 22  6  1  0  0  0  0
 23 21  1  0  0  0  0
 24 25  2  0  0  0  0
 25 28  1  0  0  0  0
 27 28  1  0  0  0  0
 28 26  2  0  0  0  0
 29 30  1  0  0  0  0
 32 31  1  0  0  0  0
 32 30  1  0  0  0  0
 33 32  2  0  0  0  0
M  END
>  <MODEL>
9

>  <REMARK>
 VINA RESULT:      -6.0      2.594      7.801
  Name = 
  6 active torsions:
  status: ('A' for Active; 'I' for Inactive)
    1  A    between atoms: C_2  and  O_19
    2  A    between atoms: C_4  and  C_7
    3  A    between atoms: C_9  and  C_12
    4  A    between atoms: C_11  and  C_25
    5  A    between atoms: O_19  and  C_25
    6  A    between atoms: C_24  and  C_28
                            x       y       z     vdW  Elec       q    Type
                         _______ _______ _______ _____ _____    ______ ____

>  <TORSDO>
F 6

$$$$
