=
 OpenBabel11042418583D

 41 44  0  0  1  0  0  0  0  0999 V2000
  186.5090  177.1300  145.7820 C   0  0  0  0  0  0  0  0  0  0  0  0
  189.0480  176.1910  144.1100 C   0  0  0  0  0  0  0  0  0  0  0  0
  189.2250  175.5850  145.4430 C   0  0  0  0  0  3  0  0  0  0  0  0
  186.8150  177.3000  144.4990 C   0  0  0  0  0  3  0  0  0  0  0  0
  187.9660  176.8740  143.6750 C   0  0  0  0  0  0  0  0  0  0  0  0
  188.4950  175.6590  146.5480 C   0  0  0  0  0  3  0  0  0  0  0  0
  187.2850  176.3890  146.7210 N   0  0  0  0  0  2  0  0  0  0  0  0
  189.9470  174.5280  142.3590 C   0  0  2  0  0  3  0  0  0  0  0  0
  190.9080  174.5800  143.5230 C   0  0  2  0  0  3  0  0  0  0  0  0
  190.1540  175.8440  143.1290 C   0  0  2  0  0  3  0  0  0  0  0  0
  188.8060  173.8270  142.7570 O   0  0  0  0  0  1  0  0  0  0  0  0
  192.3270  174.6640  142.9950 C   0  0  0  0  0  2  0  0  0  0  0  0
  192.8420  176.0930  143.0890 C   0  0  0  0  0  2  0  0  0  0  0  0
  194.6940  175.0740  141.9730 O   0  0  0  0  0  1  0  0  0  0  0  0
  194.3270  176.1710  142.7560 C   0  0  2  0  0  3  0  0  0  0  0  0
  195.1880  176.2300  144.0150 C   0  0  0  0  0  2  0  0  0  0  0  0
  194.3910  176.6060  145.1770 N   0  0  0  0  0  0  0  0  0  0  0  0
  194.8760  177.7910  145.6170 O   0  0  0  0  0  1  0  0  0  0  0  0
  194.6670  175.6310  146.2200 C   0  0  0  0  0  2  0  0  0  0  0  0
  195.5540  174.5140  145.6860 C   0  0  0  0  0  2  0  0  0  0  0  0
  195.7590  172.0360  145.4610 C   0  0  0  0  0  1  0  0  0  0  0  0
  194.7950  173.2000  145.5910 C   0  0  0  0  0  2  0  0  0  0  0  0
  185.2320  177.7250  146.2580 C   0  0  0  0  0  2  0  0  0  0  0  0
  185.3990  178.2520  147.6720 C   0  0  0  0  0  2  0  0  0  0  0  0
  185.9250  179.5420  147.6290 O   0  0  0  0  0  1  0  0  0  0  0  0
  187.9240  177.2140  142.3120 O   0  0  0  0  0  0  0  0  0  0  0  0
  187.0590  178.2050  141.7630 C   0  0  0  0  0  2  0  0  0  0  0  0
  186.3040  177.6490  140.5620 C   0  0  0  0  0  2  0  0  0  0  0  0
  184.8560  178.1280  140.5340 C   0  0  0  0  0  2  0  0  0  0  0  0
  184.3120  178.3280  141.9400 C   0  0  0  0  0  2  0  0  0  0  0  0
  182.7980  178.2430  141.9350 C   0  0  0  0  0  2  0  0  0  0  0  0
  182.2950  178.2050  140.5070 C   0  0  0  0  0  2  0  0  0  0  0  0
  180.9000  178.2290  140.5070 O   0  0  0  0  0  0  0  0  0  0  0  0
  179.5740  180.0310  141.0800 N   0  0  0  0  0  0  0  0  0  0  0  0
  179.2570  178.9870  142.1450 C   0  0  2  0  0  0  0  0  0  0  0  0
  177.9020  181.6020  140.2650 O   0  0  0  0  0  1  0  0  0  0  0  0
  180.0400  181.6100  139.4400 O   0  0  0  0  0  0  0  0  0  0  0  0
  180.5570  179.0750  141.5830 C   0  0  1  0  0  3  0  0  0  0  0  0
  178.1820  178.3050  141.4940 O   0  0  0  0  0  0  0  0  0  0  0  0
  179.1980  181.1070  140.2280 C   0  0  0  0  0  0  0  0  0  0  0  0
  179.0870  177.4770  142.0910 C   0  0  0  0  0  2  0  0  0  0  0  0
  1 23  1  0  0  0  0
  1  7  1  0  0  0  0
  2  3  1  0  0  0  0
  3  6  2  0  0  0  0
  4  1  2  0  0  0  0
  5  2  2  0  0  0  0
  5  4  1  0  0  0  0
  6  7  1  0  0  0  0
  8 11  1  1  0  0  0
  8 10  1  0  0  0  0
  8  9  1  0  0  0  0
  9 12  1  6  0  0  0
 10  9  1  0  0  0  0
 10  2  1  1  0  0  0
 12 13  1  0  0  0  0
 15 14  1  1  0  0  0
 15 13  1  0  0  0  0
 15 16  1  0  0  0  0
 16 17  1  0  0  0  0
 17 18  1  0  0  0  0
 17 19  1  0  0  0  0
 20 19  1  0  0  0  0
 21 22  1  0  0  0  0
 22 20  1  0  0  0  0
 23 24  1  0  0  0  0
 25 24  1  0  0  0  0
 26  5  1  0  0  0  0
 27 26  1  0  0  0  0
 28 27  1  0  0  0  0
 29 28  1  0  0  0  0
 29 30  1  0  0  0  0
 31 30  1  0  0  0  0
 32 33  1  0  0  0  0
 32 31  1  0  0  0  0
 34 38  1  0  0  0  0
 34 35  1  0  0  0  0
 35 41  1  1  0  0  0
 37 40  2  0  0  0  0
 38 33  1  6  0  0  0
 38 35  1  0  0  0  0
 39 41  1  0  0  0  0
 39 35  1  0  0  0  0
 40 36  1  0  0  0  0
 40 34  1  0  0  0  0
M  END
>  <MODEL>
1

>  <REMARK>
 VINA RESULT:      -6.2      0.000      0.000
  Name = 
  20 active torsions:
  status: ('A' for Active; 'I' for Inactive)
    1  A    between atoms: C_1  and  C_22
    2  A    between atoms: C_1  and  O_28
    3  A    between atoms: C_4  and  C_12
    4  A    between atoms: C_4  and  C_22
    5  A    between atoms: C_5  and  C_12
    6  A    between atoms: C_5  and  C_25
    7  A    between atoms: C_6  and  C_30
    8  A    between atoms: C_7  and  C_14
    9  A    between atoms: C_7  and  C_40
   10  A    between atoms: C_9  and  C_30
   11  A    between atoms: C_10  and  C_18
   12  A    between atoms: C_11  and  N_34
   13  A    between atoms: C_11  and  C_40
   14  A    between atoms: C_14  and  C_17
   15  A    between atoms: O_16  and  C_25
   16  A    between atoms: O_16  and  C_27
   17  A    between atoms: C_20  and  O_28
   18  A    between atoms: C_26  and  C_35
   19  A    between atoms: C_26  and  C_39
   20  A    between atoms: N_34  and  C_39
                            x       y       z     vdW  Elec       q    Type
                         _______ _______ _______ _____ _____    ______ ____

>  <TORSDO>
F 20

$$$$
=
 OpenBabel11042418583D

 41 44  0  0  1  0  0  0  0  0999 V2000
  186.8240  177.5340  144.0190 C   0  0  0  0  0  0  0  0  0  0  0  0
  189.9550  177.7590  143.5040 C   0  0  0  0  0  0  0  0  0  0  0  0
  189.3390  177.9270  142.1750 C   0  0  0  0  0  3  0  0  0  0  0  0
  187.8440  177.5550  144.8710 C   0  0  0  0  0  2  0  0  0  0  0  0
  189.3060  177.6730  144.6870 C   0  0  0  0  0  0  0  0  0  0  0  0
  188.0730  177.8940  141.7820 C   0  0  0  0  0  3  0  0  0  0  0  0
  186.9310  177.6780  142.6040 N   0  0  0  0  0  0  0  0  0  0  0  0
  192.1910  176.6820  142.8110 C   0  0  2  0  0  3  0  0  0  0  0  0
  192.1340  176.7640  144.3180 C   0  0  2  0  0  3  0  0  0  0  0  0
  191.4700  177.8590  143.4920 C   0  0  2  0  0  3  0  0  0  0  0  0
  191.3240  175.6710  142.3890 O   0  0  0  0  0  1  0  0  0  0  0  0
  193.4630  177.2740  144.8410 C   0  0  0  0  0  2  0  0  0  0  0  0
  194.1050  176.2380  145.7520 C   0  0  0  0  0  2  0  0  0  0  0  0
  195.6730  176.3330  143.9500 O   0  0  0  0  0  1  0  0  0  0  0  0
  195.3470  175.6290  145.1130 C   0  0  2  0  0  3  0  0  0  0  0  0
  195.1530  174.1490  144.7930 C   0  0  0  0  0  2  0  0  0  0  0  0
  195.7970  173.3080  145.7950 N   0  0  0  0  0  0  0  0  0  0  0  0
  197.0330  173.8200  146.0010 O   0  0  0  0  0  1  0  0  0  0  0  0
  195.9840  171.9950  145.1980 C   0  0  0  0  0  2  0  0  0  0  0  0
  194.7500  171.5890  144.4040 C   0  0  0  0  0  2  0  0  0  0  0  0
  194.3160  169.1340  144.2550 C   0  0  0  0  0  1  0  0  0  0  0  0
  194.9980  170.3210  143.6020 C   0  0  0  0  0  2  0  0  0  0  0  0
  185.4610  177.3950  144.5970 C   0  0  0  0  0  2  0  0  0  0  0  0
  184.6330  178.6270  144.2810 C   0  0  0  0  0  2  0  0  0  0  0  0
  184.4940  179.4020  145.4310 O   0  0  0  0  0  1  0  0  0  0  0  0
  190.0880  177.6960  145.8540 O   0  0  0  0  0  0  0  0  0  0  0  0
  189.6250  177.2690  147.1330 C   0  0  0  0  0  2  0  0  0  0  0  0
  190.6880  176.4340  147.8360 C   0  0  0  0  0  2  0  0  0  0  0  0
  190.9010  175.0920  147.1430 C   0  0  0  0  0  2  0  0  0  0  0  0
  189.5820  174.4880  146.6880 C   0  0  0  0  0  2  0  0  0  0  0  0
  189.6190  174.2060  145.1990 C   0  0  0  0  0  2  0  0  0  0  0  0
  189.7970  172.7200  144.9670 C   0  0  0  0  0  2  0  0  0  0  0  0
  190.5730  172.5210  143.8240 O   0  0  0  0  0  0  0  0  0  0  0  0
  189.2860  172.6040  141.9090 N   0  0  0  0  0  0  0  0  0  0  0  0
  190.2260  171.4270  141.6700 C   0  0  2  0  0  0  0  0  0  0  0  0
  188.5160  174.0360  140.0960 O   0  0  0  0  0  0  0  0  0  0  0  0
  187.8730  174.4140  142.2640 O   0  0  0  0  0  1  0  0  0  0  0  0
  189.7660  171.7320  142.9780 C   0  0  1  0  0  3  0  0  0  0  0  0
  191.3180  172.1180  141.0580 O   0  0  0  0  0  0  0  0  0  0  0  0
  188.5300  173.7170  141.4480 C   0  0  0  0  0  0  0  0  0  0  0  0
  191.6950  171.1980  141.9930 C   0  0  0  0  0  2  0  0  0  0  0  0
  1 23  1  0  0  0  0
  1  4  1  0  0  0  0
  2  5  2  0  0  0  0
  3  2  1  0  0  0  0
  5  4  1  0  0  0  0
  5 26  1  0  0  0  0
  6  3  2  0  0  0  0
  6  7  1  0  0  0  0
  7  1  2  0  0  0  0
  8 11  1  6  0  0  0
  8 10  1  0  0  0  0
  8  9  1  0  0  0  0
  9 12  1  1  0  0  0
 10  2  1  6  0  0  0
 10  9  1  0  0  0  0
 12 13  1  0  0  0  0
 15 14  1  6  0  0  0
 15 13  1  0  0  0  0
 16 15  1  0  0  0  0
 16 17  1  0  0  0  0
 17 18  1  0  0  0  0
 19 17  1  0  0  0  0
 20 19  1  0  0  0  0
 22 21  1  0  0  0  0
 22 20  1  0  0  0  0
 24 23  1  0  0  0  0
 24 25  1  0  0  0  0
 26 27  1  0  0  0  0
 27 28  1  0  0  0  0
 29 28  1  0  0  0  0
 30 29  1  0  0  0  0
 31 30  1  0  0  0  0
 32 31  1  0  0  0  0
 33 32  1  0  0  0  0
 34 38  1  0  0  0  0
 35 34  1  0  0  0  0
 35 41  1  6  0  0  0
 35 38  1  0  0  0  0
 36 40  2  0  0  0  0
 38 33  1  1  0  0  0
 39 35  1  0  0  0  0
 39 41  1  0  0  0  0
 40 34  1  0  0  0  0
 40 37  1  0  0  0  0
M  END
>  <MODEL>
2

>  <REMARK>
 VINA RESULT:      -6.0      3.838      7.264
  Name = 
  20 active torsions:
  status: ('A' for Active; 'I' for Inactive)
    1  A    between atoms: C_1  and  C_22
    2  A    between atoms: C_1  and  O_28
    3  A    between atoms: C_4  and  C_12
    4  A    between atoms: C_4  and  C_22
    5  A    between atoms: C_5  and  C_12
    6  A    between atoms: C_5  and  C_25
    7  A    between atoms: C_6  and  C_30
    8  A    between atoms: C_7  and  C_14
    9  A    between atoms: C_7  and  C_40
   10  A    between atoms: C_9  and  C_30
   11  A    between atoms: C_10  and  C_18
   12  A    between atoms: C_11  and  N_34
   13  A    between atoms: C_11  and  C_40
   14  A    between atoms: C_14  and  C_17
   15  A    between atoms: O_16  and  C_25
   16  A    between atoms: O_16  and  C_27
   17  A    between atoms: C_20  and  O_28
   18  A    between atoms: C_26  and  C_35
   19  A    between atoms: C_26  and  C_39
   20  A    between atoms: N_34  and  C_39
                            x       y       z     vdW  Elec       q    Type
                         _______ _______ _______ _____ _____    ______ ____

>  <TORSDO>
F 20

$$$$
=
 OpenBabel11042418583D

 41 44  0  0  1  0  0  0  0  0999 V2000
  186.1340  177.1560  144.1740 C   0  0  0  0  0  0  0  0  0  0  0  0
  188.7680  175.4110  143.8040 C   0  0  0  0  0  0  0  0  0  0  0  0
  188.1520  175.4590  142.4650 C   0  0  0  0  0  3  0  0  0  0  0  0
  187.1150  176.8740  145.0260 C   0  0  0  0  0  2  0  0  0  0  0  0
  188.3600  176.0870  144.9010 C   0  0  0  0  0  0  0  0  0  0  0  0
  187.0290  176.0160  142.0320 C   0  0  0  0  0  3  0  0  0  0  0  0
  186.0900  176.7530  142.8070 N   0  0  0  0  0  0  0  0  0  0  0  0
  191.3160  175.4350  143.4210 C   0  0  2  0  0  3  0  0  0  0  0  0
  190.6880  174.4450  142.4680 C   0  0  2  0  0  3  0  0  0  0  0  0
  190.0730  174.6360  143.8500 C   0  0  2  0  0  3  0  0  0  0  0  0
  191.0190  176.7260  142.9780 O   0  0  0  0  0  1  0  0  0  0  0  0
  191.5070  173.1690  142.4620 C   0  0  0  0  0  2  0  0  0  0  0  0
  190.6450  171.9860  142.8770 C   0  0  0  0  0  2  0  0  0  0  0  0
  190.7160  169.7600  142.0100 O   0  0  0  0  0  1  0  0  0  0  0  0
  190.3500  171.0710  141.6940 C   0  0  2  0  0  3  0  0  0  0  0  0
  191.0740  171.5290  140.4300 C   0  0  0  0  0  2  0  0  0  0  0  0
  190.1320  171.7470  139.3390 N   0  0  0  0  0  0  0  0  0  0  0  0
  190.5690  171.0100  138.2900 O   0  0  0  0  0  1  0  0  0  0  0  0
  190.2490  173.1420  138.9440 C   0  0  0  0  0  2  0  0  0  0  0  0
  188.9490  173.8850  139.2180 C   0  0  0  0  0  2  0  0  0  0  0  0
  189.1260  174.2080  136.7470 C   0  0  0  0  0  1  0  0  0  0  0  0
  188.1810  174.1520  137.9320 C   0  0  0  0  0  2  0  0  0  0  0  0
  185.0170  177.9970  144.6810 C   0  0  0  0  0  2  0  0  0  0  0  0
  185.5480  179.3400  145.1490 C   0  0  0  0  0  2  0  0  0  0  0  0
  185.4540  180.2650  144.1110 O   0  0  0  0  0  1  0  0  0  0  0  0
  189.1920  176.0420  146.0320 O   0  0  0  0  0  0  0  0  0  0  0  0
  189.6720  177.1960  146.7170 C   0  0  0  0  0  2  0  0  0  0  0  0
  190.8750  176.8430  147.5830 C   0  0  0  0  0  2  0  0  0  0  0  0
  191.2670  175.3760  147.4340 C   0  0  0  0  0  2  0  0  0  0  0  0
  192.6370  175.2310  146.7900 C   0  0  0  0  0  2  0  0  0  0  0  0
  193.4050  176.5340  146.8920 C   0  0  0  0  0  2  0  0  0  0  0  0
  194.6410  176.4660  146.0200 C   0  0  0  0  0  2  0  0  0  0  0  0
  194.3160  175.8620  144.8040 O   0  0  0  0  0  0  0  0  0  0  0  0
  195.1290  173.8260  144.0780 N   0  0  0  0  0  0  0  0  0  0  0  0
  195.6520  174.8210  143.0470 C   0  0  2  0  0  0  0  0  0  0  0  0
  194.5220  171.5440  143.4850 O   0  0  0  0  0  0  0  0  0  0  0  0
  194.3090  172.3100  145.6360 O   0  0  0  0  0  1  0  0  0  0  0  0
  195.4970  175.2020  144.4060 C   0  0  1  0  0  3  0  0  0  0  0  0
  194.5600  174.8010  142.1250 O   0  0  0  0  0  0  0  0  0  0  0  0
  194.6390  172.5420  144.4440 C   0  0  0  0  0  0  0  0  0  0  0  0
  195.0380  176.0500  142.3950 C   0  0  0  0  0  2  0  0  0  0  0  0
  1 23  1  0  0  0  0
  1  4  1  0  0  0  0
  2  5  2  0  0  0  0
  3  2  1  0  0  0  0
  5  4  1  0  0  0  0
  5 26  1  0  0  0  0
  6  3  2  0  0  0  0
  6  7  1  0  0  0  0
  7  1  2  0  0  0  0
  8 11  1  6  0  0  0
  8 10  1  0  0  0  0
  9 12  1  1  0  0  0
  9  8  1  0  0  0  0
  9 10  1  0  0  0  0
 10  2  1  6  0  0  0
 12 13  1  0  0  0  0
 15 14  1  1  0  0  0
 15 13  1  0  0  0  0
 16 15  1  0  0  0  0
 17 16  1  0  0  0  0
 18 17  1  0  0  0  0
 19 20  1  0  0  0  0
 19 17  1  0  0  0  0
 21 22  1  0  0  0  0
 22 20  1  0  0  0  0
 23 24  1  0  0  0  0
 25 24  1  0  0  0  0
 26 27  1  0  0  0  0
 27 28  1  0  0  0  0
 29 28  1  0  0  0  0
 30 31  1  0  0  0  0
 30 29  1  0  0  0  0
 32 31  1  0  0  0  0
 33 32  1  0  0  0  0
 34 38  1  0  0  0  0
 34 40  1  0  0  0  0
 35 41  1  6  0  0  0
 35 34  1  0  0  0  0
 35 38  1  0  0  0  0
 36 40  2  0  0  0  0
 38 33  1  6  0  0  0
 39 41  1  0  0  0  0
 39 35  1  0  0  0  0
 40 37  1  0  0  0  0
M  END
>  <MODEL>
3

>  <REMARK>
 VINA RESULT:      -6.0      3.925     10.005
  Name = 
  20 active torsions:
  status: ('A' for Active; 'I' for Inactive)
    1  A    between atoms: C_1  and  C_22
    2  A    between atoms: C_1  and  O_28
    3  A    between atoms: C_4  and  C_12
    4  A    between atoms: C_4  and  C_22
    5  A    between atoms: C_5  and  C_12
    6  A    between atoms: C_5  and  C_25
    7  A    between atoms: C_6  and  C_30
    8  A    between atoms: C_7  and  C_14
    9  A    between atoms: C_7  and  C_40
   10  A    between atoms: C_9  and  C_30
   11  A    between atoms: C_10  and  C_18
   12  A    between atoms: C_11  and  N_34
   13  A    between atoms: C_11  and  C_40
   14  A    between atoms: C_14  and  C_17
   15  A    between atoms: O_16  and  C_25
   16  A    between atoms: O_16  and  C_27
   17  A    between atoms: C_20  and  O_28
   18  A    between atoms: C_26  and  C_35
   19  A    between atoms: C_26  and  C_39
   20  A    between atoms: N_34  and  C_39
                            x       y       z     vdW  Elec       q    Type
                         _______ _______ _______ _____ _____    ______ ____

>  <TORSDO>
F 20

$$$$
=
 OpenBabel11042418583D

 41 44  0  0  1  0  0  0  0  0999 V2000
  193.7660  174.3740  145.7820 C   0  0  0  0  0  0  0  0  0  0  0  0
  190.6650  175.0240  146.0720 C   0  0  0  0  0  0  0  0  0  0  0  0
  191.3540  176.1720  146.6910 C   0  0  0  0  0  3  0  0  0  0  0  0
  192.6980  173.7350  145.3150 C   0  0  0  0  0  3  0  0  0  0  0  0
  191.2470  174.0010  145.4070 C   0  0  0  0  0  0  0  0  0  0  0  0
  192.6410  176.4270  146.8830 C   0  0  0  0  0  3  0  0  0  0  0  0
  193.7380  175.6010  146.5100 N   0  0  0  0  0  2  0  0  0  0  0  0
  188.5630  175.9970  144.9430 C   0  0  2  0  0  3  0  0  0  0  0  0
  188.6790  176.5680  146.3370 C   0  0  2  0  0  3  0  0  0  0  0  0
  189.1520  175.1420  146.0800 C   0  0  2  0  0  3  0  0  0  0  0  0
  189.5370  176.5930  144.1380 O   0  0  0  0  0  1  0  0  0  0  0  0
  187.3190  176.5260  147.0070 C   0  0  0  0  0  2  0  0  0  0  0  0
  186.2140  176.6230  145.9670 C   0  0  0  0  0  2  0  0  0  0  0  0
  184.4400  177.8790  146.9630 O   0  0  0  0  0  1  0  0  0  0  0  0
  185.4920  177.9630  146.0470 C   0  0  2  0  0  3  0  0  0  0  0  0
  184.9660  178.4050  144.6830 C   0  0  0  0  0  2  0  0  0  0  0  0
  185.9390  179.2440  143.9930 N   0  0  0  0  0  0  0  0  0  0  0  0
  185.4720  180.5130  144.0510 O   0  0  0  0  0  1  0  0  0  0  0  0
  185.9210  178.8570  142.5910 C   0  0  0  0  0  2  0  0  0  0  0  0
  187.2020  178.1180  142.2260 C   0  0  0  0  0  2  0  0  0  0  0  0
  185.7650  177.7880  140.2090 C   0  0  0  0  0  1  0  0  0  0  0  0
  187.0730  177.4160  140.8830 C   0  0  0  0  0  2  0  0  0  0  0  0
  195.0970  173.7820  145.4790 C   0  0  0  0  0  2  0  0  0  0  0  0
  196.0070  174.8320  144.8690 C   0  0  0  0  0  2  0  0  0  0  0  0
  195.7820  174.9010  143.4950 O   0  0  0  0  0  1  0  0  0  0  0  0
  190.3990  173.1020  144.7390 O   0  0  0  0  0  0  0  0  0  0  0  0
  190.4910  172.8000  143.3490 C   0  0  0  0  0  2  0  0  0  0  0  0
  189.1410  172.3460  142.8090 C   0  0  0  0  0  2  0  0  0  0  0  0
  188.4680  173.4350  141.9790 C   0  0  0  0  0  2  0  0  0  0  0  0
  188.2590  172.9850  140.5420 C   0  0  0  0  0  2  0  0  0  0  0  0
  188.5260  174.1340  139.5880 C   0  0  0  0  0  2  0  0  0  0  0  0
  188.9730  173.5890  138.2480 C   0  0  0  0  0  2  0  0  0  0  0  0
  189.1080  172.2020  138.3350 O   0  0  0  0  0  0  0  0  0  0  0  0
  191.3220  171.8080  138.8580 N   0  0  0  0  0  0  0  0  0  0  0  0
  190.9480  170.6480  137.9420 C   0  0  2  0  0  0  0  0  0  0  0  0
  192.9150  171.5570  140.6820 O   0  0  0  0  0  1  0  0  0  0  0  0
  191.8810  173.5620  140.2750 O   0  0  0  0  0  0  0  0  0  0  0  0
  190.3660  171.9300  137.7590 C   0  0  1  0  0  3  0  0  0  0  0  0
  190.4710  169.7190  138.9190 O   0  0  0  0  0  0  0  0  0  0  0  0
  192.0400  172.3550  139.9570 C   0  0  0  0  0  0  0  0  0  0  0  0
  189.6880  169.8060  137.8050 C   0  0  0  0  0  2  0  0  0  0  0  0
  1  7  1  0  0  0  0
  2  3  1  0  0  0  0
  3  6  2  0  0  0  0
  4  5  1  0  0  0  0
  4  1  2  0  0  0  0
  5  2  2  0  0  0  0
  7  6  1  0  0  0  0
  8 11  1  6  0  0  0
  8 10  1  0  0  0  0
  8  9  1  0  0  0  0
  9 12  1  1  0  0  0
 10  2  1  6  0  0  0
 10  9  1  0  0  0  0
 13 15  1  0  0  0  0
 13 12  1  0  0  0  0
 15 14  1  1  0  0  0
 16 15  1  0  0  0  0
 17 18  1  0  0  0  0
 17 16  1  0  0  0  0
 19 17  1  0  0  0  0
 20 19  1  0  0  0  0
 21 22  1  0  0  0  0
 22 20  1  0  0  0  0
 23  1  1  0  0  0  0
 24 23  1  0  0  0  0
 25 24  1  0  0  0  0
 26  5  1  0  0  0  0
 27 26  1  0  0  0  0
 28 27  1  0  0  0  0
 29 28  1  0  0  0  0
 30 29  1  0  0  0  0
 31 30  1  0  0  0  0
 32 33  1  0  0  0  0
 32 31  1  0  0  0  0
 34 40  1  0  0  0  0
 35 41  1  6  0  0  0
 35 34  1  0  0  0  0
 35 39  1  0  0  0  0
 38 35  1  0  0  0  0
 38 33  1  1  0  0  0
 38 34  1  0  0  0  0
 40 37  2  0  0  0  0
 40 36  1  0  0  0  0
 41 39  1  0  0  0  0
M  END
>  <MODEL>
4

>  <REMARK>
 VINA RESULT:      -6.0      3.787      9.786
  Name = 
  20 active torsions:
  status: ('A' for Active; 'I' for Inactive)
    1  A    between atoms: C_1  and  C_22
    2  A    between atoms: C_1  and  O_28
    3  A    between atoms: C_4  and  C_12
    4  A    between atoms: C_4  and  C_22
    5  A    between atoms: C_5  and  C_12
    6  A    between atoms: C_5  and  C_25
    7  A    between atoms: C_6  and  C_30
    8  A    between atoms: C_7  and  C_14
    9  A    between atoms: C_7  and  C_40
   10  A    between atoms: C_9  and  C_30
   11  A    between atoms: C_10  and  C_18
   12  A    between atoms: C_11  and  N_34
   13  A    between atoms: C_11  and  C_40
   14  A    between atoms: C_14  and  C_17
   15  A    between atoms: O_16  and  C_25
   16  A    between atoms: O_16  and  C_27
   17  A    between atoms: C_20  and  O_28
   18  A    between atoms: C_26  and  C_35
   19  A    between atoms: C_26  and  C_39
   20  A    between atoms: N_34  and  C_39
                            x       y       z     vdW  Elec       q    Type
                         _______ _______ _______ _____ _____    ______ ____

>  <TORSDO>
F 20

$$$$
=
 OpenBabel11042418583D

 41 44  0  0  1  0  0  0  0  0999 V2000
  186.4760  176.8230  146.1810 C   0  0  0  0  0  0  0  0  0  0  0  0
  189.3970  176.8740  144.9210 C   0  0  0  0  0  0  0  0  0  0  0  0
  189.5310  176.0840  146.1580 C   0  0  0  0  0  3  0  0  0  0  0  0
  186.9130  177.3080  145.0230 C   0  0  0  0  0  3  0  0  0  0  0  0
  188.2470  177.3430  144.3870 C   0  0  0  0  0  0  0  0  0  0  0  0
  188.6510  175.7630  147.0970 C   0  0  0  0  0  3  0  0  0  0  0  0
  187.2750  176.1270  147.1360 N   0  0  0  0  0  2  0  0  0  0  0  0
  191.1190  175.7360  143.3790 C   0  0  2  0  0  3  0  0  0  0  0  0
  191.7950  176.1070  144.6770 C   0  0  2  0  0  3  0  0  0  0  0  0
  190.6900  177.0050  144.1360 C   0  0  2  0  0  3  0  0  0  0  0  0
  190.2810  174.6420  143.6120 O   0  0  0  0  0  1  0  0  0  0  0  0
  193.1400  176.7390  144.3770 C   0  0  0  0  0  2  0  0  0  0  0  0
  194.2420  176.0300  145.1510 C   0  0  0  0  0  2  0  0  0  0  0  0
  195.3430  176.4140  143.0640 O   0  0  0  0  0  1  0  0  0  0  0  0
  195.5690  176.0830  144.4030 C   0  0  2  0  0  3  0  0  0  0  0  0
  196.3250  174.7600  144.4970 C   0  0  0  0  0  2  0  0  0  0  0  0
  195.8490  173.9630  145.6210 N   0  0  0  0  0  0  0  0  0  0  0  0
  196.9090  173.7680  146.4400 O   0  0  0  0  0  1  0  0  0  0  0  0
  195.4830  172.6570  145.0960 C   0  0  0  0  0  2  0  0  0  0  0  0
  194.1230  172.2290  145.6320 C   0  0  0  0  0  2  0  0  0  0  0  0
  193.5170  172.7670  143.2690 C   0  0  0  0  0  1  0  0  0  0  0  0
  193.0010  172.6400  144.6900 C   0  0  0  0  0  2  0  0  0  0  0  0
  185.0280  176.9850  146.4810 C   0  0  0  0  0  2  0  0  0  0  0  0
  184.7130  178.4430  146.7560 C   0  0  0  0  0  2  0  0  0  0  0  0
  183.7380  178.8860  145.8640 O   0  0  0  0  0  1  0  0  0  0  0  0
  188.3190  177.9200  143.1070 O   0  0  0  0  0  0  0  0  0  0  0  0
  187.1800  178.2430  142.3130 C   0  0  0  0  0  2  0  0  0  0  0  0
  186.7970  177.0660  141.4250 C   0  0  0  0  0  2  0  0  0  0  0  0
  188.0250  176.3100  140.9270 C   0  0  0  0  0  2  0  0  0  0  0  0
  187.9340  174.8280  141.2560 C   0  0  0  0  0  2  0  0  0  0  0  0
  188.9620  174.0490  140.4600 C   0  0  0  0  0  2  0  0  0  0  0  0
  188.2600  173.1440  139.4700 C   0  0  0  0  0  2  0  0  0  0  0  0
  189.0520  172.0210  139.2280 O   0  0  0  0  0  0  0  0  0  0  0  0
  190.7530  171.4800  140.6930 N   0  0  0  0  0  0  0  0  0  0  0  0
  191.4450  171.5540  139.3360 C   0  0  2  0  0  0  0  0  0  0  0  0
  191.4600  169.9210  142.4240 O   0  0  0  0  0  0  0  0  0  0  0  0
  189.6910  171.3420  142.7540 O   0  0  0  0  0  1  0  0  0  0  0  0
  190.3480  172.4030  139.6350 C   0  0  1  0  0  3  0  0  0  0  0  0
  191.2770  170.1990  138.9110 O   0  0  0  0  0  0  0  0  0  0  0  0
  190.6030  170.9250  141.9930 C   0  0  0  0  0  0  0  0  0  0  0  0
  191.0260  171.1230  137.9390 C   0  0  0  0  0  2  0  0  0  0  0  0
  1 23  1  0  0  0  0
  1  7  1  0  0  0  0
  2  3  1  0  0  0  0
  3  6  2  0  0  0  0
  4  1  2  0  0  0  0
  5  2  2  0  0  0  0
  5  4  1  0  0  0  0
  6  7  1  0  0  0  0
  8 11  1  1  0  0  0
  8 10  1  0  0  0  0
  8  9  1  0  0  0  0
  9 12  1  6  0  0  0
 10  9  1  0  0  0  0
 10  2  1  1  0  0  0
 12 13  1  0  0  0  0
 15 14  1  6  0  0  0
 15 16  1  0  0  0  0
 15 13  1  0  0  0  0
 16 17  1  0  0  0  0
 17 18  1  0  0  0  0
 19 17  1  0  0  0  0
 19 20  1  0  0  0  0
 21 22  1  0  0  0  0
 22 20  1  0  0  0  0
 23 24  1  0  0  0  0
 25 24  1  0  0  0  0
 26  5  1  0  0  0  0
 27 26  1  0  0  0  0
 28 27  1  0  0  0  0
 29 30  1  0  0  0  0
 29 28  1  0  0  0  0
 31 30  1  0  0  0  0
 32 31  1  0  0  0  0
 33 32  1  0  0  0  0
 34 40  1  0  0  0  0
 35 41  1  6  0  0  0
 35 38  1  0  0  0  0
 35 34  1  0  0  0  0
 38 33  1  6  0  0  0
 38 34  1  0  0  0  0
 39 35  1  0  0  0  0
 40 36  2  0  0  0  0
 40 37  1  0  0  0  0
 41 39  1  0  0  0  0
M  END
>  <MODEL>
5

>  <REMARK>
 VINA RESULT:      -5.9      4.057      7.250
  Name = 
  20 active torsions:
  status: ('A' for Active; 'I' for Inactive)
    1  A    between atoms: C_1  and  C_22
    2  A    between atoms: C_1  and  O_28
    3  A    between atoms: C_4  and  C_12
    4  A    between atoms: C_4  and  C_22
    5  A    between atoms: C_5  and  C_12
    6  A    between atoms: C_5  and  C_25
    7  A    between atoms: C_6  and  C_30
    8  A    between atoms: C_7  and  C_14
    9  A    between atoms: C_7  and  C_40
   10  A    between atoms: C_9  and  C_30
   11  A    between atoms: C_10  and  C_18
   12  A    between atoms: C_11  and  N_34
   13  A    between atoms: C_11  and  C_40
   14  A    between atoms: C_14  and  C_17
   15  A    between atoms: O_16  and  C_25
   16  A    between atoms: O_16  and  C_27
   17  A    between atoms: C_20  and  O_28
   18  A    between atoms: C_26  and  C_35
   19  A    between atoms: C_26  and  C_39
   20  A    between atoms: N_34  and  C_39
                            x       y       z     vdW  Elec       q    Type
                         _______ _______ _______ _____ _____    ______ ____

>  <TORSDO>
F 20

$$$$
=
 OpenBabel11042418583D

 41 44  0  0  1  0  0  0  0  0999 V2000
  186.8170  177.8960  143.8410 C   0  0  0  0  0  0  0  0  0  0  0  0
  189.9930  177.7460  143.7250 C   0  0  0  0  0  0  0  0  0  0  0  0
  189.5800  178.1320  142.3630 C   0  0  0  0  0  3  0  0  0  0  0  0
  187.7120  177.6910  144.8030 C   0  0  0  0  0  2  0  0  0  0  0  0
  189.1880  177.6270  144.8050 C   0  0  0  0  0  0  0  0  0  0  0  0
  188.3820  178.3120  141.8230 C   0  0  0  0  0  3  0  0  0  0  0  0
  187.1250  178.1690  142.4750 N   0  0  0  0  0  0  0  0  0  0  0  0
  192.1620  176.4960  143.1160 C   0  0  2  0  0  3  0  0  0  0  0  0
  191.9140  176.3510  144.5990 C   0  0  2  0  0  3  0  0  0  0  0  0
  191.4970  177.6400  143.9010 C   0  0  2  0  0  3  0  0  0  0  0  0
  191.2480  175.6880  142.4330 O   0  0  0  0  0  1  0  0  0  0  0  0
  193.2110  176.5890  145.3480 C   0  0  0  0  0  2  0  0  0  0  0  0
  193.6180  175.3370  146.1100 C   0  0  0  0  0  2  0  0  0  0  0  0
  194.4540  173.1230  145.7700 O   0  0  0  0  0  1  0  0  0  0  0  0
  194.4820  174.4210  145.2510 C   0  0  2  0  0  3  0  0  0  0  0  0
  195.9220  174.9200  145.1620 C   0  0  0  0  0  2  0  0  0  0  0  0
  196.5440  174.5050  143.9100 N   0  0  0  0  0  0  0  0  0  0  0  0
  197.4660  173.5640  144.2240 O   0  0  0  0  0  1  0  0  0  0  0  0
  197.2760  175.6500  143.3940 C   0  0  0  0  0  2  0  0  0  0  0  0
  197.4160  175.5560  141.8810 C   0  0  0  0  0  2  0  0  0  0  0  0
  195.0690  175.7870  141.0610 C   0  0  0  0  0  1  0  0  0  0  0  0
  196.4210  176.4640  141.1740 C   0  0  0  0  0  2  0  0  0  0  0  0
  185.3830  177.8840  144.2360 C   0  0  0  0  0  2  0  0  0  0  0  0
  185.2590  177.9460  145.7470 C   0  0  0  0  0  2  0  0  0  0  0  0
  184.0050  178.4480  146.0910 O   0  0  0  0  0  1  0  0  0  0  0  0
  189.8080  177.4240  146.0500 O   0  0  0  0  0  0  0  0  0  0  0  0
  189.2130  176.7090  147.1300 C   0  0  0  0  0  2  0  0  0  0  0  0
  189.6630  175.2540  147.1200 C   0  0  0  0  0  2  0  0  0  0  0  0
  189.2910  174.5560  145.8150 C   0  0  0  0  0  2  0  0  0  0  0  0
  189.8550  173.1450  145.7610 C   0  0  0  0  0  2  0  0  0  0  0  0
  190.8100  173.0060  144.5920 C   0  0  0  0  0  2  0  0  0  0  0  0
  190.2490  172.0160  143.5920 C   0  0  0  0  0  2  0  0  0  0  0  0
  190.7250  172.3260  142.3170 O   0  0  0  0  0  0  0  0  0  0  0  0
  189.0400  173.2490  141.0370 N   0  0  0  0  0  0  0  0  0  0  0  0
  189.7690  172.3210  140.0720 C   0  0  2  0  0  0  0  0  0  0  0  0
  188.0180  175.3350  140.3070 O   0  0  0  0  0  0  0  0  0  0  0  0
  187.9470  174.6820  142.5030 O   0  0  0  0  0  1  0  0  0  0  0  0
  189.6650  171.9940  141.4490 C   0  0  1  0  0  3  0  0  0  0  0  0
  190.7530  173.2290  139.5700 O   0  0  0  0  0  0  0  0  0  0  0  0
  188.3160  174.4390  141.3250 C   0  0  0  0  0  0  0  0  0  0  0  0
  191.2400  171.9910  139.8710 C   0  0  0  0  0  2  0  0  0  0  0  0
  1 23  1  0  0  0  0
  1  4  1  0  0  0  0
  2  5  2  0  0  0  0
  3  2  1  0  0  0  0
  4  5  1  0  0  0  0
  5 26  1  0  0  0  0
  6  3  2  0  0  0  0
  6  7  1  0  0  0  0
  7  1  2  0  0  0  0
  8 11  1  6  0  0  0
  8 10  1  0  0  0  0
  8  9  1  0  0  0  0
  9 12  1  1  0  0  0
 10  2  1  6  0  0  0
 10  9  1  0  0  0  0
 12 13  1  0  0  0  0
 15 14  1  1  0  0  0
 15 13  1  0  0  0  0
 16 15  1  0  0  0  0
 17 18  1  0  0  0  0
 17 16  1  0  0  0  0
 19 17  1  0  0  0  0
 20 19  1  0  0  0  0
 21 22  1  0  0  0  0
 22 20  1  0  0  0  0
 23 24  1  0  0  0  0
 24 25  1  0  0  0  0
 26 27  1  0  0  0  0
 28 27  1  0  0  0  0
 29 28  1  0  0  0  0
 30 29  1  0  0  0  0
 31 30  1  0  0  0  0
 32 31  1  0  0  0  0
 33 32  1  0  0  0  0
 34 40  1  0  0  0  0
 34 38  1  0  0  0  0
 35 41  1  6  0  0  0
 35 34  1  0  0  0  0
 35 38  1  0  0  0  0
 36 40  2  0  0  0  0
 38 33  1  1  0  0  0
 39 41  1  0  0  0  0
 39 35  1  0  0  0  0
 40 37  1  0  0  0  0
M  END
>  <MODEL>
6

>  <REMARK>
 VINA RESULT:      -5.9      4.095      7.143
  Name = 
  20 active torsions:
  status: ('A' for Active; 'I' for Inactive)
    1  A    between atoms: C_1  and  C_22
    2  A    between atoms: C_1  and  O_28
    3  A    between atoms: C_4  and  C_12
    4  A    between atoms: C_4  and  C_22
    5  A    between atoms: C_5  and  C_12
    6  A    between atoms: C_5  and  C_25
    7  A    between atoms: C_6  and  C_30
    8  A    between atoms: C_7  and  C_14
    9  A    between atoms: C_7  and  C_40
   10  A    between atoms: C_9  and  C_30
   11  A    between atoms: C_10  and  C_18
   12  A    between atoms: C_11  and  N_34
   13  A    between atoms: C_11  and  C_40
   14  A    between atoms: C_14  and  C_17
   15  A    between atoms: O_16  and  C_25
   16  A    between atoms: O_16  and  C_27
   17  A    between atoms: C_20  and  O_28
   18  A    between atoms: C_26  and  C_35
   19  A    between atoms: C_26  and  C_39
   20  A    between atoms: N_34  and  C_39
                            x       y       z     vdW  Elec       q    Type
                         _______ _______ _______ _____ _____    ______ ____

>  <TORSDO>
F 20

$$$$
=
 OpenBabel11042418583D

 41 44  0  0  1  0  0  0  0  0999 V2000
  185.8160  178.5080  145.0890 C   0  0  0  0  0  0  0  0  0  0  0  0
  188.7060  177.3970  145.8190 C   0  0  0  0  0  0  0  0  0  0  0  0
  188.0050  177.5090  147.1110 C   0  0  0  0  0  3  0  0  0  0  0  0
  186.8220  178.1280  144.3080 C   0  0  0  0  0  3  0  0  0  0  0  0
  188.1700  177.5930  144.5930 C   0  0  0  0  0  0  0  0  0  0  0  0
  186.7900  177.9430  147.4180 C   0  0  0  0  0  3  0  0  0  0  0  0
  185.8070  178.4340  146.5140 N   0  0  0  0  0  2  0  0  0  0  0  0
  190.2090  175.3560  146.2860 C   0  0  2  0  0  3  0  0  0  0  0  0
  190.4550  176.3990  147.3510 C   0  0  2  0  0  3  0  0  0  0  0  0
  190.1190  176.8520  145.9350 C   0  0  2  0  0  3  0  0  0  0  0  0
  188.9640  174.7670  146.5230 O   0  0  0  0  0  1  0  0  0  0  0  0
  191.9480  176.5400  147.5750 C   0  0  0  0  0  2  0  0  0  0  0  0
  192.7160  175.9950  146.3800 C   0  0  0  0  0  2  0  0  0  0  0  0
  194.5450  177.3570  145.6620 O   0  0  0  0  0  1  0  0  0  0  0  0
  194.2070  176.2880  146.4970 C   0  0  2  0  0  3  0  0  0  0  0  0
  195.0540  175.0650  146.1540 C   0  0  0  0  0  2  0  0  0  0  0  0
  195.7180  175.2330  144.8670 N   0  0  0  0  0  0  0  0  0  0  0  0
  194.8950  174.7070  143.9300 O   0  0  0  0  0  1  0  0  0  0  0  0
  196.9100  174.4000  144.8880 C   0  0  0  0  0  2  0  0  0  0  0  0
  196.8660  173.4350  146.0650 C   0  0  0  0  0  2  0  0  0  0  0  0
  195.5030  171.4670  145.3520 C   0  0  0  0  0  1  0  0  0  0  0  0
  196.9060  171.9880  145.5990 C   0  0  0  0  0  2  0  0  0  0  0  0
  184.5870  179.0080  144.4170 C   0  0  0  0  0  2  0  0  0  0  0  0
  184.7790  179.0030  142.9110 C   0  0  0  0  0  2  0  0  0  0  0  0
  184.0700  177.9390  142.3550 O   0  0  0  0  0  1  0  0  0  0  0  0
  188.9630  177.2600  143.4820 O   0  0  0  0  0  0  0  0  0  0  0  0
  188.5980  177.5310  142.1310 C   0  0  0  0  0  2  0  0  0  0  0  0
  188.1450  176.2530  141.4340 C   0  0  0  0  0  2  0  0  0  0  0  0
  188.6320  175.0070  142.1660 C   0  0  0  0  0  2  0  0  0  0  0  0
  188.2860  173.7420  141.3970 C   0  0  0  0  0  2  0  0  0  0  0  0
  189.1190  173.6520  140.1330 C   0  0  0  0  0  2  0  0  0  0  0  0
  188.3730  172.8470  139.0890 C   0  0  0  0  0  2  0  0  0  0  0  0
  188.8200  171.5240  139.1200 O   0  0  0  0  0  0  0  0  0  0  0  0
  190.7080  170.7340  140.1870 N   0  0  0  0  0  0  0  0  0  0  0  0
  191.0020  170.5120  138.7070 C   0  0  2  0  0  0  0  0  0  0  0  0
  191.5270  169.2210  141.9110 O   0  0  0  0  0  0  0  0  0  0  0  0
  190.2470  171.0470  142.4430 O   0  0  0  0  0  1  0  0  0  0  0  0
  190.2270  171.6230  139.1320 C   0  0  1  0  0  3  0  0  0  0  0  0
  190.4480  169.2030  138.5500 O   0  0  0  0  0  0  0  0  0  0  0  0
  190.8090  170.3550  141.5540 C   0  0  0  0  0  0  0  0  0  0  0  0
  190.1360  170.0650  137.5390 C   0  0  0  0  0  2  0  0  0  0  0  0
  1  7  1  0  0  0  0
  2  3  1  0  0  0  0
  3  6  2  0  0  0  0
  4  5  1  0  0  0  0
  4  1  2  0  0  0  0
  5  2  2  0  0  0  0
  7  6  1  0  0  0  0
  8 11  1  1  0  0  0
  8  9  1  0  0  0  0
  9 12  1  6  0  0  0
 10  2  1  1  0  0  0
 10  8  1  0  0  0  0
 10  9  1  0  0  0  0
 13 15  1  0  0  0  0
 13 12  1  0  0  0  0
 15 14  1  6  0  0  0
 16 15  1  0  0  0  0
 17 19  1  0  0  0  0
 17 16  1  0  0  0  0
 18 17  1  0  0  0  0
 19 20  1  0  0  0  0
 21 22  1  0  0  0  0
 22 20  1  0  0  0  0
 23  1  1  0  0  0  0
 24 23  1  0  0  0  0
 25 24  1  0  0  0  0
 26  5  1  0  0  0  0
 27 26  1  0  0  0  0
 28 27  1  0  0  0  0
 28 29  1  0  0  0  0
 30 29  1  0  0  0  0
 31 30  1  0  0  0  0
 32 33  1  0  0  0  0
 32 31  1  0  0  0  0
 34 40  1  0  0  0  0
 35 41  1  6  0  0  0
 35 38  1  0  0  0  0
 35 34  1  0  0  0  0
 38 33  1  6  0  0  0
 38 34  1  0  0  0  0
 39 35  1  0  0  0  0
 40 36  2  0  0  0  0
 40 37  1  0  0  0  0
 41 39  1  0  0  0  0
M  END
>  <MODEL>
7

>  <REMARK>
 VINA RESULT:      -5.8      3.546      7.691
  Name = 
  20 active torsions:
  status: ('A' for Active; 'I' for Inactive)
    1  A    between atoms: C_1  and  C_22
    2  A    between atoms: C_1  and  O_28
    3  A    between atoms: C_4  and  C_12
    4  A    between atoms: C_4  and  C_22
    5  A    between atoms: C_5  and  C_12
    6  A    between atoms: C_5  and  C_25
    7  A    between atoms: C_6  and  C_30
    8  A    between atoms: C_7  and  C_14
    9  A    between atoms: C_7  and  C_40
   10  A    between atoms: C_9  and  C_30
   11  A    between atoms: C_10  and  C_18
   12  A    between atoms: C_11  and  N_34
   13  A    between atoms: C_11  and  C_40
   14  A    between atoms: C_14  and  C_17
   15  A    between atoms: O_16  and  C_25
   16  A    between atoms: O_16  and  C_27
   17  A    between atoms: C_20  and  O_28
   18  A    between atoms: C_26  and  C_35
   19  A    between atoms: C_26  and  C_39
   20  A    between atoms: N_34  and  C_39
                            x       y       z     vdW  Elec       q    Type
                         _______ _______ _______ _____ _____    ______ ____

>  <TORSDO>
F 20

$$$$
=
 OpenBabel11042418583D

 41 44  0  0  1  0  0  0  0  0999 V2000
  185.8560  178.1460  145.1060 C   0  0  0  0  0  0  0  0  0  0  0  0
  188.8870  177.2870  145.5510 C   0  0  0  0  0  0  0  0  0  0  0  0
  188.3190  177.3950  146.9070 C   0  0  0  0  0  3  0  0  0  0  0  0
  186.8010  177.8140  144.2310 C   0  0  0  0  0  3  0  0  0  0  0  0
  188.2100  177.3950  144.3850 C   0  0  0  0  0  0  0  0  0  0  0  0
  187.1130  177.7470  147.3320 C   0  0  0  0  0  3  0  0  0  0  0  0
  186.0030  178.1260  146.5240 N   0  0  0  0  0  2  0  0  0  0  0  0
  190.5700  175.3370  145.6160 C   0  0  2  0  0  3  0  0  0  0  0  0
  190.7780  176.2040  146.8360 C   0  0  2  0  0  3  0  0  0  0  0  0
  190.3430  176.8570  145.5300 C   0  0  2  0  0  3  0  0  0  0  0  0
  189.3890  174.6100  145.7860 O   0  0  0  0  0  1  0  0  0  0  0  0
  192.2630  176.4370  147.0360 C   0  0  0  0  0  2  0  0  0  0  0  0
  193.0620  175.2890  146.4390 C   0  0  0  0  0  2  0  0  0  0  0  0
  194.6240  176.9870  145.8090 O   0  0  0  0  0  1  0  0  0  0  0  0
  194.5280  175.6670  146.2590 C   0  0  2  0  0  3  0  0  0  0  0  0
  195.2410  174.7280  145.2890 C   0  0  0  0  0  2  0  0  0  0  0  0
  196.2610  173.9440  145.9730 N   0  0  0  0  0  0  0  0  0  0  0  0
  197.4420  174.2290  145.3750 O   0  0  0  0  0  1  0  0  0  0  0  0
  195.9830  172.5430  145.6970 C   0  0  0  0  0  2  0  0  0  0  0  0
  197.2570  171.8170  145.2870 C   0  0  0  0  0  2  0  0  0  0  0  0
  196.6540  169.8350  146.6810 C   0  0  0  0  0  1  0  0  0  0  0  0
  197.0650  170.3080  145.3000 C   0  0  0  0  0  2  0  0  0  0  0  0
  184.5270  178.5240  144.5560 C   0  0  0  0  0  2  0  0  0  0  0  0
  184.6380  178.7980  143.0670 C   0  0  0  0  0  2  0  0  0  0  0  0
  183.7850  177.9440  142.3710 O   0  0  0  0  0  1  0  0  0  0  0  0
  188.9060  177.0820  143.2050 O   0  0  0  0  0  0  0  0  0  0  0  0
  188.2880  176.9420  141.9280 C   0  0  0  0  0  2  0  0  0  0  0  0
  188.4780  175.5280  141.3940 C   0  0  0  0  0  2  0  0  0  0  0  0
  188.2560  174.4800  142.4800 C   0  0  0  0  0  2  0  0  0  0  0  0
  188.5280  173.0770  141.9600 C   0  0  0  0  0  2  0  0  0  0  0  0
  189.2030  172.2420  143.0290 C   0  0  0  0  0  2  0  0  0  0  0  0
  190.1130  171.2210  142.3790 C   0  0  0  0  0  2  0  0  0  0  0  0
  191.4370  171.4930  142.7300 O   0  0  0  0  0  0  0  0  0  0  0  0
  192.6200  172.2830  140.9110 N   0  0  0  0  0  0  0  0  0  0  0  0
  193.5910  171.3270  141.5950 C   0  0  2  0  0  0  0  0  0  0  0  0
  193.3740  174.2890  139.7540 O   0  0  0  0  0  0  0  0  0  0  0  0
  191.1470  173.7600  139.8870 O   0  0  0  0  0  1  0  0  0  0  0  0
  192.1950  171.0760  141.6160 C   0  0  1  0  0  3  0  0  0  0  0  0
  194.2220  172.2380  142.4990 O   0  0  0  0  0  0  0  0  0  0  0  0
  192.3370  173.4630  140.1680 C   0  0  0  0  0  0  0  0  0  0  0  0
  193.8960  171.0370  143.0570 C   0  0  0  0  0  2  0  0  0  0  0  0
  1  7  1  0  0  0  0
  2  3  1  0  0  0  0
  3  6  2  0  0  0  0
  4  5  1  0  0  0  0
  4  1  2  0  0  0  0
  5  2  2  0  0  0  0
  7  6  1  0  0  0  0
  8 11  1  1  0  0  0
  8  9  1  0  0  0  0
  9 12  1  6  0  0  0
 10  2  1  1  0  0  0
 10  8  1  0  0  0  0
 10  9  1  0  0  0  0
 13 12  1  0  0  0  0
 15 14  1  6  0  0  0
 15 13  1  0  0  0  0
 16 17  1  0  0  0  0
 16 15  1  0  0  0  0
 18 17  1  0  0  0  0
 19 17  1  0  0  0  0
 20 22  1  0  0  0  0
 20 19  1  0  0  0  0
 22 21  1  0  0  0  0
 23  1  1  0  0  0  0
 24 23  1  0  0  0  0
 25 24  1  0  0  0  0
 26  5  1  0  0  0  0
 27 26  1  0  0  0  0
 28 27  1  0  0  0  0
 28 29  1  0  0  0  0
 30 29  1  0  0  0  0
 30 31  1  0  0  0  0
 32 33  1  0  0  0  0
 32 31  1  0  0  0  0
 34 35  1  0  0  0  0
 34 38  1  0  0  0  0
 35 38  1  0  0  0  0
 35 39  1  0  0  0  0
 35 41  1  6  0  0  0
 36 40  2  0  0  0  0
 37 40  1  0  0  0  0
 38 33  1  1  0  0  0
 39 41  1  0  0  0  0
 40 34  1  0  0  0  0
M  END
>  <MODEL>
8

>  <REMARK>
 VINA RESULT:      -5.8      3.509      8.068
  Name = 
  20 active torsions:
  status: ('A' for Active; 'I' for Inactive)
    1  A    between atoms: C_1  and  C_22
    2  A    between atoms: C_1  and  O_28
    3  A    between atoms: C_4  and  C_12
    4  A    between atoms: C_4  and  C_22
    5  A    between atoms: C_5  and  C_12
    6  A    between atoms: C_5  and  C_25
    7  A    between atoms: C_6  and  C_30
    8  A    between atoms: C_7  and  C_14
    9  A    between atoms: C_7  and  C_40
   10  A    between atoms: C_9  and  C_30
   11  A    between atoms: C_10  and  C_18
   12  A    between atoms: C_11  and  N_34
   13  A    between atoms: C_11  and  C_40
   14  A    between atoms: C_14  and  C_17
   15  A    between atoms: O_16  and  C_25
   16  A    between atoms: O_16  and  C_27
   17  A    between atoms: C_20  and  O_28
   18  A    between atoms: C_26  and  C_35
   19  A    between atoms: C_26  and  C_39
   20  A    between atoms: N_34  and  C_39
                            x       y       z     vdW  Elec       q    Type
                         _______ _______ _______ _____ _____    ______ ____

>  <TORSDO>
F 20

$$$$
=
 OpenBabel11042418583D

 41 44  0  0  1  0  0  0  0  0999 V2000
  185.2260  177.7640  145.6860 C   0  0  0  0  0  0  0  0  0  0  0  0
  187.1650  176.2530  143.6660 C   0  0  0  0  0  0  0  0  0  0  0  0
  186.1240  176.8580  142.8140 C   0  0  0  0  0  3  0  0  0  0  0  0
  186.3790  177.1340  145.8960 C   0  0  0  0  0  2  0  0  0  0  0  0
  187.3200  176.4350  144.9970 C   0  0  0  0  0  0  0  0  0  0  0  0
  185.0470  177.5720  143.1130 C   0  0  0  0  0  3  0  0  0  0  0  0
  184.6120  177.9530  144.4130 N   0  0  0  0  0  0  0  0  0  0  0  0
  189.2830  176.3760  142.2030 C   0  0  2  0  0  3  0  0  0  0  0  0
  188.1630  175.7680  141.3920 C   0  0  2  0  0  3  0  0  0  0  0  0
  188.2260  175.4930  142.8900 C   0  0  2  0  0  3  0  0  0  0  0  0
  189.0360  177.7450  142.3430 O   0  0  0  0  0  1  0  0  0  0  0  0
  188.6880  174.5590  140.6430 C   0  0  0  0  0  2  0  0  0  0  0  0
  188.1760  173.2780  141.2840 C   0  0  0  0  0  2  0  0  0  0  0  0
  189.5910  172.1660  142.8570 O   0  0  0  0  0  1  0  0  0  0  0  0
  189.3030  172.2730  141.4940 C   0  0  2  0  0  3  0  0  0  0  0  0
  190.5600  172.6620  140.7200 C   0  0  0  0  0  2  0  0  0  0  0  0
  191.1860  171.4910  140.1170 N   0  0  0  0  0  0  0  0  0  0  0  0
  192.5180  171.7320  140.0850 O   0  0  0  0  0  1  0  0  0  0  0  0
  190.7410  171.4300  138.7340 C   0  0  0  0  0  2  0  0  0  0  0  0
  190.7030  172.8250  138.1240 C   0  0  0  0  0  2  0  0  0  0  0  0
  189.9330  173.6850  135.9100 C   0  0  0  0  0  1  0  0  0  0  0  0
  189.5130  172.9900  137.1910 C   0  0  0  0  0  2  0  0  0  0  0  0
  184.5510  178.3540  146.8730 C   0  0  0  0  0  2  0  0  0  0  0  0
  185.5480  178.5340  148.0030 C   0  0  0  0  0  2  0  0  0  0  0  0
  186.1110  179.8070  147.9290 O   0  0  0  0  0  1  0  0  0  0  0  0
  188.4830  175.9110  145.5870 O   0  0  0  0  0  0  0  0  0  0  0  0
  188.5420  175.4010  146.9170 C   0  0  0  0  0  2  0  0  0  0  0  0
  189.9900  175.1950  147.3470 C   0  0  0  0  0  2  0  0  0  0  0  0
  190.7270  176.5220  147.5010 C   0  0  0  0  0  2  0  0  0  0  0  0
  192.2300  176.3130  147.5890 C   0  0  0  0  0  2  0  0  0  0  0  0
  192.7830  175.8990  146.2390 C   0  0  0  0  0  2  0  0  0  0  0  0
  194.2800  176.1210  146.2120 C   0  0  0  0  0  2  0  0  0  0  0  0
  194.8790  175.1380  145.4220 O   0  0  0  0  0  0  0  0  0  0  0  0
  195.5390  175.4750  143.2350 N   0  0  0  0  0  0  0  0  0  0  0  0
  194.5070  174.3570  143.1400 C   0  0  2  0  0  0  0  0  0  0  0  0
  197.4560  175.6010  141.7380 O   0  0  0  0  0  0  0  0  0  0  0  0
  197.1310  177.1610  143.3860 O   0  0  0  0  0  1  0  0  0  0  0  0
  194.3830  175.3730  144.1220 C   0  0  1  0  0  3  0  0  0  0  0  0
  195.3680  173.2270  143.3060 O   0  0  0  0  0  0  0  0  0  0  0  0
  196.7310  176.1200  142.8030 C   0  0  0  0  0  0  0  0  0  0  0  0
  194.2070  173.1530  144.0190 C   0  0  0  0  0  2  0  0  0  0  0  0
  1  4  1  0  0  0  0
  1 23  1  0  0  0  0
  2  5  2  0  0  0  0
  3  6  2  0  0  0  0
  3  2  1  0  0  0  0
  5 26  1  0  0  0  0
  5  4  1  0  0  0  0
  6  7  1  0  0  0  0
  7  1  2  0  0  0  0
  8 11  1  1  0  0  0
  8 10  1  0  0  0  0
  9 12  1  6  0  0  0
  9  8  1  0  0  0  0
  9 10  1  0  0  0  0
 10  2  1  1  0  0  0
 12 13  1  0  0  0  0
 13 15  1  0  0  0  0
 15 14  1  1  0  0  0
 16 15  1  0  0  0  0
 17 16  1  0  0  0  0
 18 17  1  0  0  0  0
 19 17  1  0  0  0  0
 20 19  1  0  0  0  0
 21 22  1  0  0  0  0
 22 20  1  0  0  0  0
 23 24  1  0  0  0  0
 25 24  1  0  0  0  0
 26 27  1  0  0  0  0
 27 28  1  0  0  0  0
 28 29  1  0  0  0  0
 29 30  1  0  0  0  0
 31 30  1  0  0  0  0
 32 31  1  0  0  0  0
 33 32  1  0  0  0  0
 34 38  1  0  0  0  0
 35 34  1  0  0  0  0
 35 39  1  0  0  0  0
 35 41  1  6  0  0  0
 35 38  1  0  0  0  0
 36 40  2  0  0  0  0
 38 33  1  1  0  0  0
 39 41  1  0  0  0  0
 40 34  1  0  0  0  0
 40 37  1  0  0  0  0
M  END
>  <MODEL>
9

>  <REMARK>
 VINA RESULT:      -5.8      4.223      9.950
  Name = 
  20 active torsions:
  status: ('A' for Active; 'I' for Inactive)
    1  A    between atoms: C_1  and  C_22
    2  A    between atoms: C_1  and  O_28
    3  A    between atoms: C_4  and  C_12
    4  A    between atoms: C_4  and  C_22
    5  A    between atoms: C_5  and  C_12
    6  A    between atoms: C_5  and  C_25
    7  A    between atoms: C_6  and  C_30
    8  A    between atoms: C_7  and  C_14
    9  A    between atoms: C_7  and  C_40
   10  A    between atoms: C_9  and  C_30
   11  A    between atoms: C_10  and  C_18
   12  A    between atoms: C_11  and  N_34
   13  A    between atoms: C_11  and  C_40
   14  A    between atoms: C_14  and  C_17
   15  A    between atoms: O_16  and  C_25
   16  A    between atoms: O_16  and  C_27
   17  A    between atoms: C_20  and  O_28
   18  A    between atoms: C_26  and  C_35
   19  A    between atoms: C_26  and  C_39
   20  A    between atoms: N_34  and  C_39
                            x       y       z     vdW  Elec       q    Type
                         _______ _______ _______ _____ _____    ______ ____

>  <TORSDO>
F 20

$$$$
