=
 OpenBabel11042418503D

 60 64  0  0  1  0  0  0  0  0999 V2000
  193.9320  174.1810  143.8940 C   0  0  1  0  0  3  0  0  0  0  0  0
  194.8940  174.1610  140.1980 N   0  0  0  0  0  2  0  0  0  0  0  0
  195.6530  174.2850  137.8550 N   0  0  0  0  0  2  0  0  0  0  0  0
  193.9250  173.9540  142.4530 N   0  0  0  0  0  2  0  0  0  0  0  0
  194.9570  174.4420  141.5990 C   0  0  0  0  0  0  0  0  0  0  0  0
  196.5620  175.6500  139.5100 O   0  0  0  0  0  0  0  0  0  0  0  0
  195.7460  174.7380  139.2050 C   0  0  0  0  0  0  0  0  0  0  0  0
  195.9130  175.1110  142.0790 O   0  0  0  0  0  0  0  0  0  0  0  0
  197.7100  174.4260  136.7620 O   0  0  0  0  0  1  0  0  0  0  0  0
  196.3990  174.9080  136.7700 C   0  0  1  0  0  3  0  0  0  0  0  0
  195.6990  174.6730  135.4210 C   0  0  1  0  0  3  0  0  0  0  0  0
  193.4400  173.8750  134.9360 C   0  0  0  0  0  2  0  0  0  0  0  0
  194.7860  173.4580  135.5100 C   0  0  0  0  0  2  0  0  0  0  0  0
  192.7700  175.7920  136.3560 C   0  0  0  0  0  1  0  0  0  0  0  0
  195.0920  177.0630  135.5010 O   0  0  0  0  0  1  0  0  0  0  0  0
  193.3820  175.3920  135.0160 C   0  0  1  0  0  3  0  0  0  0  0  0
  194.8350  175.8280  134.8890 C   0  0  2  0  0  3  0  0  0  0  0  0
  190.2190  175.9410  145.2070 C   0  0  0  0  0  0  0  0  0  0  0  0
  192.3650  176.1250  144.0940 C   0  0  0  0  0  3  0  0  0  0  0  0
  191.6940  174.0140  145.0730 C   0  0  0  0  0  3  0  0  0  0  0  0
  192.6350  174.7780  144.3650 C   0  0  0  0  0  0  0  0  0  0  0  0
  191.1650  176.7030  144.5150 C   0  0  0  0  0  3  0  0  0  0  0  0
  190.4910  174.5950  145.4880 C   0  0  0  0  0  3  0  0  0  0  0  0
  185.7530  178.8190  143.7810 C   0  0  2  0  0  3  0  0  0  0  0  0
  189.7110  177.5090  147.6450 O   0  0  0  0  0  0  0  0  0  0  0  0
  184.1560  178.6600  145.6510 C   0  0  0  0  0  3  0  0  0  0  0  0
  186.7020  177.9570  144.6210 C   0  0  0  0  0  2  0  0  0  0  0  0
  183.2520  179.0320  143.5100 O   0  0  0  0  0  1  0  0  0  0  0  0
  185.2660  178.4320  146.5320 N   0  0  0  0  0  0  0  0  0  0  0  0
  184.3470  178.8060  144.3360 C   0  0  0  0  0  0  0  0  0  0  0  0
  188.7940  177.3730  146.7960 C   0  0  0  0  0  0  0  0  0  0  0  0
  186.4610  178.1490  146.0990 C   0  0  0  0  0  0  0  0  0  0  0  0
  188.9990  176.5710  145.6220 N   0  0  0  0  0  2  0  0  0  0  0  0
  187.5200  177.9750  147.0520 N   0  0  0  0  0  2  0  0  0  0  0  0
  185.8070  178.4020  142.3420 C   0  0  0  0  0  0  0  0  0  0  0  0
  185.1460  177.9030  140.3390 O   0  0  0  0  0  0  0  0  0  0  0  0
  187.0610  177.9830  141.6490 C   0  0  0  0  0  3  0  0  0  0  0  0
  184.7680  178.3400  141.5820 N   0  0  0  0  0  0  0  0  0  0  0  0
  186.5450  177.6590  140.2440 C   0  0  0  0  0  3  0  0  0  0  0  0
  194.3770  172.9230  144.6490 C   0  0  2  0  0  3  0  0  0  0  0  0
  195.5550  173.1070  145.6090 C   0  0  0  0  0  2  0  0  0  0  0  0
  196.0680  174.5380  145.6490 C   0  0  0  0  0  1  0  0  0  0  0  0
  194.5170  171.7100  143.7360 C   0  0  0  0  0  2  0  0  0  0  0  0
  194.1430  169.7260  145.1610 C   0  0  0  0  0  1  0  0  0  0  0  0
  193.5140  170.6410  144.1260 C   0  0  2  0  0  3  0  0  0  0  0  0
  193.1470  169.8660  142.9500 N   0  0  0  0  0  2  0  0  0  0  0  0
  194.0270  170.3080  140.8380 O   0  0  0  0  0  1  0  0  0  0  0  0
  193.1340  170.7720  141.8090 C   0  0  1  0  0  3  0  0  0  0  0  0
  191.7280  170.8590  141.2240 C   0  0  1  0  0  3  0  0  0  0  0  0
  190.8800  171.8360  142.0240 C   0  0  2  0  0  3  0  0  0  0  0  0
  189.0930  172.4660  140.5820 F   0  0  0  0  0  0  0  0  0  0  0  0
  189.8340  171.1640  142.6590 O   0  0  0  0  0  1  0  0  0  0  0  0
  191.3660  172.6210  139.8660 C   0  0  1  0  0  3  0  0  0  0  0  0
  190.3730  172.8150  140.9940 C   0  0  2  0  0  0  0  0  0  0  0  0
  191.7840  171.2810  139.8790 O   0  0  0  0  0  0  0  0  0  0  0  0
  191.3650  172.0960  137.4290 C   0  0  0  0  0  1  0  0  0  0  0  0
  190.7970  173.0010  138.5050 C   0  0  0  0  0  2  0  0  0  0  0  0
  190.3590  174.2540  141.5280 C   0  0  0  0  0  2  0  0  0  0  0  0
  189.0010  174.9460  141.4140 C   0  0  0  0  0  2  0  0  0  0  0  0
  188.1100  174.5740  142.5850 C   0  0  0  0  0  1  0  0  0  0  0  0
  1  4  1  6  0  0  0
  1 21  1  0  0  0  0
  1 40  1  0  0  0  0
  2  5  1  0  0  0  0
  3  7  1  0  0  0  0
  5  8  2  0  0  0  0
  5  4  1  0  0  0  0
  7  6  2  0  0  0  0
  7  2  1  0  0  0  0
 10  9  1  6  0  0  0
 10  3  1  0  0  0  0
 11 13  1  0  0  0  0
 11 10  1  1  0  0  0
 12 16  1  0  0  0  0
 12 13  1  0  0  0  0
 16 14  1  1  0  0  0
 17 16  1  0  0  0  0
 17 11  1  0  0  0  0
 17 15  1  1  0  0  0
 18 23  1  0  0  0  0
 18 33  1  0  0  0  0
 19 21  2  0  0  0  0
 19 22  1  0  0  0  0
 20 23  2  0  0  0  0
 21 20  1  0  0  0  0
 22 18  2  0  0  0  0
 24 35  1  6  0  0  0
 24 30  1  0  0  0  0
 24 27  1  0  0  0  0
 26 29  1  0  0  0  0
 27 32  1  0  0  0  0
 28 30  1  0  0  0  0
 30 26  2  0  0  0  0
 31 34  1  0  0  0  0
 31 25  2  0  0  0  0
 32 29  2  0  0  0  0
 32 34  1  0  0  0  0
 33 31  1  0  0  0  0
 36 38  1  0  0  0  0
 37 35  1  0  0  0  0
 38 35  2  0  0  0  0
 39 36  1  0  0  0  0
 39 37  2  0  0  0  0
 40 43  1  6  0  0  0
 40 41  1  0  0  0  0
 41 42  1  0  0  0  0
 43 45  1  0  0  0  0
 45 44  1  1  0  0  0
 46 45  1  0  0  0  0
 48 47  1  6  0  0  0
 48 46  1  0  0  0  0
 49 48  1  1  0  0  0
 49 50  1  0  0  0  0
 50 52  1  6  0  0  0
 53 57  1  6  0  0  0
 53 55  1  0  0  0  0
 53 54  1  0  0  0  0
 54 51  1  6  0  0  0
 54 58  1  0  0  0  0
 54 50  1  0  0  0  0
 55 49  1  0  0  0  0
 56 57  1  0  0  0  0
 59 58  1  0  0  0  0
 59 60  1  0  0  0  0
M  END
>  <MODEL>
1

>  <REMARK>
 VINA RESULT:      -7.2      0.000      0.000
  Name = 
  16 active torsions:
  status: ('A' for Active; 'I' for Inactive)
    1  A    between atoms: C_1  and  C_58
    2  A    between atoms: C_2  and  C_15
    3  A    between atoms: C_2  and  C_33
    4  A    between atoms: C_2  and  C_41
    5  A    between atoms: C_3  and  C_11
    6  A    between atoms: N_6  and  C_58
    7  A    between atoms: N_8  and  C_15
    8  A    between atoms: C_9  and  C_53
    9  A    between atoms: C_13  and  N_47
   10  A    between atoms: C_15  and  C_35
   11  A    between atoms: C_25  and  C_27
   12  A    between atoms: C_25  and  N_45
   13  A    between atoms: C_30  and  C_46
   14  A    between atoms: C_41  and  C_57
   15  A    between atoms: N_45  and  C_57
   16  A    between atoms: C_50  and  C_53
                            x       y       z     vdW  Elec       q    Type
                         _______ _______ _______ _____ _____    ______ ____

>  <TORSDO>
F 16

$$$$
=
 OpenBabel11042418503D

 60 64  0  0  1  0  0  0  0  0999 V2000
  194.8540  174.7760  142.9720 C   0  0  1  0  0  3  0  0  0  0  0  0
  194.1380  173.7420  139.3660 N   0  0  0  0  0  2  0  0  0  0  0  0
  193.6720  173.2680  136.9920 N   0  0  0  0  0  2  0  0  0  0  0  0
  194.5080  173.9990  141.7880 N   0  0  0  0  0  2  0  0  0  0  0  0
  194.4640  174.5730  140.4840 C   0  0  0  0  0  0  0  0  0  0  0  0
  193.8010  175.4480  137.8020 O   0  0  0  0  0  0  0  0  0  0  0  0
  193.8730  174.2130  138.0410 C   0  0  0  0  0  0  0  0  0  0  0  0
  194.7120  175.7990  140.3230 O   0  0  0  0  0  0  0  0  0  0  0  0
  194.3190  173.4000  134.7520 O   0  0  0  0  0  1  0  0  0  0  0  0
  193.2800  173.6690  135.6470 C   0  0  1  0  0  3  0  0  0  0  0  0
  191.9750  172.9690  135.2280 C   0  0  1  0  0  3  0  0  0  0  0  0
  190.3920  171.6630  136.5550 C   0  0  0  0  0  2  0  0  0  0  0  0
  191.8090  171.6670  136.0000 C   0  0  0  0  0  2  0  0  0  0  0  0
  190.3010  173.7160  137.9380 C   0  0  0  0  0  1  0  0  0  0  0  0
  190.8730  175.1410  135.6180 O   0  0  0  0  0  1  0  0  0  0  0  0
  189.9300  173.1100  136.5870 C   0  0  1  0  0  3  0  0  0  0  0  0
  190.6770  173.7660  135.4330 C   0  0  2  0  0  3  0  0  0  0  0  0
  191.3220  175.9740  145.1410 C   0  0  0  0  0  0  0  0  0  0  0  0
  192.9220  176.3240  143.3520 C   0  0  0  0  0  3  0  0  0  0  0  0
  193.1840  174.4390  144.8500 C   0  0  0  0  0  3  0  0  0  0  0  0
  193.6290  175.1810  143.7450 C   0  0  0  0  0  0  0  0  0  0  0  0
  191.7770  176.7190  144.0490 C   0  0  0  0  0  3  0  0  0  0  0  0
  192.0350  174.8350  145.5410 C   0  0  0  0  0  3  0  0  0  0  0  0
  186.4320  178.4770  144.8580 C   0  0  2  0  0  3  0  0  0  0  0  0
  191.1140  177.1880  147.8140 O   0  0  0  0  0  0  0  0  0  0  0  0
  185.2120  177.9290  146.9270 C   0  0  0  0  0  3  0  0  0  0  0  0
  187.5890  177.6370  145.4100 C   0  0  0  0  0  2  0  0  0  0  0  0
  183.9140  178.4380  145.0320 O   0  0  0  0  0  1  0  0  0  0  0  0
  186.4760  177.7280  147.5770 N   0  0  0  0  0  0  0  0  0  0  0  0
  185.1540  178.2430  145.6300 C   0  0  0  0  0  0  0  0  0  0  0  0
  190.0780  177.0480  147.1160 C   0  0  0  0  0  0  0  0  0  0  0  0
  187.5970  177.6310  146.9210 C   0  0  0  0  0  0  0  0  0  0  0  0
  190.1430  176.4110  145.8290 N   0  0  0  0  0  2  0  0  0  0  0  0
  188.8190  177.4700  147.6550 N   0  0  0  0  0  2  0  0  0  0  0  0
  186.2680  178.2350  143.3880 C   0  0  0  0  0  0  0  0  0  0  0  0
  185.9220  178.6260  141.2840 O   0  0  0  0  0  0  0  0  0  0  0  0
  186.3090  176.8790  142.7630 C   0  0  0  0  0  3  0  0  0  0  0  0
  186.0490  179.1750  142.5340 N   0  0  0  0  0  0  0  0  0  0  0  0
  186.0770  177.2120  141.2860 C   0  0  0  0  0  3  0  0  0  0  0  0
  195.9360  174.0700  143.7990 C   0  0  2  0  0  3  0  0  0  0  0  0
  197.2310  174.8600  144.0070 C   0  0  0  0  0  2  0  0  0  0  0  0
  197.2990  176.1210  143.1600 C   0  0  0  0  0  1  0  0  0  0  0  0
  196.1640  172.6290  143.3590 C   0  0  0  0  0  2  0  0  0  0  0  0
  196.7240  171.4790  145.4740 C   0  0  0  0  0  1  0  0  0  0  0  0
  195.6510  171.6700  144.4170 C   0  0  2  0  0  3  0  0  0  0  0  0
  195.3390  170.3880  143.8020 N   0  0  0  0  0  2  0  0  0  0  0  0
  195.3170  169.9130  141.5210 O   0  0  0  0  0  1  0  0  0  0  0  0
  194.6900  170.6560  142.5260 C   0  0  1  0  0  3  0  0  0  0  0  0
  193.2120  170.2840  142.6020 C   0  0  1  0  0  3  0  0  0  0  0  0
  192.4000  171.4450  143.1560 C   0  0  2  0  0  3  0  0  0  0  0  0
  190.1560  171.0490  142.4660 F   0  0  0  0  0  0  0  0  0  0  0  0
  191.8450  171.1030  144.3910 O   0  0  0  0  0  1  0  0  0  0  0  0
  191.9500  171.0330  140.8900 C   0  0  1  0  0  3  0  0  0  0  0  0
  191.3380  171.6870  142.1130 C   0  0  2  0  0  0  0  0  0  0  0  0
  192.7270  169.9450  141.3200 O   0  0  0  0  0  0  0  0  0  0  0  0
  191.1390  169.1400  139.4840 C   0  0  0  0  0  1  0  0  0  0  0  0
  190.9080  170.5880  139.8730 C   0  0  0  0  0  2  0  0  0  0  0  0
  191.0650  173.1830  141.9070 C   0  0  0  0  0  2  0  0  0  0  0  0
  189.7320  173.6570  142.4850 C   0  0  0  0  0  2  0  0  0  0  0  0
  189.3790  175.0360  141.9590 C   0  0  0  0  0  1  0  0  0  0  0  0
  1  4  1  6  0  0  0
  1 21  1  0  0  0  0
  1 40  1  0  0  0  0
  2  5  1  0  0  0  0
  3  7  1  0  0  0  0
  5  4  1  0  0  0  0
  6  7  2  0  0  0  0
  7  2  1  0  0  0  0
  8  5  2  0  0  0  0
 10  9  1  6  0  0  0
 10  3  1  0  0  0  0
 11 17  1  0  0  0  0
 11 10  1  1  0  0  0
 11 13  1  0  0  0  0
 12 16  1  0  0  0  0
 13 12  1  0  0  0  0
 16 14  1  1  0  0  0
 17 15  1  1  0  0  0
 17 16  1  0  0  0  0
 18 23  1  0  0  0  0
 18 33  1  0  0  0  0
 19 21  2  0  0  0  0
 19 22  1  0  0  0  0
 20 23  2  0  0  0  0
 21 20  1  0  0  0  0
 22 18  2  0  0  0  0
 24 35  1  6  0  0  0
 24 27  1  0  0  0  0
 24 30  1  0  0  0  0
 26 29  1  0  0  0  0
 27 32  1  0  0  0  0
 28 30  1  0  0  0  0
 30 26  2  0  0  0  0
 31 34  1  0  0  0  0
 31 25  2  0  0  0  0
 32 29  2  0  0  0  0
 32 34  1  0  0  0  0
 33 31  1  0  0  0  0
 36 39  1  0  0  0  0
 36 38  1  0  0  0  0
 37 35  1  0  0  0  0
 38 35  2  0  0  0  0
 39 37  2  0  0  0  0
 40 43  1  6  0  0  0
 40 41  1  0  0  0  0
 42 41  1  0  0  0  0
 43 45  1  0  0  0  0
 45 44  1  1  0  0  0
 46 45  1  0  0  0  0
 48 47  1  6  0  0  0
 48 46  1  0  0  0  0
 49 48  1  6  0  0  0
 49 50  1  0  0  0  0
 50 52  1  1  0  0  0
 53 57  1  6  0  0  0
 53 55  1  0  0  0  0
 53 54  1  0  0  0  0
 54 51  1  1  0  0  0
 54 50  1  0  0  0  0
 55 49  1  0  0  0  0
 56 57  1  0  0  0  0
 58 54  1  0  0  0  0
 58 59  1  0  0  0  0
 60 59  1  0  0  0  0
M  END
>  <MODEL>
2

>  <REMARK>
 VINA RESULT:      -7.1      1.787      2.395
  Name = 
  16 active torsions:
  status: ('A' for Active; 'I' for Inactive)
    1  A    between atoms: C_1  and  C_58
    2  A    between atoms: C_2  and  C_15
    3  A    between atoms: C_2  and  C_33
    4  A    between atoms: C_2  and  C_41
    5  A    between atoms: C_3  and  C_11
    6  A    between atoms: N_6  and  C_58
    7  A    between atoms: N_8  and  C_15
    8  A    between atoms: C_9  and  C_53
    9  A    between atoms: C_13  and  N_47
   10  A    between atoms: C_15  and  C_35
   11  A    between atoms: C_25  and  C_27
   12  A    between atoms: C_25  and  N_45
   13  A    between atoms: C_30  and  C_46
   14  A    between atoms: C_41  and  C_57
   15  A    between atoms: N_45  and  C_57
   16  A    between atoms: C_50  and  C_53
                            x       y       z     vdW  Elec       q    Type
                         _______ _______ _______ _____ _____    ______ ____

>  <TORSDO>
F 16

$$$$
=
 OpenBabel11042418503D

 60 64  0  0  1  0  0  0  0  0999 V2000
  195.5810  174.5520  144.0600 C   0  0  1  0  0  3  0  0  0  0  0  0
  195.3120  175.2230  140.3100 N   0  0  0  0  0  2  0  0  0  0  0  0
  194.9910  175.5210  137.8830 N   0  0  0  0  0  2  0  0  0  0  0  0
  195.8570  175.0070  142.7020 N   0  0  0  0  0  2  0  0  0  0  0  0
  194.9860  174.7230  141.6100 C   0  0  0  0  0  0  0  0  0  0  0  0
  193.7590  173.9610  139.0980 O   0  0  0  0  0  0  0  0  0  0  0  0
  194.6400  174.8620  139.0990 C   0  0  0  0  0  0  0  0  0  0  0  0
  193.9410  174.0420  141.7940 O   0  0  0  0  0  0  0  0  0  0  0  0
  193.3290  175.9170  136.2930 O   0  0  0  0  0  1  0  0  0  0  0  0
  194.4390  175.1240  136.5950 C   0  0  1  0  0  3  0  0  0  0  0  0
  195.5110  175.2060  135.4940 C   0  0  1  0  0  3  0  0  0  0  0  0
  197.9410  175.3940  135.6720 C   0  0  0  0  0  2  0  0  0  0  0  0
  196.6370  176.1340  135.9280 C   0  0  0  0  0  2  0  0  0  0  0  0
  197.7120  173.3270  137.0200 C   0  0  0  0  0  1  0  0  0  0  0  0
  195.4640  172.7400  135.4890 O   0  0  0  0  0  1  0  0  0  0  0  0
  197.6000  173.9140  135.6150 C   0  0  1  0  0  3  0  0  0  0  0  0
  196.1730  173.8800  135.0850 C   0  0  2  0  0  3  0  0  0  0  0  0
  191.6280  175.7460  145.3100 C   0  0  0  0  0  0  0  0  0  0  0  0
  193.8310  176.2980  144.4580 C   0  0  0  0  0  3  0  0  0  0  0  0
  193.2800  173.9960  144.9700 C   0  0  0  0  0  3  0  0  0  0  0  0
  194.2010  174.9480  144.5060 C   0  0  0  0  0  0  0  0  0  0  0  0
  192.5530  176.6940  144.8600 C   0  0  0  0  0  3  0  0  0  0  0  0
  192.0000  174.3960  145.3680 C   0  0  0  0  0  3  0  0  0  0  0  0
  186.8280  178.0050  143.8540 C   0  0  2  0  0  3  0  0  0  0  0  0
  190.8700  177.1790  147.7660 O   0  0  0  0  0  0  0  0  0  0  0  0
  185.2400  177.5880  145.6910 C   0  0  0  0  0  3  0  0  0  0  0  0
  187.8750  177.2660  144.6960 C   0  0  0  0  0  2  0  0  0  0  0  0
  184.3270  177.8740  143.5410 O   0  0  0  0  0  1  0  0  0  0  0  0
  186.3570  177.4990  146.5890 N   0  0  0  0  0  0  0  0  0  0  0  0
  185.4300  177.7850  144.3830 C   0  0  0  0  0  0  0  0  0  0  0  0
  189.9940  176.9350  146.8980 C   0  0  0  0  0  0  0  0  0  0  0  0
  187.5870  177.3930  146.1730 C   0  0  0  0  0  0  0  0  0  0  0  0
  190.3260  176.1920  145.7130 N   0  0  0  0  0  2  0  0  0  0  0  0
  188.6440  177.3490  147.1410 N   0  0  0  0  0  2  0  0  0  0  0  0
  186.9620  177.6280  142.4100 C   0  0  0  0  0  0  0  0  0  0  0  0
  186.9210  177.7920  140.2480 O   0  0  0  0  0  0  0  0  0  0  0  0
  187.3350  176.2600  141.9420 C   0  0  0  0  0  3  0  0  0  0  0  0
  186.7380  178.4460  141.4390 N   0  0  0  0  0  0  0  0  0  0  0  0
  187.3070  176.4340  140.4210 C   0  0  0  0  0  3  0  0  0  0  0  0
  195.9080  173.0620  144.2190 C   0  0  2  0  0  3  0  0  0  0  0  0
  196.3280  172.6220  145.6240 C   0  0  0  0  0  2  0  0  0  0  0  0
  197.0560  173.7130  146.3940 C   0  0  0  0  0  1  0  0  0  0  0  0
  196.8230  172.5400  143.1170 C   0  0  0  0  0  2  0  0  0  0  0  0
  196.3150  171.3560  141.0090 C   0  0  0  0  0  1  0  0  0  0  0  0
  196.2540  171.2660  142.5230 C   0  0  2  0  0  3  0  0  0  0  0  0
  194.8700  171.1070  142.9460 N   0  0  0  0  0  2  0  0  0  0  0  0
  195.1530  168.9900  143.8760 O   0  0  0  0  0  1  0  0  0  0  0  0
  194.5330  169.6940  142.8390 C   0  0  1  0  0  3  0  0  0  0  0  0
  193.0210  169.5080  142.9140 C   0  0  1  0  0  3  0  0  0  0  0  0
  192.3210  170.8580  142.9470 C   0  0  2  0  0  3  0  0  0  0  0  0
  190.0820  170.4380  142.2530 F   0  0  0  0  0  0  0  0  0  0  0  0
  191.6720  171.0380  144.1700 O   0  0  0  0  0  1  0  0  0  0  0  0
  191.9370  169.6920  140.9470 C   0  0  1  0  0  3  0  0  0  0  0  0
  191.3450  170.7970  141.7990 C   0  0  2  0  0  0  0  0  0  0  0  0
  192.5630  168.7710  141.8010 O   0  0  0  0  0  0  0  0  0  0  0  0
  191.1750  169.2980  138.6060 C   0  0  0  0  0  1  0  0  0  0  0  0
  190.9010  169.0020  140.0690 C   0  0  0  0  0  2  0  0  0  0  0  0
  191.2540  172.1340  141.0510 C   0  0  0  0  0  2  0  0  0  0  0  0
  189.9070  172.8400  141.2010 C   0  0  0  0  0  2  0  0  0  0  0  0
  189.8630  173.6450  142.4870 C   0  0  0  0  0  1  0  0  0  0  0  0
  1  4  1  6  0  0  0
  1 40  1  0  0  0  0
  1 21  1  0  0  0  0
  2  5  1  0  0  0  0
  3  7  1  0  0  0  0
  5  8  2  0  0  0  0
  5  4  1  0  0  0  0
  6  7  2  0  0  0  0
  7  2  1  0  0  0  0
 10  9  1  6  0  0  0
 10  3  1  0  0  0  0
 11 13  1  0  0  0  0
 11 10  1  1  0  0  0
 12 13  1  0  0  0  0
 16 12  1  0  0  0  0
 16 14  1  1  0  0  0
 17 15  1  1  0  0  0
 17 11  1  0  0  0  0
 17 16  1  0  0  0  0
 18 23  1  0  0  0  0
 18 33  1  0  0  0  0
 19 21  2  0  0  0  0
 19 22  1  0  0  0  0
 20 23  2  0  0  0  0
 21 20  1  0  0  0  0
 22 18  2  0  0  0  0
 24 35  1  6  0  0  0
 24 30  1  0  0  0  0
 24 27  1  0  0  0  0
 26 29  1  0  0  0  0
 27 32  1  0  0  0  0
 28 30  1  0  0  0  0
 30 26  2  0  0  0  0
 31 34  1  0  0  0  0
 31 25  2  0  0  0  0
 32 29  2  0  0  0  0
 32 34  1  0  0  0  0
 33 31  1  0  0  0  0
 36 39  1  0  0  0  0
 36 38  1  0  0  0  0
 37 35  1  0  0  0  0
 38 35  2  0  0  0  0
 39 37  2  0  0  0  0
 40 43  1  6  0  0  0
 40 41  1  0  0  0  0
 41 42  1  0  0  0  0
 45 44  1  6  0  0  0
 45 46  1  0  0  0  0
 45 43  1  0  0  0  0
 48 46  1  0  0  0  0
 48 47  1  1  0  0  0
 49 48  1  6  0  0  0
 49 50  1  0  0  0  0
 50 52  1  1  0  0  0
 53 57  1  1  0  0  0
 53 54  1  0  0  0  0
 53 55  1  0  0  0  0
 54 51  1  1  0  0  0
 54 50  1  0  0  0  0
 55 49  1  0  0  0  0
 56 57  1  0  0  0  0
 58 59  1  0  0  0  0
 58 54  1  0  0  0  0
 59 60  1  0  0  0  0
M  END
>  <MODEL>
3

>  <REMARK>
 VINA RESULT:      -6.2      1.788      2.496
  Name = 
  16 active torsions:
  status: ('A' for Active; 'I' for Inactive)
    1  A    between atoms: C_1  and  C_58
    2  A    between atoms: C_2  and  C_15
    3  A    between atoms: C_2  and  C_33
    4  A    between atoms: C_2  and  C_41
    5  A    between atoms: C_3  and  C_11
    6  A    between atoms: N_6  and  C_58
    7  A    between atoms: N_8  and  C_15
    8  A    between atoms: C_9  and  C_53
    9  A    between atoms: C_13  and  N_47
   10  A    between atoms: C_15  and  C_35
   11  A    between atoms: C_25  and  C_27
   12  A    between atoms: C_25  and  N_45
   13  A    between atoms: C_30  and  C_46
   14  A    between atoms: C_41  and  C_57
   15  A    between atoms: N_45  and  C_57
   16  A    between atoms: C_50  and  C_53
                            x       y       z     vdW  Elec       q    Type
                         _______ _______ _______ _____ _____    ______ ____

>  <TORSDO>
F 16

$$$$
=
 OpenBabel11042418503D

 60 64  0  0  1  0  0  0  0  0999 V2000
  195.0880  174.3260  144.4960 C   0  0  1  0  0  3  0  0  0  0  0  0
  194.9840  175.0200  140.7420 N   0  0  0  0  0  2  0  0  0  0  0  0
  194.7430  175.3720  138.3140 N   0  0  0  0  0  2  0  0  0  0  0  0
  195.4640  174.6950  143.1360 N   0  0  0  0  0  2  0  0  0  0  0  0
  194.5500  174.6200  142.0450 C   0  0  0  0  0  0  0  0  0  0  0  0
  193.1740  174.1580  139.5360 O   0  0  0  0  0  0  0  0  0  0  0  0
  194.2450  174.8230  139.5330 C   0  0  0  0  0  0  0  0  0  0  0  0
  193.3720  174.2090  142.2320 O   0  0  0  0  0  0  0  0  0  0  0  0
  193.2180  176.1410  136.7220 O   0  0  0  0  0  1  0  0  0  0  0  0
  194.1110  175.1110  137.0270 C   0  0  1  0  0  3  0  0  0  0  0  0
  195.1700  174.9340  135.9250 C   0  0  1  0  0  3  0  0  0  0  0  0
  197.6090  174.9100  136.0750 C   0  0  0  0  0  2  0  0  0  0  0  0
  196.3850  175.8010  136.2230 C   0  0  0  0  0  2  0  0  0  0  0  0
  197.2040  173.0860  137.7020 C   0  0  0  0  0  1  0  0  0  0  0  0
  194.8900  172.5070  136.2700 O   0  0  0  0  0  1  0  0  0  0  0  0
  197.1280  173.4770  136.2280 C   0  0  1  0  0  3  0  0  0  0  0  0
  195.6970  173.5060  135.7090 C   0  0  2  0  0  3  0  0  0  0  0  0
  191.1320  175.7640  145.4420 C   0  0  0  0  0  0  0  0  0  0  0  0
  193.4040  176.1690  144.6970 C   0  0  0  0  0  3  0  0  0  0  0  0
  192.7150  173.9250  145.2940 C   0  0  0  0  0  3  0  0  0  0  0  0
  193.7050  174.8090  144.8370 C   0  0  0  0  0  0  0  0  0  0  0  0
  192.1250  176.6430  145.0000 C   0  0  0  0  0  3  0  0  0  0  0  0
  191.4350  174.4040  145.5930 C   0  0  0  0  0  3  0  0  0  0  0  0
  186.5270  178.1290  143.5810 C   0  0  2  0  0  3  0  0  0  0  0  0
  190.3080  177.3810  147.7590 O   0  0  0  0  0  0  0  0  0  0  0  0
  184.8250  177.8980  145.3460 C   0  0  0  0  0  3  0  0  0  0  0  0
  187.4920  177.4010  144.5240 C   0  0  0  0  0  2  0  0  0  0  0  0
  184.0430  178.0850  143.1340 O   0  0  0  0  0  1  0  0  0  0  0  0
  185.8860  177.8180  146.3100 N   0  0  0  0  0  0  0  0  0  0  0  0
  185.0940  178.0030  144.0410 C   0  0  0  0  0  0  0  0  0  0  0  0
  189.4710  177.1200  146.8590 C   0  0  0  0  0  0  0  0  0  0  0  0
  187.1300  177.6340  145.9720 C   0  0  0  0  0  0  0  0  0  0  0  0
  189.8320  176.2900  145.7430 N   0  0  0  0  0  2  0  0  0  0  0  0
  188.1300  177.6050  147.0000 N   0  0  0  0  0  2  0  0  0  0  0  0
  186.7220  177.6560  142.1720 C   0  0  0  0  0  0  0  0  0  0  0  0
  186.6170  177.6040  140.0070 O   0  0  0  0  0  0  0  0  0  0  0  0
  187.3800  176.3650  141.8160 C   0  0  0  0  0  3  0  0  0  0  0  0
  186.3110  178.3110  141.1410 N   0  0  0  0  0  0  0  0  0  0  0  0
  187.2950  176.3840  140.2870 C   0  0  0  0  0  3  0  0  0  0  0  0
  195.3320  172.8340  144.7510 C   0  0  2  0  0  3  0  0  0  0  0  0
  196.3850  172.5070  145.8130 C   0  0  0  0  0  2  0  0  0  0  0  0
  197.0400  173.7470  146.4010 C   0  0  0  0  0  1  0  0  0  0  0  0
  195.4980  172.0370  143.4620 C   0  0  0  0  0  2  0  0  0  0  0  0
  195.8320  169.6880  142.7730 C   0  0  0  0  0  1  0  0  0  0  0  0
  195.0180  170.6120  143.6610 C   0  0  2  0  0  3  0  0  0  0  0  0
  193.6110  170.5180  143.3000 N   0  0  0  0  0  2  0  0  0  0  0  0
  192.6660  168.8360  141.9940 O   0  0  0  0  0  1  0  0  0  0  0  0
  193.5330  169.9330  141.9680 C   0  0  1  0  0  3  0  0  0  0  0  0
  193.0320  170.9700  140.9680 C   0  0  1  0  0  3  0  0  0  0  0  0
  192.6230  170.2980  139.6660 C   0  0  2  0  0  3  0  0  0  0  0  0
  191.1630  171.8330  138.5800 F   0  0  0  0  0  0  0  0  0  0  0  0
  193.4620  170.7040  138.6270 O   0  0  0  0  0  1  0  0  0  0  0  0
  190.7900  171.1700  140.8440 C   0  0  1  0  0  3  0  0  0  0  0  0
  191.2010  170.7480  139.4470 C   0  0  2  0  0  0  0  0  0  0  0  0
  191.9270  171.6680  141.5010 O   0  0  0  0  0  0  0  0  0  0  0  0
  189.3130  172.5850  142.2680 C   0  0  0  0  0  1  0  0  0  0  0  0
  189.6660  172.1990  140.8450 C   0  0  0  0  0  2  0  0  0  0  0  0
  190.3210  169.6220  138.8880 C   0  0  0  0  0  2  0  0  0  0  0  0
  189.7790  169.8940  137.4850 C   0  0  0  0  0  2  0  0  0  0  0  0
  190.8400  169.6170  136.4360 C   0  0  0  0  0  1  0  0  0  0  0  0
  1  4  1  6  0  0  0
  1 40  1  0  0  0  0
  1 21  1  0  0  0  0
  2  5  1  0  0  0  0
  3  7  1  0  0  0  0
  5  8  2  0  0  0  0
  5  4  1  0  0  0  0
  7  6  2  0  0  0  0
  7  2  1  0  0  0  0
 10  9  1  6  0  0  0
 10  3  1  0  0  0  0
 11 13  1  0  0  0  0
 11 10  1  1  0  0  0
 12 13  1  0  0  0  0
 12 16  1  0  0  0  0
 16 14  1  1  0  0  0
 17 11  1  0  0  0  0
 17 16  1  0  0  0  0
 17 15  1  1  0  0  0
 18 23  1  0  0  0  0
 18 33  1  0  0  0  0
 19 21  2  0  0  0  0
 19 22  1  0  0  0  0
 20 23  2  0  0  0  0
 21 20  1  0  0  0  0
 22 18  2  0  0  0  0
 24 35  1  6  0  0  0
 24 30  1  0  0  0  0
 24 27  1  0  0  0  0
 26 29  1  0  0  0  0
 27 32  1  0  0  0  0
 28 30  1  0  0  0  0
 30 26  2  0  0  0  0
 31 34  1  0  0  0  0
 31 25  2  0  0  0  0
 32 29  2  0  0  0  0
 32 34  1  0  0  0  0
 33 31  1  0  0  0  0
 36 39  1  0  0  0  0
 36 38  1  0  0  0  0
 37 35  1  0  0  0  0
 38 35  2  0  0  0  0
 39 37  2  0  0  0  0
 40 43  1  6  0  0  0
 40 41  1  0  0  0  0
 41 42  1  0  0  0  0
 43 45  1  0  0  0  0
 45 44  1  6  0  0  0
 46 45  1  0  0  0  0
 48 47  1  1  0  0  0
 48 46  1  0  0  0  0
 49 55  1  0  0  0  0
 49 48  1  1  0  0  0
 50 52  1  6  0  0  0
 50 49  1  0  0  0  0
 53 57  1  6  0  0  0
 53 55  1  0  0  0  0
 54 51  1  6  0  0  0
 54 50  1  0  0  0  0
 54 53  1  0  0  0  0
 57 56  1  0  0  0  0
 58 54  1  0  0  0  0
 59 58  1  0  0  0  0
 60 59  1  0  0  0  0
M  END
>  <MODEL>
4

>  <REMARK>
 VINA RESULT:      -5.7      1.638      2.759
  Name = 
  16 active torsions:
  status: ('A' for Active; 'I' for Inactive)
    1  A    between atoms: C_1  and  C_58
    2  A    between atoms: C_2  and  C_15
    3  A    between atoms: C_2  and  C_33
    4  A    between atoms: C_2  and  C_41
    5  A    between atoms: C_3  and  C_11
    6  A    between atoms: N_6  and  C_58
    7  A    between atoms: N_8  and  C_15
    8  A    between atoms: C_9  and  C_53
    9  A    between atoms: C_13  and  N_47
   10  A    between atoms: C_15  and  C_35
   11  A    between atoms: C_25  and  C_27
   12  A    between atoms: C_25  and  N_45
   13  A    between atoms: C_30  and  C_46
   14  A    between atoms: C_41  and  C_57
   15  A    between atoms: N_45  and  C_57
   16  A    between atoms: C_50  and  C_53
                            x       y       z     vdW  Elec       q    Type
                         _______ _______ _______ _____ _____    ______ ____

>  <TORSDO>
F 16

$$$$
=
 OpenBabel11042418503D

 60 64  0  0  1  0  0  0  0  0999 V2000
  185.2730  177.1920  143.0390 C   0  0  1  0  0  3  0  0  0  0  0  0
  182.1890  178.8390  141.5030 N   0  0  0  0  0  2  0  0  0  0  0  0
  180.1240  179.9180  140.6960 N   0  0  0  0  0  2  0  0  0  0  0  0
  184.2730  177.6640  142.0880 N   0  0  0  0  0  2  0  0  0  0  0  0
  183.1150  178.3890  142.4960 C   0  0  0  0  0  0  0  0  0  0  0  0
  180.4520  179.4370  142.9520 O   0  0  0  0  0  0  0  0  0  0  0  0
  180.9030  179.4050  141.7750 C   0  0  0  0  0  0  0  0  0  0  0  0
  182.9160  178.6290  143.7170 O   0  0  0  0  0  0  0  0  0  0  0  0
  178.7030  181.7690  140.6140 O   0  0  0  0  0  1  0  0  0  0  0  0
  178.7600  180.3980  140.8780 C   0  0  1  0  0  3  0  0  0  0  0  0
  177.7810  179.6070  139.9930 C   0  0  1  0  0  3  0  0  0  0  0  0
  178.1760  178.3730  137.9220 C   0  0  0  0  0  2  0  0  0  0  0  0
  178.1550  179.7680  138.5260 C   0  0  0  0  0  2  0  0  0  0  0  0
  179.8450  177.1650  139.2990 C   0  0  0  0  0  1  0  0  0  0  0  0
  178.2190  177.6980  141.4930 O   0  0  0  0  0  1  0  0  0  0  0  0
  178.3530  177.3990  139.0750 C   0  0  1  0  0  3  0  0  0  0  0  0
  177.6920  178.0950  140.2560 C   0  0  2  0  0  3  0  0  0  0  0  0
  188.3620  174.8800  141.1100 C   0  0  0  0  0  0  0  0  0  0  0  0
  186.7050  175.1460  142.8600 C   0  0  0  0  0  3  0  0  0  0  0  0
  187.0250  176.9070  141.2290 C   0  0  0  0  0  3  0  0  0  0  0  0
  186.3570  176.4050  142.3560 C   0  0  0  0  0  0  0  0  0  0  0  0
  187.7040  174.3900  142.2410 C   0  0  0  0  0  3  0  0  0  0  0  0
  188.0220  176.1440  140.6100 C   0  0  0  0  0  3  0  0  0  0  0  0
  193.7320  174.0200  140.2800 C   0  0  2  0  0  3  0  0  0  0  0  0
  188.3670  173.6540  138.4340 O   0  0  0  0  0  0  0  0  0  0  0  0
  193.9770  171.7250  139.4180 C   0  0  0  0  0  3  0  0  0  0  0  0
  192.2210  173.7620  140.3150 C   0  0  0  0  0  2  0  0  0  0  0  0
  195.8200  172.6310  140.5680 O   0  0  0  0  0  1  0  0  0  0  0  0
  192.6340  171.8070  138.9180 N   0  0  0  0  0  0  0  0  0  0  0  0
  194.5140  172.7390  140.1040 C   0  0  0  0  0  0  0  0  0  0  0  0
  189.3770  173.5300  139.1730 C   0  0  0  0  0  0  0  0  0  0  0  0
  191.8090  172.7510  139.2720 C   0  0  0  0  0  0  0  0  0  0  0  0
  189.3810  174.0740  140.5030 N   0  0  0  0  0  2  0  0  0  0  0  0
  190.4970  172.7770  138.6920 N   0  0  0  0  0  2  0  0  0  0  0  0
  194.1560  174.7900  141.4940 C   0  0  0  0  0  0  0  0  0  0  0  0
  194.3750  175.3560  143.5750 O   0  0  0  0  0  0  0  0  0  0  0  0
  194.9260  176.0680  141.4350 C   0  0  0  0  0  3  0  0  0  0  0  0
  193.8680  174.4320  142.6980 N   0  0  0  0  0  0  0  0  0  0  0  0
  195.0670  176.4130  142.9210 C   0  0  0  0  0  3  0  0  0  0  0  0
  185.7700  178.3370  143.9300 C   0  0  2  0  0  3  0  0  0  0  0  0
  185.8080  179.7190  143.2730 C   0  0  0  0  0  2  0  0  0  0  0  0
  185.4950  180.8470  144.2450 C   0  0  0  0  0  1  0  0  0  0  0  0
  187.0490  177.9840  144.6810 C   0  0  0  0  0  2  0  0  0  0  0  0
  185.2970  177.6380  146.3890 C   0  0  0  0  0  1  0  0  0  0  0  0
  186.7150  177.2800  145.9830 C   0  0  2  0  0  3  0  0  0  0  0  0
  187.6430  177.7090  147.0200 N   0  0  0  0  0  2  0  0  0  0  0  0
  188.0780  175.4560  146.6210 O   0  0  0  0  0  1  0  0  0  0  0  0
  188.4310  176.5500  147.4160 C   0  0  1  0  0  3  0  0  0  0  0  0
  189.9190  176.8490  147.2590 C   0  0  1  0  0  3  0  0  0  0  0  0
  190.7240  175.5590  147.2750 C   0  0  2  0  0  3  0  0  0  0  0  0
  192.8020  176.0840  146.2370 F   0  0  0  0  0  0  0  0  0  0  0  0
  191.5500  175.5170  148.3990 O   0  0  0  0  0  1  0  0  0  0  0  0
  190.7280  176.5970  145.1700 C   0  0  1  0  0  3  0  0  0  0  0  0
  191.5210  175.6030  145.9960 C   0  0  2  0  0  0  0  0  0  0  0  0
  190.1540  177.5320  146.0470 O   0  0  0  0  0  0  0  0  0  0  0  0
  190.6880  177.7820  142.9770 C   0  0  0  0  0  1  0  0  0  0  0  0
  191.5710  177.2910  144.1090 C   0  0  0  0  0  2  0  0  0  0  0  0
  191.6150  174.2240  145.3290 C   0  0  0  0  0  2  0  0  0  0  0  0
  190.5360  173.9660  144.2780 C   0  0  0  0  0  2  0  0  0  0  0  0
  190.7440  172.6160  143.6160 C   0  0  0  0  0  1  0  0  0  0  0  0
  1  4  1  6  0  0  0
  1 40  1  0  0  0  0
  2  7  1  0  0  0  0
  2  5  1  0  0  0  0
  3 10  1  0  0  0  0
  3  7  1  0  0  0  0
  4  5  1  0  0  0  0
  5  8  2  0  0  0  0
  7  6  2  0  0  0  0
 10  9  1  6  0  0  0
 11 17  1  0  0  0  0
 11 10  1  1  0  0  0
 12 13  1  0  0  0  0
 12 16  1  0  0  0  0
 13 11  1  0  0  0  0
 16 14  1  1  0  0  0
 16 17  1  0  0  0  0
 17 15  1  1  0  0  0
 18 22  1  0  0  0  0
 20 21  2  0  0  0  0
 21 19  1  0  0  0  0
 21  1  1  0  0  0  0
 22 19  2  0  0  0  0
 23 18  2  0  0  0  0
 23 20  1  0  0  0  0
 24 27  1  0  0  0  0
 24 35  1  1  0  0  0
 25 31  2  0  0  0  0
 26 30  2  0  0  0  0
 29 32  2  0  0  0  0
 29 26  1  0  0  0  0
 30 24  1  0  0  0  0
 30 28  1  0  0  0  0
 31 33  1  0  0  0  0
 32 27  1  0  0  0  0
 33 18  1  0  0  0  0
 34 31  1  0  0  0  0
 34 32  1  0  0  0  0
 35 38  2  0  0  0  0
 37 35  1  0  0  0  0
 37 39  2  0  0  0  0
 38 36  1  0  0  0  0
 39 36  1  0  0  0  0
 40 41  1  6  0  0  0
 40 43  1  0  0  0  0
 41 42  1  0  0  0  0
 43 45  1  0  0  0  0
 45 44  1  1  0  0  0
 45 46  1  0  0  0  0
 46 48  1  0  0  0  0
 48 47  1  6  0  0  0
 49 50  1  0  0  0  0
 49 48  1  6  0  0  0
 50 52  1  1  0  0  0
 53 57  1  6  0  0  0
 53 54  1  0  0  0  0
 53 55  1  0  0  0  0
 54 51  1  1  0  0  0
 54 50  1  0  0  0  0
 55 49  1  0  0  0  0
 56 57  1  0  0  0  0
 58 54  1  0  0  0  0
 59 58  1  0  0  0  0
 60 59  1  0  0  0  0
M  END
>  <MODEL>
5

>  <REMARK>
 VINA RESULT:      -5.3      3.665     11.428
  Name = 
  16 active torsions:
  status: ('A' for Active; 'I' for Inactive)
    1  A    between atoms: C_1  and  C_58
    2  A    between atoms: C_2  and  C_15
    3  A    between atoms: C_2  and  C_33
    4  A    between atoms: C_2  and  C_41
    5  A    between atoms: C_3  and  C_11
    6  A    between atoms: N_6  and  C_58
    7  A    between atoms: N_8  and  C_15
    8  A    between atoms: C_9  and  C_53
    9  A    between atoms: C_13  and  N_47
   10  A    between atoms: C_15  and  C_35
   11  A    between atoms: C_25  and  C_27
   12  A    between atoms: C_25  and  N_45
   13  A    between atoms: C_30  and  C_46
   14  A    between atoms: C_41  and  C_57
   15  A    between atoms: N_45  and  C_57
   16  A    between atoms: C_50  and  C_53
                            x       y       z     vdW  Elec       q    Type
                         _______ _______ _______ _____ _____    ______ ____

>  <TORSDO>
F 16

$$$$
=
 OpenBabel11042418503D

 60 64  0  0  1  0  0  0  0  0999 V2000
  186.9030  176.3990  142.8240 C   0  0  1  0  0  3  0  0  0  0  0  0
  183.7070  177.9310  141.4020 N   0  0  0  0  0  2  0  0  0  0  0  0
  181.6020  178.9860  140.6680 N   0  0  0  0  0  2  0  0  0  0  0  0
  185.7880  176.7310  141.9440 N   0  0  0  0  0  2  0  0  0  0  0  0
  184.7570  177.6370  142.3280 C   0  0  0  0  0  0  0  0  0  0  0  0
  182.2710  179.0120  142.9000 O   0  0  0  0  0  0  0  0  0  0  0  0
  182.5190  178.6650  141.7130 C   0  0  0  0  0  0  0  0  0  0  0  0
  184.7770  178.1730  143.4690 O   0  0  0  0  0  0  0  0  0  0  0  0
  180.4080  180.9920  140.6640 O   0  0  0  0  0  1  0  0  0  0  0  0
  180.3180  179.6220  140.9260 C   0  0  1  0  0  3  0  0  0  0  0  0
  179.2040  178.9580  140.0980 C   0  0  1  0  0  3  0  0  0  0  0  0
  178.5180  176.6160  139.9720 C   0  0  0  0  0  2  0  0  0  0  0  0
  179.6480  177.5770  139.6350 C   0  0  0  0  0  2  0  0  0  0  0  0
  178.2540  176.8620  142.4230 C   0  0  0  0  0  1  0  0  0  0  0  0
  177.6930  179.5460  141.9580 O   0  0  0  0  0  1  0  0  0  0  0  0
  177.6940  177.2750  141.0650 C   0  0  1  0  0  3  0  0  0  0  0  0
  177.8510  178.7670  140.8030 C   0  0  2  0  0  3  0  0  0  0  0  0
  189.5650  173.5060  141.0470 C   0  0  0  0  0  0  0  0  0  0  0  0
  188.4260  174.4180  142.9850 C   0  0  0  0  0  3  0  0  0  0  0  0
  188.1180  175.4450  140.8130 C   0  0  0  0  0  3  0  0  0  0  0  0
  187.8330  175.4040  142.1870 C   0  0  0  0  0  0  0  0  0  0  0  0
  189.2890  173.4770  142.4180 C   0  0  0  0  0  3  0  0  0  0  0  0
  188.9790  174.4980  140.2490 C   0  0  0  0  0  3  0  0  0  0  0  0
  194.7090  172.1630  139.6370 C   0  0  2  0  0  3  0  0  0  0  0  0
  189.1100  171.6910  138.7760 O   0  0  0  0  0  0  0  0  0  0  0  0
  194.7650  169.7200  139.3230 C   0  0  0  0  0  3  0  0  0  0  0  0
  193.2200  172.0090  139.9630 C   0  0  0  0  0  2  0  0  0  0  0  0
  196.7880  170.7610  139.9270 O   0  0  0  0  0  1  0  0  0  0  0  0
  193.3600  169.7620  139.0300 N   0  0  0  0  0  0  0  0  0  0  0  0
  195.4260  170.8330  139.6550 C   0  0  0  0  0  0  0  0  0  0  0  0
  190.2230  171.6840  139.3590 C   0  0  0  0  0  0  0  0  0  0  0  0
  192.6230  170.8080  139.2690 C   0  0  0  0  0  0  0  0  0  0  0  0
  190.4550  172.5220  140.5030 N   0  0  0  0  0  2  0  0  0  0  0  0
  191.2350  170.7750  138.9080 N   0  0  0  0  0  2  0  0  0  0  0  0
  195.3410  173.1690  140.5500 C   0  0  0  0  0  0  0  0  0  0  0  0
  195.6620  174.4270  142.2870 O   0  0  0  0  0  0  0  0  0  0  0  0
  196.5500  173.9680  140.1920 C   0  0  0  0  0  3  0  0  0  0  0  0
  194.8780  173.4560  141.7190 N   0  0  0  0  0  0  0  0  0  0  0  0
  196.7420  174.8220  141.4490 C   0  0  0  0  0  3  0  0  0  0  0  0
  187.5810  177.6670  143.3570 C   0  0  2  0  0  3  0  0  0  0  0  0
  188.9830  177.9490  142.8080 C   0  0  0  0  0  2  0  0  0  0  0  0
  188.9650  178.7660  141.5260 C   0  0  0  0  0  1  0  0  0  0  0  0
  187.4830  177.7940  144.8720 C   0  0  0  0  0  2  0  0  0  0  0  0
  186.5930  176.6360  146.8650 C   0  0  0  0  0  1  0  0  0  0  0  0
  187.2150  176.4370  145.4950 C   0  0  2  0  0  3  0  0  0  0  0  0
  188.4690  175.7080  145.6310 N   0  0  0  0  0  2  0  0  0  0  0  0
  189.4040  174.9560  147.6270 O   0  0  0  0  0  1  0  0  0  0  0  0
  189.0740  176.1010  146.8960 C   0  0  1  0  0  3  0  0  0  0  0  0
  190.3260  176.9360  146.6420 C   0  0  1  0  0  3  0  0  0  0  0  0
  191.5240  176.3240  147.3510 C   0  0  2  0  0  3  0  0  0  0  0  0
  193.4420  177.1980  146.2440 F   0  0  0  0  0  0  0  0  0  0  0  0
  191.9860  177.1820  148.3510 O   0  0  0  0  0  1  0  0  0  0  0  0
  191.6780  176.1580  145.0160 C   0  0  1  0  0  3  0  0  0  0  0  0
  192.5460  176.1370  146.2580 C   0  0  2  0  0  0  0  0  0  0  0  0
  190.5900  177.0110  145.2580 O   0  0  0  0  0  0  0  0  0  0  0  0
  192.1370  175.6460  142.6190 C   0  0  0  0  0  1  0  0  0  0  0  0
  192.4400  176.5880  143.7690 C   0  0  0  0  0  2  0  0  0  0  0  0
  193.3210  174.8210  146.4150 C   0  0  0  0  0  2  0  0  0  0  0  0
  193.0300  173.7940  145.3220 C   0  0  0  0  0  2  0  0  0  0  0  0
  194.0560  172.6770  145.3480 C   0  0  0  0  0  1  0  0  0  0  0  0
  1  4  1  6  0  0  0
  1 40  1  0  0  0  0
  2  7  1  0  0  0  0
  2  5  1  0  0  0  0
  3 10  1  0  0  0  0
  3  7  1  0  0  0  0
  4  5  1  0  0  0  0
  5  8  2  0  0  0  0
  7  6  2  0  0  0  0
 10  9  1  6  0  0  0
 11 17  1  0  0  0  0
 11 10  1  1  0  0  0
 12 16  1  0  0  0  0
 13 12  1  0  0  0  0
 13 11  1  0  0  0  0
 16 14  1  1  0  0  0
 17 16  1  0  0  0  0
 17 15  1  1  0  0  0
 18 22  1  0  0  0  0
 20 21  2  0  0  0  0
 21  1  1  0  0  0  0
 21 19  1  0  0  0  0
 22 19  2  0  0  0  0
 23 20  1  0  0  0  0
 23 18  2  0  0  0  0
 24 30  1  0  0  0  0
 24 27  1  0  0  0  0
 24 35  1  1  0  0  0
 25 31  2  0  0  0  0
 26 30  2  0  0  0  0
 29 32  2  0  0  0  0
 29 26  1  0  0  0  0
 30 28  1  0  0  0  0
 31 33  1  0  0  0  0
 32 27  1  0  0  0  0
 33 18  1  0  0  0  0
 34 32  1  0  0  0  0
 34 31  1  0  0  0  0
 35 38  2  0  0  0  0
 37 35  1  0  0  0  0
 37 39  2  0  0  0  0
 38 36  1  0  0  0  0
 39 36  1  0  0  0  0
 40 41  1  1  0  0  0
 40 43  1  0  0  0  0
 42 41  1  0  0  0  0
 43 45  1  0  0  0  0
 45 46  1  0  0  0  0
 45 44  1  1  0  0  0
 46 48  1  0  0  0  0
 48 47  1  6  0  0  0
 49 48  1  6  0  0  0
 49 50  1  0  0  0  0
 50 52  1  1  0  0  0
 53 57  1  6  0  0  0
 53 55  1  0  0  0  0
 53 54  1  0  0  0  0
 54 51  1  6  0  0  0
 54 58  1  0  0  0  0
 54 50  1  0  0  0  0
 55 49  1  0  0  0  0
 56 57  1  0  0  0  0
 59 60  1  0  0  0  0
 59 58  1  0  0  0  0
M  END
>  <MODEL>
6

>  <REMARK>
 VINA RESULT:      -5.2      3.392     11.266
  Name = 
  16 active torsions:
  status: ('A' for Active; 'I' for Inactive)
    1  A    between atoms: C_1  and  C_58
    2  A    between atoms: C_2  and  C_15
    3  A    between atoms: C_2  and  C_33
    4  A    between atoms: C_2  and  C_41
    5  A    between atoms: C_3  and  C_11
    6  A    between atoms: N_6  and  C_58
    7  A    between atoms: N_8  and  C_15
    8  A    between atoms: C_9  and  C_53
    9  A    between atoms: C_13  and  N_47
   10  A    between atoms: C_15  and  C_35
   11  A    between atoms: C_25  and  C_27
   12  A    between atoms: C_25  and  N_45
   13  A    between atoms: C_30  and  C_46
   14  A    between atoms: C_41  and  C_57
   15  A    between atoms: N_45  and  C_57
   16  A    between atoms: C_50  and  C_53
                            x       y       z     vdW  Elec       q    Type
                         _______ _______ _______ _____ _____    ______ ____

>  <TORSDO>
F 16

$$$$
=
 OpenBabel11042418503D

 60 64  0  0  1  0  0  0  0  0999 V2000
  187.8360  175.8600  142.9920 C   0  0  1  0  0  3  0  0  0  0  0  0
  184.5320  177.4700  141.9560 N   0  0  0  0  0  2  0  0  0  0  0  0
  182.3880  178.5880  141.4700 N   0  0  0  0  0  2  0  0  0  0  0  0
  186.6180  176.1980  142.2640 N   0  0  0  0  0  2  0  0  0  0  0  0
  185.6930  177.1750  142.7360 C   0  0  0  0  0  0  0  0  0  0  0  0
  183.3790  178.7030  143.5750 O   0  0  0  0  0  0  0  0  0  0  0  0
  183.4340  178.2790  142.3890 C   0  0  0  0  0  0  0  0  0  0  0  0
  185.9040  177.7720  143.8270 O   0  0  0  0  0  0  0  0  0  0  0  0
  180.8000  180.1870  140.8600 O   0  0  0  0  0  1  0  0  0  0  0  0
  181.1830  179.3020  141.8710 C   0  0  1  0  0  3  0  0  0  0  0  0
  180.0550  178.3150  142.2180 C   0  0  1  0  0  3  0  0  0  0  0  0
  177.7190  178.7360  142.8010 C   0  0  0  0  0  2  0  0  0  0  0  0
  179.1500  178.9100  143.2880 C   0  0  0  0  0  2  0  0  0  0  0  0
  177.6920  179.9260  140.6290 C   0  0  0  0  0  1  0  0  0  0  0  0
  179.6650  178.1550  139.7870 O   0  0  0  0  0  1  0  0  0  0  0  0
  177.7890  178.5560  141.2940 C   0  0  1  0  0  3  0  0  0  0  0  0
  179.1380  177.8910  141.0590 C   0  0  2  0  0  3  0  0  0  0  0  0
  190.2990  173.0670  140.8140 C   0  0  0  0  0  0  0  0  0  0  0  0
  189.3200  173.8460  142.8920 C   0  0  0  0  0  3  0  0  0  0  0  0
  188.8850  175.0440  140.8330 C   0  0  0  0  0  3  0  0  0  0  0  0
  188.6950  174.9010  142.2160 C   0  0  0  0  0  0  0  0  0  0  0  0
  190.1190  172.9360  142.1940 C   0  0  0  0  0  3  0  0  0  0  0  0
  189.6820  174.1280  140.1380 C   0  0  0  0  0  3  0  0  0  0  0  0
  194.9400  172.0850  138.0290 C   0  0  2  0  0  3  0  0  0  0  0  0
  189.4720  170.8860  139.0190 O   0  0  0  0  0  0  0  0  0  0  0  0
  195.2650  169.6430  137.9920 C   0  0  0  0  0  3  0  0  0  0  0  0
  193.6530  171.8240  138.8190 C   0  0  0  0  0  2  0  0  0  0  0  0
  197.1960  170.9760  137.8120 O   0  0  0  0  0  1  0  0  0  0  0  0
  193.8470  169.4880  138.1500 N   0  0  0  0  0  0  0  0  0  0  0  0
  195.8210  170.8590  137.9730 C   0  0  0  0  0  0  0  0  0  0  0  0
  190.6950  171.0890  139.2230 C   0  0  0  0  0  0  0  0  0  0  0  0
  193.0640  170.4730  138.4870 C   0  0  0  0  0  0  0  0  0  0  0  0
  191.1260  172.1130  140.1340 N   0  0  0  0  0  2  0  0  0  0  0  0
  191.6530  170.2350  138.5840 N   0  0  0  0  0  2  0  0  0  0  0  0
  195.6550  173.2820  138.5790 C   0  0  0  0  0  0  0  0  0  0  0  0
  196.3050  174.7990  139.9840 O   0  0  0  0  0  0  0  0  0  0  0  0
  196.5270  174.1730  137.7600 C   0  0  0  0  0  3  0  0  0  0  0  0
  195.5560  173.6650  139.8060 N   0  0  0  0  0  0  0  0  0  0  0  0
  196.9710  175.2110  138.7950 C   0  0  0  0  0  3  0  0  0  0  0  0
  188.5560  177.1230  143.4800 C   0  0  2  0  0  3  0  0  0  0  0  0
  189.3130  177.9100  142.4060 C   0  0  0  0  0  2  0  0  0  0  0  0
  190.6390  178.4650  142.9020 C   0  0  0  0  0  1  0  0  0  0  0  0
  189.3680  176.8840  144.7470 C   0  0  0  0  0  2  0  0  0  0  0  0
  187.8500  176.5270  146.6640 C   0  0  0  0  0  1  0  0  0  0  0  0
  188.6950  175.8340  145.6110 C   0  0  2  0  0  3  0  0  0  0  0  0
  189.7090  175.0160  146.2600 N   0  0  0  0  0  2  0  0  0  0  0  0
  191.8090  175.6140  147.0720 O   0  0  0  0  0  1  0  0  0  0  0  0
  191.0110  175.5760  145.9250 C   0  0  1  0  0  3  0  0  0  0  0  0
  191.6850  174.7300  144.8490 C   0  0  1  0  0  3  0  0  0  0  0  0
  192.8010  175.5160  144.1770 C   0  0  2  0  0  3  0  0  0  0  0  0
  194.2220  173.8880  143.1770 F   0  0  0  0  0  0  0  0  0  0  0  0
  192.4920  175.7460  142.8350 O   0  0  0  0  0  1  0  0  0  0  0  0
  193.6090  173.7390  145.4800 C   0  0  1  0  0  3  0  0  0  0  0  0
  194.0170  174.6370  144.3290 C   0  0  2  0  0  0  0  0  0  0  0  0
  192.2190  173.5530  145.4170 O   0  0  0  0  0  0  0  0  0  0  0  0
  193.5070  171.3560  144.7550 C   0  0  0  0  0  1  0  0  0  0  0  0
  194.3380  172.4020  145.4750 C   0  0  0  0  0  2  0  0  0  0  0  0
  195.2810  175.4520  144.6350 C   0  0  0  0  0  2  0  0  0  0  0  0
  196.1190  175.7860  143.4020 C   0  0  0  0  0  2  0  0  0  0  0  0
  196.8020  177.1310  143.5650 C   0  0  0  0  0  1  0  0  0  0  0  0
  1  4  1  6  0  0  0
  1 40  1  0  0  0  0
  2  7  1  0  0  0  0
  2  5  1  0  0  0  0
  3 10  1  0  0  0  0
  3  7  1  0  0  0  0
  4  5  1  0  0  0  0
  5  8  2  0  0  0  0
  7  6  2  0  0  0  0
 10  9  1  6  0  0  0
 11 10  1  6  0  0  0
 11 13  1  0  0  0  0
 12 13  1  0  0  0  0
 16 14  1  6  0  0  0
 16 12  1  0  0  0  0
 17 15  1  6  0  0  0
 17 16  1  0  0  0  0
 17 11  1  0  0  0  0
 18 22  1  0  0  0  0
 20 21  2  0  0  0  0
 21 19  1  0  0  0  0
 21  1  1  0  0  0  0
 22 19  2  0  0  0  0
 23 18  2  0  0  0  0
 23 20  1  0  0  0  0
 24 35  1  1  0  0  0
 24 27  1  0  0  0  0
 25 31  2  0  0  0  0
 26 29  1  0  0  0  0
 28 30  1  0  0  0  0
 29 32  2  0  0  0  0
 30 26  2  0  0  0  0
 30 24  1  0  0  0  0
 31 33  1  0  0  0  0
 32 34  1  0  0  0  0
 32 27  1  0  0  0  0
 33 18  1  0  0  0  0
 34 31  1  0  0  0  0
 35 38  2  0  0  0  0
 37 35  1  0  0  0  0
 37 39  2  0  0  0  0
 38 36  1  0  0  0  0
 39 36  1  0  0  0  0
 40 41  1  6  0  0  0
 40 43  1  0  0  0  0
 41 42  1  0  0  0  0
 43 45  1  0  0  0  0
 45 46  1  0  0  0  0
 45 44  1  1  0  0  0
 48 46  1  0  0  0  0
 48 47  1  1  0  0  0
 49 55  1  0  0  0  0
 49 48  1  1  0  0  0
 50 52  1  6  0  0  0
 50 54  1  0  0  0  0
 50 49  1  0  0  0  0
 53 57  1  6  0  0  0
 54 51  1  6  0  0  0
 54 58  1  0  0  0  0
 54 53  1  0  0  0  0
 55 53  1  0  0  0  0
 56 57  1  0  0  0  0
 59 60  1  0  0  0  0
 59 58  1  0  0  0  0
M  END
>  <MODEL>
7

>  <REMARK>
 VINA RESULT:      -4.8      3.221     11.112
  Name = 
  16 active torsions:
  status: ('A' for Active; 'I' for Inactive)
    1  A    between atoms: C_1  and  C_58
    2  A    between atoms: C_2  and  C_15
    3  A    between atoms: C_2  and  C_33
    4  A    between atoms: C_2  and  C_41
    5  A    between atoms: C_3  and  C_11
    6  A    between atoms: N_6  and  C_58
    7  A    between atoms: N_8  and  C_15
    8  A    between atoms: C_9  and  C_53
    9  A    between atoms: C_13  and  N_47
   10  A    between atoms: C_15  and  C_35
   11  A    between atoms: C_25  and  C_27
   12  A    between atoms: C_25  and  N_45
   13  A    between atoms: C_30  and  C_46
   14  A    between atoms: C_41  and  C_57
   15  A    between atoms: N_45  and  C_57
   16  A    between atoms: C_50  and  C_53
                            x       y       z     vdW  Elec       q    Type
                         _______ _______ _______ _____ _____    ______ ____

>  <TORSDO>
F 16

$$$$
=
 OpenBabel11042418503D

 60 64  0  0  1  0  0  0  0  0999 V2000
  190.1190  175.9870  142.1400 C   0  0  1  0  0  3  0  0  0  0  0  0
  191.3050  172.4440  141.3480 N   0  0  0  0  0  2  0  0  0  0  0  0
  192.1730  170.2340  140.6840 N   0  0  0  0  0  2  0  0  0  0  0  0
  190.2550  174.5350  142.1170 N   0  0  0  0  0  2  0  0  0  0  0  0
  191.2150  173.8710  141.2990 C   0  0  0  0  0  0  0  0  0  0  0  0
  192.6640  172.1580  139.4650 O   0  0  0  0  0  0  0  0  0  0  0  0
  192.0800  171.6390  140.4550 C   0  0  0  0  0  0  0  0  0  0  0  0
  191.9760  174.5390  140.5470 O   0  0  0  0  0  0  0  0  0  0  0  0
  193.7010  168.4850  140.4520 O   0  0  0  0  0  1  0  0  0  0  0  0
  192.8410  169.3350  139.7520 C   0  0  1  0  0  3  0  0  0  0  0  0
  191.8140  168.5460  138.9230 C   0  0  1  0  0  3  0  0  0  0  0  0
  189.7640  169.2980  137.8250 C   0  0  0  0  0  2  0  0  0  0  0  0
  190.4110  169.0770  139.1840 C   0  0  0  0  0  2  0  0  0  0  0  0
  191.2930  170.8920  136.7020 C   0  0  0  0  0  1  0  0  0  0  0  0
  193.2860  168.9720  136.9900 O   0  0  0  0  0  1  0  0  0  0  0  0
  190.8950  169.4230  136.8170 C   0  0  1  0  0  3  0  0  0  0  0  0
  192.0090  168.5630  137.3980 C   0  0  2  0  0  3  0  0  0  0  0  0
  186.0020  177.2290  142.4870 C   0  0  0  0  0  0  0  0  0  0  0  0
  188.2600  177.6000  141.6810 C   0  0  0  0  0  3  0  0  0  0  0  0
  187.7580  175.6260  142.9920 C   0  0  0  0  0  3  0  0  0  0  0  0
  188.6810  176.4060  142.2770 C   0  0  0  0  0  0  0  0  0  0  0  0
  186.9280  178.0100  141.7880 C   0  0  0  0  0  3  0  0  0  0  0  0
  186.4250  176.0380  143.0920 C   0  0  0  0  0  3  0  0  0  0  0  0
  181.1820  177.9910  139.9470 C   0  0  2  0  0  3  0  0  0  0  0  0
  184.9570  179.6000  143.8820 O   0  0  0  0  0  0  0  0  0  0  0  0
  179.4900  178.3750  141.6960 C   0  0  0  0  0  3  0  0  0  0  0  0
  182.2100  177.8690  141.0780 C   0  0  0  0  0  2  0  0  0  0  0  0
  178.7280  177.4750  139.6600 O   0  0  0  0  0  1  0  0  0  0  0  0
  180.5380  178.8500  142.5550 N   0  0  0  0  0  0  0  0  0  0  0  0
  179.7660  177.9210  140.4700 C   0  0  0  0  0  0  0  0  0  0  0  0
  184.1710  178.8750  143.2210 C   0  0  0  0  0  0  0  0  0  0  0  0
  181.8000  178.6760  142.2870 C   0  0  0  0  0  0  0  0  0  0  0  0
  184.6450  177.6830  142.5730 N   0  0  0  0  0  2  0  0  0  0  0  0
  182.7800  179.2190  143.1830 N   0  0  0  0  0  2  0  0  0  0  0  0
  181.4540  176.9680  138.8850 C   0  0  0  0  0  0  0  0  0  0  0  0
  182.5450  175.6110  137.5950 O   0  0  0  0  0  0  0  0  0  0  0  0
  180.4000  176.4070  137.9890 C   0  0  0  0  0  3  0  0  0  0  0  0
  182.6290  176.5030  138.6320 N   0  0  0  0  0  0  0  0  0  0  0  0
  181.2160  175.4500  137.1140 C   0  0  0  0  0  3  0  0  0  0  0  0
  191.0750  176.6150  143.1610 C   0  0  2  0  0  3  0  0  0  0  0  0
  190.4990  177.7690  143.9860 C   0  0  0  0  0  2  0  0  0  0  0  0
  191.3190  179.0450  143.8760 C   0  0  0  0  0  1  0  0  0  0  0  0
  192.4500  176.9130  142.5730 C   0  0  0  0  0  2  0  0  0  0  0  0
  194.6700  175.8290  142.6240 C   0  0  0  0  0  1  0  0  0  0  0  0
  193.5370  176.3670  143.4790 C   0  0  2  0  0  3  0  0  0  0  0  0
  192.9930  175.2930  144.2980 N   0  0  0  0  0  2  0  0  0  0  0  0
  193.3760  176.9500  145.8890 O   0  0  0  0  0  1  0  0  0  0  0  0
  193.3520  175.5680  145.6830 C   0  0  1  0  0  3  0  0  0  0  0  0
  192.3420  174.9190  146.6250 C   0  0  1  0  0  3  0  0  0  0  0  0
  191.3600  175.9570  147.1470 C   0  0  2  0  0  3  0  0  0  0  0  0
  189.4570  174.7290  147.8840 F   0  0  0  0  0  0  0  0  0  0  0  0
  191.5120  176.1180  148.5250 O   0  0  0  0  0  1  0  0  0  0  0  0
  190.3530  174.4150  145.6920 C   0  0  1  0  0  3  0  0  0  0  0  0
  190.0050  175.3950  146.7950 C   0  0  2  0  0  0  0  0  0  0  0  0
  191.6330  173.9000  145.9540 O   0  0  0  0  0  0  0  0  0  0  0  0
  189.8610  172.2150  144.6280 C   0  0  0  0  0  1  0  0  0  0  0  0
  189.3330  173.2920  145.5550 C   0  0  0  0  0  2  0  0  0  0  0  0
  189.0340  176.4880  146.3280 C   0  0  0  0  0  2  0  0  0  0  0  0
  187.5850  176.2560  146.7560 C   0  0  0  0  0  2  0  0  0  0  0  0
  186.8680  177.5780  146.9580 C   0  0  0  0  0  1  0  0  0  0  0  0
  1  4  1  1  0  0  0
  1 21  1  0  0  0  0
  1 40  1  0  0  0  0
  5  2  1  0  0  0  0
  5  4  1  0  0  0  0
  6  7  2  0  0  0  0
  7  3  1  0  0  0  0
  7  2  1  0  0  0  0
  8  5  2  0  0  0  0
 10  9  1  1  0  0  0
 10  3  1  0  0  0  0
 11 13  1  0  0  0  0
 11 10  1  1  0  0  0
 12 13  1  0  0  0  0
 16 14  1  1  0  0  0
 16 17  1  0  0  0  0
 16 12  1  0  0  0  0
 17 15  1  1  0  0  0
 17 11  1  0  0  0  0
 18 33  1  0  0  0  0
 18 23  1  0  0  0  0
 19 22  1  0  0  0  0
 19 21  2  0  0  0  0
 20 23  2  0  0  0  0
 21 20  1  0  0  0  0
 22 18  2  0  0  0  0
 24 35  1  6  0  0  0
 24 30  1  0  0  0  0
 24 27  1  0  0  0  0
 26 29  1  0  0  0  0
 27 32  1  0  0  0  0
 28 30  1  0  0  0  0
 30 26  2  0  0  0  0
 31 25  2  0  0  0  0
 32 29  2  0  0  0  0
 32 34  1  0  0  0  0
 33 31  1  0  0  0  0
 34 31  1  0  0  0  0
 36 38  1  0  0  0  0
 37 35  1  0  0  0  0
 38 35  2  0  0  0  0
 39 36  1  0  0  0  0
 39 37  2  0  0  0  0
 40 43  1  6  0  0  0
 40 41  1  0  0  0  0
 42 41  1  0  0  0  0
 43 45  1  0  0  0  0
 45 44  1  6  0  0  0
 45 46  1  0  0  0  0
 46 48  1  0  0  0  0
 48 47  1  6  0  0  0
 49 48  1  6  0  0  0
 49 50  1  0  0  0  0
 50 52  1  1  0  0  0
 53 57  1  1  0  0  0
 53 55  1  0  0  0  0
 53 54  1  0  0  0  0
 54 50  1  0  0  0  0
 54 51  1  1  0  0  0
 55 49  1  0  0  0  0
 56 57  1  0  0  0  0
 58 59  1  0  0  0  0
 58 54  1  0  0  0  0
 59 60  1  0  0  0  0
M  END
>  <MODEL>
8

>  <REMARK>
 VINA RESULT:      -4.6      3.489      6.170
  Name = 
  16 active torsions:
  status: ('A' for Active; 'I' for Inactive)
    1  A    between atoms: C_1  and  C_58
    2  A    between atoms: C_2  and  C_15
    3  A    between atoms: C_2  and  C_33
    4  A    between atoms: C_2  and  C_41
    5  A    between atoms: C_3  and  C_11
    6  A    between atoms: N_6  and  C_58
    7  A    between atoms: N_8  and  C_15
    8  A    between atoms: C_9  and  C_53
    9  A    between atoms: C_13  and  N_47
   10  A    between atoms: C_15  and  C_35
   11  A    between atoms: C_25  and  C_27
   12  A    between atoms: C_25  and  N_45
   13  A    between atoms: C_30  and  C_46
   14  A    between atoms: C_41  and  C_57
   15  A    between atoms: N_45  and  C_57
   16  A    between atoms: C_50  and  C_53
                            x       y       z     vdW  Elec       q    Type
                         _______ _______ _______ _____ _____    ______ ____

>  <TORSDO>
F 16

$$$$
=
 OpenBabel11042418503D

 60 64  0  0  1  0  0  0  0  0999 V2000
  193.0530  171.7890  143.1110 C   0  0  1  0  0  3  0  0  0  0  0  0
  194.8700  173.3750  140.1500 N   0  0  0  0  0  2  0  0  0  0  0  0
  196.1530  174.5010  138.3710 N   0  0  0  0  0  2  0  0  0  0  0  0
  193.4120  172.2210  141.7650 N   0  0  0  0  0  2  0  0  0  0  0  0
  194.5700  173.0080  141.5000 C   0  0  0  0  0  0  0  0  0  0  0  0
  196.5140  174.9720  140.6240 O   0  0  0  0  0  0  0  0  0  0  0  0
  195.8800  174.3100  139.7580 C   0  0  0  0  0  0  0  0  0  0  0  0
  195.3190  173.3720  142.4470 O   0  0  0  0  0  0  0  0  0  0  0  0
  197.9260  175.9130  138.9320 O   0  0  0  0  0  1  0  0  0  0  0  0
  197.0790  175.5190  137.8920 C   0  0  1  0  0  3  0  0  0  0  0  0
  197.8730  175.0070  136.6780 C   0  0  1  0  0  3  0  0  0  0  0  0
  197.5110  173.0380  135.2760 C   0  0  0  0  0  2  0  0  0  0  0  0
  197.9030  173.4850  136.6760 C   0  0  0  0  0  2  0  0  0  0  0  0
  195.2670  174.0390  134.9520 C   0  0  0  0  0  1  0  0  0  0  0  0
  196.4690  176.5200  135.3260 O   0  0  0  0  0  1  0  0  0  0  0  0
  196.7540  174.1950  134.6440 C   0  0  1  0  0  3  0  0  0  0  0  0
  197.3540  175.4330  135.2940 C   0  0  2  0  0  3  0  0  0  0  0  0
  190.0430  174.3740  144.8040 C   0  0  0  0  0  0  0  0  0  0  0  0
  192.2040  174.0560  143.7510 C   0  0  0  0  0  3  0  0  0  0  0  0
  190.8060  172.1380  144.2320 C   0  0  0  0  0  3  0  0  0  0  0  0
  191.9940  172.6720  143.7110 C   0  0  0  0  0  0  0  0  0  0  0  0
  191.2340  174.9010  144.2980 C   0  0  0  0  0  3  0  0  0  0  0  0
  189.8350  172.9880  144.7730 C   0  0  0  0  0  3  0  0  0  0  0  0
  186.4440  178.4400  143.9260 C   0  0  2  0  0  3  0  0  0  0  0  0
  190.1490  175.8320  147.3580 O   0  0  0  0  0  0  0  0  0  0  0  0
  184.9960  178.5740  145.9150 C   0  0  0  0  0  3  0  0  0  0  0  0
  187.1780  177.2950  144.6330 C   0  0  0  0  0  2  0  0  0  0  0  0
  184.0840  179.3340  143.8830 O   0  0  0  0  0  1  0  0  0  0  0  0
  186.0590  177.9920  146.6840 N   0  0  0  0  0  0  0  0  0  0  0  0
  185.1290  178.7620  144.5980 C   0  0  0  0  0  0  0  0  0  0  0  0
  189.1750  176.0110  146.5850 C   0  0  0  0  0  0  0  0  0  0  0  0
  187.1000  177.4330  146.1350 C   0  0  0  0  0  0  0  0  0  0  0  0
  189.0720  175.2730  145.3560 N   0  0  0  0  0  2  0  0  0  0  0  0
  188.1330  176.9110  146.9820 N   0  0  0  0  0  2  0  0  0  0  0  0
  186.2840  178.1330  142.4680 C   0  0  0  0  0  0  0  0  0  0  0  0
  186.7950  177.7870  140.3900 O   0  0  0  0  0  0  0  0  0  0  0  0
  184.9620  177.9220  141.8070 C   0  0  0  0  0  3  0  0  0  0  0  0
  187.2740  178.0530  141.6460 N   0  0  0  0  0  0  0  0  0  0  0  0
  185.3780  177.6670  140.3550 C   0  0  0  0  0  3  0  0  0  0  0  0
  192.7370  170.2880  143.1430 C   0  0  2  0  0  3  0  0  0  0  0  0
  193.4340  169.4880  144.2460 C   0  0  0  0  0  2  0  0  0  0  0  0
  194.9470  169.4610  144.0930 C   0  0  0  0  0  1  0  0  0  0  0  0
  192.8280  169.6390  141.7670 C   0  0  0  0  0  2  0  0  0  0  0  0
  190.4270  169.0580  141.7820 C   0  0  0  0  0  1  0  0  0  0  0  0
  191.5150  169.7960  141.0240 C   0  0  2  0  0  3  0  0  0  0  0  0
  191.6430  169.2360  139.6860 N   0  0  0  0  0  2  0  0  0  0  0  0
  192.5120  169.7120  137.5780 O   0  0  0  0  0  1  0  0  0  0  0  0
  192.4990  170.1260  138.9140 C   0  0  1  0  0  3  0  0  0  0  0  0
  191.9870  171.5600  139.0090 C   0  0  1  0  0  3  0  0  0  0  0  0
  191.8460  172.1670  137.6210 C   0  0  2  0  0  3  0  0  0  0  0  0
  190.3340  173.9900  137.8660 F   0  0  0  0  0  0  0  0  0  0  0  0
  192.7450  173.2230  137.4610 O   0  0  0  0  0  1  0  0  0  0  0  0
  189.7740  171.8090  138.6620 C   0  0  1  0  0  3  0  0  0  0  0  0
  190.4140  172.6360  137.5650 C   0  0  2  0  0  0  0  0  0  0  0  0
  190.7360  171.5900  139.6610 O   0  0  0  0  0  0  0  0  0  0  0  0
  188.6110  172.5010  140.7560 C   0  0  0  0  0  1  0  0  0  0  0  0
  188.5250  172.4610  139.2420 C   0  0  0  0  0  2  0  0  0  0  0  0
  189.7810  172.3840  136.1900 C   0  0  0  0  0  2  0  0  0  0  0  0
  189.3850  173.6590  135.4450 C   0  0  0  0  0  2  0  0  0  0  0  0
  190.5050  174.1130  134.5270 C   0  0  0  0  0  1  0  0  0  0  0  0
  1  4  1  6  0  0  0
  1 40  1  0  0  0  0
  1 21  1  0  0  0  0
  2  5  1  0  0  0  0
  3  7  1  0  0  0  0
  5  4  1  0  0  0  0
  5  8  2  0  0  0  0
  7  2  1  0  0  0  0
  7  6  2  0  0  0  0
 10  3  1  0  0  0  0
 10  9  1  1  0  0  0
 11 10  1  1  0  0  0
 12 13  1  0  0  0  0
 13 11  1  0  0  0  0
 16 14  1  1  0  0  0
 16 12  1  0  0  0  0
 16 17  1  0  0  0  0
 17 15  1  1  0  0  0
 17 11  1  0  0  0  0
 18 33  1  0  0  0  0
 19 22  1  0  0  0  0
 20 23  2  0  0  0  0
 21 19  2  0  0  0  0
 21 20  1  0  0  0  0
 22 18  2  0  0  0  0
 23 18  1  0  0  0  0
 24 35  1  6  0  0  0
 24 30  1  0  0  0  0
 24 27  1  0  0  0  0
 26 29  1  0  0  0  0
 27 32  1  0  0  0  0
 28 30  1  0  0  0  0
 30 26  2  0  0  0  0
 31 34  1  0  0  0  0
 31 25  2  0  0  0  0
 32 29  2  0  0  0  0
 32 34  1  0  0  0  0
 33 31  1  0  0  0  0
 36 38  1  0  0  0  0
 37 35  1  0  0  0  0
 38 35  2  0  0  0  0
 39 36  1  0  0  0  0
 39 37  2  0  0  0  0
 40 43  1  6  0  0  0
 40 41  1  0  0  0  0
 42 41  1  0  0  0  0
 45 43  1  0  0  0  0
 45 44  1  1  0  0  0
 46 45  1  0  0  0  0
 48 47  1  6  0  0  0
 48 46  1  0  0  0  0
 49 48  1  6  0  0  0
 49 55  1  0  0  0  0
 50 52  1  1  0  0  0
 50 49  1  0  0  0  0
 53 57  1  1  0  0  0
 53 55  1  0  0  0  0
 54 50  1  0  0  0  0
 54 51  1  1  0  0  0
 54 53  1  0  0  0  0
 57 56  1  0  0  0  0
 58 54  1  0  0  0  0
 59 58  1  0  0  0  0
 60 59  1  0  0  0  0
M  END
>  <MODEL>
9

>  <REMARK>
 VINA RESULT:      -4.4      1.877      3.049
  Name = 
  16 active torsions:
  status: ('A' for Active; 'I' for Inactive)
    1  A    between atoms: C_1  and  C_58
    2  A    between atoms: C_2  and  C_15
    3  A    between atoms: C_2  and  C_33
    4  A    between atoms: C_2  and  C_41
    5  A    between atoms: C_3  and  C_11
    6  A    between atoms: N_6  and  C_58
    7  A    between atoms: N_8  and  C_15
    8  A    between atoms: C_9  and  C_53
    9  A    between atoms: C_13  and  N_47
   10  A    between atoms: C_15  and  C_35
   11  A    between atoms: C_25  and  C_27
   12  A    between atoms: C_25  and  N_45
   13  A    between atoms: C_30  and  C_46
   14  A    between atoms: C_41  and  C_57
   15  A    between atoms: N_45  and  C_57
   16  A    between atoms: C_50  and  C_53
                            x       y       z     vdW  Elec       q    Type
                         _______ _______ _______ _____ _____    ______ ____

>  <TORSDO>
F 16

$$$$
