=
 OpenBabel11042415503D

 50 54  0  0  1  0  0  0  0  0999 V2000
  189.2350  176.4970  144.4310 C   0  0  0  0  0  0  0  0  0  0  0  0
  186.8850  177.4370  140.9720 C   0  0  0  0  0  2  0  0  0  0  0  0
  188.5060  173.1580  141.4710 C   0  0  0  0  0  2  0  0  0  0  0  0
  185.6050  176.7770  145.4300 O   0  0  0  0  0  1  0  0  0  0  0  0
  188.3200  175.6910  142.2520 C   0  0  0  0  0  0  0  0  0  0  0  0
  186.7210  177.3480  143.3050 C   0  0  0  0  0  0  0  0  0  0  0  0
  190.3730  175.8960  146.5780 C   0  0  0  0  0  0  0  0  0  0  0  0
  187.9280  175.7720  146.5490 C   0  0  0  0  0  3  0  0  0  0  0  0
  190.8030  174.2680  141.5880 C   0  0  0  0  0  2  0  0  0  0  0  0
  188.0100  174.9850  139.8990 O   0  0  0  0  0  1  0  0  0  0  0  0
  185.8230  179.5330  143.5630 O   0  0  0  0  0  1  0  0  0  0  0  0
  186.7790  176.7880  144.6640 C   0  0  0  0  0  0  0  0  0  0  0  0
  190.5200  174.7130  143.0300 C   0  0  1  0  0  3  0  0  0  0  0  0
  185.8670  178.5030  141.4090 C   0  0  2  0  0  3  0  0  0  0  0  0
  189.2770  175.5730  143.2120 C   0  0  0  0  0  0  0  0  0  0  0  0
  190.0080  173.0040  141.1980 C   0  0  2  0  0  3  0  0  0  0  0  0
  190.4390  176.3950  145.3390 C   0  0  0  0  0  3  0  0  0  0  0  0
  187.3640  176.8420  142.2520 C   0  0  0  0  0  0  0  0  0  0  0  0
  187.9350  176.3780  145.2080 C   0  0  2  0  0  3  0  0  0  0  0  0
  189.0730  175.5470  147.1940 C   0  0  0  0  0  3  0  0  0  0  0  0
  187.9970  174.5840  141.2450 C   0  0  1  0  0  3  0  0  0  0  0  0
  190.5900  173.5640  144.0320 C   0  0  0  0  0  1  0  0  0  0  0  0
  185.6580  178.3050  142.9120 C   0  0  1  0  0  3  0  0  0  0  0  0
  190.3350  172.3270  139.8410 C   0  0  1  0  0  3  0  0  0  0  0  0
  189.2040  171.6530  139.3730 O   0  0  0  0  0  1  0  0  0  0  0  0
  190.9460  173.1610  138.6810 C   0  0  1  0  0  3  0  0  0  0  0  0
  192.3520  172.7930  138.1900 C   0  0  0  0  0  2  0  0  0  0  0  0
  193.0480  172.2200  139.3310 N   0  0  0  0  0  2  0  0  0  0  0  0
  195.1760  171.8430  140.1570 O   0  0  0  0  0  0  0  0  0  0  0  0
  194.3290  172.6950  139.7660 C   0  0  0  0  0  0  0  0  0  0  0  0
  193.5510  174.9480  139.5300 F   0  0  0  0  0  0  0  0  0  0  0  0
  194.5790  174.1500  140.0260 C   0  0  1  0  0  3  0  0  0  0  0  0
  194.8030  174.3970  141.5190 C   0  0  2  0  0  3  0  0  0  0  0  0
  193.9030  173.6530  142.2770 F   0  0  0  0  0  0  0  0  0  0  0  0
  194.7240  175.8550  141.8600 C   0  0  0  0  0  0  0  0  0  0  0  0
  193.7110  176.2740  142.4990 O   0  0  0  0  0  0  0  0  0  0  0  0
  195.7760  176.7620  141.5300 N   0  0  0  0  0  1  0  0  0  0  0  0
  189.9780  173.3900  137.5220 C   0  0  0  0  0  2  0  0  0  0  0  0
  190.4770  172.6980  136.2530 C   0  0  0  0  0  2  0  0  0  0  0  0
  189.5580  171.5480  135.8920 C   0  0  0  0  0  1  0  0  0  0  0  0
  191.6320  175.8770  147.3930 C   0  0  2  0  0  3  0  0  0  0  0  0
  191.7510  177.1010  148.1870 N   0  0  0  0  0  1  0  0  0  0  0  0
  193.2010  174.3210  146.1370 C   0  0  0  0  0  3  0  0  0  0  0  0
  195.0750  176.3660  145.8340 C   0  0  0  0  0  3  0  0  0  0  0  0
  192.8850  175.6150  146.5900 C   0  0  0  0  0  0  0  0  0  0  0  0
  193.8420  176.6370  146.4410 C   0  0  0  0  0  3  0  0  0  0  0  0
  195.3720  175.0810  145.3820 C   0  0  0  0  0  3  0  0  0  0  0  0
  194.4370  174.0530  145.5440 C   0  0  0  0  0  3  0  0  0  0  0  0
  183.3220  178.1520  141.4120 C   0  0  0  0  0  1  0  0  0  0  0  0
  184.5690  178.4690  140.5640 C   0  0  0  0  0  2  0  0  0  0  0  0
  1 19  1  0  0  0  0
  1 17  1  0  0  0  0
  2 14  1  0  0  0  0
  2 18  1  0  0  0  0
  5 15  1  0  0  0  0
  6 12  2  0  0  0  0
  7 20  1  0  0  0  0
  7 41  1  0  0  0  0
  8 20  2  0  0  0  0
  9 13  1  0  0  0  0
 12 19  1  0  0  0  0
 12  4  1  0  0  0  0
 13 15  1  0  0  0  0
 13 22  1  1  0  0  0
 14 50  1  6  0  0  0
 14 23  1  0  0  0  0
 15  1  2  0  0  0  0
 16 24  1  6  0  0  0
 16  3  1  0  0  0  0
 16  9  1  0  0  0  0
 17  7  2  0  0  0  0
 18  5  2  0  0  0  0
 18  6  1  0  0  0  0
 19  8  1  6  0  0  0
 21 10  1  6  0  0  0
 21  3  1  0  0  0  0
 21  5  1  0  0  0  0
 23  6  1  0  0  0  0
 23 11  1  1  0  0  0
 24 25  1  6  0  0  0
 26 38  1  6  0  0  0
 26 24  1  0  0  0  0
 27 26  1  0  0  0  0
 27 28  1  0  0  0  0
 28 30  1  0  0  0  0
 30 32  1  0  0  0  0
 30 29  2  0  0  0  0
 32 31  1  1  0  0  0
 32 33  1  0  0  0  0
 33 35  1  0  0  0  0
 33 34  1  1  0  0  0
 35 36  2  0  0  0  0
 37 35  1  0  0  0  0
 39 38  1  0  0  0  0
 40 39  1  0  0  0  0
 41 42  1  6  0  0  0
 43 45  1  0  0  0  0
 44 46  1  0  0  0  0
 45 41  1  0  0  0  0
 46 45  2  0  0  0  0
 47 48  1  0  0  0  0
 47 44  2  0  0  0  0
 48 43  2  0  0  0  0
 50 49  1  0  0  0  0
M  END
>  <MODEL>
1

>  <REMARK>
 VINA RESULT:      -8.0      0.000      0.000
  Name = 
  12 active torsions:
  status: ('A' for Active; 'I' for Inactive)
    1  A    between atoms: C_4  and  C_6
    2  A    between atoms: C_4  and  C_30
    3  A    between atoms: C_6  and  C_13
    4  A    between atoms: C_6  and  C_50
    5  A    between atoms: C_11  and  C_14
    6  A    between atoms: N_12  and  C_13
    7  A    between atoms: C_14  and  C_16
    8  A    between atoms: C_15  and  C_22
    9  A    between atoms: C_22  and  C_31
   10  A    between atoms: C_27  and  C_48
   11  A    between atoms: C_31  and  C_47
   12  A    between atoms: C_41  and  C_50
                            x       y       z     vdW  Elec       q    Type
                         _______ _______ _______ _____ _____    ______ ____

>  <TORSDO>
F 12

$$$$
=
 OpenBabel11042415503D

 50 54  0  0  1  0  0  0  0  0999 V2000
  189.0840  176.5820  144.5120 C   0  0  0  0  0  0  0  0  0  0  0  0
  186.7950  177.4890  141.0040 C   0  0  0  0  0  2  0  0  0  0  0  0
  188.4500  173.2290  141.5460 C   0  0  0  0  0  2  0  0  0  0  0  0
  185.4320  176.8260  145.4370 O   0  0  0  0  0  1  0  0  0  0  0  0
  188.2220  175.7620  142.3170 C   0  0  0  0  0  0  0  0  0  0  0  0
  186.5850  177.4040  143.3330 C   0  0  0  0  0  0  0  0  0  0  0  0
  190.1860  175.9980  146.6820 C   0  0  0  0  0  0  0  0  0  0  0  0
  187.7430  175.8480  146.6050 C   0  0  0  0  0  3  0  0  0  0  0  0
  190.7320  174.3630  141.7060 C   0  0  0  0  0  2  0  0  0  0  0  0
  187.9660  175.0470  139.9590 O   0  0  0  0  0  1  0  0  0  0  0  0
  185.6590  179.5800  143.5680 O   0  0  0  0  0  1  0  0  0  0  0  0
  186.6220  176.8480  144.6940 C   0  0  0  0  0  0  0  0  0  0  0  0
  190.4160  174.8080  143.1410 C   0  0  1  0  0  3  0  0  0  0  0  0
  185.7570  178.5460  141.4170 C   0  0  2  0  0  3  0  0  0  0  0  0
  189.1600  175.6560  143.2960 C   0  0  0  0  0  0  0  0  0  0  0  0
  189.9590  173.0900  141.3040 C   0  0  2  0  0  3  0  0  0  0  0  0
  190.2710  176.4950  145.4440 C   0  0  0  0  0  3  0  0  0  0  0  0
  187.2540  176.9020  142.2940 C   0  0  0  0  0  0  0  0  0  0  0  0
  187.7710  176.4520  145.2620 C   0  0  2  0  0  3  0  0  0  0  0  0
  188.8770  175.6360  147.2740 C   0  0  0  0  0  3  0  0  0  0  0  0
  187.9310  174.6490  141.3070 C   0  0  1  0  0  3  0  0  0  0  0  0
  190.4780  173.6630  144.1470 C   0  0  0  0  0  1  0  0  0  0  0  0
  185.5200  178.3490  142.9170 C   0  0  1  0  0  3  0  0  0  0  0  0
  190.3200  172.4130  139.9550 C   0  0  1  0  0  3  0  0  0  0  0  0
  190.6050  173.3960  139.0020 O   0  0  0  0  0  1  0  0  0  0  0  0
  191.4220  171.3200  139.9030 C   0  0  1  0  0  3  0  0  0  0  0  0
  192.8780  171.7690  139.7230 C   0  0  0  0  0  2  0  0  0  0  0  0
  193.4150  171.9650  141.0600 N   0  0  0  0  0  2  0  0  0  0  0  0
  195.3810  172.4660  142.1710 O   0  0  0  0  0  0  0  0  0  0  0  0
  194.5220  172.8370  141.3220 C   0  0  0  0  0  0  0  0  0  0  0  0
  193.3300  174.6050  140.2320 F   0  0  0  0  0  0  0  0  0  0  0  0
  194.5340  174.2560  140.8390 C   0  0  1  0  0  3  0  0  0  0  0  0
  194.8740  175.2100  141.9860 C   0  0  2  0  0  3  0  0  0  0  0  0
  193.7750  176.0020  142.3040 F   0  0  0  0  0  0  0  0  0  0  0  0
  196.0770  176.0500  141.6730 C   0  0  0  0  0  0  0  0  0  0  0  0
  196.4520  176.9110  142.5260 O   0  0  0  0  0  0  0  0  0  0  0  0
  196.8280  175.8680  140.4730 N   0  0  0  0  0  1  0  0  0  0  0  0
  191.2820  170.2640  140.9990 C   0  0  0  0  0  2  0  0  0  0  0  0
  191.3620  168.8560  140.4090 C   0  0  0  0  0  2  0  0  0  0  0  0
  190.4920  168.7610  139.1710 C   0  0  0  0  0  1  0  0  0  0  0  0
  191.4270  175.9940  147.5220 C   0  0  2  0  0  3  0  0  0  0  0  0
  191.5020  177.2070  148.3400 N   0  0  0  0  0  1  0  0  0  0  0  0
  193.0650  174.4940  146.2850 C   0  0  0  0  0  3  0  0  0  0  0  0
  194.8830  176.5950  146.0310 C   0  0  0  0  0  3  0  0  0  0  0  0
  192.7030  175.7750  146.7420 C   0  0  0  0  0  0  0  0  0  0  0  0
  193.6320  176.8250  146.6170 C   0  0  0  0  0  3  0  0  0  0  0  0
  195.2260  175.3230  145.5760 C   0  0  0  0  0  3  0  0  0  0  0  0
  194.3180  174.2670  145.7130 C   0  0  0  0  0  3  0  0  0  0  0  0
  183.2140  178.1820  141.3730 C   0  0  0  0  0  1  0  0  0  0  0  0
  184.4770  178.4960  140.5470 C   0  0  0  0  0  2  0  0  0  0  0  0
  1 19  1  0  0  0  0
  1 17  1  0  0  0  0
  2 14  1  0  0  0  0
  2 18  1  0  0  0  0
  5 15  1  0  0  0  0
  6 12  2  0  0  0  0
  7 20  1  0  0  0  0
  7 41  1  0  0  0  0
  8 20  2  0  0  0  0
  9 13  1  0  0  0  0
 12 19  1  0  0  0  0
 12  4  1  0  0  0  0
 13 15  1  0  0  0  0
 13 22  1  1  0  0  0
 14 50  1  6  0  0  0
 14 23  1  0  0  0  0
 15  1  2  0  0  0  0
 16 24  1  6  0  0  0
 16  3  1  0  0  0  0
 16  9  1  0  0  0  0
 17  7  2  0  0  0  0
 18  5  2  0  0  0  0
 18  6  1  0  0  0  0
 19  8  1  6  0  0  0
 21 10  1  6  0  0  0
 21  3  1  0  0  0  0
 21  5  1  0  0  0  0
 23  6  1  0  0  0  0
 23 11  1  1  0  0  0
 24 25  1  6  0  0  0
 26 27  1  1  0  0  0
 26 24  1  0  0  0  0
 26 38  1  0  0  0  0
 27 28  1  0  0  0  0
 28 30  1  0  0  0  0
 30 29  2  0  0  0  0
 32 31  1  1  0  0  0
 32 30  1  0  0  0  0
 32 33  1  0  0  0  0
 33 34  1  6  0  0  0
 35 33  1  0  0  0  0
 35 36  2  0  0  0  0
 37 35  1  0  0  0  0
 39 38  1  0  0  0  0
 40 39  1  0  0  0  0
 41 42  1  6  0  0  0
 43 45  1  0  0  0  0
 44 46  1  0  0  0  0
 45 41  1  0  0  0  0
 46 45  2  0  0  0  0
 47 48  1  0  0  0  0
 47 44  2  0  0  0  0
 48 43  2  0  0  0  0
 50 49  1  0  0  0  0
M  END
>  <MODEL>
2

>  <REMARK>
 VINA RESULT:      -7.9      1.267      1.561
  Name = 
  12 active torsions:
  status: ('A' for Active; 'I' for Inactive)
    1  A    between atoms: C_4  and  C_6
    2  A    between atoms: C_4  and  C_30
    3  A    between atoms: C_6  and  C_13
    4  A    between atoms: C_6  and  C_50
    5  A    between atoms: C_11  and  C_14
    6  A    between atoms: N_12  and  C_13
    7  A    between atoms: C_14  and  C_16
    8  A    between atoms: C_15  and  C_22
    9  A    between atoms: C_22  and  C_31
   10  A    between atoms: C_27  and  C_48
   11  A    between atoms: C_31  and  C_47
   12  A    between atoms: C_41  and  C_50
                            x       y       z     vdW  Elec       q    Type
                         _______ _______ _______ _____ _____    ______ ____

>  <TORSDO>
F 12

$$$$
=
 OpenBabel11042415503D

 50 54  0  0  1  0  0  0  0  0999 V2000
  189.1900  176.5490  144.6110 C   0  0  0  0  0  0  0  0  0  0  0  0
  187.0030  177.3750  141.0180 C   0  0  0  0  0  2  0  0  0  0  0  0
  188.6270  173.1250  141.7130 C   0  0  0  0  0  2  0  0  0  0  0  0
  185.5140  176.8270  145.4260 O   0  0  0  0  0  1  0  0  0  0  0  0
  188.3870  175.6770  142.4130 C   0  0  0  0  0  0  0  0  0  0  0  0
  186.7270  177.3480  143.3420 C   0  0  0  0  0  0  0  0  0  0  0  0
  190.2280  176.0170  146.8250 C   0  0  0  0  0  0  0  0  0  0  0  0
  187.7870  175.8720  146.6830 C   0  0  0  0  0  3  0  0  0  0  0  0
  190.9080  174.2560  141.9090 C   0  0  0  0  0  2  0  0  0  0  0  0
  188.1950  174.9040  140.0680 O   0  0  0  0  0  1  0  0  0  0  0  0
  185.8030  179.5330  143.4960 O   0  0  0  0  0  1  0  0  0  0  0  0
  186.7240  176.8270  144.7170 C   0  0  0  0  0  0  0  0  0  0  0  0
  190.5530  174.7380  143.3220 C   0  0  1  0  0  3  0  0  0  0  0  0
  185.9580  178.4440  141.3750 C   0  0  2  0  0  3  0  0  0  0  0  0
  189.2960  175.5930  143.4210 C   0  0  0  0  0  0  0  0  0  0  0  0
  190.1420  172.9760  141.5170 C   0  0  2  0  0  3  0  0  0  0  0  0
  190.3500  176.4820  145.5780 C   0  0  0  0  0  3  0  0  0  0  0  0
  187.4240  176.8190  142.3350 C   0  0  0  0  0  0  0  0  0  0  0  0
  187.8550  176.4420  145.3270 C   0  0  2  0  0  3  0  0  0  0  0  0
  188.9010  175.6740  147.3880 C   0  0  0  0  0  3  0  0  0  0  0  0
  188.1200  174.5390  141.4230 C   0  0  1  0  0  3  0  0  0  0  0  0
  190.5830  173.6180  144.3580 C   0  0  0  0  0  1  0  0  0  0  0  0
  185.6780  178.2860  142.8720 C   0  0  1  0  0  3  0  0  0  0  0  0
  190.5380  172.2640  140.1960 C   0  0  1  0  0  3  0  0  0  0  0  0
  190.7590  173.2190  139.2000 O   0  0  0  0  0  1  0  0  0  0  0  0
  191.7050  171.2380  140.1840 C   0  0  1  0  0  3  0  0  0  0  0  0
  191.9760  170.4390  141.4660 C   0  0  0  0  0  2  0  0  0  0  0  0
  193.3710  170.6700  141.8050 N   0  0  0  0  0  2  0  0  0  0  0  0
  194.7420  172.1450  142.9440 O   0  0  0  0  0  0  0  0  0  0  0  0
  193.7660  171.3440  143.0070 C   0  0  0  0  0  0  0  0  0  0  0  0
  191.8640  170.7760  144.3460 F   0  0  0  0  0  0  0  0  0  0  0  0
  193.2490  170.9240  144.3490 C   0  0  1  0  0  3  0  0  0  0  0  0
  193.9440  169.6440  144.8160 C   0  0  2  0  0  3  0  0  0  0  0  0
  193.0050  168.6600  145.1130 F   0  0  0  0  0  0  0  0  0  0  0  0
  194.8530  169.8960  145.9820 C   0  0  0  0  0  0  0  0  0  0  0  0
  194.6480  169.2570  147.0580 O   0  0  0  0  0  0  0  0  0  0  0  0
  195.9610  170.7910  145.8900 N   0  0  0  0  0  1  0  0  0  0  0  0
  191.7180  170.3470  138.9420 C   0  0  0  0  0  2  0  0  0  0  0  0
  190.4530  169.4910  138.8760 C   0  0  0  0  0  2  0  0  0  0  0  0
  189.6810  169.8010  137.6090 C   0  0  0  0  0  1  0  0  0  0  0  0
  191.4450  176.0300  147.7000 C   0  0  2  0  0  3  0  0  0  0  0  0
  191.5000  177.2610  148.4900 N   0  0  0  0  0  1  0  0  0  0  0  0
  193.6120  176.8540  146.6570 C   0  0  0  0  0  3  0  0  0  0  0  0
  194.1260  174.3260  145.5940 C   0  0  0  0  0  3  0  0  0  0  0  0
  192.7410  175.7910  146.9600 C   0  0  0  0  0  0  0  0  0  0  0  0
  193.0050  174.5220  146.4110 C   0  0  0  0  0  3  0  0  0  0  0  0
  194.9850  175.3870  145.3080 C   0  0  0  0  0  3  0  0  0  0  0  0
  194.7210  176.6570  145.8310 C   0  0  0  0  0  3  0  0  0  0  0  0
  183.4110  178.1210  141.2720 C   0  0  0  0  0  1  0  0  0  0  0  0
  184.7030  178.3760  140.4700 C   0  0  0  0  0  2  0  0  0  0  0  0
  1 19  1  0  0  0  0
  1 17  1  0  0  0  0
  2 14  1  0  0  0  0
  2 18  1  0  0  0  0
  5 15  1  0  0  0  0
  6 12  2  0  0  0  0
  7 20  1  0  0  0  0
  7 41  1  0  0  0  0
  8 20  2  0  0  0  0
  9 13  1  0  0  0  0
 12 19  1  0  0  0  0
 12  4  1  0  0  0  0
 13 15  1  0  0  0  0
 13 22  1  1  0  0  0
 14 50  1  6  0  0  0
 14 23  1  0  0  0  0
 15  1  2  0  0  0  0
 16 24  1  6  0  0  0
 16  3  1  0  0  0  0
 16  9  1  0  0  0  0
 17  7  2  0  0  0  0
 18  5  2  0  0  0  0
 18  6  1  0  0  0  0
 19  8  1  6  0  0  0
 21 10  1  6  0  0  0
 21  3  1  0  0  0  0
 21  5  1  0  0  0  0
 23  6  1  0  0  0  0
 23 11  1  1  0  0  0
 24 25  1  6  0  0  0
 26 38  1  6  0  0  0
 26 24  1  0  0  0  0
 26 27  1  0  0  0  0
 27 28  1  0  0  0  0
 28 30  1  0  0  0  0
 29 30  2  0  0  0  0
 30 32  1  0  0  0  0
 32 31  1  6  0  0  0
 32 33  1  0  0  0  0
 33 34  1  1  0  0  0
 33 35  1  0  0  0  0
 35 36  2  0  0  0  0
 37 35  1  0  0  0  0
 39 38  1  0  0  0  0
 40 39  1  0  0  0  0
 41 42  1  6  0  0  0
 43 45  1  0  0  0  0
 44 46  1  0  0  0  0
 45 41  1  0  0  0  0
 46 45  2  0  0  0  0
 47 44  2  0  0  0  0
 47 48  1  0  0  0  0
 48 43  2  0  0  0  0
 50 49  1  0  0  0  0
M  END
>  <MODEL>
3

>  <REMARK>
 VINA RESULT:      -7.9      2.366      2.971
  Name = 
  12 active torsions:
  status: ('A' for Active; 'I' for Inactive)
    1  A    between atoms: C_4  and  C_6
    2  A    between atoms: C_4  and  C_30
    3  A    between atoms: C_6  and  C_13
    4  A    between atoms: C_6  and  C_50
    5  A    between atoms: C_11  and  C_14
    6  A    between atoms: N_12  and  C_13
    7  A    between atoms: C_14  and  C_16
    8  A    between atoms: C_15  and  C_22
    9  A    between atoms: C_22  and  C_31
   10  A    between atoms: C_27  and  C_48
   11  A    between atoms: C_31  and  C_47
   12  A    between atoms: C_41  and  C_50
                            x       y       z     vdW  Elec       q    Type
                         _______ _______ _______ _____ _____    ______ ____

>  <TORSDO>
F 12

$$$$
=
 OpenBabel11042415503D

 50 54  0  0  1  0  0  0  0  0999 V2000
  188.7150  174.7290  143.0740 C   0  0  0  0  0  0  0  0  0  0  0  0
  188.3980  176.6780  146.8790 C   0  0  0  0  0  2  0  0  0  0  0  0
  192.2760  177.1530  144.4460 C   0  0  0  0  0  2  0  0  0  0  0  0
  186.4470  177.7300  142.7510 O   0  0  0  0  0  1  0  0  0  0  0  0
  189.8680  176.0940  144.8180 C   0  0  0  0  0  0  0  0  0  0  0  0
  187.4020  176.6640  144.7610 C   0  0  0  0  0  0  0  0  0  0  0  0
  188.7820  173.8110  140.7460 C   0  0  0  0  0  0  0  0  0  0  0  0
  187.8000  176.0360  141.0310 C   0  0  0  0  0  2  0  0  0  0  0  0
  192.3800  174.6030  144.5110 C   0  0  0  0  0  2  0  0  0  0  0  0
  191.2870  176.8940  146.6840 O   0  0  0  0  0  1  0  0  0  0  0  0
  185.1710  176.4390  145.5500 O   0  0  0  0  0  1  0  0  0  0  0  0
  187.2890  176.7510  143.2970 C   0  0  0  0  0  0  0  0  0  0  0  0
  191.2900  174.5260  143.4320 C   0  0  1  0  0  3  0  0  0  0  0  0
  186.9180  177.0550  147.0570 C   0  0  2  0  0  3  0  0  0  0  0  0
  189.9790  175.2190  143.7830 C   0  0  0  0  0  0  0  0  0  0  0  0
  193.1850  175.9160  144.4370 C   0  0  2  0  0  3  0  0  0  0  0  0
  188.9470  173.6310  142.0610 C   0  0  0  0  0  3  0  0  0  0  0  0
  188.5350  176.4160  145.4180 C   0  0  0  0  0  0  0  0  0  0  0  0
  187.8970  175.8680  142.4900 C   0  0  0  0  0  0  0  0  0  0  0  0
  188.2140  175.0690  140.2110 C   0  0  0  0  0  3  0  0  0  0  0  0
  191.0230  176.9720  145.3060 C   0  0  1  0  0  3  0  0  0  0  0  0
  191.7980  174.9020  142.0440 C   0  0  0  0  0  1  0  0  0  0  0  0
  186.3410  177.2020  145.6470 C   0  0  1  0  0  3  0  0  0  0  0  0
  194.4420  176.0530  145.3370 C   0  0  1  0  0  3  0  0  0  0  0  0
  194.1330  175.6380  146.6350 O   0  0  0  0  0  1  0  0  0  0  0  0
  195.7850  175.4040  144.9020 C   0  0  1  0  0  3  0  0  0  0  0  0
  196.3660  174.2890  145.7820 C   0  0  0  0  0  2  0  0  0  0  0  0
  196.8130  173.2430  144.8770 N   0  0  0  0  0  2  0  0  0  0  0  0
  197.3810  171.0010  144.8330 O   0  0  0  0  0  0  0  0  0  0  0  0
  196.4900  171.8620  145.0820 C   0  0  0  0  0  0  0  0  0  0  0  0
  194.3410  172.3560  146.0150 F   0  0  0  0  0  0  0  0  0  0  0  0
  195.0790  171.4100  145.3070 C   0  0  1  0  0  3  0  0  0  0  0  0
  194.4080  171.0630  143.9780 C   0  0  2  0  0  3  0  0  0  0  0  0
  194.2710  172.2010  143.1880 F   0  0  0  0  0  0  0  0  0  0  0  0
  193.0870  170.3810  144.1820 C   0  0  0  0  0  0  0  0  0  0  0  0
  193.0790  169.2160  144.6830 O   0  0  0  0  0  0  0  0  0  0  0  0
  191.8530  171.0290  143.8750 N   0  0  0  0  0  1  0  0  0  0  0  0
  195.8330  175.0440  143.4180 C   0  0  0  0  0  2  0  0  0  0  0  0
  196.4060  176.2000  142.5980 C   0  0  0  0  0  2  0  0  0  0  0  0
  195.4810  176.5270  141.4430 C   0  0  0  0  0  1  0  0  0  0  0  0
  189.0130  172.6360  139.8450 C   0  0  2  0  0  3  0  0  0  0  0  0
  189.7210  171.5700  140.5580 N   0  0  0  0  0  1  0  0  0  0  0  0
  191.0380  173.4120  138.5190 C   0  0  0  0  0  3  0  0  0  0  0  0
  189.5330  173.5030  136.1710 C   0  0  0  0  0  3  0  0  0  0  0  0
  189.6990  172.9790  138.5430 C   0  0  0  0  0  0  0  0  0  0  0  0
  188.9470  173.0390  137.3550 C   0  0  0  0  0  3  0  0  0  0  0  0
  190.8630  173.9220  136.1590 C   0  0  0  0  0  3  0  0  0  0  0  0
  191.6140  173.8860  137.3390 C   0  0  0  0  0  3  0  0  0  0  0  0
  185.7310  179.3110  147.3770 C   0  0  0  0  0  1  0  0  0  0  0  0
  186.7250  178.2930  147.9690 C   0  0  0  0  0  2  0  0  0  0  0  0
  1 15  1  0  0  0  0
  2 14  1  0  0  0  0
  3 21  1  0  0  0  0
  4 12  1  0  0  0  0
  5 21  1  0  0  0  0
  5 18  1  0  0  0  0
  6 18  2  0  0  0  0
  6 23  1  0  0  0  0
  7 17  1  0  0  0  0
  8 19  1  0  0  0  0
 12  6  1  0  0  0  0
 13 22  1  6  0  0  0
 13 15  1  0  0  0  0
 13  9  1  0  0  0  0
 14 50  1  1  0  0  0
 15  5  2  0  0  0  0
 16  3  1  0  0  0  0
 16  9  1  0  0  0  0
 16 24  1  1  0  0  0
 17  1  2  0  0  0  0
 18  2  1  0  0  0  0
 19  1  1  0  0  0  0
 19 12  2  0  0  0  0
 20  7  2  0  0  0  0
 20  8  1  0  0  0  0
 21 10  1  1  0  0  0
 23 11  1  1  0  0  0
 23 14  1  0  0  0  0
 24 25  1  1  0  0  0
 26 38  1  6  0  0  0
 26 24  1  0  0  0  0
 26 27  1  0  0  0  0
 28 30  1  0  0  0  0
 28 27  1  0  0  0  0
 29 30  2  0  0  0  0
 30 32  1  0  0  0  0
 32 31  1  6  0  0  0
 33 34  1  6  0  0  0
 33 35  1  0  0  0  0
 33 32  1  0  0  0  0
 35 36  2  0  0  0  0
 37 35  1  0  0  0  0
 39 38  1  0  0  0  0
 40 39  1  0  0  0  0
 41 42  1  1  0  0  0
 41  7  1  0  0  0  0
 43 45  1  0  0  0  0
 44 46  1  0  0  0  0
 45 41  1  0  0  0  0
 46 45  2  0  0  0  0
 47 44  2  0  0  0  0
 47 48  1  0  0  0  0
 48 43  2  0  0  0  0
 49 50  1  0  0  0  0
M  END
>  <MODEL>
4

>  <REMARK>
 VINA RESULT:      -7.4      2.698      6.664
  Name = 
  12 active torsions:
  status: ('A' for Active; 'I' for Inactive)
    1  A    between atoms: C_4  and  C_6
    2  A    between atoms: C_4  and  C_30
    3  A    between atoms: C_6  and  C_13
    4  A    between atoms: C_6  and  C_50
    5  A    between atoms: C_11  and  C_14
    6  A    between atoms: N_12  and  C_13
    7  A    between atoms: C_14  and  C_16
    8  A    between atoms: C_15  and  C_22
    9  A    between atoms: C_22  and  C_31
   10  A    between atoms: C_27  and  C_48
   11  A    between atoms: C_31  and  C_47
   12  A    between atoms: C_41  and  C_50
                            x       y       z     vdW  Elec       q    Type
                         _______ _______ _______ _____ _____    ______ ____

>  <TORSDO>
F 12

$$$$
=
 OpenBabel11042415503D

 50 54  0  0  1  0  0  0  0  0999 V2000
  189.0870  176.4970  144.6810 C   0  0  0  0  0  0  0  0  0  0  0  0
  186.7840  177.2670  141.1490 C   0  0  0  0  0  2  0  0  0  0  0  0
  188.2610  172.9830  141.9580 C   0  0  0  0  0  2  0  0  0  0  0  0
  185.4640  176.9640  145.6340 O   0  0  0  0  0  1  0  0  0  0  0  0
  188.1550  175.5700  142.5580 C   0  0  0  0  0  0  0  0  0  0  0  0
  186.6070  177.3480  143.4810 C   0  0  0  0  0  0  0  0  0  0  0  0
  190.1950  176.0120  146.8720 C   0  0  0  0  0  0  0  0  0  0  0  0
  187.7470  175.9650  146.8360 C   0  0  0  0  0  3  0  0  0  0  0  0
  190.5930  174.0230  142.0120 C   0  0  0  0  0  2  0  0  0  0  0  0
  187.8320  174.7100  140.2580 O   0  0  0  0  0  1  0  0  0  0  0  0
  185.7810  179.5740  143.5800 O   0  0  0  0  0  1  0  0  0  0  0  0
  186.6410  176.8840  144.8760 C   0  0  0  0  0  0  0  0  0  0  0  0
  190.3190  174.5770  143.4170 C   0  0  1  0  0  3  0  0  0  0  0  0
  185.8000  178.3940  141.5030 C   0  0  2  0  0  3  0  0  0  0  0  0
  189.1030  175.4880  143.5300 C   0  0  0  0  0  0  0  0  0  0  0  0
  189.7590  172.7620  141.7070 C   0  0  2  0  0  3  0  0  0  0  0  0
  190.2830  176.4190  145.6020 C   0  0  0  0  0  3  0  0  0  0  0  0
  187.2380  176.7480  142.4700 C   0  0  0  0  0  0  0  0  0  0  0  0
  187.7810  176.4750  145.4550 C   0  0  2  0  0  3  0  0  0  0  0  0
  188.8820  175.7490  147.5030 C   0  0  0  0  0  3  0  0  0  0  0  0
  187.8010  174.4050  141.6290 C   0  0  1  0  0  3  0  0  0  0  0  0
  190.3460  173.5010  144.4980 C   0  0  0  0  0  1  0  0  0  0  0  0
  185.5780  178.3090  143.0150 C   0  0  1  0  0  3  0  0  0  0  0  0
  190.0690  171.9800  140.4020 C   0  0  1  0  0  3  0  0  0  0  0  0
  190.6130  172.8520  139.4550 O   0  0  0  0  0  1  0  0  0  0  0  0
  190.9280  170.6860  140.4560 C   0  0  1  0  0  3  0  0  0  0  0  0
  192.1230  170.5740  139.5010 C   0  0  0  0  0  2  0  0  0  0  0  0
  191.6510  169.8440  138.3360 N   0  0  0  0  0  2  0  0  0  0  0  0
  190.4190  170.1190  136.3980 O   0  0  0  0  0  0  0  0  0  0  0  0
  191.4250  170.4800  137.0720 C   0  0  0  0  0  0  0  0  0  0  0  0
  192.8810  170.8060  135.1990 F   0  0  0  0  0  0  0  0  0  0  0  0
  192.4730  171.3320  136.4230 C   0  0  1  0  0  3  0  0  0  0  0  0
  191.9770  172.7710  136.2710 C   0  0  2  0  0  3  0  0  0  0  0  0
  191.8390  173.1000  134.9260 F   0  0  0  0  0  0  0  0  0  0  0  0
  192.8690  173.7450  136.9800 C   0  0  0  0  0  0  0  0  0  0  0  0
  193.6880  173.3010  137.8420 O   0  0  0  0  0  0  0  0  0  0  0  0
  192.8540  175.1390  136.6720 N   0  0  0  0  0  1  0  0  0  0  0  0
  191.2890  170.2550  141.8770 C   0  0  0  0  0  2  0  0  0  0  0  0
  192.7540  170.5680  142.1820 C   0  0  0  0  0  2  0  0  0  0  0  0
  192.8900  171.0950  143.5960 C   0  0  0  0  0  1  0  0  0  0  0  0
  191.4490  176.0090  147.6950 C   0  0  2  0  0  3  0  0  0  0  0  0
  191.5570  177.2430  148.4750 N   0  0  0  0  0  1  0  0  0  0  0  0
  193.5940  176.7860  146.5740 C   0  0  0  0  0  3  0  0  0  0  0  0
  194.0000  174.2550  145.4730 C   0  0  0  0  0  3  0  0  0  0  0  0
  192.7080  175.7430  146.9040 C   0  0  0  0  0  0  0  0  0  0  0  0
  192.9180  174.4730  146.3340 C   0  0  0  0  0  3  0  0  0  0  0  0
  194.8740  175.2950  145.1610 C   0  0  0  0  0  3  0  0  0  0  0  0
  194.6640  176.5670  145.7040 C   0  0  0  0  0  3  0  0  0  0  0  0
  183.2330  178.2980  141.5220 C   0  0  0  0  0  1  0  0  0  0  0  0
  184.5060  178.3430  140.6540 C   0  0  0  0  0  2  0  0  0  0  0  0
  1 19  1  0  0  0  0
  1 17  1  0  0  0  0
  2 14  1  0  0  0  0
  2 18  1  0  0  0  0
  5 15  1  0  0  0  0
  6 12  2  0  0  0  0
  7 20  1  0  0  0  0
  7 41  1  0  0  0  0
  8 20  2  0  0  0  0
  9 13  1  0  0  0  0
 12 19  1  0  0  0  0
 12  4  1  0  0  0  0
 13 15  1  0  0  0  0
 13 22  1  1  0  0  0
 14 50  1  6  0  0  0
 14 23  1  0  0  0  0
 15  1  2  0  0  0  0
 16 24  1  6  0  0  0
 16  3  1  0  0  0  0
 16  9  1  0  0  0  0
 17  7  2  0  0  0  0
 18  5  2  0  0  0  0
 18  6  1  0  0  0  0
 19  8  1  6  0  0  0
 21 10  1  6  0  0  0
 21  3  1  0  0  0  0
 21  5  1  0  0  0  0
 23  6  1  0  0  0  0
 23 11  1  1  0  0  0
 24 25  1  6  0  0  0
 24 26  1  0  0  0  0
 26 27  1  6  0  0  0
 26 38  1  0  0  0  0
 28 27  1  0  0  0  0
 29 30  2  0  0  0  0
 30 28  1  0  0  0  0
 32 31  1  6  0  0  0
 32 30  1  0  0  0  0
 33 34  1  6  0  0  0
 33 32  1  0  0  0  0
 33 35  1  0  0  0  0
 35 36  2  0  0  0  0
 37 35  1  0  0  0  0
 38 39  1  0  0  0  0
 39 40  1  0  0  0  0
 41 42  1  6  0  0  0
 43 45  1  0  0  0  0
 44 46  1  0  0  0  0
 45 41  1  0  0  0  0
 46 45  2  0  0  0  0
 47 44  2  0  0  0  0
 47 48  1  0  0  0  0
 48 43  2  0  0  0  0
 50 49  1  0  0  0  0
M  END
>  <MODEL>
5

>  <REMARK>
 VINA RESULT:      -7.3      2.226      3.221
  Name = 
  12 active torsions:
  status: ('A' for Active; 'I' for Inactive)
    1  A    between atoms: C_4  and  C_6
    2  A    between atoms: C_4  and  C_30
    3  A    between atoms: C_6  and  C_13
    4  A    between atoms: C_6  and  C_50
    5  A    between atoms: C_11  and  C_14
    6  A    between atoms: N_12  and  C_13
    7  A    between atoms: C_14  and  C_16
    8  A    between atoms: C_15  and  C_22
    9  A    between atoms: C_22  and  C_31
   10  A    between atoms: C_27  and  C_48
   11  A    between atoms: C_31  and  C_47
   12  A    between atoms: C_41  and  C_50
                            x       y       z     vdW  Elec       q    Type
                         _______ _______ _______ _____ _____    ______ ____

>  <TORSDO>
F 12

$$$$
=
 OpenBabel11042415503D

 50 54  0  0  1  0  0  0  0  0999 V2000
  188.1940  175.2690  142.9900 C   0  0  0  0  0  0  0  0  0  0  0  0
  188.0360  176.8400  146.9740 C   0  0  0  0  0  2  0  0  0  0  0  0
  191.9670  177.1650  144.6030 C   0  0  0  0  0  2  0  0  0  0  0  0
  186.2440  178.5020  142.9770 O   0  0  0  0  0  1  0  0  0  0  0  0
  189.4610  176.3240  144.8650 C   0  0  0  0  0  0  0  0  0  0  0  0
  187.0650  177.1440  144.8670 C   0  0  0  0  0  0  0  0  0  0  0  0
  188.1920  174.5920  140.5800 C   0  0  0  0  0  0  0  0  0  0  0  0
  187.4360  176.8640  141.0920 C   0  0  0  0  0  2  0  0  0  0  0  0
  191.8130  174.6240  144.4050 C   0  0  0  0  0  2  0  0  0  0  0  0
  190.9340  176.7800  146.8030 O   0  0  0  0  0  1  0  0  0  0  0  0
  184.8150  177.0670  145.6280 O   0  0  0  0  0  1  0  0  0  0  0  0
  186.9770  177.3910  143.4200 C   0  0  0  0  0  0  0  0  0  0  0  0
  190.7310  174.7700  143.3240 C   0  0  1  0  0  3  0  0  0  0  0  0
  186.6000  177.3450  147.1910 C   0  0  2  0  0  3  0  0  0  0  0  0
  189.4940  175.5520  143.7450 C   0  0  0  0  0  0  0  0  0  0  0  0
  192.7470  175.8500  144.4670 C   0  0  2  0  0  3  0  0  0  0  0  0
  188.3240  174.2630  141.8690 C   0  0  0  0  0  3  0  0  0  0  0  0
  188.1610  176.7160  145.4940 C   0  0  0  0  0  0  0  0  0  0  0  0
  187.5010  176.5380  142.5260 C   0  0  0  0  0  0  0  0  0  0  0  0
  187.7590  175.9490  140.1760 C   0  0  0  0  0  3  0  0  0  0  0  0
  190.6940  177.0260  145.4400 C   0  0  1  0  0  3  0  0  0  0  0  0
  191.2890  175.2330  141.9820 C   0  0  0  0  0  1  0  0  0  0  0  0
  186.0550  177.6940  145.8040 C   0  0  1  0  0  3  0  0  0  0  0  0
  194.0020  175.7650  145.3760 C   0  0  1  0  0  3  0  0  0  0  0  0
  193.7110  174.9880  146.5000 O   0  0  0  0  0  1  0  0  0  0  0  0
  195.3640  175.3110  144.7820 C   0  0  1  0  0  3  0  0  0  0  0  0
  196.2160  176.3550  144.0490 C   0  0  0  0  0  2  0  0  0  0  0  0
  197.2400  175.6160  143.3290 N   0  0  0  0  0  2  0  0  0  0  0  0
  197.5030  173.9200  141.7780 O   0  0  0  0  0  0  0  0  0  0  0  0
  197.0110  175.0560  142.0290 C   0  0  0  0  0  0  0  0  0  0  0  0
  197.2660  175.8050  139.7690 F   0  0  0  0  0  0  0  0  0  0  0  0
  196.4630  175.8810  140.9050 C   0  0  1  0  0  3  0  0  0  0  0  0
  195.0220  175.4740  140.5940 C   0  0  2  0  0  3  0  0  0  0  0  0
  194.4720  174.7710  141.6620 F   0  0  0  0  0  0  0  0  0  0  0  0
  194.9280  174.6870  139.3200 C   0  0  0  0  0  0  0  0  0  0  0  0
  194.6000  175.2950  138.2560 O   0  0  0  0  0  0  0  0  0  0  0  0
  195.2450  173.2960  139.2720 N   0  0  0  0  0  1  0  0  0  0  0  0
  196.1970  174.4700  145.7480 C   0  0  0  0  0  2  0  0  0  0  0  0
  196.1970  173.0000  145.3260 C   0  0  0  0  0  2  0  0  0  0  0  0
  195.1580  172.7700  144.2470 C   0  0  0  0  0  1  0  0  0  0  0  0
  188.3120  173.4980  139.5620 C   0  0  2  0  0  3  0  0  0  0  0  0
  188.6100  172.2190  140.2110 N   0  0  0  0  0  1  0  0  0  0  0  0
  188.8420  174.1630  137.1670 C   0  0  0  0  0  3  0  0  0  0  0  0
  191.5550  173.6460  137.5660 C   0  0  0  0  0  3  0  0  0  0  0  0
  189.2900  173.7920  138.4480 C   0  0  0  0  0  0  0  0  0  0  0  0
  190.6590  173.5250  138.6350 C   0  0  0  0  0  3  0  0  0  0  0  0
  191.0990  174.0220  136.3020 C   0  0  0  0  0  3  0  0  0  0  0  0
  189.7370  174.2700  136.1000 C   0  0  0  0  0  3  0  0  0  0  0  0
  185.9420  179.7910  147.6240 C   0  0  0  0  0  1  0  0  0  0  0  0
  186.5240  178.4960  148.2250 C   0  0  0  0  0  2  0  0  0  0  0  0
  1 15  1  0  0  0  0
  2 14  1  0  0  0  0
  3 21  1  0  0  0  0
  4 12  1  0  0  0  0
  5 21  1  0  0  0  0
  5 18  1  0  0  0  0
  6 18  2  0  0  0  0
  6 23  1  0  0  0  0
  7 17  1  0  0  0  0
  8 19  1  0  0  0  0
  9 16  1  0  0  0  0
 12  6  1  0  0  0  0
 13 22  1  6  0  0  0
 13 15  1  0  0  0  0
 13  9  1  0  0  0  0
 14 50  1  1  0  0  0
 15  5  2  0  0  0  0
 16  3  1  0  0  0  0
 16 24  1  1  0  0  0
 17  1  2  0  0  0  0
 18  2  1  0  0  0  0
 19  1  1  0  0  0  0
 19 12  2  0  0  0  0
 20  7  2  0  0  0  0
 20  8  1  0  0  0  0
 21 10  1  1  0  0  0
 23 11  1  6  0  0  0
 23 14  1  0  0  0  0
 24 25  1  1  0  0  0
 26 27  1  1  0  0  0
 26 24  1  0  0  0  0
 26 38  1  0  0  0  0
 28 27  1  0  0  0  0
 29 30  2  0  0  0  0
 30 28  1  0  0  0  0
 32 31  1  6  0  0  0
 32 30  1  0  0  0  0
 33 32  1  0  0  0  0
 33 34  1  1  0  0  0
 35 33  1  0  0  0  0
 36 35  2  0  0  0  0
 37 35  1  0  0  0  0
 39 38  1  0  0  0  0
 40 39  1  0  0  0  0
 41 42  1  1  0  0  0
 41  7  1  0  0  0  0
 43 45  1  0  0  0  0
 44 46  1  0  0  0  0
 45 46  2  0  0  0  0
 45 41  1  0  0  0  0
 47 44  2  0  0  0  0
 48 47  1  0  0  0  0
 48 43  2  0  0  0  0
 49 50  1  0  0  0  0
M  END
>  <MODEL>
6

>  <REMARK>
 VINA RESULT:      -7.2      2.362      6.386
  Name = 
  12 active torsions:
  status: ('A' for Active; 'I' for Inactive)
    1  A    between atoms: C_4  and  C_6
    2  A    between atoms: C_4  and  C_30
    3  A    between atoms: C_6  and  C_13
    4  A    between atoms: C_6  and  C_50
    5  A    between atoms: C_11  and  C_14
    6  A    between atoms: N_12  and  C_13
    7  A    between atoms: C_14  and  C_16
    8  A    between atoms: C_15  and  C_22
    9  A    between atoms: C_22  and  C_31
   10  A    between atoms: C_27  and  C_48
   11  A    between atoms: C_31  and  C_47
   12  A    between atoms: C_41  and  C_50
                            x       y       z     vdW  Elec       q    Type
                         _______ _______ _______ _____ _____    ______ ____

>  <TORSDO>
F 12

$$$$
=
 OpenBabel11042415503D

 50 54  0  0  1  0  0  0  0  0999 V2000
  190.8210  173.8800  141.1830 C   0  0  0  0  0  0  0  0  0  0  0  0
  192.0100  171.1200  138.1270 C   0  0  0  0  0  2  0  0  0  0  0  0
  192.3840  169.8590  142.5370 C   0  0  0  0  0  2  0  0  0  0  0  0
  187.7430  172.4400  139.5410 O   0  0  0  0  0  1  0  0  0  0  0  0
  191.8400  171.6600  140.6620 C   0  0  0  0  0  0  0  0  0  0  0  0
  190.1200  172.2610  138.9030 C   0  0  0  0  0  0  0  0  0  0  0  0
  189.8770  175.3920  142.9400 C   0  0  0  0  0  0  0  0  0  0  0  0
  188.3170  173.8510  141.8510 C   0  0  0  0  0  3  0  0  0  0  0  0
  193.8480  171.9360  142.7880 C   0  0  0  0  0  2  0  0  0  0  0  0
  193.3870  169.7620  140.2920 O   0  0  0  0  0  1  0  0  0  0  0  0
  189.4920  173.1470  136.7890 O   0  0  0  0  0  1  0  0  0  0  0  0
  189.0840  172.7200  139.8400 C   0  0  0  0  0  0  0  0  0  0  0  0
  192.5970  172.8260  142.7760 C   0  0  1  0  0  3  0  0  0  0  0  0
  191.0940  171.3800  136.9200 C   0  0  2  0  0  3  0  0  0  0  0  0
  191.7150  172.6910  141.5410 C   0  0  0  0  0  0  0  0  0  0  0  0
  193.5490  170.5110  143.2960 C   0  0  2  0  0  3  0  0  0  0  0  0
  190.8970  175.0380  142.1530 C   0  0  0  0  0  3  0  0  0  0  0  0
  191.3020  171.7640  139.2690 C   0  0  0  0  0  0  0  0  0  0  0  0
  189.3850  173.4680  140.9130 C   0  0  2  0  0  3  0  0  0  0  0  0
  188.5460  174.7570  142.8020 C   0  0  0  0  0  3  0  0  0  0  0  0
  192.3250  170.2650  141.0630 C   0  0  1  0  0  3  0  0  0  0  0  0
  191.8000  172.7500  144.0750 C   0  0  0  0  0  1  0  0  0  0  0  0
  189.8000  171.9710  137.4840 C   0  0  1  0  0  3  0  0  0  0  0  0
  194.7480  169.5580  143.5450 C   0  0  1  0  0  3  0  0  0  0  0  0
  195.5610  169.5260  142.4090 O   0  0  0  0  0  1  0  0  0  0  0  0
  195.6400  169.7430  144.8040 C   0  0  1  0  0  3  0  0  0  0  0  0
  196.7980  170.7450  144.7270 C   0  0  0  0  0  2  0  0  0  0  0  0
  196.7600  171.5130  145.9610 N   0  0  0  0  0  2  0  0  0  0  0  0
  197.2700  173.6000  146.8170 O   0  0  0  0  0  0  0  0  0  0  0  0
  196.6020  172.9370  145.9740 C   0  0  0  0  0  0  0  0  0  0  0  0
  194.2900  173.5580  145.9310 F   0  0  0  0  0  0  0  0  0  0  0  0
  195.4910  173.6110  145.2270 C   0  0  1  0  0  3  0  0  0  0  0  0
  195.8710  175.0530  144.8870 C   0  0  2  0  0  3  0  0  0  0  0  0
  195.2640  175.9400  145.7710 F   0  0  0  0  0  0  0  0  0  0  0  0
  195.5400  175.3950  143.4640 C   0  0  0  0  0  0  0  0  0  0  0  0
  196.3700  175.0800  142.5570 O   0  0  0  0  0  0  0  0  0  0  0  0
  194.3030  176.0130  143.1080 N   0  0  0  0  0  1  0  0  0  0  0  0
  194.8410  169.8920  146.0980 C   0  0  0  0  0  2  0  0  0  0  0  0
  194.3690  168.5280  146.6040 C   0  0  0  0  0  2  0  0  0  0  0  0
  195.0320  168.2070  147.9290 C   0  0  0  0  0  1  0  0  0  0  0  0
  190.0640  176.5790  143.8370 C   0  0  2  0  0  3  0  0  0  0  0  0
  190.9960  177.5360  143.2380 N   0  0  0  0  0  1  0  0  0  0  0  0
  191.7900  176.3990  145.6950 C   0  0  0  0  0  3  0  0  0  0  0  0
  189.9570  175.0940  147.3450 C   0  0  0  0  0  3  0  0  0  0  0  0
  190.4650  176.2290  145.2510 C   0  0  0  0  0  0  0  0  0  0  0  0
  189.5520  175.5610  146.0880 C   0  0  0  0  0  3  0  0  0  0  0  0
  191.2710  175.2760  147.7750 C   0  0  0  0  0  3  0  0  0  0  0  0
  192.1920  175.9200  146.9430 C   0  0  0  0  0  3  0  0  0  0  0  0
  192.0160  169.0790  136.2460 C   0  0  0  0  0  1  0  0  0  0  0  0
  190.9010  170.1220  136.0370 C   0  0  0  0  0  2  0  0  0  0  0  0
  1 15  2  0  0  0  0
  1 17  1  0  0  0  0
  2 18  1  0  0  0  0
  3 16  1  0  0  0  0
  4 12  1  0  0  0  0
  5 21  1  0  0  0  0
  5 15  1  0  0  0  0
  6 18  1  0  0  0  0
  6 12  2  0  0  0  0
  7 41  1  0  0  0  0
  8 20  2  0  0  0  0
  9 16  1  0  0  0  0
 12 19  1  0  0  0  0
 13  9  1  0  0  0  0
 13 22  1  1  0  0  0
 14 50  1  1  0  0  0
 14 23  1  0  0  0  0
 14  2  1  0  0  0  0
 15 13  1  0  0  0  0
 16 24  1  6  0  0  0
 17  7  2  0  0  0  0
 18  5  2  0  0  0  0
 19  1  1  0  0  0  0
 19  8  1  1  0  0  0
 20  7  1  0  0  0  0
 21 10  1  1  0  0  0
 21  3  1  0  0  0  0
 23 11  1  6  0  0  0
 23  6  1  0  0  0  0
 24 25  1  6  0  0  0
 24 26  1  0  0  0  0
 26 27  1  6  0  0  0
 26 38  1  0  0  0  0
 27 28  1  0  0  0  0
 28 30  1  0  0  0  0
 30 29  2  0  0  0  0
 32 31  1  1  0  0  0
 32 30  1  0  0  0  0
 33 32  1  0  0  0  0
 33 34  1  1  0  0  0
 35 33  1  0  0  0  0
 36 35  2  0  0  0  0
 37 35  1  0  0  0  0
 38 39  1  0  0  0  0
 39 40  1  0  0  0  0
 41 42  1  6  0  0  0
 41 45  1  0  0  0  0
 43 48  1  0  0  0  0
 44 47  1  0  0  0  0
 45 43  2  0  0  0  0
 45 46  1  0  0  0  0
 46 44  2  0  0  0  0
 48 47  2  0  0  0  0
 50 49  1  0  0  0  0
M  END
>  <MODEL>
7

>  <REMARK>
 VINA RESULT:      -7.0      3.176      6.790
  Name = 
  12 active torsions:
  status: ('A' for Active; 'I' for Inactive)
    1  A    between atoms: C_4  and  C_6
    2  A    between atoms: C_4  and  C_30
    3  A    between atoms: C_6  and  C_13
    4  A    between atoms: C_6  and  C_50
    5  A    between atoms: C_11  and  C_14
    6  A    between atoms: N_12  and  C_13
    7  A    between atoms: C_14  and  C_16
    8  A    between atoms: C_15  and  C_22
    9  A    between atoms: C_22  and  C_31
   10  A    between atoms: C_27  and  C_48
   11  A    between atoms: C_31  and  C_47
   12  A    between atoms: C_41  and  C_50
                            x       y       z     vdW  Elec       q    Type
                         _______ _______ _______ _____ _____    ______ ____

>  <TORSDO>
F 12

$$$$
=
 OpenBabel11042415503D

 50 54  0  0  1  0  0  0  0  0999 V2000
  190.9180  176.3260  144.6550 C   0  0  0  0  0  0  0  0  0  0  0  0
  187.4090  176.8780  142.2570 C   0  0  0  0  0  2  0  0  0  0  0  0
  189.8330  172.9930  141.8000 C   0  0  0  0  0  2  0  0  0  0  0  0
  187.8530  175.8530  146.8080 O   0  0  0  0  0  1  0  0  0  0  0  0
  189.4780  175.4160  142.8300 C   0  0  0  0  0  0  0  0  0  0  0  0
  188.0630  176.6930  144.4970 C   0  0  0  0  0  0  0  0  0  0  0  0
  192.8040  175.9030  146.2460 C   0  0  0  0  0  0  0  0  0  0  0  0
  190.5570  175.2970  147.0070 C   0  0  0  0  0  3  0  0  0  0  0  0
  191.7990  174.5310  141.2610 C   0  0  0  0  0  2  0  0  0  0  0  0
  188.5190  174.7280  140.6530 O   0  0  0  0  0  1  0  0  0  0  0  0
  186.9340  178.6490  145.2370 O   0  0  0  0  0  1  0  0  0  0  0  0
  188.6760  176.1190  145.7040 C   0  0  0  0  0  0  0  0  0  0  0  0
  191.9470  174.8710  142.7510 C   0  0  1  0  0  3  0  0  0  0  0  0
  186.4270  177.7090  143.1000 C   0  0  2  0  0  3  0  0  0  0  0  0
  190.7080  175.4630  143.4100 C   0  0  0  0  0  0  0  0  0  0  0  0
  191.1570  173.1470  141.0380 C   0  0  2  0  0  3  0  0  0  0  0  0
  192.3570  176.4390  145.1060 C   0  0  0  0  0  2  0  0  0  0  0  0
  188.3900  176.3540  143.2490 C   0  0  0  0  0  0  0  0  0  0  0  0
  190.0020  175.9310  145.7990 C   0  0  0  0  0  0  0  0  0  0  0  0
  191.8730  175.2860  147.2190 C   0  0  0  0  0  3  0  0  0  0  0  0
  189.0340  174.2950  141.8860 C   0  0  1  0  0  3  0  0  0  0  0  0
  192.5550  173.7320  143.5640 C   0  0  0  0  0  1  0  0  0  0  0  0
  186.7780  177.4310  144.5640 C   0  0  1  0  0  3  0  0  0  0  0  0
  191.1180  172.5850  139.5910 C   0  0  1  0  0  3  0  0  0  0  0  0
  190.8440  173.6230  138.6960 O   0  0  0  0  0  1  0  0  0  0  0  0
  192.3100  171.7480  139.0500 C   0  0  1  0  0  3  0  0  0  0  0  0
  193.2130  171.0370  140.0660 C   0  0  0  0  0  2  0  0  0  0  0  0
  194.5030  170.8650  139.4180 N   0  0  0  0  0  2  0  0  0  0  0  0
  196.0290  171.9830  138.0870 O   0  0  0  0  0  0  0  0  0  0  0  0
  195.3930  171.9620  139.1790 C   0  0  0  0  0  0  0  0  0  0  0  0
  196.7800  172.3640  141.0890 F   0  0  0  0  0  0  0  0  0  0  0  0
  195.7890  172.9060  140.2740 C   0  0  1  0  0  3  0  0  0  0  0  0
  196.2230  174.2520  139.6910 C   0  0  2  0  0  3  0  0  0  0  0  0
  197.2950  174.7720  140.4110 F   0  0  0  0  0  0  0  0  0  0  0  0
  195.0850  175.2270  139.6330 C   0  0  0  0  0  0  0  0  0  0  0  0
  194.9460  176.0530  140.5860 O   0  0  0  0  0  0  0  0  0  0  0  0
  194.1960  175.2780  138.5170 N   0  0  0  0  0  1  0  0  0  0  0  0
  191.9310  170.8350  137.8850 C   0  0  0  0  0  2  0  0  0  0  0  0
  190.5670  170.1860  138.1260 C   0  0  0  0  0  2  0  0  0  0  0  0
  189.6690  170.4020  136.9240 C   0  0  0  0  0  1  0  0  0  0  0  0
  194.2460  176.1100  146.5990 C   0  0  2  0  0  3  0  0  0  0  0  0
  194.5700  177.5380  146.6300 N   0  0  0  0  0  1  0  0  0  0  0  0
  195.6870  175.8830  144.5180 C   0  0  0  0  0  3  0  0  0  0  0  0
  196.2840  173.2330  145.1530 C   0  0  0  0  0  3  0  0  0  0  0  0
  195.2140  175.3430  145.7280 C   0  0  0  0  0  0  0  0  0  0  0  0
  195.5120  174.0020  146.0330 C   0  0  0  0  0  3  0  0  0  0  0  0
  196.7540  173.7830  143.9610 C   0  0  0  0  0  3  0  0  0  0  0  0
  196.4450  175.1080  143.6370 C   0  0  0  0  0  3  0  0  0  0  0  0
  184.4840  178.2810  141.5200 C   0  0  0  0  0  1  0  0  0  0  0  0
  184.9480  177.4420  142.7270 C   0  0  0  0  0  2  0  0  0  0  0  0
  1 17  1  0  0  0  0
  1 19  1  0  0  0  0
  2 14  1  0  0  0  0
  2 18  1  0  0  0  0
  3 21  1  0  0  0  0
  5 18  2  0  0  0  0
  5 15  1  0  0  0  0
  6 23  1  0  0  0  0
  6 12  2  0  0  0  0
  7 41  1  0  0  0  0
  7 20  2  0  0  0  0
  8 20  1  0  0  0  0
  9 13  1  0  0  0  0
 12 19  1  0  0  0  0
 12  4  1  0  0  0  0
 13 15  1  0  0  0  0
 13 22  1  1  0  0  0
 14 50  1  1  0  0  0
 14 23  1  0  0  0  0
 15  1  2  0  0  0  0
 16 24  1  6  0  0  0
 16  9  1  0  0  0  0
 16  3  1  0  0  0  0
 17  7  1  0  0  0  0
 18  6  1  0  0  0  0
 19  8  2  0  0  0  0
 21 10  1  6  0  0  0
 21  5  1  0  0  0  0
 23 11  1  1  0  0  0
 24 25  1  6  0  0  0
 26 38  1  6  0  0  0
 26 24  1  0  0  0  0
 26 27  1  0  0  0  0
 28 27  1  0  0  0  0
 29 30  2  0  0  0  0
 30 28  1  0  0  0  0
 30 32  1  0  0  0  0
 32 31  1  6  0  0  0
 33 32  1  0  0  0  0
 33 34  1  1  0  0  0
 35 33  1  0  0  0  0
 35 36  2  0  0  0  0
 37 35  1  0  0  0  0
 38 39  1  0  0  0  0
 40 39  1  0  0  0  0
 41 42  1  6  0  0  0
 43 45  1  0  0  0  0
 44 46  1  0  0  0  0
 45 46  2  0  0  0  0
 45 41  1  0  0  0  0
 47 44  2  0  0  0  0
 48 47  1  0  0  0  0
 48 43  2  0  0  0  0
 49 50  1  0  0  0  0
M  END
>  <MODEL>
8

>  <REMARK>
 VINA RESULT:      -7.0      1.751      2.386
  Name = 
  12 active torsions:
  status: ('A' for Active; 'I' for Inactive)
    1  A    between atoms: C_4  and  C_6
    2  A    between atoms: C_4  and  C_30
    3  A    between atoms: C_6  and  C_13
    4  A    between atoms: C_6  and  C_50
    5  A    between atoms: C_11  and  C_14
    6  A    between atoms: N_12  and  C_13
    7  A    between atoms: C_14  and  C_16
    8  A    between atoms: C_15  and  C_22
    9  A    between atoms: C_22  and  C_31
   10  A    between atoms: C_27  and  C_48
   11  A    between atoms: C_31  and  C_47
   12  A    between atoms: C_41  and  C_50
                            x       y       z     vdW  Elec       q    Type
                         _______ _______ _______ _____ _____    ______ ____

>  <TORSDO>
F 12

$$$$
=
 OpenBabel11042415503D

 50 54  0  0  1  0  0  0  0  0999 V2000
  191.5880  172.8540  141.2490 C   0  0  2  0  0  3  0  0  0  0  0  0
  193.8120  175.0930  144.1500 C   0  0  0  0  0  2  0  0  0  0  0  0
  189.2160  175.0660  144.4000 C   0  0  0  0  0  2  0  0  0  0  0  0
  193.1670  170.4720  143.7150 O   0  0  0  0  0  1  0  0  0  0  0  0
  191.4930  174.4190  143.1930 C   0  0  0  0  0  0  0  0  0  0  0  0
  193.5050  172.8960  143.4010 C   0  0  0  0  0  0  0  0  0  0  0  0
  190.3190  171.3330  139.7180 C   0  0  0  0  0  0  0  0  0  0  0  0
  191.1870  170.3500  141.7870 C   0  0  0  0  0  3  0  0  0  0  0  0
  189.2910  175.9630  142.0100 C   0  0  0  0  0  2  0  0  0  0  0  0
  191.2700  176.3950  144.6680 O   0  0  0  0  0  1  0  0  0  0  0  0
  195.8160  172.4130  143.1280 O   0  0  0  0  0  1  0  0  0  0  0  0
  192.8050  171.6520  143.0500 C   0  0  0  0  0  0  0  0  0  0  0  0
  189.6280  174.5590  141.4880 C   0  0  1  0  0  3  0  0  0  0  0  0
  195.1330  174.3360  144.3700 C   0  0  2  0  0  3  0  0  0  0  0  0
  190.8840  173.9300  142.0790 C   0  0  0  0  0  0  0  0  0  0  0  0
  188.5100  175.9220  143.3390 C   0  0  2  0  0  3  0  0  0  0  0  0
  190.9000  172.5160  139.9460 C   0  0  0  0  0  3  0  0  0  0  0  0
  192.9200  174.0910  143.4990 C   0  0  0  0  0  0  0  0  0  0  0  0
  191.9020  171.6080  142.0580 C   0  0  0  0  0  0  0  0  0  0  0  0
  190.4440  170.2200  140.6870 C   0  0  0  0  0  3  0  0  0  0  0  0
  190.7420  175.1420  144.3140 C   0  0  1  0  0  3  0  0  0  0  0  0
  188.4320  173.6120  141.5130 C   0  0  0  0  0  1  0  0  0  0  0  0
  194.8480  172.8710  144.0310 C   0  0  1  0  0  3  0  0  0  0  0  0
  187.9340  177.2550  143.8880 C   0  0  1  0  0  3  0  0  0  0  0  0
  188.8100  178.3000  143.5850 O   0  0  0  0  0  1  0  0  0  0  0  0
  186.4850  177.6840  143.5260 C   0  0  1  0  0  3  0  0  0  0  0  0
  186.1600  179.1830  143.5060 C   0  0  0  0  0  2  0  0  0  0  0  0
  185.0430  179.3730  144.4170 N   0  0  0  0  0  2  0  0  0  0  0  0
  183.8490  178.2890  146.0750 O   0  0  0  0  0  0  0  0  0  0  0  0
  184.9730  178.7200  145.6910 C   0  0  0  0  0  0  0  0  0  0  0  0
  185.9460  179.8320  147.5750 F   0  0  0  0  0  0  0  0  0  0  0  0
  186.1060  178.7850  146.6700 C   0  0  1  0  0  3  0  0  0  0  0  0
  186.2680  177.4460  147.3920 C   0  0  2  0  0  3  0  0  0  0  0  0
  185.8720  177.5580  148.7210 F   0  0  0  0  0  0  0  0  0  0  0  0
  187.6700  176.9230  147.2850 C   0  0  0  0  0  0  0  0  0  0  0  0
  187.8450  175.6670  147.2390 O   0  0  0  0  0  0  0  0  0  0  0  0
  188.7930  177.7980  147.1850 N   0  0  0  0  0  1  0  0  0  0  0  0
  185.9260  176.9620  142.3000 C   0  0  0  0  0  2  0  0  0  0  0  0
  185.7590  177.9310  141.1290 C   0  0  0  0  0  2  0  0  0  0  0  0
  186.6700  177.5270  139.9870 C   0  0  0  0  0  1  0  0  0  0  0  0
  189.6970  171.1060  138.3740 C   0  0  2  0  0  3  0  0  0  0  0  0
  190.5420  170.2360  137.5540 N   0  0  0  0  0  1  0  0  0  0  0  0
  190.0790  172.8120  136.5280 C   0  0  0  0  0  3  0  0  0  0  0  0
  188.1030  174.4770  137.5820 C   0  0  0  0  0  3  0  0  0  0  0  0
  189.3320  172.3750  137.6380 C   0  0  0  0  0  0  0  0  0  0  0  0
  188.3450  173.2270  138.1670 C   0  0  0  0  0  3  0  0  0  0  0  0
  188.8460  174.8940  136.4780 C   0  0  0  0  0  3  0  0  0  0  0  0
  189.8440  174.0640  135.9570 C   0  0  0  0  0  3  0  0  0  0  0  0
  196.8620  173.5860  146.1150 C   0  0  0  0  0  1  0  0  0  0  0  0
  195.7260  174.5720  145.7810 C   0  0  0  0  0  2  0  0  0  0  0  0
  1 17  1  6  0  0  0
  1 19  1  0  0  0  0
  1 15  1  0  0  0  0
  2 14  1  0  0  0  0
  5 18  1  0  0  0  0
  5 21  1  0  0  0  0
  6 18  2  0  0  0  0
  6 23  1  0  0  0  0
  7 17  2  0  0  0  0
  7 20  1  0  0  0  0
  8 19  1  0  0  0  0
  9 16  1  0  0  0  0
 12  6  1  0  0  0  0
 12  4  1  0  0  0  0
 13 22  1  1  0  0  0
 13  9  1  0  0  0  0
 13 15  1  0  0  0  0
 14 50  1  1  0  0  0
 15  5  2  0  0  0  0
 16 24  1  1  0  0  0
 16  3  1  0  0  0  0
 18  2  1  0  0  0  0
 19 12  2  0  0  0  0
 20  8  2  0  0  0  0
 21  3  1  0  0  0  0
 21 10  1  6  0  0  0
 23 11  1  6  0  0  0
 23 14  1  0  0  0  0
 24 25  1  6  0  0  0
 26 38  1  6  0  0  0
 26 24  1  0  0  0  0
 27 26  1  0  0  0  0
 27 28  1  0  0  0  0
 28 30  1  0  0  0  0
 30 29  2  0  0  0  0
 30 32  1  0  0  0  0
 32 33  1  0  0  0  0
 32 31  1  1  0  0  0
 33 34  1  1  0  0  0
 35 33  1  0  0  0  0
 36 35  2  0  0  0  0
 37 35  1  0  0  0  0
 39 38  1  0  0  0  0
 40 39  1  0  0  0  0
 41 42  1  6  0  0  0
 41  7  1  0  0  0  0
 43 45  1  0  0  0  0
 44 46  1  0  0  0  0
 45 46  2  0  0  0  0
 45 41  1  0  0  0  0
 47 44  2  0  0  0  0
 48 47  1  0  0  0  0
 48 43  2  0  0  0  0
 50 49  1  0  0  0  0
M  END
>  <MODEL>
9

>  <REMARK>
 VINA RESULT:      -6.9      3.460      9.170
  Name = 
  12 active torsions:
  status: ('A' for Active; 'I' for Inactive)
    1  A    between atoms: C_4  and  C_6
    2  A    between atoms: C_4  and  C_30
    3  A    between atoms: C_6  and  C_13
    4  A    between atoms: C_6  and  C_50
    5  A    between atoms: C_11  and  C_14
    6  A    between atoms: N_12  and  C_13
    7  A    between atoms: C_14  and  C_16
    8  A    between atoms: C_15  and  C_22
    9  A    between atoms: C_22  and  C_31
   10  A    between atoms: C_27  and  C_48
   11  A    between atoms: C_31  and  C_47
   12  A    between atoms: C_41  and  C_50
                            x       y       z     vdW  Elec       q    Type
                         _______ _______ _______ _____ _____    ______ ____

>  <TORSDO>
F 12

$$$$
