=
 OpenBabel11042419183D

 43 45  0  0  1  0  0  0  0  0999 V2000
  188.1510  175.6980  146.0330 O   0  0  0  0  0  0  0  0  0  0  0  0
  186.9450  176.2740  144.0260 C   0  0  0  0  0  2  0  0  0  0  0  0
  191.6440  175.3170  147.3800 C   0  0  0  0  0  2  0  0  0  0  0  0
  189.5370  176.0180  146.1370 C   0  0  2  0  0  0  0  0  0  0  0  0
  189.9290  174.3240  144.2810 C   0  0  0  0  0  2  0  0  0  0  0  0
  189.8400  174.3180  142.7640 C   0  0  0  0  0  2  0  0  0  0  0  0
  191.7710  175.8440  144.9360 C   0  0  0  0  0  0  0  0  0  0  0  0
  187.7490  178.0170  142.4420 C   0  0  0  0  0  1  0  0  0  0  0  0
  187.4180  176.7280  145.3970 C   0  0  1  0  0  3  0  0  0  0  0  0
  187.9910  176.6190  142.9760 C   0  0  2  0  0  3  0  0  0  0  0  0
  189.7760  177.4760  146.5790 C   0  0  0  0  0  1  0  0  0  0  0  0
  187.9730  175.6640  141.8720 N   0  0  0  0  0  2  0  0  0  0  0  0
  190.2710  175.7200  144.8110 C   0  0  2  0  0  3  0  0  0  0  0  0
  188.3720  174.3390  142.3460 C   0  0  1  0  0  3  0  0  0  0  0  0
  190.1370  175.0970  147.2000 C   0  0  0  0  0  2  0  0  0  0  0  0
  192.4120  175.5520  146.0970 C   0  0  0  0  0  0  0  0  0  0  0  0
  194.4360  176.6300  146.7240 O   0  0  0  0  0  0  0  0  0  0  0  0
  193.8920  175.6140  146.2150 C   0  0  0  0  0  0  0  0  0  0  0  0
  194.7670  174.5110  145.7820 C   0  0  0  0  0  3  0  0  0  0  0  0
  194.3260  173.2790  145.5580 C   0  0  0  0  0  2  0  0  0  0  0  0
  193.0960  176.4270  142.7140 C   0  0  0  0  0  3  0  0  0  0  0  0
  192.4940  176.1580  143.7240 C   0  0  0  0  0  0  0  0  0  0  0  0
  186.1970  177.0660  146.2350 C   0  0  0  0  0  2  0  0  0  0  0  0
  185.9900  178.5690  146.2920 C   0  0  0  0  0  2  0  0  0  0  0  0
  183.6350  178.7810  146.0460 O   0  0  0  0  0  0  0  0  0  0  0  0
  184.7700  178.9430  145.5230 C   0  0  0  0  0  0  0  0  0  0  0  0
  184.3630  178.9450  143.1910 O   0  0  0  0  0  0  0  0  0  0  0  0
  185.5700  180.6790  143.9930 F   0  0  0  0  0  0  0  0  0  0  0  0
  184.8900  179.5200  144.1800 C   0  0  0  0  0  0  0  0  0  0  0  0
  188.1270  173.3230  141.2410 C   0  0  0  0  0  2  0  0  0  0  0  0
  188.3400  173.8360  138.8130 C   0  0  0  0  0  1  0  0  0  0  0  0
  189.1010  173.5210  140.0900 C   0  0  2  0  0  3  0  0  0  0  0  0
  189.9050  172.2490  139.9030 C   0  0  0  0  0  2  0  0  0  0  0  0
  191.1760  172.5550  139.3780 O   0  0  0  0  0  0  0  0  0  0  0  0
  192.1850  172.0170  140.2130 C   0  0  1  0  0  3  0  0  0  0  0  0
  193.0800  172.5090  142.3520 O   0  0  0  0  0  0  0  0  0  0  0  0
  192.8940  173.0560  141.0720 C   0  0  1  0  0  3  0  0  0  0  0  0
  191.6870  170.9690  141.1780 C   0  0  2  0  0  3  0  0  0  0  0  0
  194.2360  173.3980  140.4590 C   0  0  0  0  0  1  0  0  0  0  0  0
  192.0090  171.6190  142.5240 C   0  0  1  0  0  3  0  0  0  0  0  0
  192.2850  170.6480  143.6630 C   0  0  0  0  0  1  0  0  0  0  0  0
  192.4650  169.6840  140.9180 C   0  0  0  0  0  2  0  0  0  0  0  0
  193.6010  169.9610  140.1590 O   0  0  0  0  0  1  0  0  0  0  0  0
  1  4  1  0  0  0  0
  2  9  1  0  0  0  0
  4 11  1  1  0  0  0
  4 15  1  0  0  0  0
  6  5  1  0  0  0  0
  7 16  2  0  0  0  0
  9  1  1  0  0  0  0
  9 23  1  1  0  0  0
 10  8  1  6  0  0  0
 10  2  1  0  0  0  0
 12 14  1  0  0  0  0
 12 10  1  0  0  0  0
 13  5  1  1  0  0  0
 13  7  1  0  0  0  0
 13  4  1  0  0  0  0
 14 30  1  6  0  0  0
 14  6  1  0  0  0  0
 15  3  1  0  0  0  0
 16 18  1  0  0  0  0
 16  3  1  0  0  0  0
 18 17  2  0  0  0  0
 19 18  1  0  0  0  0
 20 19  2  0  0  0  0
 21 22  3  0  0  0  0
 22  7  1  0  0  0  0
 23 24  1  0  0  0  0
 26 25  2  0  0  0  0
 26 24  1  0  0  0  0
 27 29  2  0  0  0  0
 28 29  1  0  0  0  0
 29 26  1  0  0  0  0
 32 31  1  6  0  0  0
 32 30  1  0  0  0  0
 33 32  1  0  0  0  0
 34 33  1  0  0  0  0
 35 34  1  1  0  0  0
 35 37  1  0  0  0  0
 35 38  1  0  0  0  0
 36 40  1  0  0  0  0
 37 39  1  6  0  0  0
 37 36  1  0  0  0  0
 38 42  1  6  0  0  0
 38 40  1  0  0  0  0
 40 41  1  1  0  0  0
 43 42  1  0  0  0  0
M  END
>  <MODEL>
1

>  <REMARK>
 VINA RESULT:      -7.2      0.000      0.000
  Name = 
  13 active torsions:
  status: ('A' for Active; 'I' for Inactive)
    1  A    between atoms: C_2  and  C_23
    2  A    between atoms: C_2  and  O_28
    3  A    between atoms: C_3  and  C_42
    4  A    between atoms: C_5  and  O_28
    5  A    between atoms: C_6  and  C_18
    6  A    between atoms: C_13  and  C_21
    7  A    between atoms: C_19  and  C_34
    8  A    between atoms: C_23  and  C_32
    9  A    between atoms: C_25  and  C_26
   10  A    between atoms: C_25  and  C_33
   11  A    between atoms: C_32  and  C_39
   12  A    between atoms: C_33  and  C_34
   13  A    between atoms: C_41  and  C_42
                            x       y       z     vdW  Elec       q    Type
                         _______ _______ _______ _____ _____    ______ ____

>  <TORSDO>
F 13

$$$$
=
 OpenBabel11042419183D

 43 45  0  0  1  0  0  0  0  0999 V2000
  188.0130  175.7370  146.0940 O   0  0  0  0  0  0  0  0  0  0  0  0
  186.8230  176.3050  144.0750 C   0  0  0  0  0  2  0  0  0  0  0  0
  191.4940  175.3450  147.4690 C   0  0  0  0  0  2  0  0  0  0  0  0
  189.3990  176.0500  146.2060 C   0  0  2  0  0  0  0  0  0  0  0  0
  189.7940  174.3390  144.3660 C   0  0  0  0  0  2  0  0  0  0  0  0
  189.7150  174.3220  142.8480 C   0  0  0  0  0  2  0  0  0  0  0  0
  191.6400  175.8530  145.0210 C   0  0  0  0  0  0  0  0  0  0  0  0
  187.6490  178.0300  142.4830 C   0  0  0  0  0  1  0  0  0  0  0  0
  187.2900  176.7670  145.4450 C   0  0  1  0  0  3  0  0  0  0  0  0
  187.8790  176.6350  143.0290 C   0  0  2  0  0  3  0  0  0  0  0  0
  189.6440  177.5090  146.6380 C   0  0  0  0  0  1  0  0  0  0  0  0
  187.8630  175.6710  141.9330 N   0  0  0  0  0  2  0  0  0  0  0  0
  190.1400  175.7370  144.8870 C   0  0  2  0  0  3  0  0  0  0  0  0
  188.2510  174.3470  142.4200 C   0  0  1  0  0  3  0  0  0  0  0  0
  189.9870  175.1330  147.2800 C   0  0  0  0  0  2  0  0  0  0  0  0
  192.2720  175.5660  146.1890 C   0  0  0  0  0  0  0  0  0  0  0  0
  194.4360  174.5870  146.0920 O   0  0  0  0  0  0  0  0  0  0  0  0
  193.7520  175.6210  146.3160 C   0  0  0  0  0  0  0  0  0  0  0  0
  194.4700  176.8570  146.6700 C   0  0  0  0  0  3  0  0  0  0  0  0
  194.7950  177.7880  145.7820 C   0  0  0  0  0  2  0  0  0  0  0  0
  192.9800  176.4010  142.7990 C   0  0  0  0  0  3  0  0  0  0  0  0
  192.3740  176.1530  143.8110 C   0  0  0  0  0  0  0  0  0  0  0  0
  186.0650  177.1190  146.2720 C   0  0  0  0  0  2  0  0  0  0  0  0
  185.8730  178.6230  146.3260 C   0  0  0  0  0  2  0  0  0  0  0  0
  183.5240  178.8700  146.0560 O   0  0  0  0  0  0  0  0  0  0  0  0
  184.6660  179.0090  145.5420 C   0  0  0  0  0  0  0  0  0  0  0  0
  184.2170  179.0380  143.2180 O   0  0  0  0  0  0  0  0  0  0  0  0
  185.5750  180.6710  143.9900 F   0  0  0  0  0  0  0  0  0  0  0  0
  184.8070  179.5710  144.1940 C   0  0  0  0  0  0  0  0  0  0  0  0
  188.0070  173.3240  141.3220 C   0  0  0  0  0  2  0  0  0  0  0  0
  188.4340  173.9540  138.9490 C   0  0  0  0  0  1  0  0  0  0  0  0
  189.0610  173.4310  140.2310 C   0  0  2  0  0  3  0  0  0  0  0  0
  189.6540  172.0570  139.9840 C   0  0  0  0  0  2  0  0  0  0  0  0
  189.2360  171.5690  138.7310 O   0  0  0  0  0  0  0  0  0  0  0  0
  190.3250  170.9560  138.0650 C   0  0  1  0  0  3  0  0  0  0  0  0
  190.5950  169.3170  136.3730 O   0  0  0  0  0  0  0  0  0  0  0  0
  190.0660  169.5110  137.6590 C   0  0  1  0  0  3  0  0  0  0  0  0
  190.7450  171.6600  136.7980 C   0  0  2  0  0  3  0  0  0  0  0  0
  190.7400  168.5730  138.6390 C   0  0  0  0  0  1  0  0  0  0  0  0
  190.5020  170.5720  135.7520 C   0  0  1  0  0  3  0  0  0  0  0  0
  191.3990  170.6410  134.5250 C   0  0  0  0  0  1  0  0  0  0  0  0
  192.2110  172.0530  136.9430 C   0  0  0  0  0  2  0  0  0  0  0  0
  192.4100  172.7080  138.1580 O   0  0  0  0  0  1  0  0  0  0  0  0
  1  4  1  0  0  0  0
  2  9  1  0  0  0  0
  4 11  1  1  0  0  0
  4 15  1  0  0  0  0
  6  5  1  0  0  0  0
  7 16  2  0  0  0  0
  9  1  1  0  0  0  0
  9 23  1  1  0  0  0
 10  8  1  6  0  0  0
 10  2  1  0  0  0  0
 12 14  1  0  0  0  0
 12 10  1  0  0  0  0
 13  5  1  1  0  0  0
 13  7  1  0  0  0  0
 13  4  1  0  0  0  0
 14 30  1  6  0  0  0
 14  6  1  0  0  0  0
 15  3  1  0  0  0  0
 16 18  1  0  0  0  0
 16  3  1  0  0  0  0
 17 18  2  0  0  0  0
 18 19  1  0  0  0  0
 20 19  2  0  0  0  0
 21 22  3  0  0  0  0
 22  7  1  0  0  0  0
 23 24  1  0  0  0  0
 26 25  2  0  0  0  0
 26 24  1  0  0  0  0
 27 29  2  0  0  0  0
 28 29  1  0  0  0  0
 29 26  1  0  0  0  0
 32 31  1  6  0  0  0
 32 30  1  0  0  0  0
 33 32  1  0  0  0  0
 34 33  1  0  0  0  0
 35 34  1  6  0  0  0
 36 37  1  0  0  0  0
 37 35  1  0  0  0  0
 37 39  1  1  0  0  0
 38 42  1  1  0  0  0
 38 35  1  0  0  0  0
 40 41  1  6  0  0  0
 40 36  1  0  0  0  0
 40 38  1  0  0  0  0
 42 43  1  0  0  0  0
M  END
>  <MODEL>
2

>  <REMARK>
 VINA RESULT:      -6.9      1.829      2.887
  Name = 
  13 active torsions:
  status: ('A' for Active; 'I' for Inactive)
    1  A    between atoms: C_2  and  C_23
    2  A    between atoms: C_2  and  O_28
    3  A    between atoms: C_3  and  C_42
    4  A    between atoms: C_5  and  O_28
    5  A    between atoms: C_6  and  C_18
    6  A    between atoms: C_13  and  C_21
    7  A    between atoms: C_19  and  C_34
    8  A    between atoms: C_23  and  C_32
    9  A    between atoms: C_25  and  C_26
   10  A    between atoms: C_25  and  C_33
   11  A    between atoms: C_32  and  C_39
   12  A    between atoms: C_33  and  C_34
   13  A    between atoms: C_41  and  C_42
                            x       y       z     vdW  Elec       q    Type
                         _______ _______ _______ _____ _____    ______ ____

>  <TORSDO>
F 13

$$$$
=
 OpenBabel11042419183D

 43 45  0  0  1  0  0  0  0  0999 V2000
  188.0300  177.4420  143.5190 O   0  0  0  0  0  0  0  0  0  0  0  0
  189.0570  177.0780  145.6700 C   0  0  0  0  0  2  0  0  0  0  0  0
  187.5720  175.8360  140.1470 C   0  0  0  0  0  2  0  0  0  0  0  0
  187.8640  176.3450  142.6230 C   0  0  2  0  0  0  0  0  0  0  0  0
  190.4010  176.2720  142.4580 C   0  0  0  0  0  2  0  0  0  0  0  0
  191.5380  175.6880  143.2800 C   0  0  0  0  0  2  0  0  0  0  0  0
  189.0770  174.3940  141.5350 C   0  0  0  0  0  0  0  0  0  0  0  0
  189.1800  174.8270  146.7230 C   0  0  0  0  0  1  0  0  0  0  0  0
  187.7710  177.0730  144.8600 C   0  0  1  0  0  3  0  0  0  0  0  0
  189.7130  175.7060  145.6090 C   0  0  2  0  0  3  0  0  0  0  0  0
  186.6000  175.5170  142.9300 C   0  0  0  0  0  1  0  0  0  0  0  0
  191.1660  175.8050  145.7160 N   0  0  0  0  0  2  0  0  0  0  0  0
  189.1200  175.4460  142.6170 C   0  0  2  0  0  3  0  0  0  0  0  0
  191.7100  176.5080  144.5550 C   0  0  1  0  0  3  0  0  0  0  0  0
  187.7190  176.9250  141.2150 C   0  0  0  0  0  2  0  0  0  0  0  0
  188.4510  174.6190  140.3510 C   0  0  0  0  0  0  0  0  0  0  0  0
  187.8550  172.5160  139.4180 O   0  0  0  0  0  0  0  0  0  0  0  0
  188.4520  173.6140  139.2570 C   0  0  0  0  0  0  0  0  0  0  0  0
  189.1050  173.8580  137.9590 C   0  0  0  0  0  3  0  0  0  0  0  0
  190.2880  173.3500  137.6350 C   0  0  0  0  0  2  0  0  0  0  0  0
  190.4850  172.1910  141.9770 C   0  0  0  0  0  3  0  0  0  0  0  0
  189.8470  173.1930  141.7730 C   0  0  0  0  0  0  0  0  0  0  0  0
  186.8130  178.0740  145.4810 C   0  0  0  0  0  2  0  0  0  0  0  0
  186.1230  178.8910  144.4040 C   0  0  0  0  0  2  0  0  0  0  0  0
  184.0290  178.4510  145.4400 O   0  0  0  0  0  0  0  0  0  0  0  0
  184.6730  178.5540  144.3620 C   0  0  0  0  0  0  0  0  0  0  0  0
  182.8100  178.7760  142.9180 O   0  0  0  0  0  0  0  0  0  0  0  0
  184.6320  177.7670  142.0440 F   0  0  0  0  0  0  0  0  0  0  0  0
  183.9920  178.3720  143.0750 C   0  0  0  0  0  0  0  0  0  0  0  0
  193.1830  176.7990  144.7970 C   0  0  0  0  0  2  0  0  0  0  0  0
  194.4700  177.3690  146.8520 C   0  0  0  0  0  1  0  0  0  0  0  0
  193.6190  176.3120  146.1690 C   0  0  2  0  0  3  0  0  0  0  0  0
  194.4240  175.0380  146.0060 C   0  0  0  0  0  2  0  0  0  0  0  0
  194.8420  174.8990  144.6690 O   0  0  0  0  0  0  0  0  0  0  0  0
  195.0510  173.5310  144.3690 C   0  0  1  0  0  3  0  0  0  0  0  0
  194.7300  171.4640  145.4850 O   0  0  0  0  0  0  0  0  0  0  0  0
  195.4220  172.6830  145.5780 C   0  0  1  0  0  3  0  0  0  0  0  0
  193.8550  172.8490  143.7520 C   0  0  2  0  0  3  0  0  0  0  0  0
  196.9150  172.4270  145.5880 C   0  0  0  0  0  1  0  0  0  0  0  0
  193.5500  171.7710  144.7920 C   0  0  1  0  0  3  0  0  0  0  0  0
  192.8950  170.5110  144.2460 C   0  0  0  0  0  1  0  0  0  0  0  0
  194.2790  172.2910  142.3980 C   0  0  0  0  0  2  0  0  0  0  0  0
  195.6480  172.4780  142.2140 O   0  0  0  0  0  1  0  0  0  0  0  0
  1  9  1  0  0  0  0
  3 16  1  0  0  0  0
  3 15  1  0  0  0  0
  4 11  1  1  0  0  0
  4  1  1  0  0  0  0
  5  6  1  0  0  0  0
  6 14  1  0  0  0  0
  7 22  1  0  0  0  0
  7 13  1  0  0  0  0
  9 23  1  1  0  0  0
  9  2  1  0  0  0  0
 10  2  1  0  0  0  0
 10 12  1  0  0  0  0
 10  8  1  1  0  0  0
 13  5  1  6  0  0  0
 13  4  1  0  0  0  0
 14 30  1  1  0  0  0
 14 12  1  0  0  0  0
 15  4  1  0  0  0  0
 16  7  2  0  0  0  0
 18 17  2  0  0  0  0
 18 16  1  0  0  0  0
 19 18  1  0  0  0  0
 20 19  2  0  0  0  0
 22 21  3  0  0  0  0
 24 23  1  0  0  0  0
 26 24  1  0  0  0  0
 26 25  2  0  0  0  0
 27 29  2  0  0  0  0
 28 29  1  0  0  0  0
 29 26  1  0  0  0  0
 30 32  1  0  0  0  0
 32 31  1  6  0  0  0
 33 32  1  0  0  0  0
 34 33  1  0  0  0  0
 35 34  1  1  0  0  0
 35 37  1  0  0  0  0
 36 37  1  0  0  0  0
 37 39  1  6  0  0  0
 38 42  1  6  0  0  0
 38 35  1  0  0  0  0
 38 40  1  0  0  0  0
 40 41  1  6  0  0  0
 40 36  1  0  0  0  0
 43 42  1  0  0  0  0
M  END
>  <MODEL>
3

>  <REMARK>
 VINA RESULT:      -6.7      1.992      5.469
  Name = 
  13 active torsions:
  status: ('A' for Active; 'I' for Inactive)
    1  A    between atoms: C_2  and  C_23
    2  A    between atoms: C_2  and  O_28
    3  A    between atoms: C_3  and  C_42
    4  A    between atoms: C_5  and  O_28
    5  A    between atoms: C_6  and  C_18
    6  A    between atoms: C_13  and  C_21
    7  A    between atoms: C_19  and  C_34
    8  A    between atoms: C_23  and  C_32
    9  A    between atoms: C_25  and  C_26
   10  A    between atoms: C_25  and  C_33
   11  A    between atoms: C_32  and  C_39
   12  A    between atoms: C_33  and  C_34
   13  A    between atoms: C_41  and  C_42
                            x       y       z     vdW  Elec       q    Type
                         _______ _______ _______ _____ _____    ______ ____

>  <TORSDO>
F 13

$$$$
=
 OpenBabel11042419183D

 43 45  0  0  1  0  0  0  0  0999 V2000
  188.4040  175.7860  145.8840 O   0  0  0  0  0  0  0  0  0  0  0  0
  187.1800  176.3660  143.8900 C   0  0  0  0  0  2  0  0  0  0  0  0
  191.9060  175.2950  147.1710 C   0  0  0  0  0  2  0  0  0  0  0  0
  189.8030  176.0530  145.9540 C   0  0  2  0  0  0  0  0  0  0  0  0
  190.0900  174.3050  144.1290 C   0  0  0  0  0  2  0  0  0  0  0  0
  189.9690  174.2700  142.6140 C   0  0  0  0  0  2  0  0  0  0  0  0
  192.0030  175.7650  144.7130 C   0  0  0  0  0  0  0  0  0  0  0  0
  188.0190  178.0410  142.2520 C   0  0  0  0  0  1  0  0  0  0  0  0
  187.6990  176.8300  145.2400 C   0  0  1  0  0  3  0  0  0  0  0  0
  188.2170  176.6460  142.8120 C   0  0  2  0  0  3  0  0  0  0  0  0
  190.1080  177.5090  146.3590 C   0  0  0  0  0  1  0  0  0  0  0  0
  188.1390  175.6690  141.7300 N   0  0  0  0  0  2  0  0  0  0  0  0
  190.4970  175.6980  144.6210 C   0  0  2  0  0  3  0  0  0  0  0  0
  188.4950  174.3400  142.2250 C   0  0  1  0  0  3  0  0  0  0  0  0
  190.3890  175.1310  147.0250 C   0  0  0  0  0  2  0  0  0  0  0  0
  192.6560  175.4720  145.8670 C   0  0  0  0  0  0  0  0  0  0  0  0
  194.7470  176.5570  146.1870 O   0  0  0  0  0  0  0  0  0  0  0  0
  194.1400  175.4780  145.9540 C   0  0  0  0  0  0  0  0  0  0  0  0
  194.9450  174.2540  145.8070 C   0  0  0  0  0  3  0  0  0  0  0  0
  194.6890  173.3210  144.8990 C   0  0  0  0  0  2  0  0  0  0  0  0
  193.2980  176.2390  142.4490 C   0  0  0  0  0  3  0  0  0  0  0  0
  192.7130  176.0230  143.4800 C   0  0  0  0  0  0  0  0  0  0  0  0
  186.5100  177.2350  146.0940 C   0  0  0  0  0  2  0  0  0  0  0  0
  185.2180  177.0970  145.3090 C   0  0  0  0  0  2  0  0  0  0  0  0
  183.8030  178.8830  145.9890 O   0  0  0  0  0  0  0  0  0  0  0  0
  184.5960  178.4370  145.1170 C   0  0  0  0  0  0  0  0  0  0  0  0
  185.5400  180.3360  144.0640 O   0  0  0  0  0  0  0  0  0  0  0  0
  184.5720  178.8190  142.6980 F   0  0  0  0  0  0  0  0  0  0  0  0
  184.9260  179.2440  143.9360 C   0  0  0  0  0  0  0  0  0  0  0  0
  188.1880  173.3110  141.1490 C   0  0  0  0  0  2  0  0  0  0  0  0
  188.6010  173.6560  138.7160 C   0  0  0  0  0  1  0  0  0  0  0  0
  189.2430  173.3310  140.0550 C   0  0  2  0  0  3  0  0  0  0  0  0
  189.9050  171.9690  139.9840 C   0  0  0  0  0  2  0  0  0  0  0  0
  190.8290  171.9350  138.9230 O   0  0  0  0  0  0  0  0  0  0  0  0
  192.0420  172.5500  139.3190 C   0  0  1  0  0  3  0  0  0  0  0  0
  194.2480  171.8300  139.8060 O   0  0  0  0  0  0  0  0  0  0  0  0
  192.9130  171.6770  140.2140 C   0  0  1  0  0  3  0  0  0  0  0  0
  192.9280  172.9550  138.1680 C   0  0  2  0  0  3  0  0  0  0  0  0
  192.7640  172.1120  141.6570 C   0  0  0  0  0  1  0  0  0  0  0  0
  194.1760  172.1120  138.4340 C   0  0  1  0  0  3  0  0  0  0  0  0
  195.4810  172.7100  137.9310 C   0  0  0  0  0  1  0  0  0  0  0  0
  193.1720  174.4570  138.2690 C   0  0  0  0  0  2  0  0  0  0  0  0
  192.6540  175.1000  137.1460 O   0  0  0  0  0  1  0  0  0  0  0  0
  1  4  1  0  0  0  0
  2  9  1  0  0  0  0
  4 11  1  1  0  0  0
  4 15  1  0  0  0  0
  6  5  1  0  0  0  0
  7 16  2  0  0  0  0
  9  1  1  0  0  0  0
  9 23  1  1  0  0  0
 10  8  1  6  0  0  0
 10  2  1  0  0  0  0
 12 14  1  0  0  0  0
 12 10  1  0  0  0  0
 13  5  1  1  0  0  0
 13  7  1  0  0  0  0
 13  4  1  0  0  0  0
 14 30  1  6  0  0  0
 14  6  1  0  0  0  0
 15  3  1  0  0  0  0
 16 18  1  0  0  0  0
 16  3  1  0  0  0  0
 18 17  2  0  0  0  0
 19 18  1  0  0  0  0
 20 19  2  0  0  0  0
 21 22  3  0  0  0  0
 22  7  1  0  0  0  0
 24 23  1  0  0  0  0
 26 24  1  0  0  0  0
 26 25  2  0  0  0  0
 28 29  1  0  0  0  0
 29 27  2  0  0  0  0
 29 26  1  0  0  0  0
 32 31  1  6  0  0  0
 32 30  1  0  0  0  0
 33 32  1  0  0  0  0
 34 33  1  0  0  0  0
 35 34  1  6  0  0  0
 35 37  1  0  0  0  0
 36 37  1  0  0  0  0
 37 39  1  1  0  0  0
 38 42  1  1  0  0  0
 38 40  1  0  0  0  0
 38 35  1  0  0  0  0
 40 41  1  1  0  0  0
 40 36  1  0  0  0  0
 43 42  1  0  0  0  0
M  END
>  <MODEL>
4

>  <REMARK>
 VINA RESULT:      -6.5      1.222      2.081
  Name = 
  13 active torsions:
  status: ('A' for Active; 'I' for Inactive)
    1  A    between atoms: C_2  and  C_23
    2  A    between atoms: C_2  and  O_28
    3  A    between atoms: C_3  and  C_42
    4  A    between atoms: C_5  and  O_28
    5  A    between atoms: C_6  and  C_18
    6  A    between atoms: C_13  and  C_21
    7  A    between atoms: C_19  and  C_34
    8  A    between atoms: C_23  and  C_32
    9  A    between atoms: C_25  and  C_26
   10  A    between atoms: C_25  and  C_33
   11  A    between atoms: C_32  and  C_39
   12  A    between atoms: C_33  and  C_34
   13  A    between atoms: C_41  and  C_42
                            x       y       z     vdW  Elec       q    Type
                         _______ _______ _______ _____ _____    ______ ____

>  <TORSDO>
F 13

$$$$
=
 OpenBabel11042419183D

 43 45  0  0  1  0  0  0  0  0999 V2000
  191.7370  175.8260  142.4000 O   0  0  0  0  0  0  0  0  0  0  0  0
  193.5350  174.4900  143.2910 C   0  0  0  0  0  2  0  0  0  0  0  0
  188.3430  177.1900  143.2840 C   0  0  0  0  0  2  0  0  0  0  0  0
  190.7450  176.3490  143.2810 C   0  0  2  0  0  0  0  0  0  0  0  0
  190.0240  173.9420  143.6780 C   0  0  0  0  0  2  0  0  0  0  0  0
  190.4840  172.7900  144.5560 C   0  0  0  0  0  2  0  0  0  0  0  0
  189.1400  175.7250  145.1520 C   0  0  0  0  0  0  0  0  0  0  0  0
  194.1870  174.5650  145.6910 C   0  0  0  0  0  1  0  0  0  0  0  0
  193.0320  175.8870  142.9680 C   0  0  1  0  0  3  0  0  0  0  0  0
  193.1290  174.1070  144.7070 C   0  0  2  0  0  3  0  0  0  0  0  0
  191.1910  177.6560  143.9650 C   0  0  0  0  0  1  0  0  0  0  0  0
  192.9320  172.6660  144.8350 N   0  0  0  0  0  2  0  0  0  0  0  0
  190.3320  175.2940  144.3310 C   0  0  2  0  0  3  0  0  0  0  0  0
  191.7990  172.2380  144.0150 C   0  0  1  0  0  3  0  0  0  0  0  0
  189.5050  176.6540  142.4390 C   0  0  0  0  0  2  0  0  0  0  0  0
  188.1670  176.5150  144.6280 C   0  0  0  0  0  0  0  0  0  0  0  0
  185.8460  176.3860  145.1230 O   0  0  0  0  0  0  0  0  0  0  0  0
  186.9610  176.8980  145.4070 C   0  0  0  0  0  0  0  0  0  0  0  0
  187.0160  177.8430  146.5350 C   0  0  0  0  0  3  0  0  0  0  0  0
  186.3090  177.6890  147.6470 C   0  0  0  0  0  2  0  0  0  0  0  0
  188.9320  174.6590  147.5700 C   0  0  0  0  0  3  0  0  0  0  0  0
  189.0230  175.1460  146.4710 C   0  0  0  0  0  0  0  0  0  0  0  0
  193.9880  176.5190  141.9720 C   0  0  0  0  0  2  0  0  0  0  0  0
  194.9200  175.4720  141.3880 C   0  0  0  0  0  2  0  0  0  0  0  0
  197.0580  176.1000  140.5590 O   0  0  0  0  0  0  0  0  0  0  0  0
  196.3360  175.8940  141.5720 C   0  0  0  0  0  0  0  0  0  0  0  0
  197.2510  177.2410  143.2900 O   0  0  0  0  0  0  0  0  0  0  0  0
  196.9850  175.0520  143.7770 F   0  0  0  0  0  0  0  0  0  0  0  0
  196.8800  176.0970  142.9200 C   0  0  0  0  0  0  0  0  0  0  0  0
  191.7570  170.7180  143.9830 C   0  0  0  0  0  2  0  0  0  0  0  0
  193.1940  170.8270  141.9510 C   0  0  0  0  0  1  0  0  0  0  0  0
  191.9590  170.1950  142.5700 C   0  0  2  0  0  3  0  0  0  0  0  0
  190.7390  170.5400  141.7390 C   0  0  0  0  0  2  0  0  0  0  0  0
  190.9340  170.1370  140.4040 O   0  0  0  0  0  0  0  0  0  0  0  0
  190.6690  171.2200  139.5300 C   0  0  1  0  0  3  0  0  0  0  0  0
  188.7520  172.1590  138.4970 O   0  0  0  0  0  0  0  0  0  0  0  0
  189.5040  170.9750  138.5800 C   0  0  1  0  0  3  0  0  0  0  0  0
  190.3470  172.5130  140.2360 C   0  0  2  0  0  3  0  0  0  0  0  0
  190.0290  170.6040  137.2080 C   0  0  0  0  0  1  0  0  0  0  0  0
  188.9250  172.7820  139.7430 C   0  0  1  0  0  3  0  0  0  0  0  0
  188.5300  174.2500  139.6760 C   0  0  0  0  0  1  0  0  0  0  0  0
  191.3600  173.5590  139.7850 C   0  0  0  0  0  2  0  0  0  0  0  0
  192.2610  172.9930  138.8850 O   0  0  0  0  0  1  0  0  0  0  0  0
  1  9  1  0  0  0  0
  1  4  1  0  0  0  0
  2 10  1  0  0  0  0
  3 16  1  0  0  0  0
  4 11  1  1  0  0  0
  4 13  1  0  0  0  0
  5  6  1  0  0  0  0
  7 22  1  0  0  0  0
  9 23  1  6  0  0  0
  9  2  1  0  0  0  0
 10 12  1  0  0  0  0
 10  8  1  1  0  0  0
 13  5  1  6  0  0  0
 13  7  1  0  0  0  0
 14 30  1  1  0  0  0
 14  6  1  0  0  0  0
 14 12  1  0  0  0  0
 15  4  1  0  0  0  0
 15  3  1  0  0  0  0
 16  7  2  0  0  0  0
 16 18  1  0  0  0  0
 17 18  2  0  0  0  0
 18 19  1  0  0  0  0
 19 20  2  0  0  0  0
 22 21  3  0  0  0  0
 24 26  1  0  0  0  0
 24 23  1  0  0  0  0
 25 26  2  0  0  0  0
 26 29  1  0  0  0  0
 29 27  2  0  0  0  0
 29 28  1  0  0  0  0
 32 31  1  6  0  0  0
 32 30  1  0  0  0  0
 33 32  1  0  0  0  0
 34 33  1  0  0  0  0
 35 38  1  0  0  0  0
 35 34  1  1  0  0  0
 36 37  1  0  0  0  0
 36 40  1  0  0  0  0
 37 39  1  6  0  0  0
 37 35  1  0  0  0  0
 38 42  1  6  0  0  0
 40 41  1  6  0  0  0
 40 38  1  0  0  0  0
 43 42  1  0  0  0  0
M  END
>  <MODEL>
5

>  <REMARK>
 VINA RESULT:      -6.4      2.989      6.975
  Name = 
  13 active torsions:
  status: ('A' for Active; 'I' for Inactive)
    1  A    between atoms: C_2  and  C_23
    2  A    between atoms: C_2  and  O_28
    3  A    between atoms: C_3  and  C_42
    4  A    between atoms: C_5  and  O_28
    5  A    between atoms: C_6  and  C_18
    6  A    between atoms: C_13  and  C_21
    7  A    between atoms: C_19  and  C_34
    8  A    between atoms: C_23  and  C_32
    9  A    between atoms: C_25  and  C_26
   10  A    between atoms: C_25  and  C_33
   11  A    between atoms: C_32  and  C_39
   12  A    between atoms: C_33  and  C_34
   13  A    between atoms: C_41  and  C_42
                            x       y       z     vdW  Elec       q    Type
                         _______ _______ _______ _____ _____    ______ ____

>  <TORSDO>
F 13

$$$$
=
 OpenBabel11042419183D

 43 45  0  0  1  0  0  0  0  0999 V2000
  187.7520  175.8210  144.9440 O   0  0  0  0  0  0  0  0  0  0  0  0
  186.9160  176.3270  142.7400 C   0  0  0  0  0  2  0  0  0  0  0  0
  190.9560  175.3530  146.8610 C   0  0  0  0  0  2  0  0  0  0  0  0
  189.1190  176.0780  145.2550 C   0  0  2  0  0  0  0  0  0  0  0  0
  189.7010  174.2520  143.5830 C   0  0  0  0  0  2  0  0  0  0  0  0
  189.8550  174.1540  142.0740 C   0  0  0  0  0  2  0  0  0  0  0  0
  191.5020  175.7180  144.4440 C   0  0  0  0  0  0  0  0  0  0  0  0
  188.0640  177.9240  141.2150 C   0  0  0  0  0  1  0  0  0  0  0  0
  187.1910  176.8430  144.1430 C   0  0  1  0  0  3  0  0  0  0  0  0
  188.1350  176.5520  141.8570 C   0  0  2  0  0  3  0  0  0  0  0  0
  189.3700  177.5470  145.6500 C   0  0  0  0  0  1  0  0  0  0  0  0
  188.2370  175.5310  140.8180 N   0  0  0  0  0  2  0  0  0  0  0  0
  190.0360  175.6610  144.0840 C   0  0  2  0  0  3  0  0  0  0  0  0
  188.4760  174.2210  141.4230 C   0  0  1  0  0  3  0  0  0  0  0  0
  189.4870  175.1970  146.4510 C   0  0  0  0  0  2  0  0  0  0  0  0
  191.9320  175.4680  145.7080 C   0  0  0  0  0  0  0  0  0  0  0  0
  194.0500  174.4110  145.9180 O   0  0  0  0  0  0  0  0  0  0  0  0
  193.3750  175.4650  146.0610 C   0  0  0  0  0  0  0  0  0  0  0  0
  194.0720  176.6660  146.5520 C   0  0  0  0  0  3  0  0  0  0  0  0
  194.6880  177.5260  145.7520 C   0  0  0  0  0  2  0  0  0  0  0  0
  193.1950  176.0780  142.4360 C   0  0  0  0  0  3  0  0  0  0  0  0
  192.4260  175.9180  143.3500 C   0  0  0  0  0  0  0  0  0  0  0  0
  185.8740  177.2940  144.7510 C   0  0  0  0  0  2  0  0  0  0  0  0
  185.6550  176.6300  146.0980 C   0  0  0  0  0  2  0  0  0  0  0  0
  186.8950  177.2910  148.0160 O   0  0  0  0  0  0  0  0  0  0  0  0
  185.9870  177.5840  147.1940 C   0  0  0  0  0  0  0  0  0  0  0  0
  184.0590  178.9450  147.0040 O   0  0  0  0  0  0  0  0  0  0  0  0
  185.9400  179.9770  147.7100 F   0  0  0  0  0  0  0  0  0  0  0  0
  185.2810  178.8660  147.2970 C   0  0  0  0  0  0  0  0  0  0  0  0
  188.3510  173.1500  140.3500 C   0  0  0  0  0  2  0  0  0  0  0  0
  188.4150  173.7670  137.9370 C   0  0  0  0  0  1  0  0  0  0  0  0
  189.2530  173.4540  139.1650 C   0  0  2  0  0  3  0  0  0  0  0  0
  190.1270  172.2460  138.8900 C   0  0  0  0  0  2  0  0  0  0  0  0
  189.9960  171.3070  139.9320 O   0  0  0  0  0  0  0  0  0  0  0  0
  190.8560  170.2060  139.7000 C   0  0  1  0  0  3  0  0  0  0  0  0
  192.6090  169.6900  138.1890 O   0  0  0  0  0  0  0  0  0  0  0  0
  191.2460  170.0240  138.2390 C   0  0  1  0  0  3  0  0  0  0  0  0
  192.1580  170.2760  140.4570 C   0  0  2  0  0  3  0  0  0  0  0  0
  190.4220  168.9130  137.6220 C   0  0  0  0  0  1  0  0  0  0  0  0
  193.1730  170.3100  139.3140 C   0  0  1  0  0  3  0  0  0  0  0  0
  194.5350  169.7150  139.6390 C   0  0  0  0  0  1  0  0  0  0  0  0
  192.2620  169.0300  141.3300 C   0  0  0  0  0  2  0  0  0  0  0  0
  191.0560  168.8130  141.9950 O   0  0  0  0  0  1  0  0  0  0  0  0
  1  4  1  0  0  0  0
  2  9  1  0  0  0  0
  4 11  1  1  0  0  0
  4 15  1  0  0  0  0
  6  5  1  0  0  0  0
  7 16  2  0  0  0  0
  9 23  1  1  0  0  0
  9  1  1  0  0  0  0
 10  8  1  6  0  0  0
 10  2  1  0  0  0  0
 12 14  1  0  0  0  0
 12 10  1  0  0  0  0
 13  5  1  1  0  0  0
 13  7  1  0  0  0  0
 13  4  1  0  0  0  0
 14 30  1  6  0  0  0
 14  6  1  0  0  0  0
 15  3  1  0  0  0  0
 16 18  1  0  0  0  0
 16  3  1  0  0  0  0
 17 18  2  0  0  0  0
 18 19  1  0  0  0  0
 20 19  2  0  0  0  0
 21 22  3  0  0  0  0
 22  7  1  0  0  0  0
 23 24  1  0  0  0  0
 24 26  1  0  0  0  0
 26 29  1  0  0  0  0
 26 25  2  0  0  0  0
 27 29  2  0  0  0  0
 29 28  1  0  0  0  0
 32 31  1  6  0  0  0
 32 30  1  0  0  0  0
 33 32  1  0  0  0  0
 33 34  1  0  0  0  0
 35 34  1  6  0  0  0
 35 38  1  0  0  0  0
 36 37  1  0  0  0  0
 36 40  1  0  0  0  0
 37 39  1  1  0  0  0
 37 35  1  0  0  0  0
 38 42  1  1  0  0  0
 40 41  1  1  0  0  0
 40 38  1  0  0  0  0
 42 43  1  0  0  0  0
M  END
>  <MODEL>
6

>  <REMARK>
 VINA RESULT:      -6.2      1.802      2.475
  Name = 
  13 active torsions:
  status: ('A' for Active; 'I' for Inactive)
    1  A    between atoms: C_2  and  C_23
    2  A    between atoms: C_2  and  O_28
    3  A    between atoms: C_3  and  C_42
    4  A    between atoms: C_5  and  O_28
    5  A    between atoms: C_6  and  C_18
    6  A    between atoms: C_13  and  C_21
    7  A    between atoms: C_19  and  C_34
    8  A    between atoms: C_23  and  C_32
    9  A    between atoms: C_25  and  C_26
   10  A    between atoms: C_25  and  C_33
   11  A    between atoms: C_32  and  C_39
   12  A    between atoms: C_33  and  C_34
   13  A    between atoms: C_41  and  C_42
                            x       y       z     vdW  Elec       q    Type
                         _______ _______ _______ _____ _____    ______ ____

>  <TORSDO>
F 13

$$$$
=
 OpenBabel11042419183D

 43 45  0  0  1  0  0  0  0  0999 V2000
  192.2700  172.1560  141.4100 O   0  0  0  0  0  0  0  0  0  0  0  0
  190.0350  172.1890  142.3140 C   0  0  0  0  0  2  0  0  0  0  0  0
  195.7690  173.3420  142.1230 C   0  0  0  0  0  2  0  0  0  0  0  0
  193.3730  172.4930  142.2480 C   0  0  2  0  0  0  0  0  0  0  0  0
  192.4200  174.8510  142.3240 C   0  0  0  0  0  2  0  0  0  0  0  0
  191.3420  175.5730  143.1140 C   0  0  0  0  0  2  0  0  0  0  0  0
  194.2350  174.2320  143.8910 C   0  0  0  0  0  0  0  0  0  0  0  0
  189.5840  172.0570  144.7580 C   0  0  0  0  0  1  0  0  0  0  0  0
  191.3030  171.3820  142.0950 C   0  0  1  0  0  3  0  0  0  0  0  0
  190.1150  172.9320  143.6400 C   0  0  2  0  0  3  0  0  0  0  0  0
  193.8520  171.3030  143.1030 C   0  0  0  0  0  1  0  0  0  0  0  0
  189.3620  174.1820  143.5970 N   0  0  0  0  0  2  0  0  0  0  0  0
  193.0340  173.7080  143.1400 C   0  0  2  0  0  3  0  0  0  0  0  0
  189.9700  175.1040  142.6380 C   0  0  1  0  0  3  0  0  0  0  0  0
  194.5260  172.9140  141.3350 C   0  0  0  0  0  2  0  0  0  0  0  0
  195.4860  174.1570  143.3680 C   0  0  0  0  0  0  0  0  0  0  0  0
  196.9780  175.9300  143.9010 O   0  0  0  0  0  0  0  0  0  0  0  0
  196.6680  174.7210  144.0710 C   0  0  0  0  0  0  0  0  0  0  0  0
  197.4910  173.9240  144.9980 C   0  0  0  0  0  3  0  0  0  0  0  0
  197.0080  173.3640  146.0990 C   0  0  0  0  0  2  0  0  0  0  0  0
  193.7440  175.5230  146.1540 C   0  0  0  0  0  3  0  0  0  0  0  0
  193.9670  174.9330  145.1270 C   0  0  0  0  0  0  0  0  0  0  0  0
  190.9540  170.1620  141.2610 C   0  0  0  0  0  2  0  0  0  0  0  0
  191.4700  170.3200  139.8420 C   0  0  0  0  0  2  0  0  0  0  0  0
  189.7030  169.7140  138.3720 O   0  0  0  0  0  0  0  0  0  0  0  0
  190.3420  170.6470  138.9260 C   0  0  0  0  0  0  0  0  0  0  0  0
  188.7620  172.3430  138.4430 O   0  0  0  0  0  0  0  0  0  0  0  0
  190.8940  173.0260  138.7440 F   0  0  0  0  0  0  0  0  0  0  0  0
  189.9600  172.0450  138.6920 C   0  0  0  0  0  0  0  0  0  0  0  0
  189.0470  176.2970  142.4440 C   0  0  0  0  0  2  0  0  0  0  0  0
  187.8150  175.4520  140.4500 C   0  0  0  0  0  1  0  0  0  0  0  0
  187.6930  175.8590  141.9090 C   0  0  2  0  0  3  0  0  0  0  0  0
  186.7170  177.0130  142.0350 C   0  0  0  0  0  2  0  0  0  0  0  0
  185.8330  176.7830  143.1070 O   0  0  0  0  0  0  0  0  0  0  0  0
  186.1700  177.6210  144.1980 C   0  0  1  0  0  3  0  0  0  0  0  0
  185.0220  178.5900  146.0320 O   0  0  0  0  0  0  0  0  0  0  0  0
  185.0470  178.5560  144.6290 C   0  0  1  0  0  3  0  0  0  0  0  0
  186.5700  176.8720  145.4450 C   0  0  2  0  0  3  0  0  0  0  0  0
  185.3010  179.9470  144.0850 C   0  0  0  0  0  1  0  0  0  0  0  0
  185.4970  177.3310  146.4320 C   0  0  1  0  0  3  0  0  0  0  0  0
  185.9240  177.3480  147.8920 C   0  0  0  0  0  1  0  0  0  0  0  0
  187.9800  177.3120  145.8250 C   0  0  0  0  0  2  0  0  0  0  0  0
  188.7430  176.2030  146.1870 O   0  0  0  0  0  1  0  0  0  0  0  0
  1  9  1  0  0  0  0
  1  4  1  0  0  0  0
  2 10  1  0  0  0  0
  3 16  1  0  0  0  0
  4 11  1  1  0  0  0
  4 13  1  0  0  0  0
  5  6  1  0  0  0  0
  7 22  1  0  0  0  0
  9 23  1  6  0  0  0
  9  2  1  0  0  0  0
 10  8  1  1  0  0  0
 12 10  1  0  0  0  0
 13  5  1  6  0  0  0
 13  7  1  0  0  0  0
 14 30  1  1  0  0  0
 14  6  1  0  0  0  0
 14 12  1  0  0  0  0
 15  3  1  0  0  0  0
 15  4  1  0  0  0  0
 16  7  2  0  0  0  0
 16 18  1  0  0  0  0
 17 18  2  0  0  0  0
 18 19  1  0  0  0  0
 19 20  2  0  0  0  0
 22 21  3  0  0  0  0
 24 23  1  0  0  0  0
 25 26  2  0  0  0  0
 26 24  1  0  0  0  0
 27 29  2  0  0  0  0
 29 28  1  0  0  0  0
 29 26  1  0  0  0  0
 32 31  1  6  0  0  0
 32 33  1  0  0  0  0
 32 30  1  0  0  0  0
 33 34  1  0  0  0  0
 35 34  1  6  0  0  0
 35 37  1  0  0  0  0
 35 38  1  0  0  0  0
 36 40  1  0  0  0  0
 37 39  1  6  0  0  0
 37 36  1  0  0  0  0
 38 42  1  1  0  0  0
 38 40  1  0  0  0  0
 40 41  1  1  0  0  0
 42 43  1  0  0  0  0
M  END
>  <MODEL>
7

>  <REMARK>
 VINA RESULT:      -6.2      2.466      7.548
  Name = 
  13 active torsions:
  status: ('A' for Active; 'I' for Inactive)
    1  A    between atoms: C_2  and  C_23
    2  A    between atoms: C_2  and  O_28
    3  A    between atoms: C_3  and  C_42
    4  A    between atoms: C_5  and  O_28
    5  A    between atoms: C_6  and  C_18
    6  A    between atoms: C_13  and  C_21
    7  A    between atoms: C_19  and  C_34
    8  A    between atoms: C_23  and  C_32
    9  A    between atoms: C_25  and  C_26
   10  A    between atoms: C_25  and  C_33
   11  A    between atoms: C_32  and  C_39
   12  A    between atoms: C_33  and  C_34
   13  A    between atoms: C_41  and  C_42
                            x       y       z     vdW  Elec       q    Type
                         _______ _______ _______ _____ _____    ______ ____

>  <TORSDO>
F 13

$$$$
=
 OpenBabel11042419183D

 43 45  0  0  1  0  0  0  0  0999 V2000
  188.6440  175.4230  141.8890 O   0  0  0  0  0  0  0  0  0  0  0  0
  188.8630  176.3570  144.1010 C   0  0  0  0  0  2  0  0  0  0  0  0
  189.6890  172.4680  139.8060 C   0  0  0  0  0  2  0  0  0  0  0  0
  188.9820  174.0560  141.6650 C   0  0  2  0  0  0  0  0  0  0  0  0
  191.3860  174.7070  142.1810 C   0  0  0  0  0  2  0  0  0  0  0  0
  192.2220  174.9180  143.4330 C   0  0  0  0  0  2  0  0  0  0  0  0
  190.7880  172.3080  142.0510 C   0  0  0  0  0  0  0  0  0  0  0  0
  188.9350  174.9390  146.1440 C   0  0  0  0  0  1  0  0  0  0  0  0
  187.9750  175.6070  143.1220 C   0  0  1  0  0  3  0  0  0  0  0  0
  189.6960  175.3710  144.9060 C   0  0  2  0  0  3  0  0  0  0  0  0
  187.8340  173.0950  142.0330 C   0  0  0  0  0  1  0  0  0  0  0  0
  190.9780  175.9500  145.2970 N   0  0  0  0  0  2  0  0  0  0  0  0
  190.2750  173.6800  142.4210 C   0  0  2  0  0  3  0  0  0  0  0  0
  191.7930  176.2150  144.1120 C   0  0  1  0  0  3  0  0  0  0  0  0
  189.2720  173.8970  140.1720 C   0  0  0  0  0  2  0  0  0  0  0  0
  190.6080  171.7960  140.8060 C   0  0  0  0  0  0  0  0  0  0  0  0
  190.4410  169.4420  140.5200 O   0  0  0  0  0  0  0  0  0  0  0  0
  191.1570  170.4730  140.4120 C   0  0  0  0  0  0  0  0  0  0  0  0
  192.5150  170.3120  139.8650 C   0  0  0  0  0  3  0  0  0  0  0  0
  193.4450  169.5590  140.4400 C   0  0  0  0  0  2  0  0  0  0  0  0
  192.2610  171.0600  143.8680 C   0  0  0  0  0  3  0  0  0  0  0  0
  191.5910  171.6310  143.0440 C   0  0  0  0  0  0  0  0  0  0  0  0
  186.7170  176.4270  142.8950 C   0  0  0  0  0  2  0  0  0  0  0  0
  186.6600  177.5950  143.8630 C   0  0  0  0  0  2  0  0  0  0  0  0
  184.4020  178.1330  143.3450 O   0  0  0  0  0  0  0  0  0  0  0  0
  185.2460  177.8690  144.2430 C   0  0  0  0  0  0  0  0  0  0  0  0
  184.0390  178.6640  146.1180 O   0  0  0  0  0  0  0  0  0  0  0  0
  185.3010  176.8200  146.4550 F   0  0  0  0  0  0  0  0  0  0  0  0
  184.8320  177.8050  145.6490 C   0  0  0  0  0  0  0  0  0  0  0  0
  193.0160  177.0210  144.5210 C   0  0  0  0  0  2  0  0  0  0  0  0
  194.1630  176.8650  146.7270 C   0  0  0  0  0  1  0  0  0  0  0  0
  193.9560  176.1910  145.3810 C   0  0  2  0  0  3  0  0  0  0  0  0
  195.2870  176.0600  144.6680 C   0  0  0  0  0  2  0  0  0  0  0  0
  196.1360  175.1960  145.3860 O   0  0  0  0  0  0  0  0  0  0  0  0
  196.5070  174.0980  144.5710 C   0  0  1  0  0  3  0  0  0  0  0  0
  195.4670  172.1130  143.7960 O   0  0  0  0  0  0  0  0  0  0  0  0
  195.8480  172.7830  144.9700 C   0  0  1  0  0  3  0  0  0  0  0  0
  196.1820  174.2830  143.1090 C   0  0  2  0  0  3  0  0  0  0  0  0
  196.8280  171.9340  145.7520 C   0  0  0  0  0  1  0  0  0  0  0  0
  195.2060  173.1320  142.8670 C   0  0  1  0  0  3  0  0  0  0  0  0
  195.1890  172.5840  141.4480 C   0  0  0  0  0  1  0  0  0  0  0  0
  197.4820  174.1590  142.3210 C   0  0  0  0  0  2  0  0  0  0  0  0
  197.6610  175.2850  141.5190 O   0  0  0  0  0  1  0  0  0  0  0  0
  1  9  1  0  0  0  0
  2 10  1  0  0  0  0
  3 15  1  0  0  0  0
  3 16  1  0  0  0  0
  4  1  1  0  0  0  0
  4 11  1  1  0  0  0
  4 13  1  0  0  0  0
  5  6  1  0  0  0  0
  6 14  1  0  0  0  0
  7 13  1  0  0  0  0
  7 22  1  0  0  0  0
  9 23  1  6  0  0  0
  9  2  1  0  0  0  0
 10 12  1  0  0  0  0
 10  8  1  1  0  0  0
 13  5  1  6  0  0  0
 14 30  1  1  0  0  0
 14 12  1  0  0  0  0
 15  4  1  0  0  0  0
 16  7  2  0  0  0  0
 18 17  2  0  0  0  0
 18 16  1  0  0  0  0
 19 18  1  0  0  0  0
 19 20  2  0  0  0  0
 22 21  3  0  0  0  0
 23 24  1  0  0  0  0
 24 26  1  0  0  0  0
 25 26  2  0  0  0  0
 26 29  1  0  0  0  0
 29 27  2  0  0  0  0
 29 28  1  0  0  0  0
 30 32  1  0  0  0  0
 32 31  1  1  0  0  0
 33 32  1  0  0  0  0
 33 34  1  0  0  0  0
 35 37  1  0  0  0  0
 35 34  1  1  0  0  0
 36 37  1  0  0  0  0
 37 39  1  6  0  0  0
 38 42  1  6  0  0  0
 38 35  1  0  0  0  0
 40 41  1  6  0  0  0
 40 38  1  0  0  0  0
 40 36  1  0  0  0  0
 43 42  1  0  0  0  0
M  END
>  <MODEL>
8

>  <REMARK>
 VINA RESULT:      -6.2      2.160      5.675
  Name = 
  13 active torsions:
  status: ('A' for Active; 'I' for Inactive)
    1  A    between atoms: C_2  and  C_23
    2  A    between atoms: C_2  and  O_28
    3  A    between atoms: C_3  and  C_42
    4  A    between atoms: C_5  and  O_28
    5  A    between atoms: C_6  and  C_18
    6  A    between atoms: C_13  and  C_21
    7  A    between atoms: C_19  and  C_34
    8  A    between atoms: C_23  and  C_32
    9  A    between atoms: C_25  and  C_26
   10  A    between atoms: C_25  and  C_33
   11  A    between atoms: C_32  and  C_39
   12  A    between atoms: C_33  and  C_34
   13  A    between atoms: C_41  and  C_42
                            x       y       z     vdW  Elec       q    Type
                         _______ _______ _______ _____ _____    ______ ____

>  <TORSDO>
F 13

$$$$
=
 OpenBabel11042419183D

 43 45  0  0  1  0  0  0  0  0999 V2000
  191.6230  173.9120  140.5830 O   0  0  0  0  0  0  0  0  0  0  0  0
  189.2230  173.6770  140.5610 C   0  0  0  0  0  2  0  0  0  0  0  0
  194.5170  174.5160  142.9120 C   0  0  0  0  0  2  0  0  0  0  0  0
  192.3290  173.8140  141.8180 C   0  0  2  0  0  0  0  0  0  0  0  0
  191.1620  175.9690  142.5000 C   0  0  0  0  0  2  0  0  0  0  0  0
  189.8080  176.3500  143.0740 C   0  0  0  0  0  2  0  0  0  0  0  0
  192.3830  174.6640  144.2140 C   0  0  0  0  0  0  0  0  0  0  0  0
  187.9770  172.5610  142.4030 C   0  0  0  0  0  1  0  0  0  0  0  0
  190.5680  172.9720  140.5010 C   0  0  1  0  0  3  0  0  0  0  0  0
  188.7640  173.7950  142.0070 C   0  0  2  0  0  3  0  0  0  0  0  0
  192.6080  172.3530  142.2250 C   0  0  0  0  0  1  0  0  0  0  0  0
  187.9420  174.9850  142.2100 N   0  0  0  0  0  2  0  0  0  0  0  0
  191.5760  174.5610  142.9410 C   0  0  2  0  0  3  0  0  0  0  0  0
  188.7410  176.1910  141.9940 C   0  0  1  0  0  3  0  0  0  0  0  0
  193.6730  174.5190  141.6310 C   0  0  0  0  0  2  0  0  0  0  0  0
  193.7380  174.7510  144.1890 C   0  0  0  0  0  0  0  0  0  0  0  0
  195.2690  173.9640  145.8290 O   0  0  0  0  0  0  0  0  0  0  0  0
  194.5390  174.9110  145.4310 C   0  0  0  0  0  0  0  0  0  0  0  0
  194.5400  176.1570  146.2160 C   0  0  0  0  0  3  0  0  0  0  0  0
  194.5660  177.3630  145.6640 C   0  0  0  0  0  2  0  0  0  0  0  0
  191.0100  174.9170  146.4680 C   0  0  0  0  0  3  0  0  0  0  0  0
  191.6330  174.7980  145.4430 C   0  0  0  0  0  0  0  0  0  0  0  0
  190.6590  172.2300  139.1790 C   0  0  0  0  0  2  0  0  0  0  0  0
  191.6310  172.9240  138.2430 C   0  0  0  0  0  2  0  0  0  0  0  0
  191.2130  172.0200  136.0840 O   0  0  0  0  0  0  0  0  0  0  0  0
  191.0550  172.9910  136.8710 C   0  0  0  0  0  0  0  0  0  0  0  0
  189.0260  174.1470  136.4810 O   0  0  0  0  0  0  0  0  0  0  0  0
  190.9240  175.2830  136.0200 F   0  0  0  0  0  0  0  0  0  0  0  0
  190.2850  174.1660  136.4480 C   0  0  0  0  0  0  0  0  0  0  0  0
  187.8200  177.4000  141.9850 C   0  0  0  0  0  2  0  0  0  0  0  0
  186.6000  177.5420  139.8170 C   0  0  0  0  0  1  0  0  0  0  0  0
  186.5170  177.0900  141.2660 C   0  0  2  0  0  3  0  0  0  0  0  0
  185.3850  177.8220  141.9620 C   0  0  0  0  0  2  0  0  0  0  0  0
  185.0670  177.1780  143.1730 O   0  0  0  0  0  0  0  0  0  0  0  0
  185.6260  177.8930  144.2600 C   0  0  1  0  0  3  0  0  0  0  0  0
  184.8030  178.9920  146.1930 O   0  0  0  0  0  0  0  0  0  0  0  0
  184.7340  179.0080  144.7900 C   0  0  1  0  0  3  0  0  0  0  0  0
  185.9490  177.0330  145.4570 C   0  0  2  0  0  3  0  0  0  0  0  0
  185.2180  180.3450  144.2680 C   0  0  0  0  0  1  0  0  0  0  0  0
  185.0480  177.6510  146.5270 C   0  0  1  0  0  3  0  0  0  0  0  0
  185.5590  177.5290  147.9540 C   0  0  0  0  0  1  0  0  0  0  0  0
  187.4380  177.1800  145.7530 C   0  0  0  0  0  2  0  0  0  0  0  0
  187.9420  175.9850  146.2630 O   0  0  0  0  0  1  0  0  0  0  0  0
  1  4  1  0  0  0  0
  2 10  1  0  0  0  0
  3 16  1  0  0  0  0
  4 11  1  1  0  0  0
  4 13  1  0  0  0  0
  5  6  1  0  0  0  0
  7 22  1  0  0  0  0
  9 23  1  6  0  0  0
  9  2  1  0  0  0  0
  9  1  1  0  0  0  0
 10 12  1  0  0  0  0
 10  8  1  6  0  0  0
 13  5  1  6  0  0  0
 13  7  1  0  0  0  0
 14 30  1  1  0  0  0
 14 12  1  0  0  0  0
 14  6  1  0  0  0  0
 15  4  1  0  0  0  0
 15  3  1  0  0  0  0
 16  7  2  0  0  0  0
 16 18  1  0  0  0  0
 18 17  2  0  0  0  0
 18 19  1  0  0  0  0
 20 19  2  0  0  0  0
 22 21  3  0  0  0  0
 24 23  1  0  0  0  0
 25 26  2  0  0  0  0
 26 24  1  0  0  0  0
 28 29  1  0  0  0  0
 29 27  2  0  0  0  0
 29 26  1  0  0  0  0
 32 31  1  6  0  0  0
 32 33  1  0  0  0  0
 32 30  1  0  0  0  0
 33 34  1  0  0  0  0
 35 34  1  6  0  0  0
 35 37  1  0  0  0  0
 35 38  1  0  0  0  0
 36 40  1  0  0  0  0
 37 39  1  6  0  0  0
 37 36  1  0  0  0  0
 38 42  1  1  0  0  0
 38 40  1  0  0  0  0
 40 41  1  1  0  0  0
 42 43  1  0  0  0  0
M  END
>  <MODEL>
9

>  <REMARK>
 VINA RESULT:      -6.0      2.470      7.589
  Name = 
  13 active torsions:
  status: ('A' for Active; 'I' for Inactive)
    1  A    between atoms: C_2  and  C_23
    2  A    between atoms: C_2  and  O_28
    3  A    between atoms: C_3  and  C_42
    4  A    between atoms: C_5  and  O_28
    5  A    between atoms: C_6  and  C_18
    6  A    between atoms: C_13  and  C_21
    7  A    between atoms: C_19  and  C_34
    8  A    between atoms: C_23  and  C_32
    9  A    between atoms: C_25  and  C_26
   10  A    between atoms: C_25  and  C_33
   11  A    between atoms: C_32  and  C_39
   12  A    between atoms: C_33  and  C_34
   13  A    between atoms: C_41  and  C_42
                            x       y       z     vdW  Elec       q    Type
                         _______ _______ _______ _____ _____    ______ ____

>  <TORSDO>
F 13

$$$$
