=
 OpenBabel11042415423D

 59 62  0  0  1  0  0  0  0  0999 V2000
  187.4730  178.0210  141.4830 C   0  0  0  0  0  2  0  0  0  0  0  0
  184.9950  178.3950  141.8870 C   0  0  0  0  0  0  0  0  0  0  0  0
  186.5070  178.1060  143.7680 C   0  0  0  0  0  3  0  0  0  0  0  0
  186.2970  178.1870  142.3910 C   0  0  0  0  0  0  0  0  0  0  0  0
  183.9110  178.5080  142.7780 C   0  0  0  0  0  0  0  0  0  0  0  0
  184.7510  178.4870  140.4120 C   0  0  0  0  0  1  0  0  0  0  0  0
  185.4320  178.2060  144.6570 C   0  0  0  0  0  0  0  0  0  0  0  0
  184.1400  178.4070  144.1600 C   0  0  0  0  0  3  0  0  0  0  0  0
  185.6430  178.0940  146.1310 C   0  0  0  0  0  2  0  0  0  0  0  0
  187.1160  177.8690  146.4380 C   0  0  0  0  0  2  0  0  0  0  0  0
  188.9150  176.1900  145.9320 C   0  0  0  0  0  0  0  0  0  0  0  0
  189.6310  176.6580  146.8590 O   0  0  0  0  0  0  0  0  0  0  0  0
  187.6260  176.7560  145.6580 N   0  0  0  0  0  2  0  0  0  0  0  0
  189.3830  175.0970  145.1990 O   0  0  0  0  0  0  0  0  0  0  0  0
  192.6800  173.4270  144.5390 C   0  0  2  0  0  0  0  0  0  0  0  0
  193.6920  173.3210  145.6020 C   0  0  0  0  0  2  0  0  0  0  0  0
  191.9440  174.7600  142.5420 C   0  0  0  0  0  2  0  0  0  0  0  0
  191.0240  175.5820  143.4630 C   0  0  1  0  0  3  0  0  0  0  0  0
  193.3410  172.2160  144.7940 O   0  0  0  0  0  0  0  0  0  0  0  0
  193.1400  174.1510  143.2790 C   0  0  0  0  0  2  0  0  0  0  0  0
  191.2310  173.5020  145.0110 C   0  0  1  0  0  3  0  0  0  0  0  0
  190.7550  174.9530  144.8490 C   0  0  2  0  0  3  0  0  0  0  0  0
  189.4670  171.8910  145.0890 O   0  0  0  0  0  1  0  0  0  0  0  0
  190.3540  172.5330  144.2250 C   0  0  0  0  0  2  0  0  0  0  0  0
  191.5070  177.0200  143.6000 C   0  0  0  0  0  2  0  0  0  0  0  0
  192.2090  177.1960  144.7960 O   0  0  0  0  0  1  0  0  0  0  0  0
  182.6190  178.7170  142.2740 O   0  0  0  0  0  0  0  0  0  0  0  0
  181.9670  177.8060  141.3940 C   0  0  0  0  0  2  0  0  0  0  0  0
  180.5080  179.7880  141.1170 C   0  0  0  0  0  1  0  0  0  0  0  0
  180.5490  178.2730  141.1160 C   0  0  0  0  0  2  0  0  0  0  0  0
  188.2530  176.7680  141.8360 C   0  0  0  0  0  2  0  0  0  0  0  0
  187.4610  175.5980  141.5010 N   0  0  0  0  0  2  0  0  0  0  0  0
  188.3000  174.4860  141.6350 N   0  0  0  0  0  2  0  0  0  0  0  0
  188.5570  173.9900  140.2910 C   0  0  0  0  0  2  0  0  0  0  0  0
  189.2390  172.7030  140.3590 N   0  0  0  0  0  0  0  0  0  0  0  0
  190.0920  172.2730  139.4760 C   0  0  0  0  0  0  0  0  0  0  0  0
  189.4920  173.5320  137.5300 N   0  0  0  0  0  2  0  0  0  0  0  0
  191.7800  173.5310  138.1300 N   0  0  0  0  0  2  0  0  0  0  0  0
  190.4360  173.0680  138.2820 C   0  0  0  0  0  0  0  0  0  0  0  0
  192.1700  174.5080  137.1250 C   0  0  0  0  0  2  0  0  0  0  0  0
  193.3060  173.9350  136.2940 C   0  0  0  0  0  2  0  0  0  0  0  0
  194.5040  174.8770  136.2590 C   0  0  2  0  0  3  0  0  0  0  0  0
  195.6420  174.1980  135.8170 O   0  0  0  0  0  1  0  0  0  0  0  0
  194.7320  175.4410  137.5190 O   0  0  0  0  0  0  0  0  0  0  0  0
  195.7320  174.6470  138.0900 C   0  0  0  0  0  2  0  0  0  0  0  0
  195.6390  174.7270  139.6010 C   0  0  0  0  0  2  0  0  0  0  0  0
  196.7480  175.6200  140.1310 C   0  0  0  0  0  2  0  0  0  0  0  0
  196.2210  176.5270  141.2360 C   0  0  1  0  0  3  0  0  0  0  0  0
  194.8260  176.5540  141.2030 O   0  0  0  0  0  1  0  0  0  0  0  0
  196.6780  176.0180  142.5910 C   0  0  0  0  0  2  0  0  0  0  0  0
  196.6150  177.0410  143.5370 O   0  0  0  0  0  0  0  0  0  0  0  0
  195.5580  176.7170  144.3200 N   0  0  0  0  0  1  0  0  0  0  0  0
  190.6610  170.9250  139.6330 C   0  0  0  0  0  0  0  0  0  0  0  0
  190.6970  170.1400  138.6460 O   0  0  0  0  0  0  0  0  0  0  0  0
  191.1500  170.5190  140.8770 O   0  0  0  0  0  0  0  0  0  0  0  0
  192.2960  171.1230  141.4580 C   0  0  0  0  0  2  0  0  0  0  0  0
  194.7400  171.2210  141.1260 C   0  0  0  0  0  2  0  0  0  0  0  0
  194.1000  170.8570  139.8020 C   0  0  0  0  0  2  0  0  0  0  0  0
  193.5270  170.3160  141.0940 C   0  0  0  0  0  3  0  0  0  0  0  0
  1 31  1  0  0  0  0
  1  4  1  0  0  0  0
  2  4  2  0  0  0  0
  2  5  1  0  0  0  0
  3  7  2  0  0  0  0
  4  3  1  0  0  0  0
  5  8  2  0  0  0  0
  6  2  1  0  0  0  0
  7  9  1  0  0  0  0
  8  7  1  0  0  0  0
  9 10  1  0  0  0  0
 11 12  2  0  0  0  0
 13 11  1  0  0  0  0
 13 10  1  0  0  0  0
 14 11  1  0  0  0  0
 15 20  1  6  0  0  0
 15 19  1  0  0  0  0
 15 21  1  0  0  0  0
 15 16  1  0  0  0  0
 17 20  1  0  0  0  0
 17 18  1  0  0  0  0
 18 25  1  1  0  0  0
 18 22  1  0  0  0  0
 19 16  1  0  0  0  0
 21 24  1  6  0  0  0
 22 21  1  0  0  0  0
 22 14  1  6  0  0  0
 24 23  1  0  0  0  0
 25 26  1  0  0  0  0
 27  5  1  0  0  0  0
 28 27  1  0  0  0  0
 30 29  1  0  0  0  0
 30 28  1  0  0  0  0
 32 33  1  0  0  0  0
 32 31  1  0  0  0  0
 34 35  1  0  0  0  0
 34 33  1  0  0  0  0
 36 53  1  0  0  0  0
 36 35  2  0  0  0  0
 37 39  2  0  0  0  0
 38 39  1  0  0  0  0
 39 36  1  0  0  0  0
 40 38  1  0  0  0  0
 41 40  1  0  0  0  0
 42 43  1  1  0  0  0
 42 41  1  0  0  0  0
 42 44  1  0  0  0  0
 44 45  1  0  0  0  0
 45 46  1  0  0  0  0
 46 47  1  0  0  0  0
 47 48  1  0  0  0  0
 48 49  1  1  0  0  0
 48 50  1  0  0  0  0
 50 51  1  0  0  0  0
 51 52  1  0  0  0  0
 53 55  1  0  0  0  0
 54 53  2  0  0  0  0
 55 56  1  0  0  0  0
 58 59  1  0  0  0  0
 58 57  1  0  0  0  0
 59 57  1  0  0  0  0
 59 56  1  0  0  0  0
M  END
>  <MODEL>
1

>  <REMARK>
 VINA RESULT:      -5.2      0.000      0.000
  Name = 
  31 active torsions:
  status: ('A' for Active; 'I' for Inactive)
    1  A    between atoms: O_2  and  C_19
    2  A    between atoms: O_2  and  C_21
    3  A    between atoms: C_3  and  C_10
    4  A    between atoms: C_3  and  C_41
    5  A    between atoms: C_5  and  C_30
    6  A    between atoms: C_5  and  O_37
    7  A    between atoms: C_9  and  C_12
    8  A    between atoms: C_9  and  C_52
    9  A    between atoms: C_10  and  N_27
   10  A    between atoms: C_13  and  C_53
   11  A    between atoms: C_13  and  O_55
   12  A    between atoms: C_14  and  C_16
   13  A    between atoms: C_14  and  N_59
   14  A    between atoms: C_15  and  C_18
   15  A    between atoms: C_16  and  C_29
   16  A    between atoms: C_17  and  N_32
   17  A    between atoms: C_17  and  N_49
   18  A    between atoms: C_19  and  C_54
   19  A    between atoms: C_20  and  C_30
   20  A    between atoms: C_20  and  C_53
   21  A    between atoms: C_24  and  O_34
   22  A    between atoms: C_26  and  C_48
   23  A    between atoms: C_28  and  O_50
   24  A    between atoms: C_28  and  C_56
   25  A    between atoms: C_31  and  C_33
   26  A    between atoms: C_31  and  O_50
   27  A    between atoms: C_33  and  C_51
   28  A    between atoms: O_34  and  C_58
   29  A    between atoms: C_41  and  O_55
   30  A    between atoms: N_46  and  N_49
   31  A    between atoms: N_46  and  C_52
                            x       y       z     vdW  Elec       q    Type
                         _______ _______ _______ _____ _____    ______ ____

>  <TORSDO>
F 31

$$$$
=
 OpenBabel11042415423D

 59 62  0  0  1  0  0  0  0  0999 V2000
  196.6570  175.6500  141.6790 C   0  0  0  0  0  2  0  0  0  0  0  0
  195.5400  174.8780  143.8240 C   0  0  0  0  0  0  0  0  0  0  0  0
  196.4870  173.2490  142.2880 C   0  0  0  0  0  3  0  0  0  0  0  0
  196.2230  174.5770  142.6260 C   0  0  0  0  0  0  0  0  0  0  0  0
  195.1160  173.8330  144.6670 C   0  0  0  0  0  0  0  0  0  0  0  0
  195.2510  176.2970  144.2040 C   0  0  0  0  0  1  0  0  0  0  0  0
  196.0570  172.2070  143.1160 C   0  0  0  0  0  0  0  0  0  0  0  0
  195.3750  172.5020  144.3010 C   0  0  0  0  0  3  0  0  0  0  0  0
  196.3110  170.7820  142.7500 C   0  0  0  0  0  2  0  0  0  0  0  0
  196.6110  170.6640  141.2630 C   0  0  0  0  0  2  0  0  0  0  0  0
  194.8540  170.7800  139.4710 C   0  0  0  0  0  0  0  0  0  0  0  0
  195.2890  171.9050  139.1000 O   0  0  0  0  0  0  0  0  0  0  0  0
  195.4740  170.0920  140.5660 N   0  0  0  0  0  2  0  0  0  0  0  0
  193.7830  170.2050  138.7830 O   0  0  0  0  0  0  0  0  0  0  0  0
  190.8520  172.1740  137.5090 C   0  0  2  0  0  0  0  0  0  0  0  0
  190.7070  173.6010  137.8380 C   0  0  0  0  0  2  0  0  0  0  0  0
  190.1500  169.8470  138.1440 C   0  0  0  0  0  2  0  0  0  0  0  0
  191.4030  169.7420  139.0330 C   0  0  1  0  0  3  0  0  0  0  0  0
  190.5410  173.1200  136.5200 O   0  0  0  0  0  0  0  0  0  0  0  0
  189.6850  171.2910  137.9360 C   0  0  0  0  0  2  0  0  0  0  0  0
  192.2810  171.6410  137.4890 C   0  0  1  0  0  3  0  0  0  0  0  0
  192.4920  170.8040  138.7580 C   0  0  2  0  0  3  0  0  0  0  0  0
  193.3100  171.5630  135.3330 O   0  0  0  0  0  1  0  0  0  0  0  0
  192.5370  170.8230  136.2270 C   0  0  0  0  0  2  0  0  0  0  0  0
  191.0400  169.7010  140.5120 C   0  0  0  0  0  2  0  0  0  0  0  0
  190.9780  168.3830  140.9720 O   0  0  0  0  0  1  0  0  0  0  0  0
  194.4390  174.1360  145.8570 O   0  0  0  0  0  0  0  0  0  0  0  0
  193.0270  174.3050  145.9320 C   0  0  0  0  0  2  0  0  0  0  0  0
  193.5160  176.5080  146.9530 C   0  0  0  0  0  1  0  0  0  0  0  0
  192.6730  175.2530  147.0640 C   0  0  0  0  0  2  0  0  0  0  0  0
  195.9020  175.5480  140.3670 C   0  0  0  0  0  2  0  0  0  0  0  0
  194.4930  175.8050  140.6030 N   0  0  0  0  0  2  0  0  0  0  0  0
  193.7780  174.8050  139.9320 N   0  0  0  0  0  2  0  0  0  0  0  0
  192.9030  174.1840  140.9150 C   0  0  0  0  0  2  0  0  0  0  0  0
  192.6700  175.1020  142.0230 N   0  0  0  0  0  0  0  0  0  0  0  0
  191.4970  175.4250  142.4790 C   0  0  0  0  0  0  0  0  0  0  0  0
  189.9450  173.6500  142.0670 N   0  0  0  0  0  2  0  0  0  0  0  0
  189.3070  175.8080  141.3370 N   0  0  0  0  0  2  0  0  0  0  0  0
  190.2590  174.8900  141.8800 C   0  0  0  0  0  0  0  0  0  0  0  0
  187.9650  175.4120  140.9410 C   0  0  0  0  0  2  0  0  0  0  0  0
  186.9590  176.3300  141.6150 C   0  0  0  0  0  2  0  0  0  0  0  0
  187.1360  177.7770  141.1680 C   0  0  2  0  0  3  0  0  0  0  0  0
  188.1200  178.4030  141.9370 O   0  0  0  0  0  1  0  0  0  0  0  0
  185.9290  178.4780  141.2580 O   0  0  0  0  0  0  0  0  0  0  0  0
  185.0110  177.5480  141.7550 C   0  0  0  0  0  2  0  0  0  0  0  0
  184.1710  178.1950  142.8400 C   0  0  0  0  0  2  0  0  0  0  0  0
  185.0100  179.2150  143.5900 C   0  0  0  0  0  2  0  0  0  0  0  0
  185.7790  178.5450  144.7220 C   0  0  1  0  0  3  0  0  0  0  0  0
  186.3830  179.5140  145.5240 O   0  0  0  0  0  1  0  0  0  0  0  0
  184.8360  177.7110  145.5700 C   0  0  0  0  0  2  0  0  0  0  0  0
  185.3300  177.5970  146.8690 O   0  0  0  0  0  0  0  0  0  0  0  0
  184.5140  178.3800  147.6150 N   0  0  0  0  0  1  0  0  0  0  0  0
  191.4010  176.4140  143.5650 C   0  0  0  0  0  0  0  0  0  0  0  0
  192.2230  177.3700  143.6180 O   0  0  0  0  0  0  0  0  0  0  0  0
  190.4060  176.2830  144.5370 O   0  0  0  0  0  0  0  0  0  0  0  0
  190.1710  177.2980  145.5010 C   0  0  0  0  0  2  0  0  0  0  0  0
  188.9580  175.8820  147.1190 C   0  0  0  0  0  2  0  0  0  0  0  0
  188.3220  175.6910  145.7580 C   0  0  0  0  0  2  0  0  0  0  0  0
  188.8330  177.0550  146.1700 C   0  0  0  0  0  3  0  0  0  0  0  0
  1  4  1  0  0  0  0
  2  6  1  0  0  0  0
  2  5  1  0  0  0  0
  3  4  1  0  0  0  0
  3  7  2  0  0  0  0
  4  2  2  0  0  0  0
  5 27  1  0  0  0  0
  7  8  1  0  0  0  0
  8  5  2  0  0  0  0
  9  7  1  0  0  0  0
 10  9  1  0  0  0  0
 11 13  1  0  0  0  0
 12 11  2  0  0  0  0
 13 10  1  0  0  0  0
 14 11  1  0  0  0  0
 15 16  1  1  0  0  0
 15 20  1  0  0  0  0
 17 18  1  0  0  0  0
 18 25  1  1  0  0  0
 19 15  1  0  0  0  0
 19 16  1  0  0  0  0
 20 17  1  0  0  0  0
 21 24  1  6  0  0  0
 21 15  1  0  0  0  0
 21 22  1  0  0  0  0
 22 14  1  6  0  0  0
 22 18  1  0  0  0  0
 23 24  1  0  0  0  0
 25 26  1  0  0  0  0
 27 28  1  0  0  0  0
 28 30  1  0  0  0  0
 29 30  1  0  0  0  0
 31 32  1  0  0  0  0
 31  1  1  0  0  0  0
 33 32  1  0  0  0  0
 33 34  1  0  0  0  0
 34 35  1  0  0  0  0
 35 36  2  0  0  0  0
 36 53  1  0  0  0  0
 38 39  1  0  0  0  0
 39 37  2  0  0  0  0
 39 36  1  0  0  0  0
 40 38  1  0  0  0  0
 40 41  1  0  0  0  0
 42 44  1  0  0  0  0
 42 41  1  0  0  0  0
 42 43  1  1  0  0  0
 44 45  1  0  0  0  0
 45 46  1  0  0  0  0
 46 47  1  0  0  0  0
 47 48  1  0  0  0  0
 48 49  1  1  0  0  0
 48 50  1  0  0  0  0
 50 51  1  0  0  0  0
 51 52  1  0  0  0  0
 53 54  2  0  0  0  0
 53 55  1  0  0  0  0
 55 56  1  0  0  0  0
 56 59  1  0  0  0  0
 58 59  1  0  0  0  0
 58 57  1  0  0  0  0
 59 57  1  0  0  0  0
M  END
>  <MODEL>
2

>  <REMARK>
 VINA RESULT:      -5.0      2.466      9.792
  Name = 
  31 active torsions:
  status: ('A' for Active; 'I' for Inactive)
    1  A    between atoms: O_2  and  C_19
    2  A    between atoms: O_2  and  C_21
    3  A    between atoms: C_3  and  C_10
    4  A    between atoms: C_3  and  C_41
    5  A    between atoms: C_5  and  C_30
    6  A    between atoms: C_5  and  O_37
    7  A    between atoms: C_9  and  C_12
    8  A    between atoms: C_9  and  C_52
    9  A    between atoms: C_10  and  N_27
   10  A    between atoms: C_13  and  C_53
   11  A    between atoms: C_13  and  O_55
   12  A    between atoms: C_14  and  C_16
   13  A    between atoms: C_14  and  N_59
   14  A    between atoms: C_15  and  C_18
   15  A    between atoms: C_16  and  C_29
   16  A    between atoms: C_17  and  N_32
   17  A    between atoms: C_17  and  N_49
   18  A    between atoms: C_19  and  C_54
   19  A    between atoms: C_20  and  C_30
   20  A    between atoms: C_20  and  C_53
   21  A    between atoms: C_24  and  O_34
   22  A    between atoms: C_26  and  C_48
   23  A    between atoms: C_28  and  O_50
   24  A    between atoms: C_28  and  C_56
   25  A    between atoms: C_31  and  C_33
   26  A    between atoms: C_31  and  O_50
   27  A    between atoms: C_33  and  C_51
   28  A    between atoms: O_34  and  C_58
   29  A    between atoms: C_41  and  O_55
   30  A    between atoms: N_46  and  N_49
   31  A    between atoms: N_46  and  C_52
                            x       y       z     vdW  Elec       q    Type
                         _______ _______ _______ _____ _____    ______ ____

>  <TORSDO>
F 31

$$$$
=
 OpenBabel11042415423D

 59 62  0  0  1  0  0  0  0  0999 V2000
  187.0590  177.7430  141.6310 C   0  0  0  0  0  2  0  0  0  0  0  0
  184.5890  178.3300  141.6220 C   0  0  0  0  0  0  0  0  0  0  0  0
  185.8310  178.3120  143.7120 C   0  0  0  0  0  3  0  0  0  0  0  0
  185.7980  178.1450  142.3260 C   0  0  0  0  0  0  0  0  0  0  0  0
  183.4170  178.6710  142.3240 C   0  0  0  0  0  0  0  0  0  0  0  0
  184.5350  178.1570  140.1350 C   0  0  0  0  0  1  0  0  0  0  0  0
  184.6660  178.6390  144.4140 C   0  0  0  0  0  0  0  0  0  0  0  0
  183.4660  178.8180  143.7200 C   0  0  0  0  0  3  0  0  0  0  0  0
  184.6860  178.7940  145.9000 C   0  0  0  0  0  2  0  0  0  0  0  0
  185.4230  177.6290  146.5430 C   0  0  0  0  0  2  0  0  0  0  0  0
  187.8580  177.0650  146.2910 C   0  0  0  0  0  0  0  0  0  0  0  0
  187.5610  175.9650  145.7510 O   0  0  0  0  0  0  0  0  0  0  0  0
  186.8250  177.9610  146.7220 N   0  0  0  0  0  2  0  0  0  0  0  0
  189.2040  177.4080  146.4360 O   0  0  0  0  0  0  0  0  0  0  0  0
  191.7320  175.4680  144.4520 C   0  0  2  0  0  0  0  0  0  0  0  0
  191.4050  174.1360  143.9200 C   0  0  0  0  0  2  0  0  0  0  0  0
  192.8410  176.7020  146.3380 C   0  0  0  0  0  2  0  0  0  0  0  0
  191.4780  176.7810  147.0500 C   0  0  1  0  0  3  0  0  0  0  0  0
  192.0210  175.1260  143.1220 O   0  0  0  0  0  0  0  0  0  0  0  0
  192.9440  175.5150  145.3750 C   0  0  0  0  0  2  0  0  0  0  0  0
  190.5490  176.4100  144.6500 C   0  0  1  0  0  3  0  0  0  0  0  0
  190.2530  176.4880  146.1550 C   0  0  2  0  0  3  0  0  0  0  0  0
  190.4000  177.8440  142.7440 O   0  0  0  0  0  1  0  0  0  0  0  0
  190.8460  177.7860  144.0640 C   0  0  0  0  0  2  0  0  0  0  0  0
  191.4530  175.9230  148.3090 C   0  0  0  0  0  2  0  0  0  0  0  0
  191.7290  176.6960  149.4410 O   0  0  0  0  0  1  0  0  0  0  0  0
  182.2180  178.8560  141.6200 O   0  0  0  0  0  0  0  0  0  0  0  0
  181.2460  177.8290  141.4490 C   0  0  0  0  0  2  0  0  0  0  0  0
  179.5690  179.1160  142.7370 C   0  0  0  0  0  1  0  0  0  0  0  0
  179.8520  178.4300  141.4170 C   0  0  0  0  0  2  0  0  0  0  0  0
  187.0450  176.2620  141.3050 C   0  0  0  0  0  2  0  0  0  0  0  0
  187.9350  175.5610  142.2130 N   0  0  0  0  0  2  0  0  0  0  0  0
  188.9760  175.0340  141.4400 N   0  0  0  0  0  2  0  0  0  0  0  0
  188.9130  173.5880  141.5830 C   0  0  0  0  0  2  0  0  0  0  0  0
  188.8300  172.9630  140.2680 N   0  0  0  0  0  0  0  0  0  0  0  0
  189.6390  172.0400  139.8380 C   0  0  0  0  0  0  0  0  0  0  0  0
  190.5590  170.5800  141.4960 N   0  0  0  0  0  2  0  0  0  0  0  0
  192.0870  171.9600  140.3330 N   0  0  0  0  0  2  0  0  0  0  0  0
  190.7590  171.5470  140.6620 C   0  0  0  0  0  0  0  0  0  0  0  0
  193.2710  171.3560  140.9220 C   0  0  0  0  0  2  0  0  0  0  0  0
  193.7120  172.1910  142.1130 C   0  0  0  0  0  2  0  0  0  0  0  0
  195.0880  172.8060  141.8870 C   0  0  2  0  0  3  0  0  0  0  0  0
  196.0870  171.8560  142.1140 O   0  0  0  0  0  1  0  0  0  0  0  0
  195.2790  173.9190  142.7120 O   0  0  0  0  0  0  0  0  0  0  0  0
  195.0880  175.0220  141.8750 C   0  0  0  0  0  2  0  0  0  0  0  0
  195.5790  174.6890  140.4790 C   0  0  0  0  0  2  0  0  0  0  0  0
  196.5830  175.7370  140.0320 C   0  0  0  0  0  2  0  0  0  0  0  0
  197.4560  175.1940  138.9070 C   0  0  1  0  0  3  0  0  0  0  0  0
  197.9390  173.9300  139.2490 O   0  0  0  0  0  1  0  0  0  0  0  0
  196.6500  175.0900  137.6250 C   0  0  0  0  0  2  0  0  0  0  0  0
  197.4920  175.1840  136.5170 O   0  0  0  0  0  0  0  0  0  0  0  0
  197.1220  176.3360  135.9050 N   0  0  0  0  0  1  0  0  0  0  0  0
  189.4810  171.5380  138.4630 C   0  0  0  0  0  0  0  0  0  0  0  0
  189.4000  170.2970  138.2530 O   0  0  0  0  0  0  0  0  0  0  0  0
  189.4320  172.4400  137.3970 O   0  0  0  0  0  0  0  0  0  0  0  0
  190.5230  173.2960  137.0980 C   0  0  0  0  0  2  0  0  0  0  0  0
  189.6040  173.8960  134.8860 C   0  0  0  0  0  2  0  0  0  0  0  0
  189.7490  172.3890  134.9420 C   0  0  0  0  0  2  0  0  0  0  0  0
  190.7830  173.2750  135.6040 C   0  0  0  0  0  3  0  0  0  0  0  0
  1  4  1  0  0  0  0
  2  5  2  0  0  0  0
  2  4  1  0  0  0  0
  3  7  1  0  0  0  0
  4  3  2  0  0  0  0
  5  8  1  0  0  0  0
  6  2  1  0  0  0  0
  7  9  1  0  0  0  0
  8  7  2  0  0  0  0
  9 10  1  0  0  0  0
 10 13  1  0  0  0  0
 11 14  1  0  0  0  0
 11 13  1  0  0  0  0
 12 11  2  0  0  0  0
 15 16  1  1  0  0  0
 15 21  1  0  0  0  0
 15 20  1  0  0  0  0
 17 18  1  0  0  0  0
 18 25  1  1  0  0  0
 19 16  1  0  0  0  0
 19 15  1  0  0  0  0
 20 17  1  0  0  0  0
 21 24  1  1  0  0  0
 21 22  1  0  0  0  0
 22 14  1  6  0  0  0
 22 18  1  0  0  0  0
 23 24  1  0  0  0  0
 25 26  1  0  0  0  0
 27  5  1  0  0  0  0
 28 27  1  0  0  0  0
 30 28  1  0  0  0  0
 30 29  1  0  0  0  0
 31  1  1  0  0  0  0
 31 32  1  0  0  0  0
 33 34  1  0  0  0  0
 33 32  1  0  0  0  0
 35 34  1  0  0  0  0
 36 35  2  0  0  0  0
 36 39  1  0  0  0  0
 38 39  1  0  0  0  0
 38 40  1  0  0  0  0
 39 37  2  0  0  0  0
 40 41  1  0  0  0  0
 42 41  1  0  0  0  0
 42 43  1  1  0  0  0
 42 44  1  0  0  0  0
 45 44  1  0  0  0  0
 46 45  1  0  0  0  0
 47 46  1  0  0  0  0
 48 49  1  1  0  0  0
 48 47  1  0  0  0  0
 50 48  1  0  0  0  0
 51 50  1  0  0  0  0
 52 51  1  0  0  0  0
 53 36  1  0  0  0  0
 54 53  2  0  0  0  0
 55 53  1  0  0  0  0
 56 55  1  0  0  0  0
 57 58  1  0  0  0  0
 57 59  1  0  0  0  0
 58 59  1  0  0  0  0
 59 56  1  0  0  0  0
M  END
>  <MODEL>
3

>  <REMARK>
 VINA RESULT:      -4.9      2.089      3.817
  Name = 
  31 active torsions:
  status: ('A' for Active; 'I' for Inactive)
    1  A    between atoms: O_2  and  C_19
    2  A    between atoms: O_2  and  C_21
    3  A    between atoms: C_3  and  C_10
    4  A    between atoms: C_3  and  C_41
    5  A    between atoms: C_5  and  C_30
    6  A    between atoms: C_5  and  O_37
    7  A    between atoms: C_9  and  C_12
    8  A    between atoms: C_9  and  C_52
    9  A    between atoms: C_10  and  N_27
   10  A    between atoms: C_13  and  C_53
   11  A    between atoms: C_13  and  O_55
   12  A    between atoms: C_14  and  C_16
   13  A    between atoms: C_14  and  N_59
   14  A    between atoms: C_15  and  C_18
   15  A    between atoms: C_16  and  C_29
   16  A    between atoms: C_17  and  N_32
   17  A    between atoms: C_17  and  N_49
   18  A    between atoms: C_19  and  C_54
   19  A    between atoms: C_20  and  C_30
   20  A    between atoms: C_20  and  C_53
   21  A    between atoms: C_24  and  O_34
   22  A    between atoms: C_26  and  C_48
   23  A    between atoms: C_28  and  O_50
   24  A    between atoms: C_28  and  C_56
   25  A    between atoms: C_31  and  C_33
   26  A    between atoms: C_31  and  O_50
   27  A    between atoms: C_33  and  C_51
   28  A    between atoms: O_34  and  C_58
   29  A    between atoms: C_41  and  O_55
   30  A    between atoms: N_46  and  N_49
   31  A    between atoms: N_46  and  C_52
                            x       y       z     vdW  Elec       q    Type
                         _______ _______ _______ _____ _____    ______ ____

>  <TORSDO>
F 31

$$$$
=
 OpenBabel11042415423D

 59 62  0  0  1  0  0  0  0  0999 V2000
  195.6060  175.5950  142.8270 C   0  0  0  0  0  2  0  0  0  0  0  0
  194.3490  175.5400  145.0330 C   0  0  0  0  0  0  0  0  0  0  0  0
  194.6630  173.4940  143.7560 C   0  0  0  0  0  3  0  0  0  0  0  0
  194.8640  174.8680  143.9030 C   0  0  0  0  0  0  0  0  0  0  0  0
  193.6230  174.8210  146.0010 C   0  0  0  0  0  0  0  0  0  0  0  0
  194.5570  177.0120  145.2080 C   0  0  0  0  0  1  0  0  0  0  0  0
  193.9330  172.7790  144.7100 C   0  0  0  0  0  0  0  0  0  0  0  0
  193.4170  173.4430  145.8270 C   0  0  0  0  0  3  0  0  0  0  0  0
  193.6900  171.3140  144.5480 C   0  0  0  0  0  2  0  0  0  0  0  0
  194.5690  170.7520  143.4410 C   0  0  0  0  0  2  0  0  0  0  0  0
  193.8720  170.5690  141.0350 C   0  0  0  0  0  0  0  0  0  0  0  0
  194.7000  171.4650  140.7130 O   0  0  0  0  0  0  0  0  0  0  0  0
  193.7470  170.1580  142.4020 N   0  0  0  0  0  2  0  0  0  0  0  0
  193.1030  169.9670  140.0360 O   0  0  0  0  0  0  0  0  0  0  0  0
  191.5320  171.2730  136.8870 C   0  0  2  0  0  0  0  0  0  0  0  0
  192.0180  172.5160  136.2670 C   0  0  0  0  0  2  0  0  0  0  0  0
  189.7900  170.2910  138.4070 C   0  0  0  0  0  2  0  0  0  0  0  0
  190.7600  170.4700  139.5890 C   0  0  1  0  0  3  0  0  0  0  0  0
  191.7870  171.3460  135.5090 O   0  0  0  0  0  0  0  0  0  0  0  0
  190.0550  171.2740  137.2620 C   0  0  0  0  0  2  0  0  0  0  0  0
  192.5570  170.5000  137.7100 C   0  0  1  0  0  3  0  0  0  0  0  0
  192.2340  170.7170  139.1950 C   0  0  2  0  0  3  0  0  0  0  0  0
  193.5230  168.7600  136.3860 O   0  0  0  0  0  1  0  0  0  0  0  0
  192.5420  169.0200  137.3430 C   0  0  0  0  0  2  0  0  0  0  0  0
  190.2680  171.5350  140.5620 C   0  0  0  0  0  2  0  0  0  0  0  0
  190.1370  171.0080  141.8490 O   0  0  0  0  0  1  0  0  0  0  0  0
  193.1150  175.4910  147.1230 O   0  0  0  0  0  0  0  0  0  0  0  0
  192.0960  176.4830  147.0460 C   0  0  0  0  0  2  0  0  0  0  0  0
  191.6420  177.7440  149.1280 C   0  0  0  0  0  1  0  0  0  0  0  0
  191.2890  176.5050  148.3320 C   0  0  0  0  0  2  0  0  0  0  0  0
  194.7420  175.7550  141.5910 C   0  0  0  0  0  2  0  0  0  0  0  0
  193.3650  175.9780  141.9920 N   0  0  0  0  0  2  0  0  0  0  0  0
  192.5760  175.0840  141.2580 N   0  0  0  0  0  2  0  0  0  0  0  0
  191.5730  174.5610  142.1730 C   0  0  0  0  0  2  0  0  0  0  0  0
  191.2740  175.5510  143.2010 N   0  0  0  0  0  0  0  0  0  0  0  0
  190.1050  176.0850  143.3920 C   0  0  0  0  0  0  0  0  0  0  0  0
  188.7070  174.4990  142.2700 N   0  0  0  0  0  2  0  0  0  0  0  0
  187.9730  176.7470  142.2680 N   0  0  0  0  0  2  0  0  0  0  0  0
  188.9480  175.7390  142.5440 C   0  0  0  0  0  0  0  0  0  0  0  0
  186.6890  176.4570  141.6490 C   0  0  0  0  0  2  0  0  0  0  0  0
  185.5880  177.1200  142.4590 C   0  0  0  0  0  2  0  0  0  0  0  0
  185.5000  178.6130  142.1670 C   0  0  2  0  0  3  0  0  0  0  0  0
  186.2070  179.3380  143.1300 O   0  0  0  0  0  1  0  0  0  0  0  0
  184.1670  179.0350  142.1220 O   0  0  0  0  0  0  0  0  0  0  0  0
  183.4290  177.8680  141.9050 C   0  0  0  0  0  2  0  0  0  0  0  0
  182.2520  178.1740  140.9990 C   0  0  0  0  0  2  0  0  0  0  0  0
  181.1930  178.9310  141.7800 C   0  0  0  0  0  2  0  0  0  0  0  0
  179.8030  178.4110  141.4370 C   0  0  1  0  0  3  0  0  0  0  0  0
  179.1570  177.9810  142.5960 O   0  0  0  0  0  1  0  0  0  0  0  0
  178.9810  179.5090  140.7850 C   0  0  0  0  0  2  0  0  0  0  0  0
  178.8430  179.2610  139.4200 O   0  0  0  0  0  0  0  0  0  0  0  0
  178.8500  177.9100  139.3160 N   0  0  0  0  0  1  0  0  0  0  0  0
  189.9540  177.1210  144.4260 C   0  0  0  0  0  0  0  0  0  0  0  0
  190.6190  178.1900  144.3450 O   0  0  0  0  0  0  0  0  0  0  0  0
  189.0830  176.9110  145.4980 O   0  0  0  0  0  0  0  0  0  0  0  0
  187.8490  177.6050  145.5990 C   0  0  0  0  0  2  0  0  0  0  0  0
  186.2140  176.7810  147.2550 C   0  0  0  0  0  2  0  0  0  0  0  0
  186.0450  178.2810  147.1340 C   0  0  0  0  0  2  0  0  0  0  0  0
  187.4260  177.6660  147.0540 C   0  0  0  0  0  3  0  0  0  0  0  0
  1  4  1  0  0  0  0
  2  6  1  0  0  0  0
  2  5  1  0  0  0  0
  3  4  1  0  0  0  0
  3  7  2  0  0  0  0
  4  2  2  0  0  0  0
  5 27  1  0  0  0  0
  7  8  1  0  0  0  0
  8  5  2  0  0  0  0
  9  7  1  0  0  0  0
 10  9  1  0  0  0  0
 11 13  1  0  0  0  0
 12 11  2  0  0  0  0
 13 10  1  0  0  0  0
 14 11  1  0  0  0  0
 15 16  1  1  0  0  0
 15 20  1  0  0  0  0
 15 21  1  0  0  0  0
 17 18  1  0  0  0  0
 18 25  1  6  0  0  0
 19 16  1  0  0  0  0
 19 15  1  0  0  0  0
 20 17  1  0  0  0  0
 21 24  1  6  0  0  0
 21 22  1  0  0  0  0
 22 18  1  0  0  0  0
 22 14  1  1  0  0  0
 23 24  1  0  0  0  0
 25 26  1  0  0  0  0
 28 27  1  0  0  0  0
 28 30  1  0  0  0  0
 30 29  1  0  0  0  0
 31 32  1  0  0  0  0
 31  1  1  0  0  0  0
 33 32  1  0  0  0  0
 33 34  1  0  0  0  0
 34 35  1  0  0  0  0
 35 36  2  0  0  0  0
 36 53  1  0  0  0  0
 37 39  2  0  0  0  0
 38 39  1  0  0  0  0
 39 36  1  0  0  0  0
 40 38  1  0  0  0  0
 40 41  1  0  0  0  0
 42 41  1  0  0  0  0
 42 43  1  1  0  0  0
 44 42  1  0  0  0  0
 45 44  1  0  0  0  0
 46 47  1  0  0  0  0
 46 45  1  0  0  0  0
 48 47  1  0  0  0  0
 48 49  1  1  0  0  0
 50 48  1  0  0  0  0
 51 50  1  0  0  0  0
 52 51  1  0  0  0  0
 53 55  1  0  0  0  0
 54 53  2  0  0  0  0
 55 56  1  0  0  0  0
 56 59  1  0  0  0  0
 58 57  1  0  0  0  0
 59 58  1  0  0  0  0
 59 57  1  0  0  0  0
M  END
>  <MODEL>
4

>  <REMARK>
 VINA RESULT:      -4.8      2.656     10.490
  Name = 
  31 active torsions:
  status: ('A' for Active; 'I' for Inactive)
    1  A    between atoms: O_2  and  C_19
    2  A    between atoms: O_2  and  C_21
    3  A    between atoms: C_3  and  C_10
    4  A    between atoms: C_3  and  C_41
    5  A    between atoms: C_5  and  C_30
    6  A    between atoms: C_5  and  O_37
    7  A    between atoms: C_9  and  C_12
    8  A    between atoms: C_9  and  C_52
    9  A    between atoms: C_10  and  N_27
   10  A    between atoms: C_13  and  C_53
   11  A    between atoms: C_13  and  O_55
   12  A    between atoms: C_14  and  C_16
   13  A    between atoms: C_14  and  N_59
   14  A    between atoms: C_15  and  C_18
   15  A    between atoms: C_16  and  C_29
   16  A    between atoms: C_17  and  N_32
   17  A    between atoms: C_17  and  N_49
   18  A    between atoms: C_19  and  C_54
   19  A    between atoms: C_20  and  C_30
   20  A    between atoms: C_20  and  C_53
   21  A    between atoms: C_24  and  O_34
   22  A    between atoms: C_26  and  C_48
   23  A    between atoms: C_28  and  O_50
   24  A    between atoms: C_28  and  C_56
   25  A    between atoms: C_31  and  C_33
   26  A    between atoms: C_31  and  O_50
   27  A    between atoms: C_33  and  C_51
   28  A    between atoms: O_34  and  C_58
   29  A    between atoms: C_41  and  O_55
   30  A    between atoms: N_46  and  N_49
   31  A    between atoms: N_46  and  C_52
                            x       y       z     vdW  Elec       q    Type
                         _______ _______ _______ _____ _____    ______ ____

>  <TORSDO>
F 31

$$$$
=
 OpenBabel11042415423D

 59 62  0  0  1  0  0  0  0  0999 V2000
  190.6730  172.2680  142.8830 C   0  0  0  0  0  2  0  0  0  0  0  0
  192.9330  171.2000  143.3240 C   0  0  0  0  0  0  0  0  0  0  0  0
  192.7400  173.6170  143.1530 C   0  0  0  0  0  3  0  0  0  0  0  0
  192.1440  172.3550  143.1350 C   0  0  0  0  0  0  0  0  0  0  0  0
  194.3210  171.3270  143.5190 C   0  0  0  0  0  0  0  0  0  0  0  0
  192.3110  169.8380  143.3100 C   0  0  0  0  0  1  0  0  0  0  0  0
  194.1200  173.7470  143.3340 C   0  0  0  0  0  0  0  0  0  0  0  0
  194.9040  172.6050  143.5180 C   0  0  0  0  0  3  0  0  0  0  0  0
  194.7700  175.0920  143.3300 C   0  0  0  0  0  2  0  0  0  0  0  0
  195.5270  175.3070  142.0280 C   0  0  0  0  0  2  0  0  0  0  0  0
  195.2310  174.9330  139.5620 C   0  0  0  0  0  0  0  0  0  0  0  0
  196.3710  175.4250  139.3370 O   0  0  0  0  0  0  0  0  0  0  0  0
  194.7350  174.8440  140.9040 N   0  0  0  0  0  2  0  0  0  0  0  0
  194.4760  174.4520  138.4890 O   0  0  0  0  0  0  0  0  0  0  0  0
  192.6570  171.1890  138.1170 C   0  0  2  0  0  0  0  0  0  0  0  0
  192.4790  170.2940  139.2720 C   0  0  0  0  0  2  0  0  0  0  0  0
  194.0660  171.6570  136.0910 C   0  0  0  0  0  2  0  0  0  0  0  0
  194.9130  172.6250  136.9370 C   0  0  1  0  0  3  0  0  0  0  0  0
  191.4100  170.6150  138.4050 O   0  0  0  0  0  0  0  0  0  0  0  0
  193.3830  170.5710  136.9270 C   0  0  0  0  0  2  0  0  0  0  0  0
  192.7950  172.6730  138.4450 C   0  0  1  0  0  3  0  0  0  0  0  0
  194.2700  173.0600  138.2730 C   0  0  2  0  0  3  0  0  0  0  0  0
  190.6780  173.7550  138.2030 O   0  0  0  0  0  1  0  0  0  0  0  0
  191.8870  173.5110  137.5520 C   0  0  0  0  0  2  0  0  0  0  0  0
  196.3230  172.0890  137.1580 C   0  0  0  0  0  2  0  0  0  0  0  0
  197.2510  172.8110  136.4020 O   0  0  0  0  0  1  0  0  0  0  0  0
  195.1010  170.1770  143.7100 O   0  0  0  0  0  0  0  0  0  0  0  0
  196.4980  170.2180  143.9880 C   0  0  0  0  0  2  0  0  0  0  0  0
  196.2010  169.3760  146.2980 C   0  0  0  0  0  1  0  0  0  0  0  0
  196.7290  170.5210  145.4580 C   0  0  0  0  0  2  0  0  0  0  0  0
  190.3420  172.7030  141.4670 C   0  0  0  0  0  2  0  0  0  0  0  0
  188.9010  172.7230  141.2950 N   0  0  0  0  0  2  0  0  0  0  0  0
  188.4040  173.7310  142.1290 N   0  0  0  0  0  2  0  0  0  0  0  0
  188.8030  174.9990  141.5390 C   0  0  0  0  0  2  0  0  0  0  0  0
  189.7460  175.6820  142.4180 N   0  0  0  0  0  0  0  0  0  0  0  0
  189.5950  176.8950  142.8600 C   0  0  0  0  0  0  0  0  0  0  0  0
  188.2050  177.9630  141.2300 N   0  0  0  0  0  2  0  0  0  0  0  0
  187.4390  178.0020  143.4670 N   0  0  0  0  0  2  0  0  0  0  0  0
  188.4320  177.7190  142.4790 C   0  0  0  0  0  0  0  0  0  0  0  0
  186.1510  178.5970  143.1450 C   0  0  0  0  0  2  0  0  0  0  0  0
  185.1360  177.4880  142.9210 C   0  0  0  0  0  2  0  0  0  0  0  0
  184.2670  177.7640  141.7000 C   0  0  2  0  0  3  0  0  0  0  0  0
  184.8850  178.7020  140.8680 O   0  0  0  0  0  1  0  0  0  0  0  0
  182.9980  178.2140  142.0820 O   0  0  0  0  0  0  0  0  0  0  0  0
  182.2620  178.2580  140.8940 C   0  0  0  0  0  2  0  0  0  0  0  0
  181.0780  179.1900  141.0670 C   0  0  0  0  0  2  0  0  0  0  0  0
  179.8850  178.6420  140.3030 C   0  0  0  0  0  2  0  0  0  0  0  0
  179.0790  177.6940  141.1830 C   0  0  1  0  0  3  0  0  0  0  0  0
  178.5750  178.3830  142.2860 O   0  0  0  0  0  1  0  0  0  0  0  0
  177.9250  177.1040  140.3920 C   0  0  0  0  0  2  0  0  0  0  0  0
  177.6940  177.8580  139.2420 O   0  0  0  0  0  0  0  0  0  0  0  0
  177.7950  176.9670  138.2250 N   0  0  0  0  0  1  0  0  0  0  0  0
  190.6550  177.4870  143.6910 C   0  0  0  0  0  0  0  0  0  0  0  0
  190.9750  178.6970  143.5340 O   0  0  0  0  0  0  0  0  0  0  0  0
  191.3090  176.7020  144.6450 O   0  0  0  0  0  0  0  0  0  0  0  0
  190.9890  176.7880  146.0240 C   0  0  0  0  0  2  0  0  0  0  0  0
  191.4520  175.5540  148.1120 C   0  0  0  0  0  2  0  0  0  0  0  0
  192.5130  175.1790  147.0980 C   0  0  0  0  0  2  0  0  0  0  0  0
  191.0860  175.4110  146.6500 C   0  0  0  0  0  3  0  0  0  0  0  0
  1  4  1  0  0  0  0
  2  5  1  0  0  0  0
  3  7  2  0  0  0  0
  4  3  1  0  0  0  0
  4  2  2  0  0  0  0
  5 27  1  0  0  0  0
  6  2  1  0  0  0  0
  7  8  1  0  0  0  0
  8  5  2  0  0  0  0
  9  7  1  0  0  0  0
 10  9  1  0  0  0  0
 11 13  1  0  0  0  0
 12 11  2  0  0  0  0
 13 10  1  0  0  0  0
 14 11  1  0  0  0  0
 15 20  1  6  0  0  0
 15 19  1  0  0  0  0
 15 21  1  0  0  0  0
 15 16  1  0  0  0  0
 17 20  1  0  0  0  0
 17 18  1  0  0  0  0
 18 25  1  1  0  0  0
 18 22  1  0  0  0  0
 19 16  1  0  0  0  0
 21 24  1  6  0  0  0
 22 21  1  0  0  0  0
 22 14  1  6  0  0  0
 24 23  1  0  0  0  0
 26 25  1  0  0  0  0
 27 28  1  0  0  0  0
 28 30  1  0  0  0  0
 30 29  1  0  0  0  0
 31  1  1  0  0  0  0
 32 31  1  0  0  0  0
 32 33  1  0  0  0  0
 34 33  1  0  0  0  0
 34 35  1  0  0  0  0
 35 36  2  0  0  0  0
 36 53  1  0  0  0  0
 37 39  2  0  0  0  0
 39 36  1  0  0  0  0
 39 38  1  0  0  0  0
 40 38  1  0  0  0  0
 41 40  1  0  0  0  0
 42 43  1  6  0  0  0
 42 44  1  0  0  0  0
 42 41  1  0  0  0  0
 45 46  1  0  0  0  0
 45 44  1  0  0  0  0
 47 46  1  0  0  0  0
 47 48  1  0  0  0  0
 48 49  1  1  0  0  0
 50 48  1  0  0  0  0
 51 50  1  0  0  0  0
 52 51  1  0  0  0  0
 53 55  1  0  0  0  0
 54 53  2  0  0  0  0
 55 56  1  0  0  0  0
 56 59  1  0  0  0  0
 58 57  1  0  0  0  0
 59 58  1  0  0  0  0
 59 57  1  0  0  0  0
M  END
>  <MODEL>
5

>  <REMARK>
 VINA RESULT:      -4.7      2.695     10.968
  Name = 
  31 active torsions:
  status: ('A' for Active; 'I' for Inactive)
    1  A    between atoms: O_2  and  C_19
    2  A    between atoms: O_2  and  C_21
    3  A    between atoms: C_3  and  C_10
    4  A    between atoms: C_3  and  C_41
    5  A    between atoms: C_5  and  C_30
    6  A    between atoms: C_5  and  O_37
    7  A    between atoms: C_9  and  C_12
    8  A    between atoms: C_9  and  C_52
    9  A    between atoms: C_10  and  N_27
   10  A    between atoms: C_13  and  C_53
   11  A    between atoms: C_13  and  O_55
   12  A    between atoms: C_14  and  C_16
   13  A    between atoms: C_14  and  N_59
   14  A    between atoms: C_15  and  C_18
   15  A    between atoms: C_16  and  C_29
   16  A    between atoms: C_17  and  N_32
   17  A    between atoms: C_17  and  N_49
   18  A    between atoms: C_19  and  C_54
   19  A    between atoms: C_20  and  C_30
   20  A    between atoms: C_20  and  C_53
   21  A    between atoms: C_24  and  O_34
   22  A    between atoms: C_26  and  C_48
   23  A    between atoms: C_28  and  O_50
   24  A    between atoms: C_28  and  C_56
   25  A    between atoms: C_31  and  C_33
   26  A    between atoms: C_31  and  O_50
   27  A    between atoms: C_33  and  C_51
   28  A    between atoms: O_34  and  C_58
   29  A    between atoms: C_41  and  O_55
   30  A    between atoms: N_46  and  N_49
   31  A    between atoms: N_46  and  C_52
                            x       y       z     vdW  Elec       q    Type
                         _______ _______ _______ _____ _____    ______ ____

>  <TORSDO>
F 31

$$$$
=
 OpenBabel11042415423D

 59 62  0  0  1  0  0  0  0  0999 V2000
  193.4480  175.3530  144.7020 C   0  0  0  0  0  2  0  0  0  0  0  0
  195.0090  173.3620  144.4930 C   0  0  0  0  0  0  0  0  0  0  0  0
  195.4940  175.4230  143.2970 C   0  0  0  0  0  3  0  0  0  0  0  0
  194.6780  174.6940  144.1650 C   0  0  0  0  0  0  0  0  0  0  0  0
  196.1560  172.7700  143.9320 C   0  0  0  0  0  0  0  0  0  0  0  0
  194.1470  172.5660  145.4230 C   0  0  0  0  0  1  0  0  0  0  0  0
  196.6280  174.8350  142.7290 C   0  0  0  0  0  0  0  0  0  0  0  0
  196.9550  173.5130  143.0470 C   0  0  0  0  0  3  0  0  0  0  0  0
  197.4920  175.5970  141.7790 C   0  0  0  0  0  2  0  0  0  0  0  0
  196.7820  175.7750  140.4450 C   0  0  0  0  0  2  0  0  0  0  0  0
  194.9760  174.2640  139.5690 C   0  0  0  0  0  0  0  0  0  0  0  0
  194.1260  175.1880  139.6910 O   0  0  0  0  0  0  0  0  0  0  0  0
  196.3440  174.4880  139.9350 N   0  0  0  0  0  2  0  0  0  0  0  0
  194.5710  173.0340  139.0460 O   0  0  0  0  0  0  0  0  0  0  0  0
  191.2870  172.6060  137.2780 C   0  0  2  0  0  0  0  0  0  0  0  0
  190.2800  173.6780  137.2970 C   0  0  0  0  0  2  0  0  0  0  0  0
  192.0030  170.4530  138.3550 C   0  0  0  0  0  2  0  0  0  0  0  0
  192.9190  171.2590  139.2940 C   0  0  1  0  0  3  0  0  0  0  0  0
  190.6380  173.0140  136.1030 O   0  0  0  0  0  0  0  0  0  0  0  0
  190.8160  171.2670  137.8340 C   0  0  0  0  0  2  0  0  0  0  0  0
  192.7370  173.0570  137.4240 C   0  0  1  0  0  3  0  0  0  0  0  0
  193.1990  172.7120  138.8470 C   0  0  2  0  0  3  0  0  0  0  0  0
  194.4190  173.3560  135.7530 O   0  0  0  0  0  1  0  0  0  0  0  0
  193.6200  172.3950  136.3710 C   0  0  0  0  0  2  0  0  0  0  0  0
  192.4230  171.2170  140.7340 C   0  0  0  0  0  2  0  0  0  0  0  0
  191.9230  169.9500  141.0490 O   0  0  0  0  0  1  0  0  0  0  0  0
  196.4840  171.4470  144.2620 O   0  0  0  0  0  0  0  0  0  0  0  0
  197.7120  171.0770  144.8810 C   0  0  0  0  0  2  0  0  0  0  0  0
  196.4480  169.8280  146.6050 C   0  0  0  0  0  1  0  0  0  0  0  0
  197.5620  169.7380  145.5820 C   0  0  0  0  0  2  0  0  0  0  0  0
  192.9140  176.3790  143.7220 C   0  0  0  0  0  2  0  0  0  0  0  0
  192.3500  175.6970  142.5710 N   0  0  0  0  0  2  0  0  0  0  0  0
  190.9590  175.7130  142.7280 N   0  0  0  0  0  2  0  0  0  0  0  0
  190.6170  177.0040  143.3040 C   0  0  0  0  0  2  0  0  0  0  0  0
  189.9440  176.8150  144.5840 N   0  0  0  0  0  0  0  0  0  0  0  0
  188.6570  176.7030  144.7300 C   0  0  0  0  0  0  0  0  0  0  0  0
  186.9140  175.8130  143.3520 N   0  0  0  0  0  2  0  0  0  0  0  0
  187.5880  178.0350  142.9060 N   0  0  0  0  0  2  0  0  0  0  0  0
  187.7370  176.7830  143.5790 C   0  0  0  0  0  0  0  0  0  0  0  0
  186.5450  178.2840  141.9220 C   0  0  0  0  0  2  0  0  0  0  0  0
  185.2600  177.6170  142.3830 C   0  0  0  0  0  2  0  0  0  0  0  0
  184.0330  178.4220  141.9720 C   0  0  2  0  0  3  0  0  0  0  0  0
  183.2610  178.7360  143.0940 O   0  0  0  0  0  1  0  0  0  0  0  0
  183.2670  177.7210  141.0350 O   0  0  0  0  0  0  0  0  0  0  0  0
  182.2450  178.6040  140.6750 C   0  0  0  0  0  2  0  0  0  0  0  0
  180.9380  178.1430  141.2900 C   0  0  0  0  0  2  0  0  0  0  0  0
  180.0370  179.3420  141.5270 C   0  0  0  0  0  2  0  0  0  0  0  0
  179.4480  179.8350  140.2110 C   0  0  1  0  0  3  0  0  0  0  0  0
  178.1370  179.3760  140.0760 O   0  0  0  0  0  1  0  0  0  0  0  0
  179.4510  181.3530  140.1740 C   0  0  0  0  0  2  0  0  0  0  0  0
  179.4870  181.8030  138.8550 O   0  0  0  0  0  0  0  0  0  0  0  0
  178.9800  183.0580  138.9090 N   0  0  0  0  0  1  0  0  0  0  0  0
  188.1020  176.5780  146.0880 C   0  0  0  0  0  0  0  0  0  0  0  0
  188.2700  175.5110  146.7390 O   0  0  0  0  0  0  0  0  0  0  0  0
  187.3830  177.6400  146.6440 O   0  0  0  0  0  0  0  0  0  0  0  0
  186.3820  177.4240  147.6260 C   0  0  0  0  0  2  0  0  0  0  0  0
  184.6340  177.7710  145.9170 C   0  0  0  0  0  2  0  0  0  0  0  0
  185.4400  179.0480  146.0310 C   0  0  0  0  0  2  0  0  0  0  0  0
  185.1460  178.2260  147.2680 C   0  0  0  0  0  3  0  0  0  0  0  0
  2  6  1  0  0  0  0
  3  4  2  0  0  0  0
  4  2  1  0  0  0  0
  4  1  1  0  0  0  0
  5 27  1  0  0  0  0
  5  2  2  0  0  0  0
  7  8  2  0  0  0  0
  7  3  1  0  0  0  0
  8  5  1  0  0  0  0
  9  7  1  0  0  0  0
 10  9  1  0  0  0  0
 11 12  2  0  0  0  0
 11 13  1  0  0  0  0
 13 10  1  0  0  0  0
 14 11  1  0  0  0  0
 15 16  1  1  0  0  0
 15 21  1  0  0  0  0
 15 20  1  0  0  0  0
 17 18  1  0  0  0  0
 18 25  1  1  0  0  0
 19 15  1  0  0  0  0
 19 16  1  0  0  0  0
 20 17  1  0  0  0  0
 21 24  1  6  0  0  0
 21 22  1  0  0  0  0
 22 14  1  6  0  0  0
 22 18  1  0  0  0  0
 23 24  1  0  0  0  0
 25 26  1  0  0  0  0
 27 28  1  0  0  0  0
 28 30  1  0  0  0  0
 30 29  1  0  0  0  0
 31  1  1  0  0  0  0
 32 33  1  0  0  0  0
 32 31  1  0  0  0  0
 33 34  1  0  0  0  0
 34 35  1  0  0  0  0
 35 36  2  0  0  0  0
 36 53  1  0  0  0  0
 37 39  2  0  0  0  0
 38 39  1  0  0  0  0
 39 36  1  0  0  0  0
 40 41  1  0  0  0  0
 40 38  1  0  0  0  0
 42 41  1  0  0  0  0
 42 43  1  1  0  0  0
 44 42  1  0  0  0  0
 45 44  1  0  0  0  0
 45 46  1  0  0  0  0
 46 47  1  0  0  0  0
 48 49  1  1  0  0  0
 48 47  1  0  0  0  0
 50 48  1  0  0  0  0
 51 52  1  0  0  0  0
 51 50  1  0  0  0  0
 53 55  1  0  0  0  0
 53 54  2  0  0  0  0
 55 56  1  0  0  0  0
 57 58  1  0  0  0  0
 57 59  1  0  0  0  0
 58 59  1  0  0  0  0
 59 56  1  0  0  0  0
M  END
>  <MODEL>
6

>  <REMARK>
 VINA RESULT:      -4.7      2.803     11.639
  Name = 
  31 active torsions:
  status: ('A' for Active; 'I' for Inactive)
    1  A    between atoms: O_2  and  C_19
    2  A    between atoms: O_2  and  C_21
    3  A    between atoms: C_3  and  C_10
    4  A    between atoms: C_3  and  C_41
    5  A    between atoms: C_5  and  C_30
    6  A    between atoms: C_5  and  O_37
    7  A    between atoms: C_9  and  C_12
    8  A    between atoms: C_9  and  C_52
    9  A    between atoms: C_10  and  N_27
   10  A    between atoms: C_13  and  C_53
   11  A    between atoms: C_13  and  O_55
   12  A    between atoms: C_14  and  C_16
   13  A    between atoms: C_14  and  N_59
   14  A    between atoms: C_15  and  C_18
   15  A    between atoms: C_16  and  C_29
   16  A    between atoms: C_17  and  N_32
   17  A    between atoms: C_17  and  N_49
   18  A    between atoms: C_19  and  C_54
   19  A    between atoms: C_20  and  C_30
   20  A    between atoms: C_20  and  C_53
   21  A    between atoms: C_24  and  O_34
   22  A    between atoms: C_26  and  C_48
   23  A    between atoms: C_28  and  O_50
   24  A    between atoms: C_28  and  C_56
   25  A    between atoms: C_31  and  C_33
   26  A    between atoms: C_31  and  O_50
   27  A    between atoms: C_33  and  C_51
   28  A    between atoms: O_34  and  C_58
   29  A    between atoms: C_41  and  O_55
   30  A    between atoms: N_46  and  N_49
   31  A    between atoms: N_46  and  C_52
                            x       y       z     vdW  Elec       q    Type
                         _______ _______ _______ _____ _____    ______ ____

>  <TORSDO>
F 31

$$$$
=
 OpenBabel11042415423D

 59 62  0  0  1  0  0  0  0  0999 V2000
  189.8070  172.0610  140.3070 C   0  0  0  0  0  2  0  0  0  0  0  0
  191.9480  171.4300  139.0970 C   0  0  0  0  0  0  0  0  0  0  0  0
  191.6430  170.8270  141.4330 C   0  0  0  0  0  3  0  0  0  0  0  0
  191.1580  171.4210  140.2670 C   0  0  0  0  0  0  0  0  0  0  0  0
  193.2300  170.8500  139.1170 C   0  0  0  0  0  0  0  0  0  0  0  0
  191.4420  172.0600  137.8370 C   0  0  0  0  0  1  0  0  0  0  0  0
  192.9210  170.2600  141.4610 C   0  0  0  0  0  0  0  0  0  0  0  0
  193.7090  170.2720  140.3050 C   0  0  0  0  0  3  0  0  0  0  0  0
  193.4600  169.6460  142.7110 C   0  0  0  0  0  2  0  0  0  0  0  0
  193.0310  170.4560  143.9250 C   0  0  0  0  0  2  0  0  0  0  0  0
  194.2060  172.4370  144.9270 C   0  0  0  0  0  0  0  0  0  0  0  0
  194.3680  171.8100  146.0100 O   0  0  0  0  0  0  0  0  0  0  0  0
  193.5330  171.8140  143.8250 N   0  0  0  0  0  2  0  0  0  0  0  0
  194.7170  173.7320  144.8100 O   0  0  0  0  0  0  0  0  0  0  0  0
  195.4730  175.4470  141.5580 C   0  0  2  0  0  0  0  0  0  0  0  0
  195.2970  174.7400  140.2790 C   0  0  0  0  0  2  0  0  0  0  0  0
  197.1400  176.1050  143.3170 C   0  0  0  0  0  2  0  0  0  0  0  0
  196.7730  174.8320  144.1020 C   0  0  1  0  0  3  0  0  0  0  0  0
  194.8060  176.0500  140.4800 O   0  0  0  0  0  0  0  0  0  0  0  0
  196.8800  175.9760  141.8140 C   0  0  0  0  0  2  0  0  0  0  0  0
  194.5850  174.9720  142.7040 C   0  0  1  0  0  3  0  0  0  0  0  0
  195.4540  174.1530  143.6680 C   0  0  2  0  0  3  0  0  0  0  0  0
  192.6710  176.3960  142.8550 O   0  0  0  0  0  1  0  0  0  0  0  0
  193.9290  176.1560  143.4060 C   0  0  0  0  0  2  0  0  0  0  0  0
  197.9230  173.8320  144.1190 C   0  0  0  0  0  2  0  0  0  0  0  0
  197.5850  172.6760  143.4100 O   0  0  0  0  0  1  0  0  0  0  0  0
  194.0120  170.8580  137.9530 O   0  0  0  0  0  0  0  0  0  0  0  0
  195.1070  171.7470  137.7530 C   0  0  0  0  0  2  0  0  0  0  0  0
  197.5590  171.9230  137.4580 C   0  0  0  0  0  1  0  0  0  0  0  0
  196.3950  170.9620  137.5890 C   0  0  0  0  0  2  0  0  0  0  0  0
  189.9250  173.5540  140.5430 C   0  0  0  0  0  2  0  0  0  0  0  0
  190.1730  173.8000  141.9520 N   0  0  0  0  0  2  0  0  0  0  0  0
  188.9840  174.3010  142.4950 N   0  0  0  0  0  2  0  0  0  0  0  0
  188.9910  175.7380  142.2680 C   0  0  0  0  0  2  0  0  0  0  0  0
  188.2610  176.0510  141.0450 N   0  0  0  0  0  0  0  0  0  0  0  0
  187.1350  176.6980  141.0040 C   0  0  0  0  0  0  0  0  0  0  0  0
  186.0100  176.3050  143.0800 N   0  0  0  0  0  2  0  0  0  0  0  0
  186.5770  178.5480  142.5900 N   0  0  0  0  0  2  0  0  0  0  0  0
  186.4670  177.1680  142.2340 C   0  0  0  0  0  0  0  0  0  0  0  0
  186.1640  179.0650  143.8860 C   0  0  0  0  0  2  0  0  0  0  0  0
  184.9870  178.2470  144.3910 C   0  0  0  0  0  2  0  0  0  0  0  0
  185.1600  177.8660  145.8570 C   0  0  2  0  0  3  0  0  0  0  0  0
  183.9460  177.9970  146.5380 O   0  0  0  0  0  1  0  0  0  0  0  0
  186.1450  178.6520  146.4640 O   0  0  0  0  0  0  0  0  0  0  0  0
  186.8620  177.7650  147.2730 C   0  0  0  0  0  2  0  0  0  0  0  0
  187.1900  176.5120  146.4830 C   0  0  0  0  0  2  0  0  0  0  0  0
  188.5490  176.6690  145.8230 C   0  0  0  0  0  2  0  0  0  0  0  0
  189.5890  175.8110  146.5340 C   0  0  1  0  0  3  0  0  0  0  0  0
  189.0280  174.5850  146.8930 O   0  0  0  0  0  1  0  0  0  0  0  0
  190.7770  175.5680  145.6200 C   0  0  0  0  0  2  0  0  0  0  0  0
  191.6310  174.6210  146.1830 O   0  0  0  0  0  0  0  0  0  0  0  0
  192.4960  175.3450  146.9340 N   0  0  0  0  0  1  0  0  0  0  0  0
  186.4700  176.8930  139.7060 C   0  0  0  0  0  0  0  0  0  0  0  0
  185.4100  177.5730  139.6380 O   0  0  0  0  0  0  0  0  0  0  0  0
  187.0130  176.3130  138.5550 O   0  0  0  0  0  0  0  0  0  0  0  0
  186.2950  176.2810  137.3320 C   0  0  0  0  0  2  0  0  0  0  0  0
  186.7260  176.2420  134.9010 C   0  0  0  0  0  2  0  0  0  0  0  0
  187.9510  175.6940  135.6050 C   0  0  0  0  0  2  0  0  0  0  0  0
  187.1680  176.8330  136.2230 C   0  0  0  0  0  3  0  0  0  0  0  0
  1 31  1  0  0  0  0
  2  5  2  0  0  0  0
  2  4  1  0  0  0  0
  3  7  1  0  0  0  0
  4  1  1  0  0  0  0
  4  3  2  0  0  0  0
  5  8  1  0  0  0  0
  6  2  1  0  0  0  0
  7  9  1  0  0  0  0
  8  7  2  0  0  0  0
  9 10  1  0  0  0  0
 11 12  2  0  0  0  0
 13 10  1  0  0  0  0
 13 11  1  0  0  0  0
 14 11  1  0  0  0  0
 15 16  1  6  0  0  0
 15 20  1  0  0  0  0
 15 21  1  0  0  0  0
 16 19  1  0  0  0  0
 17 18  1  0  0  0  0
 18 25  1  6  0  0  0
 19 15  1  0  0  0  0
 20 17  1  0  0  0  0
 21 24  1  1  0  0  0
 21 22  1  0  0  0  0
 22 18  1  0  0  0  0
 22 14  1  1  0  0  0
 23 24  1  0  0  0  0
 26 25  1  0  0  0  0
 27  5  1  0  0  0  0
 28 27  1  0  0  0  0
 29 30  1  0  0  0  0
 30 28  1  0  0  0  0
 31 32  1  0  0  0  0
 32 33  1  0  0  0  0
 34 33  1  0  0  0  0
 35 34  1  0  0  0  0
 36 35  2  0  0  0  0
 36 39  1  0  0  0  0
 38 40  1  0  0  0  0
 39 38  1  0  0  0  0
 39 37  2  0  0  0  0
 40 41  1  0  0  0  0
 41 42  1  0  0  0  0
 42 44  1  0  0  0  0
 42 43  1  1  0  0  0
 44 45  1  0  0  0  0
 46 45  1  0  0  0  0
 47 46  1  0  0  0  0
 47 48  1  0  0  0  0
 48 49  1  6  0  0  0
 50 51  1  0  0  0  0
 50 48  1  0  0  0  0
 51 52  1  0  0  0  0
 53 36  1  0  0  0  0
 54 53  2  0  0  0  0
 55 53  1  0  0  0  0
 56 55  1  0  0  0  0
 57 58  1  0  0  0  0
 57 59  1  0  0  0  0
 58 59  1  0  0  0  0
 59 56  1  0  0  0  0
M  END
>  <MODEL>
7

>  <REMARK>
 VINA RESULT:      -4.6      2.633      9.321
  Name = 
  31 active torsions:
  status: ('A' for Active; 'I' for Inactive)
    1  A    between atoms: O_2  and  C_19
    2  A    between atoms: O_2  and  C_21
    3  A    between atoms: C_3  and  C_10
    4  A    between atoms: C_3  and  C_41
    5  A    between atoms: C_5  and  C_30
    6  A    between atoms: C_5  and  O_37
    7  A    between atoms: C_9  and  C_12
    8  A    between atoms: C_9  and  C_52
    9  A    between atoms: C_10  and  N_27
   10  A    between atoms: C_13  and  C_53
   11  A    between atoms: C_13  and  O_55
   12  A    between atoms: C_14  and  C_16
   13  A    between atoms: C_14  and  N_59
   14  A    between atoms: C_15  and  C_18
   15  A    between atoms: C_16  and  C_29
   16  A    between atoms: C_17  and  N_32
   17  A    between atoms: C_17  and  N_49
   18  A    between atoms: C_19  and  C_54
   19  A    between atoms: C_20  and  C_30
   20  A    between atoms: C_20  and  C_53
   21  A    between atoms: C_24  and  O_34
   22  A    between atoms: C_26  and  C_48
   23  A    between atoms: C_28  and  O_50
   24  A    between atoms: C_28  and  C_56
   25  A    between atoms: C_31  and  C_33
   26  A    between atoms: C_31  and  O_50
   27  A    between atoms: C_33  and  C_51
   28  A    between atoms: O_34  and  C_58
   29  A    between atoms: C_41  and  O_55
   30  A    between atoms: N_46  and  N_49
   31  A    between atoms: N_46  and  C_52
                            x       y       z     vdW  Elec       q    Type
                         _______ _______ _______ _____ _____    ______ ____

>  <TORSDO>
F 31

$$$$
=
 OpenBabel11042415423D

 59 62  0  0  1  0  0  0  0  0999 V2000
  187.5060  177.6480  141.3620 C   0  0  0  0  0  2  0  0  0  0  0  0
  185.0750  178.0830  141.9520 C   0  0  0  0  0  0  0  0  0  0  0  0
  186.7680  178.0590  143.6970 C   0  0  0  0  0  3  0  0  0  0  0  0
  186.4220  177.9450  142.3490 C   0  0  0  0  0  0  0  0  0  0  0  0
  184.0830  178.3230  142.9210 C   0  0  0  0  0  0  0  0  0  0  0  0
  184.6860  177.9660  140.5110 C   0  0  0  0  0  1  0  0  0  0  0  0
  185.7840  178.2860  144.6640 C   0  0  0  0  0  0  0  0  0  0  0  0
  184.4480  178.4180  144.2740 C   0  0  0  0  0  3  0  0  0  0  0  0
  186.1400  178.3830  146.1110 C   0  0  0  0  0  2  0  0  0  0  0  0
  186.7780  177.0860  146.5870 C   0  0  0  0  0  2  0  0  0  0  0  0
  189.2040  176.4860  146.3370 C   0  0  0  0  0  0  0  0  0  0  0  0
  188.9060  175.5550  145.5400 O   0  0  0  0  0  0  0  0  0  0  0  0
  188.1760  177.3040  146.9110 N   0  0  0  0  0  2  0  0  0  0  0  0
  190.5500  176.7260  146.6270 O   0  0  0  0  0  0  0  0  0  0  0  0
  193.7480  176.1140  144.7580 C   0  0  2  0  0  0  0  0  0  0  0  0
  194.9160  176.9850  144.9660 C   0  0  0  0  0  2  0  0  0  0  0  0
  191.7610  175.6750  143.2860 C   0  0  0  0  0  2  0  0  0  0  0  0
  190.9080  176.5500  144.2230 C   0  0  1  0  0  3  0  0  0  0  0  0
  195.0270  175.5760  144.9650 O   0  0  0  0  0  0  0  0  0  0  0  0
  193.2490  176.0360  143.3200 C   0  0  0  0  0  2  0  0  0  0  0  0
  192.7860  176.0050  145.9370 C   0  0  1  0  0  3  0  0  0  0  0  0
  191.5360  176.8330  145.6060 C   0  0  2  0  0  3  0  0  0  0  0  0
  193.2810  173.7100  145.4920 O   0  0  0  0  0  1  0  0  0  0  0  0
  192.4360  174.5480  146.2180 C   0  0  0  0  0  2  0  0  0  0  0  0
  190.4770  177.8440  143.5430 C   0  0  0  0  0  2  0  0  0  0  0  0
  191.2630  178.9160  143.9750 O   0  0  0  0  0  1  0  0  0  0  0  0
  182.7460  178.4620  142.5230 O   0  0  0  0  0  0  0  0  0  0  0  0
  182.3040  178.2590  141.1840 C   0  0  0  0  0  2  0  0  0  0  0  0
  179.8470  178.1930  141.4860 C   0  0  0  0  0  1  0  0  0  0  0  0
  181.0040  179.0060  140.9430 C   0  0  0  0  0  2  0  0  0  0  0  0
  187.2840  176.2980  140.7080 C   0  0  0  0  0  2  0  0  0  0  0  0
  187.8530  175.2580  141.5460 N   0  0  0  0  0  2  0  0  0  0  0  0
  188.8380  174.6150  140.7860 N   0  0  0  0  0  2  0  0  0  0  0  0
  189.5690  173.7460  141.6960 C   0  0  0  0  0  2  0  0  0  0  0  0
  189.6730  172.4070  141.1270 N   0  0  0  0  0  0  0  0  0  0  0  0
  190.6540  172.0000  140.3780 C   0  0  0  0  0  0  0  0  0  0  0  0
  192.7460  173.0670  140.8400 N   0  0  0  0  0  2  0  0  0  0  0  0
  191.8830  173.3280  138.6540 N   0  0  0  0  0  2  0  0  0  0  0  0
  191.7710  172.8920  140.0110 C   0  0  0  0  0  0  0  0  0  0  0  0
  193.0610  174.0080  138.1380 C   0  0  0  0  0  2  0  0  0  0  0  0
  192.6300  175.0000  137.0690 C   0  0  0  0  0  2  0  0  0  0  0  0
  193.8320  175.6590  136.4020 C   0  0  2  0  0  3  0  0  0  0  0  0
  193.4090  176.6610  135.5240 O   0  0  0  0  0  1  0  0  0  0  0  0
  194.6070  174.7130  135.7230 O   0  0  0  0  0  0  0  0  0  0  0  0
  195.8410  175.3380  135.5250 C   0  0  0  0  0  2  0  0  0  0  0  0
  196.4860  175.6230  136.8670 C   0  0  0  0  0  2  0  0  0  0  0  0
  197.3090  174.4230  137.3000 C   0  0  0  0  0  2  0  0  0  0  0  0
  197.2580  174.2590  138.8140 C   0  0  1  0  0  3  0  0  0  0  0  0
  197.9370  173.0990  139.1900 O   0  0  0  0  0  1  0  0  0  0  0  0
  197.9020  175.4560  139.4910 C   0  0  0  0  0  2  0  0  0  0  0  0
  197.0950  175.9130  140.5320 O   0  0  0  0  0  0  0  0  0  0  0  0
  195.8950  175.3190  140.3200 N   0  0  0  0  0  1  0  0  0  0  0  0
  190.6050  170.6410  139.8160 C   0  0  0  0  0  0  0  0  0  0  0  0
  190.1990  170.4640  138.6340 O   0  0  0  0  0  0  0  0  0  0  0  0
  190.9990  169.5520  140.5980 O   0  0  0  0  0  0  0  0  0  0  0  0
  192.3090  169.0120  140.5130 C   0  0  0  0  0  2  0  0  0  0  0  0
  193.9470  168.3490  142.2370 C   0  0  0  0  0  2  0  0  0  0  0  0
  192.6740  168.7770  142.9370 C   0  0  0  0  0  2  0  0  0  0  0  0
  193.1310  169.5010  141.6890 C   0  0  0  0  0  3  0  0  0  0  0  0
  1  4  1  0  0  0  0
  2  4  2  0  0  0  0
  2  5  1  0  0  0  0
  3  7  2  0  0  0  0
  4  3  1  0  0  0  0
  5  8  2  0  0  0  0
  6  2  1  0  0  0  0
  7  9  1  0  0  0  0
  8  7  1  0  0  0  0
  9 10  1  0  0  0  0
 10 13  1  0  0  0  0
 11 14  1  0  0  0  0
 11 13  1  0  0  0  0
 12 11  2  0  0  0  0
 15 20  1  6  0  0  0
 15 19  1  0  0  0  0
 15 16  1  0  0  0  0
 15 21  1  0  0  0  0
 17 20  1  0  0  0  0
 17 18  1  0  0  0  0
 18 25  1  6  0  0  0
 18 22  1  0  0  0  0
 19 16  1  0  0  0  0
 21 24  1  6  0  0  0
 22 21  1  0  0  0  0
 22 14  1  1  0  0  0
 23 24  1  0  0  0  0
 25 26  1  0  0  0  0
 27  5  1  0  0  0  0
 28 27  1  0  0  0  0
 30 28  1  0  0  0  0
 30 29  1  0  0  0  0
 31  1  1  0  0  0  0
 31 32  1  0  0  0  0
 33 32  1  0  0  0  0
 33 34  1  0  0  0  0
 35 34  1  0  0  0  0
 36 35  2  0  0  0  0
 38 39  1  0  0  0  0
 39 36  1  0  0  0  0
 39 37  2  0  0  0  0
 40 38  1  0  0  0  0
 41 40  1  0  0  0  0
 42 43  1  6  0  0  0
 42 41  1  0  0  0  0
 44 42  1  0  0  0  0
 45 44  1  0  0  0  0
 45 46  1  0  0  0  0
 46 47  1  0  0  0  0
 47 48  1  0  0  0  0
 48 49  1  6  0  0  0
 48 50  1  0  0  0  0
 50 51  1  0  0  0  0
 52 51  1  0  0  0  0
 53 36  1  0  0  0  0
 53 55  1  0  0  0  0
 54 53  2  0  0  0  0
 56 55  1  0  0  0  0
 56 59  1  0  0  0  0
 57 58  1  0  0  0  0
 59 57  1  0  0  0  0
 59 58  1  0  0  0  0
M  END
>  <MODEL>
8

>  <REMARK>
 VINA RESULT:      -4.3      1.676      2.284
  Name = 
  31 active torsions:
  status: ('A' for Active; 'I' for Inactive)
    1  A    between atoms: O_2  and  C_19
    2  A    between atoms: O_2  and  C_21
    3  A    between atoms: C_3  and  C_10
    4  A    between atoms: C_3  and  C_41
    5  A    between atoms: C_5  and  C_30
    6  A    between atoms: C_5  and  O_37
    7  A    between atoms: C_9  and  C_12
    8  A    between atoms: C_9  and  C_52
    9  A    between atoms: C_10  and  N_27
   10  A    between atoms: C_13  and  C_53
   11  A    between atoms: C_13  and  O_55
   12  A    between atoms: C_14  and  C_16
   13  A    between atoms: C_14  and  N_59
   14  A    between atoms: C_15  and  C_18
   15  A    between atoms: C_16  and  C_29
   16  A    between atoms: C_17  and  N_32
   17  A    between atoms: C_17  and  N_49
   18  A    between atoms: C_19  and  C_54
   19  A    between atoms: C_20  and  C_30
   20  A    between atoms: C_20  and  C_53
   21  A    between atoms: C_24  and  O_34
   22  A    between atoms: C_26  and  C_48
   23  A    between atoms: C_28  and  O_50
   24  A    between atoms: C_28  and  C_56
   25  A    between atoms: C_31  and  C_33
   26  A    between atoms: C_31  and  O_50
   27  A    between atoms: C_33  and  C_51
   28  A    between atoms: O_34  and  C_58
   29  A    between atoms: C_41  and  O_55
   30  A    between atoms: N_46  and  N_49
   31  A    between atoms: N_46  and  C_52
                            x       y       z     vdW  Elec       q    Type
                         _______ _______ _______ _____ _____    ______ ____

>  <TORSDO>
F 31

$$$$
=
 OpenBabel11042415423D

 59 62  0  0  1  0  0  0  0  0999 V2000
  188.3990  174.2260  141.9420 C   0  0  0  0  0  2  0  0  0  0  0  0
  189.6790  172.2550  140.9810 C   0  0  0  0  0  0  0  0  0  0  0  0
  189.0130  174.0970  139.5390 C   0  0  0  0  0  3  0  0  0  0  0  0
  189.0540  173.5090  140.8050 C   0  0  0  0  0  0  0  0  0  0  0  0
  190.2490  171.5980  139.8740 C   0  0  0  0  0  0  0  0  0  0  0  0
  189.7350  171.6110  142.3310 C   0  0  0  0  0  1  0  0  0  0  0  0
  189.5670  173.4420  138.4350 C   0  0  0  0  0  0  0  0  0  0  0  0
  190.1830  172.1980  138.6060 C   0  0  0  0  0  3  0  0  0  0  0  0
  189.5050  174.0500  137.0730 C   0  0  0  0  0  2  0  0  0  0  0  0
  190.1940  173.1480  136.0600 C   0  0  0  0  0  2  0  0  0  0  0  0
  192.5710  173.0560  135.2530 C   0  0  0  0  0  0  0  0  0  0  0  0
  192.6100  171.8140  135.4700 O   0  0  0  0  0  0  0  0  0  0  0  0
  191.3790  173.8010  135.5320 N   0  0  0  0  0  2  0  0  0  0  0  0
  193.6950  173.6860  134.7120 O   0  0  0  0  0  0  0  0  0  0  0  0
  196.6590  174.6540  136.8030 C   0  0  2  0  0  0  0  0  0  0  0  0
  196.6040  174.5600  138.2700 C   0  0  0  0  0  2  0  0  0  0  0  0
  196.4110  176.2030  134.8420 C   0  0  0  0  0  2  0  0  0  0  0  0
  194.9340  175.7850  134.7330 C   0  0  1  0  0  3  0  0  0  0  0  0
  197.7000  174.0590  137.5320 O   0  0  0  0  0  0  0  0  0  0  0  0
  196.9760  176.0410  136.2560 C   0  0  0  0  0  2  0  0  0  0  0  0
  195.7490  173.6930  136.0440 C   0  0  1  0  0  3  0  0  0  0  0  0
  194.5600  174.4960  135.5000 C   0  0  2  0  0  3  0  0  0  0  0  0
  196.2070  171.6330  134.9210 O   0  0  0  0  0  1  0  0  0  0  0  0
  196.5130  172.9930  134.9250 C   0  0  0  0  0  2  0  0  0  0  0  0
  193.9980  176.9310  135.1000 C   0  0  0  0  0  2  0  0  0  0  0  0
  193.0110  176.4990  135.9900 O   0  0  0  0  0  1  0  0  0  0  0  0
  190.8720  170.3540  140.0530 O   0  0  0  0  0  0  0  0  0  0  0  0
  191.4000  169.5830  138.9780 C   0  0  0  0  0  2  0  0  0  0  0  0
  193.6810  170.5400  138.8540 C   0  0  0  0  0  1  0  0  0  0  0  0
  192.8750  169.3070  139.2090 C   0  0  0  0  0  2  0  0  0  0  0  0
  189.3870  175.1370  142.6450 C   0  0  0  0  0  2  0  0  0  0  0  0
  189.2110  176.4970  142.1680 N   0  0  0  0  0  2  0  0  0  0  0  0
  187.9340  176.9070  142.5690 N   0  0  0  0  0  2  0  0  0  0  0  0
  187.8590  176.7010  144.0070 C   0  0  0  0  0  2  0  0  0  0  0  0
  186.9950  177.7100  144.6090 N   0  0  0  0  0  0  0  0  0  0  0  0
  186.8840  177.9170  145.8880 C   0  0  0  0  0  0  0  0  0  0  0  0
  186.9870  176.3100  147.6590 N   0  0  0  0  0  2  0  0  0  0  0  0
  189.0510  177.0220  146.7510 N   0  0  0  0  0  2  0  0  0  0  0  0
  187.6300  177.1080  146.8710 C   0  0  0  0  0  0  0  0  0  0  0  0
  189.8530  176.0760  147.5120 C   0  0  0  0  0  2  0  0  0  0  0  0
  191.3060  176.2060  147.0880 C   0  0  0  0  0  2  0  0  0  0  0  0
  191.5080  175.7690  145.6410 C   0  0  2  0  0  3  0  0  0  0  0  0
  191.6290  174.3790  145.5670 O   0  0  0  0  0  1  0  0  0  0  0  0
  192.6340  176.3860  145.0860 O   0  0  0  0  0  0  0  0  0  0  0  0
  193.6300  176.2520  146.0570 C   0  0  0  0  0  2  0  0  0  0  0  0
  194.9590  175.9700  145.3830 C   0  0  0  0  0  2  0  0  0  0  0  0
  194.8860  174.6420  144.6510 C   0  0  0  0  0  2  0  0  0  0  0  0
  194.9360  174.8600  143.1440 C   0  0  1  0  0  3  0  0  0  0  0  0
  193.6480  175.0700  142.6510 O   0  0  0  0  0  1  0  0  0  0  0  0
  195.7980  176.0670  142.8200 C   0  0  0  0  0  2  0  0  0  0  0  0
  197.0340  175.6570  142.3200 O   0  0  0  0  0  0  0  0  0  0  0  0
  197.9410  176.1920  143.1720 N   0  0  0  0  0  1  0  0  0  0  0  0
  185.9260  178.9270  146.3650 C   0  0  0  0  0  0  0  0  0  0  0  0
  186.0960  179.4700  147.4910 O   0  0  0  0  0  0  0  0  0  0  0  0
  184.8270  179.2710  145.5730 O   0  0  0  0  0  0  0  0  0  0  0  0
  184.2750  178.3620  144.6340 C   0  0  0  0  0  2  0  0  0  0  0  0
  183.4330  178.1090  142.3270 C   0  0  0  0  0  2  0  0  0  0  0  0
  184.9010  178.4750  142.2550 C   0  0  0  0  0  2  0  0  0  0  0  0
  184.0220  179.0830  143.3260 C   0  0  0  0  0  3  0  0  0  0  0  0
  1 31  1  0  0  0  0
  2  6  1  0  0  0  0
  3  4  2  0  0  0  0
  4  2  1  0  0  0  0
  4  1  1  0  0  0  0
  5 27  1  0  0  0  0
  5  2  2  0  0  0  0
  7  8  2  0  0  0  0
  7  3  1  0  0  0  0
  8  5  1  0  0  0  0
  9  7  1  0  0  0  0
 10  9  1  0  0  0  0
 11 12  2  0  0  0  0
 11 13  1  0  0  0  0
 13 10  1  0  0  0  0
 14 11  1  0  0  0  0
 15 20  1  6  0  0  0
 15 19  1  0  0  0  0
 15 16  1  0  0  0  0
 17 20  1  0  0  0  0
 18 17  1  0  0  0  0
 18 25  1  1  0  0  0
 18 22  1  0  0  0  0
 19 16  1  0  0  0  0
 21 24  1  6  0  0  0
 21 15  1  0  0  0  0
 22 14  1  6  0  0  0
 22 21  1  0  0  0  0
 23 24  1  0  0  0  0
 25 26  1  0  0  0  0
 28 30  1  0  0  0  0
 28 27  1  0  0  0  0
 29 30  1  0  0  0  0
 32 33  1  0  0  0  0
 32 31  1  0  0  0  0
 33 34  1  0  0  0  0
 34 35  1  0  0  0  0
 35 36  2  0  0  0  0
 36 53  1  0  0  0  0
 36 39  1  0  0  0  0
 38 39  1  0  0  0  0
 38 40  1  0  0  0  0
 39 37  2  0  0  0  0
 41 40  1  0  0  0  0
 42 43  1  1  0  0  0
 42 41  1  0  0  0  0
 44 42  1  0  0  0  0
 44 45  1  0  0  0  0
 46 45  1  0  0  0  0
 47 46  1  0  0  0  0
 48 49  1  1  0  0  0
 48 47  1  0  0  0  0
 50 48  1  0  0  0  0
 51 50  1  0  0  0  0
 51 52  1  0  0  0  0
 53 54  2  0  0  0  0
 55 53  1  0  0  0  0
 56 55  1  0  0  0  0
 57 59  1  0  0  0  0
 58 57  1  0  0  0  0
 58 59  1  0  0  0  0
 59 56  1  0  0  0  0
M  END
>  <MODEL>
9

>  <REMARK>
 VINA RESULT:      -4.3      2.127      9.599
  Name = 
  31 active torsions:
  status: ('A' for Active; 'I' for Inactive)
    1  A    between atoms: O_2  and  C_19
    2  A    between atoms: O_2  and  C_21
    3  A    between atoms: C_3  and  C_10
    4  A    between atoms: C_3  and  C_41
    5  A    between atoms: C_5  and  C_30
    6  A    between atoms: C_5  and  O_37
    7  A    between atoms: C_9  and  C_12
    8  A    between atoms: C_9  and  C_52
    9  A    between atoms: C_10  and  N_27
   10  A    between atoms: C_13  and  C_53
   11  A    between atoms: C_13  and  O_55
   12  A    between atoms: C_14  and  C_16
   13  A    between atoms: C_14  and  N_59
   14  A    between atoms: C_15  and  C_18
   15  A    between atoms: C_16  and  C_29
   16  A    between atoms: C_17  and  N_32
   17  A    between atoms: C_17  and  N_49
   18  A    between atoms: C_19  and  C_54
   19  A    between atoms: C_20  and  C_30
   20  A    between atoms: C_20  and  C_53
   21  A    between atoms: C_24  and  O_34
   22  A    between atoms: C_26  and  C_48
   23  A    between atoms: C_28  and  O_50
   24  A    between atoms: C_28  and  C_56
   25  A    between atoms: C_31  and  C_33
   26  A    between atoms: C_31  and  O_50
   27  A    between atoms: C_33  and  C_51
   28  A    between atoms: O_34  and  C_58
   29  A    between atoms: C_41  and  O_55
   30  A    between atoms: N_46  and  N_49
   31  A    between atoms: N_46  and  C_52
                            x       y       z     vdW  Elec       q    Type
                         _______ _______ _______ _____ _____    ______ ____

>  <TORSDO>
F 31

$$$$
