=
 OpenBabel11042414093D

 49 56  0  0  1  0  0  0  0  0999 V2000
  189.5890  176.4980  144.4480 C   0  0  2  0  0  3  0  0  0  0  0  0
  191.7710  176.2980  147.5430 C   0  0  0  0  0  2  0  0  0  0  0  0
  192.5540  175.2790  146.7160 C   0  0  0  0  0  2  0  0  0  0  0  0
  190.4320  176.5820  146.8710 C   0  0  0  0  0  2  0  0  0  0  0  0
  192.0450  177.0090  144.8900 C   0  0  0  0  0  2  0  0  0  0  0  0
  192.7400  175.6920  145.2480 C   0  0  1  0  0  3  0  0  0  0  0  0
  190.6080  177.0920  145.4270 C   0  0  1  0  0  3  0  0  0  0  0  0
  194.2200  175.7960  144.9070 C   0  0  0  0  0  2  0  0  0  0  0  0
  195.0890  175.4160  146.0960 C   0  0  0  0  0  2  0  0  0  0  0  0
  196.0170  174.2640  145.7460 C   0  0  0  0  0  2  0  0  0  0  0  0
  195.7940  173.8510  144.4180 O   0  0  0  0  0  0  0  0  0  0  0  0
  196.8030  171.2100  142.4410 N   0  0  0  0  0  2  0  0  0  0  0  0
  194.4300  171.9370  145.0680 C   0  0  0  0  0  2  0  0  0  0  0  0
  195.4180  169.5880  145.1490 C   0  0  0  0  0  2  0  0  0  0  0  0
  196.7860  170.0550  144.6440 C   0  0  2  0  0  3  0  0  0  0  0  0
  197.1990  171.7690  145.1580 S   0  0  0  0  0  0  0  0  0  0  0  0
  195.6980  172.4390  144.3340 C   0  0  2  0  0  0  0  0  0  0  0  0
  195.6200  171.9540  142.8590 C   0  0  0  0  0  2  0  0  0  0  0  0
  196.8230  169.9160  143.1220 C   0  0  0  0  0  2  0  0  0  0  0  0
  194.6310  170.6660  145.9000 C   0  0  0  0  0  2  0  0  0  0  0  0
  188.4180  177.4500  144.2680 C   0  0  0  0  0  2  0  0  0  0  0  0
  187.1630  176.6730  143.9080 C   0  0  0  0  0  2  0  0  0  0  0  0
  186.1350  177.5280  143.1520 C   0  0  1  0  0  3  0  0  0  0  0  0
  185.9650  177.2800  141.6380 C   0  0  2  0  0  3  0  0  0  0  0  0
  187.1870  176.6030  141.0270 C   0  0  0  0  0  0  0  0  0  0  0  0
  186.8150  178.0720  140.7980 C   0  0  0  0  0  2  0  0  0  0  0  0
  187.9750  175.5510  140.8510 C   0  0  0  0  0  2  0  0  0  0  0  0
  184.7980  177.6210  143.8790 C   0  0  1  0  0  3  0  0  0  0  0  0
  184.8300  178.7980  144.8360 C   0  0  1  0  0  3  0  0  0  0  0  0
  184.0960  178.9130  143.5180 C   0  0  0  0  0  2  0  0  0  0  0  0
  183.8620  178.5820  145.8980 N   0  0  0  0  0  2  0  0  0  0  0  0
  184.5970  178.6080  147.1440 C   0  0  0  0  0  2  0  0  0  0  0  0
  186.7280  177.4220  147.5080 C   0  0  0  0  0  2  0  0  0  0  0  0
  186.0830  178.6270  146.8530 C   0  0  0  0  0  3  0  0  0  0  0  0
  186.8430  178.7850  148.1510 C   0  0  0  0  0  2  0  0  0  0  0  0
  189.0790  175.1280  144.8980 C   0  0  0  0  0  2  0  0  0  0  0  0
  189.7930  174.0250  144.1920 C   0  0  0  0  0  0  0  0  0  0  0  0
  190.9450  173.0420  142.4490 C   0  0  0  0  0  0  0  0  0  0  0  0
  190.9130  171.8820  143.6560 S   0  0  0  0  0  0  0  0  0  0  0  0
  190.0630  172.7930  144.7890 C   0  0  0  0  0  3  0  0  0  0  0  0
  190.2840  174.1790  142.8890 C   0  0  0  0  0  3  0  0  0  0  0  0
  191.5440  172.8430  141.1610 N   0  0  0  0  0  2  0  0  0  0  0  0
  195.3250  174.3020  139.9180 C   0  0  0  0  0  3  0  0  0  0  0  0
  194.8300  173.1140  139.3640 C   0  0  0  0  0  3  0  0  0  0  0  0
  195.1850  176.4860  141.5520 Cl  0  0  0  0  0  0  0  0  0  0  0  0
  194.5690  174.9980  140.8660 C   0  0  0  0  0  0  0  0  0  0  0  0
  193.3230  174.5070  141.2660 C   0  0  0  0  0  3  0  0  0  0  0  0
  192.8260  173.3140  140.7270 C   0  0  0  0  0  0  0  0  0  0  0  0
  193.5850  172.6240  139.7650 C   0  0  0  0  0  3  0  0  0  0  0  0
  1 21  1  1  0  0  0
  1 36  1  0  0  0  0
  3  2  1  0  0  0  0
  4  2  1  0  0  0  0
  5  6  1  0  0  0  0
  5  7  1  0  0  0  0
  6  8  1  1  0  0  0
  6  3  1  0  0  0  0
  7  1  1  6  0  0  0
  7  4  1  0  0  0  0
  8  9  1  0  0  0  0
 10  9  1  0  0  0  0
 11 10  1  0  0  0  0
 12 18  1  0  0  0  0
 12 19  1  0  0  0  0
 13 20  1  0  0  0  0
 14 20  1  0  0  0  0
 15 19  1  6  0  0  0
 15 14  1  0  0  0  0
 15 16  1  0  0  0  0
 17 11  1  1  0  0  0
 17 13  1  0  0  0  0
 17 16  1  0  0  0  0
 18 17  1  0  0  0  0
 22 21  1  0  0  0  0
 23 22  1  1  0  0  0
 24 23  1  1  0  0  0
 25 24  1  0  0  0  0
 26 25  1  0  0  0  0
 26 24  1  0  0  0  0
 27 25  2  0  0  0  0
 28 23  1  6  0  0  0
 28 29  1  0  0  0  0
 29 31  1  1  0  0  0
 30 28  1  0  0  0  0
 30 29  1  0  0  0  0
 31 32  1  0  0  0  0
 33 35  1  0  0  0  0
 34 32  1  0  0  0  0
 34 33  1  0  0  0  0
 34 35  1  0  0  0  0
 37 40  2  0  0  0  0
 37 36  1  0  0  0  0
 38 41  2  0  0  0  0
 38 39  1  0  0  0  0
 39 40  1  0  0  0  0
 41 37  1  0  0  0  0
 42 38  1  0  0  0  0
 43 46  1  0  0  0  0
 44 49  1  0  0  0  0
 44 43  2  0  0  0  0
 46 47  2  0  0  0  0
 46 45  1  0  0  0  0
 48 42  1  0  0  0  0
 48 47  1  0  0  0  0
 49 48  2  0  0  0  0
M  END
>  <MODEL>
1

>  <REMARK>
 VINA RESULT:      -6.7      0.000      0.000
  Name = 
  18 active torsions:
  status: ('A' for Active; 'I' for Inactive)
    1  A    between atoms: C_1  and  C_2
    2  A    between atoms: C_2  and  C_43
    3  A    between atoms: N_3  and  C_21
    4  A    between atoms: N_3  and  C_41
    5  A    between atoms: C_5  and  N_45
    6  A    between atoms: C_9  and  C_25
    7  A    between atoms: C_9  and  C_44
    8  A    between atoms: O_12  and  C_24
    9  A    between atoms: O_12  and  C_28
   10  A    between atoms: C_14  and  C_31
   11  A    between atoms: C_17  and  C_31
   12  A    between atoms: C_17  and  C_39
   13  A    between atoms: C_21  and  C_22
   14  A    between atoms: C_24  and  C_25
   15  A    between atoms: C_29  and  C_31
   16  A    between atoms: C_32  and  N_45
   17  A    between atoms: C_39  and  C_43
   18  A    between atoms: C_43  and  C_47
                            x       y       z     vdW  Elec       q    Type
                         _______ _______ _______ _____ _____    ______ ____

>  <TORSDO>
F 18

$$$$
=
 OpenBabel11042414093D

 49 56  0  0  1  0  0  0  0  0999 V2000
  189.9460  173.6930  143.3330 C   0  0  2  0  0  3  0  0  0  0  0  0
  192.4130  171.3990  141.5920 C   0  0  0  0  0  2  0  0  0  0  0  0
  192.3250  172.4360  140.4730 C   0  0  0  0  0  2  0  0  0  0  0  0
  191.2920  171.6350  142.5970 C   0  0  0  0  0  2  0  0  0  0  0  0
  192.3360  174.0030  142.5050 C   0  0  0  0  0  2  0  0  0  0  0  0
  192.3200  173.8870  140.9780 C   0  0  1  0  0  3  0  0  0  0  0  0
  191.3340  173.0590  143.1870 C   0  0  1  0  0  3  0  0  0  0  0  0
  193.5010  174.6550  140.4030 C   0  0  0  0  0  2  0  0  0  0  0  0
  194.6830  173.7350  140.1390 C   0  0  0  0  0  2  0  0  0  0  0  0
  195.7000  173.8160  141.2660 C   0  0  0  0  0  2  0  0  0  0  0  0
  195.8370  172.5580  141.8850 O   0  0  0  0  0  0  0  0  0  0  0  0
  195.6660  170.6720  144.7680 N   0  0  0  0  0  2  0  0  0  0  0  0
  195.5440  174.1300  143.7260 C   0  0  0  0  0  2  0  0  0  0  0  0
  196.6720  173.7390  145.9790 C   0  0  0  0  0  2  0  0  0  0  0  0
  197.2780  172.4030  145.5380 C   0  0  2  0  0  3  0  0  0  0  0  0
  197.6680  172.3440  143.7440 S   0  0  0  0  0  0  0  0  0  0  0  0
  195.9190  172.6910  143.2940 C   0  0  2  0  0  0  0  0  0  0  0  0
  194.9600  171.7080  144.0230 C   0  0  0  0  0  2  0  0  0  0  0  0
  196.3220  171.2760  145.9280 C   0  0  0  0  0  2  0  0  0  0  0  0
  196.4290  174.7200  144.8290 C   0  0  0  0  0  2  0  0  0  0  0  0
  189.4910  173.6280  144.7820 C   0  0  0  0  0  2  0  0  0  0  0  0
  190.6760  173.8320  145.7120 C   0  0  0  0  0  2  0  0  0  0  0  0
  190.6410  175.1920  146.4250 C   0  0  1  0  0  3  0  0  0  0  0  0
  191.9870  175.8220  146.8390 C   0  0  2  0  0  3  0  0  0  0  0  0
  192.8500  176.1780  145.6340 C   0  0  0  0  0  0  0  0  0  0  0  0
  193.1400  175.0100  146.5820 C   0  0  0  0  0  2  0  0  0  0  0  0
  193.1220  176.9200  144.5690 C   0  0  0  0  0  2  0  0  0  0  0  0
  189.7170  176.1920  145.7390 C   0  0  1  0  0  3  0  0  0  0  0  0
  188.5900  176.5610  146.6860 C   0  0  1  0  0  3  0  0  0  0  0  0
  189.7440  177.5150  146.4730 C   0  0  0  0  0  2  0  0  0  0  0  0
  187.4470  177.0240  145.9170 N   0  0  0  0  0  2  0  0  0  0  0  0
  186.2630  176.5810  146.6210 C   0  0  0  0  0  2  0  0  0  0  0  0
  184.5260  178.2880  147.0110 C   0  0  0  0  0  2  0  0  0  0  0  0
  185.7980  177.6740  147.5600 C   0  0  0  0  0  3  0  0  0  0  0  0
  185.8470  179.0040  146.8410 C   0  0  0  0  0  2  0  0  0  0  0  0
  188.9040  173.0310  142.4310 C   0  0  0  0  0  2  0  0  0  0  0  0
  188.4260  173.9690  141.3750 C   0  0  0  0  0  0  0  0  0  0  0  0
  187.6160  175.9670  140.5460 C   0  0  0  0  0  0  0  0  0  0  0  0
  187.8610  175.0050  139.1970 S   0  0  0  0  0  0  0  0  0  0  0  0
  188.4420  173.6520  140.0160 C   0  0  0  0  0  3  0  0  0  0  0  0
  187.9730  175.2580  141.6840 C   0  0  0  0  0  3  0  0  0  0  0  0
  187.0860  177.2980  140.4950 N   0  0  0  0  0  2  0  0  0  0  0  0
  184.3690  179.0670  143.2270 C   0  0  0  0  0  3  0  0  0  0  0  0
  185.7460  179.1590  143.4690 C   0  0  0  0  0  3  0  0  0  0  0  0
  182.1840  178.2960  141.7830 Cl  0  0  0  0  0  0  0  0  0  0  0  0
  183.9030  178.4030  142.0880 C   0  0  0  0  0  0  0  0  0  0  0  0
  184.8100  177.8260  141.1940 C   0  0  0  0  0  3  0  0  0  0  0  0
  186.1870  177.9010  141.4350 C   0  0  0  0  0  0  0  0  0  0  0  0
  186.6510  178.5810  142.5750 C   0  0  0  0  0  3  0  0  0  0  0  0
  1 36  1  6  0  0  0
  1 21  1  0  0  0  0
  2  4  1  0  0  0  0
  3  6  1  0  0  0  0
  3  2  1  0  0  0  0
  4  7  1  0  0  0  0
  5  7  1  0  0  0  0
  6  8  1  6  0  0  0
  6  5  1  0  0  0  0
  7  1  1  6  0  0  0
  9  8  1  0  0  0  0
  9 10  1  0  0  0  0
 10 11  1  0  0  0  0
 12 19  1  0  0  0  0
 13 20  1  0  0  0  0
 15 19  1  6  0  0  0
 15 14  1  0  0  0  0
 16 15  1  0  0  0  0
 17 11  1  6  0  0  0
 17 13  1  0  0  0  0
 17 16  1  0  0  0  0
 17 18  1  0  0  0  0
 18 12  1  0  0  0  0
 20 14  1  0  0  0  0
 21 22  1  0  0  0  0
 23 22  1  6  0  0  0
 24 23  1  6  0  0  0
 25 26  1  0  0  0  0
 25 24  1  0  0  0  0
 26 24  1  0  0  0  0
 27 25  2  0  0  0  0
 28 23  1  1  0  0  0
 28 30  1  0  0  0  0
 28 29  1  0  0  0  0
 29 31  1  6  0  0  0
 30 29  1  0  0  0  0
 31 32  1  0  0  0  0
 32 34  1  0  0  0  0
 33 34  1  0  0  0  0
 35 33  1  0  0  0  0
 35 34  1  0  0  0  0
 37 41  1  0  0  0  0
 37 36  1  0  0  0  0
 38 41  2  0  0  0  0
 39 40  1  0  0  0  0
 39 38  1  0  0  0  0
 40 37  2  0  0  0  0
 42 38  1  0  0  0  0
 42 48  1  0  0  0  0
 43 44  1  0  0  0  0
 45 46  1  0  0  0  0
 46 43  2  0  0  0  0
 47 48  2  0  0  0  0
 47 46  1  0  0  0  0
 48 49  1  0  0  0  0
 49 44  2  0  0  0  0
M  END
>  <MODEL>
2

>  <REMARK>
 VINA RESULT:      -6.6      2.687      6.091
  Name = 
  18 active torsions:
  status: ('A' for Active; 'I' for Inactive)
    1  A    between atoms: C_1  and  C_2
    2  A    between atoms: C_2  and  C_43
    3  A    between atoms: N_3  and  C_21
    4  A    between atoms: N_3  and  C_41
    5  A    between atoms: C_5  and  N_45
    6  A    between atoms: C_9  and  C_25
    7  A    between atoms: C_9  and  C_44
    8  A    between atoms: O_12  and  C_24
    9  A    between atoms: O_12  and  C_28
   10  A    between atoms: C_14  and  C_31
   11  A    between atoms: C_17  and  C_31
   12  A    between atoms: C_17  and  C_39
   13  A    between atoms: C_21  and  C_22
   14  A    between atoms: C_24  and  C_25
   15  A    between atoms: C_29  and  C_31
   16  A    between atoms: C_32  and  N_45
   17  A    between atoms: C_39  and  C_43
   18  A    between atoms: C_43  and  C_47
                            x       y       z     vdW  Elec       q    Type
                         _______ _______ _______ _____ _____    ______ ____

>  <TORSDO>
F 18

$$$$
=
 OpenBabel11042414093D

 49 56  0  0  1  0  0  0  0  0999 V2000
  189.4960  176.5750  144.4430 C   0  0  2  0  0  3  0  0  0  0  0  0
  191.7380  176.4890  147.5000 C   0  0  0  0  0  2  0  0  0  0  0  0
  192.5130  175.4500  146.6910 C   0  0  0  0  0  2  0  0  0  0  0  0
  190.3850  176.7430  146.8450 C   0  0  0  0  0  2  0  0  0  0  0  0
  191.9570  177.1170  144.8210 C   0  0  0  0  0  2  0  0  0  0  0  0
  192.6680  175.8160  145.2070 C   0  0  1  0  0  3  0  0  0  0  0  0
  190.5300  177.2080  145.3820 C   0  0  1  0  0  3  0  0  0  0  0  0
  194.1400  175.9190  144.8350 C   0  0  0  0  0  2  0  0  0  0  0  0
  195.0330  175.7080  146.0480 C   0  0  0  0  0  2  0  0  0  0  0  0
  195.8610  174.4410  145.9010 C   0  0  0  0  0  2  0  0  0  0  0  0
  195.9700  174.0920  144.5410 O   0  0  0  0  0  0  0  0  0  0  0  0
  197.4360  171.4840  142.8210 N   0  0  0  0  0  2  0  0  0  0  0  0
  194.4210  172.2130  144.6760 C   0  0  0  0  0  2  0  0  0  0  0  0
  195.2730  169.8230  144.9310 C   0  0  0  0  0  2  0  0  0  0  0  0
  196.7430  170.2520  144.8680 C   0  0  2  0  0  3  0  0  0  0  0  0
  197.0360  171.9270  145.5590 S   0  0  0  0  0  0  0  0  0  0  0  0
  195.8620  172.6890  144.3670 C   0  0  2  0  0  0  0  0  0  0  0  0
  196.2040  172.2610  142.9120 C   0  0  0  0  0  2  0  0  0  0  0  0
  197.2190  170.1670  143.4180 C   0  0  0  0  0  2  0  0  0  0  0  0
  194.3340  170.9060  145.4700 C   0  0  0  0  0  2  0  0  0  0  0  0
  188.3460  177.5400  144.2040 C   0  0  0  0  0  2  0  0  0  0  0  0
  187.0680  176.7680  143.9170 C   0  0  0  0  0  2  0  0  0  0  0  0
  186.0450  177.5940  143.1230 C   0  0  1  0  0  3  0  0  0  0  0  0
  185.8530  177.2580  141.6290 C   0  0  2  0  0  3  0  0  0  0  0  0
  187.1110  176.6610  141.0080 C   0  0  0  0  0  0  0  0  0  0  0  0
  186.6040  178.0780  140.7250 C   0  0  0  0  0  2  0  0  0  0  0  0
  187.9840  175.6740  140.8550 C   0  0  0  0  0  2  0  0  0  0  0  0
  184.7180  177.7530  143.8580 C   0  0  1  0  0  3  0  0  0  0  0  0
  184.8420  178.8730  144.8750 C   0  0  1  0  0  3  0  0  0  0  0  0
  184.1210  179.1120  143.5670 C   0  0  0  0  0  2  0  0  0  0  0  0
  183.8590  178.6780  145.9270 N   0  0  0  0  0  2  0  0  0  0  0  0
  184.5940  178.5570  147.1680 C   0  0  0  0  0  2  0  0  0  0  0  0
  186.7690  177.4540  147.5330 C   0  0  0  0  0  2  0  0  0  0  0  0
  186.0790  178.6360  146.8830 C   0  0  0  0  0  3  0  0  0  0  0  0
  186.8270  178.8160  148.1850 C   0  0  0  0  0  2  0  0  0  0  0  0
  188.9580  175.2470  144.9770 C   0  0  0  0  0  2  0  0  0  0  0  0
  189.6740  174.0890  144.3700 C   0  0  0  0  0  0  0  0  0  0  0  0
  190.8320  172.9600  142.7220 C   0  0  0  0  0  0  0  0  0  0  0  0
  190.7950  171.9070  144.0240 S   0  0  0  0  0  0  0  0  0  0  0  0
  189.9410  172.9120  145.0720 C   0  0  0  0  0  3  0  0  0  0  0  0
  190.1690  174.1300  143.0610 C   0  0  0  0  0  3  0  0  0  0  0  0
  191.4340  172.6510  141.4580 N   0  0  0  0  0  2  0  0  0  0  0  0
  189.6580  170.6160  138.1900 C   0  0  0  0  0  3  0  0  0  0  0  0
  189.1700  171.8750  138.5640 C   0  0  0  0  0  3  0  0  0  0  0  0
  191.3400  168.4760  138.4170 Cl  0  0  0  0  0  0  0  0  0  0  0  0
  190.7260  170.0450  138.8890 C   0  0  0  0  0  0  0  0  0  0  0  0
  191.3040  170.7280  139.9640 C   0  0  0  0  0  3  0  0  0  0  0  0
  190.8150  171.9810  140.3520 C   0  0  0  0  0  0  0  0  0  0  0  0
  189.7480  172.5560  139.6380 C   0  0  0  0  0  3  0  0  0  0  0  0
  1 21  1  1  0  0  0
  1 36  1  0  0  0  0
  3  2  1  0  0  0  0
  4  2  1  0  0  0  0
  5  6  1  0  0  0  0
  5  7  1  0  0  0  0
  6  8  1  1  0  0  0
  6  3  1  0  0  0  0
  7  1  1  6  0  0  0
  7  4  1  0  0  0  0
  8  9  1  0  0  0  0
 10  9  1  0  0  0  0
 11 10  1  0  0  0  0
 12 18  1  0  0  0  0
 12 19  1  0  0  0  0
 13 20  1  0  0  0  0
 14 20  1  0  0  0  0
 15 19  1  6  0  0  0
 15 14  1  0  0  0  0
 15 16  1  0  0  0  0
 17 11  1  1  0  0  0
 17 13  1  0  0  0  0
 17 16  1  0  0  0  0
 18 17  1  0  0  0  0
 22 21  1  0  0  0  0
 23 22  1  1  0  0  0
 24 23  1  1  0  0  0
 25 24  1  0  0  0  0
 26 25  1  0  0  0  0
 26 24  1  0  0  0  0
 27 25  2  0  0  0  0
 28 23  1  6  0  0  0
 28 29  1  0  0  0  0
 29 31  1  1  0  0  0
 30 28  1  0  0  0  0
 30 29  1  0  0  0  0
 31 32  1  0  0  0  0
 33 35  1  0  0  0  0
 34 32  1  0  0  0  0
 34 33  1  0  0  0  0
 34 35  1  0  0  0  0
 37 36  1  0  0  0  0
 37 40  2  0  0  0  0
 38 41  2  0  0  0  0
 38 39  1  0  0  0  0
 39 40  1  0  0  0  0
 41 37  1  0  0  0  0
 42 38  1  0  0  0  0
 43 44  2  0  0  0  0
 43 46  1  0  0  0  0
 44 49  1  0  0  0  0
 45 46  1  0  0  0  0
 46 47  2  0  0  0  0
 47 48  1  0  0  0  0
 48 42  1  0  0  0  0
 49 48  2  0  0  0  0
M  END
>  <MODEL>
3

>  <REMARK>
 VINA RESULT:      -6.5      1.882      2.301
  Name = 
  18 active torsions:
  status: ('A' for Active; 'I' for Inactive)
    1  A    between atoms: C_1  and  C_2
    2  A    between atoms: C_2  and  C_43
    3  A    between atoms: N_3  and  C_21
    4  A    between atoms: N_3  and  C_41
    5  A    between atoms: C_5  and  N_45
    6  A    between atoms: C_9  and  C_25
    7  A    between atoms: C_9  and  C_44
    8  A    between atoms: O_12  and  C_24
    9  A    between atoms: O_12  and  C_28
   10  A    between atoms: C_14  and  C_31
   11  A    between atoms: C_17  and  C_31
   12  A    between atoms: C_17  and  C_39
   13  A    between atoms: C_21  and  C_22
   14  A    between atoms: C_24  and  C_25
   15  A    between atoms: C_29  and  C_31
   16  A    between atoms: C_32  and  N_45
   17  A    between atoms: C_39  and  C_43
   18  A    between atoms: C_43  and  C_47
                            x       y       z     vdW  Elec       q    Type
                         _______ _______ _______ _____ _____    ______ ____

>  <TORSDO>
F 18

$$$$
=
 OpenBabel11042414093D

 49 56  0  0  1  0  0  0  0  0999 V2000
  193.9860  175.8800  144.9530 C   0  0  2  0  0  3  0  0  0  0  0  0
  190.7280  177.6190  144.0920 C   0  0  0  0  0  2  0  0  0  0  0  0
  190.1930  176.1910  143.9860 C   0  0  0  0  0  2  0  0  0  0  0  0
  192.2510  177.5920  144.1470 C   0  0  0  0  0  2  0  0  0  0  0  0
  191.6890  175.9320  146.0550 C   0  0  0  0  0  2  0  0  0  0  0  0
  190.6970  175.2610  145.0990 C   0  0  1  0  0  3  0  0  0  0  0  0
  192.7720  176.7390  145.3230 C   0  0  1  0  0  3  0  0  0  0  0  0
  189.5280  174.7040  145.8990 C   0  0  0  0  0  2  0  0  0  0  0  0
  189.2830  175.5190  147.1600 C   0  0  0  0  0  2  0  0  0  0  0  0
  188.2290  176.5880  146.9220 C   0  0  0  0  0  2  0  0  0  0  0  0
  187.0210  175.9910  146.5090 O   0  0  0  0  0  0  0  0  0  0  0  0
  184.4340  178.2710  146.5970 N   0  0  0  0  0  2  0  0  0  0  0  0
  186.3380  176.3560  144.1960 C   0  0  0  0  0  2  0  0  0  0  0  0
  185.6250  178.6660  143.3860 C   0  0  0  0  0  2  0  0  0  0  0  0
  185.7830  179.2940  144.7740 C   0  0  2  0  0  3  0  0  0  0  0  0
  187.1030  178.5040  145.7770 S   0  0  0  0  0  0  0  0  0  0  0  0
  186.2900  176.8590  145.6600 C   0  0  2  0  0  0  0  0  0  0  0  0
  184.7970  176.9560  146.0820 C   0  0  0  0  0  2  0  0  0  0  0  0
  184.4380  179.2360  145.4970 C   0  0  0  0  0  2  0  0  0  0  0  0
  186.5310  177.4540  143.1460 C   0  0  0  0  0  2  0  0  0  0  0  0
  194.3520  174.9650  146.1100 C   0  0  0  0  0  2  0  0  0  0  0  0
  193.9260  173.5380  145.8030 C   0  0  0  0  0  2  0  0  0  0  0  0
  194.0740  173.1850  144.3150 C   0  0  1  0  0  3  0  0  0  0  0  0
  195.3830  172.5040  143.8630 C   0  0  2  0  0  3  0  0  0  0  0  0
  195.9370  171.5610  144.9260 C   0  0  0  0  0  0  0  0  0  0  0  0
  196.5560  172.9180  144.5750 C   0  0  0  0  0  2  0  0  0  0  0  0
  195.8940  170.4370  145.6280 C   0  0  0  0  0  2  0  0  0  0  0  0
  192.8360  172.5000  143.7470 C   0  0  1  0  0  3  0  0  0  0  0  0
  192.4010  173.2220  142.4840 C   0  0  1  0  0  3  0  0  0  0  0  0
  193.1450  171.9080  142.3890 C   0  0  0  0  0  2  0  0  0  0  0  0
  190.9860  172.9800  142.2560 N   0  0  0  0  0  2  0  0  0  0  0  0
  190.5520  173.9470  141.2700 C   0  0  0  0  0  2  0  0  0  0  0  0
  188.3150  174.9370  140.9640 C   0  0  0  0  0  2  0  0  0  0  0  0
  189.1200  173.6560  140.8760 C   0  0  0  0  0  3  0  0  0  0  0  0
  188.2160  173.9050  142.0640 C   0  0  0  0  0  2  0  0  0  0  0  0
  195.1980  176.7230  144.5540 C   0  0  0  0  0  2  0  0  0  0  0  0
  195.7310  176.3110  143.2240 C   0  0  0  0  0  0  0  0  0  0  0  0
  195.5940  175.6910  141.0030 C   0  0  0  0  0  0  0  0  0  0  0  0
  197.2350  175.7830  141.3270 S   0  0  0  0  0  0  0  0  0  0  0  0
  197.0960  176.2440  142.9410 C   0  0  0  0  0  3  0  0  0  0  0  0
  194.8830  176.0100  142.1500 C   0  0  0  0  0  3  0  0  0  0  0  0
  195.0490  175.3060  139.7340 N   0  0  0  0  0  2  0  0  0  0  0  0
  193.4780  171.5190  138.6550 C   0  0  0  0  0  3  0  0  0  0  0  0
  194.7750  171.6020  139.1800 C   0  0  0  0  0  3  0  0  0  0  0  0
  191.0910  172.5730  137.8500 Cl  0  0  0  0  0  0  0  0  0  0  0  0
  192.7130  172.6790  138.4980 C   0  0  0  0  0  0  0  0  0  0  0  0
  193.2420  173.9210  138.8600 C   0  0  0  0  0  3  0  0  0  0  0  0
  194.5410  174.0150  139.3740 C   0  0  0  0  0  0  0  0  0  0  0  0
  195.3030  172.8450  139.5400 C   0  0  0  0  0  3  0  0  0  0  0  0
  1 36  1  1  0  0  0
  1 21  1  0  0  0  0
  2  4  1  0  0  0  0
  3  2  1  0  0  0  0
  3  6  1  0  0  0  0
  4  7  1  0  0  0  0
  6  8  1  1  0  0  0
  6  5  1  0  0  0  0
  7  1  1  6  0  0  0
  7  5  1  0  0  0  0
  8  9  1  0  0  0  0
 10  9  1  0  0  0  0
 11 10  1  0  0  0  0
 13 17  1  0  0  0  0
 15 14  1  6  0  0  0
 15 19  1  0  0  0  0
 15 16  1  0  0  0  0
 17 16  1  0  0  0  0
 17 18  1  0  0  0  0
 17 11  1  1  0  0  0
 18 12  1  0  0  0  0
 19 12  1  0  0  0  0
 20 14  1  0  0  0  0
 20 13  1  0  0  0  0
 22 21  1  0  0  0  0
 23 22  1  1  0  0  0
 24 23  1  1  0  0  0
 24 26  1  0  0  0  0
 24 25  1  0  0  0  0
 25 27  2  0  0  0  0
 26 25  1  0  0  0  0
 28 23  1  6  0  0  0
 29 31  1  1  0  0  0
 29 28  1  0  0  0  0
 30 29  1  0  0  0  0
 30 28  1  0  0  0  0
 32 31  1  0  0  0  0
 33 35  1  0  0  0  0
 34 33  1  0  0  0  0
 34 32  1  0  0  0  0
 34 35  1  0  0  0  0
 37 36  1  0  0  0  0
 38 39  1  0  0  0  0
 38 41  2  0  0  0  0
 39 40  1  0  0  0  0
 40 37  2  0  0  0  0
 41 37  1  0  0  0  0
 42 38  1  0  0  0  0
 43 44  1  0  0  0  0
 44 49  2  0  0  0  0
 45 46  1  0  0  0  0
 46 43  2  0  0  0  0
 46 47  1  0  0  0  0
 47 48  2  0  0  0  0
 48 49  1  0  0  0  0
 48 42  1  0  0  0  0
M  END
>  <MODEL>
4

>  <REMARK>
 VINA RESULT:      -6.4      2.688      8.430
  Name = 
  18 active torsions:
  status: ('A' for Active; 'I' for Inactive)
    1  A    between atoms: C_1  and  C_2
    2  A    between atoms: C_2  and  C_43
    3  A    between atoms: N_3  and  C_21
    4  A    between atoms: N_3  and  C_41
    5  A    between atoms: C_5  and  N_45
    6  A    between atoms: C_9  and  C_25
    7  A    between atoms: C_9  and  C_44
    8  A    between atoms: O_12  and  C_24
    9  A    between atoms: O_12  and  C_28
   10  A    between atoms: C_14  and  C_31
   11  A    between atoms: C_17  and  C_31
   12  A    between atoms: C_17  and  C_39
   13  A    between atoms: C_21  and  C_22
   14  A    between atoms: C_24  and  C_25
   15  A    between atoms: C_29  and  C_31
   16  A    between atoms: C_32  and  N_45
   17  A    between atoms: C_39  and  C_43
   18  A    between atoms: C_43  and  C_47
                            x       y       z     vdW  Elec       q    Type
                         _______ _______ _______ _____ _____    ______ ____

>  <TORSDO>
F 18

$$$$
=
 OpenBabel11042414093D

 49 56  0  0  1  0  0  0  0  0999 V2000
  192.8530  175.0060  143.3510 C   0  0  2  0  0  3  0  0  0  0  0  0
  194.1490  176.2610  146.6870 C   0  0  0  0  0  2  0  0  0  0  0  0
  192.7020  176.7110  146.8850 C   0  0  0  0  0  2  0  0  0  0  0  0
  194.3710  175.8810  145.2270 C   0  0  0  0  0  2  0  0  0  0  0  0
  192.2900  174.4370  145.7700 C   0  0  0  0  0  2  0  0  0  0  0  0
  191.6660  175.6800  146.4100 C   0  0  1  0  0  3  0  0  0  0  0  0
  193.4010  174.7750  144.7640 C   0  0  1  0  0  3  0  0  0  0  0  0
  190.7700  175.2550  147.5640 C   0  0  0  0  0  2  0  0  0  0  0  0
  189.3260  175.0920  147.1110 C   0  0  0  0  0  2  0  0  0  0  0  0
  188.9740  176.1090  146.0370 C   0  0  0  0  0  2  0  0  0  0  0  0
  187.5750  176.2160  145.9150 O   0  0  0  0  0  0  0  0  0  0  0  0
  188.3460  177.5200  142.8150 N   0  0  0  0  0  2  0  0  0  0  0  0
  186.6470  178.4710  145.8590 C   0  0  0  0  0  2  0  0  0  0  0  0
  185.6140  179.4140  143.7280 C   0  0  0  0  0  2  0  0  0  0  0  0
  185.9440  178.1600  142.9130 C   0  0  2  0  0  3  0  0  0  0  0  0
  185.9310  176.6230  143.9180 S   0  0  0  0  0  0  0  0  0  0  0  0
  187.2210  177.2820  145.0500 C   0  0  2  0  0  0  0  0  0  0  0  0
  188.4450  177.8000  144.2430 C   0  0  0  0  0  2  0  0  0  0  0  0
  187.2980  178.3570  142.2320 C   0  0  0  0  0  2  0  0  0  0  0  0
  185.4300  179.1510  145.2250 C   0  0  0  0  0  2  0  0  0  0  0  0
  193.6900  176.0480  142.6290 C   0  0  0  0  0  2  0  0  0  0  0  0
  193.9250  175.6220  141.1880 C   0  0  0  0  0  2  0  0  0  0  0  0
  195.2930  174.9540  140.9840 C   0  0  1  0  0  3  0  0  0  0  0  0
  195.8960  174.9640  139.5640 C   0  0  2  0  0  3  0  0  0  0  0  0
  194.8310  174.7930  138.4870 C   0  0  0  0  0  0  0  0  0  0  0  0
  195.8410  173.7080  138.8750 C   0  0  0  0  0  2  0  0  0  0  0  0
  193.8030  175.2380  137.7770 C   0  0  0  0  0  2  0  0  0  0  0  0
  196.3070  175.3540  142.0500 C   0  0  1  0  0  3  0  0  0  0  0  0
  196.8290  174.1050  142.7370 C   0  0  1  0  0  3  0  0  0  0  0  0
  197.6750  174.8080  141.6990 C   0  0  0  0  0  2  0  0  0  0  0  0
  197.3190  174.4530  144.0600 N   0  0  0  0  0  2  0  0  0  0  0  0
  197.7500  173.2200  144.6840 C   0  0  0  0  0  2  0  0  0  0  0  0
  196.8100  171.4110  146.0700 C   0  0  0  0  0  2  0  0  0  0  0  0
  196.8520  172.9110  145.8630 C   0  0  0  0  0  3  0  0  0  0  0  0
  195.6600  172.1120  145.3850 C   0  0  0  0  0  2  0  0  0  0  0  0
  191.3840  175.4320  143.3570 C   0  0  0  0  0  2  0  0  0  0  0  0
  190.5160  174.3960  142.7290 C   0  0  0  0  0  0  0  0  0  0  0  0
  189.7110  173.0920  141.0020 C   0  0  0  0  0  0  0  0  0  0  0  0
  188.8960  172.5570  142.3640 S   0  0  0  0  0  0  0  0  0  0  0  0
  189.6270  173.6070  143.4610 C   0  0  0  0  0  3  0  0  0  0  0  0
  190.5760  174.1150  141.3580 C   0  0  0  0  0  3  0  0  0  0  0  0
  189.4950  172.5700  139.6830 N   0  0  0  0  0  2  0  0  0  0  0  0
  189.1030  174.8170  136.1100 C   0  0  0  0  0  3  0  0  0  0  0  0
  190.2470  174.0320  136.3070 C   0  0  0  0  0  3  0  0  0  0  0  0
  186.6690  175.8210  136.8330 Cl  0  0  0  0  0  0  0  0  0  0  0  0
  188.1010  174.8470  137.0840 C   0  0  0  0  0  0  0  0  0  0  0  0
  188.2410  174.1000  138.2570 C   0  0  0  0  0  3  0  0  0  0  0  0
  189.3870  173.3230  138.4690 C   0  0  0  0  0  0  0  0  0  0  0  0
  190.3870  173.2860  137.4800 C   0  0  0  0  0  3  0  0  0  0  0  0
  1 21  1  1  0  0  0
  1 36  1  0  0  0  0
  2  3  1  0  0  0  0
  4  2  1  0  0  0  0
  5  6  1  0  0  0  0
  6  3  1  0  0  0  0
  6  8  1  1  0  0  0
  7  1  1  6  0  0  0
  7  4  1  0  0  0  0
  7  5  1  0  0  0  0
  9  8  1  0  0  0  0
 10  9  1  0  0  0  0
 11 10  1  0  0  0  0
 12 18  1  0  0  0  0
 14 20  1  0  0  0  0
 15 19  1  1  0  0  0
 15 14  1  0  0  0  0
 15 16  1  0  0  0  0
 16 17  1  0  0  0  0
 17 13  1  0  0  0  0
 17 11  1  1  0  0  0
 18 17  1  0  0  0  0
 19 12  1  0  0  0  0
 20 13  1  0  0  0  0
 22 21  1  0  0  0  0
 23 22  1  6  0  0  0
 24 23  1  1  0  0  0
 25 26  1  0  0  0  0
 25 24  1  0  0  0  0
 26 24  1  0  0  0  0
 27 25  2  0  0  0  0
 28 23  1  6  0  0  0
 28 29  1  0  0  0  0
 29 31  1  1  0  0  0
 30 28  1  0  0  0  0
 30 29  1  0  0  0  0
 31 32  1  0  0  0  0
 32 34  1  0  0  0  0
 34 33  1  0  0  0  0
 35 34  1  0  0  0  0
 35 33  1  0  0  0  0
 37 36  1  0  0  0  0
 37 40  2  0  0  0  0
 38 41  2  0  0  0  0
 38 39  1  0  0  0  0
 39 40  1  0  0  0  0
 41 37  1  0  0  0  0
 42 38  1  0  0  0  0
 43 44  2  0  0  0  0
 43 46  1  0  0  0  0
 44 49  1  0  0  0  0
 45 46  1  0  0  0  0
 46 47  2  0  0  0  0
 47 48  1  0  0  0  0
 48 42  1  0  0  0  0
 49 48  2  0  0  0  0
M  END
>  <MODEL>
5

>  <REMARK>
 VINA RESULT:      -6.3      3.082      8.672
  Name = 
  18 active torsions:
  status: ('A' for Active; 'I' for Inactive)
    1  A    between atoms: C_1  and  C_2
    2  A    between atoms: C_2  and  C_43
    3  A    between atoms: N_3  and  C_21
    4  A    between atoms: N_3  and  C_41
    5  A    between atoms: C_5  and  N_45
    6  A    between atoms: C_9  and  C_25
    7  A    between atoms: C_9  and  C_44
    8  A    between atoms: O_12  and  C_24
    9  A    between atoms: O_12  and  C_28
   10  A    between atoms: C_14  and  C_31
   11  A    between atoms: C_17  and  C_31
   12  A    between atoms: C_17  and  C_39
   13  A    between atoms: C_21  and  C_22
   14  A    between atoms: C_24  and  C_25
   15  A    between atoms: C_29  and  C_31
   16  A    between atoms: C_32  and  N_45
   17  A    between atoms: C_39  and  C_43
   18  A    between atoms: C_43  and  C_47
                            x       y       z     vdW  Elec       q    Type
                         _______ _______ _______ _____ _____    ______ ____

>  <TORSDO>
F 18

$$$$
=
 OpenBabel11042414093D

 49 56  0  0  1  0  0  0  0  0999 V2000
  193.4630  174.4500  145.4950 C   0  0  2  0  0  3  0  0  0  0  0  0
  197.2010  174.2960  144.8780 C   0  0  0  0  0  2  0  0  0  0  0  0
  196.7860  174.3360  143.4070 C   0  0  0  0  0  2  0  0  0  0  0  0
  195.9800  174.0150  145.7460 C   0  0  0  0  0  2  0  0  0  0  0  0
  195.1140  176.0290  144.3670 C   0  0  0  0  0  2  0  0  0  0  0  0
  195.6500  175.3280  143.1160 C   0  0  1  0  0  3  0  0  0  0  0  0
  194.8680  175.0620  145.5350 C   0  0  1  0  0  3  0  0  0  0  0  0
  196.1030  176.3750  142.1080 C   0  0  0  0  0  2  0  0  0  0  0  0
  197.1670  175.8190  141.1740 C   0  0  0  0  0  2  0  0  0  0  0  0
  196.6060  175.6050  139.7770 C   0  0  0  0  0  2  0  0  0  0  0  0
  195.2000  175.6800  139.8040 O   0  0  0  0  0  0  0  0  0  0  0  0
  195.5370  172.2730  139.3720 N   0  0  0  0  0  2  0  0  0  0  0  0
  193.9170  175.1020  137.8120 C   0  0  0  0  0  2  0  0  0  0  0  0
  192.6030  172.9220  137.6830 C   0  0  0  0  0  2  0  0  0  0  0  0
  193.0760  172.4570  139.0630 C   0  0  2  0  0  3  0  0  0  0  0  0
  193.3800  173.8450  140.2270 S   0  0  0  0  0  0  0  0  0  0  0  0
  194.6200  174.5970  139.0960 C   0  0  2  0  0  0  0  0  0  0  0  0
  195.6860  173.5460  138.6750 C   0  0  0  0  0  2  0  0  0  0  0  0
  194.3300  171.6010  138.8920 C   0  0  0  0  0  2  0  0  0  0  0  0
  192.5650  174.4440  137.5190 C   0  0  0  0  0  2  0  0  0  0  0  0
  192.5580  175.1510  146.4950 C   0  0  0  0  0  2  0  0  0  0  0  0
  191.2320  175.5060  145.8400 C   0  0  0  0  0  2  0  0  0  0  0  0
  191.2310  176.9190  145.2360 C   0  0  1  0  0  3  0  0  0  0  0  0
  191.6040  177.0660  143.7470 C   0  0  2  0  0  3  0  0  0  0  0  0
  190.3730  177.2160  142.8590 C   0  0  0  0  0  0  0  0  0  0  0  0
  191.2400  175.9530  142.9200 C   0  0  0  0  0  2  0  0  0  0  0  0
  189.3360  177.9060  142.4040 C   0  0  0  0  0  2  0  0  0  0  0  0
  189.9840  177.7150  145.6050 C   0  0  1  0  0  3  0  0  0  0  0  0
  188.8450  176.7540  145.8950 C   0  0  1  0  0  3  0  0  0  0  0  0
  189.5820  177.4220  147.0340 C   0  0  0  0  0  2  0  0  0  0  0  0
  187.5770  177.4350  145.6890 N   0  0  0  0  0  2  0  0  0  0  0  0
  186.6130  176.7920  146.5550 C   0  0  0  0  0  2  0  0  0  0  0  0
  184.4590  177.9690  146.3210 C   0  0  0  0  0  2  0  0  0  0  0  0
  185.7090  177.8400  147.1680 C   0  0  0  0  0  3  0  0  0  0  0  0
  185.5620  178.9960  146.2030 C   0  0  0  0  0  2  0  0  0  0  0  0
  193.4730  172.9460  145.7700 C   0  0  0  0  0  2  0  0  0  0  0  0
  192.9090  172.1810  144.6210 C   0  0  0  0  0  0  0  0  0  0  0  0
  191.3180  171.6250  143.0420 C   0  0  0  0  0  0  0  0  0  0  0  0
  192.6330  170.6480  142.6940 S   0  0  0  0  0  0  0  0  0  0  0  0
  193.6360  171.2160  143.9230 C   0  0  0  0  0  3  0  0  0  0  0  0
  191.6170  172.4220  144.1360 C   0  0  0  0  0  3  0  0  0  0  0  0
  190.0800  171.5900  142.3190 N   0  0  0  0  0  2  0  0  0  0  0  0
  188.1230  174.8610  140.4630 C   0  0  0  0  0  3  0  0  0  0  0  0
  188.9910  174.0610  139.7090 C   0  0  0  0  0  3  0  0  0  0  0  0
  186.8130  175.5670  142.7530 Cl  0  0  0  0  0  0  0  0  0  0  0  0
  187.9030  174.5720  141.8140 C   0  0  0  0  0  0  0  0  0  0  0  0
  188.5530  173.4890  142.4130 C   0  0  0  0  0  3  0  0  0  0  0  0
  189.4330  172.6920  141.6700 C   0  0  0  0  0  0  0  0  0  0  0  0
  189.6410  172.9790  140.3090 C   0  0  0  0  0  3  0  0  0  0  0  0
  1 36  1  1  0  0  0
  1 21  1  0  0  0  0
  2  4  1  0  0  0  0
  3  2  1  0  0  0  0
  5  7  1  0  0  0  0
  6  8  1  6  0  0  0
  6  3  1  0  0  0  0
  6  5  1  0  0  0  0
  7  1  1  6  0  0  0
  7  4  1  0  0  0  0
  9  8  1  0  0  0  0
 10 11  1  0  0  0  0
 10  9  1  0  0  0  0
 13 17  1  0  0  0  0
 15 14  1  6  0  0  0
 15 16  1  0  0  0  0
 17 11  1  1  0  0  0
 17 16  1  0  0  0  0
 18 17  1  0  0  0  0
 18 12  1  0  0  0  0
 19 15  1  0  0  0  0
 19 12  1  0  0  0  0
 20 14  1  0  0  0  0
 20 13  1  0  0  0  0
 22 21  1  0  0  0  0
 23 22  1  6  0  0  0
 24 23  1  1  0  0  0
 25 26  1  0  0  0  0
 25 24  1  0  0  0  0
 26 24  1  0  0  0  0
 27 25  2  0  0  0  0
 28 23  1  1  0  0  0
 28 29  1  0  0  0  0
 28 30  1  0  0  0  0
 29 31  1  6  0  0  0
 29 30  1  0  0  0  0
 31 32  1  0  0  0  0
 32 34  1  0  0  0  0
 33 34  1  0  0  0  0
 35 33  1  0  0  0  0
 35 34  1  0  0  0  0
 37 36  1  0  0  0  0
 38 41  2  0  0  0  0
 39 38  1  0  0  0  0
 39 40  1  0  0  0  0
 40 37  2  0  0  0  0
 41 37  1  0  0  0  0
 42 38  1  0  0  0  0
 43 46  1  0  0  0  0
 44 49  1  0  0  0  0
 44 43  2  0  0  0  0
 46 47  2  0  0  0  0
 46 45  1  0  0  0  0
 48 42  1  0  0  0  0
 48 47  1  0  0  0  0
 49 48  2  0  0  0  0
M  END
>  <MODEL>
6

>  <REMARK>
 VINA RESULT:      -6.1      2.592      5.199
  Name = 
  18 active torsions:
  status: ('A' for Active; 'I' for Inactive)
    1  A    between atoms: C_1  and  C_2
    2  A    between atoms: C_2  and  C_43
    3  A    between atoms: N_3  and  C_21
    4  A    between atoms: N_3  and  C_41
    5  A    between atoms: C_5  and  N_45
    6  A    between atoms: C_9  and  C_25
    7  A    between atoms: C_9  and  C_44
    8  A    between atoms: O_12  and  C_24
    9  A    between atoms: O_12  and  C_28
   10  A    between atoms: C_14  and  C_31
   11  A    between atoms: C_17  and  C_31
   12  A    between atoms: C_17  and  C_39
   13  A    between atoms: C_21  and  C_22
   14  A    between atoms: C_24  and  C_25
   15  A    between atoms: C_29  and  C_31
   16  A    between atoms: C_32  and  N_45
   17  A    between atoms: C_39  and  C_43
   18  A    between atoms: C_43  and  C_47
                            x       y       z     vdW  Elec       q    Type
                         _______ _______ _______ _____ _____    ______ ____

>  <TORSDO>
F 18

$$$$
=
 OpenBabel11042414093D

 49 56  0  0  1  0  0  0  0  0999 V2000
  194.0500  174.3480  144.5210 C   0  0  2  0  0  3  0  0  0  0  0  0
  192.3160  176.5440  147.0810 C   0  0  0  0  0  2  0  0  0  0  0  0
  191.3240  176.7900  145.9450 C   0  0  0  0  0  2  0  0  0  0  0  0
  193.5690  175.8720  146.5300 C   0  0  0  0  0  2  0  0  0  0  0  0
  191.7450  174.2820  145.6050 C   0  0  0  0  0  2  0  0  0  0  0  0
  190.9770  175.5240  145.1460 C   0  0  1  0  0  3  0  0  0  0  0  0
  193.2440  174.5470  145.8100 C   0  0  1  0  0  3  0  0  0  0  0  0
  189.4820  175.2450  145.2150 C   0  0  0  0  0  2  0  0  0  0  0  0
  188.8330  175.9920  146.3700 C   0  0  0  0  0  2  0  0  0  0  0  0
  187.6830  176.8570  145.8810 C   0  0  0  0  0  2  0  0  0  0  0  0
  188.0620  177.5500  144.7150 O   0  0  0  0  0  0  0  0  0  0  0  0
  186.8950  178.0040  141.5000 N   0  0  0  0  0  2  0  0  0  0  0  0
  186.1360  179.0380  144.8790 C   0  0  0  0  0  2  0  0  0  0  0  0
  184.0960  178.7150  143.3840 C   0  0  0  0  0  2  0  0  0  0  0  0
  184.7290  177.5390  142.6320 C   0  0  2  0  0  3  0  0  0  0  0  0
  185.8780  176.5530  143.6710 S   0  0  0  0  0  0  0  0  0  0  0  0
  186.9250  178.0250  144.0140 C   0  0  2  0  0  0  0  0  0  0  0  0
  187.3210  178.7350  142.6880 C   0  0  0  0  0  2  0  0  0  0  0  0
  185.4380  178.0750  141.3890 C   0  0  0  0  0  2  0  0  0  0  0  0
  184.6130  178.8870  144.8150 C   0  0  0  0  0  2  0  0  0  0  0  0
  195.2400  173.4390  144.7820 C   0  0  0  0  0  2  0  0  0  0  0  0
  194.8450  171.9870  144.5660 C   0  0  0  0  0  2  0  0  0  0  0  0
  193.9590  171.7940  143.3260 C   0  0  1  0  0  3  0  0  0  0  0  0
  194.5900  171.1280  142.0860 C   0  0  2  0  0  3  0  0  0  0  0  0
  195.8010  170.2740  142.4460 C   0  0  0  0  0  0  0  0  0  0  0  0
  195.8860  171.6240  141.7270 C   0  0  0  0  0  2  0  0  0  0  0  0
  196.3520  169.1970  142.9890 C   0  0  0  0  0  2  0  0  0  0  0  0
  192.5910  171.2120  143.6660 C   0  0  1  0  0  3  0  0  0  0  0  0
  191.5350  171.8860  142.8080 C   0  0  1  0  0  3  0  0  0  0  0  0
  192.0170  170.4940  142.4640 C   0  0  0  0  0  2  0  0  0  0  0  0
  190.2450  171.7890  143.4700 N   0  0  0  0  0  2  0  0  0  0  0  0
  189.3200  172.5940  142.7010 C   0  0  0  0  0  2  0  0  0  0  0  0
  189.5990  174.8350  141.7130 C   0  0  0  0  0  2  0  0  0  0  0  0
  190.0870  173.4010  141.6760 C   0  0  0  0  0  3  0  0  0  0  0  0
  189.1280  173.9050  140.6190 C   0  0  0  0  0  2  0  0  0  0  0  0
  194.5280  175.6710  143.9210 C   0  0  0  0  0  2  0  0  0  0  0  0
  194.9110  175.5100  142.4890 C   0  0  0  0  0  0  0  0  0  0  0  0
  194.5330  175.1980  140.2330 C   0  0  0  0  0  0  0  0  0  0  0  0
  196.1880  175.4180  140.3690 S   0  0  0  0  0  0  0  0  0  0  0  0
  196.2270  175.6300  142.0390 C   0  0  0  0  0  3  0  0  0  0  0  0
  193.9570  175.2750  141.4920 C   0  0  0  0  0  3  0  0  0  0  0  0
  193.8580  174.9400  138.9940 N   0  0  0  0  0  2  0  0  0  0  0  0
  191.0470  171.8740  138.1770 C   0  0  0  0  0  3  0  0  0  0  0  0
  192.1680  171.5870  138.9670 C   0  0  0  0  0  3  0  0  0  0  0  0
  189.4560  173.5250  136.6930 Cl  0  0  0  0  0  0  0  0  0  0  0  0
  190.8600  173.1650  137.6720 C   0  0  0  0  0  0  0  0  0  0  0  0
  191.7940  174.1670  137.9510 C   0  0  0  0  0  3  0  0  0  0  0  0
  192.9240  173.8870  138.7290 C   0  0  0  0  0  0  0  0  0  0  0  0
  193.1010  172.5890  139.2440 C   0  0  0  0  0  3  0  0  0  0  0  0
  1 36  1  1  0  0  0
  1 21  1  0  0  0  0
  3  2  1  0  0  0  0
  4  2  1  0  0  0  0
  5  7  1  0  0  0  0
  6  8  1  1  0  0  0
  6  5  1  0  0  0  0
  6  3  1  0  0  0  0
  7  1  1  6  0  0  0
  7  4  1  0  0  0  0
  8  9  1  0  0  0  0
 10  9  1  0  0  0  0
 11 10  1  0  0  0  0
 12 18  1  0  0  0  0
 14 20  1  0  0  0  0
 15 19  1  6  0  0  0
 15 14  1  0  0  0  0
 15 16  1  0  0  0  0
 16 17  1  0  0  0  0
 17 11  1  1  0  0  0
 17 13  1  0  0  0  0
 18 17  1  0  0  0  0
 19 12  1  0  0  0  0
 20 13  1  0  0  0  0
 22 21  1  0  0  0  0
 23 22  1  1  0  0  0
 24 25  1  0  0  0  0
 24 23  1  1  0  0  0
 25 27  2  0  0  0  0
 26 24  1  0  0  0  0
 26 25  1  0  0  0  0
 28 23  1  6  0  0  0
 29 31  1  1  0  0  0
 29 28  1  0  0  0  0
 30 29  1  0  0  0  0
 30 28  1  0  0  0  0
 32 31  1  0  0  0  0
 34 33  1  0  0  0  0
 34 32  1  0  0  0  0
 35 34  1  0  0  0  0
 35 33  1  0  0  0  0
 37 36  1  0  0  0  0
 38 39  1  0  0  0  0
 38 41  2  0  0  0  0
 39 40  1  0  0  0  0
 40 37  2  0  0  0  0
 41 37  1  0  0  0  0
 42 38  1  0  0  0  0
 43 44  1  0  0  0  0
 44 49  2  0  0  0  0
 45 46  1  0  0  0  0
 46 47  1  0  0  0  0
 46 43  2  0  0  0  0
 47 48  2  0  0  0  0
 48 42  1  0  0  0  0
 48 49  1  0  0  0  0
M  END
>  <MODEL>
7

>  <REMARK>
 VINA RESULT:      -6.1      2.828      8.439
  Name = 
  18 active torsions:
  status: ('A' for Active; 'I' for Inactive)
    1  A    between atoms: C_1  and  C_2
    2  A    between atoms: C_2  and  C_43
    3  A    between atoms: N_3  and  C_21
    4  A    between atoms: N_3  and  C_41
    5  A    between atoms: C_5  and  N_45
    6  A    between atoms: C_9  and  C_25
    7  A    between atoms: C_9  and  C_44
    8  A    between atoms: O_12  and  C_24
    9  A    between atoms: O_12  and  C_28
   10  A    between atoms: C_14  and  C_31
   11  A    between atoms: C_17  and  C_31
   12  A    between atoms: C_17  and  C_39
   13  A    between atoms: C_21  and  C_22
   14  A    between atoms: C_24  and  C_25
   15  A    between atoms: C_29  and  C_31
   16  A    between atoms: C_32  and  N_45
   17  A    between atoms: C_39  and  C_43
   18  A    between atoms: C_43  and  C_47
                            x       y       z     vdW  Elec       q    Type
                         _______ _______ _______ _____ _____    ______ ____

>  <TORSDO>
F 18

$$$$
=
 OpenBabel11042414093D

 49 56  0  0  1  0  0  0  0  0999 V2000
  192.8060  173.0720  144.7680 C   0  0  2  0  0  3  0  0  0  0  0  0
  195.7050  170.7180  145.4270 C   0  0  0  0  0  2  0  0  0  0  0  0
  195.9880  170.9250  143.9400 C   0  0  0  0  0  2  0  0  0  0  0  0
  194.3170  171.2500  145.7630 C   0  0  0  0  0  2  0  0  0  0  0  0
  195.3350  173.3210  144.5860 C   0  0  0  0  0  2  0  0  0  0  0  0
  195.8200  172.3810  143.4790 C   0  0  1  0  0  3  0  0  0  0  0  0
  194.1650  172.7400  145.3950 C   0  0  1  0  0  3  0  0  0  0  0  0
  197.1250  172.9120  142.9040 C   0  0  0  0  0  2  0  0  0  0  0  0
  197.1330  174.4330  142.8650 C   0  0  0  0  0  2  0  0  0  0  0  0
  197.3470  174.9410  141.4480 C   0  0  0  0  0  2  0  0  0  0  0  0
  197.9050  173.9230  140.6500 O   0  0  0  0  0  0  0  0  0  0  0  0
  195.1900  175.2020  138.9480 N   0  0  0  0  0  2  0  0  0  0  0  0
  197.6350  172.5580  138.6470 C   0  0  0  0  0  2  0  0  0  0  0  0
  196.9210  173.6020  136.4330 C   0  0  0  0  0  2  0  0  0  0  0  0
  196.7760  174.9990  137.0430 C   0  0  2  0  0  3  0  0  0  0  0  0
  197.9410  175.3070  138.4280 S   0  0  0  0  0  0  0  0  0  0  0  0
  197.2820  173.8770  139.3770 C   0  0  2  0  0  0  0  0  0  0  0  0
  195.7340  173.9610  139.4900 C   0  0  0  0  0  2  0  0  0  0  0  0
  195.3280  175.1920  137.4920 C   0  0  0  0  0  2  0  0  0  0  0  0
  197.9390  172.7130  137.1540 C   0  0  0  0  0  2  0  0  0  0  0  0
  191.9300  173.8020  145.7720 C   0  0  0  0  0  2  0  0  0  0  0  0
  192.7100  174.9340  146.4210 C   0  0  0  0  0  2  0  0  0  0  0  0
  192.1690  176.3200  146.0380 C   0  0  1  0  0  3  0  0  0  0  0  0
  193.0260  177.1940  145.0990 C   0  0  2  0  0  3  0  0  0  0  0  0
  193.3700  176.4740  143.7990 C   0  0  0  0  0  0  0  0  0  0  0  0
  194.3760  176.7460  144.9220 C   0  0  0  0  0  2  0  0  0  0  0  0
  193.0400  175.9750  142.6150 C   0  0  0  0  0  2  0  0  0  0  0  0
  190.7030  176.2840  145.6210 C   0  0  1  0  0  3  0  0  0  0  0  0
  189.8620  176.9520  146.6940 C   0  0  1  0  0  3  0  0  0  0  0  0
  190.1850  177.6910  145.4140 C   0  0  0  0  0  2  0  0  0  0  0  0
  188.5000  176.4520  146.6190 N   0  0  0  0  0  2  0  0  0  0  0  0
  187.6320  177.5450  146.9990 C   0  0  0  0  0  2  0  0  0  0  0  0
  185.2940  178.0810  146.4260 C   0  0  0  0  0  2  0  0  0  0  0  0
  186.6820  177.8530  145.8610 C   0  0  0  0  0  3  0  0  0  0  0  0
  185.6380  176.7620  145.7740 C   0  0  0  0  0  2  0  0  0  0  0  0
  192.0810  171.8270  144.2540 C   0  0  0  0  0  2  0  0  0  0  0  0
  191.0660  172.1790  143.2200 C   0  0  0  0  0  0  0  0  0  0  0  0
  189.1930  173.2430  142.3870 C   0  0  0  0  0  0  0  0  0  0  0  0
  189.8300  172.4040  141.0850 S   0  0  0  0  0  0  0  0  0  0  0  0
  191.1470  171.7380  141.8980 C   0  0  0  0  0  3  0  0  0  0  0  0
  189.9850  173.0230  143.5040 C   0  0  0  0  0  3  0  0  0  0  0  0
  187.9950  174.0280  142.3260 N   0  0  0  0  0  2  0  0  0  0  0  0
  187.6600  178.2490  142.1220 C   0  0  0  0  0  3  0  0  0  0  0  0
  188.9260  177.6550  142.0430 C   0  0  0  0  0  3  0  0  0  0  0  0
  184.9390  178.1920  142.3490 Cl  0  0  0  0  0  0  0  0  0  0  0  0
  186.5210  177.4500  142.2590 C   0  0  0  0  0  0  0  0  0  0  0  0
  186.6450  176.0590  142.3230 C   0  0  0  0  0  3  0  0  0  0  0  0
  187.9080  175.4570  142.2580 C   0  0  0  0  0  0  0  0  0  0  0  0
  189.0500  176.2650  142.1080 C   0  0  0  0  0  3  0  0  0  0  0  0
  1 36  1  1  0  0  0
  1 21  1  0  0  0  0
  2  4  1  0  0  0  0
  3  2  1  0  0  0  0
  5  7  1  0  0  0  0
  6  8  1  1  0  0  0
  6  3  1  0  0  0  0
  6  5  1  0  0  0  0
  7  1  1  6  0  0  0
  7  4  1  0  0  0  0
  9  8  1  0  0  0  0
 10  9  1  0  0  0  0
 11 10  1  0  0  0  0
 12 18  1  0  0  0  0
 13 17  1  0  0  0  0
 14 20  1  0  0  0  0
 15 14  1  1  0  0  0
 15 19  1  0  0  0  0
 15 16  1  0  0  0  0
 16 17  1  0  0  0  0
 17 18  1  0  0  0  0
 17 11  1  1  0  0  0
 19 12  1  0  0  0  0
 20 13  1  0  0  0  0
 21 22  1  0  0  0  0
 23 22  1  6  0  0  0
 24 23  1  1  0  0  0
 25 26  1  0  0  0  0
 25 24  1  0  0  0  0
 26 24  1  0  0  0  0
 27 25  2  0  0  0  0
 28 23  1  1  0  0  0
 28 29  1  0  0  0  0
 29 31  1  6  0  0  0
 30 28  1  0  0  0  0
 30 29  1  0  0  0  0
 31 32  1  0  0  0  0
 34 33  1  0  0  0  0
 34 32  1  0  0  0  0
 35 34  1  0  0  0  0
 35 33  1  0  0  0  0
 37 41  1  0  0  0  0
 37 36  1  0  0  0  0
 38 41  2  0  0  0  0
 39 40  1  0  0  0  0
 39 38  1  0  0  0  0
 40 37  2  0  0  0  0
 42 38  1  0  0  0  0
 43 46  1  0  0  0  0
 44 49  1  0  0  0  0
 44 43  2  0  0  0  0
 46 47  2  0  0  0  0
 46 45  1  0  0  0  0
 48 47  1  0  0  0  0
 48 42  1  0  0  0  0
 49 48  2  0  0  0  0
M  END
>  <MODEL>
8

>  <REMARK>
 VINA RESULT:      -6.1      2.853      6.109
  Name = 
  18 active torsions:
  status: ('A' for Active; 'I' for Inactive)
    1  A    between atoms: C_1  and  C_2
    2  A    between atoms: C_2  and  C_43
    3  A    between atoms: N_3  and  C_21
    4  A    between atoms: N_3  and  C_41
    5  A    between atoms: C_5  and  N_45
    6  A    between atoms: C_9  and  C_25
    7  A    between atoms: C_9  and  C_44
    8  A    between atoms: O_12  and  C_24
    9  A    between atoms: O_12  and  C_28
   10  A    between atoms: C_14  and  C_31
   11  A    between atoms: C_17  and  C_31
   12  A    between atoms: C_17  and  C_39
   13  A    between atoms: C_21  and  C_22
   14  A    between atoms: C_24  and  C_25
   15  A    between atoms: C_29  and  C_31
   16  A    between atoms: C_32  and  N_45
   17  A    between atoms: C_39  and  C_43
   18  A    between atoms: C_43  and  C_47
                            x       y       z     vdW  Elec       q    Type
                         _______ _______ _______ _____ _____    ______ ____

>  <TORSDO>
F 18

$$$$
=
 OpenBabel11042414093D

 49 56  0  0  1  0  0  0  0  0999 V2000
  195.1870  172.0740  142.0310 C   0  0  2  0  0  3  0  0  0  0  0  0
  191.8710  171.0040  143.5290 C   0  0  0  0  0  2  0  0  0  0  0  0
  191.7870  172.4700  143.9550 C   0  0  0  0  0  2  0  0  0  0  0  0
  193.2880  170.6890  143.0620 C   0  0  0  0  0  2  0  0  0  0  0  0
  192.7730  172.7680  141.6050 C   0  0  0  0  0  2  0  0  0  0  0  0
  192.2530  173.4540  142.8710 C   0  0  1  0  0  3  0  0  0  0  0  0
  193.7330  171.6060  141.9050 C   0  0  1  0  0  3  0  0  0  0  0  0
  191.1270  174.4080  142.5000 C   0  0  0  0  0  2  0  0  0  0  0  0
  189.7810  173.8930  142.9870 C   0  0  0  0  0  2  0  0  0  0  0  0
  188.6440  174.4850  142.1710 C   0  0  0  0  0  2  0  0  0  0  0  0
  188.7810  175.8850  142.0960 O   0  0  0  0  0  0  0  0  0  0  0  0
  185.9440  176.8060  143.8300 N   0  0  0  0  0  2  0  0  0  0  0  0
  187.0680  176.3570  140.4250 C   0  0  0  0  0  2  0  0  0  0  0  0
  185.4040  178.2610  140.7520 C   0  0  0  0  0  2  0  0  0  0  0  0
  185.9610  178.6230  142.1310 C   0  0  2  0  0  3  0  0  0  0  0  0
  187.7600  178.2880  142.2940 S   0  0  0  0  0  0  0  0  0  0  0  0
  187.5230  176.5080  141.8980 C   0  0  2  0  0  0  0  0  0  0  0  0
  186.4220  175.8870  142.8040 C   0  0  0  0  0  2  0  0  0  0  0  0
  185.1650  177.8710  143.1970 C   0  0  0  0  0  2  0  0  0  0  0  0
  186.4300  177.6100  139.8190 C   0  0  0  0  0  2  0  0  0  0  0  0
  195.9550  171.7450  140.7620 C   0  0  0  0  0  2  0  0  0  0  0  0
  196.6190  172.9980  140.2140 C   0  0  0  0  0  2  0  0  0  0  0  0
  195.6160  174.1310  139.9490 C   0  0  1  0  0  3  0  0  0  0  0  0
  195.9410  175.5280  140.5150 C   0  0  2  0  0  3  0  0  0  0  0  0
  196.7520  175.4510  141.8040 C   0  0  0  0  0  0  0  0  0  0  0  0
  195.2750  175.8520  141.7430 C   0  0  0  0  0  2  0  0  0  0  0  0
  197.8740  175.2020  142.4670 C   0  0  0  0  0  2  0  0  0  0  0  0
  195.1600  174.1850  138.4940 C   0  0  1  0  0  3  0  0  0  0  0  0
  193.6810  173.8490  138.4210 C   0  0  1  0  0  3  0  0  0  0  0  0
  194.1390  175.2860  138.3090 C   0  0  0  0  0  2  0  0  0  0  0  0
  193.3670  173.3480  137.0940 N   0  0  0  0  0  2  0  0  0  0  0  0
  191.9300  173.1850  137.0390 C   0  0  0  0  0  2  0  0  0  0  0  0
  190.0940  172.0000  138.1790 C   0  0  0  0  0  2  0  0  0  0  0  0
  191.4280  172.6900  138.3780 C   0  0  0  0  0  3  0  0  0  0  0  0
  190.1430  173.4080  138.7250 C   0  0  0  0  0  2  0  0  0  0  0  0
  195.8950  171.4610  143.2400 C   0  0  0  0  0  2  0  0  0  0  0  0
  196.1540  172.4840  144.2930 C   0  0  0  0  0  0  0  0  0  0  0  0
  195.6450  174.2790  145.6540 C   0  0  0  0  0  0  0  0  0  0  0  0
  197.1740  173.7930  146.1340 S   0  0  0  0  0  0  0  0  0  0  0  0
  197.3270  172.5120  145.0500 C   0  0  0  0  0  3  0  0  0  0  0  0
  195.2060  173.4610  144.6240 C   0  0  0  0  0  3  0  0  0  0  0  0
  194.9440  175.3940  146.2210 N   0  0  0  0  0  2  0  0  0  0  0  0
  190.9770  176.6020  145.3400 C   0  0  0  0  0  3  0  0  0  0  0  0
  192.0430  177.1740  144.6340 C   0  0  0  0  0  3  0  0  0  0  0  0
  189.8940  174.9160  147.1950 Cl  0  0  0  0  0  0  0  0  0  0  0  0
  191.2260  175.6360  146.3200 C   0  0  0  0  0  0  0  0  0  0  0  0
  192.5390  175.2450  146.5990 C   0  0  0  0  0  3  0  0  0  0  0  0
  193.6120  175.8210  145.9080 C   0  0  0  0  0  0  0  0  0  0  0  0
  193.3550  176.7840  144.9150 C   0  0  0  0  0  3  0  0  0  0  0  0
  1 21  1  6  0  0  0
  1 36  1  0  0  0  0
  2  3  1  0  0  0  0
  4  2  1  0  0  0  0
  5  7  1  0  0  0  0
  5  6  1  0  0  0  0
  6  8  1  6  0  0  0
  6  3  1  0  0  0  0
  7  1  1  1  0  0  0
  7  4  1  0  0  0  0
  8  9  1  0  0  0  0
 10  9  1  0  0  0  0
 11 10  1  0  0  0  0
 13 17  1  0  0  0  0
 15 14  1  6  0  0  0
 15 16  1  0  0  0  0
 15 19  1  0  0  0  0
 17 11  1  1  0  0  0
 17 16  1  0  0  0  0
 17 18  1  0  0  0  0
 18 12  1  0  0  0  0
 19 12  1  0  0  0  0
 20 13  1  0  0  0  0
 20 14  1  0  0  0  0
 22 21  1  0  0  0  0
 23 22  1  6  0  0  0
 24 23  1  1  0  0  0
 24 26  1  0  0  0  0
 24 25  1  0  0  0  0
 25 27  2  0  0  0  0
 26 25  1  0  0  0  0
 28 23  1  1  0  0  0
 29 31  1  6  0  0  0
 29 28  1  0  0  0  0
 30 29  1  0  0  0  0
 30 28  1  0  0  0  0
 32 31  1  0  0  0  0
 32 34  1  0  0  0  0
 33 34  1  0  0  0  0
 33 35  1  0  0  0  0
 34 35  1  0  0  0  0
 36 37  1  0  0  0  0
 37 41  1  0  0  0  0
 37 40  2  0  0  0  0
 38 39  1  0  0  0  0
 38 42  1  0  0  0  0
 40 39  1  0  0  0  0
 41 38  2  0  0  0  0
 43 46  1  0  0  0  0
 44 49  1  0  0  0  0
 44 43  2  0  0  0  0
 46 47  2  0  0  0  0
 46 45  1  0  0  0  0
 48 42  1  0  0  0  0
 48 47  1  0  0  0  0
 49 48  2  0  0  0  0
M  END
>  <MODEL>
9

>  <REMARK>
 VINA RESULT:      -6.1      2.893      9.378
  Name = 
  18 active torsions:
  status: ('A' for Active; 'I' for Inactive)
    1  A    between atoms: C_1  and  C_2
    2  A    between atoms: C_2  and  C_43
    3  A    between atoms: N_3  and  C_21
    4  A    between atoms: N_3  and  C_41
    5  A    between atoms: C_5  and  N_45
    6  A    between atoms: C_9  and  C_25
    7  A    between atoms: C_9  and  C_44
    8  A    between atoms: O_12  and  C_24
    9  A    between atoms: O_12  and  C_28
   10  A    between atoms: C_14  and  C_31
   11  A    between atoms: C_17  and  C_31
   12  A    between atoms: C_17  and  C_39
   13  A    between atoms: C_21  and  C_22
   14  A    between atoms: C_24  and  C_25
   15  A    between atoms: C_29  and  C_31
   16  A    between atoms: C_32  and  N_45
   17  A    between atoms: C_39  and  C_43
   18  A    between atoms: C_43  and  C_47
                            x       y       z     vdW  Elec       q    Type
                         _______ _______ _______ _____ _____    ______ ____

>  <TORSDO>
F 18

$$$$
