=
 OpenBabel11042416353D

 62 71  0  0  1  0  0  0  0  0999 V2000
  185.1860  177.8380  145.4950 C   0  0  0  0  0  3  0  0  0  0  0  0
  190.4620  174.2850  144.8890 C   0  0  0  0  0  0  0  0  0  0  0  0
  187.2130  177.4060  146.5560 C   0  0  0  0  0  0  0  0  0  0  0  0
  187.7450  174.7440  142.3230 C   0  0  0  0  0  2  0  0  0  0  0  0
  188.5400  174.9080  143.5420 N   0  0  0  0  0  0  0  0  0  0  0  0
  189.7490  174.1280  143.7490 C   0  0  0  0  0  0  0  0  0  0  0  0
  186.3330  178.2490  147.7000 S   0  0  0  0  0  0  0  0  0  0  0  0
  187.8100  173.3130  141.8100 C   0  0  0  0  0  2  0  0  0  0  0  0
  188.3730  176.8500  146.7410 N   0  0  0  0  0  0  0  0  0  0  0  0
  184.9510  178.4460  146.7340 C   0  0  0  0  0  3  0  0  0  0  0  0
  188.3730  176.1570  144.2940 C   0  0  1  0  0  3  0  0  0  0  0  0
  186.9340  176.6350  144.3290 C   0  0  0  0  0  3  0  0  0  0  0  0
  190.0810  172.9730  142.8230 C   0  0  0  0  0  2  0  0  0  0  0  0
  188.9600  176.0570  145.6890 C   0  0  0  0  0  0  0  0  0  0  0  0
  189.9980  175.2400  145.9440 C   0  0  0  0  0  0  0  0  0  0  0  0
  189.2610  172.9280  141.5350 C   0  0  2  0  0  3  0  0  0  0  0  0
  186.4600  177.2660  145.4040 C   0  0  0  0  0  0  0  0  0  0  0  0
  190.9700  176.5670  147.7670 C   0  0  0  0  0  2  0  0  0  0  0  0
  190.5340  175.2070  147.3600 C   0  0  2  0  0  3  0  0  0  0  0  0
  191.8970  175.5570  147.4430 O   0  0  0  0  0  0  0  0  0  0  0  0
  189.9350  173.7690  140.4390 C   0  0  0  0  0  2  0  0  0  0  0  0
  189.2850  173.6200  139.0630 C   0  0  0  0  0  2  0  0  0  0  0  0
  189.8890  171.3830  138.1880 C   0  0  0  0  0  0  0  0  0  0  0  0
  191.2580  171.7530  137.8070 C   0  0  0  0  0  2  0  0  0  0  0  0
  188.9710  172.1940  138.7250 C   0  0  0  0  0  3  0  0  0  0  0  0
  191.7330  170.6110  137.0350 N   0  0  0  0  0  0  0  0  0  0  0  0
  190.9910  169.4790  137.4520 N   0  0  0  0  0  2  0  0  0  0  0  0
  189.6770  169.9670  137.8630 C   0  0  0  0  0  2  0  0  0  0  0  0
  193.1640  170.4040  137.2930 C   0  0  1  0  0  3  0  0  0  0  0  0
  196.3590  172.2920  136.3180 F   0  0  0  0  0  0  0  0  0  0  0  0
  195.6150  170.1070  135.7330 F   0  0  0  0  0  0  0  0  0  0  0  0
  194.1900  171.9140  135.6650 O   0  0  0  0  0  0  0  0  0  0  0  0
  194.1030  171.6160  137.0440 C   0  0  2  0  0  3  0  0  0  0  0  0
  195.3380  171.3570  136.2580 C   0  0  0  0  0  0  0  0  0  0  0  0
  193.9390  168.3000  138.1650 O   0  0  0  0  0  0  0  0  0  0  0  0
  193.1970  169.8500  139.7490 N   0  0  0  0  0  2  0  0  0  0  0  0
  193.4350  168.9710  140.8840 C   0  0  0  0  0  1  0  0  0  0  0  0
  193.4280  169.4270  138.4010 C   0  0  0  0  0  0  0  0  0  0  0  0
  191.5950  173.4950  145.1380 O   0  0  0  0  0  0  0  0  0  0  0  0
  194.0770  172.9330  145.1680 C   0  0  2  0  0  0  0  0  0  0  0  0
  193.6610  174.2480  145.7570 C   0  0  0  0  0  2  0  0  0  0  0  0
  192.8720  173.7650  144.5710 C   0  0  2  0  0  0  0  0  0  0  0  0
  193.2750  172.4340  144.0080 C   0  0  0  0  0  2  0  0  0  0  0  0
  195.4430  173.1230  144.6370 N   0  0  0  0  0  2  0  0  0  0  0  0
  196.3380  171.9640  144.7200 C   0  0  0  0  0  2  0  0  0  0  0  0
  197.2190  171.9160  143.4860 C   0  0  0  0  0  2  0  0  0  0  0  0
  196.7000  170.9990  142.5710 O   0  0  0  0  0  0  0  0  0  0  0  0
  196.1470  171.9140  141.2460 P   0  0  1  0  0  0  0  0  0  0  0  0
  197.7350  172.0250  139.2300 O   0  0  0  0  0  0  0  0  0  0  0  0
  196.6250  171.2340  139.6310 C   0  0  1  0  0  3  0  0  0  0  0  0
  194.6700  172.2440  141.3150 O   0  0  0  0  0  0  0  0  0  0  0  0
  197.9400  173.1970  139.9270 N   0  0  0  0  0  0  0  0  0  0  0  0
  197.1810  173.3370  140.9610 C   0  0  0  0  0  0  0  0  0  0  0  0
  197.7690  169.4360  138.5840 O   0  0  0  0  0  1  0  0  0  0  0  0
  197.0190  169.7770  139.7080 C   0  0  0  0  0  2  0  0  0  0  0  0
  197.2230  174.5160  141.7170 O   0  0  0  0  0  0  0  0  0  0  0  0
  196.5830  175.7580  141.4070 C   0  0  2  0  0  3  0  0  0  0  0  0
  196.7320  176.3830  143.6940 O   0  0  0  0  0  0  0  0  0  0  0  0
  196.6050  176.7470  142.5380 C   0  0  0  0  0  3  0  0  0  0  0  0
  195.2130  175.5670  140.7600 C   0  0  0  0  0  2  0  0  0  0  0  0
  194.1480  174.9470  138.9310 C   0  0  0  0  0  1  0  0  0  0  0  0
  195.3220  175.5650  139.3660 O   0  0  0  0  0  0  0  0  0  0  0  0
  1 10  2  0  0  0  0
  2 39  1  0  0  0  0
  2 15  1  0  0  0  0
  3  9  2  0  0  0  0
  3  7  1  0  0  0  0
  4  5  1  0  0  0  0
  5  6  1  0  0  0  0
  5 11  1  0  0  0  0
  6  2  2  0  0  0  0
  8  4  1  0  0  0  0
 10  7  1  0  0  0  0
 11 12  1  1  0  0  0
 11 14  1  0  0  0  0
 12 17  2  0  0  0  0
 13  6  1  0  0  0  0
 14 15  2  0  0  0  0
 14  9  1  0  0  0  0
 16 21  1  6  0  0  0
 16  8  1  0  0  0  0
 16 13  1  0  0  0  0
 17  1  1  0  0  0  0
 17  3  1  0  0  0  0
 19 15  1  6  0  0  0
 19 20  1  0  0  0  0
 19 18  1  0  0  0  0
 20 18  1  0  0  0  0
 22 21  1  0  0  0  0
 23 25  2  0  0  0  0
 24 23  1  0  0  0  0
 25 22  1  0  0  0  0
 26 29  1  0  0  0  0
 26 27  1  0  0  0  0
 26 24  1  0  0  0  0
 27 28  1  0  0  0  0
 28 23  1  0  0  0  0
 29 38  1  1  0  0  0
 31 34  1  0  0  0  0
 32 34  1  0  0  0  0
 32 33  1  0  0  0  0
 33 29  1  6  0  0  0
 34 30  1  0  0  0  0
 34 33  1  0  0  0  0
 35 38  2  0  0  0  0
 36 37  1  0  0  0  0
 38 36  1  0  0  0  0
 40 44  1  6  0  0  0
 40 41  1  0  0  0  0
 42 39  1  1  0  0  0
 42 40  1  0  0  0  0
 42 41  1  0  0  0  0
 43 42  1  0  0  0  0
 43 40  1  0  0  0  0
 44 45  1  0  0  0  0
 46 45  1  0  0  0  0
 47 46  1  0  0  0  0
 48 51  2  1  0  0  0
 48 47  1  0  0  0  0
 49 50  1  0  0  0  0
 49 52  1  0  0  0  0
 50 55  1  1  0  0  0
 50 48  1  0  0  0  0
 52 53  2  0  0  0  0
 53 48  1  0  0  0  0
 53 56  1  0  0  0  0
 54 55  1  0  0  0  0
 57 60  1  1  0  0  0
 57 56  1  0  0  0  0
 57 59  1  0  0  0  0
 59 58  2  0  0  0  0
 61 62  1  0  0  0  0
 62 60  1  0  0  0  0
M  END
>  <MODEL>
1

>  <REMARK>
 VINA RESULT:      -5.8      0.000      0.000
  Name = 
  20 active torsions:
  status: ('A' for Active; 'I' for Inactive)
    1  A    between atoms: C_4  and  C_54
    2  A    between atoms: C_4  and  O_55
    3  A    between atoms: C_4  and  C_57
    4  A    between atoms: P_5  and  O_40
    5  A    between atoms: C_6  and  N_15
    6  A    between atoms: C_8  and  O_31
    7  A    between atoms: N_15  and  C_19
    8  A    between atoms: C_19  and  C_36
    9  A    between atoms: C_24  and  C_35
   10  A    between atoms: C_24  and  C_37
   11  A    between atoms: C_26  and  C_27
   12  A    between atoms: C_26  and  N_41
   13  A    between atoms: C_26  and  C_49
   14  A    between atoms: O_30  and  C_57
   15  A    between atoms: O_31  and  C_39
   16  A    between atoms: C_32  and  C_51
   17  A    between atoms: C_35  and  C_59
   18  A    between atoms: C_36  and  O_40
   19  A    between atoms: C_45  and  C_53
   20  A    between atoms: O_55  and  C_58
                            x       y       z     vdW  Elec       q    Type
                         _______ _______ _______ _____ _____    ______ ____

>  <TORSDO>
F 20

$$$$
=
 OpenBabel11042416353D

 62 71  0  0  1  0  0  0  0  0999 V2000
  197.7870  173.8060  137.3140 C   0  0  0  0  0  3  0  0  0  0  0  0
  192.4630  171.4170  139.9160 C   0  0  0  0  0  0  0  0  0  0  0  0
  195.5900  174.3950  137.8110 C   0  0  0  0  0  0  0  0  0  0  0  0
  195.8880  169.8530  139.9500 C   0  0  0  0  0  2  0  0  0  0  0  0
  194.8110  170.8250  139.7440 N   0  0  0  0  0  0  0  0  0  0  0  0
  193.4450  170.5100  140.1280 C   0  0  0  0  0  0  0  0  0  0  0  0
  196.1100  175.6100  136.7890 S   0  0  0  0  0  0  0  0  0  0  0  0
  195.3800  168.4270  139.8050 C   0  0  0  0  0  2  0  0  0  0  0  0
  194.3800  174.2360  138.2580 N   0  0  0  0  0  2  0  0  0  0  0  0
  197.6740  174.9880  136.5720 C   0  0  0  0  0  3  0  0  0  0  0  0
  195.1930  172.2340  139.5990 C   0  0  0  0  0  0  0  0  0  0  0  0
  196.4650  172.4200  138.7950 C   0  0  0  0  0  3  0  0  0  0  0  0
  193.0720  169.0950  140.5290 C   0  0  0  0  0  2  0  0  0  0  0  0
  194.0560  173.0710  139.0440 C   0  0  0  0  0  0  0  0  0  0  0  0
  192.7750  172.7310  139.2690 C   0  0  0  0  0  0  0  0  0  0  0  0
  194.2570  168.1740  140.8070 C   0  0  2  0  0  3  0  0  0  0  0  0
  196.6160  173.4880  138.0100 C   0  0  0  0  0  0  0  0  0  0  0  0
  190.8680  172.8580  137.7280 C   0  0  0  0  0  2  0  0  0  0  0  0
  191.6990  173.6250  138.6900 C   0  0  2  0  0  3  0  0  0  0  0  0
  191.8200  173.8020  137.2970 O   0  0  0  0  0  0  0  0  0  0  0  0
  194.6940  168.2860  142.2770 C   0  0  0  0  0  2  0  0  0  0  0  0
  193.5870  168.7750  143.2110 C   0  0  0  0  0  2  0  0  0  0  0  0
  194.6400  170.5780  144.5440 C   0  0  0  0  0  0  0  0  0  0  0  0
  194.8140  171.4980  143.4130 C   0  0  0  0  0  2  0  0  0  0  0  0
  194.1220  169.3460  144.4890 C   0  0  0  0  0  3  0  0  0  0  0  0
  195.6530  172.5640  143.9470 N   0  0  0  0  0  0  0  0  0  0  0  0
  195.4600  172.5940  145.3490 N   0  0  0  0  0  2  0  0  0  0  0  0
  195.1500  171.2260  145.7590 C   0  0  0  0  0  2  0  0  0  0  0  0
  195.2570  173.8460  143.3510 C   0  0  1  0  0  3  0  0  0  0  0  0
  192.5840  176.4780  144.1580 F   0  0  0  0  0  0  0  0  0  0  0  0
  192.8730  175.1090  142.2330 F   0  0  0  0  0  0  0  0  0  0  0  0
  193.0610  174.2400  144.3560 O   0  0  0  0  0  0  0  0  0  0  0  0
  194.3630  174.7740  144.2200 C   0  0  2  0  0  3  0  0  0  0  0  0
  193.1850  175.3880  143.5500 C   0  0  0  0  0  0  0  0  0  0  0  0
  197.4090  173.8490  142.2760 O   0  0  0  0  0  0  0  0  0  0  0  0
  195.9280  175.5250  141.5990 N   0  0  0  0  0  2  0  0  0  0  0  0
  196.8630  176.1250  140.6590 C   0  0  0  0  0  1  0  0  0  0  0  0
  196.2890  174.4070  142.4170 C   0  0  0  0  0  0  0  0  0  0  0  0
  191.1280  171.1070  140.2180 O   0  0  0  0  0  0  0  0  0  0  0  0
  190.2990  172.7330  141.9930 C   0  0  2  0  0  0  0  0  0  0  0  0
  191.6160  172.0580  142.2370 C   0  0  0  0  0  2  0  0  0  0  0  0
  190.5720  171.2490  141.5200 C   0  0  2  0  0  0  0  0  0  0  0  0
  189.2680  171.9420  141.2520 C   0  0  0  0  0  2  0  0  0  0  0  0
  189.7050  172.9900  143.3210 N   0  0  0  0  0  2  0  0  0  0  0  0
  189.5310  174.3990  143.6920 C   0  0  0  0  0  2  0  0  0  0  0  0
  188.6530  175.0880  142.6640 C   0  0  0  0  0  2  0  0  0  0  0  0
  188.4850  176.4290  143.0100 O   0  0  0  0  0  0  0  0  0  0  0  0
  186.8050  176.6950  143.0760 P   0  0  1  0  0  0  0  0  0  0  0  0
  185.9370  178.6770  141.6930 O   0  0  0  0  0  0  0  0  0  0  0  0
  186.0890  177.2760  141.5120 C   0  0  1  0  0  3  0  0  0  0  0  0
  186.0330  175.5310  143.6640 O   0  0  0  0  0  0  0  0  0  0  0  0
  186.0410  179.1460  142.9860 N   0  0  0  0  0  0  0  0  0  0  0  0
  186.4240  178.2590  143.8400 C   0  0  0  0  0  0  0  0  0  0  0  0
  186.7350  177.9300  139.3230 O   0  0  0  0  0  1  0  0  0  0  0  0
  186.9810  176.9940  140.3260 C   0  0  0  0  0  2  0  0  0  0  0  0
  186.4960  178.5730  145.2040 O   0  0  0  0  0  0  0  0  0  0  0  0
  186.7410  177.6660  146.2830 C   0  0  2  0  0  3  0  0  0  0  0  0
  185.1450  178.8370  147.5960 O   0  0  0  0  0  0  0  0  0  0  0  0
  186.0990  178.0790  147.5770 C   0  0  0  0  0  3  0  0  0  0  0  0
  188.2140  177.2800  146.4010 C   0  0  0  0  0  2  0  0  0  0  0  0
  189.7300  175.8420  147.1040 C   0  0  0  0  0  1  0  0  0  0  0  0
  188.3500  176.0430  147.0370 O   0  0  0  0  0  0  0  0  0  0  0  0
  1 17  1  0  0  0  0
  2  6  2  0  0  0  0
  2 39  1  0  0  0  0
  3 17  2  0  0  0  0
  3  9  1  0  0  0  0
  5  4  1  0  0  0  0
  5  6  1  0  0  0  0
  6 13  1  0  0  0  0
  7  3  1  0  0  0  0
  8  4  1  0  0  0  0
  8 16  1  0  0  0  0
  9 14  1  0  0  0  0
 10  7  1  0  0  0  0
 10  1  2  0  0  0  0
 11  5  1  0  0  0  0
 12 11  2  0  0  0  0
 13 16  1  0  0  0  0
 14 15  2  0  0  0  0
 14 11  1  0  0  0  0
 15  2  1  0  0  0  0
 16 21  1  1  0  0  0
 17 12  1  0  0  0  0
 18 19  1  0  0  0  0
 19 15  1  6  0  0  0
 20 18  1  0  0  0  0
 20 19  1  0  0  0  0
 21 22  1  0  0  0  0
 22 25  1  0  0  0  0
 23 28  1  0  0  0  0
 24 26  1  0  0  0  0
 24 23  1  0  0  0  0
 25 23  2  0  0  0  0
 26 27  1  0  0  0  0
 27 28  1  0  0  0  0
 29 38  1  1  0  0  0
 29 26  1  0  0  0  0
 31 34  1  0  0  0  0
 33 29  1  6  0  0  0
 33 32  1  0  0  0  0
 34 30  1  0  0  0  0
 34 33  1  0  0  0  0
 34 32  1  0  0  0  0
 35 38  2  0  0  0  0
 36 38  1  0  0  0  0
 37 36  1  0  0  0  0
 40 41  1  0  0  0  0
 40 44  1  1  0  0  0
 42 39  1  6  0  0  0
 42 40  1  0  0  0  0
 42 41  1  0  0  0  0
 43 42  1  0  0  0  0
 43 40  1  0  0  0  0
 44 45  1  0  0  0  0
 46 47  1  0  0  0  0
 46 45  1  0  0  0  0
 47 48  1  0  0  0  0
 48 51  2  1  0  0  0
 48 53  1  0  0  0  0
 49 52  1  0  0  0  0
 50 55  1  6  0  0  0
 50 49  1  0  0  0  0
 50 48  1  0  0  0  0
 52 53  2  0  0  0  0
 53 56  1  0  0  0  0
 54 55  1  0  0  0  0
 56 57  1  0  0  0  0
 57 60  1  1  0  0  0
 57 59  1  0  0  0  0
 59 58  2  0  0  0  0
 60 62  1  0  0  0  0
 62 61  1  0  0  0  0
M  END
>  <MODEL>
2

>  <REMARK>
 VINA RESULT:      -5.6      4.140      9.758
  Name = 
  20 active torsions:
  status: ('A' for Active; 'I' for Inactive)
    1  A    between atoms: C_4  and  C_54
    2  A    between atoms: C_4  and  O_55
    3  A    between atoms: C_4  and  C_57
    4  A    between atoms: P_5  and  O_40
    5  A    between atoms: C_6  and  N_15
    6  A    between atoms: C_8  and  O_31
    7  A    between atoms: N_15  and  C_19
    8  A    between atoms: C_19  and  C_36
    9  A    between atoms: C_24  and  C_35
   10  A    between atoms: C_24  and  C_37
   11  A    between atoms: C_26  and  C_27
   12  A    between atoms: C_26  and  N_41
   13  A    between atoms: C_26  and  C_49
   14  A    between atoms: O_30  and  C_57
   15  A    between atoms: O_31  and  C_39
   16  A    between atoms: C_32  and  C_51
   17  A    between atoms: C_35  and  C_59
   18  A    between atoms: C_36  and  O_40
   19  A    between atoms: C_45  and  C_53
   20  A    between atoms: O_55  and  C_58
                            x       y       z     vdW  Elec       q    Type
                         _______ _______ _______ _____ _____    ______ ____

>  <TORSDO>
F 20

$$$$
=
 OpenBabel11042416353D

 62 71  0  0  1  0  0  0  0  0999 V2000
  188.6230  174.1910  139.6590 C   0  0  0  0  0  3  0  0  0  0  0  0
  193.2720  171.6650  143.2420 C   0  0  0  0  0  0  0  0  0  0  0  0
  189.7780  172.1960  139.9880 C   0  0  0  0  0  0  0  0  0  0  0  0
  191.6170  175.0130  143.7270 C   0  0  0  0  0  2  0  0  0  0  0  0
  191.9100  173.6750  143.2050 N   0  0  0  0  0  0  0  0  0  0  0  0
  193.0090  172.8930  143.7470 C   0  0  0  0  0  0  0  0  0  0  0  0
  188.9670  171.9580  138.5460 S   0  0  0  0  0  0  0  0  0  0  0  0
  192.8860  175.7190  144.1790 C   0  0  0  0  0  2  0  0  0  0  0  0
  190.6480  171.3910  140.5180 N   0  0  0  0  0  2  0  0  0  0  0  0
  188.2250  173.4840  138.5180 C   0  0  0  0  0  3  0  0  0  0  0  0
  190.8310  172.9740  142.5000 C   0  0  0  0  0  0  0  0  0  0  0  0
  190.0020  173.8970  141.6270 C   0  0  0  0  0  3  0  0  0  0  0  0
  194.0100  173.5340  144.6910 C   0  0  0  0  0  2  0  0  0  0  0  0
  191.3510  171.7860  141.7140 C   0  0  0  0  0  0  0  0  0  0  0  0
  192.4490  171.1200  142.1160 C   0  0  0  0  0  0  0  0  0  0  0  0
  193.5840  174.8890  145.2520 C   0  0  2  0  0  3  0  0  0  0  0  0
  189.4860  173.4560  140.4790 C   0  0  0  0  0  0  0  0  0  0  0  0
  192.0020  168.7790  141.5300 C   0  0  0  0  0  2  0  0  0  0  0  0
  192.8970  169.9370  141.2830 C   0  0  2  0  0  3  0  0  0  0  0  0
  193.3040  168.8360  142.0640 O   0  0  0  0  0  0  0  0  0  0  0  0
  192.7590  174.7040  146.5360 C   0  0  0  0  0  2  0  0  0  0  0  0
  191.9190  175.9250  146.9080 C   0  0  0  0  0  2  0  0  0  0  0  0
  189.4470  176.0680  146.9430 C   0  0  0  0  0  0  0  0  0  0  0  0
  189.3540  177.0680  145.8730 C   0  0  0  0  0  2  0  0  0  0  0  0
  190.5720  175.5550  147.4510 C   0  0  0  0  0  3  0  0  0  0  0  0
  187.9560  177.4800  145.8900 N   0  0  0  0  0  0  0  0  0  0  0  0
  187.2060  176.4150  146.4480 N   0  0  0  0  0  2  0  0  0  0  0  0
  188.0890  175.7310  147.3890 C   0  0  0  0  0  2  0  0  0  0  0  0
  187.5060  177.7540  144.5190 C   0  0  1  0  0  3  0  0  0  0  0  0
  188.5230  176.8750  140.9260 F   0  0  0  0  0  0  0  0  0  0  0  0
  187.1170  178.6080  141.7540 F   0  0  0  0  0  0  0  0  0  0  0  0
  189.1430  178.1370  142.7410 O   0  0  0  0  0  0  0  0  0  0  0  0
  188.3550  177.1450  143.3690 C   0  0  2  0  0  3  0  0  0  0  0  0
  188.0640  177.6280  141.9930 C   0  0  0  0  0  0  0  0  0  0  0  0
  185.3080  176.9330  143.9860 O   0  0  0  0  0  0  0  0  0  0  0  0
  185.4020  179.0860  144.8910 N   0  0  0  0  0  2  0  0  0  0  0  0
  183.9630  179.2960  144.8270 C   0  0  0  0  0  1  0  0  0  0  0  0
  186.0160  177.8880  144.4030 C   0  0  0  0  0  0  0  0  0  0  0  0
  194.3680  170.9220  143.7040 O   0  0  0  0  0  0  0  0  0  0  0  0
  196.2070  170.5920  141.9750 C   0  0  2  0  0  0  0  0  0  0  0  0
  196.3360  169.8460  143.2700 C   0  0  0  0  0  2  0  0  0  0  0  0
  195.7140  171.2130  143.3430 C   0  0  2  0  0  0  0  0  0  0  0  0
  195.5600  171.9400  142.0390 C   0  0  0  0  0  2  0  0  0  0  0  0
  197.5810  170.8490  141.4980 N   0  0  0  0  0  2  0  0  0  0  0  0
  197.9350  170.2700  140.1970 C   0  0  0  0  0  2  0  0  0  0  0  0
  197.8910  171.3510  139.1330 C   0  0  0  0  0  2  0  0  0  0  0  0
  196.5830  171.8150  138.9860 O   0  0  0  0  0  0  0  0  0  0  0  0
  196.6350  172.9960  137.7610 P   0  0  1  0  0  0  0  0  0  0  0  0
  195.7480  175.3160  138.4140 O   0  0  0  0  0  0  0  0  0  0  0  0
  197.0110  174.6670  138.3640 C   0  0  1  0  0  3  0  0  0  0  0  0
  197.5010  172.6040  136.5810 O   0  0  0  0  0  0  0  0  0  0  0  0
  194.7110  174.6980  137.7450 N   0  0  0  0  0  0  0  0  0  0  0  0
  194.9980  173.5240  137.2970 C   0  0  0  0  0  0  0  0  0  0  0  0
  197.1650  175.7310  140.4810 O   0  0  0  0  0  1  0  0  0  0  0  0
  197.6500  174.6590  139.7330 C   0  0  0  0  0  2  0  0  0  0  0  0
  194.0670  172.8120  136.5270 O   0  0  0  0  0  0  0  0  0  0  0  0
  192.7230  172.4820  136.8920 C   0  0  2  0  0  3  0  0  0  0  0  0
  193.1740  170.3160  137.7590 O   0  0  0  0  0  0  0  0  0  0  0  0
  192.4810  171.0050  137.0300 C   0  0  0  0  0  3  0  0  0  0  0  0
  191.6880  173.2160  136.0440 C   0  0  0  0  0  2  0  0  0  0  0  0
  191.2000  175.3370  135.6900 C   0  0  0  0  0  1  0  0  0  0  0  0
  191.2460  174.3710  136.6960 O   0  0  0  0  0  0  0  0  0  0  0  0
  1 17  1  0  0  0  0
  2 39  1  0  0  0  0
  2  6  2  0  0  0  0
  3 17  2  0  0  0  0
  3  9  1  0  0  0  0
  4  8  1  0  0  0  0
  5  4  1  0  0  0  0
  5  6  1  0  0  0  0
  6 13  1  0  0  0  0
  7  3  1  0  0  0  0
  8 16  1  0  0  0  0
  9 14  1  0  0  0  0
 10  7  1  0  0  0  0
 10  1  2  0  0  0  0
 11  5  1  0  0  0  0
 12 11  2  0  0  0  0
 13 16  1  0  0  0  0
 14 15  2  0  0  0  0
 14 11  1  0  0  0  0
 15  2  1  0  0  0  0
 16 21  1  1  0  0  0
 17 12  1  0  0  0  0
 18 20  1  0  0  0  0
 19 18  1  0  0  0  0
 19 20  1  0  0  0  0
 19 15  1  1  0  0  0
 21 22  1  0  0  0  0
 22 25  1  0  0  0  0
 23 28  1  0  0  0  0
 23 25  2  0  0  0  0
 24 26  1  0  0  0  0
 24 23  1  0  0  0  0
 26 27  1  0  0  0  0
 27 28  1  0  0  0  0
 29 38  1  1  0  0  0
 29 26  1  0  0  0  0
 30 34  1  0  0  0  0
 31 34  1  0  0  0  0
 32 33  1  0  0  0  0
 33 29  1  1  0  0  0
 34 32  1  0  0  0  0
 34 33  1  0  0  0  0
 35 38  2  0  0  0  0
 37 36  1  0  0  0  0
 38 36  1  0  0  0  0
 40 44  1  1  0  0  0
 40 43  1  0  0  0  0
 40 41  1  0  0  0  0
 40 42  1  0  0  0  0
 41 42  1  0  0  0  0
 42 39  1  6  0  0  0
 43 42  1  0  0  0  0
 45 44  1  0  0  0  0
 46 45  1  0  0  0  0
 47 46  1  0  0  0  0
 48 51  2  6  0  0  0
 48 50  1  0  0  0  0
 48 47  1  0  0  0  0
 50 49  1  0  0  0  0
 50 55  1  1  0  0  0
 52 49  1  0  0  0  0
 53 52  2  0  0  0  0
 53 48  1  0  0  0  0
 55 54  1  0  0  0  0
 56 57  1  0  0  0  0
 56 53  1  0  0  0  0
 57 60  1  6  0  0  0
 57 59  1  0  0  0  0
 59 58  2  0  0  0  0
 60 62  1  0  0  0  0
 61 62  1  0  0  0  0
M  END
>  <MODEL>
3

>  <REMARK>
 VINA RESULT:      -5.4      3.443      8.040
  Name = 
  20 active torsions:
  status: ('A' for Active; 'I' for Inactive)
    1  A    between atoms: C_4  and  C_54
    2  A    between atoms: C_4  and  O_55
    3  A    between atoms: C_4  and  C_57
    4  A    between atoms: P_5  and  O_40
    5  A    between atoms: C_6  and  N_15
    6  A    between atoms: C_8  and  O_31
    7  A    between atoms: N_15  and  C_19
    8  A    between atoms: C_19  and  C_36
    9  A    between atoms: C_24  and  C_35
   10  A    between atoms: C_24  and  C_37
   11  A    between atoms: C_26  and  C_27
   12  A    between atoms: C_26  and  N_41
   13  A    between atoms: C_26  and  C_49
   14  A    between atoms: O_30  and  C_57
   15  A    between atoms: O_31  and  C_39
   16  A    between atoms: C_32  and  C_51
   17  A    between atoms: C_35  and  C_59
   18  A    between atoms: C_36  and  O_40
   19  A    between atoms: C_45  and  C_53
   20  A    between atoms: O_55  and  C_58
                            x       y       z     vdW  Elec       q    Type
                         _______ _______ _______ _____ _____    ______ ____

>  <TORSDO>
F 20

$$$$
=
 OpenBabel11042416353D

 62 71  0  0  1  0  0  0  0  0999 V2000
  187.3270  176.7760  146.9680 C   0  0  0  0  0  3  0  0  0  0  0  0
  193.0270  174.3960  145.3360 C   0  0  0  0  0  0  0  0  0  0  0  0
  189.5910  177.3180  146.9890 C   0  0  0  0  0  0  0  0  0  0  0  0
  189.6540  172.9710  144.4610 C   0  0  0  0  0  2  0  0  0  0  0  0
  190.6830  173.8820  144.9670 N   0  0  0  0  0  0  0  0  0  0  0  0
  192.0930  173.5460  144.8500 C   0  0  0  0  0  0  0  0  0  0  0  0
  188.8940  178.4690  147.9790 S   0  0  0  0  0  0  0  0  0  0  0  0
  190.0910  171.5190  144.5890 C   0  0  0  0  0  2  0  0  0  0  0  0
  190.8640  177.1490  146.7910 N   0  0  0  0  0  0  0  0  0  0  0  0
  187.3060  177.8920  147.8140 C   0  0  0  0  0  3  0  0  0  0  0  0
  190.3100  175.2890  145.1470 C   0  0  1  0  0  3  0  0  0  0  0  0
  188.9010  175.4610  145.6830 C   0  0  0  0  0  3  0  0  0  0  0  0
  192.5130  172.1540  144.4170 C   0  0  0  0  0  2  0  0  0  0  0  0
  191.3220  176.0370  145.9940 C   0  0  0  0  0  0  0  0  0  0  0  0
  192.6140  175.6670  146.0120 C   0  0  0  0  0  0  0  0  0  0  0  0
  191.3930  171.3030  143.8230 C   0  0  2  0  0  3  0  0  0  0  0  0
  188.6110  176.4690  146.5060 C   0  0  0  0  0  0  0  0  0  0  0  0
  194.3210  177.4310  146.0320 C   0  0  0  0  0  2  0  0  0  0  0  0
  193.5630  176.4720  146.8740 C   0  0  2  0  0  3  0  0  0  0  0  0
  194.9190  176.2640  146.5460 O   0  0  0  0  0  0  0  0  0  0  0  0
  191.2770  171.5450  142.3100 C   0  0  0  0  0  2  0  0  0  0  0  0
  191.2520  173.0250  141.9250 C   0  0  0  0  0  2  0  0  0  0  0  0
  189.3770  174.1570  140.7700 C   0  0  0  0  0  0  0  0  0  0  0  0
  188.9160  174.8950  141.9520 C   0  0  0  0  0  2  0  0  0  0  0  0
  190.3970  173.2930  140.7240 C   0  0  0  0  0  3  0  0  0  0  0  0
  187.6390  175.4650  141.5410 N   0  0  0  0  0  0  0  0  0  0  0  0
  187.6620  175.5830  140.1300 N   0  0  0  0  0  2  0  0  0  0  0  0
  188.5140  174.5060  139.6340 C   0  0  0  0  0  2  0  0  0  0  0  0
  187.4690  176.7870  142.1590 C   0  0  1  0  0  3  0  0  0  0  0  0
  185.2730  178.4180  144.8490 F   0  0  0  0  0  0  0  0  0  0  0  0
  186.0590  179.2700  142.7700 F   0  0  0  0  0  0  0  0  0  0  0  0
  185.1790  177.1500  142.9370 O   0  0  0  0  0  0  0  0  0  0  0  0
  186.4970  176.8750  143.3670 C   0  0  2  0  0  3  0  0  0  0  0  0
  185.8470  178.1910  143.6090 C   0  0  0  0  0  0  0  0  0  0  0  0
  188.8270  178.5360  141.2160 O   0  0  0  0  0  0  0  0  0  0  0  0
  189.6970  177.4760  143.1090 N   0  0  0  0  0  2  0  0  0  0  0  0
  190.9210  178.2630  143.1240 C   0  0  0  0  0  1  0  0  0  0  0  0
  188.7060  177.6350  142.0880 C   0  0  0  0  0  0  0  0  0  0  0  0
  194.3890  174.0610  145.2930 O   0  0  0  0  0  0  0  0  0  0  0  0
  196.2850  174.6870  143.7130 C   0  0  2  0  0  0  0  0  0  0  0  0
  194.8850  174.9830  143.2630 C   0  0  0  0  0  2  0  0  0  0  0  0
  195.0740  173.7410  144.0870 C   0  0  2  0  0  0  0  0  0  0  0  0
  196.4720  173.4680  144.5600 C   0  0  0  0  0  2  0  0  0  0  0  0
  197.0750  174.4310  142.4920 N   0  0  0  0  0  2  0  0  0  0  0  0
  197.3740  175.5990  141.6560 C   0  0  0  0  0  2  0  0  0  0  0  0
  197.3090  175.2040  140.1930 C   0  0  0  0  0  2  0  0  0  0  0  0
  197.2060  173.8160  140.0820 O   0  0  0  0  0  0  0  0  0  0  0  0
  195.8370  173.5180  139.1150 P   0  0  1  0  0  0  0  0  0  0  0  0
  195.6440  171.1400  138.1650 O   0  0  0  0  0  0  0  0  0  0  0  0
  195.1560  171.8450  139.2980 C   0  0  1  0  0  3  0  0  0  0  0  0
  194.7710  174.5880  139.2330 O   0  0  0  0  0  0  0  0  0  0  0  0
  196.1710  171.9040  137.1450 N   0  0  0  0  0  0  0  0  0  0  0  0
  196.2970  173.1550  137.4330 C   0  0  0  0  0  0  0  0  0  0  0  0
  194.7570  171.5170  141.6160 O   0  0  0  0  0  1  0  0  0  0  0  0
  195.6120  171.1690  140.5710 C   0  0  0  0  0  2  0  0  0  0  0  0
  196.7440  174.0630  136.4640 O   0  0  0  0  0  0  0  0  0  0  0  0
  196.0450  174.4760  135.2850 C   0  0  2  0  0  3  0  0  0  0  0  0
  197.5260  176.3220  135.0890 O   0  0  0  0  0  0  0  0  0  0  0  0
  196.7250  175.5880  134.5380 C   0  0  0  0  0  3  0  0  0  0  0  0
  194.5560  174.6990  135.5340 C   0  0  0  0  0  2  0  0  0  0  0  0
  192.9600  175.9670  136.3760 C   0  0  0  0  0  1  0  0  0  0  0  0
  194.3420  175.9200  136.1810 O   0  0  0  0  0  0  0  0  0  0  0  0
  1 10  2  0  0  0  0
  2 15  1  0  0  0  0
  3  7  1  0  0  0  0
  4  8  1  0  0  0  0
  4  5  1  0  0  0  0
  5 11  1  0  0  0  0
  6  5  1  0  0  0  0
  6  2  2  0  0  0  0
  9  3  2  0  0  0  0
 10  7  1  0  0  0  0
 11 12  1  1  0  0  0
 11 14  1  0  0  0  0
 12 17  2  0  0  0  0
 13  6  1  0  0  0  0
 14 15  2  0  0  0  0
 14  9  1  0  0  0  0
 16 21  1  6  0  0  0
 16 13  1  0  0  0  0
 16  8  1  0  0  0  0
 17  1  1  0  0  0  0
 17  3  1  0  0  0  0
 18 20  1  0  0  0  0
 18 19  1  0  0  0  0
 19 15  1  6  0  0  0
 20 19  1  0  0  0  0
 22 21  1  0  0  0  0
 23 24  1  0  0  0  0
 25 23  2  0  0  0  0
 25 22  1  0  0  0  0
 26 24  1  0  0  0  0
 26 29  1  0  0  0  0
 27 26  1  0  0  0  0
 28 27  1  0  0  0  0
 28 23  1  0  0  0  0
 29 38  1  1  0  0  0
 31 34  1  0  0  0  0
 32 33  1  0  0  0  0
 32 34  1  0  0  0  0
 33 29  1  6  0  0  0
 33 34  1  0  0  0  0
 34 30  1  0  0  0  0
 35 38  2  0  0  0  0
 36 37  1  0  0  0  0
 38 36  1  0  0  0  0
 39  2  1  0  0  0  0
 40 44  1  6  0  0  0
 40 42  1  0  0  0  0
 40 43  1  0  0  0  0
 41 40  1  0  0  0  0
 41 42  1  0  0  0  0
 42 43  1  0  0  0  0
 42 39  1  1  0  0  0
 45 44  1  0  0  0  0
 46 45  1  0  0  0  0
 47 46  1  0  0  0  0
 48 51  2  1  0  0  0
 48 50  1  0  0  0  0
 48 47  1  0  0  0  0
 49 50  1  0  0  0  0
 50 55  1  1  0  0  0
 52 53  2  0  0  0  0
 52 49  1  0  0  0  0
 53 48  1  0  0  0  0
 55 54  1  0  0  0  0
 56 53  1  0  0  0  0
 57 59  1  1  0  0  0
 57 60  1  0  0  0  0
 57 56  1  0  0  0  0
 59 58  2  0  0  0  0
 60 62  1  0  0  0  0
 62 61  1  0  0  0  0
M  END
>  <MODEL>
4

>  <REMARK>
 VINA RESULT:      -5.3      3.720      6.082
  Name = 
  20 active torsions:
  status: ('A' for Active; 'I' for Inactive)
    1  A    between atoms: C_4  and  C_54
    2  A    between atoms: C_4  and  O_55
    3  A    between atoms: C_4  and  C_57
    4  A    between atoms: P_5  and  O_40
    5  A    between atoms: C_6  and  N_15
    6  A    between atoms: C_8  and  O_31
    7  A    between atoms: N_15  and  C_19
    8  A    between atoms: C_19  and  C_36
    9  A    between atoms: C_24  and  C_35
   10  A    between atoms: C_24  and  C_37
   11  A    between atoms: C_26  and  C_27
   12  A    between atoms: C_26  and  N_41
   13  A    between atoms: C_26  and  C_49
   14  A    between atoms: O_30  and  C_57
   15  A    between atoms: O_31  and  C_39
   16  A    between atoms: C_32  and  C_51
   17  A    between atoms: C_35  and  C_59
   18  A    between atoms: C_36  and  O_40
   19  A    between atoms: C_45  and  C_53
   20  A    between atoms: O_55  and  C_58
                            x       y       z     vdW  Elec       q    Type
                         _______ _______ _______ _____ _____    ______ ____

>  <TORSDO>
F 20

$$$$
=
 OpenBabel11042416353D

 62 71  0  0  1  0  0  0  0  0999 V2000
  197.9410  173.7440  135.5310 C   0  0  0  0  0  3  0  0  0  0  0  0
  193.3920  171.7340  139.5410 C   0  0  0  0  0  0  0  0  0  0  0  0
  195.8360  174.3380  136.3290 C   0  0  0  0  0  0  0  0  0  0  0  0
  196.8730  170.3410  139.2000 C   0  0  0  0  0  2  0  0  0  0  0  0
  195.7060  171.2090  139.0260 N   0  0  0  0  0  0  0  0  0  0  0  0
  194.4630  170.9270  139.7250 C   0  0  0  0  0  0  0  0  0  0  0  0
  196.0630  175.3390  135.0100 S   0  0  0  0  0  0  0  0  0  0  0  0
  196.4570  168.8970  139.4340 C   0  0  0  0  0  2  0  0  0  0  0  0
  194.7460  174.2280  137.0270 N   0  0  0  0  0  2  0  0  0  0  0  0
  197.6030  174.7450  134.6130 C   0  0  0  0  0  3  0  0  0  0  0  0
  195.9450  172.5730  138.5420 C   0  0  0  0  0  0  0  0  0  0  0  0
  197.0270  172.6400  137.4820 C   0  0  0  0  0  3  0  0  0  0  0  0
  194.2790  169.6100  140.4570 C   0  0  0  0  0  2  0  0  0  0  0  0
  194.6640  173.2360  138.0710 C   0  0  0  0  0  0  0  0  0  0  0  0
  193.4760  172.8990  138.6050 C   0  0  0  0  0  0  0  0  0  0  0  0
  195.5630  168.8100  140.6680 C   0  0  2  0  0  3  0  0  0  0  0  0
  196.9480  173.5310  136.4920 C   0  0  0  0  0  0  0  0  0  0  0  0
  191.0740  172.7070  138.1420 C   0  0  0  0  0  2  0  0  0  0  0  0
  192.2460  173.6160  138.0890 C   0  0  2  0  0  3  0  0  0  0  0  0
  191.7100  173.0240  136.9260 O   0  0  0  0  0  0  0  0  0  0  0  0
  196.2540  169.2360  141.9720 C   0  0  0  0  0  2  0  0  0  0  0  0
  195.2820  169.6390  143.0810 C   0  0  0  0  0  2  0  0  0  0  0  0
  196.2790  171.3560  144.5610 C   0  0  0  0  0  0  0  0  0  0  0  0
  196.0360  172.4790  143.6470 C   0  0  0  0  0  2  0  0  0  0  0  0
  195.9820  170.0720  144.3330 C   0  0  0  0  0  3  0  0  0  0  0  0
  196.7770  173.5860  144.2390 N   0  0  0  0  0  0  0  0  0  0  0  0
  196.8990  173.3230  145.6260 N   0  0  0  0  0  2  0  0  0  0  0  0
  196.9270  171.8700  145.7740 C   0  0  0  0  0  2  0  0  0  0  0  0
  196.0440  174.8400  144.0230 C   0  0  1  0  0  3  0  0  0  0  0  0
  195.9640  177.1180  140.9360 F   0  0  0  0  0  0  0  0  0  0  0  0
  197.2520  177.2650  142.9330 F   0  0  0  0  0  0  0  0  0  0  0  0
  197.0050  175.2680  141.8150 O   0  0  0  0  0  0  0  0  0  0  0  0
  195.7960  175.2610  142.5480 C   0  0  2  0  0  3  0  0  0  0  0  0
  196.4370  176.5250  142.0960 C   0  0  0  0  0  0  0  0  0  0  0  0
  194.2620  174.2240  145.5190 O   0  0  0  0  0  0  0  0  0  0  0  0
  195.0480  176.4160  145.7160 N   0  0  0  0  0  2  0  0  0  0  0  0
  194.1120  176.7750  146.7710 C   0  0  0  0  0  1  0  0  0  0  0  0
  195.0340  175.1260  145.0960 C   0  0  0  0  0  0  0  0  0  0  0  0
  192.1640  171.4420  140.1530 O   0  0  0  0  0  0  0  0  0  0  0  0
  191.0260  172.7750  142.0000 C   0  0  2  0  0  0  0  0  0  0  0  0
  192.5120  172.9250  141.8560 C   0  0  0  0  0  2  0  0  0  0  0  0
  191.9430  171.5660  141.5540 C   0  0  2  0  0  0  0  0  0  0  0  0
  190.4530  171.4330  141.6700 C   0  0  0  0  0  2  0  0  0  0  0  0
  190.7190  172.9830  143.4300 N   0  0  0  0  0  2  0  0  0  0  0  0
  190.2340  174.3170  143.8020 C   0  0  0  0  0  2  0  0  0  0  0  0
  188.9920  174.6460  142.9960 C   0  0  0  0  0  2  0  0  0  0  0  0
  188.8050  176.0290  142.9610 O   0  0  0  0  0  0  0  0  0  0  0  0
  187.1230  176.2810  143.0300 P   0  0  1  0  0  0  0  0  0  0  0  0
  186.3550  178.7230  142.8230 O   0  0  0  0  0  0  0  0  0  0  0  0
  186.5330  177.6170  141.9500 C   0  0  1  0  0  3  0  0  0  0  0  0
  186.3150  175.0100  142.8640 O   0  0  0  0  0  0  0  0  0  0  0  0
  186.3480  178.4470  144.1740 N   0  0  0  0  0  0  0  0  0  0  0  0
  186.6670  177.2320  144.4670 C   0  0  0  0  0  0  0  0  0  0  0  0
  187.0090  177.5740  139.6240 O   0  0  0  0  0  1  0  0  0  0  0  0
  187.5220  177.9620  140.8610 C   0  0  0  0  0  2  0  0  0  0  0  0
  186.6230  176.7870  145.7950 O   0  0  0  0  0  0  0  0  0  0  0  0
  187.5000  177.1700  146.8590 C   0  0  2  0  0  3  0  0  0  0  0  0
  185.9710  178.9060  147.3950 O   0  0  0  0  0  0  0  0  0  0  0  0
  186.9530  178.2670  147.7280 C   0  0  0  0  0  3  0  0  0  0  0  0
  188.9340  177.3930  146.3840 C   0  0  0  0  0  2  0  0  0  0  0  0
  190.6920  176.6910  147.5160 C   0  0  0  0  0  1  0  0  0  0  0  0
  189.7620  177.7310  147.4580 O   0  0  0  0  0  0  0  0  0  0  0  0
  1 17  1  0  0  0  0
  2  6  2  0  0  0  0
  2 39  1  0  0  0  0
  3 17  2  0  0  0  0
  3  9  1  0  0  0  0
  4  8  1  0  0  0  0
  5  4  1  0  0  0  0
  5  6  1  0  0  0  0
  6 13  1  0  0  0  0
  7  3  1  0  0  0  0
  8 16  1  0  0  0  0
  9 14  1  0  0  0  0
 10  7  1  0  0  0  0
 10  1  2  0  0  0  0
 11  5  1  0  0  0  0
 12 11  2  0  0  0  0
 13 16  1  0  0  0  0
 14 11  1  0  0  0  0
 14 15  2  0  0  0  0
 15  2  1  0  0  0  0
 16 21  1  1  0  0  0
 17 12  1  0  0  0  0
 19 18  1  0  0  0  0
 19 15  1  1  0  0  0
 20 19  1  0  0  0  0
 20 18  1  0  0  0  0
 21 22  1  0  0  0  0
 22 25  1  0  0  0  0
 23 28  1  0  0  0  0
 24 26  1  0  0  0  0
 24 23  1  0  0  0  0
 25 23  2  0  0  0  0
 26 27  1  0  0  0  0
 27 28  1  0  0  0  0
 29 26  1  0  0  0  0
 29 38  1  1  0  0  0
 30 34  1  0  0  0  0
 32 34  1  0  0  0  0
 32 33  1  0  0  0  0
 33 29  1  1  0  0  0
 34 33  1  0  0  0  0
 34 31  1  0  0  0  0
 36 37  1  0  0  0  0
 38 35  2  0  0  0  0
 38 36  1  0  0  0  0
 40 44  1  1  0  0  0
 41 40  1  0  0  0  0
 42 39  1  6  0  0  0
 42 43  1  0  0  0  0
 42 41  1  0  0  0  0
 42 40  1  0  0  0  0
 43 40  1  0  0  0  0
 44 45  1  0  0  0  0
 46 45  1  0  0  0  0
 47 46  1  0  0  0  0
 47 48  1  0  0  0  0
 48 51  2  6  0  0  0
 48 53  1  0  0  0  0
 49 52  1  0  0  0  0
 50 55  1  6  0  0  0
 50 49  1  0  0  0  0
 50 48  1  0  0  0  0
 52 53  2  0  0  0  0
 53 56  1  0  0  0  0
 54 55  1  0  0  0  0
 56 57  1  0  0  0  0
 57 60  1  6  0  0  0
 57 59  1  0  0  0  0
 58 59  2  0  0  0  0
 60 62  1  0  0  0  0
 62 61  1  0  0  0  0
M  END
>  <MODEL>
5

>  <REMARK>
 VINA RESULT:      -5.3      4.059     10.098
  Name = 
  20 active torsions:
  status: ('A' for Active; 'I' for Inactive)
    1  A    between atoms: C_4  and  C_54
    2  A    between atoms: C_4  and  O_55
    3  A    between atoms: C_4  and  C_57
    4  A    between atoms: P_5  and  O_40
    5  A    between atoms: C_6  and  N_15
    6  A    between atoms: C_8  and  O_31
    7  A    between atoms: N_15  and  C_19
    8  A    between atoms: C_19  and  C_36
    9  A    between atoms: C_24  and  C_35
   10  A    between atoms: C_24  and  C_37
   11  A    between atoms: C_26  and  C_27
   12  A    between atoms: C_26  and  N_41
   13  A    between atoms: C_26  and  C_49
   14  A    between atoms: O_30  and  C_57
   15  A    between atoms: O_31  and  C_39
   16  A    between atoms: C_32  and  C_51
   17  A    between atoms: C_35  and  C_59
   18  A    between atoms: C_36  and  O_40
   19  A    between atoms: C_45  and  C_53
   20  A    between atoms: O_55  and  C_58
                            x       y       z     vdW  Elec       q    Type
                         _______ _______ _______ _____ _____    ______ ____

>  <TORSDO>
F 20

$$$$
=
 OpenBabel11042416353D

 62 71  0  0  1  0  0  0  0  0999 V2000
  188.8110  174.1240  139.4580 C   0  0  0  0  0  3  0  0  0  0  0  0
  192.4360  172.6910  144.5210 C   0  0  0  0  0  0  0  0  0  0  0  0
  189.9910  172.3510  140.4000 C   0  0  0  0  0  0  0  0  0  0  0  0
  190.4290  175.8350  144.0010 C   0  0  0  0  0  2  0  0  0  0  0  0
  190.9740  174.4900  143.7980 N   0  0  0  0  0  0  0  0  0  0  0  0
  191.9350  173.9300  144.7340 C   0  0  0  0  0  0  0  0  0  0  0  0
  189.6510  171.8290  138.8500 S   0  0  0  0  0  0  0  0  0  0  0  0
  191.4490  176.7490  144.6630 C   0  0  0  0  0  2  0  0  0  0  0  0
  190.7380  171.7380  141.2680 N   0  0  0  0  0  2  0  0  0  0  0  0
  188.8200  173.2320  138.3790 C   0  0  0  0  0  3  0  0  0  0  0  0
  190.2080  173.5730  142.9470 C   0  0  0  0  0  0  0  0  0  0  0  0
  189.5870  174.2630  141.7470 C   0  0  0  0  0  3  0  0  0  0  0  0
  192.5640  174.8090  145.8000 C   0  0  0  0  0  2  0  0  0  0  0  0
  191.0320  172.3690  142.5310 C   0  0  0  0  0  0  0  0  0  0  0  0
  192.0210  171.9060  143.3160 C   0  0  0  0  0  0  0  0  0  0  0  0
  191.8790  176.1590  146.0030 C   0  0  2  0  0  3  0  0  0  0  0  0
  189.4630  173.6160  140.5880 C   0  0  0  0  0  0  0  0  0  0  0  0
  191.9380  169.4820  142.9410 C   0  0  0  0  0  2  0  0  0  0  0  0
  192.7890  170.6930  142.8340 C   0  0  2  0  0  3  0  0  0  0  0  0
  192.9890  169.7300  143.8450 O   0  0  0  0  0  0  0  0  0  0  0  0
  190.7400  176.0360  147.0270 C   0  0  0  0  0  2  0  0  0  0  0  0
  189.6830  177.1340  146.9060 C   0  0  0  0  0  2  0  0  0  0  0  0
  187.2750  176.8610  146.3940 C   0  0  0  0  0  0  0  0  0  0  0  0
  187.3160  177.6240  145.1420 C   0  0  0  0  0  2  0  0  0  0  0  0
  188.3030  176.6440  147.2220 C   0  0  0  0  0  3  0  0  0  0  0  0
  185.9140  177.7910  144.7800 N   0  0  0  0  0  0  0  0  0  0  0  0
  185.1920  176.7310  145.3820 N   0  0  0  0  0  2  0  0  0  0  0  0
  185.9030  176.3840  146.6090 C   0  0  0  0  0  2  0  0  0  0  0  0
  185.7720  177.7360  143.3190 C   0  0  1  0  0  3  0  0  0  0  0  0
  183.5200  179.2340  140.5970 F   0  0  0  0  0  0  0  0  0  0  0  0
  184.6150  177.1230  140.7090 F   0  0  0  0  0  0  0  0  0  0  0  0
  183.4730  177.9740  142.5170 O   0  0  0  0  0  0  0  0  0  0  0  0
  184.6970  178.6620  142.6860 C   0  0  2  0  0  3  0  0  0  0  0  0
  184.1880  178.2760  141.3430 C   0  0  0  0  0  0  0  0  0  0  0  0
  187.2210  176.3670  141.9720 O   0  0  0  0  0  0  0  0  0  0  0  0
  188.0680  178.4580  142.5800 N   0  0  0  0  0  2  0  0  0  0  0  0
  189.3440  178.2600  141.9090 C   0  0  0  0  0  1  0  0  0  0  0  0
  187.0620  177.4400  142.6120 C   0  0  0  0  0  0  0  0  0  0  0  0
  193.4140  172.1590  145.3750 O   0  0  0  0  0  0  0  0  0  0  0  0
  195.7160  171.8580  144.3310 C   0  0  2  0  0  0  0  0  0  0  0  0
  195.5140  171.3290  145.7200 C   0  0  0  0  0  2  0  0  0  0  0  0
  194.7710  172.5880  145.3680 C   0  0  2  0  0  0  0  0  0  0  0  0
  194.9530  173.0930  143.9670 C   0  0  0  0  0  2  0  0  0  0  0  0
  197.1380  172.2410  144.2280 N   0  0  0  0  0  2  0  0  0  0  0  0
  197.8440  171.7980  143.0210 C   0  0  0  0  0  2  0  0  0  0  0  0
  197.8400  172.9150  141.9940 C   0  0  0  0  0  2  0  0  0  0  0  0
  196.6650  172.8620  141.2430 O   0  0  0  0  0  0  0  0  0  0  0  0
  196.7660  174.1310  140.1140 P   0  0  1  0  0  0  0  0  0  0  0  0
  195.3220  176.1930  140.6250 O   0  0  0  0  0  0  0  0  0  0  0  0
  196.6640  175.7860  140.8540 C   0  0  1  0  0  3  0  0  0  0  0  0
  197.9380  174.0000  139.1620 O   0  0  0  0  0  0  0  0  0  0  0  0
  194.6050  175.4590  139.7030 N   0  0  0  0  0  0  0  0  0  0  0  0
  195.2080  174.3950  139.2910 C   0  0  0  0  0  0  0  0  0  0  0  0
  196.2130  176.7680  142.9690 O   0  0  0  0  0  1  0  0  0  0  0  0
  196.9630  175.7780  142.3360 C   0  0  0  0  0  2  0  0  0  0  0  0
  194.6330  173.5970  138.2940 O   0  0  0  0  0  0  0  0  0  0  0  0
  195.0230  172.2700  137.9240 C   0  0  2  0  0  3  0  0  0  0  0  0
  196.2260  173.2300  136.1150 O   0  0  0  0  0  0  0  0  0  0  0  0
  195.8810  172.2140  136.6920 C   0  0  0  0  0  3  0  0  0  0  0  0
  193.8500  171.2930  137.9240 C   0  0  0  0  0  2  0  0  0  0  0  0
  194.5550  169.3350  138.6520 C   0  0  0  0  0  1  0  0  0  0  0  0
  194.2580  170.0320  137.4800 O   0  0  0  0  0  0  0  0  0  0  0  0
  1 17  1  0  0  0  0
  2  6  2  0  0  0  0
  2 39  1  0  0  0  0
  3 17  2  0  0  0  0
  3  9  1  0  0  0  0
  4  8  1  0  0  0  0
  5  4  1  0  0  0  0
  5  6  1  0  0  0  0
  6 13  1  0  0  0  0
  7  3  1  0  0  0  0
  8 16  1  0  0  0  0
  9 14  1  0  0  0  0
 10  7  1  0  0  0  0
 10  1  2  0  0  0  0
 11  5  1  0  0  0  0
 12 11  2  0  0  0  0
 13 16  1  0  0  0  0
 14 11  1  0  0  0  0
 14 15  2  0  0  0  0
 15  2  1  0  0  0  0
 16 21  1  1  0  0  0
 17 12  1  0  0  0  0
 18 20  1  0  0  0  0
 19 18  1  0  0  0  0
 19 15  1  1  0  0  0
 19 20  1  0  0  0  0
 22 21  1  0  0  0  0
 22 25  1  0  0  0  0
 23 28  1  0  0  0  0
 23 25  2  0  0  0  0
 24 23  1  0  0  0  0
 26 24  1  0  0  0  0
 26 27  1  0  0  0  0
 27 28  1  0  0  0  0
 29 38  1  6  0  0  0
 29 26  1  0  0  0  0
 30 34  1  0  0  0  0
 31 34  1  0  0  0  0
 32 33  1  0  0  0  0
 33 29  1  1  0  0  0
 34 32  1  0  0  0  0
 34 33  1  0  0  0  0
 35 38  2  0  0  0  0
 36 38  1  0  0  0  0
 37 36  1  0  0  0  0
 40 44  1  1  0  0  0
 40 42  1  0  0  0  0
 40 41  1  0  0  0  0
 42 39  1  6  0  0  0
 42 41  1  0  0  0  0
 43 40  1  0  0  0  0
 43 42  1  0  0  0  0
 45 44  1  0  0  0  0
 46 45  1  0  0  0  0
 47 46  1  0  0  0  0
 48 51  2  6  0  0  0
 48 50  1  0  0  0  0
 48 47  1  0  0  0  0
 49 50  1  0  0  0  0
 50 55  1  1  0  0  0
 52 49  1  0  0  0  0
 53 52  2  0  0  0  0
 53 48  1  0  0  0  0
 55 54  1  0  0  0  0
 56 53  1  0  0  0  0
 57 59  1  6  0  0  0
 57 56  1  0  0  0  0
 58 59  2  0  0  0  0
 60 57  1  0  0  0  0
 62 60  1  0  0  0  0
 62 61  1  0  0  0  0
M  END
>  <MODEL>
6

>  <REMARK>
 VINA RESULT:      -5.0      3.829      7.857
  Name = 
  20 active torsions:
  status: ('A' for Active; 'I' for Inactive)
    1  A    between atoms: C_4  and  C_54
    2  A    between atoms: C_4  and  O_55
    3  A    between atoms: C_4  and  C_57
    4  A    between atoms: P_5  and  O_40
    5  A    between atoms: C_6  and  N_15
    6  A    between atoms: C_8  and  O_31
    7  A    between atoms: N_15  and  C_19
    8  A    between atoms: C_19  and  C_36
    9  A    between atoms: C_24  and  C_35
   10  A    between atoms: C_24  and  C_37
   11  A    between atoms: C_26  and  C_27
   12  A    between atoms: C_26  and  N_41
   13  A    between atoms: C_26  and  C_49
   14  A    between atoms: O_30  and  C_57
   15  A    between atoms: O_31  and  C_39
   16  A    between atoms: C_32  and  C_51
   17  A    between atoms: C_35  and  C_59
   18  A    between atoms: C_36  and  O_40
   19  A    between atoms: C_45  and  C_53
   20  A    between atoms: O_55  and  C_58
                            x       y       z     vdW  Elec       q    Type
                         _______ _______ _______ _____ _____    ______ ____

>  <TORSDO>
F 20

$$$$
=
 OpenBabel11042416353D

 62 71  0  0  1  0  0  0  0  0999 V2000
  187.3570  176.8960  147.2660 C   0  0  0  0  0  3  0  0  0  0  0  0
  192.8290  174.3990  145.1100 C   0  0  0  0  0  0  0  0  0  0  0  0
  189.6290  177.3770  147.1030 C   0  0  0  0  0  0  0  0  0  0  0  0
  189.3540  173.0820  144.5000 C   0  0  0  0  0  2  0  0  0  0  0  0
  190.4480  173.9550  144.9330 N   0  0  0  0  0  0  0  0  0  0  0  0
  191.8330  173.5840  144.6900 C   0  0  0  0  0  0  0  0  0  0  0  0
  189.0510  178.5260  148.1700 S   0  0  0  0  0  0  0  0  0  0  0  0
  189.7590  171.6170  144.5630 C   0  0  0  0  0  2  0  0  0  0  0  0
  190.8750  177.1780  146.7940 N   0  0  0  0  0  0  0  0  0  0  0  0
  187.4400  177.9940  148.1300 C   0  0  0  0  0  3  0  0  0  0  0  0
  190.1310  175.3680  145.1700 C   0  0  1  0  0  3  0  0  0  0  0  0
  188.7780  175.5660  145.8270 C   0  0  0  0  0  3  0  0  0  0  0  0
  192.1750  172.1900  144.1980 C   0  0  0  0  0  2  0  0  0  0  0  0
  191.2320  176.0710  145.9410 C   0  0  0  0  0  0  0  0  0  0  0  0
  192.5110  175.6660  145.8420 C   0  0  0  0  0  0  0  0  0  0  0  0
  190.9850  171.3820  143.6860 C   0  0  2  0  0  3  0  0  0  0  0  0
  188.5880  176.5650  146.6900 C   0  0  0  0  0  0  0  0  0  0  0  0
  194.4210  177.2020  145.7130 C   0  0  0  0  0  2  0  0  0  0  0  0
  193.5520  176.4270  146.6340 C   0  0  2  0  0  3  0  0  0  0  0  0
  194.8720  176.0250  146.3420 O   0  0  0  0  0  0  0  0  0  0  0  0
  190.7480  171.6590  142.1930 C   0  0  0  0  0  2  0  0  0  0  0  0
  190.8530  173.1370  141.8170 C   0  0  0  0  0  2  0  0  0  0  0  0
  189.0050  174.4650  140.8400 C   0  0  0  0  0  0  0  0  0  0  0  0
  188.7100  175.2110  142.0690 C   0  0  0  0  0  2  0  0  0  0  0  0
  189.9330  173.5130  140.6960 C   0  0  0  0  0  3  0  0  0  0  0  0
  187.4640  175.9060  141.7740 N   0  0  0  0  0  0  0  0  0  0  0  0
  187.3850  176.0580  140.3670 N   0  0  0  0  0  2  0  0  0  0  0  0
  188.0910  174.9200  139.7840 C   0  0  0  0  0  2  0  0  0  0  0  0
  187.4670  177.2220  142.4270 C   0  0  1  0  0  3  0  0  0  0  0  0
  185.2300  178.9640  145.0120 F   0  0  0  0  0  0  0  0  0  0  0  0
  185.7350  179.5490  142.7600 F   0  0  0  0  0  0  0  0  0  0  0  0
  185.2050  177.3860  143.3430 O   0  0  0  0  0  0  0  0  0  0  0  0
  186.5760  177.3780  143.6890 C   0  0  2  0  0  3  0  0  0  0  0  0
  185.7480  178.6110  143.7760 C   0  0  0  0  0  0  0  0  0  0  0  0
  189.0400  178.6520  141.2990 O   0  0  0  0  0  0  0  0  0  0  0  0
  189.6860  177.8880  143.4110 N   0  0  0  0  0  2  0  0  0  0  0  0
  190.9760  178.5610  143.3820 C   0  0  0  0  0  1  0  0  0  0  0  0
  188.7800  177.9380  142.3040 C   0  0  0  0  0  0  0  0  0  0  0  0
  194.1720  174.0280  144.9440 O   0  0  0  0  0  0  0  0  0  0  0  0
  195.9150  174.4660  143.1420 C   0  0  2  0  0  0  0  0  0  0  0  0
  194.4880  174.7970  142.8170 C   0  0  0  0  0  2  0  0  0  0  0  0
  194.7140  173.6020  143.7000 C   0  0  2  0  0  0  0  0  0  0  0  0
  196.1420  173.2960  144.0460 C   0  0  0  0  0  2  0  0  0  0  0  0
  196.5630  174.0980  141.8660 N   0  0  0  0  0  2  0  0  0  0  0  0
  196.9090  175.2070  140.9700 C   0  0  0  0  0  2  0  0  0  0  0  0
  196.4980  174.8590  139.5520 C   0  0  0  0  0  2  0  0  0  0  0  0
  197.5660  174.2580  138.8850 O   0  0  0  0  0  0  0  0  0  0  0  0
  196.8780  173.2630  137.6880 P   0  0  1  0  0  0  0  0  0  0  0  0
  195.6130  174.4850  135.8170 O   0  0  0  0  0  0  0  0  0  0  0  0
  196.9240  173.9770  136.0190 C   0  0  1  0  0  3  0  0  0  0  0  0
  197.3960  171.8390  137.7170 O   0  0  0  0  0  0  0  0  0  0  0  0
  194.6440  174.0570  136.7000 N   0  0  0  0  0  0  0  0  0  0  0  0
  195.1000  173.3730  137.6940 C   0  0  0  0  0  0  0  0  0  0  0  0
  197.3260  176.3150  136.1360 O   0  0  0  0  0  1  0  0  0  0  0  0
  197.9410  175.0880  135.8920 C   0  0  0  0  0  2  0  0  0  0  0  0
  194.2210  172.8050  138.6260 O   0  0  0  0  0  0  0  0  0  0  0  0
  193.4700  171.5970  138.4740 C   0  0  2  0  0  3  0  0  0  0  0  0
  194.7190  169.7250  137.7110 O   0  0  0  0  0  0  0  0  0  0  0  0
  194.0150  170.6760  137.4190 C   0  0  0  0  0  3  0  0  0  0  0  0
  191.9670  171.8480  138.3790 C   0  0  0  0  0  2  0  0  0  0  0  0
  190.3910  171.6200  136.8540 C   0  0  0  0  0  1  0  0  0  0  0  0
  191.3590  170.8970  137.5550 O   0  0  0  0  0  0  0  0  0  0  0  0
  1 10  2  0  0  0  0
  2 15  1  0  0  0  0
  3  7  1  0  0  0  0
  4  8  1  0  0  0  0
  4  5  1  0  0  0  0
  5 11  1  0  0  0  0
  6  5  1  0  0  0  0
  6  2  2  0  0  0  0
  9  3  2  0  0  0  0
 10  7  1  0  0  0  0
 11 12  1  1  0  0  0
 11 14  1  0  0  0  0
 12 17  2  0  0  0  0
 13  6  1  0  0  0  0
 14  9  1  0  0  0  0
 15 14  2  0  0  0  0
 16 21  1  6  0  0  0
 16 13  1  0  0  0  0
 16  8  1  0  0  0  0
 17  3  1  0  0  0  0
 17  1  1  0  0  0  0
 18 20  1  0  0  0  0
 18 19  1  0  0  0  0
 19 15  1  6  0  0  0
 20 19  1  0  0  0  0
 22 21  1  0  0  0  0
 23 24  1  0  0  0  0
 25 23  2  0  0  0  0
 25 22  1  0  0  0  0
 26 24  1  0  0  0  0
 26 29  1  0  0  0  0
 27 26  1  0  0  0  0
 28 27  1  0  0  0  0
 28 23  1  0  0  0  0
 29 38  1  1  0  0  0
 31 34  1  0  0  0  0
 32 33  1  0  0  0  0
 32 34  1  0  0  0  0
 33 29  1  6  0  0  0
 33 34  1  0  0  0  0
 34 30  1  0  0  0  0
 35 38  2  0  0  0  0
 37 36  1  0  0  0  0
 38 36  1  0  0  0  0
 39  2  1  0  0  0  0
 40 44  1  6  0  0  0
 40 42  1  0  0  0  0
 40 43  1  0  0  0  0
 41 40  1  0  0  0  0
 41 42  1  0  0  0  0
 42 43  1  0  0  0  0
 42 39  1  1  0  0  0
 45 44  1  0  0  0  0
 46 45  1  0  0  0  0
 47 46  1  0  0  0  0
 48 53  1  0  0  0  0
 48 51  2  1  0  0  0
 48 47  1  0  0  0  0
 49 50  1  0  0  0  0
 49 52  1  0  0  0  0
 50 55  1  1  0  0  0
 50 48  1  0  0  0  0
 52 53  2  0  0  0  0
 53 56  1  0  0  0  0
 55 54  1  0  0  0  0
 57 59  1  6  0  0  0
 57 56  1  0  0  0  0
 59 58  2  0  0  0  0
 60 57  1  0  0  0  0
 61 62  1  0  0  0  0
 62 60  1  0  0  0  0
M  END
>  <MODEL>
7

>  <REMARK>
 VINA RESULT:      -4.9      3.735      6.463
  Name = 
  20 active torsions:
  status: ('A' for Active; 'I' for Inactive)
    1  A    between atoms: C_4  and  C_54
    2  A    between atoms: C_4  and  O_55
    3  A    between atoms: C_4  and  C_57
    4  A    between atoms: P_5  and  O_40
    5  A    between atoms: C_6  and  N_15
    6  A    between atoms: C_8  and  O_31
    7  A    between atoms: N_15  and  C_19
    8  A    between atoms: C_19  and  C_36
    9  A    between atoms: C_24  and  C_35
   10  A    between atoms: C_24  and  C_37
   11  A    between atoms: C_26  and  C_27
   12  A    between atoms: C_26  and  N_41
   13  A    between atoms: C_26  and  C_49
   14  A    between atoms: O_30  and  C_57
   15  A    between atoms: O_31  and  C_39
   16  A    between atoms: C_32  and  C_51
   17  A    between atoms: C_35  and  C_59
   18  A    between atoms: C_36  and  O_40
   19  A    between atoms: C_45  and  C_53
   20  A    between atoms: O_55  and  C_58
                            x       y       z     vdW  Elec       q    Type
                         _______ _______ _______ _____ _____    ______ ____

>  <TORSDO>
F 20

$$$$
=
 OpenBabel11042416353D

 62 71  0  0  1  0  0  0  0  0999 V2000
  184.7580  177.8860  142.7440 C   0  0  0  0  0  3  0  0  0  0  0  0
  190.0050  174.7990  144.6800 C   0  0  0  0  0  0  0  0  0  0  0  0
  186.5690  178.1190  144.1880 C   0  0  0  0  0  0  0  0  0  0  0  0
  187.7690  173.8580  141.8010 C   0  0  0  0  0  2  0  0  0  0  0  0
  188.3490  174.6120  142.9150 N   0  0  0  0  0  0  0  0  0  0  0  0
  189.4940  174.0930  143.6450 C   0  0  0  0  0  0  0  0  0  0  0  0
  185.5210  179.3320  144.6600 S   0  0  0  0  0  0  0  0  0  0  0  0
  187.8980  172.3590  142.0220 C   0  0  0  0  0  2  0  0  0  0  0  0
  187.6720  177.7850  144.7870 N   0  0  0  0  0  0  0  0  0  0  0  0
  184.3250  178.9760  143.5090 C   0  0  0  0  0  3  0  0  0  0  0  0
  188.0760  176.0530  142.9700 C   0  0  1  0  0  3  0  0  0  0  0  0
  186.6590  176.4000  142.5540 C   0  0  0  0  0  3  0  0  0  0  0  0
  189.9590  172.6660  143.4200 C   0  0  0  0  0  2  0  0  0  0  0  0
  188.4170  176.6390  144.3260 C   0  0  0  0  0  0  0  0  0  0  0  0
  189.3840  176.0980  145.0880 C   0  0  0  0  0  0  0  0  0  0  0  0
  189.3680  171.9860  142.1880 C   0  0  2  0  0  3  0  0  0  0  0  0
  186.0190  177.4200  143.1280 C   0  0  0  0  0  0  0  0  0  0  0  0
  190.6400  177.8620  146.2460 C   0  0  0  0  0  2  0  0  0  0  0  0
  189.6720  176.7500  146.4240 C   0  0  2  0  0  3  0  0  0  0  0  0
  191.0220  176.6330  146.8160 O   0  0  0  0  0  0  0  0  0  0  0  0
  190.2300  172.2750  140.9480 C   0  0  0  0  0  2  0  0  0  0  0  0
  191.2150  171.1560  140.6090 C   0  0  0  0  0  2  0  0  0  0  0  0
  190.3020  171.0510  138.3100 C   0  0  0  0  0  0  0  0  0  0  0  0
  189.9450  172.4730  138.2410 C   0  0  0  0  0  2  0  0  0  0  0  0
  190.8450  170.4210  139.3570 C   0  0  0  0  0  3  0  0  0  0  0  0
  189.1560  172.5840  137.0210 N   0  0  0  0  0  0  0  0  0  0  0  0
  189.5410  171.5200  136.1680 N   0  0  0  0  0  2  0  0  0  0  0  0
  189.9460  170.4160  137.0350 C   0  0  0  0  0  2  0  0  0  0  0  0
  189.4270  173.8750  136.3750 C   0  0  1  0  0  3  0  0  0  0  0  0
  187.0720  176.8800  135.9980 F   0  0  0  0  0  0  0  0  0  0  0  0
  187.4970  175.0560  134.5290 F   0  0  0  0  0  0  0  0  0  0  0  0
  187.1700  174.7250  136.7830 O   0  0  0  0  0  0  0  0  0  0  0  0
  188.5400  175.0740  136.8080 C   0  0  2  0  0  3  0  0  0  0  0  0
  187.6050  175.6190  135.7870 C   0  0  0  0  0  0  0  0  0  0  0  0
  191.2410  174.1180  134.8120 O   0  0  0  0  0  0  0  0  0  0  0  0
  191.8100  174.2990  137.0710 N   0  0  0  0  0  2  0  0  0  0  0  0
  193.2270  174.5010  136.8120 C   0  0  0  0  0  1  0  0  0  0  0  0
  190.8720  174.0630  136.0150 C   0  0  0  0  0  0  0  0  0  0  0  0
  191.0680  174.2850  145.4390 O   0  0  0  0  0  0  0  0  0  0  0  0
  193.4160  175.2010  145.0800 C   0  0  2  0  0  0  0  0  0  0  0  0
  192.5100  175.1360  143.8850 C   0  0  0  0  0  2  0  0  0  0  0  0
  192.3610  174.0360  144.9000 C   0  0  2  0  0  0  0  0  0  0  0  0
  193.2480  174.1260  146.1070 C   0  0  0  0  0  2  0  0  0  0  0  0
  194.7930  175.0370  144.5740 N   0  0  0  0  0  2  0  0  0  0  0  0
  195.3930  176.2130  143.9320 C   0  0  0  0  0  2  0  0  0  0  0  0
  196.0070  175.8070  142.6060 C   0  0  0  0  0  2  0  0  0  0  0  0
  197.0820  174.9450  142.8270 O   0  0  0  0  0  0  0  0  0  0  0  0
  196.8840  173.6510  141.7400 P   0  0  1  0  0  0  0  0  0  0  0  0
  195.2570  174.0690  139.7970 O   0  0  0  0  0  0  0  0  0  0  0  0
  196.6580  174.1660  140.0130 C   0  0  1  0  0  3  0  0  0  0  0  0
  197.9410  172.5750  141.8840 O   0  0  0  0  0  0  0  0  0  0  0  0
  194.5370  173.3620  140.7370 N   0  0  0  0  0  0  0  0  0  0  0  0
  195.2180  173.0200  141.7770 C   0  0  0  0  0  0  0  0  0  0  0  0
  197.3510  175.7650  138.4000 O   0  0  0  0  0  1  0  0  0  0  0  0
  197.1300  175.5800  139.7640 C   0  0  0  0  0  2  0  0  0  0  0  0
  194.6360  172.2280  142.7770 O   0  0  0  0  0  0  0  0  0  0  0  0
  194.7950  170.8170  142.9560 C   0  0  2  0  0  3  0  0  0  0  0  0
  193.8870  168.9440  141.8110 O   0  0  0  0  0  0  0  0  0  0  0  0
  194.4680  170.0120  141.7300 C   0  0  0  0  0  3  0  0  0  0  0  0
  194.1390  170.3120  144.2390 C   0  0  0  0  0  2  0  0  0  0  0  0
  195.8160  170.5130  145.6570 C   0  0  0  0  0  1  0  0  0  0  0  0
  194.5700  171.0580  145.3400 O   0  0  0  0  0  0  0  0  0  0  0  0
  1 17  1  0  0  0  0
  1 10  2  0  0  0  0
  2 15  1  0  0  0  0
  2 39  1  0  0  0  0
  3  7  1  0  0  0  0
  3  9  2  0  0  0  0
  4  8  1  0  0  0  0
  4  5  1  0  0  0  0
  5 11  1  0  0  0  0
  5  6  1  0  0  0  0
  6  2  2  0  0  0  0
  8 16  1  0  0  0  0
 10  7  1  0  0  0  0
 11 12  1  1  0  0  0
 11 14  1  0  0  0  0
 12 17  2  0  0  0  0
 13  6  1  0  0  0  0
 14  9  1  0  0  0  0
 14 15  2  0  0  0  0
 16 21  1  6  0  0  0
 16 13  1  0  0  0  0
 17  3  1  0  0  0  0
 18 19  1  0  0  0  0
 18 20  1  0  0  0  0
 19 15  1  6  0  0  0
 19 20  1  0  0  0  0
 22 21  1  0  0  0  0
 23 25  2  0  0  0  0
 24 23  1  0  0  0  0
 25 22  1  0  0  0  0
 26 24  1  0  0  0  0
 27 26  1  0  0  0  0
 27 28  1  0  0  0  0
 28 23  1  0  0  0  0
 29 38  1  1  0  0  0
 29 26  1  0  0  0  0
 31 34  1  0  0  0  0
 32 33  1  0  0  0  0
 33 29  1  6  0  0  0
 34 30  1  0  0  0  0
 34 32  1  0  0  0  0
 34 33  1  0  0  0  0
 35 38  2  0  0  0  0
 37 36  1  0  0  0  0
 38 36  1  0  0  0  0
 40 44  1  6  0  0  0
 40 43  1  0  0  0  0
 41 42  1  0  0  0  0
 41 40  1  0  0  0  0
 42 40  1  0  0  0  0
 42 39  1  1  0  0  0
 42 43  1  0  0  0  0
 45 44  1  0  0  0  0
 46 47  1  0  0  0  0
 46 45  1  0  0  0  0
 48 53  1  0  0  0  0
 48 51  2  1  0  0  0
 48 47  1  0  0  0  0
 49 50  1  0  0  0  0
 49 52  1  0  0  0  0
 50 55  1  1  0  0  0
 50 48  1  0  0  0  0
 52 53  2  0  0  0  0
 53 56  1  0  0  0  0
 54 55  1  0  0  0  0
 56 57  1  0  0  0  0
 57 59  1  6  0  0  0
 57 60  1  0  0  0  0
 59 58  2  0  0  0  0
 60 62  1  0  0  0  0
 62 61  1  0  0  0  0
M  END
>  <MODEL>
8

>  <REMARK>
 VINA RESULT:      -4.8      2.874      4.420
  Name = 
  20 active torsions:
  status: ('A' for Active; 'I' for Inactive)
    1  A    between atoms: C_4  and  C_54
    2  A    between atoms: C_4  and  O_55
    3  A    between atoms: C_4  and  C_57
    4  A    between atoms: P_5  and  O_40
    5  A    between atoms: C_6  and  N_15
    6  A    between atoms: C_8  and  O_31
    7  A    between atoms: N_15  and  C_19
    8  A    between atoms: C_19  and  C_36
    9  A    between atoms: C_24  and  C_35
   10  A    between atoms: C_24  and  C_37
   11  A    between atoms: C_26  and  C_27
   12  A    between atoms: C_26  and  N_41
   13  A    between atoms: C_26  and  C_49
   14  A    between atoms: O_30  and  C_57
   15  A    between atoms: O_31  and  C_39
   16  A    between atoms: C_32  and  C_51
   17  A    between atoms: C_35  and  C_59
   18  A    between atoms: C_36  and  O_40
   19  A    between atoms: C_45  and  C_53
   20  A    between atoms: O_55  and  C_58
                            x       y       z     vdW  Elec       q    Type
                         _______ _______ _______ _____ _____    ______ ____

>  <TORSDO>
F 20

$$$$
=
 OpenBabel11042416353D

 62 71  0  0  1  0  0  0  0  0999 V2000
  197.8190  174.0650  136.3740 C   0  0  0  0  0  3  0  0  0  0  0  0
  193.4420  171.4000  140.1890 C   0  0  0  0  0  0  0  0  0  0  0  0
  195.6350  174.3730  137.1190 C   0  0  0  0  0  0  0  0  0  0  0  0
  197.0770  170.4550  139.9240 C   0  0  0  0  0  2  0  0  0  0  0  0
  195.8170  171.1780  139.7350 N   0  0  0  0  0  0  0  0  0  0  0  0
  194.5990  170.7260  140.3870 C   0  0  0  0  0  0  0  0  0  0  0  0
  195.7740  175.4310  135.8330 S   0  0  0  0  0  0  0  0  0  0  0  0
  196.8370  168.9650  140.1100 C   0  0  0  0  0  2  0  0  0  0  0  0
  194.5480  174.1110  137.7800 N   0  0  0  0  0  2  0  0  0  0  0  0
  197.3860  175.0420  135.4700 C   0  0  0  0  0  3  0  0  0  0  0  0
  195.8990  172.5740  139.2910 C   0  0  0  0  0  0  0  0  0  0  0  0
  196.9940  172.8030  138.2680 C   0  0  0  0  0  3  0  0  0  0  0  0
  194.5590  169.3770  141.0810 C   0  0  0  0  0  2  0  0  0  0  0  0
  194.5600  173.0870  138.7960 C   0  0  0  0  0  0  0  0  0  0  0  0
  193.4080  172.5930  139.2850 C   0  0  0  0  0  0  0  0  0  0  0  0
  195.9250  168.7350  141.3120 C   0  0  2  0  0  3  0  0  0  0  0  0
  196.8330  173.7040  137.2980 C   0  0  0  0  0  0  0  0  0  0  0  0
  191.4970  172.2130  137.7910 C   0  0  0  0  0  2  0  0  0  0  0  0
  192.1140  173.1670  138.7470 C   0  0  2  0  0  3  0  0  0  0  0  0
  192.1440  173.3850  137.3540 O   0  0  0  0  0  0  0  0  0  0  0  0
  196.5220  169.2060  142.6480 C   0  0  0  0  0  2  0  0  0  0  0  0
  195.5490  170.0190  143.5030 C   0  0  0  0  0  2  0  0  0  0  0  0
  196.5660  172.0380  144.5150 C   0  0  0  0  0  0  0  0  0  0  0  0
  196.3820  172.8890  143.3330 C   0  0  0  0  0  2  0  0  0  0  0  0
  196.2340  170.7470  144.6200 C   0  0  0  0  0  3  0  0  0  0  0  0
  197.1440  174.0930  143.6390 N   0  0  0  0  0  0  0  0  0  0  0  0
  197.2240  174.1980  145.0490 N   0  0  0  0  0  2  0  0  0  0  0  0
  197.2030  172.8340  145.5720 C   0  0  0  0  0  2  0  0  0  0  0  0
  196.4570  175.2650  143.0810 C   0  0  1  0  0  3  0  0  0  0  0  0
  194.5600  176.2140  139.8830 F   0  0  0  0  0  0  0  0  0  0  0  0
  196.0200  177.5010  141.2540 F   0  0  0  0  0  0  0  0  0  0  0  0
  196.5490  175.3470  140.6370 O   0  0  0  0  0  0  0  0  0  0  0  0
  195.7060  175.0610  141.7360 C   0  0  2  0  0  3  0  0  0  0  0  0
  195.5130  176.2680  140.8870 C   0  0  0  0  0  0  0  0  0  0  0  0
  196.4440  177.3390  144.3010 O   0  0  0  0  0  0  0  0  0  0  0  0
  194.7660  175.8130  144.8640 N   0  0  0  0  0  2  0  0  0  0  0  0
  194.1860  176.6610  145.8950 C   0  0  0  0  0  1  0  0  0  0  0  0
  195.9340  176.1990  144.1330 C   0  0  0  0  0  0  0  0  0  0  0  0
  192.2420  170.9420  140.7550 O   0  0  0  0  0  0  0  0  0  0  0  0
  191.2600  172.6940  142.3190 C   0  0  2  0  0  0  0  0  0  0  0  0
  192.7280  172.4110  142.4370 C   0  0  0  0  0  2  0  0  0  0  0  0
  191.8460  171.2440  142.0880 C   0  0  2  0  0  0  0  0  0  0  0  0
  190.3830  171.5420  141.9420 C   0  0  0  0  0  2  0  0  0  0  0  0
  190.8010  173.1020  143.6630 N   0  0  0  0  0  2  0  0  0  0  0  0
  191.6630  174.0440  144.3840 C   0  0  0  0  0  2  0  0  0  0  0  0
  190.8890  175.3140  144.6810 C   0  0  0  0  0  2  0  0  0  0  0  0
  189.5400  175.1270  144.3760 O   0  0  0  0  0  0  0  0  0  0  0  0
  188.7620  176.5960  144.7430 P   0  0  1  0  0  0  0  0  0  0  0  0
  186.6380  176.4030  146.1730 O   0  0  0  0  0  0  0  0  0  0  0  0
  188.0190  176.6430  146.3990 C   0  0  1  0  0  3  0  0  0  0  0  0
  189.6150  177.8160  144.4620 O   0  0  0  0  0  0  0  0  0  0  0  0
  186.1980  176.5210  144.8710 N   0  0  0  0  0  0  0  0  0  0  0  0
  187.1420  176.6760  144.0060 C   0  0  0  0  0  0  0  0  0  0  0  0
  189.9370  175.8560  147.5570 O   0  0  0  0  0  1  0  0  0  0  0  0
  188.5900  175.5890  147.3210 C   0  0  0  0  0  2  0  0  0  0  0  0
  186.8380  176.8900  142.6550 O   0  0  0  0  0  0  0  0  0  0  0  0
  186.1340  178.0050  142.0980 C   0  0  2  0  0  3  0  0  0  0  0  0
  185.0960  179.4420  143.6790 O   0  0  0  0  0  0  0  0  0  0  0  0
  186.0830  179.2010  143.0070 C   0  0  0  0  0  3  0  0  0  0  0  0
  184.7880  177.6070  141.4980 C   0  0  0  0  0  2  0  0  0  0  0  0
  182.9100  178.2230  140.5200 C   0  0  0  0  0  1  0  0  0  0  0  0
  184.0990  178.7350  141.0420 O   0  0  0  0  0  0  0  0  0  0  0  0
  1 17  1  0  0  0  0
  2  6  2  0  0  0  0
  2 39  1  0  0  0  0
  3 17  2  0  0  0  0
  3  9  1  0  0  0  0
  4  8  1  0  0  0  0
  5  4  1  0  0  0  0
  5  6  1  0  0  0  0
  6 13  1  0  0  0  0
  7  3  1  0  0  0  0
  8 16  1  0  0  0  0
  9 14  1  0  0  0  0
 10  7  1  0  0  0  0
 10  1  2  0  0  0  0
 11  5  1  0  0  0  0
 12 11  2  0  0  0  0
 13 16  1  0  0  0  0
 14 15  2  0  0  0  0
 14 11  1  0  0  0  0
 15  2  1  0  0  0  0
 16 21  1  1  0  0  0
 17 12  1  0  0  0  0
 18 19  1  0  0  0  0
 19 15  1  6  0  0  0
 20 18  1  0  0  0  0
 20 19  1  0  0  0  0
 21 22  1  0  0  0  0
 22 25  1  0  0  0  0
 23 25  2  0  0  0  0
 23 28  1  0  0  0  0
 24 26  1  0  0  0  0
 24 23  1  0  0  0  0
 26 27  1  0  0  0  0
 27 28  1  0  0  0  0
 29 26  1  0  0  0  0
 29 38  1  1  0  0  0
 30 34  1  0  0  0  0
 32 34  1  0  0  0  0
 32 33  1  0  0  0  0
 33 29  1  1  0  0  0
 34 31  1  0  0  0  0
 34 33  1  0  0  0  0
 36 37  1  0  0  0  0
 38 35  2  0  0  0  0
 38 36  1  0  0  0  0
 40 41  1  0  0  0  0
 40 44  1  1  0  0  0
 42 39  1  6  0  0  0
 42 40  1  0  0  0  0
 42 41  1  0  0  0  0
 43 42  1  0  0  0  0
 43 40  1  0  0  0  0
 44 45  1  0  0  0  0
 45 46  1  0  0  0  0
 47 46  1  0  0  0  0
 47 48  1  0  0  0  0
 48 51  2  6  0  0  0
 48 50  1  0  0  0  0
 49 50  1  0  0  0  0
 50 55  1  1  0  0  0
 52 49  1  0  0  0  0
 53 48  1  0  0  0  0
 53 52  2  0  0  0  0
 55 54  1  0  0  0  0
 56 53  1  0  0  0  0
 57 60  1  1  0  0  0
 57 56  1  0  0  0  0
 57 59  1  0  0  0  0
 59 58  2  0  0  0  0
 61 62  1  0  0  0  0
 62 60  1  0  0  0  0
M  END
>  <MODEL>
9

>  <REMARK>
 VINA RESULT:      -4.8      3.950      9.918
  Name = 
  20 active torsions:
  status: ('A' for Active; 'I' for Inactive)
    1  A    between atoms: C_4  and  C_54
    2  A    between atoms: C_4  and  O_55
    3  A    between atoms: C_4  and  C_57
    4  A    between atoms: P_5  and  O_40
    5  A    between atoms: C_6  and  N_15
    6  A    between atoms: C_8  and  O_31
    7  A    between atoms: N_15  and  C_19
    8  A    between atoms: C_19  and  C_36
    9  A    between atoms: C_24  and  C_35
   10  A    between atoms: C_24  and  C_37
   11  A    between atoms: C_26  and  C_27
   12  A    between atoms: C_26  and  N_41
   13  A    between atoms: C_26  and  C_49
   14  A    between atoms: O_30  and  C_57
   15  A    between atoms: O_31  and  C_39
   16  A    between atoms: C_32  and  C_51
   17  A    between atoms: C_35  and  C_59
   18  A    between atoms: C_36  and  O_40
   19  A    between atoms: C_45  and  C_53
   20  A    between atoms: O_55  and  C_58
                            x       y       z     vdW  Elec       q    Type
                         _______ _______ _______ _____ _____    ______ ____

>  <TORSDO>
F 20

$$$$
