=
 OpenBabel11042417273D

 29 30  0  0  1  0  0  0  0  0999 V2000
  185.9710  176.8810  142.3130 N   0  0  0  0  0  0  0  0  0  0  0  0
  184.7380  178.6990  141.5830 O   0  0  0  0  0  0  0  0  0  0  0  0
  185.0790  177.9800  142.5570 C   0  0  0  0  0  0  0  0  0  0  0  0
  186.9150  176.3710  143.0600 C   0  0  0  0  0  0  0  0  0  0  0  0
  186.6150  178.0520  144.9590 C   0  0  0  0  0  2  0  0  0  0  0  0
  187.2990  176.9270  144.3440 N   0  0  0  0  0  0  0  0  0  0  0  0
  185.1480  177.7220  145.0920 C   0  0  0  0  0  2  0  0  0  0  0  0
  184.3960  178.2250  143.8750 C   0  0  0  0  0  2  0  0  0  0  0  0
  188.0660  176.3080  146.5940 C   0  0  0  0  0  2  0  0  0  0  0  0
  189.6970  177.1130  144.8980 C   0  0  0  0  0  0  0  0  0  0  0  0
  189.7730  177.9600  143.9690 O   0  0  0  0  0  0  0  0  0  0  0  0
  188.7440  175.1420  147.2150 C   0  0  0  0  0  3  0  0  0  0  0  0
  188.4100  176.3690  145.1190 C   0  0  2  0  0  3  0  0  0  0  0  0
  190.0640  174.9790  147.2620 C   0  0  0  0  0  3  0  0  0  0  0  0
  192.2730  175.7290  147.1290 O   0  0  0  0  0  0  0  0  0  0  0  0
  190.8690  176.8580  145.6820 N   0  0  0  0  0  2  0  0  0  0  0  0
  191.0990  175.8700  146.7000 C   0  0  0  0  0  0  0  0  0  0  0  0
  187.6100  175.2500  142.5890 O   0  0  0  0  0  0  0  0  0  0  0  0
  188.1470  175.1670  141.2750 C   0  0  0  0  0  2  0  0  0  0  0  0
  189.3470  174.2280  141.2510 C   0  0  1  0  0  3  0  0  0  0  0  0
  190.2300  174.3570  142.5000 C   0  0  2  0  0  3  0  0  0  0  0  0
  191.3060  175.2010  142.2120 O   0  0  0  0  0  1  0  0  0  0  0  0
  190.7360  173.0170  143.0570 C   0  0  2  0  0  3  0  0  0  0  0  0
  190.2650  172.8260  144.4200 N   0  0  0  0  0  1  0  0  0  0  0  0
  192.2580  172.9690  143.0470 C   0  0  0  0  0  2  0  0  0  0  0  0
  192.9090  173.0010  144.7440 S   0  0  0  0  0  0  0  0  0  0  0  0
  194.0370  174.3760  144.3800 C   0  0  0  0  0  1  0  0  0  0  0  0
  188.9800  172.7860  140.8860 C   0  0  0  0  0  2  0  0  0  0  0  0
  188.0930  172.7460  139.8090 O   0  0  0  0  0  1  0  0  0  0  0  0
  1  3  1  0  0  0  0
  1  4  2  0  0  0  0
  2  3  2  0  0  0  0
  3  8  1  0  0  0  0
  4  6  1  0  0  0  0
  5  7  1  0  0  0  0
  6  5  1  0  0  0  0
  8  7  1  0  0  0  0
  9 12  1  0  0  0  0
 10 13  1  0  0  0  0
 10 16  1  0  0  0  0
 11 10  2  0  0  0  0
 12 14  2  0  0  0  0
 13  6  1  6  0  0  0
 13  9  1  0  0  0  0
 16 17  1  0  0  0  0
 17 15  2  0  0  0  0
 17 14  1  0  0  0  0
 18  4  1  0  0  0  0
 19 18  1  0  0  0  0
 20 28  1  1  0  0  0
 20 19  1  0  0  0  0
 20 21  1  0  0  0  0
 21 22  1  6  0  0  0
 21 23  1  0  0  0  0
 23 24  1  1  0  0  0
 25 23  1  0  0  0  0
 25 26  1  0  0  0  0
 27 26  1  0  0  0  0
 29 28  1  0  0  0  0
M  END
>  <MODEL>
1

>  <REMARK>
 VINA RESULT:      -6.1      0.000      0.000
  Name = 
  9 active torsions:
  status: ('A' for Active; 'I' for Inactive)
    1  A    between atoms: C_2  and  C_4
    2  A    between atoms: C_2  and  C_18
    3  A    between atoms: C_4  and  C_17
    4  A    between atoms: C_5  and  C_18
    5  A    between atoms: S_9  and  C_17
    6  A    between atoms: C_10  and  O_12
    7  A    between atoms: O_12  and  C_16
    8  A    between atoms: C_16  and  C_18
    9  A    between atoms: C_19  and  N_22
                            x       y       z     vdW  Elec       q    Type
                         _______ _______ _______ _____ _____    ______ ____

>  <TORSDO>
F 9

$$$$
=
 OpenBabel11042417273D

 29 30  0  0  1  0  0  0  0  0999 V2000
  185.9100  176.7980  142.2550 N   0  0  0  0  0  0  0  0  0  0  0  0
  184.7280  178.6060  141.4240 O   0  0  0  0  0  0  0  0  0  0  0  0
  185.0570  177.9390  142.4370 C   0  0  0  0  0  0  0  0  0  0  0  0
  186.8460  176.3050  143.0220 C   0  0  0  0  0  0  0  0  0  0  0  0
  186.6270  178.1130  144.8130 C   0  0  0  0  0  2  0  0  0  0  0  0
  187.2650  176.9280  144.2640 N   0  0  0  0  0  0  0  0  0  0  0  0
  185.1520  177.8410  144.9830 C   0  0  0  0  0  2  0  0  0  0  0  0
  184.4010  178.2910  143.7440 C   0  0  0  0  0  2  0  0  0  0  0  0
  188.0070  176.3480  146.5320 C   0  0  0  0  0  2  0  0  0  0  0  0
  189.6570  177.1240  144.8410 C   0  0  0  0  0  0  0  0  0  0  0  0
  189.7440  177.9550  143.8990 O   0  0  0  0  0  0  0  0  0  0  0  0
  188.6780  175.1920  147.1810 C   0  0  0  0  0  3  0  0  0  0  0  0
  188.3670  176.3830  145.0610 C   0  0  2  0  0  3  0  0  0  0  0  0
  189.9980  175.0300  147.2460 C   0  0  0  0  0  3  0  0  0  0  0  0
  192.2070  175.7780  147.1240 O   0  0  0  0  0  0  0  0  0  0  0  0
  190.8190  176.8820  145.6430 N   0  0  0  0  0  2  0  0  0  0  0  0
  191.0390  175.9120  146.6800 C   0  0  0  0  0  0  0  0  0  0  0  0
  187.4970  175.1330  142.6170 O   0  0  0  0  0  0  0  0  0  0  0  0
  188.5540  175.1240  141.6660 C   0  0  0  0  0  2  0  0  0  0  0  0
  189.6860  174.2200  142.1400 C   0  0  1  0  0  3  0  0  0  0  0  0
  189.7250  172.8750  141.3990 C   0  0  2  0  0  3  0  0  0  0  0  0
  188.6490  172.8160  140.5070 O   0  0  0  0  0  1  0  0  0  0  0  0
  189.7230  171.6460  142.3200 C   0  0  2  0  0  3  0  0  0  0  0  0
  189.2170  172.0020  143.6360 N   0  0  0  0  0  1  0  0  0  0  0  0
  191.1280  171.0790  142.4650 C   0  0  0  0  0  2  0  0  0  0  0  0
  192.0160  171.1590  140.8800 S   0  0  0  0  0  0  0  0  0  0  0  0
  191.2050  169.6620  140.2490 C   0  0  0  0  0  1  0  0  0  0  0  0
  191.0400  174.9330  142.2180 C   0  0  0  0  0  2  0  0  0  0  0  0
  191.7670  174.5180  143.3350 O   0  0  0  0  0  1  0  0  0  0  0  0
  1  3  1  0  0  0  0
  1  4  2  0  0  0  0
  2  3  2  0  0  0  0
  3  8  1  0  0  0  0
  4  6  1  0  0  0  0
  5  7  1  0  0  0  0
  6  5  1  0  0  0  0
  8  7  1  0  0  0  0
  9 12  1  0  0  0  0
 10 13  1  0  0  0  0
 10 16  1  0  0  0  0
 11 10  2  0  0  0  0
 12 14  2  0  0  0  0
 13  6  1  6  0  0  0
 13  9  1  0  0  0  0
 16 17  1  0  0  0  0
 17 15  2  0  0  0  0
 17 14  1  0  0  0  0
 18  4  1  0  0  0  0
 19 18  1  0  0  0  0
 20 19  1  6  0  0  0
 20 28  1  0  0  0  0
 21 22  1  6  0  0  0
 21 20  1  0  0  0  0
 21 23  1  0  0  0  0
 23 25  1  0  0  0  0
 23 24  1  1  0  0  0
 26 25  1  0  0  0  0
 27 26  1  0  0  0  0
 28 29  1  0  0  0  0
M  END
>  <MODEL>
2

>  <REMARK>
 VINA RESULT:      -6.0      1.313      2.181
  Name = 
  9 active torsions:
  status: ('A' for Active; 'I' for Inactive)
    1  A    between atoms: C_2  and  C_4
    2  A    between atoms: C_2  and  C_18
    3  A    between atoms: C_4  and  C_17
    4  A    between atoms: C_5  and  C_18
    5  A    between atoms: S_9  and  C_17
    6  A    between atoms: C_10  and  O_12
    7  A    between atoms: O_12  and  C_16
    8  A    between atoms: C_16  and  C_18
    9  A    between atoms: C_19  and  N_22
                            x       y       z     vdW  Elec       q    Type
                         _______ _______ _______ _____ _____    ______ ____

>  <TORSDO>
F 9

$$$$
=
 OpenBabel11042417273D

 29 30  0  0  1  0  0  0  0  0999 V2000
  185.9720  176.8190  142.1790 N   0  0  0  0  0  0  0  0  0  0  0  0
  184.7950  178.6260  141.3400 O   0  0  0  0  0  0  0  0  0  0  0  0
  185.1040  177.9490  142.3530 C   0  0  0  0  0  0  0  0  0  0  0  0
  186.8930  176.3250  142.9640 C   0  0  0  0  0  0  0  0  0  0  0  0
  186.6070  178.1070  144.7720 C   0  0  0  0  0  2  0  0  0  0  0  0
  187.2710  176.9350  144.2250 N   0  0  0  0  0  0  0  0  0  0  0  0
  185.1300  177.8180  144.8990 C   0  0  0  0  0  2  0  0  0  0  0  0
  184.4090  178.2770  143.6460 C   0  0  0  0  0  2  0  0  0  0  0  0
  187.9700  176.3620  146.5090 C   0  0  0  0  0  2  0  0  0  0  0  0
  189.6530  177.1280  144.8460 C   0  0  0  0  0  0  0  0  0  0  0  0
  189.7590  177.9560  143.9030 O   0  0  0  0  0  0  0  0  0  0  0  0
  188.6260  175.2070  147.1740 C   0  0  0  0  0  3  0  0  0  0  0  0
  188.3570  176.3910  145.0440 C   0  0  2  0  0  3  0  0  0  0  0  0
  189.9440  175.0420  147.2640 C   0  0  0  0  0  3  0  0  0  0  0  0
  192.1570  175.7840  147.1810 O   0  0  0  0  0  0  0  0  0  0  0  0
  190.8000  176.8860  145.6700 N   0  0  0  0  0  2  0  0  0  0  0  0
  190.9970  175.9200  146.7150 C   0  0  0  0  0  0  0  0  0  0  0  0
  187.5660  175.1650  142.5620 O   0  0  0  0  0  0  0  0  0  0  0  0
  188.6540  175.1800  141.6470 C   0  0  0  0  0  2  0  0  0  0  0  0
  189.6080  174.0270  141.9370 C   0  0  1  0  0  3  0  0  0  0  0  0
  191.0710  174.3700  141.6220 C   0  0  2  0  0  3  0  0  0  0  0  0
  191.6700  173.2750  140.9930 O   0  0  0  0  0  1  0  0  0  0  0  0
  191.8960  174.8000  142.8450 C   0  0  2  0  0  3  0  0  0  0  0  0
  192.4360  176.1350  142.6460 N   0  0  0  0  0  1  0  0  0  0  0  0
  193.0450  173.8310  143.0890 C   0  0  0  0  0  2  0  0  0  0  0  0
  192.8420  172.9900  144.6880 S   0  0  0  0  0  0  0  0  0  0  0  0
  194.3780  173.6950  145.3540 C   0  0  0  0  0  1  0  0  0  0  0  0
  189.3930  173.3950  143.3160 C   0  0  0  0  0  2  0  0  0  0  0  0
  189.2780  172.0070  143.2240 O   0  0  0  0  0  1  0  0  0  0  0  0
  1  3  1  0  0  0  0
  1  4  2  0  0  0  0
  2  3  2  0  0  0  0
  3  8  1  0  0  0  0
  4  6  1  0  0  0  0
  5  7  1  0  0  0  0
  6  5  1  0  0  0  0
  8  7  1  0  0  0  0
  9 12  1  0  0  0  0
 10 13  1  0  0  0  0
 10 16  1  0  0  0  0
 11 10  2  0  0  0  0
 12 14  2  0  0  0  0
 13  6  1  6  0  0  0
 13  9  1  0  0  0  0
 16 17  1  0  0  0  0
 17 15  2  0  0  0  0
 17 14  1  0  0  0  0
 18  4  1  0  0  0  0
 19 18  1  0  0  0  0
 20 19  1  1  0  0  0
 20 28  1  0  0  0  0
 21 22  1  1  0  0  0
 21 20  1  0  0  0  0
 21 23  1  0  0  0  0
 23 24  1  6  0  0  0
 23 25  1  0  0  0  0
 25 26  1  0  0  0  0
 26 27  1  0  0  0  0
 29 28  1  0  0  0  0
M  END
>  <MODEL>
3

>  <REMARK>
 VINA RESULT:      -5.9      1.279      1.371
  Name = 
  9 active torsions:
  status: ('A' for Active; 'I' for Inactive)
    1  A    between atoms: C_2  and  C_4
    2  A    between atoms: C_2  and  C_18
    3  A    between atoms: C_4  and  C_17
    4  A    between atoms: C_5  and  C_18
    5  A    between atoms: S_9  and  C_17
    6  A    between atoms: C_10  and  O_12
    7  A    between atoms: O_12  and  C_16
    8  A    between atoms: C_16  and  C_18
    9  A    between atoms: C_19  and  N_22
                            x       y       z     vdW  Elec       q    Type
                         _______ _______ _______ _____ _____    ______ ____

>  <TORSDO>
F 9

$$$$
=
 OpenBabel11042417273D

 29 30  0  0  1  0  0  0  0  0999 V2000
  192.3040  173.7110  144.6510 N   0  0  0  0  0  0  0  0  0  0  0  0
  194.1940  172.8930  145.7070 O   0  0  0  0  0  0  0  0  0  0  0  0
  193.4800  173.8960  145.4540 C   0  0  0  0  0  0  0  0  0  0  0  0
  191.1400  174.3050  144.6970 C   0  0  0  0  0  0  0  0  0  0  0  0
  191.7280  175.7650  146.7090 C   0  0  0  0  0  2  0  0  0  0  0  0
  190.7910  175.2880  145.7060 N   0  0  0  0  0  0  0  0  0  0  0  0
  192.9460  176.3250  146.0150 C   0  0  0  0  0  2  0  0  0  0  0  0
  194.0000  175.2430  145.8760 C   0  0  0  0  0  2  0  0  0  0  0  0
  189.5270  177.3920  145.7910 C   0  0  0  0  0  2  0  0  0  0  0  0
  188.6470  175.3640  146.9290 C   0  0  0  0  0  0  0  0  0  0  0  0
  189.0690  174.3760  147.5870 O   0  0  0  0  0  0  0  0  0  0  0  0
  188.3380  177.9600  145.1050 C   0  0  0  0  0  3  0  0  0  0  0  0
  189.4510  175.8790  145.7680 C   0  0  2  0  0  3  0  0  0  0  0  0
  187.0810  177.7700  145.5010 C   0  0  0  0  0  3  0  0  0  0  0  0
  185.4440  177.1660  147.0540 O   0  0  0  0  0  0  0  0  0  0  0  0
  187.3820  175.9300  147.2890 N   0  0  0  0  0  2  0  0  0  0  0  0
  186.6140  176.9570  146.6420 C   0  0  0  0  0  0  0  0  0  0  0  0
  190.1730  173.9600  143.7450 O   0  0  0  0  0  0  0  0  0  0  0  0
  190.1820  174.4640  142.4150 C   0  0  0  0  0  2  0  0  0  0  0  0
  188.7650  174.5060  141.8550 C   0  0  1  0  0  3  0  0  0  0  0  0
  187.9720  175.7320  142.3320 C   0  0  2  0  0  3  0  0  0  0  0  0
  186.7210  175.3140  142.7930 O   0  0  0  0  0  1  0  0  0  0  0  0
  187.8100  176.8310  141.2700 C   0  0  2  0  0  3  0  0  0  0  0  0
  188.5530  178.0200  141.6560 N   0  0  0  0  0  1  0  0  0  0  0  0
  186.3430  177.1980  141.0950 C   0  0  0  0  0  2  0  0  0  0  0  0
  185.9400  178.6930  142.0480 S   0  0  0  0  0  0  0  0  0  0  0  0
  184.4050  177.9730  142.6970 C   0  0  0  0  0  1  0  0  0  0  0  0
  188.7030  174.2670  140.3430 C   0  0  0  0  0  2  0  0  0  0  0  0
  189.9290  173.8150  139.8520 O   0  0  0  0  0  1  0  0  0  0  0  0
  1  4  2  0  0  0  0
  1  3  1  0  0  0  0
  3  2  2  0  0  0  0
  3  8  1  0  0  0  0
  4  6  1  0  0  0  0
  6  5  1  0  0  0  0
  7  5  1  0  0  0  0
  8  7  1  0  0  0  0
 10 16  1  0  0  0  0
 10 11  2  0  0  0  0
 12 14  2  0  0  0  0
 12  9  1  0  0  0  0
 13  6  1  1  0  0  0
 13  9  1  0  0  0  0
 13 10  1  0  0  0  0
 14 17  1  0  0  0  0
 17 15  2  0  0  0  0
 17 16  1  0  0  0  0
 18  4  1  0  0  0  0
 19 18  1  0  0  0  0
 20 28  1  6  0  0  0
 20 21  1  0  0  0  0
 20 19  1  0  0  0  0
 21 22  1  6  0  0  0
 23 24  1  1  0  0  0
 23 21  1  0  0  0  0
 25 23  1  0  0  0  0
 25 26  1  0  0  0  0
 26 27  1  0  0  0  0
 29 28  1  0  0  0  0
M  END
>  <MODEL>
4

>  <REMARK>
 VINA RESULT:      -5.8      2.704      6.056
  Name = 
  9 active torsions:
  status: ('A' for Active; 'I' for Inactive)
    1  A    between atoms: C_2  and  C_4
    2  A    between atoms: C_2  and  C_18
    3  A    between atoms: C_4  and  C_17
    4  A    between atoms: C_5  and  C_18
    5  A    between atoms: S_9  and  C_17
    6  A    between atoms: C_10  and  O_12
    7  A    between atoms: O_12  and  C_16
    8  A    between atoms: C_16  and  C_18
    9  A    between atoms: C_19  and  N_22
                            x       y       z     vdW  Elec       q    Type
                         _______ _______ _______ _____ _____    ______ ____

>  <TORSDO>
F 9

$$$$
=
 OpenBabel11042417273D

 29 30  0  0  1  0  0  0  0  0999 V2000
  186.0910  176.8140  142.0620 N   0  0  0  0  0  0  0  0  0  0  0  0
  184.9740  178.6260  141.1520 O   0  0  0  0  0  0  0  0  0  0  0  0
  185.2410  177.9650  142.1880 C   0  0  0  0  0  0  0  0  0  0  0  0
  186.9790  176.3190  142.8840 C   0  0  0  0  0  0  0  0  0  0  0  0
  186.6800  178.1450  144.6450 C   0  0  0  0  0  2  0  0  0  0  0  0
  187.3350  176.9500  144.1410 N   0  0  0  0  0  0  0  0  0  0  0  0
  185.1950  177.8880  144.7350 C   0  0  0  0  0  2  0  0  0  0  0  0
  184.5180  178.3340  143.4540 C   0  0  0  0  0  2  0  0  0  0  0  0
  187.9690  176.4390  146.4580 C   0  0  0  0  0  2  0  0  0  0  0  0
  189.7090  177.0900  144.8050 C   0  0  0  0  0  0  0  0  0  0  0  0
  189.8600  177.8790  143.8340 O   0  0  0  0  0  0  0  0  0  0  0  0
  188.5750  175.2890  147.1780 C   0  0  0  0  0  3  0  0  0  0  0  0
  188.3870  176.4020  145.0020 C   0  0  2  0  0  3  0  0  0  0  0  0
  189.8850  175.0870  147.3020 C   0  0  0  0  0  3  0  0  0  0  0  0
  192.1220  175.7560  147.2380 O   0  0  0  0  0  0  0  0  0  0  0  0
  190.8310  176.8430  145.6610 N   0  0  0  0  0  2  0  0  0  0  0  0
  190.9770  175.9100  146.7430 C   0  0  0  0  0  0  0  0  0  0  0  0
  187.6400  175.1380  142.5250 O   0  0  0  0  0  0  0  0  0  0  0  0
  188.7610  175.1130  141.6500 C   0  0  0  0  0  2  0  0  0  0  0  0
  189.5670  173.8360  141.8560 C   0  0  1  0  0  3  0  0  0  0  0  0
  190.1520  173.2830  140.5490 C   0  0  2  0  0  3  0  0  0  0  0  0
  191.4480  173.7800  140.3840 O   0  0  0  0  0  1  0  0  0  0  0  0
  189.3040  173.5790  139.3020 C   0  0  2  0  0  3  0  0  0  0  0  0
  188.1950  172.6430  139.2110 N   0  0  0  0  0  1  0  0  0  0  0  0
  190.1470  173.4740  138.0390 C   0  0  0  0  0  2  0  0  0  0  0  0
  189.7600  171.9430  137.1380 S   0  0  0  0  0  0  0  0  0  0  0  0
  191.3460  171.1780  137.5790 C   0  0  0  0  0  1  0  0  0  0  0  0
  190.5760  173.9340  143.0040 C   0  0  0  0  0  2  0  0  0  0  0  0
  190.0380  173.4420  144.1950 O   0  0  0  0  0  1  0  0  0  0  0  0
  1  3  1  0  0  0  0
  1  4  2  0  0  0  0
  2  3  2  0  0  0  0
  3  8  1  0  0  0  0
  4  6  1  0  0  0  0
  5  7  1  0  0  0  0
  6  5  1  0  0  0  0
  8  7  1  0  0  0  0
  9 12  1  0  0  0  0
 10 13  1  0  0  0  0
 10 16  1  0  0  0  0
 11 10  2  0  0  0  0
 12 14  2  0  0  0  0
 13  6  1  6  0  0  0
 13  9  1  0  0  0  0
 16 17  1  0  0  0  0
 17 15  2  0  0  0  0
 17 14  1  0  0  0  0
 18  4  1  0  0  0  0
 19 18  1  0  0  0  0
 20 19  1  6  0  0  0
 20 28  1  0  0  0  0
 21 22  1  6  0  0  0
 21 20  1  0  0  0  0
 23 24  1  6  0  0  0
 23 21  1  0  0  0  0
 25 23  1  0  0  0  0
 26 27  1  0  0  0  0
 26 25  1  0  0  0  0
 28 29  1  0  0  0  0
M  END
>  <MODEL>
5

>  <REMARK>
 VINA RESULT:      -5.7      2.284      2.965
  Name = 
  9 active torsions:
  status: ('A' for Active; 'I' for Inactive)
    1  A    between atoms: C_2  and  C_4
    2  A    between atoms: C_2  and  C_18
    3  A    between atoms: C_4  and  C_17
    4  A    between atoms: C_5  and  C_18
    5  A    between atoms: S_9  and  C_17
    6  A    between atoms: C_10  and  O_12
    7  A    between atoms: O_12  and  C_16
    8  A    between atoms: C_16  and  C_18
    9  A    between atoms: C_19  and  N_22
                            x       y       z     vdW  Elec       q    Type
                         _______ _______ _______ _____ _____    ______ ____

>  <TORSDO>
F 9

$$$$
=
 OpenBabel11042417273D

 29 30  0  0  1  0  0  0  0  0999 V2000
  192.7660  176.7630  146.1990 N   0  0  0  0  0  0  0  0  0  0  0  0
  194.8940  177.6670  146.0860 O   0  0  0  0  0  0  0  0  0  0  0  0
  194.1910  176.6250  146.0870 C   0  0  0  0  0  0  0  0  0  0  0  0
  191.7990  176.0570  145.6740 C   0  0  0  0  0  0  0  0  0  0  0  0
  193.3550  174.4910  144.3880 C   0  0  0  0  0  2  0  0  0  0  0  0
  192.0280  174.9610  144.7520 N   0  0  0  0  0  0  0  0  0  0  0  0
  194.1030  174.1160  145.6440 C   0  0  0  0  0  2  0  0  0  0  0  0
  194.9080  175.3030  146.1360 C   0  0  0  0  0  2  0  0  0  0  0  0
  191.2340  172.7630  143.9950 C   0  0  0  0  0  2  0  0  0  0  0  0
  190.5180  174.8250  142.8040 C   0  0  0  0  0  0  0  0  0  0  0  0
  190.9870  175.9400  142.4510 O   0  0  0  0  0  0  0  0  0  0  0  0
  189.9840  171.9710  144.1190 C   0  0  0  0  0  3  0  0  0  0  0  0
  190.9150  174.2380  144.1290 C   0  0  2  0  0  3  0  0  0  0  0  0
  188.9440  172.0750  143.2950 C   0  0  0  0  0  3  0  0  0  0  0  0
  187.9100  172.7120  141.2990 O   0  0  0  0  0  0  0  0  0  0  0  0
  189.5770  174.1790  141.9370 N   0  0  0  0  0  2  0  0  0  0  0  0
  188.8000  172.9880  142.1430 C   0  0  0  0  0  0  0  0  0  0  0  0
  190.4770  176.3880  145.9950 O   0  0  0  0  0  0  0  0  0  0  0  0
  189.8050  177.5130  145.4430 C   0  0  0  0  0  2  0  0  0  0  0  0
  188.2950  177.3370  145.5560 C   0  0  1  0  0  3  0  0  0  0  0  0
  187.5700  177.5330  144.2160 C   0  0  2  0  0  3  0  0  0  0  0  0
  188.5000  177.9250  143.2490 O   0  0  0  0  0  1  0  0  0  0  0  0
  186.4030  178.5300  144.2700 C   0  0  2  0  0  3  0  0  0  0  0  0
  185.2300  177.9040  144.8580 N   0  0  0  0  0  1  0  0  0  0  0  0
  186.0530  179.0260  142.8730 C   0  0  0  0  0  2  0  0  0  0  0  0
  184.5230  178.2420  142.2820 S   0  0  0  0  0  0  0  0  0  0  0  0
  185.1130  178.1810  140.5660 C   0  0  0  0  0  1  0  0  0  0  0  0
  187.8870  176.0680  146.3110 C   0  0  0  0  0  2  0  0  0  0  0  0
  187.2260  176.3770  147.5010 O   0  0  0  0  0  1  0  0  0  0  0  0
  2  3  2  0  0  0  0
  3  8  1  0  0  0  0
  3  1  1  0  0  0  0
  4 18  1  0  0  0  0
  4  1  2  0  0  0  0
  5  6  1  0  0  0  0
  5  7  1  0  0  0  0
  6  4  1  0  0  0  0
  7  8  1  0  0  0  0
  9 12  1  0  0  0  0
 10 13  1  0  0  0  0
 11 10  2  0  0  0  0
 13  9  1  6  0  0  0
 13  6  1  0  0  0  0
 14 12  2  0  0  0  0
 15 17  2  0  0  0  0
 16 17  1  0  0  0  0
 16 10  1  0  0  0  0
 17 14  1  0  0  0  0
 19 18  1  0  0  0  0
 20 19  1  6  0  0  0
 20 28  1  0  0  0  0
 21 22  1  6  0  0  0
 21 23  1  0  0  0  0
 21 20  1  0  0  0  0
 23 24  1  6  0  0  0
 25 23  1  0  0  0  0
 26 25  1  0  0  0  0
 27 26  1  0  0  0  0
 28 29  1  0  0  0  0
M  END
>  <MODEL>
6

>  <REMARK>
 VINA RESULT:      -5.7      2.694      7.091
  Name = 
  9 active torsions:
  status: ('A' for Active; 'I' for Inactive)
    1  A    between atoms: C_2  and  C_4
    2  A    between atoms: C_2  and  C_18
    3  A    between atoms: C_4  and  C_17
    4  A    between atoms: C_5  and  C_18
    5  A    between atoms: S_9  and  C_17
    6  A    between atoms: C_10  and  O_12
    7  A    between atoms: O_12  and  C_16
    8  A    between atoms: C_16  and  C_18
    9  A    between atoms: C_19  and  N_22
                            x       y       z     vdW  Elec       q    Type
                         _______ _______ _______ _____ _____    ______ ____

>  <TORSDO>
F 9

$$$$
=
 OpenBabel11042417273D

 29 30  0  0  1  0  0  0  0  0999 V2000
  191.8850  173.6980  145.0200 N   0  0  0  0  0  0  0  0  0  0  0  0
  194.0770  173.7020  145.7630 O   0  0  0  0  0  0  0  0  0  0  0  0
  193.1580  174.3400  145.1900 C   0  0  0  0  0  0  0  0  0  0  0  0
  190.6740  174.1890  145.0410 C   0  0  0  0  0  0  0  0  0  0  0  0
  191.4240  176.5760  145.5590 C   0  0  0  0  0  2  0  0  0  0  0  0
  190.3880  175.5810  145.3380 N   0  0  0  0  0  0  0  0  0  0  0  0
  192.3380  176.6060  144.3580 C   0  0  0  0  0  2  0  0  0  0  0  0
  193.5100  175.6700  144.5810 C   0  0  0  0  0  2  0  0  0  0  0  0
  188.9410  177.5410  145.0330 C   0  0  0  0  0  2  0  0  0  0  0  0
  188.4000  175.8530  146.7760 C   0  0  0  0  0  0  0  0  0  0  0  0
  188.9890  175.1130  147.6100 O   0  0  0  0  0  0  0  0  0  0  0  0
  187.6320  177.8210  144.3900 C   0  0  0  0  0  3  0  0  0  0  0  0
  189.0130  176.0790  145.4220 C   0  0  2  0  0  3  0  0  0  0  0  0
  186.4530  177.6670  144.9890 C   0  0  0  0  0  3  0  0  0  0  0  0
  185.0690  177.4100  146.8530 O   0  0  0  0  0  0  0  0  0  0  0  0
  187.1340  176.4140  147.1430 N   0  0  0  0  0  2  0  0  0  0  0  0
  186.2000  177.1720  146.3570 C   0  0  0  0  0  0  0  0  0  0  0  0
  189.5970  173.3310  144.7910 O   0  0  0  0  0  0  0  0  0  0  0  0
  189.7600  172.0100  144.2890 C   0  0  0  0  0  2  0  0  0  0  0  0
  189.4290  171.9640  142.8010 C   0  0  1  0  0  3  0  0  0  0  0  0
  188.5680  173.1510  142.3450 C   0  0  2  0  0  3  0  0  0  0  0  0
  187.3830  172.6650  141.7850 O   0  0  0  0  0  1  0  0  0  0  0  0
  189.2730  174.1010  141.3640 C   0  0  2  0  0  3  0  0  0  0  0  0
  189.2860  175.4550  141.8940 N   0  0  0  0  0  1  0  0  0  0  0  0
  188.5670  174.1030  140.0150 C   0  0  0  0  0  2  0  0  0  0  0  0
  189.7010  173.5620  138.7010 S   0  0  0  0  0  0  0  0  0  0  0  0
  188.9410  171.9160  138.6010 C   0  0  0  0  0  1  0  0  0  0  0  0
  190.6500  171.6960  141.9160 C   0  0  0  0  0  2  0  0  0  0  0  0
  191.6970  171.1390  142.6530 O   0  0  0  0  0  1  0  0  0  0  0  0
  1  4  2  0  0  0  0
  1  3  1  0  0  0  0
  3  2  2  0  0  0  0
  4  6  1  0  0  0  0
  6 13  1  0  0  0  0
  6  5  1  0  0  0  0
  7  8  1  0  0  0  0
  7  5  1  0  0  0  0
  8  3  1  0  0  0  0
 10 16  1  0  0  0  0
 10 11  2  0  0  0  0
 12 14  2  0  0  0  0
 12  9  1  0  0  0  0
 13  9  1  1  0  0  0
 13 10  1  0  0  0  0
 14 17  1  0  0  0  0
 17 15  2  0  0  0  0
 17 16  1  0  0  0  0
 18  4  1  0  0  0  0
 19 18  1  0  0  0  0
 20 28  1  6  0  0  0
 20 19  1  0  0  0  0
 21 22  1  6  0  0  0
 21 20  1  0  0  0  0
 23 24  1  1  0  0  0
 23 21  1  0  0  0  0
 25 23  1  0  0  0  0
 26 25  1  0  0  0  0
 27 26  1  0  0  0  0
 28 29  1  0  0  0  0
M  END
>  <MODEL>
7

>  <REMARK>
 VINA RESULT:      -5.5      2.655      5.566
  Name = 
  9 active torsions:
  status: ('A' for Active; 'I' for Inactive)
    1  A    between atoms: C_2  and  C_4
    2  A    between atoms: C_2  and  C_18
    3  A    between atoms: C_4  and  C_17
    4  A    between atoms: C_5  and  C_18
    5  A    between atoms: S_9  and  C_17
    6  A    between atoms: C_10  and  O_12
    7  A    between atoms: O_12  and  C_16
    8  A    between atoms: C_16  and  C_18
    9  A    between atoms: C_19  and  N_22
                            x       y       z     vdW  Elec       q    Type
                         _______ _______ _______ _____ _____    ______ ____

>  <TORSDO>
F 9

$$$$
=
 OpenBabel11042417273D

 29 30  0  0  1  0  0  0  0  0999 V2000
  191.3480  175.1000  142.4230 N   0  0  0  0  0  0  0  0  0  0  0  0
  191.8720  173.6840  140.6680 O   0  0  0  0  0  0  0  0  0  0  0  0
  191.0790  173.9490  141.6070 C   0  0  0  0  0  0  0  0  0  0  0  0
  190.5330  175.9400  143.0040 C   0  0  0  0  0  0  0  0  0  0  0  0
  188.4140  174.8380  142.0990 C   0  0  0  0  0  2  0  0  0  0  0  0
  189.0920  175.8830  142.8480 N   0  0  0  0  0  0  0  0  0  0  0  0
  188.8050  173.4950  142.6660 C   0  0  0  0  0  2  0  0  0  0  0  0
  189.9990  172.9460  141.9090 C   0  0  0  0  0  2  0  0  0  0  0  0
  187.1030  176.2240  144.2490 C   0  0  0  0  0  2  0  0  0  0  0  0
  187.6560  177.8520  142.4530 C   0  0  0  0  0  0  0  0  0  0  0  0
  188.1190  177.8650  141.2800 O   0  0  0  0  0  0  0  0  0  0  0  0
  186.7380  177.0810  145.4060 C   0  0  0  0  0  3  0  0  0  0  0  0
  188.2150  176.8850  143.4590 C   0  0  2  0  0  3  0  0  0  0  0  0
  186.2640  178.3210  145.3020 C   0  0  0  0  0  3  0  0  0  0  0  0
  185.2850  180.0980  144.1440 O   0  0  0  0  0  0  0  0  0  0  0  0
  186.6410  178.8030  142.7920 N   0  0  0  0  0  2  0  0  0  0  0  0
  186.0390  179.0940  144.0640 C   0  0  0  0  0  0  0  0  0  0  0  0
  191.0740  176.9610  143.7960 O   0  0  0  0  0  0  0  0  0  0  0  0
  190.9250  177.0040  145.2090 C   0  0  0  0  0  2  0  0  0  0  0  0
  191.1890  175.6300  145.8130 C   0  0  1  0  0  3  0  0  0  0  0  0
  192.5770  175.5200  146.4600 C   0  0  2  0  0  3  0  0  0  0  0  0
  192.9610  176.7790  146.9290 O   0  0  0  0  0  1  0  0  0  0  0  0
  193.6600  174.9400  145.5370 C   0  0  2  0  0  3  0  0  0  0  0  0
  193.7890  173.5070  145.7490 N   0  0  0  0  0  1  0  0  0  0  0  0
  195.0040  175.6040  145.8000 C   0  0  0  0  0  2  0  0  0  0  0  0
  196.0070  175.6380  144.2840 S   0  0  0  0  0  0  0  0  0  0  0  0
  194.5790  176.0530  143.2430 C   0  0  0  0  0  1  0  0  0  0  0  0
  190.0420  175.1250  146.6950 C   0  0  0  0  0  2  0  0  0  0  0  0
  189.3410  174.0910  146.0700 O   0  0  0  0  0  1  0  0  0  0  0  0
  1  4  2  0  0  0  0
  2  3  2  0  0  0  0
  3  8  1  0  0  0  0
  3  1  1  0  0  0  0
  4 18  1  0  0  0  0
  5  7  1  0  0  0  0
  5  6  1  0  0  0  0
  6  4  1  0  0  0  0
  8  7  1  0  0  0  0
  9 12  1  0  0  0  0
 10 16  1  0  0  0  0
 10 13  1  0  0  0  0
 11 10  2  0  0  0  0
 13  6  1  6  0  0  0
 13  9  1  0  0  0  0
 14 12  2  0  0  0  0
 16 17  1  0  0  0  0
 17 15  2  0  0  0  0
 17 14  1  0  0  0  0
 18 19  1  0  0  0  0
 20 19  1  1  0  0  0
 20 21  1  0  0  0  0
 20 28  1  0  0  0  0
 21 22  1  6  0  0  0
 23 24  1  1  0  0  0
 23 25  1  0  0  0  0
 23 21  1  0  0  0  0
 26 25  1  0  0  0  0
 27 26  1  0  0  0  0
 29 28  1  0  0  0  0
M  END
>  <MODEL>
8

>  <REMARK>
 VINA RESULT:      -5.4      2.116      5.261
  Name = 
  9 active torsions:
  status: ('A' for Active; 'I' for Inactive)
    1  A    between atoms: C_2  and  C_4
    2  A    between atoms: C_2  and  C_18
    3  A    between atoms: C_4  and  C_17
    4  A    between atoms: C_5  and  C_18
    5  A    between atoms: S_9  and  C_17
    6  A    between atoms: C_10  and  O_12
    7  A    between atoms: O_12  and  C_16
    8  A    between atoms: C_16  and  C_18
    9  A    between atoms: C_19  and  N_22
                            x       y       z     vdW  Elec       q    Type
                         _______ _______ _______ _____ _____    ______ ____

>  <TORSDO>
F 9

$$$$
=
 OpenBabel11042417273D

 29 30  0  0  1  0  0  0  0  0999 V2000
  192.2340  177.1350  144.4280 N   0  0  0  0  0  0  0  0  0  0  0  0
  194.1810  177.2360  145.6750 O   0  0  0  0  0  0  0  0  0  0  0  0
  193.1130  176.6160  145.4380 C   0  0  0  0  0  0  0  0  0  0  0  0
  191.4560  176.5170  143.5790 C   0  0  0  0  0  0  0  0  0  0  0  0
  192.1460  174.1740  144.3250 C   0  0  0  0  0  2  0  0  0  0  0  0
  191.4020  175.0720  143.4580 N   0  0  0  0  0  0  0  0  0  0  0  0
  191.7830  174.4660  145.7610 C   0  0  0  0  0  2  0  0  0  0  0  0
  192.7600  175.4690  146.3440 C   0  0  0  0  0  2  0  0  0  0  0  0
  189.8800  173.1960  143.0170 C   0  0  0  0  0  2  0  0  0  0  0  0
  191.3420  174.0670  141.2040 C   0  0  0  0  0  0  0  0  0  0  0  0
  192.5080  174.5200  141.0480 O   0  0  0  0  0  0  0  0  0  0  0  0
  188.5620  173.0140  142.3550 C   0  0  0  0  0  3  0  0  0  0  0  0
  190.5700  174.4180  142.4450 C   0  0  2  0  0  3  0  0  0  0  0  0
  188.4000  172.8020  141.0500 C   0  0  0  0  0  3  0  0  0  0  0  0
  189.1440  172.2040  138.9180 O   0  0  0  0  0  0  0  0  0  0  0  0
  190.7800  173.2660  140.1580 N   0  0  0  0  0  2  0  0  0  0  0  0
  189.4520  172.7370  140.0150 C   0  0  0  0  0  0  0  0  0  0  0  0
  190.6530  177.2830  142.7240 O   0  0  0  0  0  0  0  0  0  0  0  0
  189.4610  177.9280  143.1550 C   0  0  0  0  0  2  0  0  0  0  0  0
  188.2380  177.2240  142.5770 C   0  0  1  0  0  3  0  0  0  0  0  0
  187.5150  176.3440  143.6060 C   0  0  2  0  0  3  0  0  0  0  0  0
  186.3340  175.8570  143.0390 O   0  0  0  0  0  1  0  0  0  0  0  0
  187.2170  177.0470  144.9400 C   0  0  2  0  0  3  0  0  0  0  0  0
  188.0220  176.4720  146.0050 N   0  0  0  0  0  1  0  0  0  0  0  0
  185.7440  176.9120  145.3020 C   0  0  0  0  0  2  0  0  0  0  0  0
  185.0390  178.5350  145.7190 S   0  0  0  0  0  0  0  0  0  0  0  0
  184.3740  178.7750  144.0470 C   0  0  0  0  0  1  0  0  0  0  0  0
  187.3150  178.1600  141.7910 C   0  0  0  0  0  2  0  0  0  0  0  0
  187.1790  177.7430  140.4660 O   0  0  0  0  0  1  0  0  0  0  0  0
  1  3  1  0  0  0  0
  3  2  2  0  0  0  0
  3  8  1  0  0  0  0
  4  1  2  0  0  0  0
  5  7  1  0  0  0  0
  6  4  1  0  0  0  0
  6  5  1  0  0  0  0
  7  8  1  0  0  0  0
 10 13  1  0  0  0  0
 11 10  2  0  0  0  0
 12  9  1  0  0  0  0
 13  9  1  1  0  0  0
 13  6  1  0  0  0  0
 14 12  2  0  0  0  0
 15 17  2  0  0  0  0
 16 10  1  0  0  0  0
 17 16  1  0  0  0  0
 17 14  1  0  0  0  0
 18 19  1  0  0  0  0
 18  4  1  0  0  0  0
 20 28  1  1  0  0  0
 20 19  1  0  0  0  0
 20 21  1  0  0  0  0
 21 22  1  6  0  0  0
 21 23  1  0  0  0  0
 23 25  1  0  0  0  0
 23 24  1  1  0  0  0
 25 26  1  0  0  0  0
 27 26  1  0  0  0  0
 29 28  1  0  0  0  0
M  END
>  <MODEL>
9

>  <REMARK>
 VINA RESULT:      -5.4      2.659      6.619
  Name = 
  9 active torsions:
  status: ('A' for Active; 'I' for Inactive)
    1  A    between atoms: C_2  and  C_4
    2  A    between atoms: C_2  and  C_18
    3  A    between atoms: C_4  and  C_17
    4  A    between atoms: C_5  and  C_18
    5  A    between atoms: S_9  and  C_17
    6  A    between atoms: C_10  and  O_12
    7  A    between atoms: O_12  and  C_16
    8  A    between atoms: C_16  and  C_18
    9  A    between atoms: C_19  and  N_22
                            x       y       z     vdW  Elec       q    Type
                         _______ _______ _______ _____ _____    ______ ____

>  <TORSDO>
F 9

$$$$
