=
 OpenBabel11042418463D

 44 46  0  0  1  0  0  0  0  0999 V2000
  189.9030  176.0690  144.0770 C   0  0  2  0  0  3  0  0  0  0  0  0
  191.3770  176.3640  144.0960 C   0  0  0  0  0  3  0  0  0  0  0  0
  192.3050  175.4500  144.2240 C   0  0  0  0  0  0  0  0  0  0  0  0
  193.2290  174.5400  144.3470 C   0  0  0  0  0  0  0  0  0  0  0  0
  192.8370  173.1190  144.5790 C   0  0  0  0  0  1  0  0  0  0  0  0
  194.6700  174.9370  144.2490 C   0  0  2  0  0  3  0  0  0  0  0  0
  196.3110  174.3070  145.8590 O   0  0  0  0  0  0  0  0  0  0  0  0
  194.7500  175.8130  146.5990 O   0  0  0  0  0  1  0  0  0  0  0  0
  195.3050  175.0170  145.6010 C   0  0  0  0  0  0  0  0  0  0  0  0
  194.8000  176.2030  143.5440 N   0  0  0  0  0  2  0  0  0  0  0  0
  196.1400  176.2370  142.9760 C   0  0  0  0  0  2  0  0  0  0  0  0
  196.0850  176.7080  141.5330 C   0  0  0  0  0  2  0  0  0  0  0  0
  196.0070  174.8910  140.2830 C   0  0  0  0  0  1  0  0  0  0  0  0
  195.2050  175.9090  140.7990 O   0  0  0  0  0  0  0  0  0  0  0  0
  189.4830  174.9730  145.0560 C   0  0  0  0  0  2  0  0  0  0  0  0
  189.0600  175.5980  146.3710 C   0  0  1  0  0  3  0  0  0  0  0  0
  190.2150  175.6370  147.2780 C   0  0  0  0  0  0  0  0  0  0  0  0
  191.1620  175.6750  148.0240 C   0  0  0  0  0  3  0  0  0  0  0  0
  188.5330  177.0010  146.1190 C   0  0  0  0  0  2  0  0  0  0  0  0
  186.3340  176.8510  147.2680 C   0  0  0  0  0  2  0  0  0  0  0  0
  187.0210  176.9840  145.9330 C   0  0  1  0  0  3  0  0  0  0  0  0
  186.5670  178.3370  145.4440 C   0  0  2  0  0  3  0  0  0  0  0  0
  185.5580  178.8170  146.3770 N   0  0  0  0  0  2  0  0  0  0  0  0
  185.7960  178.1610  147.5980 N   0  0  0  0  0  2  0  0  0  0  0  0
  185.0160  178.2060  141.4640 C   0  0  2  0  0  3  0  0  0  0  0  0
  184.1530  178.2600  142.5190 C   0  0  0  0  0  0  0  0  0  0  0  0
  184.3430  178.1770  140.2250 N   0  0  0  0  0  0  0  0  0  0  0  0
  184.6150  178.2940  143.8350 C   0  0  0  0  0  3  0  0  0  0  0  0
  186.3980  178.1720  141.6460 C   0  0  0  0  0  3  0  0  0  0  0  0
  182.9070  178.2260  140.5050 C   0  0  0  0  0  3  0  0  0  0  0  0
  186.8920  178.2040  142.9610 C   0  0  0  0  0  3  0  0  0  0  0  0
  182.7520  178.2640  142.0410 C   0  0  0  0  0  3  0  0  0  0  0  0
  186.0070  178.2670  144.0580 C   0  0  0  0  0  0  0  0  0  0  0  0
  189.4800  175.7140  142.6620 C   0  0  0  0  0  2  0  0  0  0  0  0
  188.6780  174.4230  142.6590 C   0  0  0  0  0  2  0  0  0  0  0  0
  189.3960  173.3670  141.8880 C   0  0  0  0  0  0  0  0  0  0  0  0
  189.1270  172.1890  142.0610 O   0  0  0  0  0  0  0  0  0  0  0  0
  190.4770  173.7560  140.9340 C   0  0  0  0  0  2  0  0  0  0  0  0
  189.9830  173.6830  139.5700 N   0  0  0  0  0  2  0  0  0  0  0  0
  191.0890  173.2270  138.7440 C   0  0  0  0  0  2  0  0  0  0  0  0
  190.6720  173.1890  137.3070 C   0  0  0  0  0  0  0  0  0  0  0  0
  191.5520  172.9560  136.4050 N   0  0  0  0  0  2  0  0  0  0  0  0
  189.2030  174.7320  136.2150 O   0  0  0  0  0  1  0  0  0  0  0  0
  189.2680  173.5090  136.8870 C   0  0  0  0  0  2  0  0  0  0  0  0
  1 34  1  6  0  0  0
  1  2  1  0  0  0  0
  1 15  1  0  0  0  0
  2  3  2  0  0  0  0
  3  4  2  0  0  0  0
  4  5  1  0  0  0  0
  6 10  1  1  0  0  0
  6  4  1  0  0  0  0
  6  9  1  0  0  0  0
  9  7  2  0  0  0  0
  9  8  1  0  0  0  0
 11 10  1  0  0  0  0
 12 11  1  0  0  0  0
 13 14  1  0  0  0  0
 14 12  1  0  0  0  0
 16 15  1  6  0  0  0
 16 17  1  0  0  0  0
 17 18  3  0  0  0  0
 19 16  1  0  0  0  0
 20 24  1  0  0  0  0
 21 19  1  1  0  0  0
 21 20  1  0  0  0  0
 22 33  1  6  0  0  0
 22 21  1  0  0  0  0
 22 23  1  0  0  0  0
 23 24  1  0  0  0  0
 25 29  1  1  0  0  0
 25 26  1  0  0  0  0
 26 28  1  0  0  0  0
 27 30  2  0  0  0  0
 27 25  1  0  0  0  0
 28 33  2  0  0  0  0
 29 31  2  0  0  0  0
 30 32  1  0  0  0  0
 31 33  1  0  0  0  0
 32 26  2  0  0  0  0
 35 34  1  0  0  0  0
 36 37  2  0  0  0  0
 36 35  1  0  0  0  0
 38 36  1  0  0  0  0
 39 38  1  0  0  0  0
 40 39  1  0  0  0  0
 41 40  1  0  0  0  0
 42 41  2  0  0  0  0
 43 44  1  0  0  0  0
 44 41  1  0  0  0  0
M  END
>  <MODEL>
1

>  <REMARK>
 VINA RESULT:      -6.3      0.000      0.000
  Name = 
  21 active torsions:
  status: ('A' for Active; 'I' for Inactive)
    1  A    between atoms: C_2  and  C_11
    2  A    between atoms: C_2  and  C_21
    3  A    between atoms: C_3  and  C_7
    4  A    between atoms: C_3  and  O_41
    5  A    between atoms: C_4  and  C_10
    6  A    between atoms: C_7  and  N_35
    7  A    between atoms: C_10  and  C_13
    8  A    between atoms: C_10  and  C_31
    9  A    between atoms: C_11  and  C_13
   10  A    between atoms: N_14  and  C_19
   11  A    between atoms: N_14  and  C_21
   12  A    between atoms: C_17  and  C_32
   13  A    between atoms: C_19  and  C_25
   14  A    between atoms: C_20  and  C_22
   15  A    between atoms: C_20  and  C_24
   16  A    between atoms: C_24  and  C_31
   17  A    between atoms: C_24  and  C_34
   18  A    between atoms: C_25  and  C_30
   19  A    between atoms: C_28  and  C_44
   20  A    between atoms: C_29  and  C_32
   21  A    between atoms: C_32  and  N_35
                            x       y       z     vdW  Elec       q    Type
                         _______ _______ _______ _____ _____    ______ ____

>  <TORSDO>
F 21

$$$$
=
 OpenBabel11042418463D

 44 46  0  0  1  0  0  0  0  0999 V2000
  189.8110  176.2210  144.1850 C   0  0  2  0  0  3  0  0  0  0  0  0
  191.2920  176.4860  144.2100 C   0  0  0  0  0  3  0  0  0  0  0  0
  192.2000  175.5510  144.3230 C   0  0  0  0  0  0  0  0  0  0  0  0
  193.1060  174.6200  144.4310 C   0  0  0  0  0  0  0  0  0  0  0  0
  192.6850  173.2040  144.6390 C   0  0  0  0  0  1  0  0  0  0  0  0
  194.5540  174.9890  144.3390 C   0  0  2  0  0  3  0  0  0  0  0  0
  196.0590  174.3630  146.0800 O   0  0  0  0  0  0  0  0  0  0  0  0
  194.6860  176.1310  146.5710 O   0  0  0  0  0  1  0  0  0  0  0  0
  195.1590  175.1550  145.6980 C   0  0  0  0  0  0  0  0  0  0  0  0
  194.7200  176.2010  143.5510 N   0  0  0  0  0  2  0  0  0  0  0  0
  196.1390  176.3210  143.2510 C   0  0  0  0  0  2  0  0  0  0  0  0
  196.3380  176.6420  141.7800 C   0  0  0  0  0  2  0  0  0  0  0  0
  195.8570  175.4370  139.9940 C   0  0  0  0  0  1  0  0  0  0  0  0
  196.7250  175.4940  141.0850 O   0  0  0  0  0  0  0  0  0  0  0  0
  189.3850  175.0330  145.0480 C   0  0  0  0  0  2  0  0  0  0  0  0
  189.0060  175.5190  146.4340 C   0  0  1  0  0  3  0  0  0  0  0  0
  190.1880  175.4570  147.3050 C   0  0  0  0  0  0  0  0  0  0  0  0
  191.1600  175.4120  148.0170 C   0  0  0  0  0  3  0  0  0  0  0  0
  188.4830  176.9440  146.3460 C   0  0  0  0  0  2  0  0  0  0  0  0
  186.3570  176.7820  147.6220 C   0  0  0  0  0  2  0  0  0  0  0  0
  186.9630  176.9550  146.2530 C   0  0  1  0  0  3  0  0  0  0  0  0
  186.5030  178.3330  145.8440 C   0  0  2  0  0  3  0  0  0  0  0  0
  185.5610  178.7910  146.8540 N   0  0  0  0  0  2  0  0  0  0  0  0
  185.8620  178.0860  148.0330 N   0  0  0  0  0  2  0  0  0  0  0  0
  184.6040  178.2460  142.0160 C   0  0  2  0  0  3  0  0  0  0  0  0
  185.9480  178.0290  142.1030 C   0  0  0  0  0  0  0  0  0  0  0  0
  184.1370  178.1750  140.6880 N   0  0  0  0  0  0  0  0  0  0  0  0
  186.6110  178.0580  143.3300 C   0  0  0  0  0  3  0  0  0  0  0  0
  183.8290  178.5180  143.1440 C   0  0  0  0  0  3  0  0  0  0  0  0
  185.2880  177.8740  139.8340 C   0  0  0  0  0  3  0  0  0  0  0  0
  184.4700  178.5540  144.3930 C   0  0  0  0  0  3  0  0  0  0  0  0
  186.5210  177.7890  140.7600 C   0  0  0  0  0  3  0  0  0  0  0  0
  185.8580  178.3240  144.4930 C   0  0  0  0  0  0  0  0  0  0  0  0
  189.3590  176.0280  142.7480 C   0  0  0  0  0  2  0  0  0  0  0  0
  188.3930  174.8590  142.6510 C   0  0  0  0  0  2  0  0  0  0  0  0
  188.8700  173.8740  141.6370 C   0  0  0  0  0  0  0  0  0  0  0  0
  188.0880  173.0820  141.1350 O   0  0  0  0  0  0  0  0  0  0  0  0
  190.3170  173.8340  141.2700 C   0  0  0  0  0  2  0  0  0  0  0  0
  190.4720  173.2980  139.9290 N   0  0  0  0  0  2  0  0  0  0  0  0
  191.7230  172.5580  139.9130 C   0  0  0  0  0  2  0  0  0  0  0  0
  191.5540  171.2850  139.1430 C   0  0  0  0  0  0  0  0  0  0  0  0
  190.3790  170.7940  138.9960 N   0  0  0  0  0  2  0  0  0  0  0  0
  192.3430  169.5580  137.6850 O   0  0  0  0  0  1  0  0  0  0  0  0
  192.7330  170.5200  138.6200 C   0  0  0  0  0  2  0  0  0  0  0  0
  1 34  1  6  0  0  0
  1  2  1  0  0  0  0
  1 15  1  0  0  0  0
  2  3  2  0  0  0  0
  3  4  2  0  0  0  0
  4  5  1  0  0  0  0
  6 10  1  6  0  0  0
  6  4  1  0  0  0  0
  6  9  1  0  0  0  0
  9  7  2  0  0  0  0
  9  8  1  0  0  0  0
 11 10  1  0  0  0  0
 12 11  1  0  0  0  0
 13 14  1  0  0  0  0
 14 12  1  0  0  0  0
 16 15  1  6  0  0  0
 16 17  1  0  0  0  0
 17 18  3  0  0  0  0
 19 16  1  0  0  0  0
 20 24  1  0  0  0  0
 21 19  1  1  0  0  0
 21 20  1  0  0  0  0
 22 33  1  6  0  0  0
 22 21  1  0  0  0  0
 22 23  1  0  0  0  0
 23 24  1  0  0  0  0
 25 26  1  0  0  0  0
 25 29  1  6  0  0  0
 26 28  1  0  0  0  0
 27 25  1  0  0  0  0
 28 33  2  0  0  0  0
 29 31  2  0  0  0  0
 30 27  2  0  0  0  0
 30 32  1  0  0  0  0
 31 33  1  0  0  0  0
 32 26  2  0  0  0  0
 35 34  1  0  0  0  0
 36 35  1  0  0  0  0
 37 36  2  0  0  0  0
 38 36  1  0  0  0  0
 39 38  1  0  0  0  0
 40 39  1  0  0  0  0
 41 40  1  0  0  0  0
 42 41  2  0  0  0  0
 43 44  1  0  0  0  0
 44 41  1  0  0  0  0
M  END
>  <MODEL>
2

>  <REMARK>
 VINA RESULT:      -6.3      1.393      1.800
  Name = 
  21 active torsions:
  status: ('A' for Active; 'I' for Inactive)
    1  A    between atoms: C_2  and  C_11
    2  A    between atoms: C_2  and  C_21
    3  A    between atoms: C_3  and  C_7
    4  A    between atoms: C_3  and  O_41
    5  A    between atoms: C_4  and  C_10
    6  A    between atoms: C_7  and  N_35
    7  A    between atoms: C_10  and  C_13
    8  A    between atoms: C_10  and  C_31
    9  A    between atoms: C_11  and  C_13
   10  A    between atoms: N_14  and  C_19
   11  A    between atoms: N_14  and  C_21
   12  A    between atoms: C_17  and  C_32
   13  A    between atoms: C_19  and  C_25
   14  A    between atoms: C_20  and  C_22
   15  A    between atoms: C_20  and  C_24
   16  A    between atoms: C_24  and  C_31
   17  A    between atoms: C_24  and  C_34
   18  A    between atoms: C_25  and  C_30
   19  A    between atoms: C_28  and  C_44
   20  A    between atoms: C_29  and  C_32
   21  A    between atoms: C_32  and  N_35
                            x       y       z     vdW  Elec       q    Type
                         _______ _______ _______ _____ _____    ______ ____

>  <TORSDO>
F 21

$$$$
=
 OpenBabel11042418463D

 44 46  0  0  1  0  0  0  0  0999 V2000
  191.3090  173.7060  142.8940 C   0  0  2  0  0  3  0  0  0  0  0  0
  190.6960  174.1320  144.2000 C   0  0  0  0  0  3  0  0  0  0  0  0
  190.5990  175.3770  144.5910 C   0  0  0  0  0  0  0  0  0  0  0  0
  190.4980  176.6170  144.9790 C   0  0  0  0  0  0  0  0  0  0  0  0
  191.0980  177.7000  144.1470 C   0  0  0  0  0  1  0  0  0  0  0  0
  189.7760  176.9330  146.2520 C   0  0  2  0  0  3  0  0  0  0  0  0
  190.1700  175.0940  147.7180 O   0  0  0  0  0  0  0  0  0  0  0  0
  191.2990  177.0170  148.2450 O   0  0  0  0  0  1  0  0  0  0  0  0
  190.4410  176.2880  147.4280 C   0  0  0  0  0  0  0  0  0  0  0  0
  188.3830  176.5220  146.1600 N   0  0  0  0  0  2  0  0  0  0  0  0
  187.6030  177.4950  146.9120 C   0  0  0  0  0  2  0  0  0  0  0  0
  186.1810  176.9940  147.0980 C   0  0  0  0  0  2  0  0  0  0  0  0
  184.3330  178.0730  146.5550 C   0  0  0  0  0  1  0  0  0  0  0  0
  185.3520  178.0420  147.5080 O   0  0  0  0  0  0  0  0  0  0  0  0
  192.1160  174.8070  142.2060 C   0  0  0  0  0  2  0  0  0  0  0  0
  193.5810  174.6690  142.5710 C   0  0  1  0  0  3  0  0  0  0  0  0
  194.3320  174.2240  141.3890 C   0  0  0  0  0  0  0  0  0  0  0  0
  194.9500  173.8540  140.4230 C   0  0  0  0  0  3  0  0  0  0  0  0
  194.1080  176.0080  143.0640 C   0  0  0  0  0  2  0  0  0  0  0  0
  194.9370  177.1310  145.1200 C   0  0  0  0  0  2  0  0  0  0  0  0
  194.8980  175.8340  144.3540 C   0  0  1  0  0  3  0  0  0  0  0  0
  194.1420  174.9110  145.2770 C   0  0  2  0  0  3  0  0  0  0  0  0
  193.9470  175.6200  146.5330 N   0  0  0  0  0  2  0  0  0  0  0  0
  194.0120  176.9930  146.2330 N   0  0  0  0  0  2  0  0  0  0  0  0
  196.3080  171.2750  145.8730 C   0  0  0  0  0  0  0  0  0  0  0  0
  194.9640  171.2260  145.6440 C   0  0  0  0  0  0  0  0  0  0  0  0
  196.8680  169.9920  146.0400 N   0  0  0  0  0  0  0  0  0  0  0  0
  194.2150  172.3870  145.4550 C   0  0  0  0  0  3  0  0  0  0  0  0
  196.9980  172.4850  145.9390 C   0  0  0  0  0  3  0  0  0  0  0  0
  195.7840  169.0180  145.8970 C   0  0  0  0  0  2  0  0  0  0  0  0
  196.2690  173.6720  145.7520 C   0  0  0  0  0  3  0  0  0  0  0  0
  194.4900  169.8230  145.6480 C   0  0  0  0  0  3  0  0  0  0  0  0
  194.8810  173.6300  145.5080 C   0  0  0  0  0  0  0  0  0  0  0  0
  190.2180  173.1870  141.9730 C   0  0  0  0  0  2  0  0  0  0  0  0
  188.8920  173.8560  142.2980 C   0  0  0  0  0  2  0  0  0  0  0  0
  188.5390  174.8490  141.2410 C   0  0  0  0  0  0  0  0  0  0  0  0
  188.4040  174.4910  140.0820 O   0  0  0  0  0  0  0  0  0  0  0  0
  188.3940  176.2910  141.6020 C   0  0  0  0  0  2  0  0  0  0  0  0
  187.1300  176.8020  141.1000 N   0  0  0  0  0  2  0  0  0  0  0  0
  186.7660  177.9280  141.9440 C   0  0  0  0  0  2  0  0  0  0  0  0
  185.6190  177.5510  142.8300 C   0  0  0  0  0  0  0  0  0  0  0  0
  185.7070  176.4980  143.5550 N   0  0  0  0  0  2  0  0  0  0  0  0
  183.5630  178.0210  141.6980 O   0  0  0  0  0  1  0  0  0  0  0  0
  184.3340  178.3240  142.8230 C   0  0  0  0  0  2  0  0  0  0  0  0
  1 34  1  6  0  0  0
  1  2  1  0  0  0  0
  2  3  2  0  0  0  0
  3  4  2  0  0  0  0
  5  4  1  0  0  0  0
  6  4  1  6  0  0  0
  6  9  1  0  0  0  0
  9  7  2  0  0  0  0
  9  8  1  0  0  0  0
 10  6  1  0  0  0  0
 10 11  1  0  0  0  0
 11 12  1  0  0  0  0
 12 14  1  0  0  0  0
 13 14  1  0  0  0  0
 15 16  1  0  0  0  0
 15  1  1  0  0  0  0
 16 17  1  6  0  0  0
 16 19  1  0  0  0  0
 18 17  3  0  0  0  0
 20 24  1  0  0  0  0
 21 19  1  6  0  0  0
 21 20  1  0  0  0  0
 21 22  1  0  0  0  0
 22 33  1  1  0  0  0
 22 23  1  0  0  0  0
 24 23  1  0  0  0  0
 25 29  1  0  0  0  0
 25 27  2  0  0  0  0
 26 32  2  0  0  0  0
 26 25  1  0  0  0  0
 28 33  2  0  0  0  0
 28 26  1  0  0  0  0
 30 27  1  0  0  0  0
 31 29  2  0  0  0  0
 32 30  1  0  0  0  0
 33 31  1  0  0  0  0
 34 35  1  0  0  0  0
 36 38  1  0  0  0  0
 36 35  1  0  0  0  0
 37 36  2  0  0  0  0
 39 38  1  0  0  0  0
 39 40  1  0  0  0  0
 40 41  1  0  0  0  0
 41 42  2  0  0  0  0
 43 44  1  0  0  0  0
 44 41  1  0  0  0  0
M  END
>  <MODEL>
3

>  <REMARK>
 VINA RESULT:      -6.2      3.137      8.832
  Name = 
  21 active torsions:
  status: ('A' for Active; 'I' for Inactive)
    1  A    between atoms: C_2  and  C_11
    2  A    between atoms: C_2  and  C_21
    3  A    between atoms: C_3  and  C_7
    4  A    between atoms: C_3  and  O_41
    5  A    between atoms: C_4  and  C_10
    6  A    between atoms: C_7  and  N_35
    7  A    between atoms: C_10  and  C_13
    8  A    between atoms: C_10  and  C_31
    9  A    between atoms: C_11  and  C_13
   10  A    between atoms: N_14  and  C_19
   11  A    between atoms: N_14  and  C_21
   12  A    between atoms: C_17  and  C_32
   13  A    between atoms: C_19  and  C_25
   14  A    between atoms: C_20  and  C_22
   15  A    between atoms: C_20  and  C_24
   16  A    between atoms: C_24  and  C_31
   17  A    between atoms: C_24  and  C_34
   18  A    between atoms: C_25  and  C_30
   19  A    between atoms: C_28  and  C_44
   20  A    between atoms: C_29  and  C_32
   21  A    between atoms: C_32  and  N_35
                            x       y       z     vdW  Elec       q    Type
                         _______ _______ _______ _____ _____    ______ ____

>  <TORSDO>
F 21

$$$$
=
 OpenBabel11042418463D

 44 46  0  0  1  0  0  0  0  0999 V2000
  189.7550  176.0770  143.9450 C   0  0  2  0  0  3  0  0  0  0  0  0
  191.2350  176.3020  143.7940 C   0  0  0  0  0  3  0  0  0  0  0  0
  192.1450  175.4180  144.1160 C   0  0  0  0  0  0  0  0  0  0  0  0
  193.0520  174.5380  144.4330 C   0  0  0  0  0  0  0  0  0  0  0  0
  192.6400  173.2550  145.0730 C   0  0  0  0  0  1  0  0  0  0  0  0
  194.4920  174.8290  144.1430 C   0  0  2  0  0  3  0  0  0  0  0  0
  195.7230  176.8420  144.4810 O   0  0  0  0  0  0  0  0  0  0  0  0
  194.7470  175.9710  146.3630 O   0  0  0  0  0  1  0  0  0  0  0  0
  195.0020  175.9480  144.9950 C   0  0  0  0  0  0  0  0  0  0  0  0
  194.6740  175.1320  142.7310 N   0  0  0  0  0  2  0  0  0  0  0  0
  195.2940  173.9650  142.1220 C   0  0  0  0  0  2  0  0  0  0  0  0
  195.9990  173.1350  143.1820 C   0  0  0  0  0  2  0  0  0  0  0  0
  196.5030  171.1300  143.9540 C   0  0  0  0  0  1  0  0  0  0  0  0
  195.7560  171.7760  142.9690 O   0  0  0  0  0  0  0  0  0  0  0  0
  189.4000  174.9480  144.9120 C   0  0  0  0  0  2  0  0  0  0  0  0
  188.9920  175.5310  146.2510 C   0  0  1  0  0  3  0  0  0  0  0  0
  190.1450  175.5010  147.1600 C   0  0  0  0  0  0  0  0  0  0  0  0
  191.0880  175.4730  147.9110 C   0  0  0  0  0  3  0  0  0  0  0  0
  188.5050  176.9580  146.0540 C   0  0  0  0  0  2  0  0  0  0  0  0
  186.3270  176.9050  147.2500 C   0  0  0  0  0  2  0  0  0  0  0  0
  186.9900  176.9950  145.9000 C   0  0  1  0  0  3  0  0  0  0  0  0
  186.5770  178.3570  145.4010 C   0  0  2  0  0  3  0  0  0  0  0  0
  185.6060  178.8870  146.3480 N   0  0  0  0  0  2  0  0  0  0  0  0
  185.8450  178.2380  147.5730 N   0  0  0  0  0  2  0  0  0  0  0  0
  184.9360  178.2370  141.4570 C   0  0  2  0  0  3  0  0  0  0  0  0
  184.0970  178.2650  142.5330 C   0  0  0  0  0  0  0  0  0  0  0  0
  184.2350  178.2070  140.2340 N   0  0  0  0  0  0  0  0  0  0  0  0
  184.5880  178.2940  143.8380 C   0  0  0  0  0  3  0  0  0  0  0  0
  186.3220  178.2260  141.6070 C   0  0  0  0  0  3  0  0  0  0  0  0
  182.8050  178.2270  140.5480 C   0  0  0  0  0  3  0  0  0  0  0  0
  186.8460  178.2550  142.9110 C   0  0  0  0  0  3  0  0  0  0  0  0
  182.6850  178.2470  142.0880 C   0  0  0  0  0  3  0  0  0  0  0  0
  185.9860  178.2900  144.0280 C   0  0  0  0  0  0  0  0  0  0  0  0
  189.1430  175.8240  142.5780 C   0  0  0  0  0  2  0  0  0  0  0  0
  188.6550  174.3880  142.4760 C   0  0  0  0  0  2  0  0  0  0  0  0
  189.5060  173.6170  141.5240 C   0  0  0  0  0  0  0  0  0  0  0  0
  189.3520  173.7450  140.3200 O   0  0  0  0  0  0  0  0  0  0  0  0
  190.5200  172.6560  142.0520 C   0  0  0  0  0  2  0  0  0  0  0  0
  191.2050  172.0040  140.9490 N   0  0  0  0  0  2  0  0  0  0  0  0
  191.2010  170.5780  141.2340 C   0  0  0  0  0  2  0  0  0  0  0  0
  190.8150  169.8130  140.0060 C   0  0  0  0  0  0  0  0  0  0  0  0
  190.7600  168.5340  140.0570 N   0  0  0  0  0  2  0  0  0  0  0  0
  189.4510  169.9900  138.0470 O   0  0  0  0  0  1  0  0  0  0  0  0
  190.5790  170.5000  138.6940 C   0  0  0  0  0  2  0  0  0  0  0  0
  1 34  1  6  0  0  0
  1 15  1  0  0  0  0
  2  1  1  0  0  0  0
  2  3  2  0  0  0  0
  3  4  2  0  0  0  0
  4  5  1  0  0  0  0
  6 10  1  6  0  0  0
  6  4  1  0  0  0  0
  6  9  1  0  0  0  0
  7  9  2  0  0  0  0
  9  8  1  0  0  0  0
 11 10  1  0  0  0  0
 11 12  1  0  0  0  0
 14 12  1  0  0  0  0
 14 13  1  0  0  0  0
 16 15  1  6  0  0  0
 16 17  1  0  0  0  0
 17 18  3  0  0  0  0
 19 16  1  0  0  0  0
 20 24  1  0  0  0  0
 21 19  1  1  0  0  0
 21 20  1  0  0  0  0
 22 33  1  6  0  0  0
 22 21  1  0  0  0  0
 22 23  1  0  0  0  0
 23 24  1  0  0  0  0
 25 29  1  1  0  0  0
 25 26  1  0  0  0  0
 26 28  1  0  0  0  0
 27 30  2  0  0  0  0
 27 25  1  0  0  0  0
 28 33  2  0  0  0  0
 29 31  2  0  0  0  0
 30 32  1  0  0  0  0
 31 33  1  0  0  0  0
 32 26  2  0  0  0  0
 35 34  1  0  0  0  0
 36 38  1  0  0  0  0
 36 35  1  0  0  0  0
 37 36  2  0  0  0  0
 39 40  1  0  0  0  0
 39 38  1  0  0  0  0
 41 42  2  0  0  0  0
 41 40  1  0  0  0  0
 43 44  1  0  0  0  0
 44 41  1  0  0  0  0
M  END
>  <MODEL>
4

>  <REMARK>
 VINA RESULT:      -6.1      1.836      2.157
  Name = 
  21 active torsions:
  status: ('A' for Active; 'I' for Inactive)
    1  A    between atoms: C_2  and  C_11
    2  A    between atoms: C_2  and  C_21
    3  A    between atoms: C_3  and  C_7
    4  A    between atoms: C_3  and  O_41
    5  A    between atoms: C_4  and  C_10
    6  A    between atoms: C_7  and  N_35
    7  A    between atoms: C_10  and  C_13
    8  A    between atoms: C_10  and  C_31
    9  A    between atoms: C_11  and  C_13
   10  A    between atoms: N_14  and  C_19
   11  A    between atoms: N_14  and  C_21
   12  A    between atoms: C_17  and  C_32
   13  A    between atoms: C_19  and  C_25
   14  A    between atoms: C_20  and  C_22
   15  A    between atoms: C_20  and  C_24
   16  A    between atoms: C_24  and  C_31
   17  A    between atoms: C_24  and  C_34
   18  A    between atoms: C_25  and  C_30
   19  A    between atoms: C_28  and  C_44
   20  A    between atoms: C_29  and  C_32
   21  A    between atoms: C_32  and  N_35
                            x       y       z     vdW  Elec       q    Type
                         _______ _______ _______ _____ _____    ______ ____

>  <TORSDO>
F 21

$$$$
=
 OpenBabel11042418463D

 44 46  0  0  1  0  0  0  0  0999 V2000
  190.6110  172.4450  143.4640 C   0  0  2  0  0  3  0  0  0  0  0  0
  191.9860  171.8660  143.6620 C   0  0  0  0  0  3  0  0  0  0  0  0
  192.8770  172.3640  144.4800 C   0  0  0  0  0  0  0  0  0  0  0  0
  193.7650  172.8560  145.2980 C   0  0  0  0  0  0  0  0  0  0  0  0
  193.4690  174.1220  146.0290 C   0  0  0  0  0  1  0  0  0  0  0  0
  195.0640  172.1370  145.4940 C   0  0  2  0  0  3  0  0  0  0  0  0
  196.9610  173.2190  146.4490 O   0  0  0  0  0  1  0  0  0  0  0  0
  196.4440  173.8680  144.3120 O   0  0  0  0  0  0  0  0  0  0  0  0
  196.2210  173.0840  145.4400 C   0  0  0  0  0  0  0  0  0  0  0  0
  195.2150  171.0830  144.5010 N   0  0  0  0  0  2  0  0  0  0  0  0
  195.9400  169.9970  145.1430 C   0  0  0  0  0  2  0  0  0  0  0  0
  194.9970  168.8450  145.4450 C   0  0  0  0  0  2  0  0  0  0  0  0
  194.6900  168.7530  147.6290 C   0  0  0  0  0  1  0  0  0  0  0  0
  195.4170  168.1670  146.5920 O   0  0  0  0  0  0  0  0  0  0  0  0
  189.8310  172.6330  144.7640 C   0  0  0  0  0  2  0  0  0  0  0  0
  189.4100  174.0840  144.9010 C   0  0  1  0  0  3  0  0  0  0  0  0
  189.5030  174.4800  146.3120 C   0  0  0  0  0  0  0  0  0  0  0  0
  189.5790  174.8120  147.4690 C   0  0  0  0  0  3  0  0  0  0  0  0
  190.3130  174.9560  144.0420 C   0  0  0  0  0  2  0  0  0  0  0  0
  191.4050  177.1700  144.3250 C   0  0  0  0  0  2  0  0  0  0  0  0
  190.0930  176.4300  144.3530 C   0  0  1  0  0  3  0  0  0  0  0  0
  189.3160  177.0630  143.2250 C   0  0  2  0  0  3  0  0  0  0  0  0
  190.0970  178.1930  142.7430 N   0  0  0  0  0  2  0  0  0  0  0  0
  191.4350  177.9310  143.0860 N   0  0  0  0  0  2  0  0  0  0  0  0
  185.4680  178.4400  144.4750 C   0  0  0  0  0  0  0  0  0  0  0  0
  186.2360  177.7190  145.3410 C   0  0  0  0  0  0  0  0  0  0  0  0
  184.2370  178.8220  145.0460 N   0  0  0  0  0  0  0  0  0  0  0  0
  187.4940  177.2410  144.9720 C   0  0  0  0  0  3  0  0  0  0  0  0
  185.8940  178.7260  143.1780 C   0  0  0  0  0  3  0  0  0  0  0  0
  184.2090  178.3070  146.4160 C   0  0  0  0  0  2  0  0  0  0  0  0
  187.1560  178.2570  142.7790 C   0  0  0  0  0  3  0  0  0  0  0  0
  185.5360  177.5460  146.6340 C   0  0  0  0  0  3  0  0  0  0  0  0
  187.9600  177.5160  143.6700 C   0  0  0  0  0  0  0  0  0  0  0  0
  189.8340  171.5710  142.4940 C   0  0  0  0  0  2  0  0  0  0  0  0
  188.9200  172.4260  141.6310 C   0  0  0  0  0  2  0  0  0  0  0  0
  189.4320  172.4810  140.2310 C   0  0  0  0  0  0  0  0  0  0  0  0
  189.9350  171.4930  139.7210 O   0  0  0  0  0  0  0  0  0  0  0  0
  189.3630  173.7640  139.4700 C   0  0  0  0  0  2  0  0  0  0  0  0
  188.1830  173.7750  138.6220 N   0  0  0  0  0  2  0  0  0  0  0  0
  188.6090  174.2340  137.3110 C   0  0  0  0  0  2  0  0  0  0  0  0
  187.7300  175.3560  136.8520 C   0  0  0  0  0  0  0  0  0  0  0  0
  186.8210  175.8000  137.6380 N   0  0  0  0  0  2  0  0  0  0  0  0
  187.9540  177.3020  135.4760 O   0  0  0  0  0  1  0  0  0  0  0  0
  187.8250  175.9110  135.4620 C   0  0  0  0  0  2  0  0  0  0  0  0
  1 34  1  6  0  0  0
  1  2  1  0  0  0  0
  1 15  1  0  0  0  0
  2  3  2  0  0  0  0
  3  4  2  0  0  0  0
  4  6  1  0  0  0  0
  4  5  1  0  0  0  0
  6 10  1  6  0  0  0
  8  9  2  0  0  0  0
  9  6  1  0  0  0  0
  9  7  1  0  0  0  0
 10 11  1  0  0  0  0
 11 12  1  0  0  0  0
 12 14  1  0  0  0  0
 14 13  1  0  0  0  0
 15 16  1  0  0  0  0
 16 19  1  6  0  0  0
 16 17  1  0  0  0  0
 17 18  3  0  0  0  0
 20 21  1  0  0  0  0
 21 19  1  6  0  0  0
 22 33  1  1  0  0  0
 22 21  1  0  0  0  0
 23 24  1  0  0  0  0
 23 22  1  0  0  0  0
 24 20  1  0  0  0  0
 25 27  2  0  0  0  0
 25 26  1  0  0  0  0
 26 32  2  0  0  0  0
 27 30  1  0  0  0  0
 28 26  1  0  0  0  0
 29 25  1  0  0  0  0
 30 32  1  0  0  0  0
 31 29  2  0  0  0  0
 31 33  1  0  0  0  0
 33 28  2  0  0  0  0
 35 34  1  0  0  0  0
 36 35  1  0  0  0  0
 37 36  2  0  0  0  0
 38 36  1  0  0  0  0
 39 38  1  0  0  0  0
 40 39  1  0  0  0  0
 41 40  1  0  0  0  0
 41 42  2  0  0  0  0
 44 43  1  0  0  0  0
 44 41  1  0  0  0  0
M  END
>  <MODEL>
5

>  <REMARK>
 VINA RESULT:      -6.1      2.647      4.357
  Name = 
  21 active torsions:
  status: ('A' for Active; 'I' for Inactive)
    1  A    between atoms: C_2  and  C_11
    2  A    between atoms: C_2  and  C_21
    3  A    between atoms: C_3  and  C_7
    4  A    between atoms: C_3  and  O_41
    5  A    between atoms: C_4  and  C_10
    6  A    between atoms: C_7  and  N_35
    7  A    between atoms: C_10  and  C_13
    8  A    between atoms: C_10  and  C_31
    9  A    between atoms: C_11  and  C_13
   10  A    between atoms: N_14  and  C_19
   11  A    between atoms: N_14  and  C_21
   12  A    between atoms: C_17  and  C_32
   13  A    between atoms: C_19  and  C_25
   14  A    between atoms: C_20  and  C_22
   15  A    between atoms: C_20  and  C_24
   16  A    between atoms: C_24  and  C_31
   17  A    between atoms: C_24  and  C_34
   18  A    between atoms: C_25  and  C_30
   19  A    between atoms: C_28  and  C_44
   20  A    between atoms: C_29  and  C_32
   21  A    between atoms: C_32  and  N_35
                            x       y       z     vdW  Elec       q    Type
                         _______ _______ _______ _____ _____    ______ ____

>  <TORSDO>
F 21

$$$$
=
 OpenBabel11042418463D

 44 46  0  0  1  0  0  0  0  0999 V2000
  190.4230  176.3310  144.0880 C   0  0  2  0  0  3  0  0  0  0  0  0
  191.8650  175.9920  144.3550 C   0  0  0  0  0  3  0  0  0  0  0  0
  192.6900  175.5400  143.4450 C   0  0  0  0  0  0  0  0  0  0  0  0
  193.5140  175.0950  142.5390 C   0  0  0  0  0  0  0  0  0  0  0  0
  193.0100  174.8030  141.1660 C   0  0  0  0  0  1  0  0  0  0  0  0
  194.9550  174.8890  142.8930 C   0  0  2  0  0  3  0  0  0  0  0  0
  196.0560  176.7700  143.8590 O   0  0  0  0  0  1  0  0  0  0  0  0
  196.0090  176.7420  141.5680 O   0  0  0  0  0  0  0  0  0  0  0  0
  195.7230  176.1710  142.8040 C   0  0  0  0  0  0  0  0  0  0  0  0
  195.5480  173.8740  142.0360 N   0  0  0  0  0  2  0  0  0  0  0  0
  196.4300  173.0750  142.8730 C   0  0  0  0  0  2  0  0  0  0  0  0
  195.7730  172.8020  144.2150 C   0  0  0  0  0  2  0  0  0  0  0  0
  194.6790  171.3820  145.5030 C   0  0  0  0  0  1  0  0  0  0  0  0
  195.1550  171.5490  144.2020 O   0  0  0  0  0  0  0  0  0  0  0  0
  189.8710  177.4270  144.9980 C   0  0  0  0  0  2  0  0  0  0  0  0
  189.2510  176.8010  146.2330 C   0  0  1  0  0  3  0  0  0  0  0  0
  190.3100  176.5160  147.2110 C   0  0  0  0  0  0  0  0  0  0  0  0
  191.1820  176.2880  148.0110 C   0  0  0  0  0  3  0  0  0  0  0  0
  188.2230  177.7550  146.8220 C   0  0  0  0  0  2  0  0  0  0  0  0
  185.9600  177.0610  147.5790 C   0  0  0  0  0  2  0  0  0  0  0  0
  186.8170  177.3720  146.3790 C   0  0  1  0  0  3  0  0  0  0  0  0
  186.1430  178.5790  145.7760 C   0  0  2  0  0  3  0  0  0  0  0  0
  184.9000  178.7880  146.5050 N   0  0  0  0  0  2  0  0  0  0  0  0
  185.0720  178.1970  147.7700 N   0  0  0  0  0  2  0  0  0  0  0  0
  185.2990  177.9740  141.6300 C   0  0  2  0  0  3  0  0  0  0  0  0
  186.5910  177.9240  142.0660 C   0  0  0  0  0  0  0  0  0  0  0  0
  185.1960  177.7460  140.2430 N   0  0  0  0  0  0  0  0  0  0  0  0
  186.9130  178.1250  143.4090 C   0  0  0  0  0  3  0  0  0  0  0  0
  184.2400  178.2390  142.4990 C   0  0  0  0  0  3  0  0  0  0  0  0
  186.5490  177.5170  139.7330 C   0  0  0  0  0  3  0  0  0  0  0  0
  184.5350  178.4460  143.8560 C   0  0  0  0  0  3  0  0  0  0  0  0
  187.5080  177.6490  140.9370 C   0  0  0  0  0  3  0  0  0  0  0  0
  185.8670  178.3900  144.3170 C   0  0  0  0  0  0  0  0  0  0  0  0
  189.5830  175.0710  144.1970 C   0  0  0  0  0  2  0  0  0  0  0  0
  188.7950  174.8500  142.9160 C   0  0  0  0  0  2  0  0  0  0  0  0
  189.3740  173.7150  142.1400 C   0  0  0  0  0  0  0  0  0  0  0  0
  190.2610  173.0290  142.6230 O   0  0  0  0  0  0  0  0  0  0  0  0
  188.8920  173.4480  140.7520 C   0  0  0  0  0  2  0  0  0  0  0  0
  190.0190  173.1400  139.8880 N   0  0  0  0  0  2  0  0  0  0  0  0
  189.7730  171.8220  139.3280 C   0  0  0  0  0  2  0  0  0  0  0  0
  190.9460  170.9290  139.5900 C   0  0  0  0  0  0  0  0  0  0  0  0
  192.0900  171.2370  139.1010 N   0  0  0  0  0  2  0  0  0  0  0  0
  190.8020  169.8360  141.7150 O   0  0  0  0  0  1  0  0  0  0  0  0
  190.7970  169.6340  140.3330 C   0  0  0  0  0  2  0  0  0  0  0  0
  1 34  1  1  0  0  0
  1  2  1  0  0  0  0
  1 15  1  0  0  0  0
  3  2  2  0  0  0  0
  4  6  1  0  0  0  0
  4  3  2  0  0  0  0
  5  4  1  0  0  0  0
  6 10  1  6  0  0  0
  8  9  2  0  0  0  0
  9  6  1  0  0  0  0
  9  7  1  0  0  0  0
 10 11  1  0  0  0  0
 11 12  1  0  0  0  0
 14 12  1  0  0  0  0
 14 13  1  0  0  0  0
 16 15  1  6  0  0  0
 16 19  1  0  0  0  0
 16 17  1  0  0  0  0
 17 18  3  0  0  0  0
 20 24  1  0  0  0  0
 21 19  1  1  0  0  0
 21 20  1  0  0  0  0
 22 33  1  6  0  0  0
 22 21  1  0  0  0  0
 22 23  1  0  0  0  0
 23 24  1  0  0  0  0
 25 26  1  0  0  0  0
 25 29  1  6  0  0  0
 26 28  1  0  0  0  0
 27 25  1  0  0  0  0
 28 33  2  0  0  0  0
 29 31  2  0  0  0  0
 30 27  2  0  0  0  0
 30 32  1  0  0  0  0
 31 33  1  0  0  0  0
 32 26  2  0  0  0  0
 35 34  1  0  0  0  0
 36 37  2  0  0  0  0
 36 35  1  0  0  0  0
 38 36  1  0  0  0  0
 39 38  1  0  0  0  0
 40 41  1  0  0  0  0
 40 39  1  0  0  0  0
 41 44  1  0  0  0  0
 42 41  2  0  0  0  0
 44 43  1  0  0  0  0
M  END
>  <MODEL>
6

>  <REMARK>
 VINA RESULT:      -6.0      1.898      2.925
  Name = 
  21 active torsions:
  status: ('A' for Active; 'I' for Inactive)
    1  A    between atoms: C_2  and  C_11
    2  A    between atoms: C_2  and  C_21
    3  A    between atoms: C_3  and  C_7
    4  A    between atoms: C_3  and  O_41
    5  A    between atoms: C_4  and  C_10
    6  A    between atoms: C_7  and  N_35
    7  A    between atoms: C_10  and  C_13
    8  A    between atoms: C_10  and  C_31
    9  A    between atoms: C_11  and  C_13
   10  A    between atoms: N_14  and  C_19
   11  A    between atoms: N_14  and  C_21
   12  A    between atoms: C_17  and  C_32
   13  A    between atoms: C_19  and  C_25
   14  A    between atoms: C_20  and  C_22
   15  A    between atoms: C_20  and  C_24
   16  A    between atoms: C_24  and  C_31
   17  A    between atoms: C_24  and  C_34
   18  A    between atoms: C_25  and  C_30
   19  A    between atoms: C_28  and  C_44
   20  A    between atoms: C_29  and  C_32
   21  A    between atoms: C_32  and  N_35
                            x       y       z     vdW  Elec       q    Type
                         _______ _______ _______ _____ _____    ______ ____

>  <TORSDO>
F 21

$$$$
=
 OpenBabel11042418463D

 44 46  0  0  1  0  0  0  0  0999 V2000
  189.1790  174.2190  143.3160 C   0  0  2  0  0  3  0  0  0  0  0  0
  190.0610  173.0570  143.6830 C   0  0  0  0  0  3  0  0  0  0  0  0
  191.0570  172.6330  142.9470 C   0  0  0  0  0  0  0  0  0  0  0  0
  192.0510  172.2140  142.2170 C   0  0  0  0  0  0  0  0  0  0  0  0
  192.3040  172.8400  140.8870 C   0  0  0  0  0  1  0  0  0  0  0  0
  192.9270  171.1130  142.7310 C   0  0  2  0  0  3  0  0  0  0  0  0
  192.6580  168.8250  143.3450 O   0  0  0  0  0  1  0  0  0  0  0  0
  191.1750  169.5920  141.7750 O   0  0  0  0  0  0  0  0  0  0  0  0
  192.2350  169.7880  142.6550 C   0  0  0  0  0  0  0  0  0  0  0  0
  193.3500  171.3950  144.0940 N   0  0  0  0  0  2  0  0  0  0  0  0
  194.8040  171.4460  144.0860 C   0  0  0  0  0  2  0  0  0  0  0  0
  195.3070  172.2290  145.2860 C   0  0  0  0  0  2  0  0  0  0  0  0
  196.6940  173.7910  145.9990 C   0  0  0  0  0  1  0  0  0  0  0  0
  196.0070  173.3620  144.8640 O   0  0  0  0  0  0  0  0  0  0  0  0
  189.6960  175.0310  142.1280 C   0  0  0  0  0  2  0  0  0  0  0  0
  188.6500  175.0510  141.0300 C   0  0  1  0  0  3  0  0  0  0  0  0
  188.6280  173.7430  140.3630 C   0  0  0  0  0  0  0  0  0  0  0  0
  188.6160  172.6670  139.8190 C   0  0  0  0  0  3  0  0  0  0  0  0
  187.2900  175.3650  141.6330 C   0  0  0  0  0  2  0  0  0  0  0  0
  187.0910  177.5150  140.4010 C   0  0  0  0  0  2  0  0  0  0  0  0
  187.0920  176.8700  141.7630 C   0  0  1  0  0  3  0  0  0  0  0  0
  185.6990  177.1430  142.2750 C   0  0  2  0  0  3  0  0  0  0  0  0
  185.0560  178.0350  141.3210 N   0  0  0  0  0  2  0  0  0  0  0  0
  185.7100  177.8450  140.0910 N   0  0  0  0  0  2  0  0  0  0  0  0
  185.8230  178.9680  146.1380 C   0  0  0  0  0  0  0  0  0  0  0  0
  186.0050  177.6200  146.0260 C   0  0  0  0  0  0  0  0  0  0  0  0
  185.9010  179.4080  147.4750 N   0  0  0  0  0  0  0  0  0  0  0  0
  185.9630  176.9810  144.7870 C   0  0  0  0  0  3  0  0  0  0  0  0
  185.5750  179.7710  145.0240 C   0  0  0  0  0  3  0  0  0  0  0  0
  186.1700  178.2340  148.3080 C   0  0  0  0  0  2  0  0  0  0  0  0
  185.5270  179.1540  143.7630 C   0  0  0  0  0  3  0  0  0  0  0  0
  186.2260  177.0160  147.3590 C   0  0  0  0  0  3  0  0  0  0  0  0
  185.7210  177.7620  143.6380 C   0  0  0  0  0  0  0  0  0  0  0  0
  188.9910  175.1090  144.5320 C   0  0  0  0  0  2  0  0  0  0  0  0
  189.4940  176.5140  144.2400 C   0  0  0  0  0  2  0  0  0  0  0  0
  189.9860  177.1590  145.4920 C   0  0  0  0  0  0  0  0  0  0  0  0
  190.4850  178.2720  145.4550 O   0  0  0  0  0  0  0  0  0  0  0  0
  189.9030  176.4170  146.7860 C   0  0  0  0  0  2  0  0  0  0  0  0
  191.1670  176.5200  147.4960 N   0  0  0  0  0  2  0  0  0  0  0  0
  191.9060  175.2990  147.2200 C   0  0  0  0  0  2  0  0  0  0  0  0
  192.9640  175.5640  146.1940 C   0  0  0  0  0  0  0  0  0  0  0  0
  192.9120  174.9520  145.0690 N   0  0  0  0  0  2  0  0  0  0  0  0
  194.8220  176.7900  145.3150 O   0  0  0  0  0  1  0  0  0  0  0  0
  194.1340  176.4560  146.4840 C   0  0  0  0  0  2  0  0  0  0  0  0
  1 15  1  6  0  0  0
  1  2  1  0  0  0  0
  1 34  1  0  0  0  0
  3  2  2  0  0  0  0
  4  3  2  0  0  0  0
  5  4  1  0  0  0  0
  6  4  1  1  0  0  0
  6 10  1  0  0  0  0
  8  9  2  0  0  0  0
  9  6  1  0  0  0  0
  9  7  1  0  0  0  0
 11 10  1  0  0  0  0
 11 12  1  0  0  0  0
 14 12  1  0  0  0  0
 14 13  1  0  0  0  0
 16 17  1  1  0  0  0
 16 19  1  0  0  0  0
 16 15  1  0  0  0  0
 18 17  3  0  0  0  0
 20 21  1  0  0  0  0
 21 19  1  6  0  0  0
 21 22  1  0  0  0  0
 22 33  1  1  0  0  0
 23 22  1  0  0  0  0
 24 20  1  0  0  0  0
 24 23  1  0  0  0  0
 25 27  2  0  0  0  0
 26 25  1  0  0  0  0
 26 32  2  0  0  0  0
 27 30  1  0  0  0  0
 28 26  1  0  0  0  0
 29 25  1  0  0  0  0
 31 29  2  0  0  0  0
 32 30  1  0  0  0  0
 33 31  1  0  0  0  0
 33 28  2  0  0  0  0
 35 34  1  0  0  0  0
 35 36  1  0  0  0  0
 36 38  1  0  0  0  0
 37 36  2  0  0  0  0
 38 39  1  0  0  0  0
 40 39  1  0  0  0  0
 41 44  1  0  0  0  0
 41 40  1  0  0  0  0
 42 41  2  0  0  0  0
 43 44  1  0  0  0  0
M  END
>  <MODEL>
7

>  <REMARK>
 VINA RESULT:      -5.9      2.944      6.168
  Name = 
  21 active torsions:
  status: ('A' for Active; 'I' for Inactive)
    1  A    between atoms: C_2  and  C_11
    2  A    between atoms: C_2  and  C_21
    3  A    between atoms: C_3  and  C_7
    4  A    between atoms: C_3  and  O_41
    5  A    between atoms: C_4  and  C_10
    6  A    between atoms: C_7  and  N_35
    7  A    between atoms: C_10  and  C_13
    8  A    between atoms: C_10  and  C_31
    9  A    between atoms: C_11  and  C_13
   10  A    between atoms: N_14  and  C_19
   11  A    between atoms: N_14  and  C_21
   12  A    between atoms: C_17  and  C_32
   13  A    between atoms: C_19  and  C_25
   14  A    between atoms: C_20  and  C_22
   15  A    between atoms: C_20  and  C_24
   16  A    between atoms: C_24  and  C_31
   17  A    between atoms: C_24  and  C_34
   18  A    between atoms: C_25  and  C_30
   19  A    between atoms: C_28  and  C_44
   20  A    between atoms: C_29  and  C_32
   21  A    between atoms: C_32  and  N_35
                            x       y       z     vdW  Elec       q    Type
                         _______ _______ _______ _____ _____    ______ ____

>  <TORSDO>
F 21

$$$$
=
 OpenBabel11042418463D

 44 46  0  0  1  0  0  0  0  0999 V2000
  192.9410  175.5780  142.8750 C   0  0  2  0  0  3  0  0  0  0  0  0
  192.1540  174.7520  141.8950 C   0  0  0  0  0  3  0  0  0  0  0  0
  191.5040  173.6620  142.2130 C   0  0  0  0  0  0  0  0  0  0  0  0
  190.8520  172.5790  142.5300 C   0  0  0  0  0  0  0  0  0  0  0  0
  190.9450  172.0440  143.9190 C   0  0  0  0  0  1  0  0  0  0  0  0
  190.0160  171.8940  141.4930 C   0  0  2  0  0  3  0  0  0  0  0  0
  191.7830  170.5340  140.6500 O   0  0  0  0  0  1  0  0  0  0  0  0
  190.6910  171.7930  139.0780 O   0  0  0  0  0  0  0  0  0  0  0  0
  190.8630  171.3500  140.3860 C   0  0  0  0  0  0  0  0  0  0  0  0
  189.0090  172.8050  140.9700 N   0  0  0  0  0  2  0  0  0  0  0  0
  187.9960  172.9560  142.0040 C   0  0  0  0  0  2  0  0  0  0  0  0
  187.8060  174.4250  142.3400 C   0  0  0  0  0  2  0  0  0  0  0  0
  188.5870  176.4350  141.8670 C   0  0  0  0  0  1  0  0  0  0  0  0
  188.2340  175.2220  141.2750 O   0  0  0  0  0  0  0  0  0  0  0  0
  192.1100  176.6460  143.5860 C   0  0  0  0  0  2  0  0  0  0  0  0
  191.8400  176.2150  145.0150 C   0  0  1  0  0  3  0  0  0  0  0  0
  193.0550  176.4170  145.8160 C   0  0  0  0  0  0  0  0  0  0  0  0
  194.0530  176.5900  146.4710 C   0  0  0  0  0  3  0  0  0  0  0  0
  190.6870  177.0280  145.5800 C   0  0  0  0  0  2  0  0  0  0  0  0
  189.6790  174.7710  145.8340 C   0  0  0  0  0  2  0  0  0  0  0  0
  189.3950  176.2230  145.5520 C   0  0  1  0  0  3  0  0  0  0  0  0
  188.5280  176.6380  146.7150 C   0  0  2  0  0  3  0  0  0  0  0  0
  188.2210  175.4350  147.4750 N   0  0  0  0  0  2  0  0  0  0  0  0
  189.2460  174.5130  147.1980 N   0  0  0  0  0  2  0  0  0  0  0  0
  184.8850  178.4980  145.4750 C   0  0  0  0  0  0  0  0  0  0  0  0
  185.6400  177.8230  144.5600 C   0  0  0  0  0  0  0  0  0  0  0  0
  183.7160  179.0420  144.9050 N   0  0  0  0  0  0  0  0  0  0  0  0
  186.8410  177.2100  144.9180 C   0  0  0  0  0  2  0  0  0  0  0  0
  185.2800  178.6170  146.8080 C   0  0  0  0  0  3  0  0  0  0  0  0
  183.7080  178.6770  143.4880 C   0  0  0  0  0  3  0  0  0  0  0  0
  186.4850  178.0100  147.1970 C   0  0  0  0  0  3  0  0  0  0  0  0
  185.0010  177.8720  143.2260 C   0  0  0  0  0  3  0  0  0  0  0  0
  187.2680  177.3050  146.2590 C   0  0  0  0  0  0  0  0  0  0  0  0
  194.1270  176.2070  142.1640 C   0  0  0  0  0  2  0  0  0  0  0  0
  195.4240  175.8120  142.8500 C   0  0  0  0  0  2  0  0  0  0  0  0
  196.3880  175.2580  141.8560 C   0  0  0  0  0  0  0  0  0  0  0  0
  196.9420  175.9980  141.0590 O   0  0  0  0  0  0  0  0  0  0  0  0
  196.6410  173.7860  141.8130 C   0  0  0  0  0  2  0  0  0  0  0  0
  195.5850  173.0820  142.5210 N   0  0  0  0  0  2  0  0  0  0  0  0
  196.2330  172.2070  143.4830 C   0  0  0  0  0  2  0  0  0  0  0  0
  195.8280  172.5870  144.8730 C   0  0  0  0  0  0  0  0  0  0  0  0
  194.6570  173.0670  145.0750 N   0  0  0  0  0  2  0  0  0  0  0  0
  197.2090  173.7760  146.4250 O   0  0  0  0  0  1  0  0  0  0  0  0
  196.7890  172.5070  146.0220 C   0  0  0  0  0  2  0  0  0  0  0  0
  1  2  1  6  0  0  0
  1 15  1  0  0  0  0
  2  3  2  0  0  0  0
  3  4  2  0  0  0  0
  4  5  1  0  0  0  0
  6  9  1  6  0  0  0
  6  4  1  0  0  0  0
  8  9  2  0  0  0  0
  9  7  1  0  0  0  0
 10  6  1  0  0  0  0
 10 11  1  0  0  0  0
 11 12  1  0  0  0  0
 14 13  1  0  0  0  0
 14 12  1  0  0  0  0
 16 15  1  6  0  0  0
 16 19  1  0  0  0  0
 16 17  1  0  0  0  0
 17 18  3  0  0  0  0
 20 24  1  0  0  0  0
 21 19  1  1  0  0  0
 21 20  1  0  0  0  0
 21 22  1  0  0  0  0
 22 33  1  6  0  0  0
 22 23  1  0  0  0  0
 24 23  1  0  0  0  0
 25 29  2  0  0  0  0
 26 28  1  0  0  0  0
 26 25  1  0  0  0  0
 27 25  1  0  0  0  0
 28 33  1  0  0  0  0
 29 31  1  0  0  0  0
 30 27  2  0  0  0  0
 32 30  1  0  0  0  0
 32 26  2  0  0  0  0
 33 31  2  0  0  0  0
 34 35  1  0  0  0  0
 34  1  1  0  0  0  0
 36 35  1  0  0  0  0
 37 36  2  0  0  0  0
 38 36  1  0  0  0  0
 38 39  1  0  0  0  0
 39 40  1  0  0  0  0
 40 41  1  0  0  0  0
 41 42  2  0  0  0  0
 41 44  1  0  0  0  0
 44 43  1  0  0  0  0
M  END
>  <MODEL>
8

>  <REMARK>
 VINA RESULT:      -5.9      2.359      6.151
  Name = 
  21 active torsions:
  status: ('A' for Active; 'I' for Inactive)
    1  A    between atoms: C_2  and  C_11
    2  A    between atoms: C_2  and  C_21
    3  A    between atoms: C_3  and  C_7
    4  A    between atoms: C_3  and  O_41
    5  A    between atoms: C_4  and  C_10
    6  A    between atoms: C_7  and  N_35
    7  A    between atoms: C_10  and  C_13
    8  A    between atoms: C_10  and  C_31
    9  A    between atoms: C_11  and  C_13
   10  A    between atoms: N_14  and  C_19
   11  A    between atoms: N_14  and  C_21
   12  A    between atoms: C_17  and  C_32
   13  A    between atoms: C_19  and  C_25
   14  A    between atoms: C_20  and  C_22
   15  A    between atoms: C_20  and  C_24
   16  A    between atoms: C_24  and  C_31
   17  A    between atoms: C_24  and  C_34
   18  A    between atoms: C_25  and  C_30
   19  A    between atoms: C_28  and  C_44
   20  A    between atoms: C_29  and  C_32
   21  A    between atoms: C_32  and  N_35
                            x       y       z     vdW  Elec       q    Type
                         _______ _______ _______ _____ _____    ______ ____

>  <TORSDO>
F 21

$$$$
=
 OpenBabel11042418463D

 44 46  0  0  1  0  0  0  0  0999 V2000
  192.4930  173.8530  144.4690 C   0  0  2  0  0  3  0  0  0  0  0  0
  192.9050  173.0710  143.2520 C   0  0  0  0  0  3  0  0  0  0  0  0
  192.0900  172.3250  142.5520 C   0  0  0  0  0  0  0  0  0  0  0  0
  191.2780  171.5840  141.8510 C   0  0  0  0  0  0  0  0  0  0  0  0
  189.8700  171.4030  142.3070 C   0  0  0  0  0  1  0  0  0  0  0  0
  191.7740  170.9330  140.5970 C   0  0  2  0  0  3  0  0  0  0  0  0
  193.2620  172.1220  139.1640 O   0  0  0  0  0  1  0  0  0  0  0  0
  191.0640  172.7540  139.0230 O   0  0  0  0  0  0  0  0  0  0  0  0
  192.0740  171.9490  139.5400 C   0  0  0  0  0  0  0  0  0  0  0  0
  190.8070  169.9590  140.1140 N   0  0  0  0  0  2  0  0  0  0  0  0
  191.4400  169.2390  139.0190 C   0  0  0  0  0  2  0  0  0  0  0  0
  190.4070  168.8760  137.9660 C   0  0  0  0  0  2  0  0  0  0  0  0
  190.3470  170.4250  136.3960 C   0  0  0  0  0  1  0  0  0  0  0  0
  189.7070  170.0160  137.5650 O   0  0  0  0  0  0  0  0  0  0  0  0
  192.1020  175.3000  144.1680 C   0  0  0  0  0  2  0  0  0  0  0  0
  190.5930  175.4430  144.2250 C   0  0  1  0  0  3  0  0  0  0  0  0
  190.0370  175.2190  142.8840 C   0  0  0  0  0  0  0  0  0  0  0  0
  189.5770  175.0390  141.7840 C   0  0  0  0  0  3  0  0  0  0  0  0
  190.0260  174.4350  145.2120 C   0  0  0  0  0  2  0  0  0  0  0  0
  190.2870  175.0240  147.6120 C   0  0  0  0  0  2  0  0  0  0  0  0
  189.3950  175.1440  146.4040 C   0  0  1  0  0  3  0  0  0  0  0  0
  189.3700  176.6290  146.1390 C   0  0  2  0  0  3  0  0  0  0  0  0
  190.0580  177.2770  147.2460 N   0  0  0  0  0  2  0  0  0  0  0  0
  190.9270  176.3170  147.7950 N   0  0  0  0  0  2  0  0  0  0  0  0
  185.3450  178.0270  145.8010 C   0  0  0  0  0  0  0  0  0  0  0  0
  186.2500  178.3450  144.8300 C   0  0  0  0  0  0  0  0  0  0  0  0
  184.0670  178.5580  145.5330 N   0  0  0  0  0  0  0  0  0  0  0  0
  187.5760  177.9200  144.9050 C   0  0  0  0  0  2  0  0  0  0  0  0
  185.7010  177.2710  146.9180 C   0  0  0  0  0  3  0  0  0  0  0  0
  184.1500  179.2820  144.2630 C   0  0  0  0  0  3  0  0  0  0  0  0
  187.0310  176.8290  147.0190 C   0  0  0  0  0  3  0  0  0  0  0  0
  185.6120  179.1690  143.7790 C   0  0  0  0  0  3  0  0  0  0  0  0
  187.9710  177.1480  146.0170 C   0  0  0  0  0  0  0  0  0  0  0  0
  193.6080  173.8040  145.5000 C   0  0  0  0  0  2  0  0  0  0  0  0
  194.1830  172.4000  145.5860 C   0  0  0  0  0  2  0  0  0  0  0  0
  195.6630  172.4330  145.4000 C   0  0  0  0  0  0  0  0  0  0  0  0
  196.2400  171.4830  144.8960 O   0  0  0  0  0  0  0  0  0  0  0  0
  196.4400  173.6180  145.8710 C   0  0  0  0  0  2  0  0  0  0  0  0
  197.2010  174.1810  144.7690 N   0  0  0  0  0  2  0  0  0  0  0  0
  196.4460  175.3200  144.2730 C   0  0  0  0  0  2  0  0  0  0  0  0
  196.0380  175.0830  142.8520 C   0  0  0  0  0  0  0  0  0  0  0  0
  196.4780  174.0460  142.2390 N   0  0  0  0  0  2  0  0  0  0  0  0
  195.9880  176.8730  141.2640 O   0  0  0  0  0  1  0  0  0  0  0  0
  195.2030  176.0730  142.0980 C   0  0  0  0  0  2  0  0  0  0  0  0
  1  2  1  6  0  0  0
  1 34  1  0  0  0  0
  3  2  2  0  0  0  0
  4  5  1  0  0  0  0
  4  3  2  0  0  0  0
  6  9  1  6  0  0  0
  6  4  1  0  0  0  0
  7  9  1  0  0  0  0
  8  9  2  0  0  0  0
 10  6  1  0  0  0  0
 11 10  1  0  0  0  0
 12 11  1  0  0  0  0
 13 14  1  0  0  0  0
 14 12  1  0  0  0  0
 15 16  1  0  0  0  0
 15  1  1  0  0  0  0
 16 17  1  6  0  0  0
 16 19  1  0  0  0  0
 18 17  3  0  0  0  0
 20 24  1  0  0  0  0
 21 19  1  6  0  0  0
 21 20  1  0  0  0  0
 22 33  1  1  0  0  0
 22 21  1  0  0  0  0
 22 23  1  0  0  0  0
 23 24  1  0  0  0  0
 25 29  2  0  0  0  0
 26 28  1  0  0  0  0
 26 25  1  0  0  0  0
 27 25  1  0  0  0  0
 28 33  1  0  0  0  0
 29 31  1  0  0  0  0
 30 27  2  0  0  0  0
 32 30  1  0  0  0  0
 32 26  2  0  0  0  0
 33 31  2  0  0  0  0
 34 35  1  0  0  0  0
 36 35  1  0  0  0  0
 36 38  1  0  0  0  0
 37 36  2  0  0  0  0
 39 38  1  0  0  0  0
 40 39  1  0  0  0  0
 41 40  1  0  0  0  0
 42 41  2  0  0  0  0
 43 44  1  0  0  0  0
 44 41  1  0  0  0  0
M  END
>  <MODEL>
9

>  <REMARK>
 VINA RESULT:      -5.9      2.451      6.206
  Name = 
  21 active torsions:
  status: ('A' for Active; 'I' for Inactive)
    1  A    between atoms: C_2  and  C_11
    2  A    between atoms: C_2  and  C_21
    3  A    between atoms: C_3  and  C_7
    4  A    between atoms: C_3  and  O_41
    5  A    between atoms: C_4  and  C_10
    6  A    between atoms: C_7  and  N_35
    7  A    between atoms: C_10  and  C_13
    8  A    between atoms: C_10  and  C_31
    9  A    between atoms: C_11  and  C_13
   10  A    between atoms: N_14  and  C_19
   11  A    between atoms: N_14  and  C_21
   12  A    between atoms: C_17  and  C_32
   13  A    between atoms: C_19  and  C_25
   14  A    between atoms: C_20  and  C_22
   15  A    between atoms: C_20  and  C_24
   16  A    between atoms: C_24  and  C_31
   17  A    between atoms: C_24  and  C_34
   18  A    between atoms: C_25  and  C_30
   19  A    between atoms: C_28  and  C_44
   20  A    between atoms: C_29  and  C_32
   21  A    between atoms: C_32  and  N_35
                            x       y       z     vdW  Elec       q    Type
                         _______ _______ _______ _____ _____    ______ ____

>  <TORSDO>
F 21

$$$$
