=
 OpenBabel11042419523D

 56 65  0  0  1  0  0  0  0  0999 V2000
  187.4490  177.4230  141.9050 C   0  0  2  0  0  3  0  0  0  0  0  0
  187.9800  176.3800  147.1370 C   0  0  0  0  0  2  0  0  0  0  0  0
  188.8620  174.8090  142.7420 C   0  0  0  0  0  3  0  0  0  0  0  0
  186.4230  178.2810  139.0200 C   0  0  0  0  0  1  0  0  0  0  0  0
  192.6950  176.0930  146.2940 C   0  0  0  0  0  0  0  0  0  0  0  0
  191.1990  174.8150  144.8680 C   0  0  0  0  0  0  0  0  0  0  0  0
  187.8320  175.2420  140.5250 C   0  0  0  0  0  0  0  0  0  0  0  0
  186.1420  176.7280  145.4560 C   0  0  1  0  0  3  0  0  0  0  0  0
  194.0470  176.3400  146.8990 C   0  0  0  0  0  2  0  0  0  0  0  0
  189.4310  173.6380  143.4700 C   0  0  2  0  0  3  0  0  0  0  0  0
  186.1050  178.0860  142.1550 C   0  0  0  0  0  2  0  0  0  0  0  0
  189.1500  177.2850  146.7880 C   0  0  0  0  0  2  0  0  0  0  0  0
  193.6790  174.4460  144.6630 C   0  0  0  0  0  3  0  0  0  0  0  0
  190.9270  173.7930  143.7850 C   0  0  2  0  0  3  0  0  0  0  0  0
  191.4690  172.4820  144.1660 N   0  0  0  0  0  2  0  0  0  0  0  0
  188.7680  173.0200  141.3290 N   0  0  0  0  0  0  0  0  0  0  0  0
  189.2990  172.5940  142.4230 C   0  0  0  0  0  0  0  0  0  0  0  0
  187.3900  176.5580  140.6730 C   0  0  2  0  0  3  0  0  0  0  0  0
  194.9610  176.5560  144.4990 C   0  0  0  0  0  2  0  0  0  0  0  0
  187.1050  175.8490  138.5940 C   0  0  0  0  0  0  0  0  0  0  0  0
  194.8300  175.0610  144.3720 C   0  0  0  0  0  0  0  0  0  0  0  0
  186.9720  177.3690  144.3420 C   0  0  0  0  0  2  0  0  0  0  0  0
  190.1580  175.5200  145.3920 N   0  0  0  0  0  0  0  0  0  0  0  0
  190.0220  171.2970  142.5420 C   0  0  0  0  0  2  0  0  0  0  0  0
  195.0230  177.0420  145.9500 C   0  0  0  0  0  2  0  0  0  0  0  0
  191.4580  171.6000  142.9910 C   0  0  0  0  0  2  0  0  0  0  0  0
  186.9460  176.9420  139.4190 C   0  0  0  0  0  0  0  0  0  0  0  0
  187.6410  174.8100  139.2600 N   0  0  0  0  0  0  0  0  0  0  0  0
  186.6700  177.0900  146.8440 C   0  0  0  0  0  2  0  0  0  0  0  0
  190.3210  176.4840  146.3350 C   0  0  0  0  0  0  0  0  0  0  0  0
  192.5140  175.1250  145.2800 C   0  0  0  0  0  0  0  0  0  0  0  0
  186.5110  176.8860  142.9760 C   0  0  2  0  0  3  0  0  0  0  0  0
  188.4580  174.3900  141.5510 C   0  0  0  0  0  0  0  0  0  0  0  0
  191.5960  176.7800  146.8090 C   0  0  0  0  0  3  0  0  0  0  0  0
  195.9670  172.9310  143.9580 C   0  0  0  0  0  3  0  0  0  0  0  0
  195.9280  174.2530  143.8310 C   0  0  0  0  0  3  0  0  0  0  0  0
  195.4550  169.8210  143.6940 C   0  0  0  0  0  2  0  0  0  0  0  0
  197.7630  171.1400  141.1900 O   0  0  0  0  0  1  0  0  0  0  0  0
  197.1110  170.5640  145.4000 C   0  0  0  0  0  2  0  0  0  0  0  0
  197.9410  171.4130  144.4390 C   0  0  0  0  0  2  0  0  0  0  0  0
  197.1010  172.1350  143.3810 C   0  0  1  0  0  3  0  0  0  0  0  0
  195.3650  171.0630  141.7150 C   0  0  2  0  0  3  0  0  0  0  0  0
  196.7610  171.2500  142.1570 C   0  0  1  0  0  0  0  0  0  0  0  0
  196.4830  169.3630  144.7110 C   0  0  0  0  0  2  0  0  0  0  0  0
  196.0780  169.9490  142.3820 N   0  0  1  0  0  0  0  0  0  0  0  0
  194.6850  168.5900  139.2530 C   0  0  0  0  0  2  0  0  0  0  0  0
  193.4750  169.4630  139.0300 C   0  0  0  0  0  2  0  0  0  0  0  0
  195.5860  172.0010  139.3970 C   0  0  0  0  0  1  0  0  0  0  0  0
  193.6380  170.6170  139.9930 C   0  0  0  0  0  2  0  0  0  0  0  0
  195.1310  170.7990  140.2080 C   0  0  0  0  0  0  0  0  0  0  0  0
  195.7960  169.5360  139.6550 C   0  0  0  0  0  2  0  0  0  0  0  0
  188.2870  175.1020  136.3970 C   0  0  0  0  0  1  0  0  0  0  0  0
  186.6690  175.7800  136.8590 S   0  0  0  0  0  0  0  0  0  0  0  0
  184.7260  177.0810  145.3410 N   0  0  0  0  0  2  0  0  0  0  0  0
  184.4640  178.1160  146.1790 O   0  0  0  0  0  0  0  0  0  0  0  0
  183.7750  179.0390  145.3920 C   0  0  0  0  0  1  0  0  0  0  0  0
  1 11  1  6  0  0  0
  1 32  1  0  0  0  0
  4 27  1  0  0  0  0
  5 34  1  0  0  0  0
  5  9  1  0  0  0  0
  6 31  1  0  0  0  0
  6 23  2  0  0  0  0
  7 18  1  0  0  0  0
  7 33  1  0  0  0  0
  8 54  1  1  0  0  0
  8 29  1  0  0  0  0
 10  3  1  6  0  0  0
 10 14  1  0  0  0  0
 12  2  1  0  0  0  0
 13 31  1  0  0  0  0
 14 15  1  1  0  0  0
 14  6  1  0  0  0  0
 16 33  1  0  0  0  0
 16 17  2  0  0  0  0
 17 24  1  0  0  0  0
 17 10  1  0  0  0  0
 18 27  1  6  0  0  0
 18  1  1  0  0  0  0
 19 25  1  0  0  0  0
 20 28  1  0  0  0  0
 20 27  2  0  0  0  0
 21 19  1  0  0  0  0
 21 13  2  0  0  0  0
 22  8  1  0  0  0  0
 23 30  1  0  0  0  0
 24 26  1  0  0  0  0
 25  9  1  0  0  0  0
 26 15  1  0  0  0  0
 28  7  2  0  0  0  0
 29  2  1  0  0  0  0
 30 12  1  0  0  0  0
 30 34  2  0  0  0  0
 31  5  2  0  0  0  0
 32 11  1  6  0  0  0
 32 22  1  0  0  0  0
 33  3  2  0  0  0  0
 36 35  2  0  0  0  0
 36 21  1  0  0  0  0
 37 44  1  0  0  0  0
 40 39  1  0  0  0  0
 41 35  1  1  0  0  0
 41 40  1  0  0  0  0
 42 50  1  6  0  0  0
 42 43  1  0  0  0  0
 42 45  1  0  0  0  0
 43 38  1  6  0  0  0
 43 45  1  0  0  0  0
 43 41  1  0  0  0  0
 44 39  1  0  0  0  0
 45 37  1  1  0  0  0
 46 51  1  0  0  0  0
 47 46  1  0  0  0  0
 47 49  1  0  0  0  0
 48 50  1  0  0  0  0
 49 50  1  0  0  0  0
 51 50  1  0  0  0  0
 52 53  1  0  0  0  0
 53 20  1  0  0  0  0
 54 55  1  0  0  0  0
 56 55  1  0  0  0  0
M  END
>  <MODEL>
1

>  <REMARK>
 VINA RESULT:      -7.6      0.000      0.000
  Name = 
  6 active torsions:
  status: ('A' for Active; 'I' for Inactive)
    1  A    between atoms: C_9  and  C_29
    2  A    between atoms: N_13  and  C_14
    3  A    between atoms: N_13  and  O_22
    4  A    between atoms: C_23  and  C_36
    5  A    between atoms: C_34  and  S_40
    6  A    between atoms: C_37  and  C_39
                            x       y       z     vdW  Elec       q    Type
                         _______ _______ _______ _____ _____    ______ ____

>  <TORSDO>
F 6

$$$$
=
 OpenBabel11042419523D

 56 65  0  0  1  0  0  0  0  0999 V2000
  190.5690  177.4380  143.3450 C   0  0  2  0  0  3  0  0  0  0  0  0
  194.7260  175.1510  145.8420 C   0  0  0  0  0  2  0  0  0  0  0  0
  191.3260  174.5450  142.5800 C   0  0  0  0  0  3  0  0  0  0  0  0
  187.9460  179.0640  142.5810 C   0  0  0  0  0  1  0  0  0  0  0  0
  196.5920  174.4770  141.4730 C   0  0  0  0  0  0  0  0  0  0  0  0
  194.3020  173.7630  141.8610 C   0  0  0  0  0  0  0  0  0  0  0  0
  189.1170  175.6070  142.1860 C   0  0  0  0  0  0  0  0  0  0  0  0
  192.4710  176.1080  146.4130 C   0  0  1  0  0  3  0  0  0  0  0  0
  197.8830  174.4050  140.7110 C   0  0  0  0  0  2  0  0  0  0  0  0
  191.9100  173.1750  142.4910 C   0  0  2  0  0  3  0  0  0  0  0  0
  190.1970  178.1890  144.6130 C   0  0  0  0  0  2  0  0  0  0  0  0
  195.3340  175.9580  144.7080 C   0  0  0  0  0  2  0  0  0  0  0  0
  195.4150  173.1430  139.6910 C   0  0  0  0  0  3  0  0  0  0  0  0
  193.0270  173.0630  141.4410 C   0  0  2  0  0  3  0  0  0  0  0  0
  193.2830  171.6420  141.1730 N   0  0  0  0  0  2  0  0  0  0  0  0
  189.6880  173.1590  141.8050 N   0  0  0  0  0  0  0  0  0  0  0  0
  190.7340  172.4270  141.9760 C   0  0  0  0  0  0  0  0  0  0  0  0
  189.3350  176.8970  142.6710 C   0  0  2  0  0  3  0  0  0  0  0  0
  196.5480  175.0550  138.6040 C   0  0  0  0  0  2  0  0  0  0  0  0
  187.3480  176.7320  141.7070 C   0  0  0  0  0  0  0  0  0  0  0  0
  195.9830  173.6590  138.5960 C   0  0  0  0  0  0  0  0  0  0  0  0
  192.2180  176.8810  145.1170 C   0  0  0  0  0  2  0  0  0  0  0  0
  194.3250  174.4530  143.0350 N   0  0  0  0  0  0  0  0  0  0  0  0
  190.8880  171.0580  141.4100 C   0  0  0  0  0  2  0  0  0  0  0  0
  197.8570  175.1790  139.3890 C   0  0  0  0  0  2  0  0  0  0  0  0
  192.1170  171.0650  140.4910 C   0  0  0  0  0  2  0  0  0  0  0  0
  188.1990  177.6150  142.3380 C   0  0  0  0  0  0  0  0  0  0  0  0
  187.8980  175.5080  141.6140 N   0  0  0  0  0  0  0  0  0  0  0  0
  193.9560  176.0690  146.7760 C   0  0  0  0  0  2  0  0  0  0  0  0
  195.4140  175.1430  143.4630 C   0  0  0  0  0  0  0  0  0  0  0  0
  195.4360  173.8010  141.0200 C   0  0  0  0  0  0  0  0  0  0  0  0
  190.7560  176.7900  144.7090 C   0  0  2  0  0  3  0  0  0  0  0  0
  190.0510  174.4680  142.2270 C   0  0  0  0  0  0  0  0  0  0  0  0
  196.5720  175.1580  142.6900 C   0  0  0  0  0  3  0  0  0  0  0  0
  195.3490  171.6850  137.2920 C   0  0  0  0  0  3  0  0  0  0  0  0
  195.9510  172.8670  137.3620 C   0  0  0  0  0  3  0  0  0  0  0  0
  195.1250  168.5450  137.6020 C   0  0  0  0  0  2  0  0  0  0  0  0
  193.6520  169.8180  134.5130 O   0  0  0  0  0  1  0  0  0  0  0  0
  197.2890  169.4590  136.7740 C   0  0  0  0  0  2  0  0  0  0  0  0
  196.6780  170.2860  135.6450 C   0  0  0  0  0  2  0  0  0  0  0  0
  195.3260  170.9070  136.0090 C   0  0  1  0  0  3  0  0  0  0  0  0
  193.1890  169.6650  136.9200 C   0  0  2  0  0  3  0  0  0  0  0  0
  194.1320  169.9390  135.8180 C   0  0  1  0  0  0  0  0  0  0  0  0
  196.4950  168.1920  137.0550 C   0  0  0  0  0  2  0  0  0  0  0  0
  194.1600  168.6240  136.5110 N   0  0  1  0  0  0  0  0  0  0  0  0
  189.7680  169.9020  137.8600 C   0  0  0  0  0  2  0  0  0  0  0  0
  189.6810  170.6070  136.5290 C   0  0  0  0  0  2  0  0  0  0  0  0
  191.7400  168.2340  135.4520 C   0  0  0  0  0  1  0  0  0  0  0  0
  191.0810  170.5510  135.9610 C   0  0  0  0  0  2  0  0  0  0  0  0
  191.7360  169.3040  136.5310 C   0  0  0  0  0  0  0  0  0  0  0  0
  190.8430  168.8490  137.6890 C   0  0  0  0  0  2  0  0  0  0  0  0
  186.3320  177.3490  139.3900 C   0  0  0  0  0  1  0  0  0  0  0  0
  185.7170  177.1230  141.0820 S   0  0  0  0  0  0  0  0  0  0  0  0
  191.6900  176.6540  147.5240 N   0  0  0  0  0  2  0  0  0  0  0  0
  191.2750  175.6290  148.3120 O   0  0  0  0  0  0  0  0  0  0  0  0
  190.1830  175.0860  147.6340 C   0  0  0  0  0  1  0  0  0  0  0  0
  1 11  1  1  0  0  0
  1 32  1  0  0  0  0
  2 29  1  0  0  0  0
  5 34  1  0  0  0  0
  6 23  2  0  0  0  0
  7 33  1  0  0  0  0
  8 29  1  0  0  0  0
  8 54  1  1  0  0  0
  9  5  1  0  0  0  0
 10  3  1  6  0  0  0
 12  2  1  0  0  0  0
 13 31  1  0  0  0  0
 14 15  1  1  0  0  0
 14  6  1  0  0  0  0
 14 10  1  0  0  0  0
 16 17  2  0  0  0  0
 16 33  1  0  0  0  0
 17 10  1  0  0  0  0
 18  7  1  6  0  0  0
 18  1  1  0  0  0  0
 19 25  1  0  0  0  0
 20 27  2  0  0  0  0
 21 19  1  0  0  0  0
 21 13  2  0  0  0  0
 22  8  1  0  0  0  0
 23 30  1  0  0  0  0
 24 17  1  0  0  0  0
 25  9  1  0  0  0  0
 26 15  1  0  0  0  0
 26 24  1  0  0  0  0
 27  4  1  0  0  0  0
 27 18  1  0  0  0  0
 28 20  1  0  0  0  0
 28  7  2  0  0  0  0
 30 12  1  0  0  0  0
 31  5  2  0  0  0  0
 31  6  1  0  0  0  0
 32 11  1  1  0  0  0
 32 22  1  0  0  0  0
 33  3  2  0  0  0  0
 34 30  2  0  0  0  0
 35 36  2  0  0  0  0
 36 21  1  0  0  0  0
 39 44  1  0  0  0  0
 40 41  1  0  0  0  0
 40 39  1  0  0  0  0
 41 35  1  1  0  0  0
 42 50  1  6  0  0  0
 43 38  1  6  0  0  0
 43 41  1  0  0  0  0
 43 45  1  0  0  0  0
 43 42  1  0  0  0  0
 44 37  1  0  0  0  0
 45 42  1  0  0  0  0
 45 37  1  1  0  0  0
 47 46  1  0  0  0  0
 48 50  1  0  0  0  0
 49 47  1  0  0  0  0
 49 50  1  0  0  0  0
 50 51  1  0  0  0  0
 51 46  1  0  0  0  0
 52 53  1  0  0  0  0
 53 20  1  0  0  0  0
 54 55  1  0  0  0  0
 56 55  1  0  0  0  0
M  END
>  <MODEL>
2

>  <REMARK>
 VINA RESULT:      -7.4      3.027      5.606
  Name = 
  6 active torsions:
  status: ('A' for Active; 'I' for Inactive)
    1  A    between atoms: C_9  and  C_29
    2  A    between atoms: N_13  and  C_14
    3  A    between atoms: N_13  and  O_22
    4  A    between atoms: C_23  and  C_36
    5  A    between atoms: C_34  and  S_40
    6  A    between atoms: C_37  and  C_39
                            x       y       z     vdW  Elec       q    Type
                         _______ _______ _______ _____ _____    ______ ____

>  <TORSDO>
F 6

$$$$
=
 OpenBabel11042419523D

 56 65  0  0  1  0  0  0  0  0999 V2000
  187.5710  177.3380  142.1030 C   0  0  2  0  0  3  0  0  0  0  0  0
  188.5330  175.9590  147.1950 C   0  0  0  0  0  2  0  0  0  0  0  0
  189.0460  174.6810  142.6490 C   0  0  0  0  0  3  0  0  0  0  0  0
  186.3110  178.3770  139.3760 C   0  0  0  0  0  1  0  0  0  0  0  0
  193.1620  175.7490  145.9480 C   0  0  0  0  0  0  0  0  0  0  0  0
  191.5510  174.5590  144.5710 C   0  0  0  0  0  0  0  0  0  0  0  0
  187.8360  175.2530  140.5580 C   0  0  0  0  0  0  0  0  0  0  0  0
  186.5620  176.4080  145.6970 C   0  0  1  0  0  3  0  0  0  0  0  0
  194.5580  175.9630  146.4540 C   0  0  0  0  0  2  0  0  0  0  0  0
  189.6720  173.4680  143.2500 C   0  0  2  0  0  3  0  0  0  0  0  0
  186.2530  177.9770  142.5060 C   0  0  0  0  0  2  0  0  0  0  0  0
  189.6700  176.8910  146.8100 C   0  0  0  0  0  2  0  0  0  0  0  0
  194.0050  174.2160  144.1370 C   0  0  0  0  0  3  0  0  0  0  0  0
  191.1900  173.6090  143.4490 C   0  0  2  0  0  3  0  0  0  0  0  0
  191.7600  172.2780  143.6980 N   0  0  0  0  0  2  0  0  0  0  0  0
  188.8340  172.9880  141.1350 N   0  0  0  0  0  0  0  0  0  0  0  0
  189.4530  172.4940  142.1510 C   0  0  0  0  0  0  0  0  0  0  0  0
  187.4090  176.5550  140.8270 C   0  0  2  0  0  3  0  0  0  0  0  0
  195.2710  176.3380  144.0060 C   0  0  0  0  0  2  0  0  0  0  0  0
  186.9530  175.9810  138.7370 C   0  0  0  0  0  0  0  0  0  0  0  0
  195.1290  174.8540  143.7930 C   0  0  0  0  0  0  0  0  0  0  0  0
  187.2980  177.1240  144.5630 C   0  0  0  0  0  2  0  0  0  0  0  0
  190.5580  175.2250  145.2230 N   0  0  0  0  0  0  0  0  0  0  0  0
  190.1820  171.1950  142.1260 C   0  0  0  0  0  2  0  0  0  0  0  0
  195.4530  176.7290  145.4760 C   0  0  0  0  0  2  0  0  0  0  0  0
  191.6510  171.4740  142.4730 C   0  0  0  0  0  2  0  0  0  0  0  0
  186.8630  177.0170  139.6420 C   0  0  0  0  0  0  0  0  0  0  0  0
  187.5410  174.9040  139.2880 N   0  0  0  0  0  0  0  0  0  0  0  0
  187.2030  176.6810  147.0580 C   0  0  0  0  0  2  0  0  0  0  0  0
  190.7990  176.1260  146.2110 C   0  0  0  0  0  0  0  0  0  0  0  0
  192.8960  174.8480  144.8920 C   0  0  0  0  0  0  0  0  0  0  0  0
  186.7250  176.7290  143.2120 C   0  0  2  0  0  3  0  0  0  0  0  0
  188.5440  174.3390  141.4710 C   0  0  0  0  0  0  0  0  0  0  0  0
  192.1100  176.3970  146.5960 C   0  0  0  0  0  3  0  0  0  0  0  0
  195.9340  173.3540  142.0310 C   0  0  0  0  0  3  0  0  0  0  0  0
  196.1780  174.0870  143.1120 C   0  0  0  0  0  3  0  0  0  0  0  0
  195.0620  170.6610  140.6200 C   0  0  0  0  0  2  0  0  0  0  0  0
  197.9410  172.2690  139.0500 O   0  0  0  0  0  1  0  0  0  0  0  0
  196.4690  170.4740  142.6680 C   0  0  0  0  0  2  0  0  0  0  0  0
  197.5660  171.4180  142.1800 C   0  0  0  0  0  2  0  0  0  0  0  0
  197.0350  172.5930  141.3530 C   0  0  1  0  0  3  0  0  0  0  0  0
  195.5000  172.4790  139.2160 C   0  0  2  0  0  3  0  0  0  0  0  0
  196.8050  172.2420  139.8620 C   0  0  1  0  0  0  0  0  0  0  0  0
  195.8190  169.7080  141.5260 C   0  0  0  0  0  2  0  0  0  0  0  0
  195.9240  171.0930  139.5260 N   0  0  1  0  0  0  0  0  0  0  0  0
  195.0620  171.0990  135.9680 C   0  0  0  0  0  2  0  0  0  0  0  0
  193.9800  172.1480  135.9100 C   0  0  0  0  0  2  0  0  0  0  0  0
  196.1860  174.1090  137.4340 C   0  0  0  0  0  1  0  0  0  0  0  0
  194.0640  172.8750  137.2330 C   0  0  0  0  0  2  0  0  0  0  0  0
  195.5070  172.7740  137.6970 C   0  0  0  0  0  0  0  0  0  0  0  0
  196.1580  171.6970  136.8240 C   0  0  0  0  0  2  0  0  0  0  0  0
  187.9820  175.4850  136.3970 C   0  0  0  0  0  1  0  0  0  0  0  0
  186.3740  176.0230  137.0430 S   0  0  0  0  0  0  0  0  0  0  0  0
  185.1420  176.7620  145.7230 N   0  0  0  0  0  2  0  0  0  0  0  0
  184.9620  177.7840  146.5980 O   0  0  0  0  0  0  0  0  0  0  0  0
  184.1430  178.6860  145.9180 C   0  0  0  0  0  1  0  0  0  0  0  0
  1 11  1  6  0  0  0
  1 32  1  0  0  0  0
  4 27  1  0  0  0  0
  5  9  1  0  0  0  0
  5 34  1  0  0  0  0
  6 31  1  0  0  0  0
  6 23  2  0  0  0  0
  7 18  1  0  0  0  0
  7 33  1  0  0  0  0
  8 54  1  1  0  0  0
  8 29  1  0  0  0  0
 10  3  1  6  0  0  0
 10 14  1  0  0  0  0
 12  2  1  0  0  0  0
 13 31  1  0  0  0  0
 14 15  1  1  0  0  0
 14  6  1  0  0  0  0
 16 33  1  0  0  0  0
 16 17  2  0  0  0  0
 17 10  1  0  0  0  0
 18 27  1  6  0  0  0
 18  1  1  0  0  0  0
 19 25  1  0  0  0  0
 20 28  1  0  0  0  0
 20 27  2  0  0  0  0
 21 19  1  0  0  0  0
 21 13  2  0  0  0  0
 22  8  1  0  0  0  0
 23 30  1  0  0  0  0
 24 17  1  0  0  0  0
 24 26  1  0  0  0  0
 25  9  1  0  0  0  0
 26 15  1  0  0  0  0
 28  7  2  0  0  0  0
 29  2  1  0  0  0  0
 30 34  2  0  0  0  0
 30 12  1  0  0  0  0
 31  5  2  0  0  0  0
 32 11  1  1  0  0  0
 32 22  1  0  0  0  0
 33  3  2  0  0  0  0
 35 36  2  0  0  0  0
 36 21  1  0  0  0  0
 37 44  1  0  0  0  0
 40 39  1  0  0  0  0
 41 35  1  1  0  0  0
 41 40  1  0  0  0  0
 42 50  1  6  0  0  0
 42 45  1  0  0  0  0
 42 43  1  0  0  0  0
 43 38  1  6  0  0  0
 43 41  1  0  0  0  0
 44 39  1  0  0  0  0
 45 43  1  0  0  0  0
 45 37  1  1  0  0  0
 46 51  1  0  0  0  0
 47 46  1  0  0  0  0
 47 49  1  0  0  0  0
 48 50  1  0  0  0  0
 49 50  1  0  0  0  0
 51 50  1  0  0  0  0
 52 53  1  0  0  0  0
 53 20  1  0  0  0  0
 54 55  1  0  0  0  0
 56 55  1  0  0  0  0
M  END
>  <MODEL>
3

>  <REMARK>
 VINA RESULT:      -7.4      1.292      1.704
  Name = 
  6 active torsions:
  status: ('A' for Active; 'I' for Inactive)
    1  A    between atoms: C_9  and  C_29
    2  A    between atoms: N_13  and  C_14
    3  A    between atoms: N_13  and  O_22
    4  A    between atoms: C_23  and  C_36
    5  A    between atoms: C_34  and  S_40
    6  A    between atoms: C_37  and  C_39
                            x       y       z     vdW  Elec       q    Type
                         _______ _______ _______ _____ _____    ______ ____

>  <TORSDO>
F 6

$$$$
=
 OpenBabel11042419523D

 56 65  0  0  1  0  0  0  0  0999 V2000
  188.5350  177.6320  143.7570 C   0  0  2  0  0  3  0  0  0  0  0  0
  191.6700  174.6570  146.9300 C   0  0  0  0  0  2  0  0  0  0  0  0
  189.9000  175.1400  142.5490 C   0  0  0  0  0  3  0  0  0  0  0  0
  186.2200  179.4190  142.5090 C   0  0  0  0  0  1  0  0  0  0  0  0
  195.1460  175.4290  143.7140 C   0  0  0  0  0  0  0  0  0  0  0  0
  192.9970  174.6300  142.9060 C   0  0  0  0  0  0  0  0  0  0  0  0
  187.8950  176.2730  141.6230 C   0  0  0  0  0  0  0  0  0  0  0  0
  189.2650  175.3810  146.7900 C   0  0  1  0  0  3  0  0  0  0  0  0
  196.6280  175.6060  143.5580 C   0  0  0  0  0  2  0  0  0  0  0  0
  190.6460  173.8720  142.3040 C   0  0  2  0  0  3  0  0  0  0  0  0
  187.6090  177.9330  144.9230 C   0  0  0  0  0  2  0  0  0  0  0  0
  192.5570  175.7870  146.4360 C   0  0  0  0  0  2  0  0  0  0  0  0
  194.9300  174.7430  141.3010 C   0  0  0  0  0  3  0  0  0  0  0  0
  192.0860  174.1040  141.8180 C   0  0  2  0  0  3  0  0  0  0  0  0
  192.6090  172.8450  141.2710 N   0  0  0  0  0  2  0  0  0  0  0  0
  188.8820  174.0790  140.8040 N   0  0  0  0  0  0  0  0  0  0  0  0
  189.8690  173.3310  141.1610 C   0  0  0  0  0  0  0  0  0  0  0  0
  187.7380  177.3380  142.5120 C   0  0  2  0  0  3  0  0  0  0  0  0
  196.1350  176.9030  141.3860 C   0  0  0  0  0  2  0  0  0  0  0  0
  186.3150  177.4940  140.8220 C   0  0  0  0  0  0  0  0  0  0  0  0
  195.8040  175.5840  140.7370 C   0  0  0  0  0  0  0  0  0  0  0  0
  189.4310  176.5310  145.7940 C   0  0  0  0  0  2  0  0  0  0  0  0
  192.4760  174.9030  144.1350 N   0  0  0  0  0  0  0  0  0  0  0  0
  190.4060  172.2170  140.3300 C   0  0  0  0  0  2  0  0  0  0  0  0
  197.0120  176.7660  142.6340 C   0  0  0  0  0  2  0  0  0  0  0  0
  191.8810  172.5200  140.0370 C   0  0  0  0  0  2  0  0  0  0  0  0
  186.7350  178.1250  141.9740 C   0  0  0  0  0  0  0  0  0  0  0  0
  187.0140  176.3660  140.6040 N   0  0  0  0  0  0  0  0  0  0  0  0
  190.4870  175.2250  147.6960 C   0  0  0  0  0  2  0  0  0  0  0  0
  193.2160  175.4180  145.1510 C   0  0  0  0  0  0  0  0  0  0  0  0
  194.3530  174.9370  142.6520 C   0  0  0  0  0  0  0  0  0  0  0  0
  188.2650  176.5770  144.8210 C   0  0  2  0  0  3  0  0  0  0  0  0
  188.8810  175.1820  141.7020 C   0  0  0  0  0  0  0  0  0  0  0  0
  194.5690  175.6810  144.9590 C   0  0  0  0  0  3  0  0  0  0  0  0
  195.8380  174.2650  138.6730 C   0  0  0  0  0  3  0  0  0  0  0  0
  196.3530  175.2330  139.4230 C   0  0  0  0  0  3  0  0  0  0  0  0
  195.6720  171.2270  137.8100 C   0  0  0  0  0  2  0  0  0  0  0  0
  195.6270  173.5510  134.9940 O   0  0  0  0  0  1  0  0  0  0  0  0
  197.9280  172.1410  138.3400 C   0  0  0  0  0  2  0  0  0  0  0  0
  197.8260  173.3390  137.3980 C   0  0  0  0  0  2  0  0  0  0  0  0
  196.4190  173.9410  137.3280 C   0  0  1  0  0  3  0  0  0  0  0  0
  194.1700  172.6880  136.7730 C   0  0  2  0  0  3  0  0  0  0  0  0
  195.4830  173.2040  136.3390 C   0  0  1  0  0  0  0  0  0  0  0  0
  197.1600  170.9350  137.8220 C   0  0  0  0  0  2  0  0  0  0  0  0
  195.2770  171.7410  136.5040 N   0  0  1  0  0  0  0  0  0  0  0  0
  192.3550  170.5460  134.5900 C   0  0  0  0  0  2  0  0  0  0  0  0
  191.1950  171.0720  135.4000 C   0  0  0  0  0  2  0  0  0  0  0  0
  192.7380  174.0060  135.1870 C   0  0  0  0  0  1  0  0  0  0  0  0
  191.8060  172.0570  136.3700 C   0  0  0  0  0  2  0  0  0  0  0  0
  193.0540  172.6120  135.7040 C   0  0  0  0  0  0  0  0  0  0  0  0
  193.3460  171.6890  134.5180 C   0  0  0  0  0  2  0  0  0  0  0  0
  183.7570  177.9350  141.0340 C   0  0  0  0  0  1  0  0  0  0  0  0
  185.0150  178.0670  139.7330 S   0  0  0  0  0  0  0  0  0  0  0  0
  188.0520  175.5390  147.5940 N   0  0  0  0  0  2  0  0  0  0  0  0
  187.7540  176.8610  147.6810 O   0  0  0  0  0  0  0  0  0  0  0  0
  186.3840  176.8950  147.9410 C   0  0  0  0  0  1  0  0  0  0  0  0
  1 32  1  0  0  0  0
  1 11  1  1  0  0  0
  2 29  1  0  0  0  0
  5 34  1  0  0  0  0
  6 23  2  0  0  0  0
  7 33  1  0  0  0  0
  8 54  1  1  0  0  0
  8 29  1  0  0  0  0
  9  5  1  0  0  0  0
 10  3  1  6  0  0  0
 12  2  1  0  0  0  0
 13 31  1  0  0  0  0
 14 15  1  1  0  0  0
 14 10  1  0  0  0  0
 14  6  1  0  0  0  0
 16 17  2  0  0  0  0
 16 33  1  0  0  0  0
 17 10  1  0  0  0  0
 18  7  1  6  0  0  0
 18  1  1  0  0  0  0
 19 25  1  0  0  0  0
 20 27  2  0  0  0  0
 21 13  2  0  0  0  0
 21 19  1  0  0  0  0
 22  8  1  0  0  0  0
 23 30  1  0  0  0  0
 24 17  1  0  0  0  0
 25  9  1  0  0  0  0
 26 24  1  0  0  0  0
 26 15  1  0  0  0  0
 27  4  1  0  0  0  0
 27 18  1  0  0  0  0
 28 20  1  0  0  0  0
 28  7  2  0  0  0  0
 30 12  1  0  0  0  0
 31  6  1  0  0  0  0
 31  5  2  0  0  0  0
 32 11  1  1  0  0  0
 32 22  1  0  0  0  0
 33  3  2  0  0  0  0
 34 30  2  0  0  0  0
 35 36  2  0  0  0  0
 36 21  1  0  0  0  0
 37 44  1  0  0  0  0
 40 39  1  0  0  0  0
 41 40  1  0  0  0  0
 41 35  1  1  0  0  0
 42 50  1  6  0  0  0
 43 38  1  6  0  0  0
 43 45  1  0  0  0  0
 43 42  1  0  0  0  0
 43 41  1  0  0  0  0
 44 39  1  0  0  0  0
 45 42  1  0  0  0  0
 45 37  1  1  0  0  0
 46 47  1  0  0  0  0
 47 49  1  0  0  0  0
 48 50  1  0  0  0  0
 50 49  1  0  0  0  0
 51 46  1  0  0  0  0
 51 50  1  0  0  0  0
 53 20  1  0  0  0  0
 53 52  1  0  0  0  0
 54 55  1  0  0  0  0
 55 56  1  0  0  0  0
M  END
>  <MODEL>
4

>  <REMARK>
 VINA RESULT:      -7.0      2.858      4.286
  Name = 
  6 active torsions:
  status: ('A' for Active; 'I' for Inactive)
    1  A    between atoms: C_9  and  C_29
    2  A    between atoms: N_13  and  C_14
    3  A    between atoms: N_13  and  O_22
    4  A    between atoms: C_23  and  C_36
    5  A    between atoms: C_34  and  S_40
    6  A    between atoms: C_37  and  C_39
                            x       y       z     vdW  Elec       q    Type
                         _______ _______ _______ _____ _____    ______ ____

>  <TORSDO>
F 6

$$$$
=
 OpenBabel11042419523D

 56 65  0  0  1  0  0  0  0  0999 V2000
  188.9840  177.1260  143.0490 C   0  0  2  0  0  3  0  0  0  0  0  0
  191.7090  175.0330  147.1650 C   0  0  0  0  0  2  0  0  0  0  0  0
  190.4560  174.4470  142.6200 C   0  0  0  0  0  3  0  0  0  0  0  0
  186.8440  178.5310  141.1640 C   0  0  0  0  0  1  0  0  0  0  0  0
  195.5370  175.0950  144.2720 C   0  0  0  0  0  0  0  0  0  0  0  0
  193.4880  174.0910  143.4360 C   0  0  0  0  0  0  0  0  0  0  0  0
  188.5810  175.2960  141.2340 C   0  0  0  0  0  0  0  0  0  0  0  0
  189.3420  175.6600  146.5870 C   0  0  1  0  0  3  0  0  0  0  0  0
  197.0290  175.2580  144.2480 C   0  0  0  0  0  2  0  0  0  0  0  0
  191.2140  173.1700  142.7650 C   0  0  2  0  0  3  0  0  0  0  0  0
  187.9330  177.6750  144.0000 C   0  0  0  0  0  2  0  0  0  0  0  0
  192.6570  176.0320  146.5230 C   0  0  0  0  0  2  0  0  0  0  0  0
  195.5930  173.8610  142.0780 C   0  0  0  0  0  3  0  0  0  0  0  0
  192.7020  173.3090  142.4050 C   0  0  2  0  0  3  0  0  0  0  0  0
  193.2730  171.9670  142.2310 N   0  0  0  0  0  2  0  0  0  0  0  0
  189.6360  172.9900  141.0680 N   0  0  0  0  0  0  0  0  0  0  0  0
  190.5680  172.3640  141.6990 C   0  0  0  0  0  0  0  0  0  0  0  0
  188.3320  176.5360  141.8250 C   0  0  2  0  0  3  0  0  0  0  0  0
  196.7990  176.0020  141.7910 C   0  0  0  0  0  2  0  0  0  0  0  0
  187.1140  176.2680  139.9960 C   0  0  0  0  0  0  0  0  0  0  0  0
  196.5320  174.5630  141.4360 C   0  0  0  0  0  0  0  0  0  0  0  0
  189.6320  176.5480  145.3760 C   0  0  0  0  0  2  0  0  0  0  0  0
  192.8320  174.6340  144.4990 N   0  0  0  0  0  0  0  0  0  0  0  0
  191.1870  171.0970  141.2190 C   0  0  0  0  0  2  0  0  0  0  0  0
  197.5260  176.1760  143.1280 C   0  0  0  0  0  2  0  0  0  0  0  0
  192.6890  171.3500  141.0330 C   0  0  0  0  0  2  0  0  0  0  0  0
  187.4040  177.1570  141.0080 C   0  0  0  0  0  0  0  0  0  0  0  0
  187.8230  175.1320  140.1280 N   0  0  0  0  0  0  0  0  0  0  0  0
  190.4510  175.7420  147.6370 C   0  0  0  0  0  2  0  0  0  0  0  0
  193.4550  175.3850  145.4440 C   0  0  0  0  0  0  0  0  0  0  0  0
  194.8660  174.3540  143.2720 C   0  0  0  0  0  0  0  0  0  0  0  0
  188.5850  176.3450  144.2920 C   0  0  2  0  0  3  0  0  0  0  0  0
  189.5410  174.2710  141.6770 C   0  0  0  0  0  0  0  0  0  0  0  0
  194.8240  175.6200  145.3500 C   0  0  0  0  0  3  0  0  0  0  0  0
  196.6730  172.9510  139.5970 C   0  0  0  0  0  3  0  0  0  0  0  0
  197.2250  173.9250  140.3120 C   0  0  0  0  0  3  0  0  0  0  0  0
  194.8650  171.4740  137.4640 C   0  0  0  0  0  2  0  0  0  0  0  0
  197.9410  172.8560  136.0650 O   0  0  0  0  0  1  0  0  0  0  0  0
  196.3270  170.0560  138.8980 C   0  0  0  0  0  2  0  0  0  0  0  0
  197.6150  170.8200  138.5950 C   0  0  0  0  0  2  0  0  0  0  0  0
  197.4070  172.3300  138.4450 C   0  0  1  0  0  3  0  0  0  0  0  0
  195.7190  173.5590  136.8390 C   0  0  2  0  0  3  0  0  0  0  0  0
  196.9380  172.7480  137.0300 C   0  0  1  0  0  0  0  0  0  0  0  0
  195.3630  170.0640  137.7220 C   0  0  0  0  0  2  0  0  0  0  0  0
  195.7100  172.1240  136.4690 N   0  0  1  0  0  0  0  0  0  0  0  0
  193.9590  176.1910  135.2230 C   0  0  0  0  0  2  0  0  0  0  0  0
  195.2910  176.8800  135.3810 C   0  0  0  0  0  2  0  0  0  0  0  0
  196.5950  173.9490  134.5190 C   0  0  0  0  0  1  0  0  0  0  0  0
  196.1930  175.8540  136.0280 C   0  0  0  0  0  2  0  0  0  0  0  0
  195.6770  174.4890  135.6030 C   0  0  0  0  0  0  0  0  0  0  0  0
  194.2840  174.7280  135.0120 C   0  0  0  0  0  2  0  0  0  0  0  0
  187.0190  175.7190  137.4520 C   0  0  0  0  0  1  0  0  0  0  0  0
  185.9520  176.5470  138.6630 S   0  0  0  0  0  0  0  0  0  0  0  0
  188.0470  175.9790  147.1890 N   0  0  0  0  0  2  0  0  0  0  0  0
  187.9770  177.3200  147.3920 O   0  0  0  0  0  0  0  0  0  0  0  0
  186.6240  177.6260  147.2490 C   0  0  0  0  0  1  0  0  0  0  0  0
  1 11  1  1  0  0  0
  1 32  1  0  0  0  0
  2 29  1  0  0  0  0
  5 34  1  0  0  0  0
  6 23  2  0  0  0  0
  7 33  1  0  0  0  0
  7 18  1  0  0  0  0
  8 54  1  1  0  0  0
  8 29  1  0  0  0  0
  9  5  1  0  0  0  0
 10  3  1  6  0  0  0
 12  2  1  0  0  0  0
 13 31  1  0  0  0  0
 14 15  1  1  0  0  0
 14 10  1  0  0  0  0
 14  6  1  0  0  0  0
 16 33  1  0  0  0  0
 16 17  2  0  0  0  0
 17 10  1  0  0  0  0
 18 27  1  6  0  0  0
 18  1  1  0  0  0  0
 19 25  1  0  0  0  0
 20 28  1  0  0  0  0
 20 27  2  0  0  0  0
 21 19  1  0  0  0  0
 21 13  2  0  0  0  0
 22  8  1  0  0  0  0
 23 30  1  0  0  0  0
 24 17  1  0  0  0  0
 25  9  1  0  0  0  0
 26 24  1  0  0  0  0
 26 15  1  0  0  0  0
 27  4  1  0  0  0  0
 28  7  2  0  0  0  0
 30 12  1  0  0  0  0
 31  6  1  0  0  0  0
 31  5  2  0  0  0  0
 32 11  1  1  0  0  0
 32 22  1  0  0  0  0
 33  3  2  0  0  0  0
 34 30  2  0  0  0  0
 35 36  2  0  0  0  0
 36 21  1  0  0  0  0
 37 44  1  0  0  0  0
 40 39  1  0  0  0  0
 41 40  1  0  0  0  0
 41 35  1  1  0  0  0
 42 50  1  6  0  0  0
 42 43  1  0  0  0  0
 43 38  1  6  0  0  0
 43 41  1  0  0  0  0
 44 39  1  0  0  0  0
 45 42  1  0  0  0  0
 45 43  1  0  0  0  0
 45 37  1  1  0  0  0
 46 47  1  0  0  0  0
 47 49  1  0  0  0  0
 48 50  1  0  0  0  0
 50 49  1  0  0  0  0
 51 46  1  0  0  0  0
 51 50  1  0  0  0  0
 52 53  1  0  0  0  0
 53 20  1  0  0  0  0
 54 55  1  0  0  0  0
 56 55  1  0  0  0  0
M  END
>  <MODEL>
5

>  <REMARK>
 VINA RESULT:      -6.7      2.708      4.182
  Name = 
  6 active torsions:
  status: ('A' for Active; 'I' for Inactive)
    1  A    between atoms: C_9  and  C_29
    2  A    between atoms: N_13  and  C_14
    3  A    between atoms: N_13  and  O_22
    4  A    between atoms: C_23  and  C_36
    5  A    between atoms: C_34  and  S_40
    6  A    between atoms: C_37  and  C_39
                            x       y       z     vdW  Elec       q    Type
                         _______ _______ _______ _____ _____    ______ ____

>  <TORSDO>
F 6

$$$$
=
 OpenBabel11042419523D

 56 65  0  0  1  0  0  0  0  0999 V2000
  193.1190  170.3180  137.0900 C   0  0  2  0  0  3  0  0  0  0  0  0
  197.9390  168.8060  138.8870 C   0  0  0  0  0  2  0  0  0  0  0  0
  194.8070  172.3700  138.6620 C   0  0  0  0  0  3  0  0  0  0  0  0
  190.4800  170.8160  135.3900 C   0  0  0  0  0  1  0  0  0  0  0  0
  196.3620  170.0280  143.2510 C   0  0  0  0  0  0  0  0  0  0  0  0
  196.1040  171.6390  141.4490 C   0  0  0  0  0  0  0  0  0  0  0  0
  192.9420  172.9210  137.1200 C   0  0  0  0  0  0  0  0  0  0  0  0
  196.7390  169.0770  136.6930 C   0  0  1  0  0  3  0  0  0  0  0  0
  196.4650  169.6900  144.7100 C   0  0  0  0  0  2  0  0  0  0  0  0
  195.8760  173.1130  139.3900 C   0  0  2  0  0  3  0  0  0  0  0  0
  193.2920  169.4580  135.8490 C   0  0  0  0  0  2  0  0  0  0  0  0
  196.9510  168.3250  139.9360 C   0  0  0  0  0  2  0  0  0  0  0  0
  195.5820  172.3580  143.8020 C   0  0  0  0  0  3  0  0  0  0  0  0
  195.7470  173.0110  140.9180 C   0  0  2  0  0  3  0  0  0  0  0  0
  196.5970  174.0380  141.5350 N   0  0  0  0  0  2  0  0  0  0  0  0
  194.5110  174.5890  138.2220 N   0  0  0  0  0  0  0  0  0  0  0  0
  195.5310  174.5050  139.0040 C   0  0  0  0  0  0  0  0  0  0  0  0
  192.5150  171.6500  136.7290 C   0  0  2  0  0  3  0  0  0  0  0  0
  194.1360  170.7530  145.0080 C   0  0  0  0  0  2  0  0  0  0  0  0
  191.1670  173.2210  135.9430 C   0  0  0  0  0  0  0  0  0  0  0  0
  194.7900  172.1010  144.8480 C   0  0  0  0  0  0  0  0  0  0  0  0
  195.3060  169.1490  137.2260 C   0  0  0  0  0  2  0  0  0  0  0  0
  196.4220  170.6490  140.5690 N   0  0  0  0  0  0  0  0  0  0  0  0
  196.1140  175.6660  139.7320 C   0  0  0  0  0  2  0  0  0  0  0  0
  195.1110  169.6480  145.4240 C   0  0  0  0  0  2  0  0  0  0  0  0
  196.0390  175.3640  141.2350 C   0  0  0  0  0  2  0  0  0  0  0  0
  191.3620  171.8570  135.9920 C   0  0  0  0  0  0  0  0  0  0  0  0
  192.1250  173.8750  136.6240 N   0  0  0  0  0  0  0  0  0  0  0  0
  197.6220  168.1670  137.5460 C   0  0  0  0  0  2  0  0  0  0  0  0
  196.7120  169.3800  140.9600 C   0  0  0  0  0  0  0  0  0  0  0  0
  196.0190  171.3320  142.8250 C   0  0  0  0  0  0  0  0  0  0  0  0
  194.4880  170.1630  136.4430 C   0  0  2  0  0  3  0  0  0  0  0  0
  194.0930  173.2520  137.9770 C   0  0  0  0  0  0  0  0  0  0  0  0
  196.6950  169.0520  142.3130 C   0  0  0  0  0  3  0  0  0  0  0  0
  193.4460  173.9960  145.6250 C   0  0  0  0  0  3  0  0  0  0  0  0
  194.4950  173.1950  145.7790 C   0  0  0  0  0  3  0  0  0  0  0  0
  192.7460  176.8070  144.3540 C   0  0  0  0  0  2  0  0  0  0  0  0
  191.1990  176.2500  147.6150 O   0  0  0  0  0  1  0  0  0  0  0  0
  194.9370  176.5950  145.5210 C   0  0  0  0  0  2  0  0  0  0  0  0
  194.3580  176.0380  146.8210 C   0  0  0  0  0  2  0  0  0  0  0  0
  193.1690  175.0980  146.6040 C   0  0  1  0  0  3  0  0  0  0  0  0
  190.9600  175.5990  145.2590 C   0  0  2  0  0  3  0  0  0  0  0  0
  191.8210  175.8410  146.4330 C   0  0  1  0  0  0  0  0  0  0  0  0
  193.9790  177.5520  144.8290 C   0  0  0  0  0  2  0  0  0  0  0  0
  191.7030  176.8750  145.3720 N   0  0  1  0  0  0  0  0  0  0  0  0
  188.1470  177.6460  144.5240 C   0  0  0  0  0  2  0  0  0  0  0  0
  187.6590  176.3640  143.8960 C   0  0  0  0  0  2  0  0  0  0  0  0
  188.9460  174.8860  146.5770 C   0  0  0  0  0  1  0  0  0  0  0  0
  188.7480  175.3510  144.1670 C   0  0  0  0  0  2  0  0  0  0  0  0
  189.4360  175.7820  145.4520 C   0  0  0  0  0  0  0  0  0  0  0  0
  188.9780  177.2190  145.7160 C   0  0  0  0  0  2  0  0  0  0  0  0
  189.0280  174.5260  136.6520 C   0  0  0  0  0  1  0  0  0  0  0  0
  189.8280  174.0520  135.0940 S   0  0  0  0  0  0  0  0  0  0  0  0
  196.7700  168.6520  135.2930 N   0  0  0  0  0  2  0  0  0  0  0  0
  197.9390  169.0620  134.7380 O   0  0  0  0  0  0  0  0  0  0  0  0
  197.7700  170.4320  134.5350 C   0  0  0  0  0  1  0  0  0  0  0  0
  1 11  1  6  0  0  0
  2 12  1  0  0  0  0
  4 27  1  0  0  0  0
  5  9  1  0  0  0  0
  6 31  2  0  0  0  0
  7 33  1  0  0  0  0
  8 54  1  6  0  0  0
  8 22  1  0  0  0  0
  8 29  1  0  0  0  0
  9 25  1  0  0  0  0
 10  3  1  6  0  0  0
 10 14  1  0  0  0  0
 12 30  1  0  0  0  0
 13 21  2  0  0  0  0
 14  6  1  1  0  0  0
 14 15  1  0  0  0  0
 16 17  2  0  0  0  0
 17 10  1  0  0  0  0
 17 24  1  0  0  0  0
 18 27  1  1  0  0  0
 18  1  1  0  0  0  0
 18  7  1  0  0  0  0
 19 25  1  0  0  0  0
 20 27  2  0  0  0  0
 20 28  1  0  0  0  0
 21 19  1  0  0  0  0
 21 36  1  0  0  0  0
 23 30  2  0  0  0  0
 23  6  1  0  0  0  0
 24 26  1  0  0  0  0
 26 15  1  0  0  0  0
 28  7  2  0  0  0  0
 29  2  1  0  0  0  0
 30 34  1  0  0  0  0
 31  5  1  0  0  0  0
 31 13  1  0  0  0  0
 32 11  1  6  0  0  0
 32  1  1  0  0  0  0
 32 22  1  0  0  0  0
 33 16  1  0  0  0  0
 33  3  2  0  0  0  0
 34  5  2  0  0  0  0
 35 36  2  0  0  0  0
 37 44  1  0  0  0  0
 39 40  1  0  0  0  0
 41 35  1  6  0  0  0
 41 40  1  0  0  0  0
 42 45  1  0  0  0  0
 42 50  1  1  0  0  0
 42 43  1  0  0  0  0
 43 41  1  0  0  0  0
 43 38  1  1  0  0  0
 44 39  1  0  0  0  0
 45 37  1  6  0  0  0
 45 43  1  0  0  0  0
 46 51  1  0  0  0  0
 47 49  1  0  0  0  0
 47 46  1  0  0  0  0
 49 50  1  0  0  0  0
 50 51  1  0  0  0  0
 50 48  1  0  0  0  0
 53 20  1  0  0  0  0
 53 52  1  0  0  0  0
 55 54  1  0  0  0  0
 56 55  1  0  0  0  0
M  END
>  <MODEL>
6

>  <REMARK>
 VINA RESULT:      -6.5      3.029      9.678
  Name = 
  6 active torsions:
  status: ('A' for Active; 'I' for Inactive)
    1  A    between atoms: C_9  and  C_29
    2  A    between atoms: N_13  and  C_14
    3  A    between atoms: N_13  and  O_22
    4  A    between atoms: C_23  and  C_36
    5  A    between atoms: C_34  and  S_40
    6  A    between atoms: C_37  and  C_39
                            x       y       z     vdW  Elec       q    Type
                         _______ _______ _______ _____ _____    ______ ____

>  <TORSDO>
F 6

$$$$
=
 OpenBabel11042419523D

 56 65  0  0  1  0  0  0  0  0999 V2000
  194.8000  171.3590  137.7260 C   0  0  2  0  0  3  0  0  0  0  0  0
  193.5890  169.3760  142.5580 C   0  0  0  0  0  2  0  0  0  0  0  0
  194.5810  173.3190  140.1020 C   0  0  0  0  0  3  0  0  0  0  0  0
  195.9680  171.8980  134.8190 C   0  0  0  0  0  1  0  0  0  0  0  0
  189.8700  172.4070  142.5380 C   0  0  0  0  0  0  0  0  0  0  0  0
  192.0720  173.2960  142.0220 C   0  0  0  0  0  0  0  0  0  0  0  0
  195.7890  173.7600  137.9790 C   0  0  0  0  0  0  0  0  0  0  0  0
  195.4040  169.1660  140.8290 C   0  0  1  0  0  3  0  0  0  0  0  0
  188.4550  172.5840  143.0070 C   0  0  0  0  0  2  0  0  0  0  0  0
  194.4550  173.9660  141.4390 C   0  0  2  0  0  3  0  0  0  0  0  0
  195.5930  170.1070  137.3910 C   0  0  0  0  0  2  0  0  0  0  0  0
  192.2550  169.5640  141.8560 C   0  0  0  0  0  2  0  0  0  0  0  0
  190.1590  174.9000  142.3310 C   0  0  0  0  0  3  0  0  0  0  0  0
  193.0250  174.4400  141.7470 C   0  0  2  0  0  3  0  0  0  0  0  0
  193.0680  175.3600  142.8910 N   0  0  0  0  0  2  0  0  0  0  0  0
  195.8090  175.2410  140.0440 N   0  0  0  0  0  0  0  0  0  0  0  0
  195.2900  175.1740  141.2220 C   0  0  0  0  0  0  0  0  0  0  0  0
  195.5340  172.5890  137.2610 C   0  0  2  0  0  3  0  0  0  0  0  0
  188.1350  174.2490  141.0650 C   0  0  0  0  0  2  0  0  0  0  0  0
  196.5900  174.0790  136.0080 C   0  0  0  0  0  0  0  0  0  0  0  0
  188.9590  175.2380  141.8470 C   0  0  0  0  0  0  0  0  0  0  0  0
  194.6610  169.7870  139.6440 C   0  0  0  0  0  2  0  0  0  0  0  0
  192.5210  172.0150  141.9090 N   0  0  0  0  0  0  0  0  0  0  0  0
  195.2320  176.3230  142.1670 C   0  0  0  0  0  2  0  0  0  0  0  0
  187.5200  173.1460  141.9310 C   0  0  0  0  0  2  0  0  0  0  0  0
  193.7560  176.5940  142.4870 C   0  0  0  0  0  2  0  0  0  0  0  0
  196.0360  172.8170  135.9910 C   0  0  0  0  0  0  0  0  0  0  0  0
  196.4470  174.6570  137.2140 N   0  0  0  0  0  0  0  0  0  0  0  0
  194.4600  168.4150  141.7670 C   0  0  0  0  0  2  0  0  0  0  0  0
  191.7210  170.9340  142.0960 C   0  0  0  0  0  0  0  0  0  0  0  0
  190.7050  173.5220  142.2960 C   0  0  0  0  0  0  0  0  0  0  0  0
  195.5980  170.6390  138.8040 C   0  0  2  0  0  3  0  0  0  0  0  0
  195.3990  174.0590  139.3670 C   0  0  0  0  0  0  0  0  0  0  0  0
  190.3790  171.1140  142.4230 C   0  0  0  0  0  3  0  0  0  0  0  0
  187.2250  176.9550  142.0580 C   0  0  0  0  0  3  0  0  0  0  0  0
  188.5110  176.6240  142.0140 C   0  0  0  0  0  3  0  0  0  0  0  0
  184.1130  177.4310  142.3540 C   0  0  0  0  0  2  0  0  0  0  0  0
  186.1440  179.9140  144.1000 O   0  0  0  0  0  1  0  0  0  0  0  0
  185.1960  178.2340  140.2590 C   0  0  0  0  0  2  0  0  0  0  0  0
  186.2890  179.0400  140.9580 C   0  0  0  0  0  2  0  0  0  0  0  0
  186.8030  178.3840  142.2420 C   0  0  1  0  0  3  0  0  0  0  0  0
  185.3810  177.5890  144.3120 C   0  0  2  0  0  3  0  0  0  0  0  0
  185.9230  178.6820  143.4810 C   0  0  1  0  0  0  0  0  0  0  0  0
  183.9050  178.1980  141.0610 C   0  0  0  0  0  2  0  0  0  0  0  0
  184.4740  178.3540  143.4240 N   0  0  1  0  0  0  0  0  0  0  0  0
  186.3250  176.7910  147.6460 C   0  0  0  0  0  2  0  0  0  0  0  0
  186.6740  178.2580  147.6620 C   0  0  0  0  0  2  0  0  0  0  0  0
  183.8410  178.6640  145.9770 C   0  0  0  0  0  1  0  0  0  0  0  0
  186.2800  178.7730  146.2960 C   0  0  0  0  0  2  0  0  0  0  0  0
  185.1400  177.8940  145.8090 C   0  0  0  0  0  0  0  0  0  0  0  0
  185.1240  176.6720  146.7320 C   0  0  0  0  0  2  0  0  0  0  0  0
  196.8870  176.5290  135.1760 C   0  0  0  0  0  1  0  0  0  0  0  0
  197.4040  174.8780  134.6290 S   0  0  0  0  0  0  0  0  0  0  0  0
  196.4850  168.2870  140.3830 N   0  0  0  0  0  2  0  0  0  0  0  0
  197.4500  168.2600  141.3380 O   0  0  0  0  0  0  0  0  0  0  0  0
  197.8730  169.5860  141.4450 C   0  0  0  0  0  1  0  0  0  0  0  0
  1 11  1  6  0  0  0
  1 32  1  0  0  0  0
  4 27  1  0  0  0  0
  5  9  1  0  0  0  0
  6 31  1  0  0  0  0
  7 33  1  0  0  0  0
  8 54  1  6  0  0  0
  8 29  1  0  0  0  0
 10  3  1  6  0  0  0
 10 14  1  0  0  0  0
 12 30  1  0  0  0  0
 12  2  1  0  0  0  0
 14  6  1  1  0  0  0
 14 15  1  0  0  0  0
 16 17  2  0  0  0  0
 17 10  1  0  0  0  0
 17 24  1  0  0  0  0
 18 27  1  6  0  0  0
 18  1  1  0  0  0  0
 18  7  1  0  0  0  0
 19 21  1  0  0  0  0
 19 25  1  0  0  0  0
 20 28  1  0  0  0  0
 21 36  1  0  0  0  0
 21 13  2  0  0  0  0
 22  8  1  0  0  0  0
 23  6  2  0  0  0  0
 23 30  1  0  0  0  0
 24 26  1  0  0  0  0
 25  9  1  0  0  0  0
 26 15  1  0  0  0  0
 27 20  2  0  0  0  0
 28  7  2  0  0  0  0
 29  2  1  0  0  0  0
 30 34  2  0  0  0  0
 31 13  1  0  0  0  0
 31  5  2  0  0  0  0
 32 11  1  6  0  0  0
 32 22  1  0  0  0  0
 33 16  1  0  0  0  0
 33  3  2  0  0  0  0
 34  5  1  0  0  0  0
 36 35  2  0  0  0  0
 39 40  1  0  0  0  0
 39 44  1  0  0  0  0
 40 41  1  0  0  0  0
 41 35  1  6  0  0  0
 41 43  1  0  0  0  0
 42 50  1  1  0  0  0
 43 38  1  1  0  0  0
 43 42  1  0  0  0  0
 44 37  1  0  0  0  0
 45 37  1  6  0  0  0
 45 43  1  0  0  0  0
 45 42  1  0  0  0  0
 46 47  1  0  0  0  0
 49 47  1  0  0  0  0
 50 48  1  0  0  0  0
 50 49  1  0  0  0  0
 50 51  1  0  0  0  0
 51 46  1  0  0  0  0
 53 52  1  0  0  0  0
 53 20  1  0  0  0  0
 54 55  1  0  0  0  0
 55 56  1  0  0  0  0
M  END
>  <MODEL>
7

>  <REMARK>
 VINA RESULT:      -6.0      3.059     10.884
  Name = 
  6 active torsions:
  status: ('A' for Active; 'I' for Inactive)
    1  A    between atoms: C_9  and  C_29
    2  A    between atoms: N_13  and  C_14
    3  A    between atoms: N_13  and  O_22
    4  A    between atoms: C_23  and  C_36
    5  A    between atoms: C_34  and  S_40
    6  A    between atoms: C_37  and  C_39
                            x       y       z     vdW  Elec       q    Type
                         _______ _______ _______ _____ _____    ______ ____

>  <TORSDO>
F 6

$$$$
=
 OpenBabel11042419523D

 56 65  0  0  1  0  0  0  0  0999 V2000
  186.5060  176.1790  143.6390 C   0  0  2  0  0  3  0  0  0  0  0  0
  187.9090  175.5610  138.5010 C   0  0  0  0  0  2  0  0  0  0  0  0
  189.5120  176.0310  142.9480 C   0  0  0  0  0  3  0  0  0  0  0  0
  185.1470  177.0360  146.3830 C   0  0  0  0  0  1  0  0  0  0  0  0
  190.2770  171.6400  139.9330 C   0  0  0  0  0  0  0  0  0  0  0  0
  190.6670  173.7150  141.1370 C   0  0  0  0  0  0  0  0  0  0  0  0
  188.5580  177.0070  145.0220 C   0  0  0  0  0  0  0  0  0  0  0  0
  186.6860  177.2220  139.9410 C   0  0  1  0  0  3  0  0  0  0  0  0
  190.7010  170.2640  139.5080 C   0  0  0  0  0  2  0  0  0  0  0  0
  190.8440  175.9790  142.2800 C   0  0  2  0  0  3  0  0  0  0  0  0
  185.3150  177.0290  143.2310 C   0  0  0  0  0  2  0  0  0  0  0  0
  187.6220  174.1580  139.0100 C   0  0  0  0  0  2  0  0  0  0  0  0
  192.1170  171.7240  141.6500 C   0  0  0  0  0  3  0  0  0  0  0  0
  191.4030  174.5520  142.1610 C   0  0  2  0  0  3  0  0  0  0  0  0
  192.8320  174.6300  141.8310 N   0  0  0  0  0  2  0  0  0  0  0  0
  190.9960  177.1030  144.3100 N   0  0  0  0  0  0  0  0  0  0  0  0
  191.6660  176.7000  143.2860 C   0  0  0  0  0  0  0  0  0  0  0  0
  187.1930  176.7760  144.8400 C   0  0  0  0  0  0  0  0  0  0  0  0
  190.8190  169.6480  142.0080 C   0  0  0  0  0  2  0  0  0  0  0  0
  187.6000  177.6010  146.8540 C   0  0  0  0  0  0  0  0  0  0  0  0
  192.0830  170.4640  142.0950 C   0  0  0  0  0  0  0  0  0  0  0  0
  186.4450  176.3310  141.1610 C   0  0  0  0  0  2  0  0  0  0  0  0
  189.5890  174.2460  140.4960 N   0  0  0  0  0  0  0  0  0  0  0  0
  193.1530  176.6420  143.2390 C   0  0  0  0  0  2  0  0  0  0  0  0
  190.4800  169.1970  140.5840 C   0  0  0  0  0  2  0  0  0  0  0  0
  193.5590  175.1850  142.9810 C   0  0  0  0  0  2  0  0  0  0  0  0
  186.5930  177.1420  146.0330 C   0  0  0  0  0  0  0  0  0  0  0  0
  188.7980  177.5250  146.2460 N   0  0  0  0  0  2  0  0  0  0  0  0
  186.6670  176.4250  138.6360 C   0  0  0  0  0  2  0  0  0  0  0  0
  188.8480  173.5480  139.5960 C   0  0  0  0  0  0  0  0  0  0  0  0
  191.0090  172.3650  140.9000 C   0  0  0  0  0  0  0  0  0  0  0  0
  186.6030  177.1230  142.4490 C   0  0  2  0  0  3  0  0  0  0  0  0
  189.6460  176.7230  144.0710 C   0  0  0  0  0  0  0  0  0  0  0  0
  189.1880  172.2320  139.2930 C   0  0  0  0  0  3  0  0  0  0  0  0
  194.2730  169.3690  142.0820 C   0  0  0  0  0  3  0  0  0  0  0  0
  193.2770  169.9310  142.7580 C   0  0  0  0  0  3  0  0  0  0  0  0
  196.8320  171.2230  141.9580 C   0  0  0  0  0  2  0  0  0  0  0  0
  196.6620  169.1670  144.9710 O   0  0  0  0  0  1  0  0  0  0  0  0
  196.9080  169.0860  140.6810 C   0  0  0  0  0  2  0  0  0  0  0  0
  196.5120  168.1970  141.8580 C   0  0  0  0  0  2  0  0  0  0  0  0
  195.4870  168.8460  142.7930 C   0  0  1  0  0  3  0  0  0  0  0  0
  195.6700  171.1860  143.9870 C   0  0  2  0  0  3  0  0  0  0  0  0
  196.1240  169.7900  143.8430 C   0  0  1  0  0  0  0  0  0  0  0  0
  197.7040  170.3050  141.1230 C   0  0  0  0  0  2  0  0  0  0  0  0
  196.9880  170.9040  143.3720 N   0  0  1  0  0  0  0  0  0  0  0  0
  197.1850  173.7820  145.8870 C   0  0  0  0  0  2  0  0  0  0  0  0
  195.7410  174.1460  146.1280 C   0  0  0  0  0  2  0  0  0  0  0  0
  195.2610  170.8750  146.4440 C   0  0  0  0  0  1  0  0  0  0  0  0
  194.9410  173.0850  145.4060 C   0  0  0  0  0  2  0  0  0  0  0  0
  195.7960  171.8290  145.3890 C   0  0  0  0  0  0  0  0  0  0  0  0
  197.2080  172.2720  145.7810 C   0  0  0  0  0  2  0  0  0  0  0  0
  186.4280  179.6550  147.9440 C   0  0  0  0  0  1  0  0  0  0  0  0
  187.3860  178.2250  148.5180 S   0  0  0  0  0  0  0  0  0  0  0  0
  185.7210  178.3210  139.8800 N   0  0  0  0  0  2  0  0  0  0  0  0
  184.4720  177.8010  139.7660 O   0  0  0  0  0  0  0  0  0  0  0  0
  183.6650  178.6610  140.5110 C   0  0  0  0  0  1  0  0  0  0  0  0
  1 11  1  1  0  0  0
  1 18  1  0  0  0  0
  2 29  1  0  0  0  0
  2 12  1  0  0  0  0
  3 33  2  0  0  0  0
  5 31  1  0  0  0  0
  7 28  1  0  0  0  0
  8 54  1  6  0  0  0
  8 22  1  0  0  0  0
  9  5  1  0  0  0  0
  9 25  1  0  0  0  0
 10  3  1  1  0  0  0
 10 17  1  0  0  0  0
 12 30  1  0  0  0  0
 13 21  2  0  0  0  0
 14  6  1  6  0  0  0
 14 10  1  0  0  0  0
 15 14  1  0  0  0  0
 15 26  1  0  0  0  0
 17 16  2  0  0  0  0
 18  7  2  0  0  0  0
 18 27  1  0  0  0  0
 19 21  1  0  0  0  0
 20 53  1  0  0  0  0
 21 36  1  0  0  0  0
 23  6  1  0  0  0  0
 24 17  1  0  0  0  0
 25 19  1  0  0  0  0
 26 24  1  0  0  0  0
 27  4  1  0  0  0  0
 27 20  2  0  0  0  0
 28 20  1  0  0  0  0
 29  8  1  0  0  0  0
 30 23  2  0  0  0  0
 31  6  2  0  0  0  0
 31 13  1  0  0  0  0
 32 22  1  6  0  0  0
 32 11  1  0  0  0  0
 32  1  1  0  0  0  0
 33 16  1  0  0  0  0
 33  7  1  0  0  0  0
 34 30  1  0  0  0  0
 34  5  2  0  0  0  0
 35 36  2  0  0  0  0
 39 44  1  0  0  0  0
 39 40  1  0  0  0  0
 40 41  1  0  0  0  0
 41 35  1  6  0  0  0
 41 43  1  0  0  0  0
 42 50  1  1  0  0  0
 43 42  1  0  0  0  0
 43 38  1  1  0  0  0
 44 37  1  0  0  0  0
 45 37  1  6  0  0  0
 45 43  1  0  0  0  0
 45 42  1  0  0  0  0
 46 47  1  0  0  0  0
 49 47  1  0  0  0  0
 50 49  1  0  0  0  0
 50 51  1  0  0  0  0
 50 48  1  0  0  0  0
 51 46  1  0  0  0  0
 52 53  1  0  0  0  0
 55 54  1  0  0  0  0
 55 56  1  0  0  0  0
M  END
>  <MODEL>
8

>  <REMARK>
 VINA RESULT:      -5.6      2.776      6.232
  Name = 
  6 active torsions:
  status: ('A' for Active; 'I' for Inactive)
    1  A    between atoms: C_9  and  C_29
    2  A    between atoms: N_13  and  C_14
    3  A    between atoms: N_13  and  O_22
    4  A    between atoms: C_23  and  C_36
    5  A    between atoms: C_34  and  S_40
    6  A    between atoms: C_37  and  C_39
                            x       y       z     vdW  Elec       q    Type
                         _______ _______ _______ _____ _____    ______ ____

>  <TORSDO>
F 6

$$$$
=
 OpenBabel11042419523D

 56 65  0  0  1  0  0  0  0  0999 V2000
  187.6660  176.1770  144.1340 C   0  0  2  0  0  3  0  0  0  0  0  0
  187.8570  175.3610  138.8390 C   0  0  0  0  0  2  0  0  0  0  0  0
  190.4290  175.8100  142.8060 C   0  0  0  0  0  3  0  0  0  0  0  0
  187.0030  177.1790  147.0780 C   0  0  0  0  0  1  0  0  0  0  0  0
  190.2340  171.3170  139.8500 C   0  0  0  0  0  0  0  0  0  0  0  0
  191.0090  173.3850  140.8670 C   0  0  0  0  0  0  0  0  0  0  0  0
  190.0200  176.8900  145.0040 C   0  0  0  0  0  0  0  0  0  0  0  0
  187.0870  177.1300  140.4530 C   0  0  1  0  0  3  0  0  0  0  0  0
  190.4670  169.9080  139.3910 C   0  0  0  0  0  2  0  0  0  0  0  0
  191.5740  175.6540  141.8650 C   0  0  2  0  0  3  0  0  0  0  0  0
  186.4690  177.0980  143.9680 C   0  0  0  0  0  2  0  0  0  0  0  0
  187.6030  173.9920  139.4460 C   0  0  0  0  0  2  0  0  0  0  0  0
  192.4090  171.3100  141.1180 C   0  0  0  0  0  3  0  0  0  0  0  0
  192.0040  174.1900  141.6750 C   0  0  2  0  0  3  0  0  0  0  0  0
  193.3270  174.1640  141.0380 N   0  0  0  0  0  2  0  0  0  0  0  0
  192.2410  176.8060  143.7710 N   0  0  0  0  0  0  0  0  0  0  0  0
  192.6410  176.3370  142.6400 C   0  0  0  0  0  0  0  0  0  0  0  0
  188.6370  176.7490  145.1340 C   0  0  0  0  0  0  0  0  0  0  0  0
  191.0960  169.3350  141.8240 C   0  0  0  0  0  2  0  0  0  0  0  0
  189.5300  177.5840  146.9800 C   0  0  0  0  0  0  0  0  0  0  0  0
  192.3960  170.0640  141.6030 C   0  0  0  0  0  0  0  0  0  0  0  0
  187.0680  176.2830  141.7260 C   0  0  0  0  0  2  0  0  0  0  0  0
  189.8500  173.9750  140.4600 N   0  0  0  0  0  0  0  0  0  0  0  0
  194.0750  176.1770  142.2700 C   0  0  0  0  0  2  0  0  0  0  0  0
  190.4230  168.8800  140.5260 C   0  0  0  0  0  2  0  0  0  0  0  0
  194.3220  174.6910  141.9800 C   0  0  0  0  0  2  0  0  0  0  0  0
  188.3400  177.1790  146.4150 C   0  0  0  0  0  0  0  0  0  0  0  0
  190.5560  177.4150  146.1270 N   0  0  0  0  0  2  0  0  0  0  0  0
  186.7310  176.3100  139.2130 C   0  0  0  0  0  2  0  0  0  0  0  0
  188.8880  173.3110  139.7700 C   0  0  0  0  0  0  0  0  0  0  0  0
  191.2060  172.0100  140.6080 C   0  0  0  0  0  0  0  0  0  0  0  0
  187.5560  177.0870  142.9200 C   0  0  2  0  0  3  0  0  0  0  0  0
  190.8510  176.5130  143.8480 C   0  0  0  0  0  0  0  0  0  0  0  0
  189.0690  171.9690  139.4450 C   0  0  0  0  0  3  0  0  0  0  0  0
  194.6700  169.2740  141.1490 C   0  0  0  0  0  3  0  0  0  0  0  0
  193.6730  169.4650  142.0060 C   0  0  0  0  0  3  0  0  0  0  0  0
  197.2010  171.1560  140.9290 C   0  0  0  0  0  2  0  0  0  0  0  0
  197.4420  168.6920  143.6130 O   0  0  0  0  0  1  0  0  0  0  0  0
  197.0770  169.2220  139.3630 C   0  0  0  0  0  2  0  0  0  0  0  0
  196.8430  168.1710  140.4460 C   0  0  0  0  0  2  0  0  0  0  0  0
  195.9670  168.6690  141.5990 C   0  0  1  0  0  3  0  0  0  0  0  0
  196.3380  170.8190  143.0750 C   0  0  2  0  0  3  0  0  0  0  0  0
  196.7540  169.4620  142.6720 C   0  0  1  0  0  0  0  0  0  0  0  0
  197.9370  170.3750  139.8560 C   0  0  0  0  0  2  0  0  0  0  0  0
  197.5540  170.6410  142.2470 N   0  0  1  0  0  0  0  0  0  0  0  0
  197.5090  173.4750  145.1300 C   0  0  0  0  0  2  0  0  0  0  0  0
  196.1540  173.2840  145.7640 C   0  0  0  0  0  2  0  0  0  0  0  0
  196.7590  170.0370  145.4230 C   0  0  0  0  0  1  0  0  0  0  0  0
  195.5260  172.1290  145.0170 C   0  0  0  0  0  2  0  0  0  0  0  0
  196.6680  171.2570  144.5220 C   0  0  0  0  0  0  0  0  0  0  0  0
  197.9400  172.0950  144.6790 C   0  0  0  0  0  2  0  0  0  0  0  0
  191.3840  177.5370  148.8090 C   0  0  0  0  0  1  0  0  0  0  0  0
  189.7280  178.2550  148.6280 S   0  0  0  0  0  0  0  0  0  0  0  0
  186.2030  178.2910  140.5670 N   0  0  0  0  0  2  0  0  0  0  0  0
  184.9610  177.9380  140.1500 O   0  0  0  0  0  0  0  0  0  0  0  0
  184.1230  178.2890  141.2080 C   0  0  0  0  0  1  0  0  0  0  0  0
  1 11  1  1  0  0  0
  1 18  1  0  0  0  0
  2 29  1  0  0  0  0
  2 12  1  0  0  0  0
  3 33  2  0  0  0  0
  5 31  1  0  0  0  0
  7 18  2  0  0  0  0
  7 28  1  0  0  0  0
  8 54  1  1  0  0  0
  8 22  1  0  0  0  0
  9  5  1  0  0  0  0
  9 25  1  0  0  0  0
 10 17  1  0  0  0  0
 10  3  1  1  0  0  0
 12 30  1  0  0  0  0
 13 21  2  0  0  0  0
 14  6  1  6  0  0  0
 14 10  1  0  0  0  0
 15 14  1  0  0  0  0
 15 26  1  0  0  0  0
 16 33  1  0  0  0  0
 17 16  2  0  0  0  0
 18 27  1  0  0  0  0
 20 53  1  0  0  0  0
 21 19  1  0  0  0  0
 21 36  1  0  0  0  0
 23  6  1  0  0  0  0
 24 17  1  0  0  0  0
 25 19  1  0  0  0  0
 26 24  1  0  0  0  0
 27 20  2  0  0  0  0
 27  4  1  0  0  0  0
 28 20  1  0  0  0  0
 29  8  1  0  0  0  0
 30 23  2  0  0  0  0
 31  6  2  0  0  0  0
 31 13  1  0  0  0  0
 32 22  1  6  0  0  0
 32 11  1  0  0  0  0
 32  1  1  0  0  0  0
 33  7  1  0  0  0  0
 34 30  1  0  0  0  0
 34  5  2  0  0  0  0
 35 36  2  0  0  0  0
 39 44  1  0  0  0  0
 39 40  1  0  0  0  0
 40 41  1  0  0  0  0
 41 35  1  6  0  0  0
 41 43  1  0  0  0  0
 42 50  1  1  0  0  0
 43 42  1  0  0  0  0
 43 38  1  1  0  0  0
 44 37  1  0  0  0  0
 45 37  1  6  0  0  0
 45 43  1  0  0  0  0
 45 42  1  0  0  0  0
 46 47  1  0  0  0  0
 49 47  1  0  0  0  0
 50 51  1  0  0  0  0
 50 49  1  0  0  0  0
 50 48  1  0  0  0  0
 51 46  1  0  0  0  0
 53 52  1  0  0  0  0
 55 54  1  0  0  0  0
 55 56  1  0  0  0  0
M  END
>  <MODEL>
9

>  <REMARK>
 VINA RESULT:      -5.6      2.837      6.320
  Name = 
  6 active torsions:
  status: ('A' for Active; 'I' for Inactive)
    1  A    between atoms: C_9  and  C_29
    2  A    between atoms: N_13  and  C_14
    3  A    between atoms: N_13  and  O_22
    4  A    between atoms: C_23  and  C_36
    5  A    between atoms: C_34  and  S_40
    6  A    between atoms: C_37  and  C_39
                            x       y       z     vdW  Elec       q    Type
                         _______ _______ _______ _____ _____    ______ ____

>  <TORSDO>
F 6

$$$$
