=
 OpenBabel11042418453D

 44 47  0  0  1  0  0  0  0  0999 V2000
  189.4310  175.3570  146.3340 C   0  0  1  0  0  3  0  0  0  0  0  0
  190.2390  171.9810  143.9520 C   0  0  0  0  0  3  0  0  0  0  0  0
  189.1230  175.5340  144.8460 C   0  0  2  0  0  3  0  0  0  0  0  0
  189.5190  173.1480  141.8360 C   0  0  2  0  0  3  0  0  0  0  0  0
  188.6660  172.9360  140.2880 Cl  0  0  0  0  0  0  0  0  0  0  0  0
  189.6220  171.8100  142.5840 C   0  0  1  0  0  3  0  0  0  0  0  0
  189.4450  174.3200  144.0470 C   0  0  2  0  0  0  0  0  0  0  0  0
  190.1300  173.1200  144.6450 C   0  0  0  0  0  3  0  0  0  0  0  0
  190.3030  175.4310  144.0760 O   0  0  0  0  0  0  0  0  0  0  0  0
  188.7710  174.1730  142.6850 C   0  0  0  0  0  2  0  0  0  0  0  0
  190.4030  170.8570  141.8000 N   0  0  0  0  0  2  0  0  0  0  0  0
  193.8350  169.6090  141.4270 C   0  0  1  0  0  3  0  0  0  0  0  0
  195.1320  169.0580  141.9980 C   0  0  0  0  0  1  0  0  0  0  0  0
  192.6170  171.5460  141.0710 C   0  0  0  0  0  2  0  0  0  0  0  0
  191.7970  170.9740  142.2110 C   0  0  2  0  0  3  0  0  0  0  0  0
  192.4770  169.3330  142.6030 S   0  0  0  0  0  0  0  0  0  0  0  0
  193.9720  171.0370  141.1840 N   0  0  0  0  0  2  0  0  0  0  0  0
  190.3350  176.9930  147.8550 O   0  0  0  0  0  1  0  0  0  0  0  0
  190.6310  176.2060  146.7380 C   0  0  1  0  0  3  0  0  0  0  0  0
  191.8350  175.3270  147.0270 C   0  0  0  0  0  2  0  0  0  0  0  0
  193.0310  175.8480  146.2970 C   0  0  0  0  0  0  0  0  0  0  0  0
  194.6700  177.1290  145.7040 C   0  0  0  0  0  0  0  0  0  0  0  0
  194.9090  175.8720  144.9340 C   0  0  1  0  0  3  0  0  0  0  0  0
  193.5110  177.0290  146.5210 N   0  0  0  0  0  0  0  0  0  0  0  0
  195.4140  178.1470  145.6810 O   0  0  0  0  0  0  0  0  0  0  0  0
  193.7780  175.0550  145.3670 N   0  0  0  0  0  2  0  0  0  0  0  0
  197.2570  176.3290  143.3730 O   0  0  0  0  0  1  0  0  0  0  0  0
  194.8570  176.0740  143.4460 C   0  0  0  0  0  0  0  0  0  0  0  0
  193.7740  175.9010  142.8120 O   0  0  0  0  0  0  0  0  0  0  0  0
  196.0630  176.3910  142.7350 N   0  0  0  0  0  0  0  0  0  0  0  0
  196.0370  176.6950  141.3100 C   0  0  0  0  0  2  0  0  0  0  0  0
  197.4630  175.8130  139.6170 O   0  0  0  0  0  0  0  0  0  0  0  0
  196.2880  174.2560  140.8260 O   0  0  0  0  0  1  0  0  0  0  0  0
  196.6280  175.5710  140.5290 C   0  0  0  0  0  0  0  0  0  0  0  0
  188.3060  175.7060  147.0900 O   0  0  0  0  0  0  0  0  0  0  0  0
  187.5130  176.4780  146.2350 C   0  0  0  0  0  2  0  0  0  0  0  0
  186.7710  177.5370  147.0280 C   0  0  0  0  0  2  0  0  0  0  0  0
  186.3370  178.5500  144.8400 C   0  0  0  0  0  3  0  0  0  0  0  0
  185.9730  178.4030  146.1140 C   0  0  0  0  0  3  0  0  0  0  0  0
  185.5330  179.3900  143.8990 C   0  0  0  0  0  2  0  0  0  0  0  0
  185.3280  178.6560  142.5870 C   0  0  0  0  0  2  0  0  0  0  0  0
  186.2290  177.0820  142.6020 S   0  0  0  0  0  0  0  0  0  0  0  0
  187.4290  177.6310  141.3510 C   0  0  0  0  0  2  0  0  0  0  0  0
  188.7260  178.0420  142.0220 C   0  0  0  0  0  1  0  0  0  0  0  0
  1 19  1  0  0  0  0
  1 35  1  1  0  0  0
  2  8  2  0  0  0  0
  3  1  1  1  0  0  0
  4  5  1  6  0  0  0
  4  6  1  0  0  0  0
  4 10  1  0  0  0  0
  6 11  1  6  0  0  0
  6  2  1  0  0  0  0
  7 10  1  6  0  0  0
  7  9  1  0  0  0  0
  7  8  1  0  0  0  0
  7  3  1  0  0  0  0
  9  3  1  0  0  0  0
 12 13  1  1  0  0  0
 12 16  1  0  0  0  0
 14 17  1  0  0  0  0
 14 15  1  0  0  0  0
 15 11  1  6  0  0  0
 15 16  1  0  0  0  0
 17 12  1  0  0  0  0
 19 20  1  0  0  0  0
 19 18  1  1  0  0  0
 21 24  2  0  0  0  0
 21 20  1  0  0  0  0
 22 24  1  0  0  0  0
 23 28  1  6  0  0  0
 23 26  1  0  0  0  0
 23 22  1  0  0  0  0
 25 22  2  0  0  0  0
 26 21  1  0  0  0  0
 29 28  2  0  0  0  0
 30 27  1  0  0  0  0
 30 28  1  0  0  0  0
 31 30  1  0  0  0  0
 32 34  2  0  0  0  0
 34 33  1  0  0  0  0
 34 31  1  0  0  0  0
 36 37  1  0  0  0  0
 36 35  1  0  0  0  0
 38 39  2  0  0  0  0
 39 37  1  0  0  0  0
 40 38  1  0  0  0  0
 41 42  1  0  0  0  0
 41 40  1  0  0  0  0
 43 44  1  0  0  0  0
 43 42  1  0  0  0  0
M  END
>  <MODEL>
1

>  <REMARK>
 VINA RESULT:      -6.4      0.000      0.000
  Name = 
  17 active torsions:
  status: ('A' for Active; 'I' for Inactive)
    1  A    between atoms: C_1  and  C_29
    2  A    between atoms: C_1  and  O_31
    3  A    between atoms: C_2  and  C_24
    4  A    between atoms: C_4  and  C_5
    5  A    between atoms: C_4  and  O_31
    6  A    between atoms: C_4  and  C_35
    7  A    between atoms: C_6  and  C_26
    8  A    between atoms: N_8  and  C_18
    9  A    between atoms: N_8  and  C_22
   10  A    between atoms: C_12  and  N_37
   11  A    between atoms: C_12  and  C_38
   12  A    between atoms: C_16  and  C_17
   13  A    between atoms: C_19  and  C_29
   14  A    between atoms: C_24  and  C_43
   15  A    between atoms: C_26  and  C_35
   16  A    between atoms: C_27  and  S_44
   17  A    between atoms: C_43  and  S_44
                            x       y       z     vdW  Elec       q    Type
                         _______ _______ _______ _____ _____    ______ ____

>  <TORSDO>
F 17

$$$$
=
 OpenBabel11042418453D

 44 47  0  0  1  0  0  0  0  0999 V2000
  192.7500  176.4470  145.4320 C   0  0  1  0  0  3  0  0  0  0  0  0
  189.7430  174.3700  143.3420 C   0  0  0  0  0  3  0  0  0  0  0  0
  191.9500  177.2990  144.4460 C   0  0  2  0  0  3  0  0  0  0  0  0
  189.0610  176.4190  142.0400 C   0  0  2  0  0  3  0  0  0  0  0  0
  187.6720  177.3120  141.3750 Cl  0  0  0  0  0  0  0  0  0  0  0  0
  188.6010  175.0950  142.6680 C   0  0  1  0  0  3  0  0  0  0  0  0
  190.9150  176.5130  143.7200 C   0  0  2  0  0  0  0  0  0  0  0  0
  190.7910  175.0200  143.8600 C   0  0  0  0  0  3  0  0  0  0  0  0
  192.1420  176.8430  143.1220 O   0  0  0  0  0  0  0  0  0  0  0  0
  189.7620  177.2860  143.0840 C   0  0  0  0  0  2  0  0  0  0  0  0
  187.9990  174.2400  141.6490 N   0  0  0  0  0  2  0  0  0  0  0  0
  189.0870  172.2540  138.7600 C   0  0  1  0  0  3  0  0  0  0  0  0
  190.1400  171.4810  137.9830 C   0  0  0  0  0  1  0  0  0  0  0  0
  188.2940  174.3760  139.2400 C   0  0  0  0  0  2  0  0  0  0  0  0
  188.9650  174.0830  140.5680 C   0  0  2  0  0  3  0  0  0  0  0  0
  189.5700  172.3690  140.5080 S   0  0  0  0  0  0  0  0  0  0  0  0
  188.9580  173.5960  138.2120 N   0  0  0  0  0  2  0  0  0  0  0  0
  194.5910  177.4620  146.6110 O   0  0  0  0  0  1  0  0  0  0  0  0
  194.2230  176.8430  145.4130 C   0  0  1  0  0  3  0  0  0  0  0  0
  195.0990  175.6280  145.1670 C   0  0  0  0  0  2  0  0  0  0  0  0
  195.2820  175.4240  143.6970 C   0  0  0  0  0  0  0  0  0  0  0  0
  195.8910  175.7430  141.6460 C   0  0  0  0  0  0  0  0  0  0  0  0
  195.3470  174.3530  141.6400 C   0  0  1  0  0  3  0  0  0  0  0  0
  195.8270  176.3230  142.9420 N   0  0  0  0  0  0  0  0  0  0  0  0
  196.3910  176.3310  140.6490 O   0  0  0  0  0  0  0  0  0  0  0  0
  194.9490  174.1970  143.0370 N   0  0  0  0  0  2  0  0  0  0  0  0
  195.5000  173.0390  139.1070 O   0  0  0  0  0  1  0  0  0  0  0  0
  194.1500  174.1930  140.7440 C   0  0  0  0  0  0  0  0  0  0  0  0
  192.9940  174.5110  141.1540 O   0  0  0  0  0  0  0  0  0  0  0  0
  194.3150  173.6050  139.4460 N   0  0  0  0  0  0  0  0  0  0  0  0
  193.2010  173.5270  138.5090 C   0  0  0  0  0  2  0  0  0  0  0  0
  193.6420  175.6340  137.4870 O   0  0  0  0  0  1  0  0  0  0  0  0
  193.5250  173.8480  136.0520 O   0  0  0  0  0  0  0  0  0  0  0  0
  193.4570  174.3980  137.3260 C   0  0  0  0  0  0  0  0  0  0  0  0
  192.2180  176.5950  146.7190 O   0  0  0  0  0  0  0  0  0  0  0  0
  191.9630  175.2930  147.1630 C   0  0  0  0  0  2  0  0  0  0  0  0
  190.5650  175.2070  147.7440 C   0  0  0  0  0  2  0  0  0  0  0  0
  188.4590  175.8860  146.6940 C   0  0  0  0  0  3  0  0  0  0  0  0
  189.6780  176.2240  147.1100 C   0  0  0  0  0  3  0  0  0  0  0  0
  187.5430  176.8990  146.0820 C   0  0  0  0  0  2  0  0  0  0  0  0
  186.2240  176.9340  146.8340 C   0  0  0  0  0  2  0  0  0  0  0  0
  185.6430  178.6440  147.0020 S   0  0  0  0  0  0  0  0  0  0  0  0
  184.7900  178.6280  145.3970 C   0  0  0  0  0  2  0  0  0  0  0  0
  185.4520  179.6110  144.4500 C   0  0  0  0  0  1  0  0  0  0  0  0
  1 35  1  1  0  0  0
  2  8  2  0  0  0  0
  3  1  1  1  0  0  0
  4  5  1  1  0  0  0
  4  6  1  0  0  0  0
  4 10  1  0  0  0  0
  6 11  1  6  0  0  0
  6  2  1  0  0  0  0
  7 10  1  6  0  0  0
  7  8  1  0  0  0  0
  7  3  1  0  0  0  0
  9  7  1  0  0  0  0
  9  3  1  0  0  0  0
 12 13  1  6  0  0  0
 12 16  1  0  0  0  0
 14 15  1  0  0  0  0
 15 11  1  1  0  0  0
 16 15  1  0  0  0  0
 17 12  1  0  0  0  0
 17 14  1  0  0  0  0
 19  1  1  0  0  0  0
 19 18  1  1  0  0  0
 20 19  1  0  0  0  0
 21 20  1  0  0  0  0
 22 24  1  0  0  0  0
 23 28  1  6  0  0  0
 23 22  1  0  0  0  0
 23 26  1  0  0  0  0
 24 21  2  0  0  0  0
 25 22  2  0  0  0  0
 26 21  1  0  0  0  0
 27 30  1  0  0  0  0
 28 29  2  0  0  0  0
 30 28  1  0  0  0  0
 31 30  1  0  0  0  0
 33 34  2  0  0  0  0
 34 32  1  0  0  0  0
 34 31  1  0  0  0  0
 35 36  1  0  0  0  0
 36 37  1  0  0  0  0
 38 39  2  0  0  0  0
 39 37  1  0  0  0  0
 40 38  1  0  0  0  0
 40 41  1  0  0  0  0
 41 42  1  0  0  0  0
 43 42  1  0  0  0  0
 44 43  1  0  0  0  0
M  END
>  <MODEL>
2

>  <REMARK>
 VINA RESULT:      -6.2      2.657      4.345
  Name = 
  17 active torsions:
  status: ('A' for Active; 'I' for Inactive)
    1  A    between atoms: C_1  and  C_29
    2  A    between atoms: C_1  and  O_31
    3  A    between atoms: C_2  and  C_24
    4  A    between atoms: C_4  and  C_5
    5  A    between atoms: C_4  and  O_31
    6  A    between atoms: C_4  and  C_35
    7  A    between atoms: C_6  and  C_26
    8  A    between atoms: N_8  and  C_18
    9  A    between atoms: N_8  and  C_22
   10  A    between atoms: C_12  and  N_37
   11  A    between atoms: C_12  and  C_38
   12  A    between atoms: C_16  and  C_17
   13  A    between atoms: C_19  and  C_29
   14  A    between atoms: C_24  and  C_43
   15  A    between atoms: C_26  and  C_35
   16  A    between atoms: C_27  and  S_44
   17  A    between atoms: C_43  and  S_44
                            x       y       z     vdW  Elec       q    Type
                         _______ _______ _______ _____ _____    ______ ____

>  <TORSDO>
F 17

$$$$
=
 OpenBabel11042418453D

 44 47  0  0  1  0  0  0  0  0999 V2000
  190.8840  176.1290  146.0310 C   0  0  1  0  0  3  0  0  0  0  0  0
  189.2000  173.6830  143.0470 C   0  0  0  0  0  3  0  0  0  0  0  0
  190.3300  176.8840  144.8220 C   0  0  2  0  0  3  0  0  0  0  0  0
  188.6480  175.6530  141.5710 C   0  0  2  0  0  3  0  0  0  0  0  0
  187.4340  176.3290  140.4590 Cl  0  0  0  0  0  0  0  0  0  0  0  0
  188.2470  174.2370  142.0130 C   0  0  1  0  0  3  0  0  0  0  0  0
  189.7660  175.9730  143.7890 C   0  0  2  0  0  0  0  0  0  0  0  0
  189.8720  174.4740  143.8900 C   0  0  0  0  0  3  0  0  0  0  0  0
  191.0430  176.5400  143.6510 O   0  0  0  0  0  0  0  0  0  0  0  0
  188.7810  176.5690  142.7870 C   0  0  0  0  0  2  0  0  0  0  0  0
  188.1950  173.3480  140.8560 N   0  0  0  0  0  2  0  0  0  0  0  0
  190.4820  171.8800  138.3880 C   0  0  1  0  0  3  0  0  0  0  0  0
  191.8490  171.3720  137.9610 C   0  0  0  0  0  1  0  0  0  0  0  0
  189.2000  173.7860  138.6870 C   0  0  0  0  0  2  0  0  0  0  0  0
  189.4630  173.4630  140.1440 C   0  0  2  0  0  3  0  0  0  0  0  0
  190.3620  171.8830  140.2010 S   0  0  0  0  0  0  0  0  0  0  0  0
  190.2850  173.2360  137.8950 N   0  0  0  0  0  2  0  0  0  0  0  0
  192.7240  176.8000  147.4370 O   0  0  0  0  0  1  0  0  0  0  0  0
  192.3880  176.3460  146.1580 C   0  0  1  0  0  3  0  0  0  0  0  0
  193.1410  175.0640  145.8470 C   0  0  0  0  0  2  0  0  0  0  0  0
  194.2140  175.3360  144.8430 C   0  0  0  0  0  0  0  0  0  0  0  0
  195.8660  176.2840  143.8180 C   0  0  0  0  0  0  0  0  0  0  0  0
  195.7220  174.9740  143.1170 C   0  0  1  0  0  3  0  0  0  0  0  0
  194.9170  176.4230  144.8660 N   0  0  0  0  0  0  0  0  0  0  0  0
  196.7420  177.1540  143.5590 O   0  0  0  0  0  0  0  0  0  0  0  0
  194.5980  174.3870  143.8410 N   0  0  0  0  0  2  0  0  0  0  0  0
  196.7560  173.2150  141.1170 O   0  0  0  0  0  1  0  0  0  0  0  0
  195.3760  175.1210  141.6620 C   0  0  0  0  0  0  0  0  0  0  0  0
  194.4900  175.9480  141.2930 O   0  0  0  0  0  0  0  0  0  0  0  0
  196.0020  174.2620  140.6980 N   0  0  0  0  0  0  0  0  0  0  0  0
  195.7720  174.4390  139.2700 C   0  0  0  0  0  2  0  0  0  0  0  0
  197.8010  175.6830  139.3930 O   0  0  0  0  0  1  0  0  0  0  0  0
  196.8300  175.5820  137.3160 O   0  0  0  0  0  0  0  0  0  0  0  0
  196.8500  175.2760  138.6720 C   0  0  0  0  0  0  0  0  0  0  0  0
  190.2270  176.5570  147.1920 O   0  0  0  0  0  0  0  0  0  0  0  0
  189.0370  177.1400  146.7450 C   0  0  0  0  0  2  0  0  0  0  0  0
  187.8870  176.1640  146.9090 C   0  0  0  0  0  2  0  0  0  0  0  0
  186.1940  177.9140  147.1820 C   0  0  0  0  0  3  0  0  0  0  0  0
  186.5980  176.8180  146.5410 C   0  0  0  0  0  3  0  0  0  0  0  0
  184.9190  178.6010  146.8080 C   0  0  0  0  0  2  0  0  0  0  0  0
  184.6170  178.3780  145.3370 C   0  0  0  0  0  2  0  0  0  0  0  0
  185.1930  179.7920  144.3570 S   0  0  0  0  0  0  0  0  0  0  0  0
  185.7730  178.7460  142.9870 C   0  0  0  0  0  2  0  0  0  0  0  0
  185.1950  177.3500  143.1200 C   0  0  0  0  0  1  0  0  0  0  0  0
  1 19  1  0  0  0  0
  1 35  1  1  0  0  0
  2  8  2  0  0  0  0
  3  1  1  1  0  0  0
  4  5  1  6  0  0  0
  4  6  1  0  0  0  0
  4 10  1  0  0  0  0
  6 11  1  6  0  0  0
  6  2  1  0  0  0  0
  7 10  1  6  0  0  0
  7  8  1  0  0  0  0
  7  3  1  0  0  0  0
  9  7  1  0  0  0  0
  9  3  1  0  0  0  0
 12 13  1  1  0  0  0
 12 16  1  0  0  0  0
 14 15  1  0  0  0  0
 15 16  1  0  0  0  0
 15 11  1  1  0  0  0
 17 12  1  0  0  0  0
 17 14  1  0  0  0  0
 19 18  1  1  0  0  0
 20 19  1  0  0  0  0
 21 24  2  0  0  0  0
 21 20  1  0  0  0  0
 22 24  1  0  0  0  0
 23 28  1  6  0  0  0
 23 22  1  0  0  0  0
 23 26  1  0  0  0  0
 25 22  2  0  0  0  0
 26 21  1  0  0  0  0
 29 28  2  0  0  0  0
 30 27  1  0  0  0  0
 30 28  1  0  0  0  0
 31 30  1  0  0  0  0
 33 34  2  0  0  0  0
 34 31  1  0  0  0  0
 34 32  1  0  0  0  0
 36 37  1  0  0  0  0
 36 35  1  0  0  0  0
 39 37  1  0  0  0  0
 39 38  2  0  0  0  0
 40 38  1  0  0  0  0
 41 40  1  0  0  0  0
 42 41  1  0  0  0  0
 43 44  1  0  0  0  0
 43 42  1  0  0  0  0
M  END
>  <MODEL>
3

>  <REMARK>
 VINA RESULT:      -6.1      2.275      2.927
  Name = 
  17 active torsions:
  status: ('A' for Active; 'I' for Inactive)
    1  A    between atoms: C_1  and  C_29
    2  A    between atoms: C_1  and  O_31
    3  A    between atoms: C_2  and  C_24
    4  A    between atoms: C_4  and  C_5
    5  A    between atoms: C_4  and  O_31
    6  A    between atoms: C_4  and  C_35
    7  A    between atoms: C_6  and  C_26
    8  A    between atoms: N_8  and  C_18
    9  A    between atoms: N_8  and  C_22
   10  A    between atoms: C_12  and  N_37
   11  A    between atoms: C_12  and  C_38
   12  A    between atoms: C_16  and  C_17
   13  A    between atoms: C_19  and  C_29
   14  A    between atoms: C_24  and  C_43
   15  A    between atoms: C_26  and  C_35
   16  A    between atoms: C_27  and  S_44
   17  A    between atoms: C_43  and  S_44
                            x       y       z     vdW  Elec       q    Type
                         _______ _______ _______ _____ _____    ______ ____

>  <TORSDO>
F 17

$$$$
=
 OpenBabel11042418453D

 44 47  0  0  1  0  0  0  0  0999 V2000
  191.0770  175.8270  145.8140 C   0  0  1  0  0  3  0  0  0  0  0  0
  190.5360  174.1940  141.9710 C   0  0  0  0  0  3  0  0  0  0  0  0
  191.6980  174.4430  145.6120 C   0  0  2  0  0  3  0  0  0  0  0  0
  191.7590  172.0710  142.5660 C   0  0  2  0  0  3  0  0  0  0  0  0
  192.8960  170.8410  141.9620 Cl  0  0  0  0  0  0  0  0  0  0  0  0
  191.4080  173.0730  141.4560 C   0  0  1  0  0  3  0  0  0  0  0  0
  191.4600  173.9040  144.2450 C   0  0  2  0  0  0  0  0  0  0  0  0
  190.5820  174.6050  143.2430 C   0  0  0  0  0  3  0  0  0  0  0  0
  190.6970  173.4820  145.3450 O   0  0  0  0  0  0  0  0  0  0  0  0
  192.3880  172.7960  143.7540 C   0  0  0  0  0  2  0  0  0  0  0  0
  190.7390  172.3860  140.3550 N   0  0  0  0  0  2  0  0  0  0  0  0
  189.4200  173.2900  137.0500 C   0  0  1  0  0  3  0  0  0  0  0  0
  189.3210  174.2230  135.8550 C   0  0  0  0  0  1  0  0  0  0  0  0
  188.6640  172.9220  139.2090 C   0  0  0  0  0  2  0  0  0  0  0  0
  190.0670  173.3920  139.5400 C   0  0  2  0  0  3  0  0  0  0  0  0
  190.9520  173.6240  137.9690 S   0  0  0  0  0  0  0  0  0  0  0  0
  188.2810  173.4990  137.9320 N   0  0  0  0  0  2  0  0  0  0  0  0
  190.2620  177.2200  147.6030 O   0  0  0  0  0  1  0  0  0  0  0  0
  190.3510  175.9000  147.1520 C   0  0  1  0  0  3  0  0  0  0  0  0
  188.9620  175.2950  147.0400 C   0  0  0  0  0  2  0  0  0  0  0  0
  188.0050  176.3170  146.5160 C   0  0  0  0  0  0  0  0  0  0  0  0
  186.4780  177.8470  146.4490 C   0  0  0  0  0  0  0  0  0  0  0  0
  187.0120  177.8220  145.0550 C   0  0  1  0  0  3  0  0  0  0  0  0
  187.1440  176.9080  147.2810 N   0  0  0  0  0  0  0  0  0  0  0  0
  185.5790  178.6270  146.8680 O   0  0  0  0  0  0  0  0  0  0  0  0
  188.0260  176.7760  145.1590 N   0  0  0  0  0  2  0  0  0  0  0  0
  185.4340  179.7610  143.6720 O   0  0  0  0  0  1  0  0  0  0  0  0
  185.9780  177.4360  144.0350 C   0  0  0  0  0  0  0  0  0  0  0  0
  185.8760  176.2340  143.6470 O   0  0  0  0  0  0  0  0  0  0  0  0
  185.1560  178.4530  143.4450 N   0  0  0  0  0  0  0  0  0  0  0  0
  184.0750  178.1100  142.5300 C   0  0  0  0  0  2  0  0  0  0  0  0
  183.6640  178.6290  140.2410 O   0  0  0  0  0  0  0  0  0  0  0  0
  185.8470  178.1600  140.7690 O   0  0  0  0  0  1  0  0  0  0  0  0
  184.5090  178.3040  141.1170 C   0  0  0  0  0  0  0  0  0  0  0  0
  192.0780  176.8040  145.7440 O   0  0  0  0  0  0  0  0  0  0  0  0
  193.1660  176.2650  146.4380 C   0  0  0  0  0  2  0  0  0  0  0  0
  194.4220  177.0570  146.1310 C   0  0  0  0  0  2  0  0  0  0  0  0
  195.2660  175.1530  144.8410 C   0  0  0  0  0  3  0  0  0  0  0  0
  195.1250  176.4730  144.9530 C   0  0  0  0  0  3  0  0  0  0  0  0
  195.9420  174.5470  143.6520 C   0  0  0  0  0  2  0  0  0  0  0  0
  196.7460  173.3290  144.0710 C   0  0  0  0  0  2  0  0  0  0  0  0
  196.9570  173.3070  145.8720 S   0  0  0  0  0  0  0  0  0  0  0  0
  196.6750  171.5150  145.9940 C   0  0  0  0  0  2  0  0  0  0  0  0
  195.8800  171.0330  144.7960 C   0  0  0  0  0  1  0  0  0  0  0  0
  1 35  1  1  0  0  0
  1 19  1  0  0  0  0
  2  8  2  0  0  0  0
  3  1  1  6  0  0  0
  4  5  1  6  0  0  0
  4 10  1  0  0  0  0
  6 11  1  6  0  0  0
  6  2  1  0  0  0  0
  6  4  1  0  0  0  0
  7  8  1  6  0  0  0
  7  9  1  0  0  0  0
  7  3  1  0  0  0  0
  9  3  1  0  0  0  0
 10  7  1  0  0  0  0
 12 13  1  6  0  0  0
 12 17  1  0  0  0  0
 12 16  1  0  0  0  0
 14 15  1  0  0  0  0
 15 11  1  1  0  0  0
 16 15  1  0  0  0  0
 17 14  1  0  0  0  0
 19 18  1  6  0  0  0
 20 19  1  0  0  0  0
 21 20  1  0  0  0  0
 21 24  2  0  0  0  0
 22 25  2  0  0  0  0
 22 24  1  0  0  0  0
 23 28  1  6  0  0  0
 23 26  1  0  0  0  0
 23 22  1  0  0  0  0
 26 21  1  0  0  0  0
 29 28  2  0  0  0  0
 30 27  1  0  0  0  0
 30 28  1  0  0  0  0
 31 30  1  0  0  0  0
 32 34  2  0  0  0  0
 33 34  1  0  0  0  0
 34 31  1  0  0  0  0
 35 36  1  0  0  0  0
 37 36  1  0  0  0  0
 38 39  2  0  0  0  0
 39 37  1  0  0  0  0
 40 41  1  0  0  0  0
 40 38  1  0  0  0  0
 41 42  1  0  0  0  0
 42 43  1  0  0  0  0
 44 43  1  0  0  0  0
M  END
>  <MODEL>
4

>  <REMARK>
 VINA RESULT:      -6.0      3.830      7.883
  Name = 
  17 active torsions:
  status: ('A' for Active; 'I' for Inactive)
    1  A    between atoms: C_1  and  C_29
    2  A    between atoms: C_1  and  O_31
    3  A    between atoms: C_2  and  C_24
    4  A    between atoms: C_4  and  C_5
    5  A    between atoms: C_4  and  O_31
    6  A    between atoms: C_4  and  C_35
    7  A    between atoms: C_6  and  C_26
    8  A    between atoms: N_8  and  C_18
    9  A    between atoms: N_8  and  C_22
   10  A    between atoms: C_12  and  N_37
   11  A    between atoms: C_12  and  C_38
   12  A    between atoms: C_16  and  C_17
   13  A    between atoms: C_19  and  C_29
   14  A    between atoms: C_24  and  C_43
   15  A    between atoms: C_26  and  C_35
   16  A    between atoms: C_27  and  S_44
   17  A    between atoms: C_43  and  S_44
                            x       y       z     vdW  Elec       q    Type
                         _______ _______ _______ _____ _____    ______ ____

>  <TORSDO>
F 17

$$$$
=
 OpenBabel11042418453D

 44 47  0  0  1  0  0  0  0  0999 V2000
  191.2820  176.3160  145.7630 C   0  0  1  0  0  3  0  0  0  0  0  0
  193.4160  172.7960  144.8780 C   0  0  0  0  0  3  0  0  0  0  0  0
  192.7470  176.3260  146.2050 C   0  0  2  0  0  3  0  0  0  0  0  0
  195.5340  173.6670  145.9340 C   0  0  2  0  0  3  0  0  0  0  0  0
  197.3060  173.7260  145.7800 Cl  0  0  0  0  0  0  0  0  0  0  0  0
  194.9260  172.7730  144.8430 C   0  0  1  0  0  3  0  0  0  0  0  0
  193.4480  175.0520  145.8870 C   0  0  2  0  0  0  0  0  0  0  0  0
  192.7310  173.8560  145.3220 C   0  0  0  0  0  3  0  0  0  0  0  0
  192.9800  175.3310  147.1810 O   0  0  0  0  0  0  0  0  0  0  0  0
  194.9740  175.0850  145.8290 C   0  0  0  0  0  2  0  0  0  0  0  0
  195.4070  171.4020  144.9940 N   0  0  0  0  0  2  0  0  0  0  0  0
  194.5270  170.7880  141.4840 C   0  0  1  0  0  3  0  0  0  0  0  0
  194.4370  169.8900  140.2600 C   0  0  0  0  0  1  0  0  0  0  0  0
  195.9570  172.1120  142.7360 C   0  0  0  0  0  2  0  0  0  0  0  0
  195.8530  170.9360  143.6860 C   0  0  2  0  0  3  0  0  0  0  0  0
  194.6410  169.7730  142.9870 S   0  0  0  0  0  0  0  0  0  0  0  0
  195.7090  171.6320  141.3880 N   0  0  0  0  0  2  0  0  0  0  0  0
  189.9660  177.6590  147.2710 O   0  0  0  0  0  1  0  0  0  0  0  0
  190.3560  176.3500  146.9740 C   0  0  1  0  0  3  0  0  0  0  0  0
  189.1310  175.4850  146.7330 C   0  0  0  0  0  2  0  0  0  0  0  0
  187.9580  176.3500  146.3990 C   0  0  0  0  0  0  0  0  0  0  0  0
  186.1220  177.4770  146.5980 C   0  0  0  0  0  0  0  0  0  0  0  0
  186.6250  177.8580  145.2450 C   0  0  1  0  0  3  0  0  0  0  0  0
  186.9990  176.5620  147.2420 N   0  0  0  0  0  0  0  0  0  0  0  0
  185.0770  177.9310  147.1390 O   0  0  0  0  0  0  0  0  0  0  0  0
  187.8510  177.0690  145.1650 N   0  0  0  0  0  2  0  0  0  0  0  0
  185.0290  179.7710  143.8460 O   0  0  0  0  0  1  0  0  0  0  0  0
  185.6880  177.4660  144.1370 C   0  0  0  0  0  0  0  0  0  0  0  0
  185.6860  176.2810  143.6870 O   0  0  0  0  0  0  0  0  0  0  0  0
  184.8480  178.4630  143.5380 N   0  0  0  0  0  0  0  0  0  0  0  0
  183.8540  178.1040  142.5340 C   0  0  0  0  0  2  0  0  0  0  0  0
  183.5900  178.6090  140.2200 O   0  0  0  0  0  0  0  0  0  0  0  0
  185.7560  178.3490  140.9320 O   0  0  0  0  0  1  0  0  0  0  0  0
  184.3860  178.3570  141.1650 C   0  0  0  0  0  0  0  0  0  0  0  0
  191.0370  177.4120  144.9270 O   0  0  0  0  0  0  0  0  0  0  0  0
  190.9010  176.8710  143.6440 C   0  0  0  0  0  2  0  0  0  0  0  0
  192.1840  177.0680  142.8590 C   0  0  0  0  0  2  0  0  0  0  0  0
  191.7330  174.8370  141.9530 C   0  0  0  0  0  3  0  0  0  0  0  0
  192.6270  175.7750  142.2620 C   0  0  0  0  0  3  0  0  0  0  0  0
  192.1550  173.5460  141.3250 C   0  0  0  0  0  2  0  0  0  0  0  0
  191.1570  172.4520  141.6570 C   0  0  0  0  0  2  0  0  0  0  0  0
  189.7170  172.5610  140.5590 S   0  0  0  0  0  0  0  0  0  0  0  0
  188.5370  172.6820  141.9360 C   0  0  0  0  0  2  0  0  0  0  0  0
  188.2030  174.1360  142.2070 C   0  0  0  0  0  1  0  0  0  0  0  0
  1 35  1  6  0  0  0
  1 19  1  0  0  0  0
  2  8  2  0  0  0  0
  3  1  1  6  0  0  0
  3  9  1  0  0  0  0
  4  5  1  6  0  0  0
  6  2  1  0  0  0  0
  6 11  1  1  0  0  0
  6  4  1  0  0  0  0
  7  8  1  6  0  0  0
  7  3  1  0  0  0  0
  7  9  1  0  0  0  0
 10  7  1  0  0  0  0
 10  4  1  0  0  0  0
 12 13  1  6  0  0  0
 12 16  1  0  0  0  0
 14 15  1  0  0  0  0
 15 11  1  1  0  0  0
 16 15  1  0  0  0  0
 17 12  1  0  0  0  0
 17 14  1  0  0  0  0
 19 18  1  6  0  0  0
 20 19  1  0  0  0  0
 21 20  1  0  0  0  0
 21 24  2  0  0  0  0
 22 25  2  0  0  0  0
 22 24  1  0  0  0  0
 23 28  1  6  0  0  0
 23 22  1  0  0  0  0
 26 23  1  0  0  0  0
 26 21  1  0  0  0  0
 29 28  2  0  0  0  0
 30 27  1  0  0  0  0
 30 28  1  0  0  0  0
 31 30  1  0  0  0  0
 32 34  2  0  0  0  0
 33 34  1  0  0  0  0
 34 31  1  0  0  0  0
 36 35  1  0  0  0  0
 37 36  1  0  0  0  0
 38 39  2  0  0  0  0
 39 37  1  0  0  0  0
 40 41  1  0  0  0  0
 40 38  1  0  0  0  0
 42 41  1  0  0  0  0
 42 43  1  0  0  0  0
 43 44  1  0  0  0  0
M  END
>  <MODEL>
5

>  <REMARK>
 VINA RESULT:      -5.9      3.746      7.216
  Name = 
  17 active torsions:
  status: ('A' for Active; 'I' for Inactive)
    1  A    between atoms: C_1  and  C_29
    2  A    between atoms: C_1  and  O_31
    3  A    between atoms: C_2  and  C_24
    4  A    between atoms: C_4  and  C_5
    5  A    between atoms: C_4  and  O_31
    6  A    between atoms: C_4  and  C_35
    7  A    between atoms: C_6  and  C_26
    8  A    between atoms: N_8  and  C_18
    9  A    between atoms: N_8  and  C_22
   10  A    between atoms: C_12  and  N_37
   11  A    between atoms: C_12  and  C_38
   12  A    between atoms: C_16  and  C_17
   13  A    between atoms: C_19  and  C_29
   14  A    between atoms: C_24  and  C_43
   15  A    between atoms: C_26  and  C_35
   16  A    between atoms: C_27  and  S_44
   17  A    between atoms: C_43  and  S_44
                            x       y       z     vdW  Elec       q    Type
                         _______ _______ _______ _____ _____    ______ ____

>  <TORSDO>
F 17

$$$$
=
 OpenBabel11042418453D

 44 47  0  0  1  0  0  0  0  0999 V2000
  188.5980  175.0840  142.7730 C   0  0  1  0  0  3  0  0  0  0  0  0
  192.4820  176.4540  143.6460 C   0  0  0  0  0  3  0  0  0  0  0  0
  188.9560  175.0900  144.2600 C   0  0  2  0  0  3  0  0  0  0  0  0
  192.1870  176.0890  146.1240 C   0  0  2  0  0  3  0  0  0  0  0  0
  192.5450  176.7550  147.7350 Cl  0  0  0  0  0  0  0  0  0  0  0  0
  192.8630  176.9290  145.0290 C   0  0  1  0  0  3  0  0  0  0  0  0
  190.3450  175.5630  144.5110 C   0  0  2  0  0  0  0  0  0  0  0  0
  191.3110  175.8590  143.3950 C   0  0  0  0  0  3  0  0  0  0  0  0
  190.0200  174.1970  144.5200 O   0  0  0  0  0  0  0  0  0  0  0  0
  190.6740  176.0650  145.9150 C   0  0  0  0  0  2  0  0  0  0  0  0
  194.3140  176.8850  145.1900 N   0  0  0  0  0  2  0  0  0  0  0  0
  197.1930  174.9880  143.9290 C   0  0  1  0  0  3  0  0  0  0  0  0
  197.9010  174.1820  142.8530 C   0  0  0  0  0  1  0  0  0  0  0  0
  195.6130  174.8770  145.6200 C   0  0  0  0  0  2  0  0  0  0  0  0
  194.7940  175.6410  144.5990 C   0  0  2  0  0  3  0  0  0  0  0  0
  195.8780  175.9950  143.1820 S   0  0  0  0  0  0  0  0  0  0  0  0
  196.6040  174.0880  144.9100 N   0  0  0  0  0  2  0  0  0  0  0  0
  187.3120  173.3210  141.7500 O   0  0  0  0  0  1  0  0  0  0  0  0
  188.5810  173.6590  142.2300 C   0  0  1  0  0  3  0  0  0  0  0  0
  189.6130  173.4930  141.1290 C   0  0  0  0  0  2  0  0  0  0  0  0
  190.6410  172.4900  141.5440 C   0  0  0  0  0  0  0  0  0  0  0  0
  191.5910  170.6020  142.0020 C   0  0  0  0  0  0  0  0  0  0  0  0
  192.7150  171.5830  142.0530 C   0  0  1  0  0  3  0  0  0  0  0  0
  190.3610  171.2330  141.6730 N   0  0  0  0  0  0  0  0  0  0  0  0
  191.7030  169.3580  142.1810 O   0  0  0  0  0  0  0  0  0  0  0  0
  192.0180  172.8290  141.7450 N   0  0  0  0  0  2  0  0  0  0  0  0
  195.0420  170.0780  142.7460 O   0  0  0  0  0  1  0  0  0  0  0  0
  193.3560  171.6740  143.4100 C   0  0  0  0  0  0  0  0  0  0  0  0
  192.9640  172.5400  144.2470 O   0  0  0  0  0  0  0  0  0  0  0  0
  194.4670  170.8220  143.7230 N   0  0  0  0  0  0  0  0  0  0  0  0
  195.0490  170.8070  145.0590 C   0  0  0  0  0  2  0  0  0  0  0  0
  193.6770  168.8760  145.3190 O   0  0  0  0  0  0  0  0  0  0  0  0
  194.9570  169.4300  147.1420 O   0  0  0  0  0  1  0  0  0  0  0  0
  194.5130  169.6590  145.8450 C   0  0  0  0  0  0  0  0  0  0  0  0
  187.3520  175.6950  142.5880 O   0  0  0  0  0  0  0  0  0  0  0  0
  187.6060  177.0690  142.6460 C   0  0  0  0  0  2  0  0  0  0  0  0
  186.6760  177.8100  141.7040 C   0  0  0  0  0  2  0  0  0  0  0  0
  185.2030  178.3240  143.5930 C   0  0  0  0  0  3  0  0  0  0  0  0
  185.7930  178.7350  142.4700 C   0  0  0  0  0  3  0  0  0  0  0  0
  184.3380  179.2460  144.3920 C   0  0  0  0  0  2  0  0  0  0  0  0
  184.1070  178.6750  145.7800 C   0  0  0  0  0  2  0  0  0  0  0  0
  185.5260  179.0370  146.8500 S   0  0  0  0  0  0  0  0  0  0  0  0
  185.7810  177.2910  147.2880 C   0  0  0  0  0  2  0  0  0  0  0  0
  187.1110  176.8090  146.7390 C   0  0  0  0  0  1  0  0  0  0  0  0
  1 35  1  1  0  0  0
  2  6  1  0  0  0  0
  3  1  1  6  0  0  0
  3  7  1  0  0  0  0
  3  9  1  0  0  0  0
  4  5  1  1  0  0  0
  6 11  1  1  0  0  0
  6  4  1  0  0  0  0
  7  8  1  6  0  0  0
  7  9  1  0  0  0  0
  7 10  1  0  0  0  0
  8  2  2  0  0  0  0
 10  4  1  0  0  0  0
 12 13  1  6  0  0  0
 12 17  1  0  0  0  0
 15 11  1  1  0  0  0
 15 14  1  0  0  0  0
 16 12  1  0  0  0  0
 16 15  1  0  0  0  0
 17 14  1  0  0  0  0
 19 18  1  6  0  0  0
 19  1  1  0  0  0  0
 20 21  1  0  0  0  0
 20 19  1  0  0  0  0
 21 24  2  0  0  0  0
 21 26  1  0  0  0  0
 22 23  1  0  0  0  0
 22 25  2  0  0  0  0
 23 28  1  1  0  0  0
 24 22  1  0  0  0  0
 26 23  1  0  0  0  0
 27 30  1  0  0  0  0
 28 30  1  0  0  0  0
 28 29  2  0  0  0  0
 30 31  1  0  0  0  0
 31 34  1  0  0  0  0
 32 34  2  0  0  0  0
 34 33  1  0  0  0  0
 35 36  1  0  0  0  0
 37 39  1  0  0  0  0
 37 36  1  0  0  0  0
 38 40  1  0  0  0  0
 39 38  2  0  0  0  0
 40 41  1  0  0  0  0
 41 42  1  0  0  0  0
 42 43  1  0  0  0  0
 44 43  1  0  0  0  0
M  END
>  <MODEL>
6

>  <REMARK>
 VINA RESULT:      -5.7      3.378      5.983
  Name = 
  17 active torsions:
  status: ('A' for Active; 'I' for Inactive)
    1  A    between atoms: C_1  and  C_29
    2  A    between atoms: C_1  and  O_31
    3  A    between atoms: C_2  and  C_24
    4  A    between atoms: C_4  and  C_5
    5  A    between atoms: C_4  and  O_31
    6  A    between atoms: C_4  and  C_35
    7  A    between atoms: C_6  and  C_26
    8  A    between atoms: N_8  and  C_18
    9  A    between atoms: N_8  and  C_22
   10  A    between atoms: C_12  and  N_37
   11  A    between atoms: C_12  and  C_38
   12  A    between atoms: C_16  and  C_17
   13  A    between atoms: C_19  and  C_29
   14  A    between atoms: C_24  and  C_43
   15  A    between atoms: C_26  and  C_35
   16  A    between atoms: C_27  and  S_44
   17  A    between atoms: C_43  and  S_44
                            x       y       z     vdW  Elec       q    Type
                         _______ _______ _______ _____ _____    ______ ____

>  <TORSDO>
F 17

$$$$
=
 OpenBabel11042418453D

 44 47  0  0  1  0  0  0  0  0999 V2000
  189.5110  175.1040  146.0960 C   0  0  1  0  0  3  0  0  0  0  0  0
  189.8590  172.4400  142.8540 C   0  0  0  0  0  3  0  0  0  0  0  0
  189.1420  175.6980  144.7360 C   0  0  2  0  0  3  0  0  0  0  0  0
  189.1420  174.1870  141.1820 C   0  0  2  0  0  3  0  0  0  0  0  0
  188.1900  174.4680  139.7050 Cl  0  0  0  0  0  0  0  0  0  0  0  0
  189.1550  172.6930  141.5420 C   0  0  1  0  0  3  0  0  0  0  0  0
  189.3020  174.7220  143.6230 C   0  0  2  0  0  0  0  0  0  0  0  0
  189.8980  173.3560  143.8290 C   0  0  0  0  0  3  0  0  0  0  0  0
  190.2640  175.7130  143.8770 O   0  0  0  0  0  0  0  0  0  0  0  0
  188.5440  175.0020  142.3280 C   0  0  0  0  0  2  0  0  0  0  0  0
  189.7970  171.9280  140.4760 N   0  0  0  0  0  2  0  0  0  0  0  0
  193.1260  171.0320  139.2140 C   0  0  1  0  0  3  0  0  0  0  0  0
  194.5240  170.4670  139.4020 C   0  0  0  0  0  1  0  0  0  0  0  0
  191.8060  172.9100  139.5240 C   0  0  0  0  0  2  0  0  0  0  0  0
  191.2410  172.0540  140.6400 C   0  0  2  0  0  3  0  0  0  0  0  0
  192.0310  170.4200  140.5290 S   0  0  0  0  0  0  0  0  0  0  0  0
  193.1710  172.4860  139.2710 N   0  0  0  0  0  2  0  0  0  0  0  0
  190.6940  176.0860  147.9520 O   0  0  0  0  0  1  0  0  0  0  0  0
  190.8130  175.7090  146.6110 C   0  0  1  0  0  3  0  0  0  0  0  0
  191.9590  174.7270  146.4470 C   0  0  0  0  0  2  0  0  0  0  0  0
  193.2010  175.4580  146.0510 C   0  0  0  0  0  0  0  0  0  0  0  0
  194.6360  177.0520  145.7650 C   0  0  0  0  0  0  0  0  0  0  0  0
  195.3960  175.8230  145.3920 C   0  0  1  0  0  3  0  0  0  0  0  0
  193.3080  176.7430  146.1670 N   0  0  0  0  0  0  0  0  0  0  0  0
  195.1060  178.2230  145.7720 O   0  0  0  0  0  0  0  0  0  0  0  0
  194.3840  174.7900  145.5970 N   0  0  0  0  0  2  0  0  0  0  0  0
  197.6140  174.2630  144.4910 O   0  0  0  0  0  1  0  0  0  0  0  0
  195.8480  175.8230  143.9580 C   0  0  0  0  0  0  0  0  0  0  0  0
  195.1610  176.4080  143.0690 O   0  0  0  0  0  0  0  0  0  0  0  0
  197.0250  175.0890  143.5910 N   0  0  0  0  0  0  0  0  0  0  0  0
  197.5540  175.1480  142.2340 C   0  0  0  0  0  2  0  0  0  0  0  0
  195.8270  173.7190  141.4240 O   0  0  0  0  0  1  0  0  0  0  0  0
  197.9400  173.2360  140.6720 O   0  0  0  0  0  0  0  0  0  0  0  0
  197.0570  173.9920  141.4340 C   0  0  0  0  0  0  0  0  0  0  0  0
  188.4710  175.3310  147.0050 O   0  0  0  0  0  0  0  0  0  0  0  0
  187.6590  176.2960  146.4000 C   0  0  0  0  0  2  0  0  0  0  0  0
  186.6690  176.8480  147.4070 C   0  0  0  0  0  2  0  0  0  0  0  0
  185.3520  178.3040  145.9420 C   0  0  0  0  0  3  0  0  0  0  0  0
  185.3970  177.2290  146.7270 C   0  0  0  0  0  3  0  0  0  0  0  0
  184.0940  178.6860  145.2270 C   0  0  0  0  0  2  0  0  0  0  0  0
  184.3960  179.0120  143.7760 C   0  0  0  0  0  2  0  0  0  0  0  0
  185.2030  177.6010  142.9700 S   0  0  0  0  0  0  0  0  0  0  0  0
  184.9950  178.2930  141.3020 C   0  0  0  0  0  2  0  0  0  0  0  0
  183.5270  178.2830  140.9170 C   0  0  0  0  0  1  0  0  0  0  0  0
  1 19  1  0  0  0  0
  1 35  1  1  0  0  0
  2  8  2  0  0  0  0
  3  1  1  1  0  0  0
  4  5  1  6  0  0  0
  4  6  1  0  0  0  0
  4 10  1  0  0  0  0
  6 11  1  6  0  0  0
  6  2  1  0  0  0  0
  7 10  1  6  0  0  0
  7  8  1  0  0  0  0
  7  9  1  0  0  0  0
  7  3  1  0  0  0  0
  9  3  1  0  0  0  0
 12 17  1  0  0  0  0
 12 13  1  1  0  0  0
 12 16  1  0  0  0  0
 14 15  1  0  0  0  0
 15 11  1  6  0  0  0
 16 15  1  0  0  0  0
 17 14  1  0  0  0  0
 19 18  1  1  0  0  0
 20 19  1  0  0  0  0
 21 24  2  0  0  0  0
 21 20  1  0  0  0  0
 22 25  2  0  0  0  0
 22 24  1  0  0  0  0
 23 28  1  6  0  0  0
 23 26  1  0  0  0  0
 23 22  1  0  0  0  0
 26 21  1  0  0  0  0
 29 28  2  0  0  0  0
 30 28  1  0  0  0  0
 30 27  1  0  0  0  0
 31 30  1  0  0  0  0
 32 34  1  0  0  0  0
 33 34  2  0  0  0  0
 34 31  1  0  0  0  0
 36 35  1  0  0  0  0
 36 37  1  0  0  0  0
 38 39  2  0  0  0  0
 39 37  1  0  0  0  0
 40 38  1  0  0  0  0
 41 40  1  0  0  0  0
 42 41  1  0  0  0  0
 43 42  1  0  0  0  0
 44 43  1  0  0  0  0
M  END
>  <MODEL>
7

>  <REMARK>
 VINA RESULT:      -5.7      1.512      1.774
  Name = 
  17 active torsions:
  status: ('A' for Active; 'I' for Inactive)
    1  A    between atoms: C_1  and  C_29
    2  A    between atoms: C_1  and  O_31
    3  A    between atoms: C_2  and  C_24
    4  A    between atoms: C_4  and  C_5
    5  A    between atoms: C_4  and  O_31
    6  A    between atoms: C_4  and  C_35
    7  A    between atoms: C_6  and  C_26
    8  A    between atoms: N_8  and  C_18
    9  A    between atoms: N_8  and  C_22
   10  A    between atoms: C_12  and  N_37
   11  A    between atoms: C_12  and  C_38
   12  A    between atoms: C_16  and  C_17
   13  A    between atoms: C_19  and  C_29
   14  A    between atoms: C_24  and  C_43
   15  A    between atoms: C_26  and  C_35
   16  A    between atoms: C_27  and  S_44
   17  A    between atoms: C_43  and  S_44
                            x       y       z     vdW  Elec       q    Type
                         _______ _______ _______ _____ _____    ______ ____

>  <TORSDO>
F 17

$$$$
=
 OpenBabel11042418453D

 44 47  0  0  1  0  0  0  0  0999 V2000
  191.7660  174.9570  145.4040 C   0  0  1  0  0  3  0  0  0  0  0  0
  190.3000  174.0980  141.5520 C   0  0  0  0  0  3  0  0  0  0  0  0
  191.6570  173.4670  145.0780 C   0  0  2  0  0  3  0  0  0  0  0  0
  190.4270  171.6070  141.9260 C   0  0  2  0  0  3  0  0  0  0  0  0
  190.8220  170.0500  141.1590 Cl  0  0  0  0  0  0  0  0  0  0  0  0
  190.5180  172.7500  140.9040 C   0  0  1  0  0  3  0  0  0  0  0  0
  191.1150  173.2180  143.7140 C   0  0  2  0  0  0  0  0  0  0  0  0
  190.6070  174.3280  142.8330 C   0  0  0  0  0  3  0  0  0  0  0  0
  190.3100  173.1010  144.8580 O   0  0  0  0  0  0  0  0  0  0  0  0
  191.3900  171.8550  143.0850 C   0  0  0  0  0  2  0  0  0  0  0  0
  189.5420  172.5470  139.8370 N   0  0  0  0  0  2  0  0  0  0  0  0
  189.6520  173.9670  136.4530 C   0  0  1  0  0  3  0  0  0  0  0  0
  190.2310  174.9120  135.4130 C   0  0  0  0  0  1  0  0  0  0  0  0
  188.2060  173.8230  138.2580 C   0  0  0  0  0  2  0  0  0  0  0  0
  189.5170  173.7520  139.0160 C   0  0  2  0  0  3  0  0  0  0  0  0
  190.8570  173.7040  137.7870 S   0  0  0  0  0  0  0  0  0  0  0  0
  188.4370  174.5380  137.0160 N   0  0  0  0  0  2  0  0  0  0  0  0
  190.7920  175.2440  147.5900 O   0  0  0  0  0  1  0  0  0  0  0  0
  190.5630  175.4170  146.2220 C   0  0  1  0  0  3  0  0  0  0  0  0
  190.2430  176.8720  145.9290 C   0  0  0  0  0  2  0  0  0  0  0  0
  188.7650  177.0860  145.9780 C   0  0  0  0  0  0  0  0  0  0  0  0
  186.7050  177.0040  146.6330 C   0  0  0  0  0  0  0  0  0  0  0  0
  186.6820  178.0030  145.5240 C   0  0  1  0  0  3  0  0  0  0  0  0
  188.0150  176.5000  146.8560 N   0  0  0  0  0  0  0  0  0  0  0  0
  185.7070  176.6670  147.3280 O   0  0  0  0  0  0  0  0  0  0  0  0
  188.0860  178.0120  145.1210 N   0  0  0  0  0  2  0  0  0  0  0  0
  185.1560  179.8720  143.9940 O   0  0  0  0  0  1  0  0  0  0  0  0
  185.8180  177.5800  144.3690 C   0  0  0  0  0  0  0  0  0  0  0  0
  185.8560  176.3880  143.9420 O   0  0  0  0  0  0  0  0  0  0  0  0
  185.0060  178.5560  143.7010 N   0  0  0  0  0  0  0  0  0  0  0  0
  184.0790  178.1690  142.6460 C   0  0  0  0  0  2  0  0  0  0  0  0
  185.9580  178.5800  141.2390 O   0  0  0  0  0  1  0  0  0  0  0  0
  184.0180  178.0120  140.1530 O   0  0  0  0  0  0  0  0  0  0  0  0
  184.7370  178.2770  141.3130 C   0  0  0  0  0  0  0  0  0  0  0  0
  192.9550  175.1990  146.1020 O   0  0  0  0  0  0  0  0  0  0  0  0
  193.9380  175.3340  145.1160 C   0  0  0  0  0  2  0  0  0  0  0  0
  195.3080  175.0640  145.7080 C   0  0  0  0  0  2  0  0  0  0  0  0
  196.8550  175.3350  143.8270 C   0  0  0  0  0  3  0  0  0  0  0  0
  196.2220  174.5140  144.6650 C   0  0  0  0  0  3  0  0  0  0  0  0
  197.7990  174.8050  142.7940 C   0  0  0  0  0  2  0  0  0  0  0  0
  197.3140  175.1740  141.4040 C   0  0  0  0  0  2  0  0  0  0  0  0
  196.0740  176.4940  141.5020 S   0  0  0  0  0  0  0  0  0  0  0  0
  194.8520  175.5700  140.5220 C   0  0  0  0  0  2  0  0  0  0  0  0
  194.5180  174.2610  141.2120 C   0  0  0  0  0  1  0  0  0  0  0  0
  1 35  1  1  0  0  0
  1 19  1  0  0  0  0
  2  8  2  0  0  0  0
  3  1  1  6  0  0  0
  4  5  1  6  0  0  0
  4 10  1  0  0  0  0
  6 11  1  6  0  0  0
  6  2  1  0  0  0  0
  6  4  1  0  0  0  0
  7  8  1  6  0  0  0
  7  9  1  0  0  0  0
  7  3  1  0  0  0  0
  9  3  1  0  0  0  0
 10  7  1  0  0  0  0
 12 13  1  6  0  0  0
 12 17  1  0  0  0  0
 12 16  1  0  0  0  0
 14 15  1  0  0  0  0
 15 11  1  6  0  0  0
 16 15  1  0  0  0  0
 17 14  1  0  0  0  0
 19 18  1  1  0  0  0
 20 21  1  0  0  0  0
 20 19  1  0  0  0  0
 21 24  2  0  0  0  0
 22 24  1  0  0  0  0
 22 25  2  0  0  0  0
 23 28  1  6  0  0  0
 23 22  1  0  0  0  0
 26 23  1  0  0  0  0
 26 21  1  0  0  0  0
 29 28  2  0  0  0  0
 30 27  1  0  0  0  0
 30 28  1  0  0  0  0
 31 30  1  0  0  0  0
 32 34  1  0  0  0  0
 33 34  2  0  0  0  0
 34 31  1  0  0  0  0
 36 37  1  0  0  0  0
 36 35  1  0  0  0  0
 38 39  2  0  0  0  0
 39 37  1  0  0  0  0
 40 38  1  0  0  0  0
 41 42  1  0  0  0  0
 41 40  1  0  0  0  0
 43 44  1  0  0  0  0
 43 42  1  0  0  0  0
M  END
>  <MODEL>
8

>  <REMARK>
 VINA RESULT:      -5.7      3.849      7.855
  Name = 
  17 active torsions:
  status: ('A' for Active; 'I' for Inactive)
    1  A    between atoms: C_1  and  C_29
    2  A    between atoms: C_1  and  O_31
    3  A    between atoms: C_2  and  C_24
    4  A    between atoms: C_4  and  C_5
    5  A    between atoms: C_4  and  O_31
    6  A    between atoms: C_4  and  C_35
    7  A    between atoms: C_6  and  C_26
    8  A    between atoms: N_8  and  C_18
    9  A    between atoms: N_8  and  C_22
   10  A    between atoms: C_12  and  N_37
   11  A    between atoms: C_12  and  C_38
   12  A    between atoms: C_16  and  C_17
   13  A    between atoms: C_19  and  C_29
   14  A    between atoms: C_24  and  C_43
   15  A    between atoms: C_26  and  C_35
   16  A    between atoms: C_27  and  S_44
   17  A    between atoms: C_43  and  S_44
                            x       y       z     vdW  Elec       q    Type
                         _______ _______ _______ _____ _____    ______ ____

>  <TORSDO>
F 17

$$$$
=
 OpenBabel11042418453D

 44 47  0  0  1  0  0  0  0  0999 V2000
  194.3600  175.6770  144.3610 C   0  0  1  0  0  3  0  0  0  0  0  0
  191.9430  174.1610  141.2650 C   0  0  0  0  0  3  0  0  0  0  0  0
  194.3930  174.1560  144.2100 C   0  0  2  0  0  3  0  0  0  0  0  0
  192.5670  171.7730  141.7810 C   0  0  2  0  0  3  0  0  0  0  0  0
  192.9490  170.1920  141.0580 Cl  0  0  0  0  0  0  0  0  0  0  0  0
  192.1610  172.7800  140.6940 C   0  0  1  0  0  3  0  0  0  0  0  0
  193.5070  173.6710  143.1160 C   0  0  2  0  0  0  0  0  0  0  0  0
  192.5860  174.5890  142.3570 C   0  0  0  0  0  3  0  0  0  0  0  0
  193.1180  173.6020  144.4630 O   0  0  0  0  0  0  0  0  0  0  0  0
  193.7870  172.2830  142.5460 C   0  0  0  0  0  2  0  0  0  0  0  0
  190.9510  172.3240  140.0160 N   0  0  0  0  0  2  0  0  0  0  0  0
  189.1280  173.7430  137.1630 C   0  0  1  0  0  3  0  0  0  0  0  0
  188.9280  174.8040  136.0930 C   0  0  0  0  0  1  0  0  0  0  0  0
  188.7910  173.2530  139.4020 C   0  0  0  0  0  2  0  0  0  0  0  0
  190.2870  173.4920  139.4490 C   0  0  2  0  0  3  0  0  0  0  0  0
  190.8500  173.7690  137.7420 S   0  0  0  0  0  0  0  0  0  0  0  0
  188.2440  174.0080  138.2890 N   0  0  0  0  0  2  0  0  0  0  0  0
  194.2270  176.7300  146.5250 O   0  0  0  0  0  1  0  0  0  0  0  0
  193.4790  176.0810  145.5380 C   0  0  1  0  0  3  0  0  0  0  0  0
  192.3440  176.9770  145.0730 C   0  0  0  0  0  2  0  0  0  0  0  0
  191.0840  176.6130  145.7890 C   0  0  0  0  0  0  0  0  0  0  0  0
  189.6410  175.5040  146.9580 C   0  0  0  0  0  0  0  0  0  0  0  0
  189.0170  176.8530  146.8160 C   0  0  1  0  0  3  0  0  0  0  0  0
  190.9060  175.4430  146.3140 N   0  0  0  0  0  0  0  0  0  0  0  0
  189.1450  174.5390  147.6020 O   0  0  0  0  0  0  0  0  0  0  0  0
  190.0240  177.5490  146.0200 N   0  0  0  0  0  2  0  0  0  0  0  0
  186.6670  178.1340  147.8150 O   0  0  0  0  0  1  0  0  0  0  0  0
  187.7090  176.8220  146.0770 C   0  0  0  0  0  0  0  0  0  0  0  0
  187.6460  176.3450  144.9040 O   0  0  0  0  0  0  0  0  0  0  0  0
  186.5450  177.4060  146.6780 N   0  0  0  0  0  0  0  0  0  0  0  0
  185.2380  177.3050  146.0400 C   0  0  0  0  0  2  0  0  0  0  0  0
  183.6210  179.0310  145.7480 O   0  0  0  0  0  1  0  0  0  0  0  0
  185.6980  179.4690  144.8770 O   0  0  0  0  0  0  0  0  0  0  0  0
  184.8010  178.6400  145.5410 C   0  0  0  0  0  0  0  0  0  0  0  0
  195.6630  176.1590  144.5360 O   0  0  0  0  0  0  0  0  0  0  0  0
  196.3910  175.6490  143.4550 C   0  0  0  0  0  2  0  0  0  0  0  0
  196.4880  176.6900  142.3560 C   0  0  0  0  0  2  0  0  0  0  0  0
  195.6260  175.3110  140.5240 C   0  0  0  0  0  3  0  0  0  0  0  0
  196.6300  176.0270  141.0280 C   0  0  0  0  0  3  0  0  0  0  0  0
  195.7390  174.6630  139.1800 C   0  0  0  0  0  2  0  0  0  0  0  0
  194.4160  174.7590  138.4400 C   0  0  0  0  0  2  0  0  0  0  0  0
  194.7000  174.7830  136.6490 S   0  0  0  0  0  0  0  0  0  0  0  0
  196.5040  174.9290  136.8250 C   0  0  0  0  0  2  0  0  0  0  0  0
  197.0240  176.0350  135.9260 C   0  0  0  0  0  1  0  0  0  0  0  0
  1 35  1  1  0  0  0
  1 19  1  0  0  0  0
  2  8  2  0  0  0  0
  3  1  1  6  0  0  0
  3  9  1  0  0  0  0
  4  5  1  6  0  0  0
  4 10  1  0  0  0  0
  6 11  1  1  0  0  0
  6  2  1  0  0  0  0
  6  4  1  0  0  0  0
  7  8  1  6  0  0  0
  7  3  1  0  0  0  0
  7  9  1  0  0  0  0
 10  7  1  0  0  0  0
 12 13  1  6  0  0  0
 12 16  1  0  0  0  0
 12 17  1  0  0  0  0
 14 15  1  0  0  0  0
 15 11  1  6  0  0  0
 16 15  1  0  0  0  0
 17 14  1  0  0  0  0
 19 18  1  1  0  0  0
 20 19  1  0  0  0  0
 20 21  1  0  0  0  0
 21 26  1  0  0  0  0
 21 24  2  0  0  0  0
 22 25  2  0  0  0  0
 23 28  1  6  0  0  0
 23 22  1  0  0  0  0
 24 22  1  0  0  0  0
 26 23  1  0  0  0  0
 28 30  1  0  0  0  0
 29 28  2  0  0  0  0
 30 27  1  0  0  0  0
 31 30  1  0  0  0  0
 33 34  2  0  0  0  0
 34 32  1  0  0  0  0
 34 31  1  0  0  0  0
 36 35  1  0  0  0  0
 37 36  1  0  0  0  0
 38 39  2  0  0  0  0
 39 37  1  0  0  0  0
 40 38  1  0  0  0  0
 41 40  1  0  0  0  0
 42 43  1  0  0  0  0
 42 41  1  0  0  0  0
 44 43  1  0  0  0  0
M  END
>  <MODEL>
9

>  <REMARK>
 VINA RESULT:      -5.7      3.412      8.065
  Name = 
  17 active torsions:
  status: ('A' for Active; 'I' for Inactive)
    1  A    between atoms: C_1  and  C_29
    2  A    between atoms: C_1  and  O_31
    3  A    between atoms: C_2  and  C_24
    4  A    between atoms: C_4  and  C_5
    5  A    between atoms: C_4  and  O_31
    6  A    between atoms: C_4  and  C_35
    7  A    between atoms: C_6  and  C_26
    8  A    between atoms: N_8  and  C_18
    9  A    between atoms: N_8  and  C_22
   10  A    between atoms: C_12  and  N_37
   11  A    between atoms: C_12  and  C_38
   12  A    between atoms: C_16  and  C_17
   13  A    between atoms: C_19  and  C_29
   14  A    between atoms: C_24  and  C_43
   15  A    between atoms: C_26  and  C_35
   16  A    between atoms: C_27  and  S_44
   17  A    between atoms: C_43  and  S_44
                            x       y       z     vdW  Elec       q    Type
                         _______ _______ _______ _____ _____    ______ ____

>  <TORSDO>
F 17

$$$$
