=
 OpenBabel11042416333D

 62 66  0  0  1  0  0  0  0  0999 V2000
  193.8520  174.6650  142.7210 C   0  0  0  0  0  0  0  0  0  0  0  0
  193.1560  173.3770  143.5550 S   0  0  0  0  0  0  0  0  0  0  0  0
  191.6310  174.0830  143.6920 C   0  0  0  0  0  0  0  0  0  0  0  0
  189.2370  174.3190  144.0870 N   0  0  0  0  0  0  0  0  0  0  0  0
  190.4870  176.2610  143.2240 C   0  0  0  0  0  2  0  0  0  0  0  0
  193.1730  176.8960  142.0700 F   0  0  0  0  0  0  0  0  0  0  0  0
  192.9080  175.6830  142.6020 C   0  0  0  0  0  0  0  0  0  0  0  0
  191.6640  175.3450  143.1330 C   0  0  0  0  0  0  0  0  0  0  0  0
  190.4530  173.6030  144.4840 C   0  0  1  0  0  3  0  0  0  0  0  0
  189.2150  175.5070  143.5400 C   0  0  0  0  0  0  0  0  0  0  0  0
  195.2950  174.7280  142.3550 C   0  0  0  0  0  2  0  0  0  0  0  0
  197.0640  176.1760  142.2060 N   0  0  0  0  0  1  0  0  0  0  0  0
  195.9720  175.8390  143.0160 N   0  0  0  0  0  0  0  0  0  0  0  0
  196.5140  175.3660  144.2940 C   0  0  0  0  0  3  0  0  0  0  0  0
  196.6980  173.9750  144.2620 O   0  0  0  0  0  0  0  0  0  0  0  0
  197.9410  173.7570  144.8710 C   0  0  0  0  0  1  0  0  0  0  0  0
  195.6290  175.6900  145.3300 O   0  0  0  0  0  0  0  0  0  0  0  0
  195.2820  177.0250  145.0990 C   0  0  0  0  0  1  0  0  0  0  0  0
  190.2370  172.1070  144.3140 C   0  0  0  0  0  2  0  0  0  0  0  0
  190.6680  171.6110  142.6350 S   0  0  0  0  0  0  0  0  0  0  0  0
  188.2310  171.8940  141.8450 F   0  0  0  0  0  0  0  0  0  0  0  0
  189.5290  172.2970  141.7240 C   0  0  2  0  0  3  0  0  0  0  0  0
  189.9220  173.2790  140.6690 C   0  0  0  0  0  2  0  0  0  0  0  0
  189.4000  172.8590  139.3320 C   0  0  0  0  0  0  0  0  0  0  0  0
  190.2630  172.2250  138.3710 N   0  0  0  0  0  0  0  0  0  0  0  0
  188.1740  173.0260  139.0760 O   0  0  0  0  0  0  0  0  0  0  0  0
  189.6680  171.4090  137.3110 C   0  0  1  0  0  3  0  0  0  0  0  0
  189.6140  172.1740  136.0040 C   0  0  0  0  0  1  0  0  0  0  0  0
  190.4060  170.0860  137.1210 C   0  0  0  0  0  2  0  0  0  0  0  0
  190.9060  169.9380  135.6940 C   0  0  0  0  0  2  0  0  0  0  0  0
  192.2960  169.8620  135.6860 O   0  0  0  0  0  1  0  0  0  0  0  0
  191.7170  172.3510  138.5180 C   0  0  0  0  0  2  0  0  0  0  0  0
  194.5870  173.4820  137.4160 C   0  0  1  0  0  3  0  0  0  0  0  0
  193.1870  173.4270  136.8300 C   0  0  0  0  0  2  0  0  0  0  0  0
  193.0120  174.4320  139.0310 C   0  0  0  0  0  2  0  0  0  0  0  0
  192.2230  173.6820  137.9690 C   0  0  2  0  0  3  0  0  0  0  0  0
  194.4850  174.3000  138.6860 C   0  0  0  0  0  2  0  0  0  0  0  0
  195.0390  172.1380  137.7510 N   0  0  0  0  0  2  0  0  0  0  0  0
  196.4090  171.7290  137.6560 C   0  0  0  0  0  0  0  0  0  0  0  0
  197.2820  172.5110  137.1970 O   0  0  0  0  0  0  0  0  0  0  0  0
  196.8070  170.3800  138.1400 C   0  0  0  0  0  2  0  0  0  0  0  0
  195.5950  169.6200  138.6600 C   0  0  0  0  0  2  0  0  0  0  0  0
  195.1020  168.7030  137.6380 N   0  0  0  0  0  1  0  0  0  0  0  0
  187.9990  176.1130  143.2270 O   0  0  0  0  0  0  0  0  0  0  0  0
  185.9650  178.5170  142.5150 C   0  0  1  0  0  3  0  0  0  0  0  0
  187.9090  177.2990  142.4480 C   0  0  1  0  0  3  0  0  0  0  0  0
  187.1450  177.0230  141.2180 C   0  0  0  0  0  0  0  0  0  0  0  0
  187.2000  178.2800  143.1760 O   0  0  0  0  0  0  0  0  0  0  0  0
  187.5860  176.2860  140.2030 C   0  0  0  0  0  2  0  0  0  0  0  0
  185.8930  177.7690  141.1960 C   0  0  0  0  0  2  0  0  0  0  0  0
  184.7720  178.1770  143.4210 C   0  0  1  0  0  3  0  0  0  0  0  0
  185.9530  178.0790  147.5570 C   0  0  0  0  0  3  0  0  0  0  0  0
  185.8080  176.8870  146.8380 C   0  0  0  0  0  3  0  0  0  0  0  0
  185.6970  179.3070  146.9410 C   0  0  0  0  0  3  0  0  0  0  0  0
  185.2950  179.3450  145.6050 C   0  0  0  0  0  3  0  0  0  0  0  0
  185.1390  178.1530  144.8790 C   0  0  0  0  0  0  0  0  0  0  0  0
  185.4060  176.9250  145.5010 C   0  0  0  0  0  3  0  0  0  0  0  0
  183.7270  179.0770  143.1870 O   0  0  0  0  0  0  0  0  0  0  0  0
  182.6810  178.2870  142.7040 C   0  0  0  0  0  2  0  0  0  0  0  0
  182.2660  177.9610  140.4310 C   0  0  0  0  0  1  0  0  0  0  0  0
  180.6800  179.0360  141.7550 C   0  0  0  0  0  1  0  0  0  0  0  0
  182.1070  178.9090  141.5200 N   0  0  0  0  0  0  0  0  0  0  0  0
  1  2  1  0  0  0  0
  2  3  1  0  0  0  0
  3  9  1  0  0  0  0
  4  9  1  0  0  0  0
  5 10  1  0  0  0  0
  6  7  1  0  0  0  0
  7  1  2  0  0  0  0
  7  8  1  0  0  0  0
  8  5  1  0  0  0  0
  8  3  2  0  0  0  0
  9 19  1  6  0  0  0
 10  4  2  0  0  0  0
 11  1  1  0  0  0  0
 11 13  1  0  0  0  0
 12 13  1  0  0  0  0
 13 14  1  0  0  0  0
 14 17  1  0  0  0  0
 15 14  1  0  0  0  0
 15 16  1  0  0  0  0
 18 17  1  0  0  0  0
 20 19  1  0  0  0  0
 22 21  1  6  0  0  0
 22 20  1  0  0  0  0
 23 22  1  0  0  0  0
 24 23  1  0  0  0  0
 25 32  1  0  0  0  0
 25 24  1  0  0  0  0
 26 24  2  0  0  0  0
 27 28  1  6  0  0  0
 27 25  1  0  0  0  0
 29 27  1  0  0  0  0
 30 29  1  0  0  0  0
 31 30  1  0  0  0  0
 33 38  1  1  0  0  0
 33 37  1  0  0  0  0
 34 33  1  0  0  0  0
 34 36  1  0  0  0  0
 36 32  1  1  0  0  0
 36 35  1  0  0  0  0
 37 35  1  0  0  0  0
 39 38  1  0  0  0  0
 39 41  1  0  0  0  0
 40 39  2  0  0  0  0
 41 42  1  0  0  0  0
 43 42  1  0  0  0  0
 44 10  1  0  0  0  0
 45 48  1  0  0  0  0
 45 51  1  1  0  0  0
 46 48  1  0  0  0  0
 46 44  1  1  0  0  0
 47 46  1  0  0  0  0
 49 47  2  0  0  0  0
 50 47  1  0  0  0  0
 50 45  1  0  0  0  0
 51 58  1  1  0  0  0
 51 56  1  0  0  0  0
 53 52  2  0  0  0  0
 54 52  1  0  0  0  0
 55 54  2  0  0  0  0
 56 57  2  0  0  0  0
 56 55  1  0  0  0  0
 57 53  1  0  0  0  0
 59 58  1  0  0  0  0
 60 62  1  0  0  0  0
 62 61  1  0  0  0  0
 62 59  1  0  0  0  0
M  END
>  <MODEL>
1

>  <REMARK>
 VINA RESULT:      -5.6      0.000      0.000
  Name = 
  24 active torsions:
  status: ('A' for Active; 'I' for Inactive)
    1  A    between atoms: C_1  and  C_24
    2  A    between atoms: C_2  and  N_8
    3  A    between atoms: C_3  and  C_11
    4  A    between atoms: O_6  and  C_10
    5  A    between atoms: C_7  and  C_57
    6  A    between atoms: C_10  and  O_20
    7  A    between atoms: C_10  and  N_59
    8  A    between atoms: C_11  and  C_55
    9  A    between atoms: N_12  and  C_19
   10  A    between atoms: N_12  and  C_61
   11  A    between atoms: C_16  and  C_44
   12  A    between atoms: C_19  and  C_35
   13  A    between atoms: C_24  and  N_59
   14  A    between atoms: C_25  and  C_47
   15  A    between atoms: O_27  and  C_28
   16  A    between atoms: O_27  and  C_47
   17  A    between atoms: C_28  and  N_42
   18  A    between atoms: C_30  and  O_48
   19  A    between atoms: C_36  and  C_47
   20  A    between atoms: C_37  and  S_45
   21  A    between atoms: C_37  and  C_58
   22  A    between atoms: C_44  and  C_49
   23  A    between atoms: O_48  and  C_60
   24  A    between atoms: C_57  and  C_61
                            x       y       z     vdW  Elec       q    Type
                         _______ _______ _______ _____ _____    ______ ____

>  <TORSDO>
F 24

$$$$
=
 OpenBabel11042416333D

 62 66  0  0  1  0  0  0  0  0999 V2000
  193.1280  175.2080  143.5580 C   0  0  0  0  0  0  0  0  0  0  0  0
  192.6610  173.6800  143.0230 S   0  0  0  0  0  0  0  0  0  0  0  0
  191.0530  174.0970  142.7350 C   0  0  0  0  0  0  0  0  0  0  0  0
  188.7620  173.9780  141.9090 N   0  0  0  0  0  0  0  0  0  0  0  0
  189.4910  176.0240  143.0760 C   0  0  0  0  0  2  0  0  0  0  0  0
  192.0150  177.3030  144.0460 F   0  0  0  0  0  0  0  0  0  0  0  0
  192.0070  176.0370  143.5750 C   0  0  0  0  0  0  0  0  0  0  0  0
  190.8540  175.4140  143.0980 C   0  0  0  0  0  0  0  0  0  0  0  0
  189.9090  173.1960  142.3820 C   0  0  1  0  0  3  0  0  0  0  0  0
  188.5380  175.2310  142.2110 C   0  0  0  0  0  0  0  0  0  0  0  0
  194.4850  175.5180  144.0880 C   0  0  0  0  0  2  0  0  0  0  0  0
  194.6440  175.8050  146.3550 N   0  0  0  0  0  1  0  0  0  0  0  0
  194.7410  174.8330  145.3510 N   0  0  0  0  0  0  0  0  0  0  0  0
  196.1250  174.3510  145.3520 C   0  0  0  0  0  3  0  0  0  0  0  0
  196.5810  174.1680  144.0380 O   0  0  0  0  0  0  0  0  0  0  0  0
  197.9410  174.5020  144.0730 C   0  0  0  0  0  1  0  0  0  0  0  0
  196.1990  173.1320  146.0390 O   0  0  0  0  0  0  0  0  0  0  0  0
  195.1790  172.3490  145.4880 C   0  0  0  0  0  1  0  0  0  0  0  0
  190.3030  172.1830  141.3190 C   0  0  0  0  0  2  0  0  0  0  0  0
  191.6160  172.8560  140.2840 S   0  0  0  0  0  0  0  0  0  0  0  0
  192.9940  170.6880  140.4900 F   0  0  0  0  0  0  0  0  0  0  0  0
  192.3310  171.5500  139.6660 C   0  0  2  0  0  3  0  0  0  0  0  0
  192.3670  171.3630  138.1850 C   0  0  0  0  0  2  0  0  0  0  0  0
  191.2040  172.0440  137.5350 C   0  0  0  0  0  0  0  0  0  0  0  0
  191.3800  173.2840  136.8260 N   0  0  0  0  0  0  0  0  0  0  0  0
  190.0700  171.4880  137.5760 O   0  0  0  0  0  0  0  0  0  0  0  0
  190.3890  173.6750  135.8220 C   0  0  1  0  0  3  0  0  0  0  0  0
  189.9340  172.4740  135.0150 C   0  0  0  0  0  1  0  0  0  0  0  0
  189.1870  174.3800  136.4450 C   0  0  0  0  0  2  0  0  0  0  0  0
  188.6500  175.4630  135.5260 C   0  0  0  0  0  2  0  0  0  0  0  0
  187.3440  175.7840  135.8850 O   0  0  0  0  0  1  0  0  0  0  0  0
  192.5810  174.0880  137.0730 C   0  0  0  0  0  2  0  0  0  0  0  0
  195.7650  174.1950  136.3120 C   0  0  1  0  0  3  0  0  0  0  0  0
  194.5910  173.3820  135.7970 C   0  0  0  0  0  2  0  0  0  0  0  0
  193.9370  175.7170  135.7390 C   0  0  0  0  0  2  0  0  0  0  0  0
  193.3870  174.3000  135.7950 C   0  0  2  0  0  3  0  0  0  0  0  0
  195.4180  175.6480  136.0670 C   0  0  0  0  0  2  0  0  0  0  0  0
  195.9290  173.9800  137.7440 N   0  0  0  0  0  2  0  0  0  0  0  0
  197.0210  174.5250  138.4950 C   0  0  0  0  0  0  0  0  0  0  0  0
  197.9410  175.1620  137.9190 O   0  0  0  0  0  0  0  0  0  0  0  0
  197.0440  174.3680  139.9740 C   0  0  0  0  0  2  0  0  0  0  0  0
  197.2770  175.7110  140.6510 C   0  0  0  0  0  2  0  0  0  0  0  0
  196.0030  176.3880  140.8710 N   0  0  0  0  0  1  0  0  0  0  0  0
  187.3980  175.8750  141.7300 O   0  0  0  0  0  0  0  0  0  0  0  0
  185.6630  178.5760  142.0660 C   0  0  1  0  0  3  0  0  0  0  0  0
  187.3910  177.2450  141.3520 C   0  0  1  0  0  3  0  0  0  0  0  0
  186.4600  177.4410  140.2270 C   0  0  0  0  0  0  0  0  0  0  0  0
  186.9180  178.0220  142.4330 O   0  0  0  0  0  0  0  0  0  0  0  0
  186.6720  177.0110  138.9860 C   0  0  0  0  0  2  0  0  0  0  0  0
  185.3340  178.2820  140.6130 C   0  0  0  0  0  2  0  0  0  0  0  0
  184.5450  178.0990  143.0040 C   0  0  1  0  0  3  0  0  0  0  0  0
  185.9410  177.8780  147.0680 C   0  0  0  0  0  3  0  0  0  0  0  0
  186.0750  176.7750  146.2170 C   0  0  0  0  0  3  0  0  0  0  0  0
  185.3360  179.0520  146.6080 C   0  0  0  0  0  3  0  0  0  0  0  0
  184.8640  179.1230  145.2970 C   0  0  0  0  0  3  0  0  0  0  0  0
  184.9870  178.0170  144.4390 C   0  0  0  0  0  0  0  0  0  0  0  0
  185.6020  176.8470  144.9050 C   0  0  0  0  0  3  0  0  0  0  0  0
  183.4290  178.9320  142.8750 O   0  0  0  0  0  0  0  0  0  0  0  0
  182.4770  178.1490  142.2150 C   0  0  0  0  0  2  0  0  0  0  0  0
  181.1630  178.2480  140.2890 C   0  0  0  0  0  1  0  0  0  0  0  0
  180.3970  179.2150  142.2650 C   0  0  0  0  0  1  0  0  0  0  0  0
  181.5830  179.0090  141.4540 N   0  0  0  0  0  0  0  0  0  0  0  0
  1  7  2  0  0  0  0
  1 11  1  0  0  0  0
  2  1  1  0  0  0  0
  3  2  1  0  0  0  0
  3  8  2  0  0  0  0
  4 10  2  0  0  0  0
  4  9  1  0  0  0  0
  5  8  1  0  0  0  0
  7  6  1  0  0  0  0
  8  7  1  0  0  0  0
  9 19  1  6  0  0  0
  9  3  1  0  0  0  0
 10  5  1  0  0  0  0
 11 13  1  0  0  0  0
 13 14  1  0  0  0  0
 13 12  1  0  0  0  0
 14 17  1  0  0  0  0
 15 16  1  0  0  0  0
 15 14  1  0  0  0  0
 18 17  1  0  0  0  0
 20 19  1  0  0  0  0
 22 20  1  0  0  0  0
 22 21  1  6  0  0  0
 23 22  1  0  0  0  0
 24 26  2  0  0  0  0
 24 23  1  0  0  0  0
 25 32  1  0  0  0  0
 25 24  1  0  0  0  0
 27 28  1  1  0  0  0
 27 29  1  0  0  0  0
 27 25  1  0  0  0  0
 30 31  1  0  0  0  0
 30 29  1  0  0  0  0
 33 38  1  1  0  0  0
 34 33  1  0  0  0  0
 35 36  1  0  0  0  0
 35 37  1  0  0  0  0
 36 34  1  0  0  0  0
 36 32  1  1  0  0  0
 37 33  1  0  0  0  0
 38 39  1  0  0  0  0
 39 41  1  0  0  0  0
 40 39  2  0  0  0  0
 41 42  1  0  0  0  0
 42 43  1  0  0  0  0
 44 10  1  0  0  0  0
 45 48  1  0  0  0  0
 45 51  1  1  0  0  0
 46 44  1  1  0  0  0
 46 48  1  0  0  0  0
 47 50  1  0  0  0  0
 47 46  1  0  0  0  0
 49 47  2  0  0  0  0
 50 45  1  0  0  0  0
 51 58  1  1  0  0  0
 51 56  1  0  0  0  0
 53 52  2  0  0  0  0
 54 52  1  0  0  0  0
 55 54  2  0  0  0  0
 56 57  2  0  0  0  0
 56 55  1  0  0  0  0
 57 53  1  0  0  0  0
 59 58  1  0  0  0  0
 60 62  1  0  0  0  0
 62 59  1  0  0  0  0
 62 61  1  0  0  0  0
M  END
>  <MODEL>
2

>  <REMARK>
 VINA RESULT:      -5.4      1.977      2.898
  Name = 
  24 active torsions:
  status: ('A' for Active; 'I' for Inactive)
    1  A    between atoms: C_1  and  C_24
    2  A    between atoms: C_2  and  N_8
    3  A    between atoms: C_3  and  C_11
    4  A    between atoms: O_6  and  C_10
    5  A    between atoms: C_7  and  C_57
    6  A    between atoms: C_10  and  O_20
    7  A    between atoms: C_10  and  N_59
    8  A    between atoms: C_11  and  C_55
    9  A    between atoms: N_12  and  C_19
   10  A    between atoms: N_12  and  C_61
   11  A    between atoms: C_16  and  C_44
   12  A    between atoms: C_19  and  C_35
   13  A    between atoms: C_24  and  N_59
   14  A    between atoms: C_25  and  C_47
   15  A    between atoms: O_27  and  C_28
   16  A    between atoms: O_27  and  C_47
   17  A    between atoms: C_28  and  N_42
   18  A    between atoms: C_30  and  O_48
   19  A    between atoms: C_36  and  C_47
   20  A    between atoms: C_37  and  S_45
   21  A    between atoms: C_37  and  C_58
   22  A    between atoms: C_44  and  C_49
   23  A    between atoms: O_48  and  C_60
   24  A    between atoms: C_57  and  C_61
                            x       y       z     vdW  Elec       q    Type
                         _______ _______ _______ _____ _____    ______ ____

>  <TORSDO>
F 24

$$$$
=
 OpenBabel11042416333D

 62 66  0  0  1  0  0  0  0  0999 V2000
  189.5460  176.0710  144.5920 C   0  0  0  0  0  0  0  0  0  0  0  0
  189.2150  174.6940  143.6790 S   0  0  0  0  0  0  0  0  0  0  0  0
  190.7660  174.0470  143.7990 C   0  0  0  0  0  0  0  0  0  0  0  0
  192.6000  172.4430  143.6980 N   0  0  0  0  0  0  0  0  0  0  0  0
  193.0330  174.6700  144.6630 C   0  0  0  0  0  2  0  0  0  0  0  0
  191.5110  177.0720  145.5930 F   0  0  0  0  0  0  0  0  0  0  0  0
  190.8960  176.0610  144.9410 C   0  0  0  0  0  0  0  0  0  0  0  0
  191.5680  174.9180  144.5090 C   0  0  0  0  0  0  0  0  0  0  0  0
  191.3350  172.8590  143.0840 C   0  0  1  0  0  3  0  0  0  0  0  0
  193.3860  173.2250  144.3930 C   0  0  0  0  0  0  0  0  0  0  0  0
  188.5690  177.1750  144.8050 C   0  0  0  0  0  2  0  0  0  0  0  0
  188.1180  178.0820  142.7510 N   0  0  0  0  0  1  0  0  0  0  0  0
  187.5820  177.2380  143.7320 N   0  0  0  0  0  0  0  0  0  0  0  0
  186.3710  177.8870  144.2430 C   0  0  0  0  0  3  0  0  0  0  0  0
  186.2430  177.6660  145.6230 O   0  0  0  0  0  0  0  0  0  0  0  0
  185.8040  178.8870  146.1490 C   0  0  0  0  0  1  0  0  0  0  0  0
  185.2470  177.3690  143.5880 O   0  0  0  0  0  0  0  0  0  0  0  0
  184.6770  178.4660  142.9330 C   0  0  0  0  0  1  0  0  0  0  0  0
  190.3640  171.6890  143.0830 C   0  0  0  0  0  2  0  0  0  0  0  0
  190.2740  170.9680  141.4340 S   0  0  0  0  0  0  0  0  0  0  0  0
  188.9090  172.9690  140.5520 F   0  0  0  0  0  0  0  0  0  0  0  0
  190.0590  172.2390  140.4660 C   0  0  2  0  0  3  0  0  0  0  0  0
  191.0660  172.5320  139.4020 C   0  0  0  0  0  2  0  0  0  0  0  0
  190.6750  171.8880  138.1100 C   0  0  0  0  0  0  0  0  0  0  0  0
  191.6130  171.7890  137.0230 N   0  0  0  0  0  0  0  0  0  0  0  0
  189.5210  171.3840  138.0040 O   0  0  0  0  0  0  0  0  0  0  0  0
  191.4020  170.7720  135.9920 C   0  0  1  0  0  3  0  0  0  0  0  0
  190.6720  171.3540  134.7980 C   0  0  0  0  0  1  0  0  0  0  0  0
  192.7110  170.1230  135.5480 C   0  0  0  0  0  2  0  0  0  0  0  0
  192.9540  168.8180  136.2850 C   0  0  0  0  0  2  0  0  0  0  0  0
  191.7430  168.1740  136.5190 O   0  0  0  0  0  1  0  0  0  0  0  0
  192.7940  172.6600  137.0130 C   0  0  0  0  0  2  0  0  0  0  0  0
  194.5760  175.2620  136.1290 C   0  0  1  0  0  3  0  0  0  0  0  0
  194.0740  174.0350  135.3890 C   0  0  0  0  0  2  0  0  0  0  0  0
  192.1690  175.0330  136.5110 C   0  0  0  0  0  2  0  0  0  0  0  0
  192.6930  173.7290  135.9280 C   0  0  2  0  0  3  0  0  0  0  0  0
  193.3450  175.9840  136.6390 C   0  0  0  0  0  2  0  0  0  0  0  0
  195.3960  174.8590  137.2630 N   0  0  0  0  0  2  0  0  0  0  0  0
  196.7540  175.2820  137.4340 C   0  0  0  0  0  0  0  0  0  0  0  0
  197.3270  175.9730  136.5510 O   0  0  0  0  0  0  0  0  0  0  0  0
  197.4790  174.9320  138.6850 C   0  0  0  0  0  2  0  0  0  0  0  0
  196.8050  175.5710  139.8900 C   0  0  0  0  0  2  0  0  0  0  0  0
  197.2090  174.8840  141.1130 N   0  0  0  0  0  1  0  0  0  0  0  0
  194.5850  172.7340  144.9100 O   0  0  0  0  0  0  0  0  0  0  0  0
  197.1350  171.1740  143.6920 C   0  0  1  0  0  3  0  0  0  0  0  0
  195.8430  172.9740  144.2930 C   0  0  1  0  0  3  0  0  0  0  0  0
  196.9170  172.8190  145.2900 C   0  0  0  0  0  0  0  0  0  0  0  0
  196.0570  172.0060  143.2860 O   0  0  0  0  0  0  0  0  0  0  0  0
  197.1490  173.6660  146.2890 C   0  0  0  0  0  2  0  0  0  0  0  0
  197.7790  171.6900  144.9670 C   0  0  0  0  0  2  0  0  0  0  0  0
  196.6890  169.7120  143.8380 C   0  0  1  0  0  3  0  0  0  0  0  0
  196.3550  168.3500  147.9060 C   0  0  0  0  0  3  0  0  0  0  0  0
  195.2750  168.9890  147.2870 C   0  0  0  0  0  3  0  0  0  0  0  0
  197.5540  168.1660  147.2120 C   0  0  0  0  0  3  0  0  0  0  0  0
  197.6760  168.6230  145.8990 C   0  0  0  0  0  3  0  0  0  0  0  0
  196.5990  169.2740  145.2740 C   0  0  0  0  0  0  0  0  0  0  0  0
  195.3960  169.4470  145.9720 C   0  0  0  0  0  3  0  0  0  0  0  0
  195.4680  169.5210  143.1830 O   0  0  0  0  0  0  0  0  0  0  0  0
  195.8020  168.8650  141.9950 C   0  0  0  0  0  2  0  0  0  0  0  0
  196.3020  169.5130  139.8100 C   0  0  0  0  0  1  0  0  0  0  0  0
  194.1150  168.9510  140.3800 C   0  0  0  0  0  1  0  0  0  0  0  0
  195.3050  169.6290  140.8610 N   0  0  0  0  0  0  0  0  0  0  0  0
  1 11  1  0  0  0  0
  1  7  2  0  0  0  0
  2  3  1  0  0  0  0
  2  1  1  0  0  0  0
  3  8  2  0  0  0  0
  4 10  2  0  0  0  0
  7  6  1  0  0  0  0
  8  5  1  0  0  0  0
  8  7  1  0  0  0  0
  9 19  1  1  0  0  0
  9  4  1  0  0  0  0
  9  3  1  0  0  0  0
 10  5  1  0  0  0  0
 10 44  1  0  0  0  0
 12 13  1  0  0  0  0
 13 14  1  0  0  0  0
 13 11  1  0  0  0  0
 14 15  1  0  0  0  0
 15 16  1  0  0  0  0
 17 14  1  0  0  0  0
 18 17  1  0  0  0  0
 20 19  1  0  0  0  0
 22 21  1  6  0  0  0
 22 20  1  0  0  0  0
 23 22  1  0  0  0  0
 24 23  1  0  0  0  0
 25 24  1  0  0  0  0
 26 24  2  0  0  0  0
 27 28  1  6  0  0  0
 27 25  1  0  0  0  0
 29 27  1  0  0  0  0
 29 30  1  0  0  0  0
 30 31  1  0  0  0  0
 32 25  1  0  0  0  0
 33 37  1  0  0  0  0
 33 38  1  1  0  0  0
 34 36  1  0  0  0  0
 34 33  1  0  0  0  0
 35 37  1  0  0  0  0
 36 35  1  0  0  0  0
 36 32  1  1  0  0  0
 38 39  1  0  0  0  0
 39 41  1  0  0  0  0
 40 39  2  0  0  0  0
 41 42  1  0  0  0  0
 42 43  1  0  0  0  0
 45 51  1  1  0  0  0
 45 50  1  0  0  0  0
 46 44  1  1  0  0  0
 46 47  1  0  0  0  0
 47 49  2  0  0  0  0
 48 45  1  0  0  0  0
 48 46  1  0  0  0  0
 50 47  1  0  0  0  0
 51 58  1  1  0  0  0
 51 56  1  0  0  0  0
 53 52  1  0  0  0  0
 54 52  2  0  0  0  0
 55 54  1  0  0  0  0
 56 55  2  0  0  0  0
 56 57  1  0  0  0  0
 57 53  2  0  0  0  0
 59 58  1  0  0  0  0
 60 62  1  0  0  0  0
 61 62  1  0  0  0  0
 62 59  1  0  0  0  0
M  END
>  <MODEL>
3

>  <REMARK>
 VINA RESULT:      -5.2      2.868      8.871
  Name = 
  24 active torsions:
  status: ('A' for Active; 'I' for Inactive)
    1  A    between atoms: C_1  and  C_24
    2  A    between atoms: C_2  and  N_8
    3  A    between atoms: C_3  and  C_11
    4  A    between atoms: O_6  and  C_10
    5  A    between atoms: C_7  and  C_57
    6  A    between atoms: C_10  and  O_20
    7  A    between atoms: C_10  and  N_59
    8  A    between atoms: C_11  and  C_55
    9  A    between atoms: N_12  and  C_19
   10  A    between atoms: N_12  and  C_61
   11  A    between atoms: C_16  and  C_44
   12  A    between atoms: C_19  and  C_35
   13  A    between atoms: C_24  and  N_59
   14  A    between atoms: C_25  and  C_47
   15  A    between atoms: O_27  and  C_28
   16  A    between atoms: O_27  and  C_47
   17  A    between atoms: C_28  and  N_42
   18  A    between atoms: C_30  and  O_48
   19  A    between atoms: C_36  and  C_47
   20  A    between atoms: C_37  and  S_45
   21  A    between atoms: C_37  and  C_58
   22  A    between atoms: C_44  and  C_49
   23  A    between atoms: O_48  and  C_60
   24  A    between atoms: C_57  and  C_61
                            x       y       z     vdW  Elec       q    Type
                         _______ _______ _______ _____ _____    ______ ____

>  <TORSDO>
F 24

$$$$
=
 OpenBabel11042416333D

 62 66  0  0  1  0  0  0  0  0999 V2000
  187.2680  176.3330  141.9580 C   0  0  0  0  0  0  0  0  0  0  0  0
  187.4760  174.9420  142.8860 S   0  0  0  0  0  0  0  0  0  0  0  0
  188.1340  174.0170  141.6410 C   0  0  0  0  0  0  0  0  0  0  0  0
  189.2910  172.2050  140.4900 N   0  0  0  0  0  0  0  0  0  0  0  0
  188.5660  174.1630  139.1780 C   0  0  0  0  0  2  0  0  0  0  0  0
  187.5230  176.9300  139.6250 F   0  0  0  0  0  0  0  0  0  0  0  0
  187.6550  176.0580  140.6480 C   0  0  0  0  0  0  0  0  0  0  0  0
  188.1540  174.7660  140.4810 C   0  0  0  0  0  0  0  0  0  0  0  0
  188.4440  172.5510  141.6360 C   0  0  1  0  0  3  0  0  0  0  0  0
  189.3570  172.8900  139.3770 C   0  0  0  0  0  0  0  0  0  0  0  0
  186.6040  177.5690  142.4600 C   0  0  0  0  0  2  0  0  0  0  0  0
  184.3270  177.8160  142.4810 N   0  0  0  0  0  1  0  0  0  0  0  0
  185.3890  177.2640  143.2090 N   0  0  0  0  0  0  0  0  0  0  0  0
  185.4410  177.9650  144.4950 C   0  0  0  0  0  3  0  0  0  0  0  0
  185.0920  177.0970  145.5400 O   0  0  0  0  0  0  0  0  0  0  0  0
  186.2960  176.8070  146.1930 C   0  0  0  0  0  1  0  0  0  0  0  0
  184.5500  179.0460  144.4770 O   0  0  0  0  0  0  0  0  0  0  0  0
  185.3580  180.1780  144.6320 C   0  0  0  0  0  1  0  0  0  0  0  0
  189.1340  172.1220  142.9220 C   0  0  0  0  0  2  0  0  0  0  0  0
  190.6690  173.0410  143.1320 S   0  0  0  0  0  0  0  0  0  0  0  0
  191.7790  171.0580  144.3490 F   0  0  0  0  0  0  0  0  0  0  0  0
  191.7930  171.8930  143.2700 C   0  0  2  0  0  3  0  0  0  0  0  0
  192.9100  171.8350  142.2800 C   0  0  0  0  0  2  0  0  0  0  0  0
  194.1900  171.4430  142.9470 C   0  0  0  0  0  0  0  0  0  0  0  0
  194.6580  172.1470  144.1120 N   0  0  0  0  0  0  0  0  0  0  0  0
  194.8310  170.4500  142.5020 O   0  0  0  0  0  0  0  0  0  0  0  0
  195.6040  171.4830  145.0110 C   0  0  1  0  0  3  0  0  0  0  0  0
  196.3900  172.5000  145.8160 C   0  0  0  0  0  1  0  0  0  0  0  0
  194.9110  170.4920  145.9430 C   0  0  0  0  0  2  0  0  0  0  0  0
  195.8130  169.3110  146.2550 C   0  0  0  0  0  2  0  0  0  0  0  0
  195.6590  168.9360  147.5860 O   0  0  0  0  0  1  0  0  0  0  0  0
  194.1240  173.4800  144.4080 C   0  0  0  0  0  2  0  0  0  0  0  0
  193.7130  176.6720  143.7980 C   0  0  1  0  0  3  0  0  0  0  0  0
  194.7840  175.8720  144.5160 C   0  0  0  0  0  2  0  0  0  0  0  0
  194.4570  174.8530  142.3400 C   0  0  0  0  0  2  0  0  0  0  0  0
  194.9560  174.5780  143.7500 C   0  0  2  0  0  3  0  0  0  0  0  0
  193.6790  176.1560  142.3740 C   0  0  0  0  0  2  0  0  0  0  0  0
  192.4160  176.4390  144.4200 N   0  0  0  0  0  2  0  0  0  0  0  0
  191.3240  177.3610  144.3160 C   0  0  0  0  0  0  0  0  0  0  0  0
  191.4700  178.4670  143.7330 O   0  0  0  0  0  0  0  0  0  0  0  0
  189.9950  176.9880  144.8700 C   0  0  0  0  0  2  0  0  0  0  0  0
  190.1570  176.1760  146.1470 C   0  0  0  0  0  2  0  0  0  0  0  0
  190.3140  177.0670  147.2920 N   0  0  0  0  0  1  0  0  0  0  0  0
  190.1750  172.4560  138.3340 O   0  0  0  0  0  0  0  0  0  0  0  0
  191.0440  170.2610  136.1320 C   0  0  1  0  0  3  0  0  0  0  0  0
  189.6720  171.7570  137.2030 C   0  0  1  0  0  3  0  0  0  0  0  0
  190.1750  172.3880  135.9700 C   0  0  0  0  0  0  0  0  0  0  0  0
  190.1530  170.4290  137.2260 O   0  0  0  0  0  0  0  0  0  0  0  0
  189.7880  173.5770  135.5160 C   0  0  0  0  0  2  0  0  0  0  0  0
  191.0560  171.4880  135.2380 C   0  0  0  0  0  2  0  0  0  0  0  0
  192.4570  169.8990  136.6120 C   0  0  1  0  0  3  0  0  0  0  0  0
  195.0840  173.2970  136.3660 C   0  0  0  0  0  3  0  0  0  0  0  0
  195.0590  172.3510  135.3350 C   0  0  0  0  0  3  0  0  0  0  0  0
  194.2700  173.1340  137.4900 C   0  0  0  0  0  3  0  0  0  0  0  0
  193.4290  172.0240  137.5850 C   0  0  0  0  0  3  0  0  0  0  0  0
  193.4040  171.0650  136.5580 C   0  0  0  0  0  0  0  0  0  0  0  0
  194.2180  171.2400  135.4300 C   0  0  0  0  0  3  0  0  0  0  0  0
  192.3970  169.3660  137.9040 O   0  0  0  0  0  0  0  0  0  0  0  0
  193.3280  168.3250  137.9010 C   0  0  0  0  0  2  0  0  0  0  0  0
  195.0520  169.0960  139.2730 C   0  0  0  0  0  1  0  0  0  0  0  0
  192.9410  168.7030  140.1750 C   0  0  0  0  0  1  0  0  0  0  0  0
  193.9150  168.1930  139.2270 N   0  0  0  0  0  0  0  0  0  0  0  0
  1 11  1  0  0  0  0
  1  2  1  0  0  0  0
  3  2  1  0  0  0  0
  4  9  1  0  0  0  0
  5 10  1  0  0  0  0
  5  8  1  0  0  0  0
  6  7  1  0  0  0  0
  7  1  2  0  0  0  0
  8  7  1  0  0  0  0
  8  3  2  0  0  0  0
  9  3  1  0  0  0  0
  9 19  1  1  0  0  0
 10  4  2  0  0  0  0
 11 13  1  0  0  0  0
 12 13  1  0  0  0  0
 13 14  1  0  0  0  0
 14 15  1  0  0  0  0
 15 16  1  0  0  0  0
 17 14  1  0  0  0  0
 17 18  1  0  0  0  0
 19 20  1  0  0  0  0
 20 22  1  0  0  0  0
 22 21  1  1  0  0  0
 23 24  1  0  0  0  0
 23 22  1  0  0  0  0
 24 25  1  0  0  0  0
 25 32  1  0  0  0  0
 25 27  1  0  0  0  0
 26 24  2  0  0  0  0
 27 28  1  1  0  0  0
 27 29  1  0  0  0  0
 29 30  1  0  0  0  0
 30 31  1  0  0  0  0
 33 38  1  1  0  0  0
 33 34  1  0  0  0  0
 35 37  1  0  0  0  0
 35 36  1  0  0  0  0
 36 32  1  1  0  0  0
 36 34  1  0  0  0  0
 37 33  1  0  0  0  0
 39 38  1  0  0  0  0
 39 41  1  0  0  0  0
 40 39  2  0  0  0  0
 41 42  1  0  0  0  0
 42 43  1  0  0  0  0
 44 10  1  0  0  0  0
 45 51  1  1  0  0  0
 45 48  1  0  0  0  0
 46 48  1  0  0  0  0
 46 44  1  1  0  0  0
 47 46  1  0  0  0  0
 49 47  2  0  0  0  0
 50 47  1  0  0  0  0
 50 45  1  0  0  0  0
 51 58  1  1  0  0  0
 52 54  1  0  0  0  0
 53 57  1  0  0  0  0
 53 52  2  0  0  0  0
 54 55  2  0  0  0  0
 56 51  1  0  0  0  0
 56 55  1  0  0  0  0
 57 56  2  0  0  0  0
 59 58  1  0  0  0  0
 59 62  1  0  0  0  0
 62 60  1  0  0  0  0
 62 61  1  0  0  0  0
M  END
>  <MODEL>
4

>  <REMARK>
 VINA RESULT:      -5.1      2.678     10.039
  Name = 
  24 active torsions:
  status: ('A' for Active; 'I' for Inactive)
    1  A    between atoms: C_1  and  C_24
    2  A    between atoms: C_2  and  N_8
    3  A    between atoms: C_3  and  C_11
    4  A    between atoms: O_6  and  C_10
    5  A    between atoms: C_7  and  C_57
    6  A    between atoms: C_10  and  O_20
    7  A    between atoms: C_10  and  N_59
    8  A    between atoms: C_11  and  C_55
    9  A    between atoms: N_12  and  C_19
   10  A    between atoms: N_12  and  C_61
   11  A    between atoms: C_16  and  C_44
   12  A    between atoms: C_19  and  C_35
   13  A    between atoms: C_24  and  N_59
   14  A    between atoms: C_25  and  C_47
   15  A    between atoms: O_27  and  C_28
   16  A    between atoms: O_27  and  C_47
   17  A    between atoms: C_28  and  N_42
   18  A    between atoms: C_30  and  O_48
   19  A    between atoms: C_36  and  C_47
   20  A    between atoms: C_37  and  S_45
   21  A    between atoms: C_37  and  C_58
   22  A    between atoms: C_44  and  C_49
   23  A    between atoms: O_48  and  C_60
   24  A    between atoms: C_57  and  C_61
                            x       y       z     vdW  Elec       q    Type
                         _______ _______ _______ _____ _____    ______ ____

>  <TORSDO>
F 24

$$$$
=
 OpenBabel11042416333D

 62 66  0  0  1  0  0  0  0  0999 V2000
  187.1170  176.3620  141.6190 C   0  0  0  0  0  0  0  0  0  0  0  0
  187.4140  175.1110  142.7080 S   0  0  0  0  0  0  0  0  0  0  0  0
  188.1690  174.1020  141.5900 C   0  0  0  0  0  0  0  0  0  0  0  0
  189.4880  172.2660  140.6760 N   0  0  0  0  0  0  0  0  0  0  0  0
  188.6410  173.9910  139.1320 C   0  0  0  0  0  2  0  0  0  0  0  0
  187.3750  176.7000  139.2350 F   0  0  0  0  0  0  0  0  0  0  0  0
  187.5530  175.9670  140.3550 C   0  0  0  0  0  0  0  0  0  0  0  0
  188.1550  174.7090  140.3490 C   0  0  0  0  0  0  0  0  0  0  0  0
  188.5930  172.6760  141.7630 C   0  0  1  0  0  3  0  0  0  0  0  0
  189.5250  172.8180  139.4910 C   0  0  0  0  0  0  0  0  0  0  0  0
  186.3490  177.5910  141.9620 C   0  0  0  0  0  2  0  0  0  0  0  0
  184.2060  177.8660  142.7240 N   0  0  0  0  0  1  0  0  0  0  0  0
  185.4620  177.3730  143.1010 N   0  0  0  0  0  0  0  0  0  0  0  0
  185.9270  178.1940  144.2230 C   0  0  0  0  0  3  0  0  0  0  0  0
  186.5840  177.3980  145.1730 O   0  0  0  0  0  0  0  0  0  0  0  0
  185.5610  176.7710  145.8960 C   0  0  0  0  0  1  0  0  0  0  0  0
  184.8340  178.8270  144.8280 O   0  0  0  0  0  0  0  0  0  0  0  0
  185.2310  180.1590  144.9830 C   0  0  0  0  0  1  0  0  0  0  0  0
  189.2860  172.4560  143.0990 C   0  0  0  0  0  2  0  0  0  0  0  0
  191.0390  172.8460  142.9520 S   0  0  0  0  0  0  0  0  0  0  0  0
  191.6690  170.9870  144.6230 F   0  0  0  0  0  0  0  0  0  0  0  0
  191.7770  171.4680  143.3510 C   0  0  2  0  0  3  0  0  0  0  0  0
  192.6710  170.7980  142.3590 C   0  0  0  0  0  2  0  0  0  0  0  0
  193.9350  170.3380  143.0110 C   0  0  0  0  0  0  0  0  0  0  0  0
  194.8250  171.2800  143.6390 N   0  0  0  0  0  0  0  0  0  0  0  0
  194.1880  169.1000  143.0470 O   0  0  0  0  0  0  0  0  0  0  0  0
  195.7640  170.8020  144.6550 C   0  0  1  0  0  3  0  0  0  0  0  0
  195.0240  170.2990  145.8800 C   0  0  0  0  0  1  0  0  0  0  0  0
  196.6920  169.7170  144.1160 C   0  0  0  0  0  2  0  0  0  0  0  0
  197.9410  170.3220  143.4980 C   0  0  0  0  0  2  0  0  0  0  0  0
  197.7160  170.6040  142.1540 O   0  0  0  0  0  1  0  0  0  0  0  0
  194.7210  172.7020  143.2980 C   0  0  0  0  0  2  0  0  0  0  0  0
  195.5900  175.7860  143.9820 C   0  0  1  0  0  3  0  0  0  0  0  0
  195.8650  174.4480  144.6450 C   0  0  0  0  0  2  0  0  0  0  0  0
  196.4390  174.2260  142.2980 C   0  0  0  0  0  2  0  0  0  0  0  0
  196.0390  173.4340  143.5340 C   0  0  2  0  0  3  0  0  0  0  0  0
  196.1530  175.6900  142.5790 C   0  0  0  0  0  2  0  0  0  0  0  0
  194.1530  176.0170  143.9040 N   0  0  0  0  0  2  0  0  0  0  0  0
  193.4220  176.7320  144.9070 C   0  0  0  0  0  0  0  0  0  0  0  0
  193.9930  177.1330  145.9540 O   0  0  0  0  0  0  0  0  0  0  0  0
  191.9820  177.0360  144.6870 C   0  0  0  0  0  2  0  0  0  0  0  0
  191.7750  177.6880  143.3280 C   0  0  0  0  0  2  0  0  0  0  0  0
  190.5280  177.2200  142.7320 N   0  0  0  0  0  1  0  0  0  0  0  0
  190.3960  172.3320  138.5170 O   0  0  0  0  0  0  0  0  0  0  0  0
  192.2070  170.0150  137.1860 C   0  0  1  0  0  3  0  0  0  0  0  0
  190.3050  171.0120  137.9950 C   0  0  1  0  0  3  0  0  0  0  0  0
  190.2690  171.0670  136.5220 C   0  0  0  0  0  0  0  0  0  0  0  0
  191.4600  170.2870  138.3630 O   0  0  0  0  0  0  0  0  0  0  0  0
  189.2400  171.5130  135.8080 C   0  0  0  0  0  2  0  0  0  0  0  0
  191.4520  170.4470  135.9410 C   0  0  0  0  0  2  0  0  0  0  0  0
  193.6020  170.6530  137.2480 C   0  0  1  0  0  3  0  0  0  0  0  0
  193.4300  174.5470  139.0690 C   0  0  0  0  0  3  0  0  0  0  0  0
  193.2830  174.4110  137.6840 C   0  0  0  0  0  3  0  0  0  0  0  0
  193.6510  173.4220  139.8670 C   0  0  0  0  0  3  0  0  0  0  0  0
  193.7280  172.1570  139.2800 C   0  0  0  0  0  3  0  0  0  0  0  0
  193.5900  172.0130  137.8890 C   0  0  0  0  0  0  0  0  0  0  0  0
  193.3600  173.1460  137.0960 C   0  0  0  0  0  3  0  0  0  0  0  0
  194.4860  169.7970  137.9140 O   0  0  0  0  0  0  0  0  0  0  0  0
  195.7070  169.9670  137.2560 C   0  0  0  0  0  2  0  0  0  0  0  0
  197.3280  168.3140  136.9610 C   0  0  0  0  0  1  0  0  0  0  0  0
  197.7790  170.1480  138.3230 C   0  0  0  0  0  1  0  0  0  0  0  0
  196.7410  169.2070  137.9440 N   0  0  0  0  0  0  0  0  0  0  0  0
  1 11  1  0  0  0  0
  1  2  1  0  0  0  0
  3  9  1  0  0  0  0
  3  2  1  0  0  0  0
  4  9  1  0  0  0  0
  5 10  1  0  0  0  0
  5  8  1  0  0  0  0
  6  7  1  0  0  0  0
  7  1  2  0  0  0  0
  8  7  1  0  0  0  0
  8  3  2  0  0  0  0
  9 19  1  1  0  0  0
 10  4  2  0  0  0  0
 11 13  1  0  0  0  0
 12 13  1  0  0  0  0
 13 14  1  0  0  0  0
 14 17  1  0  0  0  0
 14 15  1  0  0  0  0
 15 16  1  0  0  0  0
 17 18  1  0  0  0  0
 20 19  1  0  0  0  0
 20 22  1  0  0  0  0
 22 21  1  1  0  0  0
 23 24  1  0  0  0  0
 23 22  1  0  0  0  0
 24 26  2  0  0  0  0
 24 25  1  0  0  0  0
 25 27  1  0  0  0  0
 27 28  1  1  0  0  0
 29 27  1  0  0  0  0
 30 29  1  0  0  0  0
 31 30  1  0  0  0  0
 32 25  1  0  0  0  0
 33 38  1  6  0  0  0
 33 34  1  0  0  0  0
 35 37  1  0  0  0  0
 35 36  1  0  0  0  0
 36 32  1  6  0  0  0
 36 34  1  0  0  0  0
 37 33  1  0  0  0  0
 38 39  1  0  0  0  0
 39 40  2  0  0  0  0
 41 39  1  0  0  0  0
 42 41  1  0  0  0  0
 43 42  1  0  0  0  0
 44 10  1  0  0  0  0
 45 51  1  1  0  0  0
 45 48  1  0  0  0  0
 46 48  1  0  0  0  0
 46 44  1  1  0  0  0
 47 46  1  0  0  0  0
 49 47  2  0  0  0  0
 50 47  1  0  0  0  0
 50 45  1  0  0  0  0
 51 56  1  0  0  0  0
 51 58  1  1  0  0  0
 52 54  1  0  0  0  0
 53 52  2  0  0  0  0
 55 54  2  0  0  0  0
 56 55  1  0  0  0  0
 57 53  1  0  0  0  0
 57 56  2  0  0  0  0
 59 58  1  0  0  0  0
 59 62  1  0  0  0  0
 60 62  1  0  0  0  0
 62 61  1  0  0  0  0
M  END
>  <MODEL>
5

>  <REMARK>
 VINA RESULT:      -4.9      2.574      9.826
  Name = 
  24 active torsions:
  status: ('A' for Active; 'I' for Inactive)
    1  A    between atoms: C_1  and  C_24
    2  A    between atoms: C_2  and  N_8
    3  A    between atoms: C_3  and  C_11
    4  A    between atoms: O_6  and  C_10
    5  A    between atoms: C_7  and  C_57
    6  A    between atoms: C_10  and  O_20
    7  A    between atoms: C_10  and  N_59
    8  A    between atoms: C_11  and  C_55
    9  A    between atoms: N_12  and  C_19
   10  A    between atoms: N_12  and  C_61
   11  A    between atoms: C_16  and  C_44
   12  A    between atoms: C_19  and  C_35
   13  A    between atoms: C_24  and  N_59
   14  A    between atoms: C_25  and  C_47
   15  A    between atoms: O_27  and  C_28
   16  A    between atoms: O_27  and  C_47
   17  A    between atoms: C_28  and  N_42
   18  A    between atoms: C_30  and  O_48
   19  A    between atoms: C_36  and  C_47
   20  A    between atoms: C_37  and  S_45
   21  A    between atoms: C_37  and  C_58
   22  A    between atoms: C_44  and  C_49
   23  A    between atoms: O_48  and  C_60
   24  A    between atoms: C_57  and  C_61
                            x       y       z     vdW  Elec       q    Type
                         _______ _______ _______ _____ _____    ______ ____

>  <TORSDO>
F 24

$$$$
=
 OpenBabel11042416333D

 62 66  0  0  1  0  0  0  0  0999 V2000
  194.1960  174.2970  141.6730 C   0  0  0  0  0  0  0  0  0  0  0  0
  193.5480  173.3000  140.4780 S   0  0  0  0  0  0  0  0  0  0  0  0
  191.9450  173.7330  140.7620 C   0  0  0  0  0  0  0  0  0  0  0  0
  189.5420  173.9880  140.4350 N   0  0  0  0  0  0  0  0  0  0  0  0
  190.5890  175.0790  142.3820 C   0  0  0  0  0  2  0  0  0  0  0  0
  193.3190  175.7210  143.4240 F   0  0  0  0  0  0  0  0  0  0  0  0
  193.1500  174.9270  142.3440 C   0  0  0  0  0  0  0  0  0  0  0  0
  191.8950  174.6200  141.8190 C   0  0  0  0  0  0  0  0  0  0  0  0
  190.7020  173.1270  140.1840 C   0  0  1  0  0  3  0  0  0  0  0  0
  189.4520  174.8540  141.4110 C   0  0  0  0  0  0  0  0  0  0  0  0
  195.6420  174.3230  142.0320 C   0  0  0  0  0  2  0  0  0  0  0  0
  196.6730  175.7850  143.4630 N   0  0  0  0  0  1  0  0  0  0  0  0
  195.8420  174.6570  143.4380 N   0  0  0  0  0  0  0  0  0  0  0  0
  196.5810  173.5650  144.0800 C   0  0  0  0  0  3  0  0  0  0  0  0
  197.2060  172.7620  143.1150 O   0  0  0  0  0  0  0  0  0  0  0  0
  197.9270  171.8070  143.8430 C   0  0  0  0  0  1  0  0  0  0  0  0
  195.6990  172.7790  144.8320 O   0  0  0  0  0  0  0  0  0  0  0  0
  194.9410  173.6950  145.5690 C   0  0  0  0  0  1  0  0  0  0  0  0
  190.8410  172.8890  138.6880 C   0  0  0  0  0  2  0  0  0  0  0  0
  190.9810  171.1220  138.3590 S   0  0  0  0  0  0  0  0  0  0  0  0
  190.3780  171.4610  135.8760 F   0  0  0  0  0  0  0  0  0  0  0  0
  191.3100  171.0470  136.7830 C   0  0  2  0  0  3  0  0  0  0  0  0
  192.5820  170.4110  136.3260 C   0  0  0  0  0  2  0  0  0  0  0  0
  193.5900  171.4500  135.9510 C   0  0  0  0  0  0  0  0  0  0  0  0
  194.8080  171.5990  136.7040 N   0  0  0  0  0  0  0  0  0  0  0  0
  193.3800  172.1640  134.9300 O   0  0  0  0  0  0  0  0  0  0  0  0
  195.9590  172.2460  136.0720 C   0  0  1  0  0  3  0  0  0  0  0  0
  196.4040  171.4780  134.8430 C   0  0  0  0  0  1  0  0  0  0  0  0
  195.6730  173.7020  135.7110 C   0  0  0  0  0  2  0  0  0  0  0  0
  195.3740  174.5260  136.9510 C   0  0  0  0  0  2  0  0  0  0  0  0
  196.3630  175.4890  137.1300 O   0  0  0  0  0  1  0  0  0  0  0  0
  194.8900  171.0360  138.0550 C   0  0  0  0  0  2  0  0  0  0  0  0
  196.0530  168.8230  140.1720 C   0  0  1  0  0  3  0  0  0  0  0  0
  196.0450  168.9210  138.6570 C   0  0  0  0  0  2  0  0  0  0  0  0
  196.9260  171.0120  139.5130 C   0  0  0  0  0  2  0  0  0  0  0  0
  196.2450  170.3810  138.3090 C   0  0  2  0  0  3  0  0  0  0  0  0
  196.8000  170.0410  140.6730 C   0  0  0  0  0  2  0  0  0  0  0  0
  194.6880  168.8590  140.6800 N   0  0  0  0  0  2  0  0  0  0  0  0
  194.3520  169.3650  141.9780 C   0  0  0  0  0  0  0  0  0  0  0  0
  195.2530  169.7370  142.7750 O   0  0  0  0  0  0  0  0  0  0  0  0
  192.9220  169.4860  142.3690 C   0  0  0  0  0  2  0  0  0  0  0  0
  192.6890  170.7720  143.1510 C   0  0  0  0  0  2  0  0  0  0  0  0
  191.2590  171.0360  143.2660 N   0  0  0  0  0  1  0  0  0  0  0  0
  188.2880  175.6040  141.5790 O   0  0  0  0  0  0  0  0  0  0  0  0
  187.7410  177.9530  143.7240 C   0  0  1  0  0  3  0  0  0  0  0  0
  188.2980  177.0200  141.7030 C   0  0  1  0  0  3  0  0  0  0  0  0
  186.9180  177.5310  141.6150 C   0  0  0  0  0  0  0  0  0  0  0  0
  188.7990  177.3710  142.9760 O   0  0  0  0  0  0  0  0  0  0  0  0
  186.1880  177.5470  140.5040 C   0  0  0  0  0  2  0  0  0  0  0  0
  186.5000  178.1400  142.8700 C   0  0  0  0  0  2  0  0  0  0  0  0
  187.4370  177.1380  144.9890 C   0  0  1  0  0  3  0  0  0  0  0  0
  191.0230  175.4300  146.6430 C   0  0  0  0  0  3  0  0  0  0  0  0
  190.0390  174.6020  146.0910 C   0  0  0  0  0  3  0  0  0  0  0  0
  190.8380  176.8150  146.6770 C   0  0  0  0  0  3  0  0  0  0  0  0
  189.6680  177.3740  146.1600 C   0  0  0  0  0  3  0  0  0  0  0  0
  188.6720  176.5490  145.6120 C   0  0  0  0  0  0  0  0  0  0  0  0
  188.8680  175.1610  145.5730 C   0  0  0  0  0  3  0  0  0  0  0  0
  186.7460  177.9320  145.9110 O   0  0  0  0  0  0  0  0  0  0  0  0
  185.7470  177.0980  146.4190 C   0  0  0  0  0  2  0  0  0  0  0  0
  185.1470  178.8690  147.8140 C   0  0  0  0  0  1  0  0  0  0  0  0
  184.1590  178.6620  145.7160 C   0  0  0  0  0  1  0  0  0  0  0  0
  184.6200  177.9040  146.8650 N   0  0  0  0  0  0  0  0  0  0  0  0
  1 11  1  0  0  0  0
  1  7  2  0  0  0  0
  2  3  1  0  0  0  0
  2  1  1  0  0  0  0
  3  8  2  0  0  0  0
  4 10  2  0  0  0  0
  7  6  1  0  0  0  0
  8  7  1  0  0  0  0
  8  5  1  0  0  0  0
  9 19  1  6  0  0  0
  9  4  1  0  0  0  0
  9  3  1  0  0  0  0
 10 44  1  0  0  0  0
 10  5  1  0  0  0  0
 11 13  1  0  0  0  0
 13 12  1  0  0  0  0
 13 14  1  0  0  0  0
 14 17  1  0  0  0  0
 15 16  1  0  0  0  0
 15 14  1  0  0  0  0
 17 18  1  0  0  0  0
 20 19  1  0  0  0  0
 22 21  1  6  0  0  0
 22 20  1  0  0  0  0
 23 22  1  0  0  0  0
 24 23  1  0  0  0  0
 24 25  1  0  0  0  0
 25 32  1  0  0  0  0
 26 24  2  0  0  0  0
 27 28  1  6  0  0  0
 27 25  1  0  0  0  0
 29 27  1  0  0  0  0
 29 30  1  0  0  0  0
 30 31  1  0  0  0  0
 33 37  1  0  0  0  0
 33 38  1  1  0  0  0
 34 33  1  0  0  0  0
 35 37  1  0  0  0  0
 36 32  1  1  0  0  0
 36 34  1  0  0  0  0
 36 35  1  0  0  0  0
 38 39  1  0  0  0  0
 39 41  1  0  0  0  0
 39 40  2  0  0  0  0
 41 42  1  0  0  0  0
 42 43  1  0  0  0  0
 45 51  1  1  0  0  0
 46 44  1  1  0  0  0
 46 48  1  0  0  0  0
 47 46  1  0  0  0  0
 47 50  1  0  0  0  0
 48 45  1  0  0  0  0
 49 47  2  0  0  0  0
 50 45  1  0  0  0  0
 51 56  1  0  0  0  0
 51 58  1  1  0  0  0
 52 54  1  0  0  0  0
 53 52  2  0  0  0  0
 55 54  2  0  0  0  0
 56 55  1  0  0  0  0
 57 56  2  0  0  0  0
 57 53  1  0  0  0  0
 58 59  1  0  0  0  0
 59 62  1  0  0  0  0
 61 62  1  0  0  0  0
 62 60  1  0  0  0  0
M  END
>  <MODEL>
6

>  <REMARK>
 VINA RESULT:      -4.8      2.448      4.559
  Name = 
  24 active torsions:
  status: ('A' for Active; 'I' for Inactive)
    1  A    between atoms: C_1  and  C_24
    2  A    between atoms: C_2  and  N_8
    3  A    between atoms: C_3  and  C_11
    4  A    between atoms: O_6  and  C_10
    5  A    between atoms: C_7  and  C_57
    6  A    between atoms: C_10  and  O_20
    7  A    between atoms: C_10  and  N_59
    8  A    between atoms: C_11  and  C_55
    9  A    between atoms: N_12  and  C_19
   10  A    between atoms: N_12  and  C_61
   11  A    between atoms: C_16  and  C_44
   12  A    between atoms: C_19  and  C_35
   13  A    between atoms: C_24  and  N_59
   14  A    between atoms: C_25  and  C_47
   15  A    between atoms: O_27  and  C_28
   16  A    between atoms: O_27  and  C_47
   17  A    between atoms: C_28  and  N_42
   18  A    between atoms: C_30  and  O_48
   19  A    between atoms: C_36  and  C_47
   20  A    between atoms: C_37  and  S_45
   21  A    between atoms: C_37  and  C_58
   22  A    between atoms: C_44  and  C_49
   23  A    between atoms: O_48  and  C_60
   24  A    between atoms: C_57  and  C_61
                            x       y       z     vdW  Elec       q    Type
                         _______ _______ _______ _____ _____    ______ ____

>  <TORSDO>
F 24

$$$$
=
 OpenBabel11042416333D

 62 66  0  0  1  0  0  0  0  0999 V2000
  187.4210  176.2090  140.9360 C   0  0  0  0  0  0  0  0  0  0  0  0
  187.9470  175.1910  142.1720 S   0  0  0  0  0  0  0  0  0  0  0  0
  188.4810  173.9630  141.1500 C   0  0  0  0  0  0  0  0  0  0  0  0
  189.6220  171.9500  140.3790 N   0  0  0  0  0  0  0  0  0  0  0  0
  188.4580  173.3550  138.7210 C   0  0  0  0  0  2  0  0  0  0  0  0
  187.1960  176.0600  138.5300 F   0  0  0  0  0  0  0  0  0  0  0  0
  187.6040  175.5600  139.7160 C   0  0  0  0  0  0  0  0  0  0  0  0
  188.2120  174.3110  139.8420 C   0  0  0  0  0  0  0  0  0  0  0  0
  188.9530  172.5890  141.5170 C   0  0  1  0  0  3  0  0  0  0  0  0
  189.4140  172.2550  139.1240 C   0  0  0  0  0  0  0  0  0  0  0  0
  186.7160  177.5000  141.1720 C   0  0  0  0  0  2  0  0  0  0  0  0
  184.4910  177.6860  140.6600 N   0  0  0  0  0  1  0  0  0  0  0  0
  185.3640  177.2920  141.6820 N   0  0  0  0  0  0  0  0  0  0  0  0
  185.1430  178.1990  142.8110 C   0  0  0  0  0  3  0  0  0  0  0  0
  185.7900  177.7200  143.9590 O   0  0  0  0  0  0  0  0  0  0  0  0
  186.9060  178.5500  144.1240 C   0  0  0  0  0  1  0  0  0  0  0  0
  183.7700  178.3050  143.0680 O   0  0  0  0  0  0  0  0  0  0  0  0
  183.6750  179.1710  144.1620 C   0  0  0  0  0  1  0  0  0  0  0  0
  189.9000  172.6220  142.7070 C   0  0  0  0  0  2  0  0  0  0  0  0
  191.0580  171.2440  142.6080 S   0  0  0  0  0  0  0  0  0  0  0  0
  192.7040  172.6310  141.1890 F   0  0  0  0  0  0  0  0  0  0  0  0
  192.4830  171.9540  142.3530 C   0  0  2  0  0  3  0  0  0  0  0  0
  193.5890  171.7570  143.3380 C   0  0  0  0  0  2  0  0  0  0  0  0
  194.8670  172.3420  142.8240 C   0  0  0  0  0  0  0  0  0  0  0  0
  195.3440  173.6100  143.3110 N   0  0  0  0  0  0  0  0  0  0  0  0
  195.5490  171.6810  141.9900 O   0  0  0  0  0  0  0  0  0  0  0  0
  196.7670  173.9290  143.1830 C   0  0  1  0  0  3  0  0  0  0  0  0
  197.6260  172.7670  143.6410 C   0  0  0  0  0  1  0  0  0  0  0  0
  197.1390  174.3340  141.7590 C   0  0  0  0  0  2  0  0  0  0  0  0
  197.6490  175.7640  141.7100 C   0  0  0  0  0  2  0  0  0  0  0  0
  196.5750  176.6490  141.7100 O   0  0  0  0  0  1  0  0  0  0  0  0
  194.4110  174.5170  143.9870 C   0  0  0  0  0  2  0  0  0  0  0  0
  193.7180  175.9800  146.8350 C   0  0  1  0  0  3  0  0  0  0  0  0
  194.8580  175.0970  146.3600 C   0  0  0  0  0  2  0  0  0  0  0  0
  194.6140  176.8940  144.7490 C   0  0  0  0  0  2  0  0  0  0  0  0
  195.1400  175.4780  144.9220 C   0  0  2  0  0  3  0  0  0  0  0  0
  193.7240  177.2020  145.9390 C   0  0  0  0  0  2  0  0  0  0  0  0
  192.4490  175.2810  146.6770 N   0  0  0  0  0  2  0  0  0  0  0  0
  191.2770  175.6130  147.4310 C   0  0  0  0  0  0  0  0  0  0  0  0
  191.3190  176.4920  148.3310 O   0  0  0  0  0  0  0  0  0  0  0  0
  189.9880  174.9380  147.1170 C   0  0  0  0  0  2  0  0  0  0  0  0
  188.9200  175.9640  146.7630 C   0  0  0  0  0  2  0  0  0  0  0  0
  189.3430  176.7480  145.6070 N   0  0  0  0  0  1  0  0  0  0  0  0
  190.0830  171.5640  138.1140 O   0  0  0  0  0  0  0  0  0  0  0  0
  192.8800  170.5570  136.8560 C   0  0  1  0  0  3  0  0  0  0  0  0
  191.1630  170.6780  138.3750 C   0  0  1  0  0  3  0  0  0  0  0  0
  190.9940  169.4480  137.5800 C   0  0  0  0  0  0  0  0  0  0  0  0
  192.3710  171.2850  137.9650 O   0  0  0  0  0  0  0  0  0  0  0  0
  190.0670  168.5220  137.8070 C   0  0  0  0  0  2  0  0  0  0  0  0
  192.0560  169.3080  136.5920 C   0  0  0  0  0  2  0  0  0  0  0  0
  192.9800  171.4400  135.6050 C   0  0  1  0  0  3  0  0  0  0  0  0
  189.3280  173.6260  134.9740 C   0  0  0  0  0  3  0  0  0  0  0  0
  189.4410  172.3020  134.5320 C   0  0  0  0  0  3  0  0  0  0  0  0
  190.4060  174.2510  135.6060 C   0  0  0  0  0  3  0  0  0  0  0  0
  191.6010  173.5540  135.7960 C   0  0  0  0  0  3  0  0  0  0  0  0
  191.7250  172.2280  135.3480 C   0  0  0  0  0  0  0  0  0  0  0  0
  190.6370  171.6050  134.7230 C   0  0  0  0  0  3  0  0  0  0  0  0
  194.0870  172.2890  135.7110 O   0  0  0  0  0  0  0  0  0  0  0  0
  195.0320  171.7500  134.8340 C   0  0  0  0  0  2  0  0  0  0  0  0
  196.5790  170.2880  135.7920 C   0  0  0  0  0  1  0  0  0  0  0  0
  197.3230  172.0890  134.5160 C   0  0  0  0  0  1  0  0  0  0  0  0
  196.3280  171.6880  135.4940 N   0  0  0  0  0  0  0  0  0  0  0  0
  1 11  1  0  0  0  0
  1  2  1  0  0  0  0
  3  9  1  0  0  0  0
  3  2  1  0  0  0  0
  4  9  1  0  0  0  0
  5 10  1  0  0  0  0
  5  8  1  0  0  0  0
  6  7  1  0  0  0  0
  7  8  1  0  0  0  0
  7  1  2  0  0  0  0
  8  3  2  0  0  0  0
  9 19  1  1  0  0  0
 10  4  2  0  0  0  0
 11 13  1  0  0  0  0
 12 13  1  0  0  0  0
 13 14  1  0  0  0  0
 14 17  1  0  0  0  0
 14 15  1  0  0  0  0
 15 16  1  0  0  0  0
 17 18  1  0  0  0  0
 20 19  1  0  0  0  0
 22 21  1  6  0  0  0
 22 20  1  0  0  0  0
 22 23  1  0  0  0  0
 24 25  1  0  0  0  0
 24 23  1  0  0  0  0
 25 32  1  0  0  0  0
 26 24  2  0  0  0  0
 27 25  1  0  0  0  0
 27 28  1  6  0  0  0
 29 27  1  0  0  0  0
 30 31  1  0  0  0  0
 30 29  1  0  0  0  0
 33 38  1  6  0  0  0
 34 33  1  0  0  0  0
 35 36  1  0  0  0  0
 35 37  1  0  0  0  0
 36 32  1  6  0  0  0
 36 34  1  0  0  0  0
 37 33  1  0  0  0  0
 38 39  1  0  0  0  0
 39 40  2  0  0  0  0
 41 39  1  0  0  0  0
 42 41  1  0  0  0  0
 43 42  1  0  0  0  0
 44 10  1  0  0  0  0
 45 51  1  6  0  0  0
 45 48  1  0  0  0  0
 46 44  1  6  0  0  0
 47 49  2  0  0  0  0
 47 46  1  0  0  0  0
 48 46  1  0  0  0  0
 50 45  1  0  0  0  0
 50 47  1  0  0  0  0
 51 58  1  1  0  0  0
 52 54  1  0  0  0  0
 53 57  1  0  0  0  0
 53 52  2  0  0  0  0
 54 55  2  0  0  0  0
 56 51  1  0  0  0  0
 56 55  1  0  0  0  0
 57 56  2  0  0  0  0
 59 62  1  0  0  0  0
 59 58  1  0  0  0  0
 61 62  1  0  0  0  0
 62 60  1  0  0  0  0
M  END
>  <MODEL>
7

>  <REMARK>
 VINA RESULT:      -4.8      2.563     10.381
  Name = 
  24 active torsions:
  status: ('A' for Active; 'I' for Inactive)
    1  A    between atoms: C_1  and  C_24
    2  A    between atoms: C_2  and  N_8
    3  A    between atoms: C_3  and  C_11
    4  A    between atoms: O_6  and  C_10
    5  A    between atoms: C_7  and  C_57
    6  A    between atoms: C_10  and  O_20
    7  A    between atoms: C_10  and  N_59
    8  A    between atoms: C_11  and  C_55
    9  A    between atoms: N_12  and  C_19
   10  A    between atoms: N_12  and  C_61
   11  A    between atoms: C_16  and  C_44
   12  A    between atoms: C_19  and  C_35
   13  A    between atoms: C_24  and  N_59
   14  A    between atoms: C_25  and  C_47
   15  A    between atoms: O_27  and  C_28
   16  A    between atoms: O_27  and  C_47
   17  A    between atoms: C_28  and  N_42
   18  A    between atoms: C_30  and  O_48
   19  A    between atoms: C_36  and  C_47
   20  A    between atoms: C_37  and  S_45
   21  A    between atoms: C_37  and  C_58
   22  A    between atoms: C_44  and  C_49
   23  A    between atoms: O_48  and  C_60
   24  A    between atoms: C_57  and  C_61
                            x       y       z     vdW  Elec       q    Type
                         _______ _______ _______ _____ _____    ______ ____

>  <TORSDO>
F 24

$$$$
=
 OpenBabel11042416333D

 62 66  0  0  1  0  0  0  0  0999 V2000
  188.5830  176.2590  142.9950 C   0  0  0  0  0  0  0  0  0  0  0  0
  188.2870  175.4280  141.5590 S   0  0  0  0  0  0  0  0  0  0  0  0
  189.7100  174.5250  141.6020 C   0  0  0  0  0  0  0  0  0  0  0  0
  191.3490  172.7940  141.0880 N   0  0  0  0  0  0  0  0  0  0  0  0
  191.8240  174.3560  142.9350 C   0  0  0  0  0  2  0  0  0  0  0  0
  190.4170  176.4310  144.5670 F   0  0  0  0  0  0  0  0  0  0  0  0
  189.8330  175.8790  143.4820 C   0  0  0  0  0  0  0  0  0  0  0  0
  190.4500  174.8970  142.7070 C   0  0  0  0  0  0  0  0  0  0  0  0
  190.2750  173.6310  140.5420 C   0  0  1  0  0  3  0  0  0  0  0  0
  192.0660  173.0930  142.1400 C   0  0  0  0  0  0  0  0  0  0  0  0
  187.7070  177.3450  143.5160 C   0  0  0  0  0  2  0  0  0  0  0  0
  185.5370  176.8430  144.0540 N   0  0  0  0  0  1  0  0  0  0  0  0
  186.8340  176.8680  144.5840 N   0  0  0  0  0  0  0  0  0  0  0  0
  186.8360  177.8550  145.6680 C   0  0  0  0  0  3  0  0  0  0  0  0
  186.8200  177.2110  146.9150 O   0  0  0  0  0  0  0  0  0  0  0  0
  187.8250  176.2390  146.8390 C   0  0  0  0  0  1  0  0  0  0  0  0
  185.7070  178.6760  145.5600 O   0  0  0  0  0  0  0  0  0  0  0  0
  185.1910  178.7490  146.8580 C   0  0  0  0  0  1  0  0  0  0  0  0
  189.2030  172.7420  139.9300 C   0  0  0  0  0  2  0  0  0  0  0  0
  188.8120  173.3100  138.2650 S   0  0  0  0  0  0  0  0  0  0  0  0
  191.1470  174.3710  137.9970 F   0  0  0  0  0  0  0  0  0  0  0  0
  190.2520  173.4410  137.5520 C   0  0  2  0  0  3  0  0  0  0  0  0
  190.5470  172.6290  136.3330 C   0  0  0  0  0  2  0  0  0  0  0  0
  190.7860  171.1970  136.6940 C   0  0  0  0  0  0  0  0  0  0  0  0
  192.0000  170.7980  137.3570 N   0  0  0  0  0  0  0  0  0  0  0  0
  189.8820  170.3480  136.4520 O   0  0  0  0  0  0  0  0  0  0  0  0
  192.0160  169.5470  138.1150 C   0  0  1  0  0  3  0  0  0  0  0  0
  193.0240  168.5750  137.5330 C   0  0  0  0  0  1  0  0  0  0  0  0
  192.2980  169.7760  139.5980 C   0  0  0  0  0  2  0  0  0  0  0  0
  191.5390  168.7830  140.4610 C   0  0  0  0  0  2  0  0  0  0  0  0
  190.8260  169.4600  141.4460 O   0  0  0  0  0  1  0  0  0  0  0  0
  193.1650  171.6880  137.3180 C   0  0  0  0  0  2  0  0  0  0  0  0
  196.0770  171.9650  135.8430 C   0  0  1  0  0  3  0  0  0  0  0  0
  194.8660  171.0790  135.6140 C   0  0  0  0  0  2  0  0  0  0  0  0
  194.0780  173.3710  135.7040 C   0  0  0  0  0  2  0  0  0  0  0  0
  193.6410  171.9260  135.8880 C   0  0  2  0  0  3  0  0  0  0  0  0
  195.5960  173.3920  135.6820 C   0  0  0  0  0  2  0  0  0  0  0  0
  196.5780  171.7820  137.1990 N   0  0  0  0  0  2  0  0  0  0  0  0
  197.3250  170.6290  137.6050 C   0  0  0  0  0  0  0  0  0  0  0  0
  197.5180  169.6750  136.8080 O   0  0  0  0  0  0  0  0  0  0  0  0
  197.9110  170.5810  138.9720 C   0  0  0  0  0  2  0  0  0  0  0  0
  197.1640  169.5770  139.8390 C   0  0  0  0  0  2  0  0  0  0  0  0
  197.8940  168.3140  139.8840 N   0  0  0  0  0  1  0  0  0  0  0  0
  193.0850  172.2390  142.5600 O   0  0  0  0  0  0  0  0  0  0  0  0
  196.2330  172.2780  143.2740 C   0  0  1  0  0  3  0  0  0  0  0  0
  194.3650  172.2080  141.9420 C   0  0  1  0  0  3  0  0  0  0  0  0
  194.9210  173.5720  141.8920 C   0  0  0  0  0  0  0  0  0  0  0  0
  195.2400  171.4230  142.7260 O   0  0  0  0  0  0  0  0  0  0  0  0
  194.4690  174.5440  141.1050 C   0  0  0  0  0  2  0  0  0  0  0  0
  196.1150  173.6870  142.7190 C   0  0  0  0  0  2  0  0  0  0  0  0
  196.1910  172.2720  144.8090 C   0  0  1  0  0  3  0  0  0  0  0  0
  193.6840  175.4410  146.2870 C   0  0  0  0  0  3  0  0  0  0  0  0
  195.0170  175.6990  145.9480 C   0  0  0  0  0  3  0  0  0  0  0  0
  193.1650  174.1500  146.1650 C   0  0  0  0  0  3  0  0  0  0  0  0
  193.9780  173.1130  145.7050 C   0  0  0  0  0  3  0  0  0  0  0  0
  195.3200  173.3620  145.3700 C   0  0  0  0  0  0  0  0  0  0  0  0
  195.8320  174.6610  145.4870 C   0  0  0  0  0  3  0  0  0  0  0  0
  195.7760  171.0180  145.2680 O   0  0  0  0  0  0  0  0  0  0  0  0
  196.7940  170.6010  146.1300 C   0  0  0  0  0  2  0  0  0  0  0  0
  197.7680  168.6240  146.8960 C   0  0  0  0  0  1  0  0  0  0  0  0
  196.1500  168.5450  145.2230 C   0  0  0  0  0  1  0  0  0  0  0  0
  197.2920  169.3020  145.7030 N   0  0  0  0  0  0  0  0  0  0  0  0
  1  7  2  0  0  0  0
  1 11  1  0  0  0  0
  2  3  1  0  0  0  0
  2  1  1  0  0  0  0
  3  8  2  0  0  0  0
  4 10  2  0  0  0  0
  7  6  1  0  0  0  0
  8  5  1  0  0  0  0
  8  7  1  0  0  0  0
  9 19  1  1  0  0  0
  9  4  1  0  0  0  0
  9  3  1  0  0  0  0
 10 44  1  0  0  0  0
 10  5  1  0  0  0  0
 11 13  1  0  0  0  0
 12 13  1  0  0  0  0
 13 14  1  0  0  0  0
 14 15  1  0  0  0  0
 16 15  1  0  0  0  0
 17 14  1  0  0  0  0
 17 18  1  0  0  0  0
 20 19  1  0  0  0  0
 22 21  1  6  0  0  0
 22 20  1  0  0  0  0
 23 24  1  0  0  0  0
 23 22  1  0  0  0  0
 24 25  1  0  0  0  0
 25 27  1  0  0  0  0
 26 24  2  0  0  0  0
 27 28  1  6  0  0  0
 27 29  1  0  0  0  0
 29 30  1  0  0  0  0
 30 31  1  0  0  0  0
 32 25  1  0  0  0  0
 33 38  1  1  0  0  0
 34 33  1  0  0  0  0
 34 36  1  0  0  0  0
 35 36  1  0  0  0  0
 36 32  1  1  0  0  0
 37 35  1  0  0  0  0
 37 33  1  0  0  0  0
 38 39  1  0  0  0  0
 39 41  1  0  0  0  0
 40 39  2  0  0  0  0
 41 42  1  0  0  0  0
 42 43  1  0  0  0  0
 45 51  1  1  0  0  0
 46 44  1  1  0  0  0
 46 48  1  0  0  0  0
 47 46  1  0  0  0  0
 47 50  1  0  0  0  0
 48 45  1  0  0  0  0
 49 47  2  0  0  0  0
 50 45  1  0  0  0  0
 51 58  1  6  0  0  0
 51 56  1  0  0  0  0
 53 52  2  0  0  0  0
 54 52  1  0  0  0  0
 55 54  2  0  0  0  0
 56 57  2  0  0  0  0
 56 55  1  0  0  0  0
 57 53  1  0  0  0  0
 58 59  1  0  0  0  0
 61 62  1  0  0  0  0
 62 59  1  0  0  0  0
 62 60  1  0  0  0  0
M  END
>  <MODEL>
8

>  <REMARK>
 VINA RESULT:      -4.7      3.034      8.284
  Name = 
  24 active torsions:
  status: ('A' for Active; 'I' for Inactive)
    1  A    between atoms: C_1  and  C_24
    2  A    between atoms: C_2  and  N_8
    3  A    between atoms: C_3  and  C_11
    4  A    between atoms: O_6  and  C_10
    5  A    between atoms: C_7  and  C_57
    6  A    between atoms: C_10  and  O_20
    7  A    between atoms: C_10  and  N_59
    8  A    between atoms: C_11  and  C_55
    9  A    between atoms: N_12  and  C_19
   10  A    between atoms: N_12  and  C_61
   11  A    between atoms: C_16  and  C_44
   12  A    between atoms: C_19  and  C_35
   13  A    between atoms: C_24  and  N_59
   14  A    between atoms: C_25  and  C_47
   15  A    between atoms: O_27  and  C_28
   16  A    between atoms: O_27  and  C_47
   17  A    between atoms: C_28  and  N_42
   18  A    between atoms: C_30  and  O_48
   19  A    between atoms: C_36  and  C_47
   20  A    between atoms: C_37  and  S_45
   21  A    between atoms: C_37  and  C_58
   22  A    between atoms: C_44  and  C_49
   23  A    between atoms: O_48  and  C_60
   24  A    between atoms: C_57  and  C_61
                            x       y       z     vdW  Elec       q    Type
                         _______ _______ _______ _____ _____    ______ ____

>  <TORSDO>
F 24

$$$$
=
 OpenBabel11042416333D

 62 66  0  0  1  0  0  0  0  0999 V2000
  193.7000  174.1660  142.7470 C   0  0  0  0  0  0  0  0  0  0  0  0
  192.5850  172.9920  143.2140 S   0  0  0  0  0  0  0  0  0  0  0  0
  191.2350  173.9910  143.0760 C   0  0  0  0  0  0  0  0  0  0  0  0
  188.9060  174.6980  142.9170 N   0  0  0  0  0  0  0  0  0  0  0  0
  190.6750  176.3940  142.6410 C   0  0  0  0  0  2  0  0  0  0  0  0
  193.6380  176.5350  142.2540 F   0  0  0  0  0  0  0  0  0  0  0  0
  193.0240  175.3670  142.5430 C   0  0  0  0  0  0  0  0  0  0  0  0
  191.6440  175.2590  142.7130 C   0  0  0  0  0  0  0  0  0  0  0  0
  189.8240  173.7100  143.4940 C   0  0  1  0  0  3  0  0  0  0  0  0
  189.2480  175.9040  142.5420 C   0  0  0  0  0  0  0  0  0  0  0  0
  195.1740  173.9500  142.7470 C   0  0  0  0  0  2  0  0  0  0  0  0
  196.0830  175.6130  144.0350 N   0  0  0  0  0  1  0  0  0  0  0  0
  195.7640  174.2490  144.0490 N   0  0  0  0  0  0  0  0  0  0  0  0
  197.0250  173.5130  144.1730 C   0  0  0  0  0  3  0  0  0  0  0  0
  196.7810  172.1350  144.2740 O   0  0  0  0  0  0  0  0  0  0  0  0
  197.8650  171.5230  143.6320 C   0  0  0  0  0  1  0  0  0  0  0  0
  197.7110  173.9440  145.3170 O   0  0  0  0  0  0  0  0  0  0  0  0
  197.0620  173.3120  146.3820 C   0  0  0  0  0  1  0  0  0  0  0  0
  189.3870  172.3130  143.0820 C   0  0  0  0  0  2  0  0  0  0  0  0
  190.3510  171.7620  141.6630 S   0  0  0  0  0  0  0  0  0  0  0  0
  188.4080  172.2720  140.0480 F   0  0  0  0  0  0  0  0  0  0  0  0
  189.6930  172.5460  140.4180 C   0  0  2  0  0  3  0  0  0  0  0  0
  190.5340  173.4750  139.6050 C   0  0  0  0  0  2  0  0  0  0  0  0
  190.9260  172.8390  138.3090 C   0  0  0  0  0  0  0  0  0  0  0  0
  191.8740  171.7570  138.2770 N   0  0  0  0  0  0  0  0  0  0  0  0
  190.3730  173.2340  137.2440 O   0  0  0  0  0  0  0  0  0  0  0  0
  191.8830  170.8530  137.1260 C   0  0  1  0  0  3  0  0  0  0  0  0
  193.2090  170.9200  136.3950 C   0  0  0  0  0  1  0  0  0  0  0  0
  191.5700  169.4130  137.5230 C   0  0  0  0  0  2  0  0  0  0  0  0
  190.0730  169.1970  137.6710 C   0  0  0  0  0  2  0  0  0  0  0  0
  189.3860  170.0260  136.7890 O   0  0  0  0  0  1  0  0  0  0  0  0
  192.7570  171.5420  139.4280 C   0  0  0  0  0  2  0  0  0  0  0  0
  195.2270  169.9270  140.8500 C   0  0  1  0  0  3  0  0  0  0  0  0
  194.4220  169.7050  139.5830 C   0  0  0  0  0  2  0  0  0  0  0  0
  195.2180  171.9960  139.5430 C   0  0  0  0  0  2  0  0  0  0  0  0
  194.1420  171.0720  138.9930 C   0  0  2  0  0  3  0  0  0  0  0  0
  195.8880  171.2820  140.7030 C   0  0  0  0  0  2  0  0  0  0  0  0
  194.3400  169.9530  142.0050 N   0  0  0  0  0  2  0  0  0  0  0  0
  194.6940  169.3870  143.2730 C   0  0  0  0  0  0  0  0  0  0  0  0
  195.7780  168.7650  143.4190 O   0  0  0  0  0  0  0  0  0  0  0  0
  193.7850  169.5710  144.4370 C   0  0  0  0  0  2  0  0  0  0  0  0
  193.5200  168.2390  145.1240 C   0  0  0  0  0  2  0  0  0  0  0  0
  194.2520  168.1710  146.3840 N   0  0  0  0  0  1  0  0  0  0  0  0
  188.2890  176.7780  142.0310 O   0  0  0  0  0  0  0  0  0  0  0  0
  187.3000  177.8760  144.9010 C   0  0  1  0  0  3  0  0  0  0  0  0
  187.9150  177.9790  142.6920 C   0  0  1  0  0  3  0  0  0  0  0  0
  186.4450  178.0610  142.7700 C   0  0  0  0  0  0  0  0  0  0  0  0
  188.4080  177.9540  144.0150 O   0  0  0  0  0  0  0  0  0  0  0  0
  185.6440  178.2820  141.7320 C   0  0  0  0  0  2  0  0  0  0  0  0
  185.9860  178.0020  144.1510 C   0  0  0  0  0  2  0  0  0  0  0  0
  187.3470  176.5940  145.7440 C   0  0  1  0  0  3  0  0  0  0  0  0
  191.1880  175.9540  147.5760 C   0  0  0  0  0  3  0  0  0  0  0  0
  190.2630  174.9060  147.4950 C   0  0  0  0  0  3  0  0  0  0  0  0
  190.8620  177.2190  147.0780 C   0  0  0  0  0  3  0  0  0  0  0  0
  189.6100  177.4380  146.5000 C   0  0  0  0  0  3  0  0  0  0  0  0
  188.6740  176.3940  146.4230 C   0  0  0  0  0  0  0  0  0  0  0  0
  189.0100  175.1260  146.9170 C   0  0  0  0  0  3  0  0  0  0  0  0
  186.3070  176.6020  146.6790 O   0  0  0  0  0  0  0  0  0  0  0  0
  186.6280  177.6400  147.5580 C   0  0  0  0  0  2  0  0  0  0  0  0
  185.7220  179.7900  147.5130 C   0  0  0  0  0  1  0  0  0  0  0  0
  184.3950  177.9610  146.9490 C   0  0  0  0  0  1  0  0  0  0  0  0
  185.4310  178.4090  147.8610 N   0  0  0  0  0  0  0  0  0  0  0  0
  1  2  1  0  0  0  0
  3  2  1  0  0  0  0
  3  9  1  0  0  0  0
  4  9  1  0  0  0  0
  5  8  1  0  0  0  0
  6  7  1  0  0  0  0
  7  8  1  0  0  0  0
  7  1  2  0  0  0  0
  8  3  2  0  0  0  0
  9 19  1  6  0  0  0
 10  5  1  0  0  0  0
 10  4  2  0  0  0  0
 11  1  1  0  0  0  0
 11 13  1  0  0  0  0
 12 13  1  0  0  0  0
 13 14  1  0  0  0  0
 14 15  1  0  0  0  0
 14 17  1  0  0  0  0
 16 15  1  0  0  0  0
 17 18  1  0  0  0  0
 20 19  1  0  0  0  0
 22 21  1  6  0  0  0
 22 20  1  0  0  0  0
 23 22  1  0  0  0  0
 24 23  1  0  0  0  0
 25 24  1  0  0  0  0
 25 32  1  0  0  0  0
 26 24  2  0  0  0  0
 27 28  1  1  0  0  0
 27 29  1  0  0  0  0
 27 25  1  0  0  0  0
 29 30  1  0  0  0  0
 31 30  1  0  0  0  0
 33 38  1  1  0  0  0
 34 33  1  0  0  0  0
 35 37  1  0  0  0  0
 36 32  1  1  0  0  0
 36 35  1  0  0  0  0
 36 34  1  0  0  0  0
 37 33  1  0  0  0  0
 38 39  1  0  0  0  0
 39 40  2  0  0  0  0
 39 41  1  0  0  0  0
 41 42  1  0  0  0  0
 42 43  1  0  0  0  0
 44 10  1  0  0  0  0
 45 51  1  6  0  0  0
 46 44  1  1  0  0  0
 46 47  1  0  0  0  0
 46 48  1  0  0  0  0
 47 50  1  0  0  0  0
 48 45  1  0  0  0  0
 49 47  2  0  0  0  0
 50 45  1  0  0  0  0
 51 56  1  0  0  0  0
 51 58  1  1  0  0  0
 53 52  1  0  0  0  0
 54 52  2  0  0  0  0
 55 54  1  0  0  0  0
 56 55  2  0  0  0  0
 56 57  1  0  0  0  0
 57 53  2  0  0  0  0
 58 59  1  0  0  0  0
 59 62  1  0  0  0  0
 60 62  1  0  0  0  0
 61 62  1  0  0  0  0
M  END
>  <MODEL>
9

>  <REMARK>
 VINA RESULT:      -4.6      2.656      3.848
  Name = 
  24 active torsions:
  status: ('A' for Active; 'I' for Inactive)
    1  A    between atoms: C_1  and  C_24
    2  A    between atoms: C_2  and  N_8
    3  A    between atoms: C_3  and  C_11
    4  A    between atoms: O_6  and  C_10
    5  A    between atoms: C_7  and  C_57
    6  A    between atoms: C_10  and  O_20
    7  A    between atoms: C_10  and  N_59
    8  A    between atoms: C_11  and  C_55
    9  A    between atoms: N_12  and  C_19
   10  A    between atoms: N_12  and  C_61
   11  A    between atoms: C_16  and  C_44
   12  A    between atoms: C_19  and  C_35
   13  A    between atoms: C_24  and  N_59
   14  A    between atoms: C_25  and  C_47
   15  A    between atoms: O_27  and  C_28
   16  A    between atoms: O_27  and  C_47
   17  A    between atoms: C_28  and  N_42
   18  A    between atoms: C_30  and  O_48
   19  A    between atoms: C_36  and  C_47
   20  A    between atoms: C_37  and  S_45
   21  A    between atoms: C_37  and  C_58
   22  A    between atoms: C_44  and  C_49
   23  A    between atoms: O_48  and  C_60
   24  A    between atoms: C_57  and  C_61
                            x       y       z     vdW  Elec       q    Type
                         _______ _______ _______ _____ _____    ______ ____

>  <TORSDO>
F 24

$$$$
