=
 OpenBabel11042418533D

 27 32  0  0  1  0  0  0  0  0999 V2000
  188.8690  175.2670  141.8550 N   0  0  0  0  0  0  0  0  0  0  0  0
  190.5090  176.6520  142.9850 C   0  0  0  0  0  2  0  0  0  0  0  0
  194.4000  175.7690  146.1310 C   0  0  0  0  0  3  0  0  0  0  0  0
  191.6860  175.8360  145.5900 C   0  0  0  0  0  0  0  0  0  0  0  0
  187.3450  177.7330  144.0850 C   0  0  0  0  0  2  0  0  0  0  0  0
  185.8920  178.8810  145.7930 C   0  0  0  0  0  3  0  0  0  0  0  0
  187.8360  175.6440  142.7800 C   0  0  0  0  0  0  0  0  0  0  0  0
  192.2020  176.3840  146.7540 C   0  0  0  0  0  0  0  0  0  0  0  0
  187.3800  177.5560  146.7430 C   0  0  0  0  0  0  0  0  0  0  0  0
  193.5360  176.3440  147.0130 N   0  0  0  0  0  0  0  0  0  0  0  0
  190.1940  175.8700  145.4690 C   0  0  2  0  0  3  0  0  0  0  0  0
  189.6670  176.7090  144.2660 C   0  0  2  0  0  3  0  0  0  0  0  0
  192.5460  175.2070  144.6880 C   0  0  0  0  0  3  0  0  0  0  0  0
  188.1590  176.4400  144.0170 C   0  0  1  0  0  3  0  0  0  0  0  0
  190.2650  175.3470  142.2510 C   0  0  0  0  0  2  0  0  0  0  0  0
  186.6400  175.3080  142.5600 O   0  0  0  0  0  0  0  0  0  0  0  0
  191.0150  176.9940  147.9250 S   0  0  0  0  0  0  0  0  0  0  0  0
  188.5520  177.0050  146.8690 C   0  0  0  0  0  0  0  0  0  0  0  0
  193.9190  175.1850  144.9520 C   0  0  0  0  0  3  0  0  0  0  0  0
  185.8230  178.9920  147.2210 N   0  0  0  0  0  0  0  0  0  0  0  0
  186.8340  178.0040  145.4750 C   0  0  0  0  0  0  0  0  0  0  0  0
  186.6960  178.2480  147.7700 N   0  0  0  0  0  0  0  0  0  0  0  0
  189.7310  176.4580  146.7920 C   0  0  0  0  0  0  0  0  0  0  0  0
  188.5510  174.7150  140.5460 C   0  0  0  0  0  2  0  0  0  0  0  0
  188.5900  173.1970  140.5900 C   0  0  0  0  0  3  0  0  0  0  0  0
  189.6670  172.7030  139.6500 C   0  0  0  0  0  2  0  0  0  0  0  0
  188.2130  172.6480  139.2300 C   0  0  0  0  0  2  0  0  0  0  0  0
  1 15  1  0  0  0  0
  1  7  1  0  0  0  0
  3 10  1  0  0  0  0
  4  8  1  0  0  0  0
  5 21  1  0  0  0  0
  6 20  1  0  0  0  0
  7 14  1  0  0  0  0
  8 10  2  0  0  0  0
  8 17  1  0  0  0  0
  9 18  2  0  0  0  0
  9 22  1  0  0  0  0
 11  4  1  1  0  0  0
 11 23  1  0  0  0  0
 12  2  1  6  0  0  0
 12 11  1  0  0  0  0
 13 19  1  0  0  0  0
 13  4  2  0  0  0  0
 14  5  1  6  0  0  0
 14 12  1  0  0  0  0
 15  2  1  0  0  0  0
 16  7  2  0  0  0  0
 19  3  2  0  0  0  0
 20 22  2  0  0  0  0
 21  6  2  0  0  0  0
 21  9  1  0  0  0  0
 23 18  2  0  0  0  0
 23 17  1  0  0  0  0
 24 25  1  0  0  0  0
 24  1  1  0  0  0  0
 26 25  1  0  0  0  0
 27 26  1  0  0  0  0
 27 25  1  0  0  0  0
M  END
>  <MODEL>
1

>  <REMARK>
 VINA RESULT:      -7.6      0.000      0.000
  Name = 
  2 active torsions:
  status: ('A' for Active; 'I' for Inactive)
    1  A    between atoms: C_1  and  N_2
    2  A    between atoms: C_1  and  C_5
                            x       y       z     vdW  Elec       q    Type
                         _______ _______ _______ _____ _____    ______ ____

>  <TORSDO>
F 2

$$$$
=
 OpenBabel11042418533D

 27 32  0  0  1  0  0  0  0  0999 V2000
  191.1170  175.6690  146.2660 N   0  0  0  0  0  0  0  0  0  0  0  0
  189.5680  174.5310  144.7850 C   0  0  0  0  0  2  0  0  0  0  0  0
  189.1710  173.9680  139.7510 C   0  0  0  0  0  3  0  0  0  0  0  0
  189.0490  175.5300  142.0340 C   0  0  0  0  0  0  0  0  0  0  0  0
  187.6790  176.8660  146.6210 C   0  0  0  0  0  2  0  0  0  0  0  0
  185.6350  178.3150  146.8770 C   0  0  0  0  0  3  0  0  0  0  0  0
  190.1850  176.7360  146.5070 C   0  0  0  0  0  0  0  0  0  0  0  0
  188.0470  175.5720  141.0770 C   0  0  0  0  0  0  0  0  0  0  0  0
  186.4470  178.4020  144.8260 C   0  0  0  0  0  0  0  0  0  0  0  0
  188.1160  174.8030  139.9580 N   0  0  0  0  0  0  0  0  0  0  0  0
  188.8930  176.4880  143.1730 C   0  0  2  0  0  3  0  0  0  0  0  0
  188.7460  175.8080  144.5670 C   0  0  2  0  0  3  0  0  0  0  0  0
  190.1610  174.7090  141.8260 C   0  0  0  0  0  3  0  0  0  0  0  0
  188.9090  176.8410  145.7130 C   0  0  1  0  0  3  0  0  0  0  0  0
  191.0220  174.8800  145.0490 C   0  0  0  0  0  2  0  0  0  0  0  0
  190.4300  177.5980  147.3940 O   0  0  0  0  0  0  0  0  0  0  0  0
  186.7700  176.7780  141.3360 S   0  0  0  0  0  0  0  0  0  0  0  0
  186.9960  177.9030  143.7580 C   0  0  0  0  0  0  0  0  0  0  0  0
  190.2170  173.9090  140.6810 C   0  0  0  0  0  3  0  0  0  0  0  0
  184.7880  179.1090  146.0350 N   0  0  0  0  0  0  0  0  0  0  0  0
  186.6600  177.8750  146.1620 C   0  0  0  0  0  0  0  0  0  0  0  0
  185.2400  179.1410  144.8470 N   0  0  0  0  0  0  0  0  0  0  0  0
  187.6490  177.2840  142.8170 C   0  0  0  0  0  0  0  0  0  0  0  0
  192.2250  175.4100  147.1750 C   0  0  0  0  0  2  0  0  0  0  0  0
  193.3350  176.4220  146.9540 C   0  0  0  0  0  3  0  0  0  0  0  0
  193.6590  176.4860  145.4770 C   0  0  0  0  0  2  0  0  0  0  0  0
  194.5600  175.7100  146.4160 C   0  0  0  0  0  2  0  0  0  0  0  0
  1  7  1  0  0  0  0
  1 24  1  0  0  0  0
  2 15  1  0  0  0  0
  3 10  2  0  0  0  0
  3 19  1  0  0  0  0
  7 16  2  0  0  0  0
  8 17  1  0  0  0  0
  8  4  2  0  0  0  0
  9 22  1  0  0  0  0
  9 21  1  0  0  0  0
 10  8  1  0  0  0  0
 11  4  1  6  0  0  0
 11 12  1  0  0  0  0
 12  2  1  1  0  0  0
 12 14  1  0  0  0  0
 13  4  1  0  0  0  0
 14  7  1  0  0  0  0
 14  5  1  1  0  0  0
 15  1  1  0  0  0  0
 17 23  1  0  0  0  0
 18  9  2  0  0  0  0
 19 13  2  0  0  0  0
 20  6  1  0  0  0  0
 21  5  1  0  0  0  0
 21  6  2  0  0  0  0
 22 20  2  0  0  0  0
 23 11  1  0  0  0  0
 23 18  2  0  0  0  0
 25 24  1  0  0  0  0
 26 27  1  0  0  0  0
 26 25  1  0  0  0  0
 27 25  1  0  0  0  0
M  END
>  <MODEL>
2

>  <REMARK>
 VINA RESULT:      -7.5      2.393      5.474
  Name = 
  2 active torsions:
  status: ('A' for Active; 'I' for Inactive)
    1  A    between atoms: C_1  and  N_2
    2  A    between atoms: C_1  and  C_5
                            x       y       z     vdW  Elec       q    Type
                         _______ _______ _______ _____ _____    ______ ____

>  <TORSDO>
F 2

$$$$
=
 OpenBabel11042418533D

 27 32  0  0  1  0  0  0  0  0999 V2000
  187.7740  177.3670  144.3490 N   0  0  0  0  0  0  0  0  0  0  0  0
  189.2860  175.6820  145.2230 C   0  0  0  0  0  2  0  0  0  0  0  0
  194.2280  175.5510  146.3940 C   0  0  0  0  0  3  0  0  0  0  0  0
  192.1790  175.7000  144.5390 C   0  0  0  0  0  0  0  0  0  0  0  0
  187.9810  174.4040  142.2140 C   0  0  0  0  0  2  0  0  0  0  0  0
  188.1470  172.8520  140.2370 C   0  0  0  0  0  3  0  0  0  0  0  0
  187.7760  176.7660  143.0440 C   0  0  0  0  0  0  0  0  0  0  0  0
  193.2470  174.8340  144.3650 C   0  0  0  0  0  0  0  0  0  0  0  0
  190.0800  173.8200  140.6810 C   0  0  0  0  0  0  0  0  0  0  0  0
  194.2500  174.7700  145.2800 N   0  0  0  0  0  0  0  0  0  0  0  0
  191.1880  175.7350  143.4180 C   0  0  2  0  0  3  0  0  0  0  0  0
  189.7510  175.2840  143.8170 C   0  0  2  0  0  3  0  0  0  0  0  0
  192.1520  176.5400  145.6550 C   0  0  0  0  0  3  0  0  0  0  0  0
  188.7250  175.6450  142.7100 C   0  0  1  0  0  3  0  0  0  0  0  0
  188.8920  177.1470  145.2530 C   0  0  0  0  0  2  0  0  0  0  0  0
  186.9750  177.1770  142.1610 O   0  0  0  0  0  0  0  0  0  0  0  0
  193.2890  173.9430  142.8300 S   0  0  0  0  0  0  0  0  0  0  0  0
  191.0080  174.2870  141.4650 C   0  0  0  0  0  0  0  0  0  0  0  0
  193.1790  176.4560  146.6000 C   0  0  0  0  0  3  0  0  0  0  0  0
  189.1720  172.3430  139.3750 N   0  0  0  0  0  0  0  0  0  0  0  0
  188.6760  173.7620  141.0430 C   0  0  0  0  0  0  0  0  0  0  0  0
  190.2930  172.8810  139.6450 N   0  0  0  0  0  0  0  0  0  0  0  0
  191.7830  174.8070  142.3720 C   0  0  0  0  0  0  0  0  0  0  0  0
  186.7150  178.2740  144.7660 C   0  0  0  0  0  2  0  0  0  0  0  0
  186.2680  177.9500  146.1800 C   0  0  0  0  0  3  0  0  0  0  0  0
  185.3220  176.7690  146.1410 C   0  0  0  0  0  2  0  0  0  0  0  0
  184.7740  178.1720  146.2960 C   0  0  0  0  0  2  0  0  0  0  0  0
  1 24  1  0  0  0  0
  1 15  1  0  0  0  0
  2 15  1  0  0  0  0
  3 19  1  0  0  0  0
  4 13  1  0  0  0  0
  6 21  2  0  0  0  0
  7  1  1  0  0  0  0
  8  4  2  0  0  0  0
  8 10  1  0  0  0  0
  9 21  1  0  0  0  0
  9 18  2  0  0  0  0
 10  3  2  0  0  0  0
 11 23  1  6  0  0  0
 11 12  1  0  0  0  0
 11  4  1  0  0  0  0
 12  2  1  1  0  0  0
 13 19  2  0  0  0  0
 14  5  1  1  0  0  0
 14  7  1  0  0  0  0
 14 12  1  0  0  0  0
 16  7  2  0  0  0  0
 17  8  1  0  0  0  0
 18 23  2  0  0  0  0
 20 22  2  0  0  0  0
 20  6  1  0  0  0  0
 21  5  1  0  0  0  0
 22  9  1  0  0  0  0
 23 17  1  0  0  0  0
 24 25  1  0  0  0  0
 25 27  1  0  0  0  0
 26 25  1  0  0  0  0
 26 27  1  0  0  0  0
M  END
>  <MODEL>
3

>  <REMARK>
 VINA RESULT:      -7.5      2.097      5.632
  Name = 
  2 active torsions:
  status: ('A' for Active; 'I' for Inactive)
    1  A    between atoms: C_1  and  N_2
    2  A    between atoms: C_1  and  C_5
                            x       y       z     vdW  Elec       q    Type
                         _______ _______ _______ _____ _____    ______ ____

>  <TORSDO>
F 2

$$$$
=
 OpenBabel11042418533D

 27 32  0  0  1  0  0  0  0  0999 V2000
  184.8090  177.9660  141.5080 N   0  0  0  0  0  0  0  0  0  0  0  0
  185.1780  176.9660  143.6880 C   0  0  0  0  0  2  0  0  0  0  0  0
  186.4470  178.7290  148.2800 C   0  0  0  0  0  3  0  0  0  0  0  0
  187.0660  178.1730  145.6400 C   0  0  0  0  0  0  0  0  0  0  0  0
  187.4850  175.4720  141.4880 C   0  0  0  0  0  2  0  0  0  0  0  0
  189.6470  174.2450  141.0820 C   0  0  0  0  0  3  0  0  0  0  0  0
  186.0790  177.5010  141.0220 C   0  0  0  0  0  0  0  0  0  0  0  0
  187.9200  177.8150  146.6720 C   0  0  0  0  0  0  0  0  0  0  0  0
  189.8940  175.8690  142.5560 C   0  0  0  0  0  0  0  0  0  0  0  0
  187.6090  178.0950  147.9650 N   0  0  0  0  0  0  0  0  0  0  0  0
  187.5670  177.8850  144.2600 C   0  0  2  0  0  3  0  0  0  0  0  0
  186.6910  176.8760  143.4570 C   0  0  2  0  0  3  0  0  0  0  0  0
  185.8860  178.8600  145.9350 C   0  0  0  0  0  3  0  0  0  0  0  0
  187.0800  176.8720  141.9550 C   0  0  1  0  0  3  0  0  0  0  0  0
  184.5990  178.1490  142.9350 C   0  0  0  0  0  2  0  0  0  0  0  0
  186.3660  177.6160  139.8000 O   0  0  0  0  0  0  0  0  0  0  0  0
  189.4780  177.1150  146.1890 S   0  0  0  0  0  0  0  0  0  0  0  0
  189.5250  176.6140  143.5560 C   0  0  0  0  0  0  0  0  0  0  0  0
  185.5640  179.1290  147.2690 C   0  0  0  0  0  3  0  0  0  0  0  0
  190.9780  174.2410  141.6130 N   0  0  0  0  0  0  0  0  0  0  0  0
  188.9640  175.2350  141.6390 C   0  0  0  0  0  0  0  0  0  0  0  0
  191.1160  175.1600  142.4810 N   0  0  0  0  0  0  0  0  0  0  0  0
  188.9670  177.3390  144.4830 C   0  0  0  0  0  0  0  0  0  0  0  0
  183.7410  178.3500  140.5960 C   0  0  0  0  0  2  0  0  0  0  0  0
  182.3870  178.0900  141.2300 C   0  0  0  0  0  3  0  0  0  0  0  0
  181.3540  177.9160  140.1380 C   0  0  0  0  0  2  0  0  0  0  0  0
  181.4480  179.2280  140.8880 C   0  0  0  0  0  2  0  0  0  0  0  0
  1 15  1  0  0  0  0
  4 13  2  0  0  0  0
  4  8  1  0  0  0  0
  5 21  1  0  0  0  0
  6 20  1  0  0  0  0
  6 21  2  0  0  0  0
  7  1  1  0  0  0  0
  7 14  1  0  0  0  0
  8 10  2  0  0  0  0
  9 18  2  0  0  0  0
 10  3  1  0  0  0  0
 11 23  1  1  0  0  0
 11  4  1  0  0  0  0
 12  2  1  6  0  0  0
 12 11  1  0  0  0  0
 13 19  1  0  0  0  0
 14  5  1  6  0  0  0
 14 12  1  0  0  0  0
 15  2  1  0  0  0  0
 16  7  2  0  0  0  0
 17  8  1  0  0  0  0
 18 23  2  0  0  0  0
 19  3  2  0  0  0  0
 20 22  2  0  0  0  0
 21  9  1  0  0  0  0
 22  9  1  0  0  0  0
 23 17  1  0  0  0  0
 24 25  1  0  0  0  0
 24  1  1  0  0  0  0
 26 27  1  0  0  0  0
 26 25  1  0  0  0  0
 27 25  1  0  0  0  0
M  END
>  <MODEL>
4

>  <REMARK>
 VINA RESULT:      -7.4      3.050      6.173
  Name = 
  2 active torsions:
  status: ('A' for Active; 'I' for Inactive)
    1  A    between atoms: C_1  and  N_2
    2  A    between atoms: C_1  and  C_5
                            x       y       z     vdW  Elec       q    Type
                         _______ _______ _______ _____ _____    ______ ____

>  <TORSDO>
F 2

$$$$
=
 OpenBabel11042418533D

 27 32  0  0  1  0  0  0  0  0999 V2000
  187.5310  177.7150  144.3760 N   0  0  0  0  0  0  0  0  0  0  0  0
  188.9690  177.2890  142.4680 C   0  0  0  0  0  2  0  0  0  0  0  0
  189.1610  173.7410  138.8370 C   0  0  0  0  0  3  0  0  0  0  0  0
  189.4390  174.5270  141.4770 C   0  0  0  0  0  0  0  0  0  0  0  0
  191.0340  177.2480  145.3190 C   0  0  0  0  0  2  0  0  0  0  0  0
  193.1550  176.5400  146.4780 C   0  0  0  0  0  3  0  0  0  0  0  0
  188.5220  177.2330  145.2970 C   0  0  0  0  0  0  0  0  0  0  0  0
  190.4080  173.7630  140.8460 C   0  0  0  0  0  0  0  0  0  0  0  0
  192.2760  174.8920  145.3030 C   0  0  0  0  0  0  0  0  0  0  0  0
  190.2620  173.3790  139.5500 N   0  0  0  0  0  0  0  0  0  0  0  0
  189.6820  174.8070  142.9270 C   0  0  2  0  0  3  0  0  0  0  0  0
  189.8450  176.3190  143.2700 C   0  0  2  0  0  3  0  0  0  0  0  0
  188.2830  174.8800  140.7780 C   0  0  0  0  0  3  0  0  0  0  0  0
  189.7730  176.5550  144.8010 C   0  0  1  0  0  3  0  0  0  0  0  0
  187.5450  177.2700  142.9920 C   0  0  0  0  0  2  0  0  0  0  0  0
  188.3510  177.3750  146.5380 O   0  0  0  0  0  0  0  0  0  0  0  0
  191.7520  173.2070  141.8660 S   0  0  0  0  0  0  0  0  0  0  0  0
  191.6660  174.3750  144.2770 C   0  0  0  0  0  0  0  0  0  0  0  0
  188.1470  174.4960  139.4400 C   0  0  0  0  0  3  0  0  0  0  0  0
  194.0090  175.3900  146.5120 N   0  0  0  0  0  0  0  0  0  0  0  0
  192.0840  176.2590  145.7490 C   0  0  0  0  0  0  0  0  0  0  0  0
  193.5170  174.4460  145.8160 N   0  0  0  0  0  0  0  0  0  0  0  0
  190.9510  174.0340  143.2440 C   0  0  0  0  0  0  0  0  0  0  0  0
  186.4440  178.5790  144.8140 C   0  0  0  0  0  2  0  0  0  0  0  0
  185.1630  177.7780  144.9680 C   0  0  0  0  0  3  0  0  0  0  0  0
  184.0790  178.6800  145.5160 C   0  0  0  0  0  2  0  0  0  0  0  0
  184.7910  177.7090  146.4350 C   0  0  0  0  0  2  0  0  0  0  0  0
  1 24  1  0  0  0  0
  1  7  1  0  0  0  0
  2 15  1  0  0  0  0
  3 19  2  0  0  0  0
  3 10  1  0  0  0  0
  5 21  1  0  0  0  0
  6 20  1  0  0  0  0
  7 16  2  0  0  0  0
  8  4  1  0  0  0  0
  8 17  1  0  0  0  0
  9 21  1  0  0  0  0
  9 22  1  0  0  0  0
 10  8  2  0  0  0  0
 11  4  1  6  0  0  0
 11 23  1  0  0  0  0
 11 12  1  0  0  0  0
 12  2  1  6  0  0  0
 12 14  1  0  0  0  0
 13  4  2  0  0  0  0
 14  7  1  0  0  0  0
 14  5  1  6  0  0  0
 15  1  1  0  0  0  0
 17 23  1  0  0  0  0
 18  9  2  0  0  0  0
 19 13  1  0  0  0  0
 21  6  2  0  0  0  0
 22 20  2  0  0  0  0
 23 18  2  0  0  0  0
 24 25  1  0  0  0  0
 25 26  1  0  0  0  0
 25 27  1  0  0  0  0
 26 27  1  0  0  0  0
M  END
>  <MODEL>
5

>  <REMARK>
 VINA RESULT:      -7.3      2.342      6.260
  Name = 
  2 active torsions:
  status: ('A' for Active; 'I' for Inactive)
    1  A    between atoms: C_1  and  N_2
    2  A    between atoms: C_1  and  C_5
                            x       y       z     vdW  Elec       q    Type
                         _______ _______ _______ _____ _____    ______ ____

>  <TORSDO>
F 2

$$$$
=
 OpenBabel11042418533D

 27 32  0  0  1  0  0  0  0  0999 V2000
  187.4170  177.6390  142.8600 N   0  0  0  0  0  0  0  0  0  0  0  0
  188.3720  175.9150  144.2750 C   0  0  0  0  0  2  0  0  0  0  0  0
  192.7050  175.3950  146.8750 C   0  0  0  0  0  3  0  0  0  0  0  0
  191.3140  175.5470  144.4870 C   0  0  0  0  0  0  0  0  0  0  0  0
  187.8230  174.4460  141.1240 C   0  0  0  0  0  2  0  0  0  0  0  0
  188.3380  172.6680  139.4150 C   0  0  0  0  0  3  0  0  0  0  0  0
  187.7110  176.8960  141.6660 C   0  0  0  0  0  0  0  0  0  0  0  0
  192.2590  174.5580  144.7090 C   0  0  0  0  0  0  0  0  0  0  0  0
  190.1750  173.4700  140.3390 C   0  0  0  0  0  0  0  0  0  0  0  0
  192.9400  174.4930  145.8830 N   0  0  0  0  0  0  0  0  0  0  0  0
  190.7000  175.5580  143.1220 C   0  0  2  0  0  3  0  0  0  0  0  0
  189.1620  175.3110  143.1080 C   0  0  2  0  0  3  0  0  0  0  0  0
  191.0820  176.5070  145.4750 C   0  0  0  0  0  3  0  0  0  0  0  0
  188.5550  175.6490  141.7210 C   0  0  1  0  0  3  0  0  0  0  0  0
  188.1870  177.4070  144.0710 C   0  0  0  0  0  2  0  0  0  0  0  0
  187.2600  177.2850  140.5550 O   0  0  0  0  0  0  0  0  0  0  0  0
  192.6180  173.4970  143.3310 S   0  0  0  0  0  0  0  0  0  0  0  0
  190.8930  173.9220  141.3240 C   0  0  0  0  0  0  0  0  0  0  0  0
  191.7740  176.4240  146.6870 C   0  0  0  0  0  3  0  0  0  0  0  0
  189.4880  171.9570  138.9410 N   0  0  0  0  0  0  0  0  0  0  0  0
  188.7310  173.6030  140.2680 C   0  0  0  0  0  0  0  0  0  0  0  0
  190.5460  172.4000  139.4900 N   0  0  0  0  0  0  0  0  0  0  0  0
  191.4390  174.4580  142.3780 C   0  0  0  0  0  0  0  0  0  0  0  0
  186.4150  178.6960  142.8680 C   0  0  0  0  0  2  0  0  0  0  0  0
  185.9890  179.0070  144.2920 C   0  0  0  0  0  3  0  0  0  0  0  0
  184.6770  178.3100  144.5800 C   0  0  0  0  0  2  0  0  0  0  0  0
  184.6940  179.7920  144.2660 C   0  0  0  0  0  2  0  0  0  0  0  0
  1 24  1  0  0  0  0
  1 15  1  0  0  0  0
  4  8  2  0  0  0  0
  4 13  1  0  0  0  0
  6 21  2  0  0  0  0
  7 14  1  0  0  0  0
  7  1  1  0  0  0  0
  8 10  1  0  0  0  0
  9 18  2  0  0  0  0
 10  3  2  0  0  0  0
 11 23  1  6  0  0  0
 11  4  1  0  0  0  0
 12 11  1  0  0  0  0
 12  2  1  1  0  0  0
 13 19  2  0  0  0  0
 14  5  1  1  0  0  0
 14 12  1  0  0  0  0
 15  2  1  0  0  0  0
 16  7  2  0  0  0  0
 17  8  1  0  0  0  0
 18 23  2  0  0  0  0
 19  3  1  0  0  0  0
 20  6  1  0  0  0  0
 20 22  2  0  0  0  0
 21  9  1  0  0  0  0
 21  5  1  0  0  0  0
 22  9  1  0  0  0  0
 23 17  1  0  0  0  0
 24 25  1  0  0  0  0
 25 26  1  0  0  0  0
 27 25  1  0  0  0  0
 27 26  1  0  0  0  0
M  END
>  <MODEL>
6

>  <REMARK>
 VINA RESULT:      -7.1      2.362      5.813
  Name = 
  2 active torsions:
  status: ('A' for Active; 'I' for Inactive)
    1  A    between atoms: C_1  and  N_2
    2  A    between atoms: C_1  and  C_5
                            x       y       z     vdW  Elec       q    Type
                         _______ _______ _______ _____ _____    ______ ____

>  <TORSDO>
F 2

$$$$
=
 OpenBabel11042418533D

 27 32  0  0  1  0  0  0  0  0999 V2000
  186.1470  176.8820  143.6620 N   0  0  0  0  0  0  0  0  0  0  0  0
  188.2100  176.7680  142.3910 C   0  0  0  0  0  2  0  0  0  0  0  0
  190.4040  173.2860  139.4120 C   0  0  0  0  0  3  0  0  0  0  0  0
  189.5780  174.1750  141.9000 C   0  0  0  0  0  0  0  0  0  0  0  0
  189.1230  177.2840  145.7510 C   0  0  0  0  0  2  0  0  0  0  0  0
  190.8130  177.1280  147.6120 C   0  0  0  0  0  3  0  0  0  0  0  0
  186.8390  176.6710  144.9040 C   0  0  0  0  0  0  0  0  0  0  0  0
  190.8450  173.6490  141.7060 C   0  0  0  0  0  0  0  0  0  0  0  0
  190.7710  175.2910  146.3890 C   0  0  0  0  0  0  0  0  0  0  0  0
  191.2420  173.2120  140.4820 N   0  0  0  0  0  0  0  0  0  0  0  0
  189.2390  174.5380  143.3120 C   0  0  2  0  0  3  0  0  0  0  0  0
  188.9430  176.0520  143.5320 C   0  0  2  0  0  3  0  0  0  0  0  0
  188.6860  174.2260  140.8260 C   0  0  0  0  0  3  0  0  0  0  0  0
  188.2980  176.2990  144.9210 C   0  0  1  0  0  3  0  0  0  0  0  0
  186.7330  176.4210  142.4140 C   0  0  0  0  0  2  0  0  0  0  0  0
  186.2240  176.7970  145.9970 O   0  0  0  0  0  0  0  0  0  0  0  0
  191.8410  173.4530  143.1640 S   0  0  0  0  0  0  0  0  0  0  0  0
  190.6790  174.6210  145.2780 C   0  0  0  0  0  0  0  0  0  0  0  0
  189.1060  173.7910  139.5650 C   0  0  0  0  0  3  0  0  0  0  0  0
  191.8300  176.2150  148.0440 N   0  0  0  0  0  0  0  0  0  0  0  0
  190.1470  176.5840  146.6030 C   0  0  0  0  0  0  0  0  0  0  0  0
  191.8250  175.1660  147.3250 N   0  0  0  0  0  0  0  0  0  0  0  0
  190.4560  174.0960  144.1070 C   0  0  0  0  0  0  0  0  0  0  0  0
  184.8160  177.4730  143.6270 C   0  0  0  0  0  2  0  0  0  0  0  0
  184.8910  178.9100  143.1430 C   0  0  0  0  0  3  0  0  0  0  0  0
  185.9350  179.6510  143.9490 C   0  0  0  0  0  2  0  0  0  0  0  0
  184.4650  179.8370  144.2630 C   0  0  0  0  0  2  0  0  0  0  0  0
  1  7  1  0  0  0  0
  2 15  1  0  0  0  0
  3 19  2  0  0  0  0
  3 10  1  0  0  0  0
  5 21  1  0  0  0  0
  6 20  1  0  0  0  0
  7 14  1  0  0  0  0
  7 16  2  0  0  0  0
  8  4  1  0  0  0  0
  8 17  1  0  0  0  0
  9 21  1  0  0  0  0
  9 22  1  0  0  0  0
 10  8  2  0  0  0  0
 11  4  1  6  0  0  0
 11 12  1  0  0  0  0
 11 23  1  0  0  0  0
 12  2  1  6  0  0  0
 12 14  1  0  0  0  0
 13  4  2  0  0  0  0
 14  5  1  6  0  0  0
 15  1  1  0  0  0  0
 17 23  1  0  0  0  0
 18  9  2  0  0  0  0
 19 13  1  0  0  0  0
 21  6  2  0  0  0  0
 22 20  2  0  0  0  0
 23 18  2  0  0  0  0
 24  1  1  0  0  0  0
 25 24  1  0  0  0  0
 25 26  1  0  0  0  0
 25 27  1  0  0  0  0
 26 27  1  0  0  0  0
M  END
>  <MODEL>
7

>  <REMARK>
 VINA RESULT:      -7.0      2.471      5.424
  Name = 
  2 active torsions:
  status: ('A' for Active; 'I' for Inactive)
    1  A    between atoms: C_1  and  N_2
    2  A    between atoms: C_1  and  C_5
                            x       y       z     vdW  Elec       q    Type
                         _______ _______ _______ _____ _____    ______ ____

>  <TORSDO>
F 2

$$$$
=
 OpenBabel11042418533D

 27 32  0  0  1  0  0  0  0  0999 V2000
  189.5680  174.5090  141.0820 N   0  0  0  0  0  0  0  0  0  0  0  0
  187.5270  174.7920  142.3650 C   0  0  0  0  0  2  0  0  0  0  0  0
  183.8970  178.3380  142.6030 C   0  0  0  0  0  3  0  0  0  0  0  0
  186.4960  177.4940  143.0480 C   0  0  0  0  0  0  0  0  0  0  0  0
  190.1590  174.5640  144.6910 C   0  0  0  0  0  2  0  0  0  0  0  0
  191.1040  175.0130  146.9820 C   0  0  0  0  0  3  0  0  0  0  0  0
  190.3870  174.8650  142.2080 C   0  0  0  0  0  0  0  0  0  0  0  0
  185.7730  178.1510  144.0310 C   0  0  0  0  0  0  0  0  0  0  0  0
  190.0230  176.7650  146.1860 C   0  0  0  0  0  0  0  0  0  0  0  0
  184.4990  178.5650  143.8030 N   0  0  0  0  0  0  0  0  0  0  0  0
  187.9150  177.1710  143.3980 C   0  0  2  0  0  3  0  0  0  0  0  0
  188.2390  175.6470  143.4200 C   0  0  2  0  0  3  0  0  0  0  0  0
  185.9150  177.2840  141.7950 C   0  0  0  0  0  3  0  0  0  0  0  0
  189.7700  175.4030  143.4720 C   0  0  1  0  0  3  0  0  0  0  0  0
  188.1900  174.9670  141.0100 C   0  0  0  0  0  2  0  0  0  0  0  0
  191.6390  174.7280  142.1440 O   0  0  0  0  0  0  0  0  0  0  0  0
  186.6560  178.5380  145.5220 S   0  0  0  0  0  0  0  0  0  0  0  0
  189.0620  177.3590  145.5410 C   0  0  0  0  0  0  0  0  0  0  0  0
  184.5980  177.6960  141.5730 C   0  0  0  0  0  3  0  0  0  0  0  0
  191.0540  176.0580  147.9620 N   0  0  0  0  0  0  0  0  0  0  0  0
  190.4840  175.4220  145.8840 C   0  0  0  0  0  0  0  0  0  0  0  0
  190.4100  177.0600  147.5150 N   0  0  0  0  0  0  0  0  0  0  0  0
  188.1050  177.7920  144.7720 C   0  0  0  0  0  0  0  0  0  0  0  0
  190.1110  173.7680  139.9520 C   0  0  0  0  0  2  0  0  0  0  0  0
  189.5310  172.3660  139.9130 C   0  0  0  0  0  3  0  0  0  0  0  0
  190.4000  171.4480  140.7460 C   0  0  0  0  0  2  0  0  0  0  0  0
  190.5170  171.4360  139.2360 C   0  0  0  0  0  2  0  0  0  0  0  0
  1  7  1  0  0  0  0
  3 10  1  0  0  0  0
  4  8  1  0  0  0  0
  5 21  1  0  0  0  0
  6 20  1  0  0  0  0
  7 14  1  0  0  0  0
  8 17  1  0  0  0  0
  9 22  1  0  0  0  0
 10  8  2  0  0  0  0
 11  4  1  1  0  0  0
 11 12  1  0  0  0  0
 11 23  1  0  0  0  0
 12  2  1  6  0  0  0
 12 14  1  0  0  0  0
 13  4  2  0  0  0  0
 14  5  1  1  0  0  0
 15  1  1  0  0  0  0
 15  2  1  0  0  0  0
 16  7  2  0  0  0  0
 18  9  2  0  0  0  0
 19 13  1  0  0  0  0
 19  3  2  0  0  0  0
 21  9  1  0  0  0  0
 21  6  2  0  0  0  0
 22 20  2  0  0  0  0
 23 17  1  0  0  0  0
 23 18  2  0  0  0  0
 24  1  1  0  0  0  0
 25 24  1  0  0  0  0
 25 26  1  0  0  0  0
 27 25  1  0  0  0  0
 27 26  1  0  0  0  0
M  END
>  <MODEL>
8

>  <REMARK>
 VINA RESULT:      -7.0      2.364      5.247
  Name = 
  2 active torsions:
  status: ('A' for Active; 'I' for Inactive)
    1  A    between atoms: C_1  and  N_2
    2  A    between atoms: C_1  and  C_5
                            x       y       z     vdW  Elec       q    Type
                         _______ _______ _______ _____ _____    ______ ____

>  <TORSDO>
F 2

$$$$
=
 OpenBabel11042418533D

 27 32  0  0  1  0  0  0  0  0999 V2000
  189.8230  172.9770  141.5510 N   0  0  0  0  0  0  0  0  0  0  0  0
  190.9490  174.9400  142.4260 C   0  0  0  0  0  2  0  0  0  0  0  0
  193.7340  175.9390  146.5570 C   0  0  0  0  0  3  0  0  0  0  0  0
  191.3170  175.3320  145.3500 C   0  0  0  0  0  0  0  0  0  0  0  0
  187.5400  175.7720  142.1490 C   0  0  0  0  0  2  0  0  0  0  0  0
  185.5670  177.1830  142.8250 C   0  0  0  0  0  3  0  0  0  0  0  0
  188.5350  173.4740  141.9500 C   0  0  0  0  0  0  0  0  0  0  0  0
  191.4180  176.3420  146.2930 C   0  0  0  0  0  0  0  0  0  0  0  0
  186.7700  176.5690  144.5710 C   0  0  0  0  0  0  0  0  0  0  0  0
  192.6080  176.6310  146.8830 N   0  0  0  0  0  0  0  0  0  0  0  0
  189.9360  175.0590  144.8430 C   0  0  2  0  0  3  0  0  0  0  0  0
  189.7530  175.3030  143.3140 C   0  0  2  0  0  3  0  0  0  0  0  0
  192.4500  174.5820  145.0250 C   0  0  0  0  0  3  0  0  0  0  0  0
  188.4140  174.7040  142.8100 C   0  0  1  0  0  3  0  0  0  0  0  0
  191.0230  173.4360  142.2310 C   0  0  0  0  0  2  0  0  0  0  0  0
  187.4870  172.8780  141.5780 O   0  0  0  0  0  0  0  0  0  0  0  0
  189.8940  177.1140  146.7770 S   0  0  0  0  0  0  0  0  0  0  0  0
  187.8770  176.3140  145.2030 C   0  0  0  0  0  0  0  0  0  0  0  0
  193.6740  174.8960  145.6230 C   0  0  0  0  0  3  0  0  0  0  0  0
  185.0560  177.7850  144.0220 N   0  0  0  0  0  0  0  0  0  0  0  0
  186.6130  176.4300  143.1350 C   0  0  0  0  0  0  0  0  0  0  0  0
  185.7620  177.4530  145.0260 N   0  0  0  0  0  0  0  0  0  0  0  0
  189.0550  175.9910  145.6570 C   0  0  0  0  0  0  0  0  0  0  0  0
  189.9560  171.9450  140.5320 C   0  0  0  0  0  2  0  0  0  0  0  0
  190.7750  172.4620  139.3630 C   0  0  0  0  0  3  0  0  0  0  0  0
  189.9370  173.4370  138.5650 C   0  0  0  0  0  2  0  0  0  0  0  0
  190.1280  172.0200  138.0660 C   0  0  0  0  0  2  0  0  0  0  0  0
  1  7  1  0  0  0  0
  1 15  1  0  0  0  0
  3 10  1  0  0  0  0
  4  8  1  0  0  0  0
  5 21  1  0  0  0  0
  6 21  2  0  0  0  0
  6 20  1  0  0  0  0
  7 14  1  0  0  0  0
  8 17  1  0  0  0  0
  8 10  2  0  0  0  0
  9 22  1  0  0  0  0
  9 18  2  0  0  0  0
 11  4  1  1  0  0  0
 11 23  1  0  0  0  0
 12  2  1  6  0  0  0
 12 11  1  0  0  0  0
 13  4  2  0  0  0  0
 13 19  1  0  0  0  0
 14  5  1  6  0  0  0
 14 12  1  0  0  0  0
 15  2  1  0  0  0  0
 16  7  2  0  0  0  0
 18 23  2  0  0  0  0
 19  3  2  0  0  0  0
 20 22  2  0  0  0  0
 21  9  1  0  0  0  0
 23 17  1  0  0  0  0
 24  1  1  0  0  0  0
 25 24  1  0  0  0  0
 26 25  1  0  0  0  0
 27 26  1  0  0  0  0
 27 25  1  0  0  0  0
M  END
>  <MODEL>
9

>  <REMARK>
 VINA RESULT:      -7.0      1.698      2.166
  Name = 
  2 active torsions:
  status: ('A' for Active; 'I' for Inactive)
    1  A    between atoms: C_1  and  N_2
    2  A    between atoms: C_1  and  C_5
                            x       y       z     vdW  Elec       q    Type
                         _______ _______ _______ _____ _____    ______ ____

>  <TORSDO>
F 2

$$$$
