=
 OpenBabel11042419223D

 42 47  0  0  1  0  0  0  0  0999 V2000
  191.8830  174.3780  145.0180 C   0  0  1  0  0  3  0  0  0  0  0  0
  190.6390  169.9170  141.6680 C   0  0  0  0  0  1  0  0  0  0  0  0
  189.9000  171.6540  143.2530 C   0  0  0  0  0  2  0  0  0  0  0  0
  191.0070  174.2900  142.8330 C   0  0  2  0  0  3  0  0  0  0  0  0
  190.0000  173.7090  140.7960 C   0  0  0  0  0  2  0  0  0  0  0  0
  190.3230  172.2230  140.7480 C   0  0  0  0  0  0  0  0  0  0  0  0
  190.5880  171.7520  139.6080 O   0  0  0  0  0  0  0  0  0  0  0  0
  189.7010  174.2050  142.1850 C   0  0  2  0  0  3  0  0  0  0  0  0
  191.0170  172.3310  144.0670 C   0  0  0  0  0  2  0  0  0  0  0  0
  190.8120  173.7910  144.1870 N   0  0  0  0  0  0  0  0  0  0  0  0
  190.2570  175.5200  142.5210 N   0  0  0  0  0  2  0  0  0  0  0  0
  190.3500  171.3250  141.8970 N   0  0  0  0  0  0  0  0  0  0  0  0
  190.1210  177.1080  146.5160 C   0  0  0  0  0  2  0  0  0  0  0  0
  192.1580  177.1010  145.2550 O   0  0  0  0  0  1  0  0  0  0  0  0
  189.3360  176.0060  147.2030 C   0  0  2  0  0  3  0  0  0  0  0  0
  191.5240  176.5620  146.3830 C   0  0  2  0  0  3  0  0  0  0  0  0
  189.9500  174.7020  146.7280 C   0  0  0  0  0  2  0  0  0  0  0  0
  191.3810  175.0400  146.3260 C   0  0  1  0  0  3  0  0  0  0  0  0
  187.8590  176.0610  146.8250 C   0  0  0  0  0  2  0  0  0  0  0  0
  186.8090  178.3310  147.0400 C   0  0  0  0  0  2  0  0  0  0  0  0
  185.5890  178.8210  146.2680 C   0  0  0  0  0  2  0  0  0  0  0  0
  186.5880  177.0900  145.0180 N   0  0  1  0  0  0  0  0  0  0  0  0
  185.9120  178.3600  144.8690 C   0  0  1  0  0  3  0  0  0  0  0  0
  184.7850  178.2070  143.8960 C   0  0  0  0  0  0  0  0  0  0  0  0
  183.6590  178.6230  144.1350 O   0  0  0  0  0  0  0  0  0  0  0  0
  187.2720  176.8200  143.7580 C   0  0  0  0  0  2  0  0  0  0  0  0
  185.1180  177.5810  142.5640 C   0  0  2  0  0  3  0  0  0  0  0  0
  187.5230  177.3570  146.0980 C   0  0  2  0  0  3  0  0  0  0  0  0
  186.2060  176.4880  142.6960 C   0  0  0  0  0  2  0  0  0  0  0  0
  185.5510  178.5740  141.6780 O   0  0  0  0  0  0  0  0  0  0  0  0
  185.0980  178.1580  140.4230 C   0  0  0  0  0  1  0  0  0  0  0  0
  194.6880  174.9880  145.5760 O   0  0  0  0  0  0  0  0  0  0  0  0
  194.3370  173.7760  145.5130 C   0  0  0  0  0  0  0  0  0  0  0  0
  192.9530  173.4250  145.3430 N   0  0  0  0  0  2  0  0  0  0  0  0
  195.3860  172.7020  145.6290 C   0  0  1  0  0  3  0  0  0  0  0  0
  194.9890  171.4620  144.8440 C   0  0  0  0  0  2  0  0  0  0  0  0
  196.0990  172.3500  144.3080 C   0  0  1  0  0  3  0  0  0  0  0  0
  195.6080  173.1230  143.0770 C   0  0  1  0  0  3  0  0  0  0  0  0
  196.6020  174.0180  142.6730 O   0  0  0  0  0  1  0  0  0  0  0  0
  195.2940  172.1800  141.9280 C   0  0  0  0  0  2  0  0  0  0  0  0
  193.8330  172.3010  141.5150 C   0  0  0  0  0  2  0  0  0  0  0  0
  193.7130  173.2610  140.5110 O   0  0  0  0  0  1  0  0  0  0  0  0
  1 34  1  1  0  0  0
  2 12  1  0  0  0  0
  3  9  1  0  0  0  0
  4 11  1  1  0  0  0
  4 10  1  0  0  0  0
  6  5  1  0  0  0  0
  6 12  1  0  0  0  0
  7  6  2  0  0  0  0
  8  5  1  6  0  0  0
  8 11  1  0  0  0  0
  8  4  1  0  0  0  0
  9 10  1  0  0  0  0
 10  1  1  0  0  0  0
 12  3  1  0  0  0  0
 13 15  1  0  0  0  0
 15 19  1  6  0  0  0
 16 14  1  6  0  0  0
 16 13  1  0  0  0  0
 17 15  1  0  0  0  0
 18  1  1  6  0  0  0
 18 16  1  0  0  0  0
 18 17  1  0  0  0  0
 21 20  1  0  0  0  0
 22 26  1  6  0  0  0
 22 28  1  0  0  0  0
 23 22  1  0  0  0  0
 23 21  1  1  0  0  0
 24 25  2  0  0  0  0
 24 23  1  0  0  0  0
 27 30  1  6  0  0  0
 27 29  1  0  0  0  0
 27 24  1  0  0  0  0
 28 19  1  1  0  0  0
 28 20  1  0  0  0  0
 29 26  1  0  0  0  0
 31 30  1  0  0  0  0
 33 32  2  0  0  0  0
 34 33  1  0  0  0  0
 35 33  1  6  0  0  0
 36 35  1  0  0  0  0
 37 38  1  6  0  0  0
 37 36  1  0  0  0  0
 37 35  1  0  0  0  0
 38 39  1  6  0  0  0
 40 38  1  0  0  0  0
 41 40  1  0  0  0  0
 42 41  1  0  0  0  0
M  END
>  <MODEL>
1

>  <REMARK>
 VINA RESULT:      -7.3      0.000      0.000
  Name = 
  10 active torsions:
  status: ('A' for Active; 'I' for Inactive)
    1  A    between atoms: C_6  and  C_10
    2  A    between atoms: C_6  and  C_42
    3  A    between atoms: C_8  and  C_21
    4  A    between atoms: C_10  and  C_22
    5  A    between atoms: C_14  and  C_16
    6  A    between atoms: C_14  and  C_37
    7  A    between atoms: O_20  and  C_36
    8  A    between atoms: C_24  and  N_26
    9  A    between atoms: C_24  and  C_32
   10  A    between atoms: C_24  and  N_38
                            x       y       z     vdW  Elec       q    Type
                         _______ _______ _______ _____ _____    ______ ____

>  <TORSDO>
F 10

$$$$
=
 OpenBabel11042419223D

 42 47  0  0  1  0  0  0  0  0999 V2000
  191.9590  174.3340  144.2860 C   0  0  1  0  0  3  0  0  0  0  0  0
  190.5360  170.0990  140.7200 C   0  0  0  0  0  1  0  0  0  0  0  0
  189.9480  171.5810  142.5990 C   0  0  0  0  0  2  0  0  0  0  0  0
  190.6980  174.3550  142.2950 C   0  0  2  0  0  3  0  0  0  0  0  0
  189.3850  173.8580  140.4160 C   0  0  0  0  0  2  0  0  0  0  0  0
  189.8330  172.4300  140.1410 C   0  0  0  0  0  0  0  0  0  0  0  0
  189.9220  172.1030  138.9260 O   0  0  0  0  0  0  0  0  0  0  0  0
  189.3070  174.1810  141.8840 C   0  0  2  0  0  3  0  0  0  0  0  0
  191.1280  172.3010  143.2740 C   0  0  0  0  0  2  0  0  0  0  0  0
  190.8110  173.7100  143.5960 N   0  0  0  0  0  0  0  0  0  0  0  0
  189.7890  175.5140  142.2640 N   0  0  0  0  0  2  0  0  0  0  0  0
  190.1630  171.4360  141.1560 N   0  0  0  0  0  0  0  0  0  0  0  0
  190.4140  176.9200  146.2160 C   0  0  0  0  0  2  0  0  0  0  0  0
  192.2750  177.0290  144.7120 O   0  0  0  0  0  1  0  0  0  0  0  0
  189.7170  175.7600  146.9030 C   0  0  2  0  0  3  0  0  0  0  0  0
  191.7870  176.3950  145.8620 C   0  0  2  0  0  3  0  0  0  0  0  0
  190.2600  174.5030  146.2480 C   0  0  0  0  0  2  0  0  0  0  0  0
  191.6290  174.8820  145.6960 C   0  0  1  0  0  3  0  0  0  0  0  0
  188.2050  175.8380  146.7220 C   0  0  0  0  0  2  0  0  0  0  0  0
  187.2380  178.0770  147.3180 C   0  0  0  0  0  2  0  0  0  0  0  0
  185.9230  178.6430  146.7950 C   0  0  0  0  0  2  0  0  0  0  0  0
  186.6880  177.0430  145.2430 N   0  0  1  0  0  0  0  0  0  0  0  0
  186.0180  178.3230  145.3250 C   0  0  1  0  0  3  0  0  0  0  0  0
  184.7530  178.2690  144.5280 C   0  0  0  0  0  0  0  0  0  0  0  0
  183.6850  178.6610  144.9780 O   0  0  0  0  0  0  0  0  0  0  0  0
  187.1650  176.8990  143.8710 C   0  0  0  0  0  2  0  0  0  0  0  0
  184.8670  177.7780  143.1050 C   0  0  2  0  0  3  0  0  0  0  0  0
  187.7830  177.2010  146.1860 C   0  0  2  0  0  3  0  0  0  0  0  0
  185.9440  176.6750  142.9600 C   0  0  0  0  0  2  0  0  0  0  0  0
  185.1750  178.8540  142.2650 O   0  0  0  0  0  0  0  0  0  0  0  0
  185.0950  178.3320  140.9700 C   0  0  0  0  0  1  0  0  0  0  0  0
  194.2330  174.2250  142.4510 O   0  0  0  0  0  0  0  0  0  0  0  0
  194.1740  173.3780  143.3870 C   0  0  0  0  0  0  0  0  0  0  0  0
  193.1320  173.4530  144.3740 N   0  0  0  0  0  2  0  0  0  0  0  0
  195.2160  172.2940  143.4620 C   0  0  1  0  0  3  0  0  0  0  0  0
  196.4350  172.6470  142.6250 C   0  0  0  0  0  2  0  0  0  0  0  0
  196.5360  172.7120  144.1390 C   0  0  1  0  0  3  0  0  0  0  0  0
  196.5950  174.1740  144.6010 C   0  0  1  0  0  3  0  0  0  0  0  0
  196.8000  174.2090  145.9840 O   0  0  0  0  0  1  0  0  0  0  0  0
  197.7280  174.9190  143.9160 C   0  0  0  0  0  2  0  0  0  0  0  0
  197.1950  176.1210  143.1470 C   0  0  0  0  0  2  0  0  0  0  0  0
  196.1040  176.6600  143.8290 O   0  0  0  0  0  1  0  0  0  0  0  0
  1 34  1  1  0  0  0
  2 12  1  0  0  0  0
  3  9  1  0  0  0  0
  4 11  1  1  0  0  0
  4 10  1  0  0  0  0
  6  5  1  0  0  0  0
  6 12  1  0  0  0  0
  7  6  2  0  0  0  0
  8  5  1  6  0  0  0
  8 11  1  0  0  0  0
  8  4  1  0  0  0  0
  9 10  1  0  0  0  0
 10  1  1  0  0  0  0
 12  3  1  0  0  0  0
 13 15  1  0  0  0  0
 15 19  1  6  0  0  0
 16 14  1  6  0  0  0
 16 13  1  0  0  0  0
 17 15  1  0  0  0  0
 18  1  1  6  0  0  0
 18 16  1  0  0  0  0
 18 17  1  0  0  0  0
 21 20  1  0  0  0  0
 22 26  1  6  0  0  0
 22 23  1  0  0  0  0
 22 28  1  0  0  0  0
 23 21  1  1  0  0  0
 24 25  2  0  0  0  0
 24 23  1  0  0  0  0
 27 30  1  6  0  0  0
 27 24  1  0  0  0  0
 28 19  1  1  0  0  0
 28 20  1  0  0  0  0
 29 27  1  0  0  0  0
 29 26  1  0  0  0  0
 31 30  1  0  0  0  0
 32 33  2  0  0  0  0
 33 34  1  0  0  0  0
 35 33  1  6  0  0  0
 35 37  1  0  0  0  0
 36 35  1  0  0  0  0
 36 37  1  0  0  0  0
 37 38  1  6  0  0  0
 38 39  1  1  0  0  0
 40 38  1  0  0  0  0
 41 42  1  0  0  0  0
 41 40  1  0  0  0  0
M  END
>  <MODEL>
2

>  <REMARK>
 VINA RESULT:      -7.1      1.194      1.774
  Name = 
  10 active torsions:
  status: ('A' for Active; 'I' for Inactive)
    1  A    between atoms: C_6  and  C_10
    2  A    between atoms: C_6  and  C_42
    3  A    between atoms: C_8  and  C_21
    4  A    between atoms: C_10  and  C_22
    5  A    between atoms: C_14  and  C_16
    6  A    between atoms: C_14  and  C_37
    7  A    between atoms: O_20  and  C_36
    8  A    between atoms: C_24  and  N_26
    9  A    between atoms: C_24  and  C_32
   10  A    between atoms: C_24  and  N_38
                            x       y       z     vdW  Elec       q    Type
                         _______ _______ _______ _____ _____    ______ ____

>  <TORSDO>
F 10

$$$$
=
 OpenBabel11042419223D

 42 47  0  0  1  0  0  0  0  0999 V2000
  191.1200  174.8250  143.8930 C   0  0  1  0  0  3  0  0  0  0  0  0
  190.7810  169.8400  141.1180 C   0  0  0  0  0  1  0  0  0  0  0  0
  189.7710  171.4990  142.6350 C   0  0  0  0  0  2  0  0  0  0  0  0
  190.0770  174.2650  141.8560 C   0  0  2  0  0  3  0  0  0  0  0  0
  189.0590  173.2140  140.0240 C   0  0  0  0  0  2  0  0  0  0  0  0
  189.7620  171.8660  140.0580 C   0  0  0  0  0  0  0  0  0  0  0  0
  190.0240  171.3510  138.9360 O   0  0  0  0  0  0  0  0  0  0  0  0
  188.7820  173.7720  141.3930 C   0  0  2  0  0  3  0  0  0  0  0  0
  190.7420  172.5290  143.2370 C   0  0  0  0  0  2  0  0  0  0  0  0
  190.1660  173.8910  143.2610 N   0  0  0  0  0  0  0  0  0  0  0  0
  188.9960  175.2160  141.5430 N   0  0  0  0  0  2  0  0  0  0  0  0
  190.1490  171.1430  141.2640 N   0  0  0  0  0  0  0  0  0  0  0  0
  189.9740  176.9240  146.5550 C   0  0  0  0  0  2  0  0  0  0  0  0
  191.7630  177.2570  144.9970 O   0  0  0  0  0  1  0  0  0  0  0  0
  189.1810  175.6950  146.9590 C   0  0  2  0  0  3  0  0  0  0  0  0
  191.2590  176.3830  145.9700 C   0  0  2  0  0  3  0  0  0  0  0  0
  189.5450  174.6180  145.9530 C   0  0  0  0  0  2  0  0  0  0  0  0
  190.9220  174.9970  145.4200 C   0  0  1  0  0  3  0  0  0  0  0  0
  187.6810  175.9670  146.9200 C   0  0  0  0  0  2  0  0  0  0  0  0
  186.7310  178.2660  147.2550 C   0  0  0  0  0  2  0  0  0  0  0  0
  185.5130  178.8360  146.5380 C   0  0  0  0  0  2  0  0  0  0  0  0
  186.4060  177.1200  145.1920 N   0  0  1  0  0  0  0  0  0  0  0  0
  185.7790  178.4210  145.1130 C   0  0  1  0  0  3  0  0  0  0  0  0
  184.6230  178.3540  144.1660 C   0  0  0  0  0  0  0  0  0  0  0  0
  183.5220  178.8040  144.4530 O   0  0  0  0  0  0  0  0  0  0  0  0
  187.0460  176.8750  143.9030 C   0  0  0  0  0  2  0  0  0  0  0  0
  184.8950  177.7710  142.8010 C   0  0  2  0  0  3  0  0  0  0  0  0
  187.3800  177.3040  146.2560 C   0  0  2  0  0  3  0  0  0  0  0  0
  185.9400  176.6300  142.8590 C   0  0  0  0  0  2  0  0  0  0  0  0
  185.3450  178.7810  141.9450 O   0  0  0  0  0  0  0  0  0  0  0  0
  185.3570  178.1970  140.6740 C   0  0  0  0  0  1  0  0  0  0  0  0
  193.0310  176.3500  142.2900 O   0  0  0  0  0  0  0  0  0  0  0  0
  193.3900  175.2290  142.7490 C   0  0  0  0  0  0  0  0  0  0  0  0
  192.5250  174.4880  143.6260 N   0  0  0  0  0  2  0  0  0  0  0  0
  194.7420  174.6820  142.3740 C   0  0  1  0  0  3  0  0  0  0  0  0
  195.7990  175.7740  142.3940 C   0  0  0  0  0  2  0  0  0  0  0  0
  195.7940  174.7320  143.4990 C   0  0  1  0  0  3  0  0  0  0  0  0
  195.3110  175.3600  144.8130 C   0  0  1  0  0  3  0  0  0  0  0  0
  195.7680  174.5860  145.8850 O   0  0  0  0  0  1  0  0  0  0  0  0
  195.8360  176.7770  144.9680 C   0  0  0  0  0  2  0  0  0  0  0  0
  194.7530  177.6960  145.5190 C   0  0  0  0  0  2  0  0  0  0  0  0
  194.5640  177.4280  146.8750 O   0  0  0  0  0  1  0  0  0  0  0  0
  1 34  1  1  0  0  0
  2 12  1  0  0  0  0
  3  9  1  0  0  0  0
  4 11  1  1  0  0  0
  4 10  1  0  0  0  0
  5  6  1  0  0  0  0
  6 12  1  0  0  0  0
  7  6  2  0  0  0  0
  8  5  1  6  0  0  0
  8 11  1  0  0  0  0
  8  4  1  0  0  0  0
  9 10  1  0  0  0  0
 10  1  1  0  0  0  0
 12  3  1  0  0  0  0
 13 15  1  0  0  0  0
 15 19  1  6  0  0  0
 16 14  1  6  0  0  0
 16 13  1  0  0  0  0
 17 15  1  0  0  0  0
 18  1  1  6  0  0  0
 18 17  1  0  0  0  0
 18 16  1  0  0  0  0
 21 20  1  0  0  0  0
 22 26  1  6  0  0  0
 22 28  1  0  0  0  0
 23 22  1  0  0  0  0
 23 21  1  1  0  0  0
 24 25  2  0  0  0  0
 24 23  1  0  0  0  0
 27 30  1  6  0  0  0
 27 29  1  0  0  0  0
 27 24  1  0  0  0  0
 28 19  1  1  0  0  0
 28 20  1  0  0  0  0
 29 26  1  0  0  0  0
 31 30  1  0  0  0  0
 32 33  2  0  0  0  0
 33 34  1  0  0  0  0
 35 36  1  0  0  0  0
 35 33  1  1  0  0  0
 35 37  1  0  0  0  0
 36 37  1  0  0  0  0
 37 38  1  1  0  0  0
 38 40  1  0  0  0  0
 38 39  1  1  0  0  0
 40 41  1  0  0  0  0
 41 42  1  0  0  0  0
M  END
>  <MODEL>
3

>  <REMARK>
 VINA RESULT:      -7.1      1.500      2.442
  Name = 
  10 active torsions:
  status: ('A' for Active; 'I' for Inactive)
    1  A    between atoms: C_6  and  C_10
    2  A    between atoms: C_6  and  C_42
    3  A    between atoms: C_8  and  C_21
    4  A    between atoms: C_10  and  C_22
    5  A    between atoms: C_14  and  C_16
    6  A    between atoms: C_14  and  C_37
    7  A    between atoms: O_20  and  C_36
    8  A    between atoms: C_24  and  N_26
    9  A    between atoms: C_24  and  C_32
   10  A    between atoms: C_24  and  N_38
                            x       y       z     vdW  Elec       q    Type
                         _______ _______ _______ _____ _____    ______ ____

>  <TORSDO>
F 10

$$$$
=
 OpenBabel11042419223D

 42 47  0  0  1  0  0  0  0  0999 V2000
  191.4720  174.4400  144.6250 C   0  0  1  0  0  3  0  0  0  0  0  0
  194.6670  174.7680  139.8970 C   0  0  0  0  0  1  0  0  0  0  0  0
  193.7850  175.8250  141.9410 C   0  0  0  0  0  2  0  0  0  0  0  0
  193.7930  174.1730  144.3130 C   0  0  2  0  0  3  0  0  0  0  0  0
  196.0120  174.1820  143.5570 C   0  0  0  0  0  2  0  0  0  0  0  0
  195.7870  174.1650  142.0520 C   0  0  0  0  0  0  0  0  0  0  0  0
  196.6100  173.4860  141.3780 O   0  0  0  0  0  0  0  0  0  0  0  0
  194.9930  175.0040  144.2980 C   0  0  2  0  0  3  0  0  0  0  0  0
  192.5770  175.1220  142.5850 C   0  0  0  0  0  2  0  0  0  0  0  0
  192.6790  175.0780  144.0610 N   0  0  0  0  0  0  0  0  0  0  0  0
  194.5220  174.4350  145.5660 N   0  0  0  0  0  2  0  0  0  0  0  0
  194.7140  174.8570  141.3480 N   0  0  0  0  0  0  0  0  0  0  0  0
  189.9420  177.0580  146.5240 C   0  0  0  0  0  2  0  0  0  0  0  0
  191.9100  177.0980  145.1600 O   0  0  0  0  0  1  0  0  0  0  0  0
  189.1310  175.9230  147.1220 C   0  0  2  0  0  3  0  0  0  0  0  0
  191.3040  176.4620  146.2510 C   0  0  2  0  0  3  0  0  0  0  0  0
  189.6470  174.6550  146.4660 C   0  0  0  0  0  2  0  0  0  0  0  0
  191.0730  174.9670  146.0260 C   0  0  1  0  0  3  0  0  0  0  0  0
  187.6430  176.0950  146.8360 C   0  0  0  0  0  2  0  0  0  0  0  0
  186.6630  178.4010  146.9980 C   0  0  0  0  0  2  0  0  0  0  0  0
  185.4840  178.9230  146.1860 C   0  0  0  0  0  2  0  0  0  0  0  0
  186.4600  177.1470  144.9820 N   0  0  1  0  0  0  0  0  0  0  0  0
  185.8320  178.4380  144.8020 C   0  0  1  0  0  3  0  0  0  0  0  0
  184.7300  178.3120  143.7970 C   0  0  0  0  0  0  0  0  0  0  0  0
  183.6130  178.7680  143.9980 O   0  0  0  0  0  0  0  0  0  0  0  0
  187.1720  176.8420  143.7450 C   0  0  0  0  0  2  0  0  0  0  0  0
  185.0810  177.6620  142.4810 C   0  0  2  0  0  3  0  0  0  0  0  0
  187.3730  177.3950  146.0870 C   0  0  2  0  0  3  0  0  0  0  0  0
  186.1280  176.5340  142.6560 C   0  0  0  0  0  2  0  0  0  0  0  0
  185.5730  178.6300  141.6000 O   0  0  0  0  0  0  0  0  0  0  0  0
  185.8300  177.9380  140.4120 C   0  0  0  0  0  1  0  0  0  0  0  0
  189.7140  172.2450  143.8240 O   0  0  0  0  0  0  0  0  0  0  0  0
  189.5360  173.3800  143.2990 C   0  0  0  0  0  0  0  0  0  0  0  0
  190.3060  174.5140  143.7340 N   0  0  0  0  0  2  0  0  0  0  0  0
  188.4990  173.5340  142.2190 C   0  0  1  0  0  3  0  0  0  0  0  0
  188.9160  174.5870  141.2050 C   0  0  0  0  0  2  0  0  0  0  0  0
  188.9670  173.1210  140.8100 C   0  0  1  0  0  3  0  0  0  0  0  0
  190.4250  172.6500  140.7210 C   0  0  1  0  0  3  0  0  0  0  0  0
  190.4460  171.2800  140.4390 O   0  0  0  0  0  1  0  0  0  0  0  0
  191.1740  173.3910  139.6260 C   0  0  0  0  0  2  0  0  0  0  0  0
  190.6080  173.0430  138.2550 C   0  0  0  0  0  2  0  0  0  0  0  0
  190.7260  174.1480  137.4120 O   0  0  0  0  0  1  0  0  0  0  0  0
  1 34  1  6  0  0  0
  2 12  1  0  0  0  0
  3  9  1  0  0  0  0
  4 11  1  1  0  0  0
  6  5  1  0  0  0  0
  7  6  2  0  0  0  0
  8  5  1  6  0  0  0
  8  4  1  0  0  0  0
  8 11  1  0  0  0  0
  9 10  1  0  0  0  0
 10  4  1  0  0  0  0
 10  1  1  0  0  0  0
 12  3  1  0  0  0  0
 12  6  1  0  0  0  0
 13 15  1  0  0  0  0
 15 19  1  6  0  0  0
 16 14  1  6  0  0  0
 16 13  1  0  0  0  0
 17 15  1  0  0  0  0
 18  1  1  6  0  0  0
 18 16  1  0  0  0  0
 18 17  1  0  0  0  0
 21 20  1  0  0  0  0
 22 26  1  6  0  0  0
 22 28  1  0  0  0  0
 23 22  1  0  0  0  0
 23 21  1  1  0  0  0
 24 25  2  0  0  0  0
 24 23  1  0  0  0  0
 27 30  1  6  0  0  0
 27 29  1  0  0  0  0
 27 24  1  0  0  0  0
 28 19  1  1  0  0  0
 28 20  1  0  0  0  0
 29 26  1  0  0  0  0
 31 30  1  0  0  0  0
 33 34  1  0  0  0  0
 33 32  2  0  0  0  0
 35 33  1  1  0  0  0
 36 35  1  0  0  0  0
 37 38  1  1  0  0  0
 37 36  1  0  0  0  0
 37 35  1  0  0  0  0
 38 39  1  6  0  0  0
 40 38  1  0  0  0  0
 41 40  1  0  0  0  0
 42 41  1  0  0  0  0
M  END
>  <MODEL>
4

>  <REMARK>
 VINA RESULT:      -6.9      1.644      4.160
  Name = 
  10 active torsions:
  status: ('A' for Active; 'I' for Inactive)
    1  A    between atoms: C_6  and  C_10
    2  A    between atoms: C_6  and  C_42
    3  A    between atoms: C_8  and  C_21
    4  A    between atoms: C_10  and  C_22
    5  A    between atoms: C_14  and  C_16
    6  A    between atoms: C_14  and  C_37
    7  A    between atoms: O_20  and  C_36
    8  A    between atoms: C_24  and  N_26
    9  A    between atoms: C_24  and  C_32
   10  A    between atoms: C_24  and  N_38
                            x       y       z     vdW  Elec       q    Type
                         _______ _______ _______ _____ _____    ______ ____

>  <TORSDO>
F 10

$$$$
=
 OpenBabel11042419223D

 42 47  0  0  1  0  0  0  0  0999 V2000
  191.1520  174.9210  143.9100 C   0  0  1  0  0  3  0  0  0  0  0  0
  190.8390  169.7100  141.5820 C   0  0  0  0  0  1  0  0  0  0  0  0
  189.7730  171.5410  142.8410 C   0  0  0  0  0  2  0  0  0  0  0  0
  190.2700  174.2070  141.8440 C   0  0  2  0  0  3  0  0  0  0  0  0
  189.3720  173.0250  140.0300 C   0  0  0  0  0  2  0  0  0  0  0  0
  190.0090  171.6610  140.2520 C   0  0  0  0  0  0  0  0  0  0  0  0
  190.3470  171.0330  139.2110 O   0  0  0  0  0  0  0  0  0  0  0  0
  189.0010  173.7200  141.3110 C   0  0  2  0  0  3  0  0  0  0  0  0
  190.7320  172.5870  143.4340 C   0  0  0  0  0  2  0  0  0  0  0  0
  190.2170  173.9660  143.2800 N   0  0  0  0  0  0  0  0  0  0  0  0
  189.2650  175.1630  141.3480 N   0  0  0  0  0  2  0  0  0  0  0  0
  190.2550  171.0430  141.5490 N   0  0  0  0  0  0  0  0  0  0  0  0
  190.0610  176.9800  146.6250 C   0  0  0  0  0  2  0  0  0  0  0  0
  191.8350  177.3240  145.0520 O   0  0  0  0  0  1  0  0  0  0  0  0
  189.2600  175.7520  147.0150 C   0  0  2  0  0  3  0  0  0  0  0  0
  191.3330  176.4370  146.0140 C   0  0  2  0  0  3  0  0  0  0  0  0
  189.6000  174.6910  145.9850 C   0  0  0  0  0  2  0  0  0  0  0  0
  190.9740  175.0650  145.4420 C   0  0  1  0  0  3  0  0  0  0  0  0
  187.7620  176.0410  147.0000 C   0  0  0  0  0  2  0  0  0  0  0  0
  186.7050  178.3070  147.2150 C   0  0  0  0  0  2  0  0  0  0  0  0
  185.5220  178.8150  146.3980 C   0  0  0  0  0  2  0  0  0  0  0  0
  186.5750  177.1100  145.1590 N   0  0  1  0  0  0  0  0  0  0  0  0
  185.9080  178.3840  145.0060 C   0  0  1  0  0  3  0  0  0  0  0  0
  184.8270  178.2530  143.9800 C   0  0  0  0  0  0  0  0  0  0  0  0
  183.6910  178.6660  144.1760 O   0  0  0  0  0  0  0  0  0  0  0  0
  187.3160  176.8650  143.9260 C   0  0  0  0  0  2  0  0  0  0  0  0
  185.2200  177.6550  142.6510 C   0  0  2  0  0  3  0  0  0  0  0  0
  187.4610  177.3530  146.2860 C   0  0  2  0  0  3  0  0  0  0  0  0
  186.3000  176.5570  142.8100 C   0  0  0  0  0  2  0  0  0  0  0  0
  185.6930  178.6660  141.8080 O   0  0  0  0  0  0  0  0  0  0  0  0
  185.4530  178.1950  140.5130 C   0  0  0  0  0  1  0  0  0  0  0  0
  193.0570  173.4850  145.6010 O   0  0  0  0  0  0  0  0  0  0  0  0
  193.4770  174.0050  144.5290 C   0  0  0  0  0  0  0  0  0  0  0  0
  192.5620  174.6320  143.6150 N   0  0  0  0  0  2  0  0  0  0  0  0
  194.9490  173.9500  144.2150 C   0  0  1  0  0  3  0  0  0  0  0  0
  195.6310  172.8300  144.9840 C   0  0  0  0  0  2  0  0  0  0  0  0
  195.4070  172.6690  143.4910 C   0  0  1  0  0  3  0  0  0  0  0  0
  194.3020  171.6370  143.2310 C   0  0  1  0  0  3  0  0  0  0  0  0
  193.8580  171.7630  141.9110 O   0  0  0  0  0  1  0  0  0  0  0  0
  194.8120  170.2220  143.4470 C   0  0  0  0  0  2  0  0  0  0  0  0
  193.9880  169.5090  144.5120 C   0  0  0  0  0  2  0  0  0  0  0  0
  192.7490  170.1380  144.6380 O   0  0  0  0  0  1  0  0  0  0  0  0
  1 34  1  1  0  0  0
  3  9  1  0  0  0  0
  4 11  1  1  0  0  0
  4 10  1  0  0  0  0
  5  6  1  0  0  0  0
  6 12  1  0  0  0  0
  7  6  2  0  0  0  0
  8  5  1  6  0  0  0
  8 11  1  0  0  0  0
  8  4  1  0  0  0  0
 10  9  1  0  0  0  0
 10  1  1  0  0  0  0
 12  2  1  0  0  0  0
 12  3  1  0  0  0  0
 13 15  1  0  0  0  0
 15 19  1  6  0  0  0
 16 14  1  6  0  0  0
 16 13  1  0  0  0  0
 17 15  1  0  0  0  0
 18  1  1  6  0  0  0
 18 17  1  0  0  0  0
 18 16  1  0  0  0  0
 21 20  1  0  0  0  0
 22 26  1  6  0  0  0
 22 28  1  0  0  0  0
 23 22  1  0  0  0  0
 23 21  1  1  0  0  0
 24 25  2  0  0  0  0
 24 23  1  0  0  0  0
 27 30  1  6  0  0  0
 27 29  1  0  0  0  0
 27 24  1  0  0  0  0
 28 19  1  1  0  0  0
 28 20  1  0  0  0  0
 29 26  1  0  0  0  0
 31 30  1  0  0  0  0
 33 32  2  0  0  0  0
 34 33  1  0  0  0  0
 35 33  1  1  0  0  0
 35 36  1  0  0  0  0
 37 38  1  1  0  0  0
 37 35  1  0  0  0  0
 37 36  1  0  0  0  0
 38 39  1  6  0  0  0
 38 40  1  0  0  0  0
 40 41  1  0  0  0  0
 41 42  1  0  0  0  0
M  END
>  <MODEL>
5

>  <REMARK>
 VINA RESULT:      -6.5      1.297      1.557
  Name = 
  10 active torsions:
  status: ('A' for Active; 'I' for Inactive)
    1  A    between atoms: C_6  and  C_10
    2  A    between atoms: C_6  and  C_42
    3  A    between atoms: C_8  and  C_21
    4  A    between atoms: C_10  and  C_22
    5  A    between atoms: C_14  and  C_16
    6  A    between atoms: C_14  and  C_37
    7  A    between atoms: O_20  and  C_36
    8  A    between atoms: C_24  and  N_26
    9  A    between atoms: C_24  and  C_32
   10  A    between atoms: C_24  and  N_38
                            x       y       z     vdW  Elec       q    Type
                         _______ _______ _______ _____ _____    ______ ____

>  <TORSDO>
F 10

$$$$
=
 OpenBabel11042419223D

 42 47  0  0  1  0  0  0  0  0999 V2000
  191.3390  172.9610  142.4000 C   0  0  1  0  0  3  0  0  0  0  0  0
  196.2650  175.1980  144.2460 C   0  0  0  0  0  1  0  0  0  0  0  0
  194.2150  175.4020  142.8930 C   0  0  0  0  0  2  0  0  0  0  0  0
  191.7830  174.4750  144.1500 C   0  0  2  0  0  3  0  0  0  0  0  0
  192.6740  176.0680  145.6230 C   0  0  0  0  0  2  0  0  0  0  0  0
  194.1600  175.7800  145.4680 C   0  0  0  0  0  0  0  0  0  0  0  0
  194.8540  175.8840  146.5160 O   0  0  0  0  0  0  0  0  0  0  0  0
  191.9050  175.9180  144.3380 C   0  0  2  0  0  3  0  0  0  0  0  0
  193.4690  174.0850  142.6110 C   0  0  0  0  0  2  0  0  0  0  0  0
  192.0020  174.2390  142.7290 N   0  0  0  0  0  0  0  0  0  0  0  0
  190.5890  175.2820  144.4580 N   0  0  0  0  0  2  0  0  0  0  0  0
  194.8230  175.3980  144.2270 N   0  0  0  0  0  0  0  0  0  0  0  0
  187.9140  173.9850  142.2560 C   0  0  0  0  0  2  0  0  0  0  0  0
  188.9410  172.2330  143.5250 O   0  0  0  0  0  1  0  0  0  0  0  0
  188.3810  174.7940  141.0600 C   0  0  2  0  0  3  0  0  0  0  0  0
  188.7550  172.7290  142.2280 C   0  0  2  0  0  3  0  0  0  0  0  0
  189.8580  174.4830  140.8990 C   0  0  0  0  0  2  0  0  0  0  0  0
  190.0630  173.1130  141.5340 C   0  0  1  0  0  3  0  0  0  0  0  0
  188.1800  176.2890  141.2900 C   0  0  0  0  0  2  0  0  0  0  0  0
  185.9680  177.4370  140.9850 C   0  0  0  0  0  2  0  0  0  0  0  0
  185.4240  178.5620  141.8580 C   0  0  0  0  0  2  0  0  0  0  0  0
  186.9900  177.3480  143.1350 N   0  0  1  0  0  0  0  0  0  0  0  0
  185.7260  178.0430  143.2410 C   0  0  1  0  0  3  0  0  0  0  0  0
  185.7970  179.0260  144.3670 C   0  0  0  0  0  0  0  0  0  0  0  0
  185.4330  180.1870  144.2400 O   0  0  0  0  0  0  0  0  0  0  0  0
  187.1090  176.4950  144.3140 C   0  0  0  0  0  2  0  0  0  0  0  0
  186.2700  178.4990  145.7000 C   0  0  2  0  0  3  0  0  0  0  0  0
  186.8200  176.5720  141.9180 C   0  0  2  0  0  3  0  0  0  0  0  0
  187.3480  177.4000  145.5370 C   0  0  0  0  0  2  0  0  0  0  0  0
  185.1790  177.9890  146.4120 O   0  0  0  0  0  0  0  0  0  0  0  0
  185.2050  178.6610  147.6390 C   0  0  0  0  0  1  0  0  0  0  0  0
  191.0700  170.0490  142.3840 O   0  0  0  0  0  0  0  0  0  0  0  0
  192.1060  170.5600  141.8720 C   0  0  0  0  0  0  0  0  0  0  0  0
  192.2380  171.9880  141.7640 N   0  0  0  0  0  2  0  0  0  0  0  0
  193.1970  169.6550  141.3660 C   0  0  1  0  0  3  0  0  0  0  0  0
  194.5520  170.3410  141.4310 C   0  0  0  0  0  2  0  0  0  0  0  0
  194.2360  169.2400  142.4270 C   0  0  1  0  0  3  0  0  0  0  0  0
  194.0150  169.8380  143.8230 C   0  0  1  0  0  3  0  0  0  0  0  0
  193.4790  168.8560  144.6620 O   0  0  0  0  0  1  0  0  0  0  0  0
  195.3210  170.3360  144.4170 C   0  0  0  0  0  2  0  0  0  0  0  0
  195.1340  171.7080  145.0550 C   0  0  0  0  0  2  0  0  0  0  0  0
  193.7810  171.9100  145.3280 O   0  0  0  0  0  1  0  0  0  0  0  0
  1 34  1  6  0  0  0
  1 10  1  0  0  0  0
  3 12  1  0  0  0  0
  4  8  1  0  0  0  0
  4 11  1  6  0  0  0
  6  5  1  0  0  0  0
  6  7  2  0  0  0  0
  8 11  1  0  0  0  0
  8  5  1  1  0  0  0
  9 10  1  0  0  0  0
  9  3  1  0  0  0  0
 10  4  1  0  0  0  0
 12  2  1  0  0  0  0
 12  6  1  0  0  0  0
 15 19  1  1  0  0  0
 15 13  1  0  0  0  0
 16 13  1  0  0  0  0
 16 14  1  1  0  0  0
 17 15  1  0  0  0  0
 17 18  1  0  0  0  0
 18 16  1  0  0  0  0
 18  1  1  1  0  0  0
 20 21  1  0  0  0  0
 20 28  1  0  0  0  0
 22 23  1  0  0  0  0
 22 26  1  1  0  0  0
 23 21  1  6  0  0  0
 23 24  1  0  0  0  0
 24 27  1  0  0  0  0
 25 24  2  0  0  0  0
 26 29  1  0  0  0  0
 27 30  1  6  0  0  0
 28 19  1  6  0  0  0
 28 22  1  0  0  0  0
 29 27  1  0  0  0  0
 30 31  1  0  0  0  0
 33 32  2  0  0  0  0
 34 33  1  0  0  0  0
 35 36  1  0  0  0  0
 35 33  1  1  0  0  0
 35 37  1  0  0  0  0
 36 37  1  0  0  0  0
 37 38  1  1  0  0  0
 38 40  1  0  0  0  0
 38 39  1  1  0  0  0
 40 41  1  0  0  0  0
 41 42  1  0  0  0  0
M  END
>  <MODEL>
6

>  <REMARK>
 VINA RESULT:      -6.3      2.183      4.978
  Name = 
  10 active torsions:
  status: ('A' for Active; 'I' for Inactive)
    1  A    between atoms: C_6  and  C_10
    2  A    between atoms: C_6  and  C_42
    3  A    between atoms: C_8  and  C_21
    4  A    between atoms: C_10  and  C_22
    5  A    between atoms: C_14  and  C_16
    6  A    between atoms: C_14  and  C_37
    7  A    between atoms: O_20  and  C_36
    8  A    between atoms: C_24  and  N_26
    9  A    between atoms: C_24  and  C_32
   10  A    between atoms: C_24  and  N_38
                            x       y       z     vdW  Elec       q    Type
                         _______ _______ _______ _____ _____    ______ ____

>  <TORSDO>
F 10

$$$$
=
 OpenBabel11042419223D

 42 47  0  0  1  0  0  0  0  0999 V2000
  192.6290  174.0840  143.2670 C   0  0  1  0  0  3  0  0  0  0  0  0
  190.8250  170.0690  139.6200 C   0  0  0  0  0  1  0  0  0  0  0  0
  190.5790  171.2520  141.7680 C   0  0  0  0  0  2  0  0  0  0  0  0
  190.9010  174.1220  141.6660 C   0  0  2  0  0  3  0  0  0  0  0  0
  189.2110  173.6320  140.1160 C   0  0  0  0  0  2  0  0  0  0  0  0
  189.7330  172.3200  139.5500 C   0  0  0  0  0  0  0  0  0  0  0  0
  189.5400  172.1340  138.3170 O   0  0  0  0  0  0  0  0  0  0  0  0
  189.4800  173.7910  141.5870 C   0  0  2  0  0  3  0  0  0  0  0  0
  191.8030  172.0640  142.2250 C   0  0  0  0  0  2  0  0  0  0  0  0
  191.4210  173.3720  142.8010 N   0  0  0  0  0  0  0  0  0  0  0  0
  189.8880  175.1350  142.0140 N   0  0  0  0  0  2  0  0  0  0  0  0
  190.4270  171.2870  140.3100 N   0  0  0  0  0  0  0  0  0  0  0  0
  191.1730  176.7260  145.1900 C   0  0  0  0  0  2  0  0  0  0  0  0
  192.7530  176.8250  143.3930 O   0  0  0  0  0  1  0  0  0  0  0  0
  190.7060  175.5930  146.0840 C   0  0  2  0  0  3  0  0  0  0  0  0
  192.5160  176.2760  144.6600 C   0  0  2  0  0  3  0  0  0  0  0  0
  191.2540  174.3210  145.4620 C   0  0  0  0  0  2  0  0  0  0  0  0
  192.4770  174.7470  144.6590 C   0  0  1  0  0  3  0  0  0  0  0  0
  189.1840  175.5320  146.1510 C   0  0  0  0  0  2  0  0  0  0  0  0
  188.1670  177.5870  147.1750 C   0  0  0  0  0  2  0  0  0  0  0  0
  186.7380  178.0710  146.9600 C   0  0  0  0  0  2  0  0  0  0  0  0
  187.3320  176.7310  145.1150 N   0  0  1  0  0  0  0  0  0  0  0  0
  186.5890  177.9210  145.4680 C   0  0  1  0  0  3  0  0  0  0  0  0
  185.2080  177.8270  144.8990 C   0  0  0  0  0  0  0  0  0  0  0  0
  184.2120  178.0600  145.5700 O   0  0  0  0  0  0  0  0  0  0  0  0
  187.5610  176.7830  143.6740 C   0  0  0  0  0  2  0  0  0  0  0  0
  185.0990  177.5050  143.4290 C   0  0  2  0  0  3  0  0  0  0  0  0
  188.5650  176.8950  145.8680 C   0  0  2  0  0  3  0  0  0  0  0  0
  186.2160  176.5360  142.9660 C   0  0  0  0  0  2  0  0  0  0  0  0
  185.1630  178.6890  142.6870 O   0  0  0  0  0  0  0  0  0  0  0  0
  184.9980  178.2890  141.3570 C   0  0  0  0  0  1  0  0  0  0  0  0
  195.3960  174.9580  142.9040 O   0  0  0  0  0  0  0  0  0  0  0  0
  195.1620  173.7190  142.9840 C   0  0  0  0  0  0  0  0  0  0  0  0
  193.8350  173.2430  143.2640 N   0  0  0  0  0  2  0  0  0  0  0  0
  196.2940  172.7450  142.7930 C   0  0  1  0  0  3  0  0  0  0  0  0
  195.8160  171.4780  142.1020 C   0  0  0  0  0  2  0  0  0  0  0  0
  196.6660  172.4660  141.3230 C   0  0  1  0  0  3  0  0  0  0  0  0
  195.8050  173.1980  140.2850 C   0  0  1  0  0  3  0  0  0  0  0  0
  196.5780  174.1830  139.6610 O   0  0  0  0  0  1  0  0  0  0  0  0
  195.2860  172.2360  139.2290 C   0  0  0  0  0  2  0  0  0  0  0  0
  193.7680  172.3120  139.1310 C   0  0  0  0  0  2  0  0  0  0  0  0
  193.3640  173.6450  139.2150 O   0  0  0  0  0  1  0  0  0  0  0  0
  1 34  1  1  0  0  0
  2 12  1  0  0  0  0
  3  9  1  0  0  0  0
  4 11  1  1  0  0  0
  4 10  1  0  0  0  0
  6  5  1  0  0  0  0
  6 12  1  0  0  0  0
  7  6  2  0  0  0  0
  8  5  1  6  0  0  0
  8  4  1  0  0  0  0
  8 11  1  0  0  0  0
  9 10  1  0  0  0  0
 10  1  1  0  0  0  0
 12  3  1  0  0  0  0
 13 15  1  0  0  0  0
 15 19  1  6  0  0  0
 16 14  1  6  0  0  0
 16 13  1  0  0  0  0
 17 15  1  0  0  0  0
 18  1  1  6  0  0  0
 18 16  1  0  0  0  0
 18 17  1  0  0  0  0
 21 20  1  0  0  0  0
 22 26  1  6  0  0  0
 22 23  1  0  0  0  0
 22 28  1  0  0  0  0
 23 21  1  1  0  0  0
 24 23  1  0  0  0  0
 24 25  2  0  0  0  0
 27 30  1  6  0  0  0
 27 24  1  0  0  0  0
 28 19  1  1  0  0  0
 28 20  1  0  0  0  0
 29 27  1  0  0  0  0
 29 26  1  0  0  0  0
 31 30  1  0  0  0  0
 32 33  2  0  0  0  0
 33 34  1  0  0  0  0
 35 33  1  6  0  0  0
 36 35  1  0  0  0  0
 37 38  1  6  0  0  0
 37 36  1  0  0  0  0
 37 35  1  0  0  0  0
 38 39  1  6  0  0  0
 40 38  1  0  0  0  0
 41 42  1  0  0  0  0
 41 40  1  0  0  0  0
M  END
>  <MODEL>
7

>  <REMARK>
 VINA RESULT:      -6.3      1.502      1.860
  Name = 
  10 active torsions:
  status: ('A' for Active; 'I' for Inactive)
    1  A    between atoms: C_6  and  C_10
    2  A    between atoms: C_6  and  C_42
    3  A    between atoms: C_8  and  C_21
    4  A    between atoms: C_10  and  C_22
    5  A    between atoms: C_14  and  C_16
    6  A    between atoms: C_14  and  C_37
    7  A    between atoms: O_20  and  C_36
    8  A    between atoms: C_24  and  N_26
    9  A    between atoms: C_24  and  C_32
   10  A    between atoms: C_24  and  N_38
                            x       y       z     vdW  Elec       q    Type
                         _______ _______ _______ _____ _____    ______ ____

>  <TORSDO>
F 10

$$$$
=
 OpenBabel11042419223D

 42 47  0  0  1  0  0  0  0  0999 V2000
  191.4510  172.7860  142.2560 C   0  0  1  0  0  3  0  0  0  0  0  0
  196.3760  174.9010  144.2420 C   0  0  0  0  0  1  0  0  0  0  0  0
  194.3470  175.1740  142.8700 C   0  0  0  0  0  2  0  0  0  0  0  0
  191.8870  174.2360  144.0620 C   0  0  2  0  0  3  0  0  0  0  0  0
  192.7760  175.7680  145.5980 C   0  0  0  0  0  2  0  0  0  0  0  0
  194.2600  175.4680  145.4550 C   0  0  0  0  0  0  0  0  0  0  0  0
  194.9420  175.5290  146.5140 O   0  0  0  0  0  0  0  0  0  0  0  0
  192.0240  175.6710  144.2990 C   0  0  2  0  0  3  0  0  0  0  0  0
  193.5910  173.8770  142.5340 C   0  0  0  0  0  2  0  0  0  0  0  0
  192.1240  174.0440  142.6370 N   0  0  0  0  0  0  0  0  0  0  0  0
  190.6990  175.0460  144.3800 N   0  0  0  0  0  2  0  0  0  0  0  0
  194.9370  175.1190  144.2110 N   0  0  0  0  0  0  0  0  0  0  0  0
  188.0310  173.8330  142.3600 C   0  0  0  0  0  2  0  0  0  0  0  0
  189.1170  172.0170  143.4830 O   0  0  0  0  0  1  0  0  0  0  0  0
  188.4340  174.6960  141.1790 C   0  0  2  0  0  3  0  0  0  0  0  0
  188.8600  172.5750  142.2240 C   0  0  2  0  0  3  0  0  0  0  0  0
  189.8970  174.3850  140.9180 C   0  0  0  0  0  2  0  0  0  0  0  0
  190.1280  172.9850  141.4750 C   0  0  1  0  0  3  0  0  0  0  0  0
  188.2580  176.1780  141.4910 C   0  0  0  0  0  2  0  0  0  0  0  0
  185.9920  177.2130  141.1810 C   0  0  0  0  0  2  0  0  0  0  0  0
  185.4260  178.3710  141.9950 C   0  0  0  0  0  2  0  0  0  0  0  0
  187.0780  177.3110  143.2990 N   0  0  1  0  0  0  0  0  0  0  0  0
  185.7890  177.9600  143.3990 C   0  0  1  0  0  3  0  0  0  0  0  0
  185.8520  179.0190  144.4540 C   0  0  0  0  0  0  0  0  0  0  0  0
  185.4350  180.1530  144.2610 O   0  0  0  0  0  0  0  0  0  0  0  0
  187.2680  176.5450  144.5270 C   0  0  0  0  0  2  0  0  0  0  0  0
  186.3850  178.6030  145.8030 C   0  0  2  0  0  3  0  0  0  0  0  0
  186.9070  176.4480  142.1420 C   0  0  2  0  0  3  0  0  0  0  0  0
  187.5040  177.5400  145.6790 C   0  0  0  0  0  2  0  0  0  0  0  0
  185.3380  178.0990  146.5820 O   0  0  0  0  0  0  0  0  0  0  0  0
  185.9490  177.6410  147.7530 C   0  0  0  0  0  1  0  0  0  0  0  0
  191.0330  169.9280  141.8030 O   0  0  0  0  0  0  0  0  0  0  0  0
  192.1100  170.4490  141.3990 C   0  0  0  0  0  0  0  0  0  0  0  0
  192.3190  171.8680  141.5060 N   0  0  0  0  0  2  0  0  0  0  0  0
  193.1690  169.5680  140.7920 C   0  0  1  0  0  3  0  0  0  0  0  0
  192.5470  168.4000  140.0440 C   0  0  0  0  0  2  0  0  0  0  0  0
  193.1750  169.5320  139.2510 C   0  0  1  0  0  3  0  0  0  0  0  0
  192.0820  170.3720  138.5760 C   0  0  1  0  0  3  0  0  0  0  0  0
  192.6810  171.4160  137.8650 O   0  0  0  0  0  1  0  0  0  0  0  0
  191.2580  169.5300  137.6170 C   0  0  0  0  0  2  0  0  0  0  0  0
  189.7680  169.7390  137.8590 C   0  0  0  0  0  2  0  0  0  0  0  0
  189.5910  170.7330  138.8220 O   0  0  0  0  0  1  0  0  0  0  0  0
  1 34  1  6  0  0  0
  1 10  1  0  0  0  0
  3 12  1  0  0  0  0
  4  8  1  0  0  0  0
  4 11  1  6  0  0  0
  6  5  1  0  0  0  0
  6  7  2  0  0  0  0
  8 11  1  0  0  0  0
  8  5  1  1  0  0  0
  9 10  1  0  0  0  0
  9  3  1  0  0  0  0
 10  4  1  0  0  0  0
 12  2  1  0  0  0  0
 12  6  1  0  0  0  0
 15 19  1  1  0  0  0
 15 13  1  0  0  0  0
 16 13  1  0  0  0  0
 16 14  1  1  0  0  0
 17 15  1  0  0  0  0
 17 18  1  0  0  0  0
 18 16  1  0  0  0  0
 18  1  1  1  0  0  0
 20 21  1  0  0  0  0
 20 28  1  0  0  0  0
 22 23  1  0  0  0  0
 22 26  1  1  0  0  0
 23 21  1  6  0  0  0
 23 24  1  0  0  0  0
 24 27  1  0  0  0  0
 25 24  2  0  0  0  0
 26 29  1  0  0  0  0
 27 30  1  1  0  0  0
 28 19  1  6  0  0  0
 28 22  1  0  0  0  0
 29 27  1  0  0  0  0
 30 31  1  0  0  0  0
 33 34  1  0  0  0  0
 33 32  2  0  0  0  0
 35 33  1  6  0  0  0
 36 35  1  0  0  0  0
 37 38  1  6  0  0  0
 37 36  1  0  0  0  0
 37 35  1  0  0  0  0
 38 39  1  6  0  0  0
 40 41  1  0  0  0  0
 40 38  1  0  0  0  0
 41 42  1  0  0  0  0
M  END
>  <MODEL>
8

>  <REMARK>
 VINA RESULT:      -6.2      2.174      5.321
  Name = 
  10 active torsions:
  status: ('A' for Active; 'I' for Inactive)
    1  A    between atoms: C_6  and  C_10
    2  A    between atoms: C_6  and  C_42
    3  A    between atoms: C_8  and  C_21
    4  A    between atoms: C_10  and  C_22
    5  A    between atoms: C_14  and  C_16
    6  A    between atoms: C_14  and  C_37
    7  A    between atoms: O_20  and  C_36
    8  A    between atoms: C_24  and  N_26
    9  A    between atoms: C_24  and  C_32
   10  A    between atoms: C_24  and  N_38
                            x       y       z     vdW  Elec       q    Type
                         _______ _______ _______ _____ _____    ______ ____

>  <TORSDO>
F 10

$$$$
=
 OpenBabel11042419223D

 42 47  0  0  1  0  0  0  0  0999 V2000
  192.1390  172.6450  142.5700 C   0  0  1  0  0  3  0  0  0  0  0  0
  197.8140  172.8820  141.9290 C   0  0  0  0  0  1  0  0  0  0  0  0
  195.6600  174.0430  142.2190 C   0  0  0  0  0  2  0  0  0  0  0  0
  193.8600  172.8850  144.1620 C   0  0  2  0  0  3  0  0  0  0  0  0
  195.8550  173.2870  145.3270 C   0  0  0  0  0  2  0  0  0  0  0  0
  196.8730  172.9520  144.2470 C   0  0  0  0  0  0  0  0  0  0  0  0
  197.9260  172.3790  144.6400 O   0  0  0  0  0  0  0  0  0  0  0  0
  194.6220  173.9610  144.7890 C   0  0  2  0  0  3  0  0  0  0  0  0
  194.4050  173.1990  141.9330 C   0  0  0  0  0  2  0  0  0  0  0  0
  193.3320  173.4410  142.9230 N   0  0  0  0  0  0  0  0  0  0  0  0
  193.3530  173.5290  145.3860 N   0  0  0  0  0  2  0  0  0  0  0  0
  196.7220  173.2340  142.8240 N   0  0  0  0  0  0  0  0  0  0  0  0
  189.8140  174.2140  144.7900 C   0  0  0  0  0  2  0  0  0  0  0  0
  190.4880  171.9200  144.6410 O   0  0  0  0  0  1  0  0  0  0  0  0
  189.9550  175.3880  143.8390 C   0  0  2  0  0  3  0  0  0  0  0  0
  189.9410  172.9870  143.9160 C   0  0  2  0  0  3  0  0  0  0  0  0
  190.9070  174.9280  142.7500 C   0  0  0  0  0  2  0  0  0  0  0  0
  190.8000  173.4080  142.7220 C   0  0  1  0  0  3  0  0  0  0  0  0
  190.5210  176.6120  144.5510 C   0  0  0  0  0  2  0  0  0  0  0  0
  189.3270  177.5070  146.5710 C   0  0  0  0  0  2  0  0  0  0  0  0
  187.8530  177.2930  146.8970 C   0  0  0  0  0  2  0  0  0  0  0  0
  188.1210  177.0410  144.5690 N   0  0  1  0  0  0  0  0  0  0  0  0
  187.2060  177.5600  145.5620 C   0  0  1  0  0  3  0  0  0  0  0  0
  185.8400  177.0010  145.3130 C   0  0  0  0  0  0  0  0  0  0  0  0
  185.1650  176.5130  146.2080 O   0  0  0  0  0  0  0  0  0  0  0  0
  187.7470  177.6370  143.2910 C   0  0  0  0  0  2  0  0  0  0  0  0
  185.2960  177.1380  143.9120 C   0  0  2  0  0  3  0  0  0  0  0  0
  189.4060  177.5290  145.0410 C   0  0  2  0  0  3  0  0  0  0  0  0
  186.4110  177.0130  142.8450 C   0  0  0  0  0  2  0  0  0  0  0  0
  184.6520  178.3730  143.7810 O   0  0  0  0  0  0  0  0  0  0  0  0
  183.9610  178.2910  142.5680 C   0  0  0  0  0  1  0  0  0  0  0  0
  190.5000  170.4760  141.4940 O   0  0  0  0  0  0  0  0  0  0  0  0
  191.4410  170.9280  140.7820 C   0  0  0  0  0  0  0  0  0  0  0  0
  192.2090  172.0610  141.2230 N   0  0  0  0  0  2  0  0  0  0  0  0
  191.7410  170.2740  139.4600 C   0  0  1  0  0  3  0  0  0  0  0  0
  190.4610  169.9070  138.7270 C   0  0  0  0  0  2  0  0  0  0  0  0
  191.2890  171.0760  138.2240 C   0  0  1  0  0  3  0  0  0  0  0  0
  190.5760  172.3990  138.5330 C   0  0  1  0  0  3  0  0  0  0  0  0
  191.3570  173.4600  138.0640 O   0  0  0  0  0  1  0  0  0  0  0  0
  189.2130  172.4560  137.8630 C   0  0  0  0  0  2  0  0  0  0  0  0
  188.1950  173.1370  138.7680 C   0  0  0  0  0  2  0  0  0  0  0  0
  188.4390  172.7750  140.0930 O   0  0  0  0  0  1  0  0  0  0  0  0
  1 34  1  6  0  0  0
  1 10  1  0  0  0  0
  2 12  1  0  0  0  0
  3 12  1  0  0  0  0
  4  8  1  0  0  0  0
  4 11  1  1  0  0  0
  6  7  2  0  0  0  0
  6  5  1  0  0  0  0
  8  5  1  1  0  0  0
  8 11  1  0  0  0  0
  9  3  1  0  0  0  0
  9 10  1  0  0  0  0
 10  4  1  0  0  0  0
 12  6  1  0  0  0  0
 15 19  1  1  0  0  0
 15 13  1  0  0  0  0
 16 14  1  1  0  0  0
 16 13  1  0  0  0  0
 17 15  1  0  0  0  0
 18  1  1  1  0  0  0
 18 17  1  0  0  0  0
 18 16  1  0  0  0  0
 20 21  1  0  0  0  0
 22 26  1  6  0  0  0
 22 28  1  0  0  0  0
 22 23  1  0  0  0  0
 23 21  1  1  0  0  0
 24 23  1  0  0  0  0
 24 25  2  0  0  0  0
 27 30  1  1  0  0  0
 27 24  1  0  0  0  0
 28 19  1  1  0  0  0
 28 20  1  0  0  0  0
 29 26  1  0  0  0  0
 29 27  1  0  0  0  0
 31 30  1  0  0  0  0
 33 34  1  0  0  0  0
 33 32  2  0  0  0  0
 35 33  1  1  0  0  0
 36 35  1  0  0  0  0
 37 38  1  1  0  0  0
 37 36  1  0  0  0  0
 37 35  1  0  0  0  0
 38 39  1  6  0  0  0
 40 38  1  0  0  0  0
 40 41  1  0  0  0  0
 41 42  1  0  0  0  0
M  END
>  <MODEL>
9

>  <REMARK>
 VINA RESULT:      -6.1      2.120      5.163
  Name = 
  10 active torsions:
  status: ('A' for Active; 'I' for Inactive)
    1  A    between atoms: C_6  and  C_10
    2  A    between atoms: C_6  and  C_42
    3  A    between atoms: C_8  and  C_21
    4  A    between atoms: C_10  and  C_22
    5  A    between atoms: C_14  and  C_16
    6  A    between atoms: C_14  and  C_37
    7  A    between atoms: O_20  and  C_36
    8  A    between atoms: C_24  and  N_26
    9  A    between atoms: C_24  and  C_32
   10  A    between atoms: C_24  and  N_38
                            x       y       z     vdW  Elec       q    Type
                         _______ _______ _______ _____ _____    ______ ____

>  <TORSDO>
F 10

$$$$
