=
 OpenBabel11042416403D

 65 71  0  0  1  0  0  0  0  0999 V2000
  195.1970  175.0570  143.0870 C   0  0  2  0  0  3  0  0  0  0  0  0
  197.0910  174.6150  144.5540 C   0  0  2  0  0  3  0  0  0  0  0  0
  195.7470  174.2640  146.5760 O   0  0  0  0  0  1  0  0  0  0  0  0
  195.0910  174.5080  140.5540 C   0  0  2  0  0  3  0  0  0  0  0  0
  194.4460  174.3780  141.9530 C   0  0  0  0  0  2  0  0  0  0  0  0
  195.8430  174.9590  145.3640 C   0  0  2  0  0  3  0  0  0  0  0  0
  196.6660  174.6440  143.0880 C   0  0  2  0  0  3  0  0  0  0  0  0
  196.9450  175.8920  141.1190 C   0  0  2  0  0  3  0  0  0  0  0  0
  197.4850  175.5560  142.3890 O   0  0  0  0  0  0  0  0  0  0  0  0
  194.6810  174.6470  144.4640 C   0  0  1  0  0  3  0  0  0  0  0  0
  196.0070  176.9330  141.2280 O   0  0  0  0  0  1  0  0  0  0  0  0
  196.4760  174.7710  140.3920 O   0  0  0  0  0  0  0  0  0  0  0  0
  197.2620  172.1260  144.5640 C   0  0  0  0  0  3  0  0  0  0  0  0
  197.7430  173.3080  144.9270 C   0  0  0  0  0  3  0  0  0  0  0  0
  197.8890  170.8440  145.0680 C   0  0  0  0  0  2  0  0  0  0  0  0
  197.0090  169.6040  144.9350 C   0  0  1  0  0  3  0  0  0  0  0  0
  193.8050  169.5610  143.3520 C   0  0  0  0  0  0  0  0  0  0  0  0
  193.0050  170.1450  144.1260 O   0  0  0  0  0  0  0  0  0  0  0  0
  196.1350  168.7050  142.9250 C   0  0  0  0  0  3  0  0  0  0  0  0
  193.3550  169.1320  142.0740 N   0  0  0  0  0  1  0  0  0  0  0  0
  195.6460  169.9570  144.8950 O   0  0  0  0  0  0  0  0  0  0  0  0
  195.1830  169.4360  143.7260 N   0  0  0  0  0  0  0  0  0  0  0  0
  197.3860  168.7410  143.7490 C   0  0  0  0  0  3  0  0  0  0  0  0
  193.6440  176.3910  145.9680 C   0  0  0  0  0  1  0  0  0  0  0  0
  193.3860  175.3240  144.9170 C   0  0  2  0  0  3  0  0  0  0  0  0
  192.1770  174.4220  145.2180 C   0  0  1  0  0  3  0  0  0  0  0  0
  191.0260  175.1460  145.6620 O   0  0  0  0  0  0  0  0  0  0  0  0
  190.4120  174.8340  146.8790 C   0  0  0  0  0  0  0  0  0  0  0  0
  189.2080  174.0680  146.8840 N   0  0  0  0  0  1  0  0  0  0  0  0
  190.9070  175.2380  147.9690 O   0  0  0  0  0  0  0  0  0  0  0  0
  191.8270  173.3200  144.2160 C   0  0  0  0  0  2  0  0  0  0  0  0
  190.8860  171.6770  142.0260 C   0  0  0  0  0  1  0  0  0  0  0  0
  191.0580  174.1350  142.0100 C   0  0  1  0  0  3  0  0  0  0  0  0
  190.6080  173.7870  143.4150 C   0  0  1  0  0  3  0  0  0  0  0  0
  190.1200  172.9620  142.2240 C   0  0  2  0  0  3  0  0  0  0  0  0
  185.4420  179.7070  145.6600 C   0  0  2  0  0  3  0  0  0  0  0  0
  186.8470  178.1970  147.1830 C   0  0  0  0  0  1  0  0  0  0  0  0
  184.9750  177.8050  144.2090 C   0  0  2  0  0  3  0  0  0  0  0  0
  189.5600  177.2800  143.2310 N   0  0  0  0  0  2  0  0  0  0  0  0
  188.2280  177.1590  142.7250 C   0  0  0  0  0  0  0  0  0  0  0  0
  187.9650  176.3260  141.5170 C   0  0  0  0  0  2  0  0  0  0  0  0
  184.5000  178.6580  147.5760 N   0  0  0  0  0  2  0  0  0  0  0  0
  186.2900  178.4200  143.9180 C   0  0  0  0  0  0  0  0  0  0  0  0
  191.8220  176.7960  142.9730 O   0  0  0  0  0  0  0  0  0  0  0  0
  185.7360  179.2350  147.0850 C   0  0  2  0  0  3  0  0  0  0  0  0
  184.1370  177.6790  142.9530 C   0  0  0  0  0  1  0  0  0  0  0  0
  187.2510  177.7900  143.3120 C   0  0  0  0  0  0  0  0  0  0  0  0
  184.3240  178.7970  145.1670 C   0  0  1  0  0  3  0  0  0  0  0  0
  190.6400  176.5240  142.6600 C   0  0  0  0  0  0  0  0  0  0  0  0
  183.8300  178.0760  146.4120 C   0  0  0  0  0  2  0  0  0  0  0  0
  188.8560  175.1030  141.5480 C   0  0  0  0  0  2  0  0  0  0  0  0
  190.3590  175.4470  141.6310 C   0  0  2  0  0  3  0  0  0  0  0  0
  186.5680  179.5300  144.7590 N   0  0  0  0  0  2  0  0  0  0  0  0
  194.2570  174.9590  139.4890 O   0  0  0  0  0  0  0  0  0  0  0  0
  195.3720  174.1490  137.6510 O   0  0  0  0  0  0  0  0  0  0  0  0
  194.2630  174.3720  138.2170 C   0  0  0  0  0  0  0  0  0  0  0  0
  193.3200  173.1670  136.4210 O   0  0  0  0  0  1  0  0  0  0  0  0
  192.9900  174.0270  137.5030 C   0  0  2  0  0  0  0  0  0  0  0  0
  192.3660  175.2460  137.0820 O   0  0  0  0  0  0  0  0  0  0  0  0
  193.2380  176.0400  136.2990 C   0  0  0  0  0  1  0  0  0  0  0  0
  192.6880  172.1640  139.0510 O   0  0  0  0  0  1  0  0  0  0  0  0
  192.0530  173.2900  138.4940 C   0  0  2  0  0  3  0  0  0  0  0  0
  189.7120  173.7850  138.5580 O   0  0  0  0  0  1  0  0  0  0  0  0
  190.6480  172.9530  137.9510 C   0  0  2  0  0  3  0  0  0  0  0  0
  190.2740  171.5190  138.2580 C   0  0  0  0  0  1  0  0  0  0  0  0
  1  5  1  6  0  0  0
  1  7  1  0  0  0  0
  1 10  1  0  0  0  0
  2 14  1  1  0  0  0
  2  6  1  0  0  0  0
  4 54  1  1  0  0  0
  4  5  1  0  0  0  0
  6  3  1  1  0  0  0
  7  9  1  6  0  0  0
  7  2  1  0  0  0  0
  8 11  1  1  0  0  0
  8  9  1  0  0  0  0
 10 25  1  1  0  0  0
 10  6  1  0  0  0  0
 12  4  1  0  0  0  0
 12  8  1  0  0  0  0
 13 14  2  0  0  0  0
 13 15  1  0  0  0  0
 16 15  1  6  0  0  0
 17 22  1  0  0  0  0
 17 18  2  0  0  0  0
 19 22  1  0  0  0  0
 19 23  2  0  0  0  0
 20 17  1  0  0  0  0
 21 16  1  0  0  0  0
 22 21  1  0  0  0  0
 23 16  1  0  0  0  0
 25 26  1  0  0  0  0
 25 24  1  1  0  0  0
 26 31  1  6  0  0  0
 26 27  1  0  0  0  0
 27 28  1  0  0  0  0
 28 29  1  0  0  0  0
 28 30  2  0  0  0  0
 33 52  1  6  0  0  0
 33 35  1  0  0  0  0
 33 34  1  0  0  0  0
 34 31  1  1  0  0  0
 35 32  1  1  0  0  0
 35 34  1  0  0  0  0
 36 53  1  6  0  0  0
 36 45  1  0  0  0  0
 38 46  1  6  0  0  0
 38 48  1  0  0  0  0
 40 39  1  0  0  0  0
 40 47  2  0  0  0  0
 41 51  1  0  0  0  0
 41 40  1  0  0  0  0
 43 38  1  0  0  0  0
 43 53  1  0  0  0  0
 45 37  1  6  0  0  0
 45 42  1  0  0  0  0
 47 43  2  0  0  0  0
 48 36  1  0  0  0  0
 48 50  1  1  0  0  0
 49 44  2  0  0  0  0
 49 39  1  0  0  0  0
 50 42  1  0  0  0  0
 52 51  1  1  0  0  0
 52 49  1  0  0  0  0
 55 56  2  0  0  0  0
 56 54  1  0  0  0  0
 58 57  1  6  0  0  0
 58 56  1  0  0  0  0
 58 62  1  0  0  0  0
 59 58  1  0  0  0  0
 60 59  1  0  0  0  0
 62 61  1  6  0  0  0
 64 65  1  1  0  0  0
 64 62  1  0  0  0  0
 64 63  1  0  0  0  0
M  END
>  <MODEL>
1

>  <REMARK>
 VINA RESULT:      -6.7      0.000      0.000
  Name = 
  16 active torsions:
  status: ('A' for Active; 'I' for Inactive)
    1  A    between atoms: C_2  and  C_39
    2  A    between atoms: C_5  and  C_24
    3  A    between atoms: C_5  and  C_51
    4  A    between atoms: O_7  and  C_55
    5  A    between atoms: C_8  and  C_39
    6  A    between atoms: C_10  and  O_36
    7  A    between atoms: C_11  and  C_35
    8  A    between atoms: C_15  and  O_28
    9  A    between atoms: C_19  and  C_31
   10  A    between atoms: C_19  and  C_55
   11  A    between atoms: C_24  and  O_36
   12  A    between atoms: C_24  and  C_54
   13  A    between atoms: O_28  and  C_50
   14  A    between atoms: C_33  and  C_62
   15  A    between atoms: C_37  and  C_54
   16  A    between atoms: C_50  and  C_55
                            x       y       z     vdW  Elec       q    Type
                         _______ _______ _______ _____ _____    ______ ____

>  <TORSDO>
F 16

$$$$
=
 OpenBabel11042416403D

 65 71  0  0  1  0  0  0  0  0999 V2000
  190.5660  175.1440  143.3330 C   0  0  2  0  0  3  0  0  0  0  0  0
  189.0090  177.0140  143.4260 C   0  0  2  0  0  3  0  0  0  0  0  0
  186.9890  175.6570  143.1110 O   0  0  0  0  0  1  0  0  0  0  0  0
  192.8350  175.0070  144.5830 C   0  0  2  0  0  3  0  0  0  0  0  0
  191.4660  174.3580  144.2720 C   0  0  0  0  0  2  0  0  0  0  0  0
  188.3480  175.7870  142.8020 C   0  0  2  0  0  3  0  0  0  0  0  0
  190.4260  176.5900  143.8000 C   0  0  2  0  0  3  0  0  0  0  0  0
  192.6670  176.9300  143.1880 C   0  0  2  0  0  3  0  0  0  0  0  0
  191.3470  177.4540  143.1690 O   0  0  0  0  0  0  0  0  0  0  0  0
  189.1360  174.6100  143.3030 C   0  0  1  0  0  3  0  0  0  0  0  0
  192.8760  176.0460  142.1150 O   0  0  0  0  0  1  0  0  0  0  0  0
  193.0460  176.4030  144.4470 O   0  0  0  0  0  0  0  0  0  0  0  0
  188.0200  176.9230  145.7140 C   0  0  0  0  0  3  0  0  0  0  0  0
  188.2660  177.6000  144.6000 C   0  0  0  0  0  3  0  0  0  0  0  0
  187.1650  177.5190  146.8130 C   0  0  0  0  0  2  0  0  0  0  0  0
  186.2830  178.6850  146.3780 C   0  0  1  0  0  3  0  0  0  0  0  0
  184.4340  178.7880  143.3210 C   0  0  0  0  0  0  0  0  0  0  0  0
  185.2650  178.9660  142.3950 O   0  0  0  0  0  0  0  0  0  0  0  0
  183.9900  178.5740  145.7910 C   0  0  0  0  0  3  0  0  0  0  0  0
  183.0660  178.5740  143.0010 N   0  0  0  0  0  1  0  0  0  0  0  0
  186.2210  178.7720  144.9730 O   0  0  0  0  0  0  0  0  0  0  0  0
  184.8960  178.6940  144.6740 N   0  0  0  0  0  0  0  0  0  0  0  0
  184.8960  178.6290  146.9830 C   0  0  0  0  0  3  0  0  0  0  0  0
  189.1140  172.0840  143.2740 C   0  0  0  0  0  1  0  0  0  0  0  0
  188.9150  173.3510  142.4600 C   0  0  2  0  0  3  0  0  0  0  0  0
  189.5510  173.3090  141.0600 C   0  0  1  0  0  3  0  0  0  0  0  0
  190.4810  172.2360  140.8930 O   0  0  0  0  0  0  0  0  0  0  0  0
  191.8370  172.4130  141.1820 C   0  0  0  0  0  0  0  0  0  0  0  0
  192.6180  173.3020  140.3830 N   0  0  0  0  0  1  0  0  0  0  0  0
  192.3790  171.7810  142.1330 O   0  0  0  0  0  0  0  0  0  0  0  0
  188.6420  173.4950  139.8430 C   0  0  0  0  0  2  0  0  0  0  0  0
  187.6380  174.9140  137.5300 C   0  0  0  0  0  1  0  0  0  0  0  0
  188.9180  172.8100  137.4820 C   0  0  1  0  0  3  0  0  0  0  0  0
  189.5380  173.6150  138.6060 C   0  0  1  0  0  3  0  0  0  0  0  0
  189.0130  174.3190  137.3540 C   0  0  2  0  0  3  0  0  0  0  0  0
  197.2070  170.7650  139.2190 C   0  0  2  0  0  3  0  0  0  0  0  0
  195.6380  171.3200  141.1700 C   0  0  0  0  0  1  0  0  0  0  0  0
  196.3360  172.6740  137.9790 C   0  0  2  0  0  3  0  0  0  0  0  0
  191.9950  170.8280  137.9590 N   0  0  0  0  0  2  0  0  0  0  0  0
  192.9410  171.6190  137.2340 C   0  0  0  0  0  0  0  0  0  0  0  0
  192.4770  172.4990  136.1230 C   0  0  0  0  0  2  0  0  0  0  0  0
  197.9300  172.1010  141.0500 N   0  0  0  0  0  2  0  0  0  0  0  0
  195.4640  171.4850  137.8590 C   0  0  0  0  0  0  0  0  0  0  0  0
  189.7960  170.1070  138.1990 O   0  0  0  0  0  0  0  0  0  0  0  0
  197.0580  170.9890  140.7250 C   0  0  2  0  0  3  0  0  0  0  0  0
  196.6910  173.2370  136.6180 C   0  0  0  0  0  1  0  0  0  0  0  0
  194.2070  171.5560  137.5360 C   0  0  0  0  0  0  0  0  0  0  0  0
  197.5900  172.1260  138.6540 C   0  0  1  0  0  3  0  0  0  0  0  0
  190.5860  170.9470  137.7100 C   0  0  0  0  0  0  0  0  0  0  0  0
  197.9410  172.9690  139.8710 C   0  0  0  0  0  2  0  0  0  0  0  0
  191.1370  173.1010  136.4870 C   0  0  0  0  0  2  0  0  0  0  0  0
  190.0600  172.0420  136.8030 C   0  0  2  0  0  3  0  0  0  0  0  0
  195.9650  170.3680  138.5780 N   0  0  0  0  0  2  0  0  0  0  0  0
  193.9950  174.1950  144.4180 O   0  0  0  0  0  0  0  0  0  0  0  0
  195.0250  174.9910  146.3110 O   0  0  0  0  0  0  0  0  0  0  0  0
  195.0560  174.1900  145.3330 C   0  0  0  0  0  0  0  0  0  0  0  0
  197.0810  173.4530  146.2940 O   0  0  0  0  0  1  0  0  0  0  0  0
  196.2340  173.2770  145.1670 C   0  0  2  0  0  0  0  0  0  0  0  0
  196.8770  173.5950  143.9270 O   0  0  0  0  0  0  0  0  0  0  0  0
  197.4880  174.8720  143.9630 C   0  0  0  0  0  1  0  0  0  0  0  0
  194.6470  171.6220  146.0030 O   0  0  0  0  0  1  0  0  0  0  0  0
  195.7230  171.8150  145.1150 C   0  0  2  0  0  3  0  0  0  0  0  0
  196.7280  169.8450  144.2010 O   0  0  0  0  0  1  0  0  0  0  0  0
  196.8070  170.7280  145.2750 C   0  0  2  0  0  3  0  0  0  0  0  0
  196.6060  169.9390  146.5500 C   0  0  0  0  0  1  0  0  0  0  0  0
  1  7  1  0  0  0  0
  1  5  1  1  0  0  0
  2  7  1  0  0  0  0
  2 14  1  1  0  0  0
  4 54  1  6  0  0  0
  5  4  1  0  0  0  0
  6  3  1  1  0  0  0
  6 10  1  0  0  0  0
  6  2  1  0  0  0  0
  7  9  1  6  0  0  0
  8 11  1  6  0  0  0
  8 12  1  0  0  0  0
  9  8  1  0  0  0  0
 10 25  1  6  0  0  0
 10  1  1  0  0  0  0
 12  4  1  0  0  0  0
 13 15  1  0  0  0  0
 14 13  2  0  0  0  0
 16 15  1  6  0  0  0
 16 23  1  0  0  0  0
 17 22  1  0  0  0  0
 18 17  2  0  0  0  0
 19 23  2  0  0  0  0
 20 17  1  0  0  0  0
 21 16  1  0  0  0  0
 22 21  1  0  0  0  0
 22 19  1  0  0  0  0
 25 24  1  1  0  0  0
 26 31  1  6  0  0  0
 26 25  1  0  0  0  0
 27 26  1  0  0  0  0
 27 28  1  0  0  0  0
 28 30  2  0  0  0  0
 29 28  1  0  0  0  0
 33 52  1  6  0  0  0
 33 34  1  0  0  0  0
 34 31  1  1  0  0  0
 35 33  1  0  0  0  0
 35 32  1  1  0  0  0
 35 34  1  0  0  0  0
 36 53  1  6  0  0  0
 36 45  1  0  0  0  0
 38 46  1  6  0  0  0
 38 48  1  0  0  0  0
 40 47  2  0  0  0  0
 40 39  1  0  0  0  0
 41 51  1  0  0  0  0
 41 40  1  0  0  0  0
 43 38  1  0  0  0  0
 43 53  1  0  0  0  0
 45 42  1  0  0  0  0
 45 37  1  6  0  0  0
 47 43  2  0  0  0  0
 48 36  1  0  0  0  0
 48 50  1  1  0  0  0
 49 39  1  0  0  0  0
 49 44  2  0  0  0  0
 50 42  1  0  0  0  0
 52 51  1  1  0  0  0
 52 49  1  0  0  0  0
 54 56  1  0  0  0  0
 56 55  2  0  0  0  0
 58 56  1  0  0  0  0
 58 57  1  1  0  0  0
 59 60  1  0  0  0  0
 59 58  1  0  0  0  0
 62 58  1  0  0  0  0
 62 64  1  0  0  0  0
 62 61  1  1  0  0  0
 63 64  1  0  0  0  0
 64 65  1  1  0  0  0
M  END
>  <MODEL>
2

>  <REMARK>
 VINA RESULT:      -6.7      2.676     10.031
  Name = 
  16 active torsions:
  status: ('A' for Active; 'I' for Inactive)
    1  A    between atoms: C_2  and  C_39
    2  A    between atoms: C_5  and  C_24
    3  A    between atoms: C_5  and  C_51
    4  A    between atoms: O_7  and  C_55
    5  A    between atoms: C_8  and  C_39
    6  A    between atoms: C_10  and  O_36
    7  A    between atoms: C_11  and  C_35
    8  A    between atoms: C_15  and  O_28
    9  A    between atoms: C_19  and  C_31
   10  A    between atoms: C_19  and  C_55
   11  A    between atoms: C_24  and  O_36
   12  A    between atoms: C_24  and  C_54
   13  A    between atoms: O_28  and  C_50
   14  A    between atoms: C_33  and  C_62
   15  A    between atoms: C_37  and  C_54
   16  A    between atoms: C_50  and  C_55
                            x       y       z     vdW  Elec       q    Type
                         _______ _______ _______ _____ _____    ______ ____

>  <TORSDO>
F 16

$$$$
=
 OpenBabel11042416403D

 65 71  0  0  1  0  0  0  0  0999 V2000
  190.2540  172.2580  140.4390 C   0  0  2  0  0  3  0  0  0  0  0  0
  191.3060  170.2730  141.3830 C   0  0  2  0  0  3  0  0  0  0  0  0
  192.4630  169.6160  139.3220 O   0  0  0  0  0  1  0  0  0  0  0  0
  189.6730  174.4220  141.7470 C   0  0  2  0  0  3  0  0  0  0  0  0
  190.3760  173.7700  140.5330 C   0  0  0  0  0  2  0  0  0  0  0  0
  191.3210  170.2240  139.8560 C   0  0  2  0  0  3  0  0  0  0  0  0
  190.6510  171.5990  141.7580 C   0  0  2  0  0  3  0  0  0  0  0  0
  188.6880  172.4760  142.7030 C   0  0  2  0  0  3  0  0  0  0  0  0
  189.5390  171.3450  142.5910 O   0  0  0  0  0  0  0  0  0  0  0  0
  191.2030  171.6530  139.4080 C   0  0  1  0  0  3  0  0  0  0  0  0
  187.7780  172.5320  141.6330 O   0  0  0  0  0  1  0  0  0  0  0  0
  189.3870  173.6870  142.9260 O   0  0  0  0  0  0  0  0  0  0  0  0
  192.9510  170.5930  143.2310 C   0  0  0  0  0  3  0  0  0  0  0  0
  192.6570  170.1080  142.0310 C   0  0  0  0  0  3  0  0  0  0  0  0
  194.3580  170.5030  143.7810 C   0  0  0  0  0  2  0  0  0  0  0  0
  194.7570  169.1250  144.3010 C   0  0  1  0  0  3  0  0  0  0  0  0
  196.7020  168.5620  147.2460 C   0  0  0  0  0  0  0  0  0  0  0  0
  197.8850  168.8910  146.9730 O   0  0  0  0  0  0  0  0  0  0  0  0
  194.3280  168.2550  146.4630 C   0  0  0  0  0  3  0  0  0  0  0  0
  196.3730  168.1700  148.5720 N   0  0  0  0  0  1  0  0  0  0  0  0
  195.9740  169.1880  145.0100 O   0  0  0  0  0  0  0  0  0  0  0  0
  195.6860  168.6930  146.2440 N   0  0  0  0  0  0  0  0  0  0  0  0
  193.6730  168.4750  145.1330 C   0  0  0  0  0  3  0  0  0  0  0  0
  189.7120  170.7430  137.5840 C   0  0  0  0  0  1  0  0  0  0  0  0
  190.7640  171.7780  137.9470 C   0  0  2  0  0  3  0  0  0  0  0  0
  191.8620  171.9620  136.8860 C   0  0  1  0  0  3  0  0  0  0  0  0
  191.8620  170.9390  135.8870 O   0  0  0  0  0  0  0  0  0  0  0  0
  192.9130  170.0190  135.8070 C   0  0  0  0  0  0  0  0  0  0  0  0
  194.2350  170.4810  135.5340 N   0  0  0  0  0  1  0  0  0  0  0  0
  192.6960  168.7830  135.9600 O   0  0  0  0  0  0  0  0  0  0  0  0
  192.0740  173.3580  136.2960 C   0  0  0  0  0  2  0  0  0  0  0  0
  192.8960  176.0360  135.5670 C   0  0  0  0  0  1  0  0  0  0  0  0
  194.3390  174.3140  136.5760 C   0  0  1  0  0  3  0  0  0  0  0  0
  192.9930  174.1320  137.2470 C   0  0  1  0  0  3  0  0  0  0  0  0
  193.4790  175.5300  136.8630 C   0  0  2  0  0  3  0  0  0  0  0  0
  194.9150  174.3100  145.2690 C   0  0  2  0  0  3  0  0  0  0  0  0
  192.6060  174.0410  144.1860 C   0  0  0  0  0  1  0  0  0  0  0  0
  195.4360  176.1080  143.7090 C   0  0  2  0  0  3  0  0  0  0  0  0
  195.0140  173.1900  140.0270 N   0  0  0  0  0  2  0  0  0  0  0  0
  195.7000  174.3290  140.5520 C   0  0  0  0  0  0  0  0  0  0  0  0
  196.4380  175.2420  139.6330 C   0  0  0  0  0  2  0  0  0  0  0  0
  193.0010  175.4240  146.1370 N   0  0  0  0  0  2  0  0  0  0  0  0
  195.6630  174.7710  143.1170 C   0  0  0  0  0  0  0  0  0  0  0  0
  194.5110  171.8660  138.1800 O   0  0  0  0  0  0  0  0  0  0  0  0
  193.4030  174.1980  145.4750 C   0  0  2  0  0  3  0  0  0  0  0  0
  196.6580  176.9900  143.5620 C   0  0  0  0  0  1  0  0  0  0  0  0
  195.6920  174.5570  141.8350 C   0  0  0  0  0  0  0  0  0  0  0  0
  195.1920  175.8040  145.1840 C   0  0  1  0  0  3  0  0  0  0  0  0
  194.9300  172.9650  138.6100 C   0  0  0  0  0  0  0  0  0  0  0  0
  193.9040  176.4680  145.6490 C   0  0  0  0  0  2  0  0  0  0  0  0
  195.6670  175.3780  138.3370 C   0  0  0  0  0  2  0  0  0  0  0  0
  195.4080  174.0260  137.6390 C   0  0  2  0  0  3  0  0  0  0  0  0
  195.3630  173.7180  144.0200 N   0  0  0  0  0  2  0  0  0  0  0  0
  188.8000  175.5180  141.4840 O   0  0  0  0  0  0  0  0  0  0  0  0
  186.6540  175.3750  142.2930 O   0  0  0  0  0  0  0  0  0  0  0  0
  187.7940  175.9190  142.3730 C   0  0  0  0  0  0  0  0  0  0  0  0
  188.9050  177.9510  142.8230 O   0  0  0  0  0  1  0  0  0  0  0  0
  188.0280  176.9900  143.3960 C   0  0  2  0  0  0  0  0  0  0  0  0
  188.5610  176.3770  144.5750 O   0  0  0  0  0  0  0  0  0  0  0  0
  189.5620  177.1760  145.1780 C   0  0  0  0  0  1  0  0  0  0  0  0
  186.5100  178.8680  143.0410 O   0  0  0  0  0  1  0  0  0  0  0  0
  186.6700  177.6540  143.7360 C   0  0  2  0  0  3  0  0  0  0  0  0
  185.4270  176.8460  145.6150 O   0  0  0  0  0  1  0  0  0  0  0  0
  186.3650  177.8050  145.2420 C   0  0  2  0  0  3  0  0  0  0  0  0
  185.7910  179.1710  145.5480 C   0  0  0  0  0  1  0  0  0  0  0  0
  1  5  1  1  0  0  0
  1  7  1  0  0  0  0
  2  7  1  0  0  0  0
  2 14  1  6  0  0  0
  4 54  1  6  0  0  0
  4 12  1  0  0  0  0
  5  4  1  0  0  0  0
  6  3  1  1  0  0  0
  6  2  1  0  0  0  0
  7  9  1  1  0  0  0
  8 11  1  6  0  0  0
  8 12  1  0  0  0  0
  9  8  1  0  0  0  0
 10 25  1  6  0  0  0
 10  6  1  0  0  0  0
 10  1  1  0  0  0  0
 13 15  1  0  0  0  0
 14 13  2  0  0  0  0
 16 15  1  1  0  0  0
 16 21  1  0  0  0  0
 16 23  1  0  0  0  0
 17 20  1  0  0  0  0
 18 17  2  0  0  0  0
 21 22  1  0  0  0  0
 22 19  1  0  0  0  0
 22 17  1  0  0  0  0
 23 19  2  0  0  0  0
 25 24  1  6  0  0  0
 26 31  1  6  0  0  0
 26 25  1  0  0  0  0
 27 26  1  0  0  0  0
 28 27  1  0  0  0  0
 28 30  2  0  0  0  0
 29 28  1  0  0  0  0
 33 35  1  0  0  0  0
 33 34  1  0  0  0  0
 33 52  1  1  0  0  0
 34 31  1  6  0  0  0
 35 32  1  6  0  0  0
 35 34  1  0  0  0  0
 36 53  1  6  0  0  0
 36 45  1  0  0  0  0
 38 46  1  1  0  0  0
 38 48  1  0  0  0  0
 39 40  1  0  0  0  0
 40 47  2  0  0  0  0
 41 40  1  0  0  0  0
 43 38  1  0  0  0  0
 43 53  1  0  0  0  0
 44 49  2  0  0  0  0
 45 37  1  6  0  0  0
 45 42  1  0  0  0  0
 47 43  2  0  0  0  0
 48 36  1  0  0  0  0
 48 50  1  6  0  0  0
 49 39  1  0  0  0  0
 50 42  1  0  0  0  0
 51 41  1  0  0  0  0
 52 51  1  1  0  0  0
 52 49  1  0  0  0  0
 54 56  1  0  0  0  0
 55 56  2  0  0  0  0
 56 58  1  0  0  0  0
 58 57  1  6  0  0  0
 58 62  1  0  0  0  0
 58 59  1  0  0  0  0
 59 60  1  0  0  0  0
 62 61  1  6  0  0  0
 62 64  1  0  0  0  0
 64 65  1  6  0  0  0
 64 63  1  0  0  0  0
M  END
>  <MODEL>
3

>  <REMARK>
 VINA RESULT:      -6.4      2.968      8.444
  Name = 
  16 active torsions:
  status: ('A' for Active; 'I' for Inactive)
    1  A    between atoms: C_2  and  C_39
    2  A    between atoms: C_5  and  C_24
    3  A    between atoms: C_5  and  C_51
    4  A    between atoms: O_7  and  C_55
    5  A    between atoms: C_8  and  C_39
    6  A    between atoms: C_10  and  O_36
    7  A    between atoms: C_11  and  C_35
    8  A    between atoms: C_15  and  O_28
    9  A    between atoms: C_19  and  C_31
   10  A    between atoms: C_19  and  C_55
   11  A    between atoms: C_24  and  O_36
   12  A    between atoms: C_24  and  C_54
   13  A    between atoms: O_28  and  C_50
   14  A    between atoms: C_33  and  C_62
   15  A    between atoms: C_37  and  C_54
   16  A    between atoms: C_50  and  C_55
                            x       y       z     vdW  Elec       q    Type
                         _______ _______ _______ _____ _____    ______ ____

>  <TORSDO>
F 16

$$$$
=
 OpenBabel11042416403D

 65 71  0  0  1  0  0  0  0  0999 V2000
  192.4490  172.0150  140.3000 C   0  0  2  0  0  3  0  0  0  0  0  0
  191.2140  172.0900  138.2020 C   0  0  2  0  0  3  0  0  0  0  0  0
  192.0120  174.3120  137.5370 O   0  0  0  0  0  1  0  0  0  0  0  0
  193.3670  169.8700  141.4340 C   0  0  2  0  0  3  0  0  0  0  0  0
  193.6460  171.2930  140.8970 C   0  0  0  0  0  2  0  0  0  0  0  0
  191.6710  173.4880  138.6150 C   0  0  2  0  0  3  0  0  0  0  0  0
  191.7460  171.1370  139.2690 C   0  0  2  0  0  3  0  0  0  0  0  0
  191.0220  169.7680  141.0340 C   0  0  2  0  0  3  0  0  0  0  0  0
  190.6660  170.4140  139.8210 O   0  0  0  0  0  0  0  0  0  0  0  0
  192.8440  173.2720  139.5290 C   0  0  1  0  0  3  0  0  0  0  0  0
  190.8980  170.6420  142.1280 O   0  0  0  0  0  1  0  0  0  0  0  0
  192.2690  169.1000  140.9710 O   0  0  0  0  0  0  0  0  0  0  0  0
  192.5570  170.7500  136.5820 C   0  0  0  0  0  3  0  0  0  0  0  0
  191.6350  171.6750  136.8150 C   0  0  0  0  0  3  0  0  0  0  0  0
  193.0270  170.4590  135.1720 C   0  0  0  0  0  2  0  0  0  0  0  0
  194.3380  171.1350  134.7800 C   0  0  1  0  0  3  0  0  0  0  0  0
  195.8780  173.7780  136.6280 C   0  0  0  0  0  0  0  0  0  0  0  0
  195.1920  174.8130  136.4310 O   0  0  0  0  0  0  0  0  0  0  0  0
  196.2750  171.3410  136.1300 C   0  0  0  0  0  3  0  0  0  0  0  0
  196.9650  173.8240  137.5430 N   0  0  0  0  0  1  0  0  0  0  0  0
  194.3720  172.4680  135.2360 O   0  0  0  0  0  0  0  0  0  0  0  0
  195.4860  172.5440  136.0130 N   0  0  0  0  0  0  0  0  0  0  0  0
  195.5560  170.3670  135.2470 C   0  0  0  0  0  3  0  0  0  0  0  0
  194.6510  174.7900  140.4300 C   0  0  0  0  0  1  0  0  0  0  0  0
  193.1590  174.5030  140.3820 C   0  0  2  0  0  3  0  0  0  0  0  0
  192.4480  174.6310  141.7400 C   0  0  1  0  0  3  0  0  0  0  0  0
  191.2150  173.9100  141.8040 O   0  0  0  0  0  0  0  0  0  0  0  0
  189.9910  174.5740  141.6700 C   0  0  0  0  0  0  0  0  0  0  0  0
  188.9680  174.0090  140.8530 N   0  0  0  0  0  1  0  0  0  0  0  0
  189.7930  175.6770  142.2560 O   0  0  0  0  0  0  0  0  0  0  0  0
  193.2830  174.4800  143.0140 C   0  0  0  0  0  2  0  0  0  0  0  0
  194.8420  176.1880  144.7550 C   0  0  0  0  0  1  0  0  0  0  0  0
  193.0240  174.6850  145.4660 C   0  0  1  0  0  3  0  0  0  0  0  0
  192.5660  175.2420  144.1340 C   0  0  1  0  0  3  0  0  0  0  0  0
  193.3740  176.1140  145.0960 C   0  0  2  0  0  3  0  0  0  0  0  0
  184.7960  177.5470  145.4250 C   0  0  2  0  0  3  0  0  0  0  0  0
  186.0840  177.4620  143.2090 C   0  0  0  0  0  1  0  0  0  0  0  0
  186.7440  178.5250  146.5160 C   0  0  2  0  0  3  0  0  0  0  0  0
  189.3350  174.6970  145.5760 N   0  0  0  0  0  2  0  0  0  0  0  0
  189.0970  175.7570  146.5060 C   0  0  0  0  0  0  0  0  0  0  0  0
  190.1310  176.1000  147.5240 C   0  0  0  0  0  2  0  0  0  0  0  0
  184.6320  179.3020  143.8270 N   0  0  0  0  0  2  0  0  0  0  0  0
  186.8410  177.0520  146.4150 C   0  0  0  0  0  0  0  0  0  0  0  0
  190.7250  172.9710  144.8630 O   0  0  0  0  0  0  0  0  0  0  0  0
  184.8030  177.8660  143.9280 C   0  0  2  0  0  3  0  0  0  0  0  0
  186.9710  178.9950  147.9380 C   0  0  0  0  0  1  0  0  0  0  0  0
  187.9690  176.4080  146.4720 C   0  0  0  0  0  0  0  0  0  0  0  0
  185.3050  178.8140  146.0990 C   0  0  1  0  0  3  0  0  0  0  0  0
  190.6030  174.0240  145.5320 C   0  0  0  0  0  0  0  0  0  0  0  0
  185.2790  179.8750  145.0090 C   0  0  0  0  0  2  0  0  0  0  0  0
  191.5060  175.9540  146.9080 C   0  0  0  0  0  2  0  0  0  0  0  0
  191.7740  174.5430  146.3430 C   0  0  2  0  0  3  0  0  0  0  0  0
  185.7100  176.4750  145.7810 N   0  0  0  0  0  2  0  0  0  0  0  0
  193.8040  169.5740  142.7590 O   0  0  0  0  0  0  0  0  0  0  0  0
  193.2820  171.2660  144.2220 O   0  0  0  0  0  0  0  0  0  0  0  0
  194.1820  170.5650  143.6750 C   0  0  0  0  0  0  0  0  0  0  0  0
  195.8730  172.2070  143.7620 O   0  0  0  0  0  1  0  0  0  0  0  0
  195.6210  170.8290  144.0000 C   0  0  2  0  0  0  0  0  0  0  0  0
  196.4300  169.9630  143.1940 O   0  0  0  0  0  0  0  0  0  0  0  0
  197.1860  170.6860  142.2400 C   0  0  0  0  0  1  0  0  0  0  0  0
  197.1970  170.7400  145.8620 O   0  0  0  0  0  1  0  0  0  0  0  0
  195.8580  170.5010  145.4950 C   0  0  2  0  0  3  0  0  0  0  0  0
  194.6970  169.2370  147.1640 O   0  0  0  0  0  1  0  0  0  0  0  0
  195.3740  169.1080  145.9530 C   0  0  2  0  0  3  0  0  0  0  0  0
  196.5390  168.1660  146.1610 C   0  0  0  0  0  1  0  0  0  0  0  0
  1  5  1  6  0  0  0
  2 14  1  6  0  0  0
  2  6  1  0  0  0  0
  2  7  1  0  0  0  0
  4 54  1  1  0  0  0
  5  4  1  0  0  0  0
  6  3  1  6  0  0  0
  6 10  1  0  0  0  0
  7  9  1  1  0  0  0
  7  1  1  0  0  0  0
  8 11  1  1  0  0  0
  9  8  1  0  0  0  0
 10  1  1  0  0  0  0
 10 25  1  1  0  0  0
 12  8  1  0  0  0  0
 12  4  1  0  0  0  0
 13 14  2  0  0  0  0
 15 13  1  0  0  0  0
 16 15  1  1  0  0  0
 16 21  1  0  0  0  0
 16 23  1  0  0  0  0
 17 20  1  0  0  0  0
 18 17  2  0  0  0  0
 21 22  1  0  0  0  0
 22 19  1  0  0  0  0
 22 17  1  0  0  0  0
 23 19  2  0  0  0  0
 25 24  1  1  0  0  0
 25 26  1  0  0  0  0
 26 27  1  0  0  0  0
 26 31  1  1  0  0  0
 28 27  1  0  0  0  0
 28 30  2  0  0  0  0
 29 28  1  0  0  0  0
 33 52  1  1  0  0  0
 34 31  1  6  0  0  0
 34 35  1  0  0  0  0
 34 33  1  0  0  0  0
 35 32  1  6  0  0  0
 35 33  1  0  0  0  0
 36 53  1  6  0  0  0
 36 48  1  0  0  0  0
 38 46  1  1  0  0  0
 39 40  1  0  0  0  0
 40 41  1  0  0  0  0
 42 45  1  0  0  0  0
 42 50  1  0  0  0  0
 43 47  2  0  0  0  0
 43 38  1  0  0  0  0
 44 49  2  0  0  0  0
 45 37  1  1  0  0  0
 45 36  1  0  0  0  0
 47 40  2  0  0  0  0
 48 50  1  6  0  0  0
 48 38  1  0  0  0  0
 49 39  1  0  0  0  0
 49 52  1  0  0  0  0
 51 41  1  0  0  0  0
 52 51  1  6  0  0  0
 53 43  1  0  0  0  0
 54 56  1  0  0  0  0
 56 58  1  0  0  0  0
 56 55  2  0  0  0  0
 58 57  1  6  0  0  0
 58 62  1  0  0  0  0
 59 58  1  0  0  0  0
 60 59  1  0  0  0  0
 62 61  1  6  0  0  0
 62 64  1  0  0  0  0
 64 65  1  1  0  0  0
 64 63  1  0  0  0  0
M  END
>  <MODEL>
4

>  <REMARK>
 VINA RESULT:      -6.4      2.522      6.870
  Name = 
  16 active torsions:
  status: ('A' for Active; 'I' for Inactive)
    1  A    between atoms: C_2  and  C_39
    2  A    between atoms: C_5  and  C_24
    3  A    between atoms: C_5  and  C_51
    4  A    between atoms: O_7  and  C_55
    5  A    between atoms: C_8  and  C_39
    6  A    between atoms: C_10  and  O_36
    7  A    between atoms: C_11  and  C_35
    8  A    between atoms: C_15  and  O_28
    9  A    between atoms: C_19  and  C_31
   10  A    between atoms: C_19  and  C_55
   11  A    between atoms: C_24  and  O_36
   12  A    between atoms: C_24  and  C_54
   13  A    between atoms: O_28  and  C_50
   14  A    between atoms: C_33  and  C_62
   15  A    between atoms: C_37  and  C_54
   16  A    between atoms: C_50  and  C_55
                            x       y       z     vdW  Elec       q    Type
                         _______ _______ _______ _____ _____    ______ ____

>  <TORSDO>
F 16

$$$$
=
 OpenBabel11042416403D

 65 71  0  0  1  0  0  0  0  0999 V2000
  189.3050  175.5210  142.2150 C   0  0  2  0  0  3  0  0  0  0  0  0
  187.9790  177.3120  141.2310 C   0  0  2  0  0  3  0  0  0  0  0  0
  186.5700  175.8400  139.8660 O   0  0  0  0  0  1  0  0  0  0  0  0
  190.3710  175.5590  144.5800 C   0  0  2  0  0  3  0  0  0  0  0  0
  189.4710  174.8270  143.5580 C   0  0  0  0  0  2  0  0  0  0  0  0
  187.8410  176.0240  140.4220 C   0  0  2  0  0  3  0  0  0  0  0  0
  188.8940  176.9780  142.4060 C   0  0  2  0  0  3  0  0  0  0  0  0
  191.0500  177.4030  143.2340 C   0  0  2  0  0  3  0  0  0  0  0  0
  189.9990  177.8580  142.3940 O   0  0  0  0  0  0  0  0  0  0  0  0
  188.1860  174.9140  141.3730 C   0  0  1  0  0  3  0  0  0  0  0  0
  191.8720  176.4820  142.5610 O   0  0  0  0  0  1  0  0  0  0  0  0
  190.6050  176.9570  144.5020 O   0  0  0  0  0  0  0  0  0  0  0  0
  186.5490  178.6200  142.8010 C   0  0  0  0  0  3  0  0  0  0  0  0
  186.6740  177.9140  141.6850 C   0  0  0  0  0  3  0  0  0  0  0  0
  185.1910  179.0970  143.2710 C   0  0  0  0  0  2  0  0  0  0  0  0
  184.5420  178.2290  144.3450 C   0  0  1  0  0  3  0  0  0  0  0  0
  186.2360  176.9940  147.2400 C   0  0  0  0  0  0  0  0  0  0  0  0
  187.0060  176.0800  146.8520 O   0  0  0  0  0  0  0  0  0  0  0  0
  184.4610  178.6880  146.6680 C   0  0  0  0  0  3  0  0  0  0  0  0
  186.2590  177.3980  148.6020 N   0  0  0  0  0  1  0  0  0  0  0  0
  185.4940  177.3890  144.9550 O   0  0  0  0  0  0  0  0  0  0  0  0
  185.4270  177.6880  146.2810 N   0  0  0  0  0  0  0  0  0  0  0  0
  183.7870  179.0390  145.3770 C   0  0  0  0  0  3  0  0  0  0  0  0
  188.8770  172.4980  141.6330 C   0  0  0  0  0  1  0  0  0  0  0  0
  188.5300  173.6070  140.6540 C   0  0  2  0  0  3  0  0  0  0  0  0
  189.4640  173.6890  139.4350 C   0  0  1  0  0  3  0  0  0  0  0  0
  190.6250  172.8620  139.5550 O   0  0  0  0  0  0  0  0  0  0  0  0
  191.8470  173.4020  139.9680 C   0  0  0  0  0  0  0  0  0  0  0  0
  192.3780  173.0500  141.2450 N   0  0  0  0  0  1  0  0  0  0  0  0
  192.4750  174.2100  139.2250 O   0  0  0  0  0  0  0  0  0  0  0  0
  188.8430  173.6300  138.0380 C   0  0  0  0  0  2  0  0  0  0  0  0
  187.8820  175.2890  135.8700 C   0  0  0  0  0  1  0  0  0  0  0  0
  189.6390  173.5710  135.6960 C   0  0  1  0  0  3  0  0  0  0  0  0
  189.8590  174.2140  137.0510 C   0  0  1  0  0  3  0  0  0  0  0  0
  189.3720  175.0550  135.8700 C   0  0  2  0  0  3  0  0  0  0  0  0
  197.8590  173.3560  138.5730 C   0  0  2  0  0  3  0  0  0  0  0  0
  195.9510  173.1630  140.2750 C   0  0  0  0  0  1  0  0  0  0  0  0
  196.6810  175.1780  137.4630 C   0  0  2  0  0  3  0  0  0  0  0  0
  193.0430  172.3540  136.4400 N   0  0  0  0  0  2  0  0  0  0  0  0
  193.8280  173.4660  136.0020 C   0  0  0  0  0  0  0  0  0  0  0  0
  193.2990  174.3830  134.9520 C   0  0  0  0  0  2  0  0  0  0  0  0
  197.9410  174.4920  140.6620 N   0  0  0  0  0  2  0  0  0  0  0  0
  196.1860  173.8500  137.0360 C   0  0  0  0  0  0  0  0  0  0  0  0
  191.1080  171.0840  136.1940 O   0  0  0  0  0  0  0  0  0  0  0  0
  197.4540  173.2730  140.0460 C   0  0  2  0  0  3  0  0  0  0  0  0
  197.0500  176.0360  136.2710 C   0  0  0  0  0  1  0  0  0  0  0  0
  195.0120  173.6640  136.5100 C   0  0  0  0  0  0  0  0  0  0  0  0
  197.9340  174.8460  138.2690 C   0  0  1  0  0  3  0  0  0  0  0  0
  191.7010  172.1640  135.9650 C   0  0  0  0  0  0  0  0  0  0  0  0
  197.8770  175.5270  139.6280 C   0  0  0  0  0  2  0  0  0  0  0  0
  191.8100  174.5650  135.1530 C   0  0  0  0  0  2  0  0  0  0  0  0
  191.0260  173.2360  135.1320 C   0  0  2  0  0  3  0  0  0  0  0  0
  196.8680  172.7840  137.6780 N   0  0  0  0  0  2  0  0  0  0  0  0
  191.4090  174.8010  145.1970 O   0  0  0  0  0  0  0  0  0  0  0  0
  192.1100  175.7660  147.1610 O   0  0  0  0  0  0  0  0  0  0  0  0
  192.4060  175.3820  145.9920 C   0  0  0  0  0  0  0  0  0  0  0  0
  194.6970  175.2800  146.5440 O   0  0  0  0  0  1  0  0  0  0  0  0
  193.8020  175.5820  145.4830 C   0  0  2  0  0  0  0  0  0  0  0  0
  193.9210  176.9300  145.0140 O   0  0  0  0  0  0  0  0  0  0  0  0
  194.6230  177.7470  145.9340 C   0  0  0  0  0  1  0  0  0  0  0  0
  193.8570  173.2710  144.6990 O   0  0  0  0  0  1  0  0  0  0  0  0
  194.0400  174.6090  144.3010 C   0  0  2  0  0  3  0  0  0  0  0  0
  196.3680  175.1450  144.4410 O   0  0  0  0  0  1  0  0  0  0  0  0
  195.3660  174.8070  143.5350 C   0  0  2  0  0  3  0  0  0  0  0  0
  195.2490  175.9250  142.5220 C   0  0  0  0  0  1  0  0  0  0  0  0
  1  7  1  0  0  0  0
  1  5  1  1  0  0  0
  2 14  1  1  0  0  0
  2  7  1  0  0  0  0
  4 54  1  6  0  0  0
  5  4  1  0  0  0  0
  6  3  1  1  0  0  0
  6  2  1  0  0  0  0
  6 10  1  0  0  0  0
  7  9  1  6  0  0  0
  8 11  1  6  0  0  0
  8 12  1  0  0  0  0
  9  8  1  0  0  0  0
 10 25  1  6  0  0  0
 10  1  1  0  0  0  0
 12  4  1  0  0  0  0
 13 15  1  0  0  0  0
 14 13  2  0  0  0  0
 16 15  1  6  0  0  0
 16 21  1  0  0  0  0
 16 23  1  0  0  0  0
 17 20  1  0  0  0  0
 18 17  2  0  0  0  0
 21 22  1  0  0  0  0
 22 19  1  0  0  0  0
 22 17  1  0  0  0  0
 23 19  2  0  0  0  0
 25 24  1  1  0  0  0
 26 31  1  6  0  0  0
 26 27  1  0  0  0  0
 26 25  1  0  0  0  0
 27 28  1  0  0  0  0
 28 29  1  0  0  0  0
 30 28  2  0  0  0  0
 33 52  1  6  0  0  0
 33 35  1  0  0  0  0
 33 34  1  0  0  0  0
 34 31  1  1  0  0  0
 35 32  1  1  0  0  0
 35 34  1  0  0  0  0
 36 53  1  6  0  0  0
 36 45  1  0  0  0  0
 38 46  1  6  0  0  0
 38 48  1  0  0  0  0
 40 39  1  0  0  0  0
 40 47  2  0  0  0  0
 41 51  1  0  0  0  0
 41 40  1  0  0  0  0
 43 38  1  0  0  0  0
 43 53  1  0  0  0  0
 45 37  1  6  0  0  0
 45 42  1  0  0  0  0
 47 43  2  0  0  0  0
 48 36  1  0  0  0  0
 48 50  1  1  0  0  0
 49 44  2  0  0  0  0
 49 39  1  0  0  0  0
 50 42  1  0  0  0  0
 52 51  1  1  0  0  0
 52 49  1  0  0  0  0
 54 56  1  0  0  0  0
 56 55  2  0  0  0  0
 58 56  1  0  0  0  0
 58 57  1  1  0  0  0
 59 58  1  0  0  0  0
 59 60  1  0  0  0  0
 62 61  1  1  0  0  0
 62 58  1  0  0  0  0
 64 65  1  6  0  0  0
 64 62  1  0  0  0  0
 64 63  1  0  0  0  0
M  END
>  <MODEL>
5

>  <REMARK>
 VINA RESULT:      -6.4      2.667     10.311
  Name = 
  16 active torsions:
  status: ('A' for Active; 'I' for Inactive)
    1  A    between atoms: C_2  and  C_39
    2  A    between atoms: C_5  and  C_24
    3  A    between atoms: C_5  and  C_51
    4  A    between atoms: O_7  and  C_55
    5  A    between atoms: C_8  and  C_39
    6  A    between atoms: C_10  and  O_36
    7  A    between atoms: C_11  and  C_35
    8  A    between atoms: C_15  and  O_28
    9  A    between atoms: C_19  and  C_31
   10  A    between atoms: C_19  and  C_55
   11  A    between atoms: C_24  and  O_36
   12  A    between atoms: C_24  and  C_54
   13  A    between atoms: O_28  and  C_50
   14  A    between atoms: C_33  and  C_62
   15  A    between atoms: C_37  and  C_54
   16  A    between atoms: C_50  and  C_55
                            x       y       z     vdW  Elec       q    Type
                         _______ _______ _______ _____ _____    ______ ____

>  <TORSDO>
F 16

$$$$
=
 OpenBabel11042416403D

 65 71  0  0  1  0  0  0  0  0999 V2000
  195.0040  174.0660  139.7760 C   0  0  2  0  0  3  0  0  0  0  0  0
  197.2640  174.0470  140.6850 C   0  0  2  0  0  3  0  0  0  0  0  0
  196.7120  175.3000  142.7200 O   0  0  0  0  0  1  0  0  0  0  0  0
  193.9650  172.2200  138.2780 C   0  0  2  0  0  3  0  0  0  0  0  0
  193.8560  173.0970  139.5470 C   0  0  0  0  0  2  0  0  0  0  0  0
  196.4130  175.1170  141.3650 C   0  0  2  0  0  3  0  0  0  0  0  0
  196.3470  173.3460  139.6860 C   0  0  2  0  0  3  0  0  0  0  0  0
  195.9840  173.1080  137.3790 C   0  0  2  0  0  3  0  0  0  0  0  0
  196.9190  173.4280  138.3980 O   0  0  0  0  0  0  0  0  0  0  0  0
  194.9890  174.6770  141.1750 C   0  0  1  0  0  3  0  0  0  0  0  0
  195.2160  174.2320  137.0260 O   0  0  0  0  0  1  0  0  0  0  0  0
  195.2150  171.9530  137.6620 O   0  0  0  0  0  0  0  0  0  0  0  0
  197.2470  172.1540  142.3090 C   0  0  0  0  0  3  0  0  0  0  0  0
  197.9210  173.0710  141.6280 C   0  0  0  0  0  3  0  0  0  0  0  0
  197.9410  171.2810  143.3340 C   0  0  0  0  0  2  0  0  0  0  0  0
  197.0360  170.2750  144.0390 C   0  0  1  0  0  3  0  0  0  0  0  0
  193.4930  170.0990  143.6080 C   0  0  0  0  0  0  0  0  0  0  0  0
  193.0000  171.0860  144.2100 O   0  0  0  0  0  0  0  0  0  0  0  0
  195.5380  168.7600  143.0020 C   0  0  0  0  0  3  0  0  0  0  0  0
  192.6430  169.2440  142.8540 N   0  0  0  0  0  1  0  0  0  0  0  0
  195.7410  170.8020  144.2170 O   0  0  0  0  0  0  0  0  0  0  0  0
  194.9140  169.9150  143.6010 N   0  0  0  0  0  0  0  0  0  0  0  0
  196.9890  168.9350  143.3350 C   0  0  0  0  0  3  0  0  0  0  0  0
  194.6390  177.1780  141.2340 C   0  0  0  0  0  1  0  0  0  0  0  0
  193.9880  175.8150  141.3920 C   0  0  2  0  0  3  0  0  0  0  0  0
  193.0350  175.7050  142.5950 C   0  0  1  0  0  3  0  0  0  0  0  0
  191.8140  175.0270  142.2900 O   0  0  0  0  0  0  0  0  0  0  0  0
  190.5820  175.6710  142.4400 C   0  0  0  0  0  0  0  0  0  0  0  0
  190.5480  177.0600  142.7690 N   0  0  0  0  0  1  0  0  0  0  0  0
  189.5020  175.0300  142.3030 O   0  0  0  0  0  0  0  0  0  0  0  0
  193.6180  175.2880  143.9470 C   0  0  0  0  0  2  0  0  0  0  0  0
  194.9320  176.6020  146.1650 C   0  0  0  0  0  1  0  0  0  0  0  0
  192.9540  175.1420  146.3260 C   0  0  1  0  0  3  0  0  0  0  0  0
  192.7560  175.9230  145.0420 C   0  0  1  0  0  3  0  0  0  0  0  0
  193.4260  176.5820  146.2490 C   0  0  2  0  0  3  0  0  0  0  0  0
  184.7520  177.4990  144.5730 C   0  0  2  0  0  3  0  0  0  0  0  0
  186.4450  177.4020  142.6490 C   0  0  0  0  0  1  0  0  0  0  0  0
  186.3990  178.6360  145.9620 C   0  0  2  0  0  3  0  0  0  0  0  0
  189.3170  174.9360  145.7310 N   0  0  0  0  0  2  0  0  0  0  0  0
  188.8490  176.0170  146.5430 C   0  0  0  0  0  0  0  0  0  0  0  0
  189.6490  176.4630  147.7200 C   0  0  0  0  0  2  0  0  0  0  0  0
  184.8090  179.1750  142.8850 N   0  0  0  0  0  2  0  0  0  0  0  0
  186.5900  177.1690  145.9580 C   0  0  0  0  0  0  0  0  0  0  0  0
  190.9040  173.2700  145.3850 O   0  0  0  0  0  0  0  0  0  0  0  0
  185.0300  177.7560  143.0900 C   0  0  2  0  0  3  0  0  0  0  0  0
  186.3230  179.1770  147.3750 C   0  0  0  0  0  1  0  0  0  0  0  0
  187.7170  176.5970  146.2620 C   0  0  0  0  0  0  0  0  0  0  0  0
  185.0550  178.8210  145.2650 C   0  0  1  0  0  3  0  0  0  0  0  0
  190.6030  174.3400  145.9630 C   0  0  0  0  0  0  0  0  0  0  0  0
  185.1850  179.8330  144.1370 C   0  0  0  0  0  2  0  0  0  0  0  0
  191.1220  176.3760  147.3850 C   0  0  0  0  0  2  0  0  0  0  0  0
  191.5660  174.9610  146.9550 C   0  0  2  0  0  3  0  0  0  0  0  0
  185.6330  176.4990  145.1510 N   0  0  0  0  0  2  0  0  0  0  0  0
  192.8370  172.1870  137.4070 O   0  0  0  0  0  0  0  0  0  0  0  0
  192.4010  169.9370  137.2550 O   0  0  0  0  0  0  0  0  0  0  0  0
  191.9420  171.1110  137.3620 C   0  0  0  0  0  0  0  0  0  0  0  0
  189.8360  170.0860  137.0800 O   0  0  0  0  0  1  0  0  0  0  0  0
  190.4580  171.3190  137.4140 C   0  0  2  0  0  0  0  0  0  0  0  0
  190.1210  172.3790  136.5110 O   0  0  0  0  0  0  0  0  0  0  0  0
  190.2900  171.9930  135.1590 C   0  0  0  0  0  1  0  0  0  0  0  0
  190.0040  173.1350  138.9810 O   0  0  0  0  0  1  0  0  0  0  0  0
  190.0660  171.7330  138.8550 C   0  0  2  0  0  3  0  0  0  0  0  0
  190.4320  169.8000  140.2170 O   0  0  0  0  0  1  0  0  0  0  0  0
  190.9040  171.0890  139.9800 C   0  0  2  0  0  3  0  0  0  0  0  0
  190.7890  171.8770  141.2660 C   0  0  0  0  0  1  0  0  0  0  0  0
  1  5  1  1  0  0  0
  1 10  1  0  0  0  0
  2  6  1  0  0  0  0
  2 14  1  1  0  0  0
  4 54  1  6  0  0  0
  4  5  1  0  0  0  0
  6  3  1  1  0  0  0
  7  9  1  6  0  0  0
  7  1  1  0  0  0  0
  7  2  1  0  0  0  0
  8 11  1  1  0  0  0
  8 12  1  0  0  0  0
  8  9  1  0  0  0  0
 10  6  1  0  0  0  0
 10 25  1  6  0  0  0
 12  4  1  0  0  0  0
 13 15  1  0  0  0  0
 14 13  2  0  0  0  0
 16 15  1  6  0  0  0
 16 21  1  0  0  0  0
 17 18  2  0  0  0  0
 19 23  2  0  0  0  0
 19 22  1  0  0  0  0
 20 17  1  0  0  0  0
 22 17  1  0  0  0  0
 22 21  1  0  0  0  0
 23 16  1  0  0  0  0
 25 24  1  1  0  0  0
 25 26  1  0  0  0  0
 26 31  1  1  0  0  0
 27 28  1  0  0  0  0
 27 26  1  0  0  0  0
 28 29  1  0  0  0  0
 30 28  2  0  0  0  0
 33 52  1  1  0  0  0
 34 31  1  6  0  0  0
 34 35  1  0  0  0  0
 34 33  1  0  0  0  0
 35 32  1  6  0  0  0
 35 33  1  0  0  0  0
 36 53  1  1  0  0  0
 36 48  1  0  0  0  0
 38 46  1  1  0  0  0
 39 49  1  0  0  0  0
 39 40  1  0  0  0  0
 40 41  1  0  0  0  0
 42 45  1  0  0  0  0
 42 50  1  0  0  0  0
 43 38  1  0  0  0  0
 43 47  2  0  0  0  0
 44 49  2  0  0  0  0
 45 37  1  1  0  0  0
 45 36  1  0  0  0  0
 47 40  2  0  0  0  0
 48 50  1  6  0  0  0
 48 38  1  0  0  0  0
 49 52  1  0  0  0  0
 51 41  1  0  0  0  0
 52 51  1  6  0  0  0
 53 43  1  0  0  0  0
 55 56  2  0  0  0  0
 56 54  1  0  0  0  0
 56 58  1  0  0  0  0
 58 57  1  6  0  0  0
 58 62  1  0  0  0  0
 59 58  1  0  0  0  0
 60 59  1  0  0  0  0
 62 61  1  6  0  0  0
 62 64  1  0  0  0  0
 64 63  1  0  0  0  0
 64 65  1  1  0  0  0
M  END
>  <MODEL>
6

>  <REMARK>
 VINA RESULT:      -6.3      1.809      3.910
  Name = 
  16 active torsions:
  status: ('A' for Active; 'I' for Inactive)
    1  A    between atoms: C_2  and  C_39
    2  A    between atoms: C_5  and  C_24
    3  A    between atoms: C_5  and  C_51
    4  A    between atoms: O_7  and  C_55
    5  A    between atoms: C_8  and  C_39
    6  A    between atoms: C_10  and  O_36
    7  A    between atoms: C_11  and  C_35
    8  A    between atoms: C_15  and  O_28
    9  A    between atoms: C_19  and  C_31
   10  A    between atoms: C_19  and  C_55
   11  A    between atoms: C_24  and  O_36
   12  A    between atoms: C_24  and  C_54
   13  A    between atoms: O_28  and  C_50
   14  A    between atoms: C_33  and  C_62
   15  A    between atoms: C_37  and  C_54
   16  A    between atoms: C_50  and  C_55
                            x       y       z     vdW  Elec       q    Type
                         _______ _______ _______ _____ _____    ______ ____

>  <TORSDO>
F 16

$$$$
=
 OpenBabel11042416403D

 65 71  0  0  1  0  0  0  0  0999 V2000
  191.1490  173.7560  140.6740 C   0  0  2  0  0  3  0  0  0  0  0  0
  193.3070  173.1800  141.6470 C   0  0  2  0  0  3  0  0  0  0  0  0
  194.6010  173.5680  139.6000 O   0  0  0  0  0  1  0  0  0  0  0  0
  189.1520  174.8110  141.9500 C   0  0  2  0  0  3  0  0  0  0  0  0
  190.1240  174.8750  140.7480 C   0  0  0  0  0  2  0  0  0  0  0  0
  193.3720  173.1490  140.1220 C   0  0  2  0  0  3  0  0  0  0  0  0
  191.8850  173.6050  142.0030 C   0  0  2  0  0  3  0  0  0  0  0  0
  189.8950  172.7700  142.9280 C   0  0  2  0  0  3  0  0  0  0  0  0
  191.3040  172.6230  142.8340 O   0  0  0  0  0  0  0  0  0  0  0  0
  192.2510  174.0330  139.6540 C   0  0  1  0  0  3  0  0  0  0  0  0
  189.2470  172.1350  141.8530 O   0  0  0  0  0  1  0  0  0  0  0  0
  189.4810  174.1080  143.1380 O   0  0  0  0  0  0  0  0  0  0  0  0
  194.0620  175.2590  142.8000 C   0  0  0  0  0  3  0  0  0  0  0  0
  194.3400  174.0600  142.3040 C   0  0  0  0  0  3  0  0  0  0  0  0
  195.1620  176.1500  143.3380 C   0  0  0  0  0  2  0  0  0  0  0  0
  195.0700  176.4530  144.8310 C   0  0  1  0  0  3  0  0  0  0  0  0
  192.0740  176.1930  146.7630 C   0  0  0  0  0  0  0  0  0  0  0  0
  191.3430  177.1620  146.4390 O   0  0  0  0  0  0  0  0  0  0  0  0
  194.2740  174.9910  146.5180 C   0  0  0  0  0  3  0  0  0  0  0  0
  191.5780  175.2130  147.6660 N   0  0  0  0  0  1  0  0  0  0  0  0
  193.7780  176.8980  145.1740 O   0  0  0  0  0  0  0  0  0  0  0  0
  193.3510  176.0320  146.1330 N   0  0  0  0  0  0  0  0  0  0  0  0
  195.4920  175.2820  145.6940 C   0  0  0  0  0  3  0  0  0  0  0  0
  192.4830  174.8360  137.2700 C   0  0  0  0  0  1  0  0  0  0  0  0
  191.8780  173.7880  138.1900 C   0  0  2  0  0  3  0  0  0  0  0  0
  190.4130  173.4420  137.8760 C   0  0  1  0  0  3  0  0  0  0  0  0
  189.9000  174.1330  136.7340 O   0  0  0  0  0  0  0  0  0  0  0  0
  188.6220  174.6990  136.7560 C   0  0  0  0  0  0  0  0  0  0  0  0
  188.1850  175.4980  135.6580 N   0  0  0  0  0  1  0  0  0  0  0  0
  187.8590  174.5210  137.7480 O   0  0  0  0  0  0  0  0  0  0  0  0
  189.9910  171.9710  137.9110 C   0  0  0  0  0  2  0  0  0  0  0  0
  190.5680  171.1130  135.2070 C   0  0  0  0  0  1  0  0  0  0  0  0
  190.8020  169.7330  137.2350 C   0  0  1  0  0  3  0  0  0  0  0  0
  191.2400  171.1210  137.6580 C   0  0  1  0  0  3  0  0  0  0  0  0
  191.5420  170.6150  136.2470 C   0  0  2  0  0  3  0  0  0  0  0  0
  195.3940  169.5440  144.6360 C   0  0  2  0  0  3  0  0  0  0  0  0
  193.4540  171.2080  144.4300 C   0  0  0  0  0  1  0  0  0  0  0  0
  196.1410  170.1420  142.3950 C   0  0  2  0  0  3  0  0  0  0  0  0
  192.0850  168.6340  140.5160 N   0  0  0  0  0  2  0  0  0  0  0  0
  193.4940  168.7740  140.3160 C   0  0  0  0  0  0  0  0  0  0  0  0
  194.0610  168.6920  138.9390 C   0  0  0  0  0  2  0  0  0  0  0  0
  195.5810  171.7730  145.4470 N   0  0  0  0  0  2  0  0  0  0  0  0
  195.0460  169.1470  142.3720 C   0  0  0  0  0  0  0  0  0  0  0  0
  189.9940  168.1950  139.5950 O   0  0  0  0  0  0  0  0  0  0  0  0
  194.6200  170.7010  145.2710 C   0  0  2  0  0  3  0  0  0  0  0  0
  197.3240  169.6770  141.5710 C   0  0  0  0  0  1  0  0  0  0  0  0
  194.2800  168.9560  141.3380 C   0  0  0  0  0  0  0  0  0  0  0  0
  196.5310  170.2050  143.8680 C   0  0  1  0  0  3  0  0  0  0  0  0
  191.1870  168.5240  139.4010 C   0  0  0  0  0  0  0  0  0  0  0  0
  196.5380  171.6490  144.3470 C   0  0  0  0  0  2  0  0  0  0  0  0
  193.1080  169.3520  137.9660 C   0  0  0  0  0  2  0  0  0  0  0  0
  191.6930  168.7370  137.9880 C   0  0  2  0  0  3  0  0  0  0  0  0
  194.6060  168.7930  143.6740 N   0  0  0  0  0  2  0  0  0  0  0  0
  187.7580  174.9160  141.6700 O   0  0  0  0  0  0  0  0  0  0  0  0
  187.1560  176.5690  140.1920 O   0  0  0  0  0  0  0  0  0  0  0  0
  187.1310  176.1350  141.3810 C   0  0  0  0  0  0  0  0  0  0  0  0
  186.0600  176.0550  143.4810 O   0  0  0  0  0  1  0  0  0  0  0  0
  186.4550  176.9450  142.4460 C   0  0  2  0  0  0  0  0  0  0  0  0
  185.3530  177.6400  141.8520 O   0  0  0  0  0  0  0  0  0  0  0  0
  184.4380  178.1060  142.8260 C   0  0  0  0  0  1  0  0  0  0  0  0
  188.1330  178.6480  141.9530 O   0  0  0  0  0  1  0  0  0  0  0  0
  187.4700  177.9780  142.9990 C   0  0  2  0  0  3  0  0  0  0  0  0
  188.0880  177.9160  145.3100 O   0  0  0  0  0  1  0  0  0  0  0  0
  188.4570  177.4370  144.0560 C   0  0  2  0  0  3  0  0  0  0  0  0
  189.8690  177.8990  143.7700 C   0  0  0  0  0  1  0  0  0  0  0  0
  1  5  1  1  0  0  0
  1  7  1  0  0  0  0
  2  7  1  0  0  0  0
  2 14  1  6  0  0  0
  4 54  1  6  0  0  0
  4 12  1  0  0  0  0
  5  4  1  0  0  0  0
  6  3  1  1  0  0  0
  6  2  1  0  0  0  0
  7  9  1  1  0  0  0
  8 11  1  6  0  0  0
  8 12  1  0  0  0  0
  9  8  1  0  0  0  0
 10 25  1  6  0  0  0
 10  6  1  0  0  0  0
 10  1  1  0  0  0  0
 13 15  1  0  0  0  0
 14 13  2  0  0  0  0
 16 15  1  6  0  0  0
 16 21  1  0  0  0  0
 16 23  1  0  0  0  0
 17 20  1  0  0  0  0
 18 17  2  0  0  0  0
 21 22  1  0  0  0  0
 22 19  1  0  0  0  0
 22 17  1  0  0  0  0
 23 19  2  0  0  0  0
 25 24  1  6  0  0  0
 26 31  1  6  0  0  0
 26 25  1  0  0  0  0
 27 28  1  0  0  0  0
 27 26  1  0  0  0  0
 28 30  2  0  0  0  0
 29 28  1  0  0  0  0
 33 34  1  0  0  0  0
 33 52  1  1  0  0  0
 34 31  1  6  0  0  0
 35 32  1  6  0  0  0
 35 33  1  0  0  0  0
 35 34  1  0  0  0  0
 36 53  1  6  0  0  0
 36 45  1  0  0  0  0
 38 46  1  6  0  0  0
 38 48  1  0  0  0  0
 40 39  1  0  0  0  0
 40 47  2  0  0  0  0
 41 40  1  0  0  0  0
 43 38  1  0  0  0  0
 43 53  1  0  0  0  0
 45 37  1  6  0  0  0
 45 42  1  0  0  0  0
 47 43  2  0  0  0  0
 48 50  1  1  0  0  0
 48 36  1  0  0  0  0
 49 44  2  0  0  0  0
 49 39  1  0  0  0  0
 50 42  1  0  0  0  0
 51 41  1  0  0  0  0
 52 51  1  1  0  0  0
 52 49  1  0  0  0  0
 55 56  2  0  0  0  0
 56 54  1  0  0  0  0
 56 58  1  0  0  0  0
 58 62  1  0  0  0  0
 58 57  1  1  0  0  0
 59 58  1  0  0  0  0
 59 60  1  0  0  0  0
 62 61  1  6  0  0  0
 62 64  1  0  0  0  0
 64 65  1  6  0  0  0
 64 63  1  0  0  0  0
M  END
>  <MODEL>
7

>  <REMARK>
 VINA RESULT:      -6.2      2.735      9.041
  Name = 
  16 active torsions:
  status: ('A' for Active; 'I' for Inactive)
    1  A    between atoms: C_2  and  C_39
    2  A    between atoms: C_5  and  C_24
    3  A    between atoms: C_5  and  C_51
    4  A    between atoms: O_7  and  C_55
    5  A    between atoms: C_8  and  C_39
    6  A    between atoms: C_10  and  O_36
    7  A    between atoms: C_11  and  C_35
    8  A    between atoms: C_15  and  O_28
    9  A    between atoms: C_19  and  C_31
   10  A    between atoms: C_19  and  C_55
   11  A    between atoms: C_24  and  O_36
   12  A    between atoms: C_24  and  C_54
   13  A    between atoms: O_28  and  C_50
   14  A    between atoms: C_33  and  C_62
   15  A    between atoms: C_37  and  C_54
   16  A    between atoms: C_50  and  C_55
                            x       y       z     vdW  Elec       q    Type
                         _______ _______ _______ _____ _____    ______ ____

>  <TORSDO>
F 16

$$$$
=
 OpenBabel11042416403D

 65 71  0  0  1  0  0  0  0  0999 V2000
  192.5910  171.9800  141.2540 C   0  0  2  0  0  3  0  0  0  0  0  0
  190.4130  171.3930  140.3370 C   0  0  2  0  0  3  0  0  0  0  0  0
  190.1130  173.4810  139.0830 O   0  0  0  0  0  1  0  0  0  0  0  0
  194.4850  170.3040  141.8320 C   0  0  2  0  0  3  0  0  0  0  0  0
  194.0480  171.5840  141.0820 C   0  0  0  0  0  2  0  0  0  0  0  0
  190.6610  172.8970  140.2320 C   0  0  2  0  0  3  0  0  0  0  0  0
  191.6700  170.7980  140.9630 C   0  0  2  0  0  3  0  0  0  0  0  0
  192.4410  169.8020  142.9450 C   0  0  2  0  0  3  0  0  0  0  0  0
  191.3130  170.0900  142.1310 O   0  0  0  0  0  0  0  0  0  0  0  0
  192.1540  173.0600  140.2680 C   0  0  1  0  0  3  0  0  0  0  0  0
  192.7480  170.8850  143.7860 O   0  0  0  0  0  1  0  0  0  0  0  0
  193.5500  169.3090  142.2150 O   0  0  0  0  0  0  0  0  0  0  0  0
  190.8700  169.8800  138.4070 C   0  0  0  0  0  3  0  0  0  0  0  0
  190.0580  170.7210  139.0340 C   0  0  0  0  0  3  0  0  0  0  0  0
  190.5150  169.3290  137.0420 C   0  0  0  0  0  2  0  0  0  0  0  0
  190.9800  170.1800  135.8650 C   0  0  1  0  0  3  0  0  0  0  0  0
  190.2710  173.6620  135.4860 C   0  0  0  0  0  0  0  0  0  0  0  0
  189.0560  173.7590  135.1790 O   0  0  0  0  0  0  0  0  0  0  0  0
  192.2450  172.1800  135.9860 C   0  0  0  0  0  3  0  0  0  0  0  0
  191.0320  174.8430  135.7080 N   0  0  0  0  0  1  0  0  0  0  0  0
  190.0830  171.2400  135.6250 O   0  0  0  0  0  0  0  0  0  0  0  0
  190.8400  172.3670  135.7140 N   0  0  0  0  0  0  0  0  0  0  0  0
  192.3960  170.6900  136.0330 C   0  0  0  0  0  3  0  0  0  0  0  0
  194.0280  174.7530  140.2330 C   0  0  0  0  0  1  0  0  0  0  0  0
  192.5810  174.4880  140.6140 C   0  0  2  0  0  3  0  0  0  0  0  0
  192.1820  175.0380  141.9940 C   0  0  1  0  0  3  0  0  0  0  0  0
  190.8540  174.6770  142.3850 O   0  0  0  0  0  0  0  0  0  0  0  0
  189.8260  175.6240  142.3820 C   0  0  0  0  0  0  0  0  0  0  0  0
  188.4690  175.1920  142.2950 N   0  0  0  0  0  1  0  0  0  0  0  0
  190.0920  176.8590  142.4390 O   0  0  0  0  0  0  0  0  0  0  0  0
  193.1850  174.9160  143.1430 C   0  0  0  0  0  2  0  0  0  0  0  0
  194.9410  176.2470  145.0200 C   0  0  0  0  0  1  0  0  0  0  0  0
  193.0090  174.8360  145.6100 C   0  0  1  0  0  3  0  0  0  0  0  0
  192.5720  175.5940  144.3720 C   0  0  1  0  0  3  0  0  0  0  0  0
  193.4820  176.2630  145.4030 C   0  0  2  0  0  3  0  0  0  0  0  0
  184.7420  177.5830  145.6170 C   0  0  2  0  0  3  0  0  0  0  0  0
  185.9990  177.4600  143.3860 C   0  0  0  0  0  1  0  0  0  0  0  0
  186.6910  178.6150  146.6550 C   0  0  2  0  0  3  0  0  0  0  0  0
  189.3220  174.8000  145.7730 N   0  0  0  0  0  2  0  0  0  0  0  0
  189.0820  175.8800  146.6800 C   0  0  0  0  0  0  0  0  0  0  0  0
  190.1260  176.2620  147.6740 C   0  0  0  0  0  2  0  0  0  0  0  0
  184.5300  179.2950  143.9790 N   0  0  0  0  0  2  0  0  0  0  0  0
  186.8070  177.1410  146.5890 C   0  0  0  0  0  0  0  0  0  0  0  0
  190.7250  173.0770  145.0820 O   0  0  0  0  0  0  0  0  0  0  0  0
  184.7220  177.8640  144.1130 C   0  0  2  0  0  3  0  0  0  0  0  0
  186.9310  179.1240  148.0620 C   0  0  0  0  0  1  0  0  0  0  0  0
  187.9450  176.5140  146.6460 C   0  0  0  0  0  0  0  0  0  0  0  0
  185.2420  178.8740  146.2520 C   0  0  1  0  0  3  0  0  0  0  0  0
  190.5990  174.1440  145.7260 C   0  0  0  0  0  0  0  0  0  0  0  0
  185.1850  179.9060  145.1370 C   0  0  0  0  0  2  0  0  0  0  0  0
  191.4940  176.1200  147.0420 C   0  0  0  0  0  2  0  0  0  0  0  0
  191.7730  174.6990  146.5080 C   0  0  2  0  0  3  0  0  0  0  0  0
  185.6750  176.5330  145.9870 N   0  0  0  0  0  2  0  0  0  0  0  0
  195.6530  170.3900  142.6460 O   0  0  0  0  0  0  0  0  0  0  0  0
  196.4840  168.2520  142.7810 O   0  0  0  0  0  0  0  0  0  0  0  0
  196.1430  169.3080  143.3890 C   0  0  0  0  0  0  0  0  0  0  0  0
  196.8820  168.1690  145.3180 O   0  0  0  0  0  1  0  0  0  0  0  0
  196.2480  169.3640  144.8840 C   0  0  2  0  0  0  0  0  0  0  0  0
  194.9300  169.5270  145.4210 O   0  0  0  0  0  0  0  0  0  0  0  0
  194.2270  168.3000  145.4720 C   0  0  0  0  0  1  0  0  0  0  0  0
  197.5660  170.4900  146.6020 O   0  0  0  0  0  1  0  0  0  0  0  0
  197.1120  170.5900  145.2730 C   0  0  2  0  0  3  0  0  0  0  0  0
  197.1560  172.5640  143.9210 O   0  0  0  0  0  1  0  0  0  0  0  0
  196.4790  171.9670  144.9800 C   0  0  2  0  0  3  0  0  0  0  0  0
  196.5810  172.8810  146.1820 C   0  0  0  0  0  1  0  0  0  0  0  0
  1  5  1  6  0  0  0
  2 14  1  6  0  0  0
  2  7  1  0  0  0  0
  4 12  1  0  0  0  0
  4 54  1  1  0  0  0
  5  4  1  0  0  0  0
  6  3  1  6  0  0  0
  6 10  1  0  0  0  0
  6  2  1  0  0  0  0
  7  1  1  0  0  0  0
  7  9  1  1  0  0  0
  8 11  1  6  0  0  0
  9  8  1  0  0  0  0
 10 25  1  1  0  0  0
 10  1  1  0  0  0  0
 12  8  1  0  0  0  0
 13 14  2  0  0  0  0
 15 13  1  0  0  0  0
 16 23  1  0  0  0  0
 16 15  1  1  0  0  0
 17 20  1  0  0  0  0
 17 22  1  0  0  0  0
 18 17  2  0  0  0  0
 19 23  2  0  0  0  0
 21 22  1  0  0  0  0
 21 16  1  0  0  0  0
 22 19  1  0  0  0  0
 25 24  1  1  0  0  0
 25 26  1  0  0  0  0
 26 27  1  0  0  0  0
 26 31  1  1  0  0  0
 28 27  1  0  0  0  0
 28 30  2  0  0  0  0
 29 28  1  0  0  0  0
 33 52  1  1  0  0  0
 34 31  1  6  0  0  0
 34 35  1  0  0  0  0
 34 33  1  0  0  0  0
 35 32  1  6  0  0  0
 35 33  1  0  0  0  0
 36 53  1  6  0  0  0
 36 48  1  0  0  0  0
 38 46  1  1  0  0  0
 39 40  1  0  0  0  0
 40 41  1  0  0  0  0
 42 45  1  0  0  0  0
 42 50  1  0  0  0  0
 43 47  2  0  0  0  0
 43 38  1  0  0  0  0
 44 49  2  0  0  0  0
 45 37  1  1  0  0  0
 45 36  1  0  0  0  0
 47 40  2  0  0  0  0
 48 50  1  6  0  0  0
 48 38  1  0  0  0  0
 49 39  1  0  0  0  0
 49 52  1  0  0  0  0
 51 41  1  0  0  0  0
 52 51  1  6  0  0  0
 53 43  1  0  0  0  0
 54 56  1  0  0  0  0
 55 56  2  0  0  0  0
 56 58  1  0  0  0  0
 58 62  1  0  0  0  0
 58 57  1  1  0  0  0
 58 59  1  0  0  0  0
 59 60  1  0  0  0  0
 62 61  1  1  0  0  0
 63 64  1  0  0  0  0
 64 62  1  0  0  0  0
 64 65  1  1  0  0  0
M  END
>  <MODEL>
8

>  <REMARK>
 VINA RESULT:      -6.1      2.646      7.076
  Name = 
  16 active torsions:
  status: ('A' for Active; 'I' for Inactive)
    1  A    between atoms: C_2  and  C_39
    2  A    between atoms: C_5  and  C_24
    3  A    between atoms: C_5  and  C_51
    4  A    between atoms: O_7  and  C_55
    5  A    between atoms: C_8  and  C_39
    6  A    between atoms: C_10  and  O_36
    7  A    between atoms: C_11  and  C_35
    8  A    between atoms: C_15  and  O_28
    9  A    between atoms: C_19  and  C_31
   10  A    between atoms: C_19  and  C_55
   11  A    between atoms: C_24  and  O_36
   12  A    between atoms: C_24  and  C_54
   13  A    between atoms: O_28  and  C_50
   14  A    between atoms: C_33  and  C_62
   15  A    between atoms: C_37  and  C_54
   16  A    between atoms: C_50  and  C_55
                            x       y       z     vdW  Elec       q    Type
                         _______ _______ _______ _____ _____    ______ ____

>  <TORSDO>
F 16

$$$$
=
 OpenBabel11042416403D

 65 71  0  0  1  0  0  0  0  0999 V2000
  195.6550  172.6810  142.7160 C   0  0  2  0  0  3  0  0  0  0  0  0
  197.5280  172.5020  141.1690 C   0  0  2  0  0  3  0  0  0  0  0  0
  196.2910  171.2790  139.4400 O   0  0  0  0  0  1  0  0  0  0  0  0
  195.2650  174.6220  144.3920 C   0  0  2  0  0  3  0  0  0  0  0  0
  194.7080  173.7450  143.2460 C   0  0  0  0  0  2  0  0  0  0  0  0
  196.4320  171.5000  140.8150 C   0  0  2  0  0  3  0  0  0  0  0  0
  197.0140  173.2870  142.3720 C   0  0  2  0  0  3  0  0  0  0  0  0
  197.3860  173.5780  144.6720 C   0  0  2  0  0  3  0  0  0  0  0  0
  197.9410  173.1700  143.4300 O   0  0  0  0  0  0  0  0  0  0  0  0
  195.1710  172.0590  141.4100 C   0  0  1  0  0  3  0  0  0  0  0  0
  196.6780  172.5260  145.2780 O   0  0  0  0  0  1  0  0  0  0  0  0
  196.6590  174.7900  144.5930 O   0  0  0  0  0  0  0  0  0  0  0  0
  197.3460  174.5660  139.7810 C   0  0  0  0  0  3  0  0  0  0  0  0
  197.9410  173.4090  140.0380 C   0  0  0  0  0  3  0  0  0  0  0  0
  197.7210  175.3790  138.5600 C   0  0  0  0  0  2  0  0  0  0  0  0
  197.0150  174.9660  137.2720 C   0  0  1  0  0  3  0  0  0  0  0  0
  193.5780  175.6290  136.5510 C   0  0  0  0  0  0  0  0  0  0  0  0
  192.8960  174.8550  137.2690 O   0  0  0  0  0  0  0  0  0  0  0  0
  195.8510  176.3950  135.7830 C   0  0  0  0  0  3  0  0  0  0  0  0
  192.9190  176.6000  135.7490 N   0  0  0  0  0  1  0  0  0  0  0  0
  195.6410  174.7520  137.4990 O   0  0  0  0  0  0  0  0  0  0  0  0
  195.0080  175.5940  136.6380 N   0  0  0  0  0  0  0  0  0  0  0  0
  197.2350  175.9480  136.1400 C   0  0  0  0  0  3  0  0  0  0  0  0
  194.5810  169.7250  142.1760 C   0  0  0  0  0  1  0  0  0  0  0  0
  194.0660  171.0070  141.5440 C   0  0  2  0  0  3  0  0  0  0  0  0
  193.1400  170.7880  140.3360 C   0  0  1  0  0  3  0  0  0  0  0  0
  193.4040  169.5710  139.6330 O   0  0  0  0  0  0  0  0  0  0  0  0
  193.1980  169.4840  138.2530 C   0  0  0  0  0  0  0  0  0  0  0  0
  191.8690  169.3810  137.7440 N   0  0  0  0  0  1  0  0  0  0  0  0
  194.1800  169.4800  137.4570 O   0  0  0  0  0  0  0  0  0  0  0  0
  191.6430  171.0530  140.5110 C   0  0  0  0  0  2  0  0  0  0  0  0
  190.7360  171.3620  143.2420 C   0  0  0  0  0  1  0  0  0  0  0  0
  190.0090  172.7240  141.3230 C   0  0  1  0  0  3  0  0  0  0  0  0
  191.4820  172.4670  141.0790 C   0  0  1  0  0  3  0  0  0  0  0  0
  190.9600  172.6580  142.5030 C   0  0  2  0  0  3  0  0  0  0  0  0
  185.5750  179.7110  144.0460 C   0  0  2  0  0  3  0  0  0  0  0  0
  186.3530  177.9910  145.7810 C   0  0  0  0  0  1  0  0  0  0  0  0
  184.8270  177.9030  142.5930 C   0  0  2  0  0  3  0  0  0  0  0  0
  189.2150  176.2060  142.2530 N   0  0  0  0  0  2  0  0  0  0  0  0
  187.9690  176.3890  141.5760 C   0  0  0  0  0  0  0  0  0  0  0  0
  187.6550  175.5790  140.3640 C   0  0  0  0  0  2  0  0  0  0  0  0
  184.1690  179.0400  145.8440 N   0  0  0  0  0  2  0  0  0  0  0  0
  186.2790  178.1570  142.4660 C   0  0  0  0  0  0  0  0  0  0  0  0
  191.2950  175.1640  142.3140 O   0  0  0  0  0  0  0  0  0  0  0  0
  185.5620  179.2640  145.5090 C   0  0  2  0  0  3  0  0  0  0  0  0
  184.1460  177.9160  141.2400 C   0  0  0  0  0  1  0  0  0  0  0  0
  187.1180  177.2750  142.0100 C   0  0  0  0  0  0  0  0  0  0  0  0
  184.3330  179.0800  143.4300 C   0  0  1  0  0  3  0  0  0  0  0  0
  190.1310  175.1750  141.8510 C   0  0  0  0  0  0  0  0  0  0  0  0
  183.5230  178.5750  144.6150 C   0  0  0  0  0  2  0  0  0  0  0  0
  188.1980  174.1780  140.5450 C   0  0  0  0  0  2  0  0  0  0  0  0
  189.7160  174.1440  140.8210 C   0  0  2  0  0  3  0  0  0  0  0  0
  186.7220  179.2100  143.3090 N   0  0  0  0  0  2  0  0  0  0  0  0
  194.4590  174.7580  145.5610 O   0  0  0  0  0  0  0  0  0  0  0  0
  194.8230  176.9620  146.0970 O   0  0  0  0  0  0  0  0  0  0  0  0
  194.0080  175.9970  146.0340 C   0  0  0  0  0  0  0  0  0  0  0  0
  192.5910  177.2470  147.4470 O   0  0  0  0  0  1  0  0  0  0  0  0
  192.5930  176.1980  146.4880 C   0  0  2  0  0  0  0  0  0  0  0  0
  192.1090  174.9560  147.0130 O   0  0  0  0  0  0  0  0  0  0  0  0
  191.3370  175.1460  148.1850 C   0  0  0  0  0  1  0  0  0  0  0  0
  192.4660  177.4130  144.3750 O   0  0  0  0  0  1  0  0  0  0  0  0
  191.7330  176.6030  145.2640 C   0  0  2  0  0  3  0  0  0  0  0  0
  189.3870  176.2080  145.5190 O   0  0  0  0  0  1  0  0  0  0  0  0
  190.3530  177.2080  145.5940 C   0  0  2  0  0  3  0  0  0  0  0  0
  189.9840  178.2960  144.6090 C   0  0  0  0  0  1  0  0  0  0  0  0
  1  5  1  6  0  0  0
  2 14  1  6  0  0  0
  2  7  1  0  0  0  0
  4 12  1  0  0  0  0
  4 54  1  1  0  0  0
  5  4  1  0  0  0  0
  6  3  1  6  0  0  0
  6  2  1  0  0  0  0
  6 10  1  0  0  0  0
  7  1  1  0  0  0  0
  7  9  1  1  0  0  0
  8 11  1  6  0  0  0
  9  8  1  0  0  0  0
 10 25  1  1  0  0  0
 10  1  1  0  0  0  0
 12  8  1  0  0  0  0
 13 14  2  0  0  0  0
 15 13  1  0  0  0  0
 16 21  1  0  0  0  0
 16 15  1  1  0  0  0
 17 22  1  0  0  0  0
 17 18  2  0  0  0  0
 19 23  2  0  0  0  0
 19 22  1  0  0  0  0
 20 17  1  0  0  0  0
 22 21  1  0  0  0  0
 23 16  1  0  0  0  0
 25 24  1  6  0  0  0
 26 31  1  1  0  0  0
 26 25  1  0  0  0  0
 27 26  1  0  0  0  0
 28 27  1  0  0  0  0
 29 28  1  0  0  0  0
 30 28  2  0  0  0  0
 33 52  1  6  0  0  0
 33 35  1  0  0  0  0
 34 31  1  1  0  0  0
 34 33  1  0  0  0  0
 34 35  1  0  0  0  0
 35 32  1  1  0  0  0
 36 53  1  6  0  0  0
 36 45  1  0  0  0  0
 38 46  1  6  0  0  0
 38 48  1  0  0  0  0
 40 47  2  0  0  0  0
 40 39  1  0  0  0  0
 41 51  1  0  0  0  0
 41 40  1  0  0  0  0
 43 38  1  0  0  0  0
 43 53  1  0  0  0  0
 45 37  1  6  0  0  0
 45 42  1  0  0  0  0
 47 43  2  0  0  0  0
 48 36  1  0  0  0  0
 48 50  1  1  0  0  0
 49 39  1  0  0  0  0
 49 44  2  0  0  0  0
 50 42  1  0  0  0  0
 52 51  1  1  0  0  0
 52 49  1  0  0  0  0
 54 56  1  0  0  0  0
 56 55  2  0  0  0  0
 56 58  1  0  0  0  0
 58 59  1  0  0  0  0
 58 57  1  1  0  0  0
 59 60  1  0  0  0  0
 62 61  1  1  0  0  0
 62 64  1  0  0  0  0
 62 58  1  0  0  0  0
 63 64  1  0  0  0  0
 64 65  1  6  0  0  0
M  END
>  <MODEL>
9

>  <REMARK>
 VINA RESULT:      -6.0      2.547      6.452
  Name = 
  16 active torsions:
  status: ('A' for Active; 'I' for Inactive)
    1  A    between atoms: C_2  and  C_39
    2  A    between atoms: C_5  and  C_24
    3  A    between atoms: C_5  and  C_51
    4  A    between atoms: O_7  and  C_55
    5  A    between atoms: C_8  and  C_39
    6  A    between atoms: C_10  and  O_36
    7  A    between atoms: C_11  and  C_35
    8  A    between atoms: C_15  and  O_28
    9  A    between atoms: C_19  and  C_31
   10  A    between atoms: C_19  and  C_55
   11  A    between atoms: C_24  and  O_36
   12  A    between atoms: C_24  and  C_54
   13  A    between atoms: O_28  and  C_50
   14  A    between atoms: C_33  and  C_62
   15  A    between atoms: C_37  and  C_54
   16  A    between atoms: C_50  and  C_55
                            x       y       z     vdW  Elec       q    Type
                         _______ _______ _______ _____ _____    ______ ____

>  <TORSDO>
F 16

$$$$
