=
 OpenBabel11042413573D

 30 34  0  0  1  0  0  0  0  0999 V2000
  184.8050  176.7870  146.7180 C   0  0  0  0  0  1  0  0  0  0  0  0
  186.2150  177.6910  144.8470 C   0  0  0  0  0  0  0  0  0  0  0  0
  193.5820  176.2650  142.9540 C   0  0  0  0  0  2  0  0  0  0  0  0
  185.5240  179.5170  143.4430 N   0  0  0  0  0  0  0  0  0  0  0  0
  190.2590  174.6190  145.9250 N   0  0  0  0  0  2  0  0  0  0  0  0
  191.6260  177.7330  142.5540 O   0  0  0  0  0  0  0  0  0  0  0  0
  188.5310  177.0650  147.0630 C   0  0  0  0  0  2  0  0  0  0  0  0
  191.9480  173.9200  144.4200 C   0  0  0  0  0  0  0  0  0  0  0  0
  187.1200  177.6140  147.1890 C   0  0  0  0  0  2  0  0  0  0  0  0
  191.5610  174.1890  145.6300 N   0  0  0  0  0  0  0  0  0  0  0  0
  184.9150  179.5240  145.7070 F   0  0  0  0  0  0  0  0  0  0  0  0
  187.6460  176.9030  141.1970 S   0  0  0  0  0  0  0  0  0  0  0  0
  186.2080  176.9580  146.1630 C   0  0  1  0  0  3  0  0  0  0  0  0
  188.5710  175.6110  147.5090 C   0  0  0  0  0  2  0  0  0  0  0  0
  186.8960  177.1530  143.7470 C   0  0  0  0  0  0  0  0  0  0  0  0
  193.9830  176.0650  144.4110 C   0  0  0  0  0  2  0  0  0  0  0  0
  185.5450  178.9210  144.6690 C   0  0  0  0  0  0  0  0  0  0  0  0
  189.9160  175.0390  147.2440 C   0  0  0  0  0  0  0  0  0  0  0  0
  191.0540  175.6520  142.9220 C   0  0  0  0  0  0  0  0  0  0  0  0
  189.9460  176.4190  142.6290 C   0  0  0  0  0  0  0  0  0  0  0  0
  186.8130  177.7540  142.5110 C   0  0  0  0  0  0  0  0  0  0  0  0
  187.7690  175.9490  143.7850 C   0  0  0  0  0  2  0  0  0  0  0  0
  194.3440  174.6040  144.7000 C   0  0  0  0  0  2  0  0  0  0  0  0
  186.1340  178.9600  142.3610 C   0  0  0  0  0  3  0  0  0  0  0  0
  192.1140  176.5450  142.8250 C   0  0  0  0  0  0  0  0  0  0  0  0
  193.3320  173.7020  144.1630 N   0  0  0  0  0  2  0  0  0  0  0  0
  191.0670  174.1840  143.2410 C   0  0  0  0  0  2  0  0  0  0  0  0
  188.5410  175.9160  142.4620 C   0  0  1  0  0  3  0  0  0  0  0  0
  190.3300  177.6970  142.4290 N   0  0  0  0  0  0  0  0  0  0  0  0
  190.7590  174.9680  148.1760 O   0  0  0  0  0  0  0  0  0  0  0  0
  2 13  1  0  0  0  0
  3 16  1  0  0  0  0
  4 17  2  0  0  0  0
  5 18  1  0  0  0  0
  6 25  1  0  0  0  0
  7  9  1  0  0  0  0
  7 14  1  0  0  0  0
  8 10  2  0  0  0  0
 10  5  1  0  0  0  0
 12 28  1  0  0  0  0
 12 21  1  0  0  0  0
 13  1  1  1  0  0  0
 13  9  1  0  0  0  0
 15 22  1  0  0  0  0
 15  2  2  0  0  0  0
 16 23  1  0  0  0  0
 17  2  1  0  0  0  0
 17 11  1  0  0  0  0
 18 14  1  0  0  0  0
 18 30  2  0  0  0  0
 19 27  1  0  0  0  0
 20 19  1  0  0  0  0
 21 15  1  0  0  0  0
 24 21  2  0  0  0  0
 24  4  1  0  0  0  0
 25 19  2  0  0  0  0
 25  3  1  0  0  0  0
 26  8  1  0  0  0  0
 26 23  1  0  0  0  0
 27  8  1  0  0  0  0
 28 20  1  0  0  0  0
 28 22  1  1  0  0  0
 29  6  1  0  0  0  0
 29 20  2  0  0  0  0
M  END
>  <MODEL>
1

>  <REMARK>
 VINA RESULT:      -9.0      0.000      0.000
  Name = 
  0 active torsions:
  status: ('A' for Active; 'I' for Inactive)
                            x       y       z     vdW  Elec       q    Type
                         _______ _______ _______ _____ _____    ______ ____

>  <TORSDO>
F 0

$$$$
=
 OpenBabel11042413573D

 30 34  0  0  1  0  0  0  0  0999 V2000
  185.5620  179.7070  143.5430 C   0  0  0  0  0  1  0  0  0  0  0  0
  186.5200  178.1120  145.2290 C   0  0  0  0  0  0  0  0  0  0  0  0
  191.0990  171.9450  144.2900 C   0  0  0  0  0  2  0  0  0  0  0  0
  185.8480  178.0770  147.5390 N   0  0  0  0  0  0  0  0  0  0  0  0
  189.3770  175.5560  141.7280 N   0  0  0  0  0  2  0  0  0  0  0  0
  189.6570  173.1840  145.8790 O   0  0  0  0  0  0  0  0  0  0  0  0
  186.3590  176.1590  142.6170 C   0  0  0  0  0  2  0  0  0  0  0  0
  191.3520  174.3190  142.1420 C   0  0  0  0  0  0  0  0  0  0  0  0
  185.4290  177.2400  143.1430 C   0  0  0  0  0  2  0  0  0  0  0  0
  190.2890  174.5350  141.4280 N   0  0  0  0  0  0  0  0  0  0  0  0
  184.2520  178.5680  145.8920 F   0  0  0  0  0  0  0  0  0  0  0  0
  189.7970  177.2110  147.3390 S   0  0  0  0  0  0  0  0  0  0  0  0
  186.2360  178.3650  143.7730 C   0  0  1  0  0  3  0  0  0  0  0  0
  187.1420  176.6760  141.4200 C   0  0  0  0  0  2  0  0  0  0  0  0
  187.8050  177.7280  145.6380 C   0  0  0  0  0  0  0  0  0  0  0  0
  190.4770  171.6110  142.9390 C   0  0  0  0  0  2  0  0  0  0  0  0
  185.5290  178.2540  146.2250 C   0  0  0  0  0  0  0  0  0  0  0  0
  188.1530  175.6690  141.0050 C   0  0  0  0  0  0  0  0  0  0  0  0
  190.7400  174.5120  144.5150 C   0  0  0  0  0  0  0  0  0  0  0  0
  190.0100  175.2410  145.4290 C   0  0  0  0  0  0  0  0  0  0  0  0
  188.1070  177.6070  146.9750 C   0  0  0  0  0  0  0  0  0  0  0  0
  188.9300  177.3930  144.7240 C   0  0  0  0  0  2  0  0  0  0  0  0
  191.4670  171.8390  141.7920 C   0  0  0  0  0  2  0  0  0  0  0  0
  187.1120  177.7660  147.9360 C   0  0  0  0  0  3  0  0  0  0  0  0
  190.5020  173.1910  144.8740 C   0  0  0  0  0  0  0  0  0  0  0  0
  192.1170  173.1380  141.9170 N   0  0  0  0  0  2  0  0  0  0  0  0
  191.6030  175.0620  143.4160 C   0  0  0  0  0  2  0  0  0  0  0  0
  190.0180  176.7350  145.5780 C   0  0  1  0  0  3  0  0  0  0  0  0
  189.3380  174.3950  146.2390 N   0  0  0  0  0  0  0  0  0  0  0  0
  187.9040  174.8930  140.0460 O   0  0  0  0  0  0  0  0  0  0  0  0
  2 15  2  0  0  0  0
  2 17  1  0  0  0  0
  3 25  1  0  0  0  0
  4 24  1  0  0  0  0
  6 29  1  0  0  0  0
  7  9  1  0  0  0  0
  8 27  1  0  0  0  0
  9 13  1  0  0  0  0
 10  5  1  0  0  0  0
 10  8  2  0  0  0  0
 11 17  1  0  0  0  0
 13  1  1  1  0  0  0
 13  2  1  0  0  0  0
 14  7  1  0  0  0  0
 15 21  1  0  0  0  0
 16  3  1  0  0  0  0
 17  4  2  0  0  0  0
 18 14  1  0  0  0  0
 18  5  1  0  0  0  0
 19 25  2  0  0  0  0
 19 20  1  0  0  0  0
 20 28  1  0  0  0  0
 20 29  2  0  0  0  0
 21 12  1  0  0  0  0
 21 24  2  0  0  0  0
 22 15  1  0  0  0  0
 23 26  1  0  0  0  0
 23 16  1  0  0  0  0
 25  6  1  0  0  0  0
 26  8  1  0  0  0  0
 27 19  1  0  0  0  0
 28 22  1  6  0  0  0
 28 12  1  0  0  0  0
 30 18  2  0  0  0  0
M  END
>  <MODEL>
2

>  <REMARK>
 VINA RESULT:      -8.7      2.476      4.480
  Name = 
  0 active torsions:
  status: ('A' for Active; 'I' for Inactive)
                            x       y       z     vdW  Elec       q    Type
                         _______ _______ _______ _____ _____    ______ ____

>  <TORSDO>
F 0

$$$$
=
 OpenBabel11042413573D

 30 34  0  0  1  0  0  0  0  0999 V2000
  183.4410  177.9590  142.3870 C   0  0  0  0  0  1  0  0  0  0  0  0
  185.7840  177.4700  141.6270 C   0  0  0  0  0  0  0  0  0  0  0  0
  192.1960  176.0040  145.7030 C   0  0  0  0  0  2  0  0  0  0  0  0
  186.5050  177.7160  139.3460 N   0  0  0  0  0  0  0  0  0  0  0  0
  187.5260  176.5020  146.4210 N   0  0  0  0  0  2  0  0  0  0  0  0
  191.2900  176.5420  143.4610 O   0  0  0  0  0  0  0  0  0  0  0  0
  186.3930  178.8300  144.5330 C   0  0  0  0  0  2  0  0  0  0  0  0
  189.3850  175.1600  147.0080 C   0  0  0  0  0  0  0  0  0  0  0  0
  185.3700  179.1430  143.4540 C   0  0  0  0  0  2  0  0  0  0  0  0
  188.5800  176.1440  147.2730 N   0  0  0  0  0  0  0  0  0  0  0  0
  184.9270  179.2190  140.2130 F   0  0  0  0  0  0  0  0  0  0  0  0
  188.4320  174.5470  140.9660 S   0  0  0  0  0  0  0  0  0  0  0  0
  184.9030  177.8590  142.7850 C   0  0  1  0  0  3  0  0  0  0  0  0
  185.7260  178.1090  145.6950 C   0  0  0  0  0  2  0  0  0  0  0  0
  186.6840  176.4040  141.7560 C   0  0  0  0  0  0  0  0  0  0  0  0
  191.7560  176.9170  146.8420 C   0  0  0  0  0  2  0  0  0  0  0  0
  185.7360  178.1440  140.3870 C   0  0  0  0  0  0  0  0  0  0  0  0
  186.7550  177.6750  146.6760 C   0  0  0  0  0  0  0  0  0  0  0  0
  189.9540  175.2490  144.6190 C   0  0  0  0  0  0  0  0  0  0  0  0
  189.4520  175.4630  143.3530 C   0  0  0  0  0  0  0  0  0  0  0  0
  187.4100  175.9660  140.6720 C   0  0  0  0  0  0  0  0  0  0  0  0
  186.9730  175.6760  143.0210 C   0  0  0  0  0  2  0  0  0  0  0  0
  191.4240  176.1190  148.1070 C   0  0  0  0  0  2  0  0  0  0  0  0
  187.3330  176.6410  139.4570 C   0  0  0  0  0  3  0  0  0  0  0  0
  191.1600  175.9410  144.6210 C   0  0  0  0  0  0  0  0  0  0  0  0
  190.5590  174.9880  147.7970 N   0  0  0  0  0  2  0  0  0  0  0  0
  189.3230  174.4280  145.7060 C   0  0  0  0  0  2  0  0  0  0  0  0
  188.2230  174.8260  142.7700 C   0  0  1  0  0  3  0  0  0  0  0  0
  190.2850  176.2790  142.6740 N   0  0  0  0  0  0  0  0  0  0  0  0
  186.9690  178.3690  147.7040 O   0  0  0  0  0  0  0  0  0  0  0  0
  2 15  1  0  0  0  0
  2 13  1  0  0  0  0
  3 16  1  0  0  0  0
  4 24  2  0  0  0  0
  4 17  1  0  0  0  0
  5 18  1  0  0  0  0
  5 10  1  0  0  0  0
  6 25  1  0  0  0  0
  7 14  1  0  0  0  0
  8 10  2  0  0  0  0
  8 26  1  0  0  0  0
  9  7  1  0  0  0  0
 11 17  1  0  0  0  0
 12 28  1  0  0  0  0
 13  1  1  6  0  0  0
 13  9  1  0  0  0  0
 14 18  1  0  0  0  0
 15 22  1  0  0  0  0
 16 23  1  0  0  0  0
 17  2  2  0  0  0  0
 18 30  2  0  0  0  0
 19 25  2  0  0  0  0
 19 27  1  0  0  0  0
 20 19  1  0  0  0  0
 21 12  1  0  0  0  0
 21 15  2  0  0  0  0
 24 21  1  0  0  0  0
 25  3  1  0  0  0  0
 26 23  1  0  0  0  0
 27  8  1  0  0  0  0
 28 22  1  6  0  0  0
 28 20  1  0  0  0  0
 29 20  2  0  0  0  0
 29  6  1  0  0  0  0
M  END
>  <MODEL>
3

>  <REMARK>
 VINA RESULT:      -8.6      2.453      3.552
  Name = 
  0 active torsions:
  status: ('A' for Active; 'I' for Inactive)
                            x       y       z     vdW  Elec       q    Type
                         _______ _______ _______ _____ _____    ______ ____

>  <TORSDO>
F 0

$$$$
=
 OpenBabel11042413573D

 30 34  0  0  1  0  0  0  0  0999 V2000
  186.0970  176.7490  145.3600 C   0  0  0  0  0  1  0  0  0  0  0  0
  187.6330  176.3790  143.4080 C   0  0  0  0  0  0  0  0  0  0  0  0
  195.1890  174.7220  143.1920 C   0  0  0  0  0  2  0  0  0  0  0  0
  187.0020  176.8320  141.1320 N   0  0  0  0  0  0  0  0  0  0  0  0
  191.6800  175.0520  146.3780 N   0  0  0  0  0  2  0  0  0  0  0  0
  193.2220  175.4270  141.8600 O   0  0  0  0  0  0  0  0  0  0  0  0
  189.7640  177.5040  145.6130 C   0  0  0  0  0  2  0  0  0  0  0  0
  193.5220  173.7080  145.7430 C   0  0  0  0  0  0  0  0  0  0  0  0
  188.3270  177.8830  145.2960 C   0  0  0  0  0  2  0  0  0  0  0  0
  193.0180  174.6480  146.4840 N   0  0  0  0  0  0  0  0  0  0  0  0
  186.1920  178.2210  142.8400 F   0  0  0  0  0  0  0  0  0  0  0  0
  189.4150  173.5830  141.1710 S   0  0  0  0  0  0  0  0  0  0  0  0
  187.5370  176.6500  144.8860 C   0  0  1  0  0  3  0  0  0  0  0  0
  189.8190  176.6730  146.8860 C   0  0  0  0  0  2  0  0  0  0  0  0
  188.4300  175.3270  142.9360 C   0  0  0  0  0  0  0  0  0  0  0  0
  195.4660  175.5270  144.4580 C   0  0  0  0  0  2  0  0  0  0  0  0
  186.9360  177.1540  142.4550 C   0  0  0  0  0  0  0  0  0  0  0  0
  191.2040  176.1810  147.1080 C   0  0  0  0  0  0  0  0  0  0  0  0
  192.7000  174.0110  143.4470 C   0  0  0  0  0  0  0  0  0  0  0  0
  191.5940  174.3190  142.6830 C   0  0  0  0  0  0  0  0  0  0  0  0
  188.4360  174.9980  141.6000 C   0  0  0  0  0  0  0  0  0  0  0  0
  189.3420  174.5020  143.7740 C   0  0  0  0  0  2  0  0  0  0  0  0
  195.8550  174.6180  145.6280 C   0  0  0  0  0  2  0  0  0  0  0  0
  187.7270  175.7710  140.6840 C   0  0  0  0  0  3  0  0  0  0  0  0
  193.7290  174.7280  142.8490 C   0  0  0  0  0  0  0  0  0  0  0  0
  194.9310  173.4970  145.7470 N   0  0  0  0  0  2  0  0  0  0  0  0
  192.7410  173.0870  144.6300 C   0  0  0  0  0  2  0  0  0  0  0  0
  190.2300  173.7050  142.8130 C   0  0  1  0  0  3  0  0  0  0  0  0
  191.9450  175.2080  141.7300 N   0  0  0  0  0  0  0  0  0  0  0  0
  191.9620  176.7910  147.9060 O   0  0  0  0  0  0  0  0  0  0  0  0
  2 13  1  0  0  0  0
  3 16  1  0  0  0  0
  4 17  1  0  0  0  0
  5 10  1  0  0  0  0
  5 18  1  0  0  0  0
  6 25  1  0  0  0  0
  7 14  1  0  0  0  0
  8 26  1  0  0  0  0
  8 10  2  0  0  0  0
  9  7  1  0  0  0  0
 12 21  1  0  0  0  0
 12 28  1  0  0  0  0
 13  9  1  0  0  0  0
 13  1  1  6  0  0  0
 14 18  1  0  0  0  0
 15  2  1  0  0  0  0
 15 22  1  0  0  0  0
 16 23  1  0  0  0  0
 17 11  1  0  0  0  0
 17  2  2  0  0  0  0
 18 30  2  0  0  0  0
 19 27  1  0  0  0  0
 20 28  1  0  0  0  0
 20 19  1  0  0  0  0
 21 15  2  0  0  0  0
 23 26  1  0  0  0  0
 24  4  2  0  0  0  0
 24 21  1  0  0  0  0
 25  3  1  0  0  0  0
 25 19  2  0  0  0  0
 27  8  1  0  0  0  0
 28 22  1  1  0  0  0
 29  6  1  0  0  0  0
 29 20  2  0  0  0  0
M  END
>  <MODEL>
4

>  <REMARK>
 VINA RESULT:      -8.2      2.016      2.557
  Name = 
  0 active torsions:
  status: ('A' for Active; 'I' for Inactive)
                            x       y       z     vdW  Elec       q    Type
                         _______ _______ _______ _____ _____    ______ ____

>  <TORSDO>
F 0

$$$$
=
 OpenBabel11042413573D

 30 34  0  0  1  0  0  0  0  0999 V2000
  187.7990  176.1530  146.5920 C   0  0  0  0  0  1  0  0  0  0  0  0
  188.6550  175.5710  144.3050 C   0  0  0  0  0  0  0  0  0  0  0  0
  195.8740  174.3890  141.7820 C   0  0  0  0  0  2  0  0  0  0  0  0
  187.2750  175.6070  142.3350 N   0  0  0  0  0  0  0  0  0  0  0  0
  193.5660  175.0060  145.8890 N   0  0  0  0  0  2  0  0  0  0  0  0
  193.5160  174.7400  141.1080 O   0  0  0  0  0  0  0  0  0  0  0  0
  191.2390  177.1730  145.4960 C   0  0  0  0  0  2  0  0  0  0  0  0
  195.2460  173.6980  144.8550 C   0  0  0  0  0  0  0  0  0  0  0  0
  189.7430  177.4030  145.6340 C   0  0  0  0  0  2  0  0  0  0  0  0
  194.9040  174.7120  145.5910 N   0  0  0  0  0  0  0  0  0  0  0  0
  186.9060  177.1990  144.0170 F   0  0  0  0  0  0  0  0  0  0  0  0
  189.9270  172.5690  141.9890 S   0  0  0  0  0  0  0  0  0  0  0  0
  189.0090  176.0710  145.6800 C   0  0  1  0  0  3  0  0  0  0  0  0
  191.7970  176.5650  146.7750 C   0  0  0  0  0  2  0  0  0  0  0  0
  189.3710  174.5100  143.7360 C   0  0  0  0  0  0  0  0  0  0  0  0
  196.4500  175.4040  142.7630 C   0  0  0  0  0  2  0  0  0  0  0  0
  187.6030  176.1340  143.5490 C   0  0  0  0  0  0  0  0  0  0  0  0
  193.2260  176.2060  146.5810 C   0  0  0  0  0  0  0  0  0  0  0  0
  193.6980  173.5700  142.9500 C   0  0  0  0  0  0  0  0  0  0  0  0
  192.3780  173.6780  142.5690 C   0  0  0  0  0  0  0  0  0  0  0  0
  188.9830  173.9690  142.5320 C   0  0  0  0  0  0  0  0  0  0  0  0
  190.5920  173.8920  144.3200 C   0  0  0  0  0  2  0  0  0  0  0  0
  197.2980  174.7250  143.8440 C   0  0  0  0  0  2  0  0  0  0  0  0
  187.9330  174.5360  141.8140 C   0  0  0  0  0  3  0  0  0  0  0  0
  194.3910  174.2450  141.9520 C   0  0  0  0  0  0  0  0  0  0  0  0
  196.5960  173.5810  144.4130 N   0  0  0  0  0  2  0  0  0  0  0  0
  194.2240  172.8550  144.1620 C   0  0  0  0  0  2  0  0  0  0  0  0
  191.2080  173.0070  143.2300 C   0  0  1  0  0  3  0  0  0  0  0  0
  192.2980  174.4220  141.4450 N   0  0  0  0  0  0  0  0  0  0  0  0
  194.1260  176.9850  146.9900 O   0  0  0  0  0  0  0  0  0  0  0  0
  2 13  1  0  0  0  0
  3 25  1  0  0  0  0
  3 16  1  0  0  0  0
  4 17  1  0  0  0  0
  5 18  1  0  0  0  0
  6 29  1  0  0  0  0
  6 25  1  0  0  0  0
  7  9  1  0  0  0  0
  7 14  1  0  0  0  0
  8 10  2  0  0  0  0
  9 13  1  0  0  0  0
 10  5  1  0  0  0  0
 12 21  1  0  0  0  0
 12 28  1  0  0  0  0
 13  1  1  1  0  0  0
 15  2  1  0  0  0  0
 15 22  1  0  0  0  0
 16 23  1  0  0  0  0
 17 11  1  0  0  0  0
 17  2  2  0  0  0  0
 18 14  1  0  0  0  0
 18 30  2  0  0  0  0
 19 27  1  0  0  0  0
 20 19  1  0  0  0  0
 20 28  1  0  0  0  0
 21 15  2  0  0  0  0
 23 26  1  0  0  0  0
 24  4  2  0  0  0  0
 24 21  1  0  0  0  0
 25 19  2  0  0  0  0
 26  8  1  0  0  0  0
 27  8  1  0  0  0  0
 28 22  1  1  0  0  0
 29 20  2  0  0  0  0
M  END
>  <MODEL>
5

>  <REMARK>
 VINA RESULT:      -7.6      2.700      3.629
  Name = 
  0 active torsions:
  status: ('A' for Active; 'I' for Inactive)
                            x       y       z     vdW  Elec       q    Type
                         _______ _______ _______ _____ _____    ______ ____

>  <TORSDO>
F 0

$$$$
=
 OpenBabel11042413573D

 30 34  0  0  1  0  0  0  0  0999 V2000
  187.6900  177.4960  145.3320 C   0  0  0  0  0  1  0  0  0  0  0  0
  188.5930  176.3780  143.2730 C   0  0  0  0  0  0  0  0  0  0  0  0
  195.0970  172.3290  142.1840 C   0  0  0  0  0  2  0  0  0  0  0  0
  187.6480  176.6930  141.0840 N   0  0  0  0  0  0  0  0  0  0  0  0
  192.6100  174.2260  145.7600 N   0  0  0  0  0  2  0  0  0  0  0  0
  193.1850  173.4460  141.0710 O   0  0  0  0  0  0  0  0  0  0  0  0
  191.3820  177.0390  144.8390 C   0  0  0  0  0  2  0  0  0  0  0  0
  193.7940  172.2800  145.1200 C   0  0  0  0  0  0  0  0  0  0  0  0
  190.0860  177.8190  144.6870 C   0  0  0  0  0  2  0  0  0  0  0  0
  193.7610  173.4260  145.7290 N   0  0  0  0  0  0  0  0  0  0  0  0
  187.6690  178.4920  142.5880 F   0  0  0  0  0  0  0  0  0  0  0  0
  188.9490  172.8720  141.3830 S   0  0  0  0  0  0  0  0  0  0  0  0
  188.9000  176.8670  144.6630 C   0  0  1  0  0  3  0  0  0  0  0  0
  191.4630  176.4200  146.2270 C   0  0  0  0  0  2  0  0  0  0  0  0
  188.9240  175.0690  142.8990 C   0  0  0  0  0  0  0  0  0  0  0  0
  195.8620  173.1660  143.2020 C   0  0  0  0  0  2  0  0  0  0  0  0
  187.9660  177.1980  142.3100 C   0  0  0  0  0  0  0  0  0  0  0  0
  192.6560  175.5390  146.3170 C   0  0  0  0  0  0  0  0  0  0  0  0
  192.6240  172.5130  142.9710 C   0  0  0  0  0  0  0  0  0  0  0  0
  191.5200  173.0560  142.3480 C   0  0  0  0  0  0  0  0  0  0  0  0
  188.5450  174.5740  141.6730 C   0  0  0  0  0  0  0  0  0  0  0  0
  189.7110  174.1160  143.7280 C   0  0  0  0  0  2  0  0  0  0  0  0
  196.2100  172.3520  144.4530 C   0  0  0  0  0  2  0  0  0  0  0  0
  187.9150  175.4010  140.7470 C   0  0  0  0  0  3  0  0  0  0  0  0
  193.6650  172.7640  142.0850 C   0  0  0  0  0  0  0  0  0  0  0  0
  195.0460  171.6220  144.9390 N   0  0  0  0  0  2  0  0  0  0  0  0
  192.6450  171.8000  144.2920 C   0  0  0  0  0  2  0  0  0  0  0  0
  190.0970  172.9460  142.8160 C   0  0  1  0  0  3  0  0  0  0  0  0
  191.9030  173.6410  141.1930 N   0  0  0  0  0  0  0  0  0  0  0  0
  193.7130  175.9720  146.8460 O   0  0  0  0  0  0  0  0  0  0  0  0
  2 13  1  0  0  0  0
  3 16  1  0  0  0  0
  4 17  1  0  0  0  0
  5 18  1  0  0  0  0
  6 29  1  0  0  0  0
  6 25  1  0  0  0  0
  7 14  1  0  0  0  0
  8 10  2  0  0  0  0
  9  7  1  0  0  0  0
 10  5  1  0  0  0  0
 12 21  1  0  0  0  0
 12 28  1  0  0  0  0
 13  9  1  0  0  0  0
 13  1  1  6  0  0  0
 14 18  1  0  0  0  0
 15  2  1  0  0  0  0
 15 22  1  0  0  0  0
 16 23  1  0  0  0  0
 17 11  1  0  0  0  0
 17  2  2  0  0  0  0
 18 30  2  0  0  0  0
 19 27  1  0  0  0  0
 20 28  1  0  0  0  0
 20 19  1  0  0  0  0
 21 15  2  0  0  0  0
 23 26  1  0  0  0  0
 24  4  2  0  0  0  0
 24 21  1  0  0  0  0
 25  3  1  0  0  0  0
 25 19  2  0  0  0  0
 26  8  1  0  0  0  0
 27  8  1  0  0  0  0
 28 22  1  1  0  0  0
 29 20  2  0  0  0  0
M  END
>  <MODEL>
6

>  <REMARK>
 VINA RESULT:      -7.5      2.623      3.559
  Name = 
  0 active torsions:
  status: ('A' for Active; 'I' for Inactive)
                            x       y       z     vdW  Elec       q    Type
                         _______ _______ _______ _____ _____    ______ ____

>  <TORSDO>
F 0

$$$$
=
 OpenBabel11042413573D

 30 34  0  0  1  0  0  0  0  0999 V2000
  186.9960  178.5940  142.7930 C   0  0  0  0  0  1  0  0  0  0  0  0
  188.4140  177.1940  144.3200 C   0  0  0  0  0  0  0  0  0  0  0  0
  192.5240  170.7910  142.9120 C   0  0  0  0  0  2  0  0  0  0  0  0
  188.4550  177.4810  146.7080 N   0  0  0  0  0  0  0  0  0  0  0  0
  190.1130  174.1050  140.5090 N   0  0  0  0  0  2  0  0  0  0  0  0
  191.6130  172.2770  144.6730 O   0  0  0  0  0  0  0  0  0  0  0  0
  187.4910  174.9290  142.1560 C   0  0  0  0  0  2  0  0  0  0  0  0
  192.1250  172.8590  140.4870 C   0  0  0  0  0  0  0  0  0  0  0  0
  186.7560  176.1030  142.7820 C   0  0  0  0  0  2  0  0  0  0  0  0
  190.8980  173.0200  140.0940 N   0  0  0  0  0  0  0  0  0  0  0  0
  186.4420  177.8160  145.5520 F   0  0  0  0  0  0  0  0  0  0  0  0
  192.1700  176.4500  145.4770 S   0  0  0  0  0  0  0  0  0  0  0  0
  187.7110  177.2690  142.9920 C   0  0  1  0  0  3  0  0  0  0  0  0
  187.8840  175.2590  140.7240 C   0  0  0  0  0  2  0  0  0  0  0  0
  189.7630  176.8180  144.3820 C   0  0  0  0  0  0  0  0  0  0  0  0
  191.5310  170.3090  141.8600 C   0  0  0  0  0  2  0  0  0  0  0  0
  187.7610  177.5000  145.5340 C   0  0  0  0  0  0  0  0  0  0  0  0
  188.7290  174.1700  140.1690 C   0  0  0  0  0  0  0  0  0  0  0  0
  192.2420  173.3770  142.8870 C   0  0  0  0  0  0  0  0  0  0  0  0
  191.8130  174.2440  143.8700 C   0  0  0  0  0  0  0  0  0  0  0  0
  190.4470  176.8580  145.5750 C   0  0  0  0  0  0  0  0  0  0  0  0
  190.5670  176.3270  143.2310 C   0  0  0  0  0  2  0  0  0  0  0  0
  192.1360  170.3520  140.4530 C   0  0  0  0  0  2  0  0  0  0  0  0
  189.7810  177.1760  146.7560 C   0  0  0  0  0  3  0  0  0  0  0  0
  192.1230  172.1230  143.4730 C   0  0  0  0  0  0  0  0  0  0  0  0
  192.7910  171.6310  140.2070 N   0  0  0  0  0  2  0  0  0  0  0  0
  192.7390  173.7490  141.5200 C   0  0  0  0  0  2  0  0  0  0  0  0
  191.8610  175.7440  143.8080 C   0  0  1  0  0  3  0  0  0  0  0  0
  191.4130  173.5350  144.9460 N   0  0  0  0  0  0  0  0  0  0  0  0
  188.2100  173.2870  139.4380 O   0  0  0  0  0  0  0  0  0  0  0  0
  2 15  2  0  0  0  0
  2 17  1  0  0  0  0
  3 25  1  0  0  0  0
  4 24  1  0  0  0  0
  6 29  1  0  0  0  0
  7  9  1  0  0  0  0
  8 27  1  0  0  0  0
  9 13  1  0  0  0  0
 10  8  2  0  0  0  0
 10  5  1  0  0  0  0
 12 21  1  0  0  0  0
 13  1  1  1  0  0  0
 13  2  1  0  0  0  0
 14  7  1  0  0  0  0
 15 21  1  0  0  0  0
 16  3  1  0  0  0  0
 17 11  1  0  0  0  0
 17  4  2  0  0  0  0
 18  5  1  0  0  0  0
 18 14  1  0  0  0  0
 19 25  2  0  0  0  0
 19 20  1  0  0  0  0
 20 29  2  0  0  0  0
 21 24  2  0  0  0  0
 22 15  1  0  0  0  0
 23 16  1  0  0  0  0
 25  6  1  0  0  0  0
 26 23  1  0  0  0  0
 26  8  1  0  0  0  0
 27 19  1  0  0  0  0
 28 22  1  1  0  0  0
 28 20  1  0  0  0  0
 28 12  1  0  0  0  0
 30 18  2  0  0  0  0
M  END
>  <MODEL>
7

>  <REMARK>
 VINA RESULT:      -7.2      3.117      5.032
  Name = 
  0 active torsions:
  status: ('A' for Active; 'I' for Inactive)
                            x       y       z     vdW  Elec       q    Type
                         _______ _______ _______ _____ _____    ______ ____

>  <TORSDO>
F 0

$$$$
=
 OpenBabel11042413573D

 30 34  0  0  1  0  0  0  0  0999 V2000
  197.8690  172.0710  144.5780 C   0  0  0  0  0  1  0  0  0  0  0  0
  195.4690  171.3860  144.8530 C   0  0  0  0  0  0  0  0  0  0  0  0
  188.9810  175.6000  144.6800 C   0  0  0  0  0  2  0  0  0  0  0  0
  194.8020  169.1930  145.5810 N   0  0  0  0  0  0  0  0  0  0  0  0
  193.6180  176.1170  143.7840 N   0  0  0  0  0  2  0  0  0  0  0  0
  189.9580  173.3920  145.2370 O   0  0  0  0  0  0  0  0  0  0  0  0
  195.3180  174.4630  145.9380 C   0  0  0  0  0  2  0  0  0  0  0  0
  191.4700  176.6400  142.9370 C   0  0  0  0  0  0  0  0  0  0  0  0
  196.3670  173.3750  146.0960 C   0  0  0  0  0  2  0  0  0  0  0  0
  192.5220  176.9760  143.6210 N   0  0  0  0  0  0  0  0  0  0  0  0
  196.7520  170.1470  146.4680 F   0  0  0  0  0  0  0  0  0  0  0  0
  192.0990  170.5250  142.8780 S   0  0  0  0  0  0  0  0  0  0  0  0
  196.4450  172.5320  144.8320 C   0  0  1  0  0  3  0  0  0  0  0  0
  195.7790  175.4930  144.9170 C   0  0  0  0  0  2  0  0  0  0  0  0
  194.3100  171.4350  144.0660 C   0  0  0  0  0  0  0  0  0  0  0  0
  189.6790  176.8140  145.2830 C   0  0  0  0  0  2  0  0  0  0  0  0
  195.6790  170.2350  145.6430 C   0  0  0  0  0  0  0  0  0  0  0  0
  194.6890  176.4690  144.6580 C   0  0  0  0  0  0  0  0  0  0  0  0
  190.9030  174.3130  143.4890 C   0  0  0  0  0  0  0  0  0  0  0  0
  191.4210  173.0560  143.7200 C   0  0  0  0  0  0  0  0  0  0  0  0
  193.4710  170.3480  143.9880 C   0  0  0  0  0  0  0  0  0  0  0  0
  193.8540  172.6180  143.2870 C   0  0  0  0  0  2  0  0  0  0  0  0
  189.8000  177.9550  144.2670 C   0  0  0  0  0  2  0  0  0  0  0  0
  193.7100  169.2190  144.7680 C   0  0  0  0  0  3  0  0  0  0  0  0
  189.9380  174.4630  144.4780 C   0  0  0  0  0  0  0  0  0  0  0  0
  190.3100  177.4650  142.9920 N   0  0  0  0  0  2  0  0  0  0  0  0
  191.3010  175.2580  142.3920 C   0  0  0  0  0  2  0  0  0  0  0  0
  192.4130  172.3360  142.8520 C   0  0  1  0  0  3  0  0  0  0  0  0
  190.8350  172.5260  144.8140 N   0  0  0  0  0  0  0  0  0  0  0  0
  194.6960  177.5820  145.2440 O   0  0  0  0  0  0  0  0  0  0  0  0
  2 17  1  0  0  0  0
  3 16  1  0  0  0  0
  4 17  2  0  0  0  0
  5 18  1  0  0  0  0
  7  9  1  0  0  0  0
  8 26  1  0  0  0  0
  8 10  2  0  0  0  0
 10  5  1  0  0  0  0
 12 21  1  0  0  0  0
 13  1  1  1  0  0  0
 13  2  1  0  0  0  0
 13  9  1  0  0  0  0
 14  7  1  0  0  0  0
 15  2  2  0  0  0  0
 17 11  1  0  0  0  0
 18 14  1  0  0  0  0
 18 30  2  0  0  0  0
 19 20  1  0  0  0  0
 19 25  2  0  0  0  0
 20 29  2  0  0  0  0
 21 15  1  0  0  0  0
 21 24  2  0  0  0  0
 22 15  1  0  0  0  0
 23 16  1  0  0  0  0
 24  4  1  0  0  0  0
 25  3  1  0  0  0  0
 25  6  1  0  0  0  0
 26 23  1  0  0  0  0
 27  8  1  0  0  0  0
 27 19  1  0  0  0  0
 28 12  1  0  0  0  0
 28 22  1  1  0  0  0
 28 20  1  0  0  0  0
 29  6  1  0  0  0  0
M  END
>  <MODEL>
8

>  <REMARK>
 VINA RESULT:      -7.1      4.155      8.276
  Name = 
  0 active torsions:
  status: ('A' for Active; 'I' for Inactive)
                            x       y       z     vdW  Elec       q    Type
                         _______ _______ _______ _____ _____    ______ ____

>  <TORSDO>
F 0

$$$$
=
 OpenBabel11042413573D

 30 34  0  0  1  0  0  0  0  0999 V2000
  188.6230  175.8710  144.0670 C   0  0  0  0  0  1  0  0  0  0  0  0
  190.6930  175.5080  145.4400 C   0  0  0  0  0  0  0  0  0  0  0  0
  197.9400  173.8630  143.2820 C   0  0  0  0  0  2  0  0  0  0  0  0
  190.6630  175.2910  147.8360 N   0  0  0  0  0  0  0  0  0  0  0  0
  193.8070  175.1200  141.3040 N   0  0  0  0  0  2  0  0  0  0  0  0
  196.3690  174.0020  145.1930 O   0  0  0  0  0  0  0  0  0  0  0  0
  191.3990  173.6660  142.8380 C   0  0  0  0  0  2  0  0  0  0  0  0
  196.1330  175.5560  141.2360 C   0  0  0  0  0  0  0  0  0  0  0  0
  190.1040  173.9100  143.5950 C   0  0  0  0  0  2  0  0  0  0  0  0
  195.0910  174.9340  140.7730 N   0  0  0  0  0  0  0  0  0  0  0  0
  188.8800  174.4180  146.5870 F   0  0  0  0  0  0  0  0  0  0  0  0
  194.0460  177.2400  146.7680 S   0  0  0  0  0  0  0  0  0  0  0  0
  190.0480  175.3480  144.0900 C   0  0  1  0  0  3  0  0  0  0  0  0
  191.3930  174.4370  141.5260 C   0  0  0  0  0  2  0  0  0  0  0  0
  191.9500  176.1190  145.5510 C   0  0  0  0  0  0  0  0  0  0  0  0
  197.4650  173.0560  142.0790 C   0  0  0  0  0  2  0  0  0  0  0  0
  190.0710  175.0660  146.6280 C   0  0  0  0  0  0  0  0  0  0  0  0
  192.7170  174.3140  140.8630 C   0  0  0  0  0  0  0  0  0  0  0  0
  196.0050  175.5540  143.6910 C   0  0  0  0  0  0  0  0  0  0  0  0
  195.1620  175.7110  144.7710 C   0  0  0  0  0  0  0  0  0  0  0  0
  192.4970  176.3750  146.7870 C   0  0  0  0  0  0  0  0  0  0  0  0
  192.8130  176.5150  144.4050 C   0  0  0  0  0  2  0  0  0  0  0  0
  197.8100  173.7540  140.7600 C   0  0  0  0  0  2  0  0  0  0  0  0
  191.8550  175.9400  147.9430 C   0  0  0  0  0  3  0  0  0  0  0  0
  196.7850  174.4560  144.0330 C   0  0  0  0  0  0  0  0  0  0  0  0
  197.4310  175.1610  140.8020 N   0  0  0  0  0  2  0  0  0  0  0  0
  196.0520  176.4120  142.4600 C   0  0  0  0  0  2  0  0  0  0  0  0
  194.1950  176.8410  144.9810 C   0  0  1  0  0  3  0  0  0  0  0  0
  195.3960  174.7280  145.6660 N   0  0  0  0  0  0  0  0  0  0  0  0
  192.8790  173.4690  139.9440 O   0  0  0  0  0  0  0  0  0  0  0  0
  2 15  2  0  0  0  0
  2 17  1  0  0  0  0
  3 25  1  0  0  0  0
  4 24  1  0  0  0  0
  6 29  1  0  0  0  0
  7  9  1  0  0  0  0
  8 27  1  0  0  0  0
  9 13  1  0  0  0  0
 10  8  2  0  0  0  0
 10  5  1  0  0  0  0
 11 17  1  0  0  0  0
 12 21  1  0  0  0  0
 13  1  1  1  0  0  0
 13  2  1  0  0  0  0
 14  7  1  0  0  0  0
 15 21  1  0  0  0  0
 16  3  1  0  0  0  0
 17  4  2  0  0  0  0
 18  5  1  0  0  0  0
 18 14  1  0  0  0  0
 19 25  2  0  0  0  0
 19 20  1  0  0  0  0
 20 28  1  0  0  0  0
 20 29  2  0  0  0  0
 21 24  2  0  0  0  0
 22 15  1  0  0  0  0
 23 26  1  0  0  0  0
 23 16  1  0  0  0  0
 25  6  1  0  0  0  0
 26  8  1  0  0  0  0
 27 19  1  0  0  0  0
 28 22  1  1  0  0  0
 28 12  1  0  0  0  0
 30 18  2  0  0  0  0
M  END
>  <MODEL>
9

>  <REMARK>
 VINA RESULT:      -7.1      3.771      6.230
  Name = 
  0 active torsions:
  status: ('A' for Active; 'I' for Inactive)
                            x       y       z     vdW  Elec       q    Type
                         _______ _______ _______ _____ _____    ______ ____

>  <TORSDO>
F 0

$$$$
