=
 OpenBabel11042413573D

 51 54  0  0  1  0  0  0  0  0999 V2000
  188.9570  175.2910  143.9350 C   0  0  0  0  0  0  0  0  0  0  0  0
  191.5110  173.9950  140.8010 C   0  0  0  0  0  0  0  0  0  0  0  0
  188.3890  175.7120  145.0490 C   0  0  0  0  0  3  0  0  0  0  0  0
  189.1570  174.1330  141.7350 C   0  0  0  0  0  3  0  0  0  0  0  0
  189.7070  174.8410  142.9220 C   0  0  0  0  0  0  0  0  0  0  0  0
  191.5440  175.9720  143.9080 N   0  0  0  0  0  0  0  0  0  0  0  0
  192.0730  174.6010  141.8890 C   0  0  0  0  0  3  0  0  0  0  0  0
  189.9920  173.7730  140.7280 C   0  0  0  0  0  3  0  0  0  0  0  0
  191.1770  175.1580  142.9740 C   0  0  0  0  0  0  0  0  0  0  0  0
  192.8410  177.8070  144.5430 O   0  0  0  0  0  0  0  0  0  0  0  0
  192.7940  176.5810  144.3740 C   0  0  0  0  0  0  0  0  0  0  0  0
  194.0020  175.7310  144.5730 C   0  0  0  0  0  0  0  0  0  0  0  0
  196.2230  174.9870  144.1640 C   0  0  0  0  0  0  0  0  0  0  0  0
  194.9420  173.8280  145.7930 C   0  0  0  0  0  3  0  0  0  0  0  0
  195.2220  175.9020  143.8870 C   0  0  0  0  0  3  0  0  0  0  0  0
  193.9160  174.6560  145.4990 C   0  0  0  0  0  3  0  0  0  0  0  0
  196.1530  174.0020  145.1530 C   0  0  0  0  0  0  0  0  0  0  0  0
  197.1320  175.8670  142.0000 C   0  0  0  0  0  1  0  0  0  0  0  0
  197.2690  175.1520  143.2180 O   0  0  0  0  0  0  0  0  0  0  0  0
  197.0800  172.8680  145.5940 C   0  0  0  0  0  2  0  0  0  0  0  0
  197.1560  171.7770  144.7030 O   0  0  0  0  0  0  0  0  0  0  0  0
  197.1380  170.6240  145.4990 C   0  0  0  0  0  2  0  0  0  0  0  0
  195.7010  170.2840  145.9640 C   0  0  0  0  0  2  0  0  0  0  0  0
  194.9150  169.9040  144.8120 N   0  0  0  0  0  2  0  0  0  0  0  0
  193.0550  170.6400  143.3230 C   0  0  2  0  0  3  0  0  0  0  0  0
  193.8070  170.8130  144.6150 C   0  0  2  0  0  3  0  0  0  0  0  0
  193.9650  171.6010  143.4030 O   0  0  0  0  0  0  0  0  0  0  0  0
  191.6490  171.2060  143.3780 C   0  0  0  0  0  2  0  0  0  0  0  0
  190.7370  170.6290  142.2510 C   0  0  0  0  0  2  0  0  0  0  0  0
  191.1360  169.3260  141.4930 C   0  0  0  0  0  2  0  0  0  0  0  0
  191.4100  169.5450  140.0000 C   0  0  0  0  0  0  0  0  0  0  0  0
  190.3200  169.9720  139.2350 O   0  0  0  0  0  0  0  0  0  0  0  0
  192.5270  169.6800  139.5000 O   0  0  0  0  0  1  0  0  0  0  0  0
  187.5960  177.0050  145.4010 C   0  0  1  0  0  3  0  0  0  0  0  0
  185.2430  177.2860  143.2070 C   0  0  0  0  0  2  0  0  0  0  0  0
  187.2550  177.2280  141.2820 C   0  0  0  0  0  2  0  0  0  0  0  0
  186.7920  177.9290  143.9100 P   0  0  2  0  0  0  0  0  0  0  0  0
  184.9340  178.0450  141.8740 C   0  0  1  0  0  3  0  0  0  0  0  0
  187.7490  178.1870  142.3630 C   0  0  0  0  0  2  0  0  0  0  0  0
  186.4050  179.3030  144.3590 O   0  0  0  0  0  0  0  0  0  0  0  0
  185.8990  177.6770  140.7650 C   0  0  0  0  0  2  0  0  0  0  0  0
  182.5530  178.3880  142.0730 O   0  0  0  0  0  1  0  0  0  0  0  0
  183.3350  177.9440  139.9610 O   0  0  0  0  0  0  0  0  0  0  0  0
  183.5530  178.0970  141.3420 C   0  0  0  0  0  0  0  0  0  0  0  0
  186.5520  176.7100  146.5460 C   0  0  0  0  0  2  0  0  0  0  0  0
  186.9730  178.9900  148.3490 O   0  0  0  0  0  1  0  0  0  0  0  0
  184.4720  178.5810  147.3250 O   0  0  0  0  0  0  0  0  0  0  0  0
  185.8410  178.0310  147.5630 P   0  0  1  0  0  4  0  0  0  0  0  0
  192.3530  173.2110  139.8180 C   0  0  0  0  0  2  0  0  0  0  0  0
  194.7450  174.0410  139.3770 C   0  0  0  0  0  1  0  0  0  0  0  0
  193.3240  173.9970  138.8580 C   0  0  0  0  0  2  0  0  0  0  0  0
  1  3  2  0  0  0  0
  2  7  2  0  0  0  0
  4  5  1  0  0  0  0
  5  9  1  0  0  0  0
  5  1  2  0  0  0  0
  6 11  1  0  0  0  0
  7  9  1  0  0  0  0
  8  2  1  0  0  0  0
  8  4  2  0  0  0  0
  9  6  2  0  0  0  0
 11 10  2  0  0  0  0
 11 12  1  0  0  0  0
 12 16  1  0  0  0  0
 13 17  2  0  0  0  0
 15 13  1  0  0  0  0
 15 12  2  0  0  0  0
 16 14  2  0  0  0  0
 17 20  1  0  0  0  0
 17 14  1  0  0  0  0
 18 19  1  0  0  0  0
 19 13  1  0  0  0  0
 21 22  1  0  0  0  0
 21 20  1  0  0  0  0
 22 23  1  0  0  0  0
 24 23  1  0  0  0  0
 25 28  1  1  0  0  0
 25 27  1  0  0  0  0
 25 26  1  0  0  0  0
 26 24  1  6  0  0  0
 27 26  1  0  0  0  0
 29 28  1  0  0  0  0
 30 29  1  0  0  0  0
 31 30  1  0  0  0  0
 32 31  2  0  0  0  0
 33 31  1  0  0  0  0
 34  3  1  6  0  0  0
 34 45  1  0  0  0  0
 35 37  1  0  0  0  0
 36 39  1  0  0  0  0
 37 40  2  1  0  0  0
 37 34  1  0  0  0  0
 38 44  1  6  0  0  0
 38 35  1  0  0  0  0
 39 37  1  0  0  0  0
 41 36  1  0  0  0  0
 41 38  1  0  0  0  0
 43 44  2  0  0  0  0
 44 42  1  0  0  0  0
 45 48  1  0  0  0  0
 48 47  2  6  0  0  0
 48 46  1  0  0  0  0
 49  2  1  0  0  0  0
 51 50  1  0  0  0  0
 51 49  1  0  0  0  0
M  END
>  <MODEL>
1

>  <REMARK>
 VINA RESULT:      -5.9      0.000      0.000
  Name = 
  20 active torsions:
  status: ('A' for Active; 'I' for Inactive)
    1  A    between atoms: C_1  and  C_9
    2  A    between atoms: C_1  and  C_10
    3  A    between atoms: C_1  and  P_34
    4  A    between atoms: C_4  and  C_28
    5  A    between atoms: C_6  and  N_38
    6  A    between atoms: C_6  and  C_39
    7  A    between atoms: C_7  and  C_17
    8  A    between atoms: C_7  and  C_18
    9  A    between atoms: C_8  and  C_32
   10  A    between atoms: C_10  and  P_49
   11  A    between atoms: C_15  and  C_32
   12  A    between atoms: C_16  and  O_27
   13  A    between atoms: C_17  and  C_36
   14  A    between atoms: N_23  and  C_28
   15  A    between atoms: C_26  and  O_29
   16  A    between atoms: C_26  and  C_50
   17  A    between atoms: O_29  and  C_39
   18  A    between atoms: C_31  and  N_38
   19  A    between atoms: C_33  and  C_42
   20  A    between atoms: C_36  and  C_37
                            x       y       z     vdW  Elec       q    Type
                         _______ _______ _______ _____ _____    ______ ____

>  <TORSDO>
F 20

$$$$
=
 OpenBabel11042413573D

 51 54  0  0  1  0  0  0  0  0999 V2000
  194.2640  174.9210  139.3250 C   0  0  0  0  0  0  0  0  0  0  0  0
  191.1210  172.7720  137.4490 C   0  0  0  0  0  0  0  0  0  0  0  0
  195.0560  175.6460  140.0920 C   0  0  0  0  0  3  0  0  0  0  0  0
  193.4060  173.8520  137.2420 C   0  0  0  0  0  3  0  0  0  0  0  0
  193.3040  174.2580  138.6690 C   0  0  0  0  0  0  0  0  0  0  0  0
  192.1840  174.0210  140.7450 N   0  0  0  0  0  0  0  0  0  0  0  0
  190.9580  173.1600  138.7480 C   0  0  0  0  0  3  0  0  0  0  0  0
  192.4060  173.1250  136.6840 C   0  0  0  0  0  3  0  0  0  0  0  0
  192.1000  173.8420  139.4690 C   0  0  0  0  0  0  0  0  0  0  0  0
  191.5080  172.7720  142.5990 O   0  0  0  0  0  0  0  0  0  0  0  0
  191.3370  173.7940  141.9220 C   0  0  0  0  0  0  0  0  0  0  0  0
  190.2460  174.7570  142.2440 C   0  0  0  0  0  0  0  0  0  0  0  0
  189.3160  176.7920  143.0480 C   0  0  0  0  0  0  0  0  0  0  0  0
  187.8250  175.1170  142.2680 C   0  0  0  0  0  3  0  0  0  0  0  0
  190.4510  176.0520  142.7620 C   0  0  0  0  0  3  0  0  0  0  0  0
  188.9030  174.3360  142.0420 C   0  0  0  0  0  3  0  0  0  0  0  0
  188.0090  176.4000  142.7460 C   0  0  0  0  0  0  0  0  0  0  0  0
  191.0120  178.4730  143.8120 C   0  0  0  0  0  1  0  0  0  0  0  0
  189.6950  177.9460  143.7840 O   0  0  0  0  0  0  0  0  0  0  0  0
  186.6280  177.0010  143.0090 C   0  0  0  0  0  2  0  0  0  0  0  0
  186.5340  178.3940  142.8040 O   0  0  0  0  0  0  0  0  0  0  0  0
  185.1850  178.7230  142.9970 C   0  0  0  0  0  2  0  0  0  0  0  0
  185.0200  179.7820  144.1140 C   0  0  0  0  0  2  0  0  0  0  0  0
  184.5220  179.1320  145.3050 N   0  0  0  0  0  2  0  0  0  0  0  0
  185.8130  177.4410  146.6070 C   0  0  2  0  0  3  0  0  0  0  0  0
  185.5900  178.8860  146.2490 C   0  0  2  0  0  3  0  0  0  0  0  0
  185.1110  178.1990  147.4390 O   0  0  0  0  0  0  0  0  0  0  0  0
  187.2050  177.1740  147.1450 C   0  0  0  0  0  2  0  0  0  0  0  0
  187.9150  176.0090  146.3880 C   0  0  0  0  0  2  0  0  0  0  0  0
  188.9120  175.0680  147.1310 C   0  0  0  0  0  2  0  0  0  0  0  0
  190.1550  174.7170  146.3050 C   0  0  0  0  0  0  0  0  0  0  0  0
  190.0350  173.6090  145.4600 O   0  0  0  0  0  0  0  0  0  0  0  0
  191.0970  175.4800  146.0900 O   0  0  0  0  0  1  0  0  0  0  0  0
  196.3340  175.2980  140.9110 C   0  0  1  0  0  3  0  0  0  0  0  0
  195.1430  173.8270  143.5290 C   0  0  0  0  0  2  0  0  0  0  0  0
  197.7890  173.3830  144.2800 C   0  0  0  0  0  2  0  0  0  0  0  0
  196.2020  173.7470  142.0520 P   0  0  2  0  0  0  0  0  0  0  0  0
  195.3990  172.5590  144.4100 C   0  0  1  0  0  3  0  0  0  0  0  0
  197.7170  173.0220  142.7980 C   0  0  0  0  0  2  0  0  0  0  0  0
  195.5870  172.6330  141.2660 O   0  0  0  0  0  0  0  0  0  0  0  0
  196.7660  172.5780  145.0640 C   0  0  0  0  0  2  0  0  0  0  0  0
  193.2750  172.7110  145.5460 O   0  0  0  0  0  0  0  0  0  0  0  0
  194.5730  170.8920  146.0720 O   0  0  0  0  0  1  0  0  0  0  0  0
  194.3820  172.1040  145.3840 C   0  0  0  0  0  0  0  0  0  0  0  0
  197.5900  175.2270  139.9610 C   0  0  0  0  0  2  0  0  0  0  0  0
  197.5230  172.6280  138.5950 O   0  0  0  0  0  1  0  0  0  0  0  0
  197.0930  174.8880  137.1190 O   0  0  0  0  0  0  0  0  0  0  0  0
  197.5700  174.2950  138.4070 P   0  0  1  0  0  4  0  0  0  0  0  0
  189.9450  172.3150  136.6130 C   0  0  0  0  0  2  0  0  0  0  0  0
  190.3910  169.8330  137.1130 C   0  0  0  0  0  1  0  0  0  0  0  0
  189.9270  170.8340  136.0760 C   0  0  0  0  0  2  0  0  0  0  0  0
  1  3  2  0  0  0  0
  2  7  2  0  0  0  0
  3 34  1  0  0  0  0
  4  5  1  0  0  0  0
  5  1  2  0  0  0  0
  5  9  1  0  0  0  0
  6 11  1  0  0  0  0
  7  9  1  0  0  0  0
  8  4  2  0  0  0  0
  8  2  1  0  0  0  0
  9  6  2  0  0  0  0
 11 12  1  0  0  0  0
 11 10  2  0  0  0  0
 12 15  1  0  0  0  0
 13 19  1  0  0  0  0
 14 17  2  0  0  0  0
 15 13  2  0  0  0  0
 16 12  2  0  0  0  0
 16 14  1  0  0  0  0
 17 20  1  0  0  0  0
 17 13  1  0  0  0  0
 19 18  1  0  0  0  0
 21 22  1  0  0  0  0
 21 20  1  0  0  0  0
 22 23  1  0  0  0  0
 23 24  1  0  0  0  0
 25 28  1  1  0  0  0
 25 27  1  0  0  0  0
 26 24  1  6  0  0  0
 26 25  1  0  0  0  0
 26 27  1  0  0  0  0
 29 30  1  0  0  0  0
 29 28  1  0  0  0  0
 31 30  1  0  0  0  0
 32 31  2  0  0  0  0
 33 31  1  0  0  0  0
 34 45  1  6  0  0  0
 34 37  1  0  0  0  0
 35 38  1  0  0  0  0
 36 41  1  0  0  0  0
 37 40  2  6  0  0  0
 37 39  1  0  0  0  0
 37 35  1  0  0  0  0
 38 41  1  0  0  0  0
 38 44  1  1  0  0  0
 39 36  1  0  0  0  0
 44 42  2  0  0  0  0
 44 43  1  0  0  0  0
 48 47  2  6  0  0  0
 48 46  1  0  0  0  0
 48 45  1  0  0  0  0
 49  2  1  0  0  0  0
 51 49  1  0  0  0  0
 51 50  1  0  0  0  0
M  END
>  <MODEL>
2

>  <REMARK>
 VINA RESULT:      -5.7      3.535      9.872
  Name = 
  20 active torsions:
  status: ('A' for Active; 'I' for Inactive)
    1  A    between atoms: C_1  and  C_9
    2  A    between atoms: C_1  and  C_10
    3  A    between atoms: C_1  and  P_34
    4  A    between atoms: C_4  and  C_28
    5  A    between atoms: C_6  and  N_38
    6  A    between atoms: C_6  and  C_39
    7  A    between atoms: C_7  and  C_17
    8  A    between atoms: C_7  and  C_18
    9  A    between atoms: C_8  and  C_32
   10  A    between atoms: C_10  and  P_49
   11  A    between atoms: C_15  and  C_32
   12  A    between atoms: C_16  and  O_27
   13  A    between atoms: C_17  and  C_36
   14  A    between atoms: N_23  and  C_28
   15  A    between atoms: C_26  and  O_29
   16  A    between atoms: C_26  and  C_50
   17  A    between atoms: O_29  and  C_39
   18  A    between atoms: C_31  and  N_38
   19  A    between atoms: C_33  and  C_42
   20  A    between atoms: C_36  and  C_37
                            x       y       z     vdW  Elec       q    Type
                         _______ _______ _______ _____ _____    ______ ____

>  <TORSDO>
F 20

$$$$
=
 OpenBabel11042413573D

 51 54  0  0  1  0  0  0  0  0999 V2000
  190.3050  174.7580  145.3410 C   0  0  0  0  0  0  0  0  0  0  0  0
  186.9440  177.3400  145.5870 C   0  0  0  0  0  0  0  0  0  0  0  0
  191.2260  173.8600  145.0490 C   0  0  0  0  0  3  0  0  0  0  0  0
  188.9450  176.3020  146.7500 C   0  0  0  0  0  3  0  0  0  0  0  0
  189.2530  175.5720  145.4910 C   0  0  0  0  0  0  0  0  0  0  0  0
  188.8580  175.3310  143.1650 N   0  0  0  0  0  0  0  0  0  0  0  0
  187.1570  176.6590  144.4220 C   0  0  0  0  0  3  0  0  0  0  0  0
  187.8910  177.1550  146.7830 C   0  0  0  0  0  3  0  0  0  0  0  0
  188.3990  175.8070  144.2750 C   0  0  0  0  0  0  0  0  0  0  0  0
  187.6580  176.1480  141.3360 O   0  0  0  0  0  0  0  0  0  0  0  0
  188.4420  175.2880  141.7590 C   0  0  0  0  0  0  0  0  0  0  0  0
  188.9130  174.1790  140.8820 C   0  0  0  0  0  0  0  0  0  0  0  0
  189.3740  173.0900  138.8190 C   0  0  0  0  0  0  0  0  0  0  0  0
  189.8020  171.8990  140.8280 C   0  0  0  0  0  3  0  0  0  0  0  0
  188.9520  174.2350  139.4740 C   0  0  0  0  0  3  0  0  0  0  0  0
  189.3290  172.9690  141.5020 C   0  0  0  0  0  3  0  0  0  0  0  0
  189.8760  171.9490  139.4500 C   0  0  0  0  0  0  0  0  0  0  0  0
  188.5420  174.3940  136.8460 C   0  0  0  0  0  1  0  0  0  0  0  0
  189.1130  173.2340  137.4310 O   0  0  0  0  0  0  0  0  0  0  0  0
  190.3370  170.5760  138.9590 C   0  0  0  0  0  2  0  0  0  0  0  0
  190.7780  169.6960  139.9700 O   0  0  0  0  0  0  0  0  0  0  0  0
  191.9370  169.0850  139.4730 C   0  0  0  0  0  2  0  0  0  0  0  0
  193.1240  169.2510  140.4520 C   0  0  0  0  0  2  0  0  0  0  0  0
  192.6080  169.5650  141.7650 N   0  0  0  0  0  2  0  0  0  0  0  0
  193.3010  170.2370  144.0650 C   0  0  2  0  0  3  0  0  0  0  0  0
  193.6720  169.6170  142.7440 C   0  0  2  0  0  3  0  0  0  0  0  0
  193.9430  170.9800  143.1730 O   0  0  0  0  0  0  0  0  0  0  0  0
  194.2190  169.8130  145.1940 C   0  0  0  0  0  2  0  0  0  0  0  0
  194.8770  171.0350  145.9080 C   0  0  0  0  0  2  0  0  0  0  0  0
  196.4280  171.1930  145.9470 C   0  0  0  0  0  2  0  0  0  0  0  0
  196.9030  172.6320  145.7100 C   0  0  0  0  0  0  0  0  0  0  0  0
  196.7390  173.1230  144.4100 O   0  0  0  0  0  0  0  0  0  0  0  0
  197.1090  173.4620  146.5950 O   0  0  0  0  0  1  0  0  0  0  0  0
  192.7210  173.9840  144.6300 C   0  0  1  0  0  3  0  0  0  0  0  0
  193.2130  174.0000  141.4370 C   0  0  0  0  0  2  0  0  0  0  0  0
  195.5900  175.3470  141.9760 C   0  0  0  0  0  2  0  0  0  0  0  0
  193.0560  174.9400  142.9870 P   0  0  2  0  0  0  0  0  0  0  0  0
  193.7260  174.9560  140.3100 C   0  0  1  0  0  3  0  0  0  0  0  0
  194.5300  176.0270  142.8380 C   0  0  0  0  0  2  0  0  0  0  0  0
  191.8870  175.8330  142.7130 O   0  0  0  0  0  0  0  0  0  0  0  0
  195.1700  175.3670  140.5160 C   0  0  0  0  0  2  0  0  0  0  0  0
  193.9600  175.3410  137.9390 O   0  0  0  0  0  0  0  0  0  0  0  0
  192.8470  173.4260  138.5450 O   0  0  0  0  0  1  0  0  0  0  0  0
  193.4950  174.6290  138.8850 C   0  0  0  0  0  0  0  0  0  0  0  0
  193.5790  174.5490  145.8260 C   0  0  0  0  0  2  0  0  0  0  0  0
  192.3390  176.6670  147.4390 O   0  0  0  0  0  1  0  0  0  0  0  0
  194.7040  177.2040  146.1770 O   0  0  0  0  0  0  0  0  0  0  0  0
  193.5240  176.2950  146.3090 P   0  0  1  0  0  4  0  0  0  0  0  0
  185.6140  177.9990  145.8780 C   0  0  0  0  0  2  0  0  0  0  0  0
  184.2150  178.8980  143.9180 C   0  0  0  0  0  1  0  0  0  0  0  0
  185.1870  179.2520  145.0230 C   0  0  0  0  0  2  0  0  0  0  0  0
  1  5  2  0  0  0  0
  2 49  1  0  0  0  0
  2  8  1  0  0  0  0
  3  1  2  0  0  0  0
  4  8  2  0  0  0  0
  5  4  1  0  0  0  0
  6  9  2  0  0  0  0
  7  2  2  0  0  0  0
  9  7  1  0  0  0  0
  9  5  1  0  0  0  0
 10 11  2  0  0  0  0
 11  6  1  0  0  0  0
 12 16  1  0  0  0  0
 12 11  1  0  0  0  0
 13 17  2  0  0  0  0
 13 15  1  0  0  0  0
 14 16  2  0  0  0  0
 15 12  2  0  0  0  0
 17 14  1  0  0  0  0
 18 19  1  0  0  0  0
 19 13  1  0  0  0  0
 20 17  1  0  0  0  0
 20 21  1  0  0  0  0
 22 21  1  0  0  0  0
 22 23  1  0  0  0  0
 23 24  1  0  0  0  0
 25 28  1  1  0  0  0
 26 24  1  6  0  0  0
 26 27  1  0  0  0  0
 26 25  1  0  0  0  0
 27 25  1  0  0  0  0
 28 29  1  0  0  0  0
 29 30  1  0  0  0  0
 31 30  1  0  0  0  0
 31 33  1  0  0  0  0
 32 31  2  0  0  0  0
 34  3  1  1  0  0  0
 34 45  1  0  0  0  0
 35 37  1  0  0  0  0
 36 39  1  0  0  0  0
 37 40  2  6  0  0  0
 37 34  1  0  0  0  0
 38 44  1  6  0  0  0
 38 41  1  0  0  0  0
 38 35  1  0  0  0  0
 39 37  1  0  0  0  0
 41 36  1  0  0  0  0
 42 44  2  0  0  0  0
 43 44  1  0  0  0  0
 45 48  1  0  0  0  0
 48 47  2  1  0  0  0
 48 46  1  0  0  0  0
 50 51  1  0  0  0  0
 51 49  1  0  0  0  0
M  END
>  <MODEL>
3

>  <REMARK>
 VINA RESULT:      -5.6      2.899      7.680
  Name = 
  20 active torsions:
  status: ('A' for Active; 'I' for Inactive)
    1  A    between atoms: C_1  and  C_9
    2  A    between atoms: C_1  and  C_10
    3  A    between atoms: C_1  and  P_34
    4  A    between atoms: C_4  and  C_28
    5  A    between atoms: C_6  and  N_38
    6  A    between atoms: C_6  and  C_39
    7  A    between atoms: C_7  and  C_17
    8  A    between atoms: C_7  and  C_18
    9  A    between atoms: C_8  and  C_32
   10  A    between atoms: C_10  and  P_49
   11  A    between atoms: C_15  and  C_32
   12  A    between atoms: C_16  and  O_27
   13  A    between atoms: C_17  and  C_36
   14  A    between atoms: N_23  and  C_28
   15  A    between atoms: C_26  and  O_29
   16  A    between atoms: C_26  and  C_50
   17  A    between atoms: O_29  and  C_39
   18  A    between atoms: C_31  and  N_38
   19  A    between atoms: C_33  and  C_42
   20  A    between atoms: C_36  and  C_37
                            x       y       z     vdW  Elec       q    Type
                         _______ _______ _______ _____ _____    ______ ____

>  <TORSDO>
F 20

$$$$
=
 OpenBabel11042413573D

 51 54  0  0  1  0  0  0  0  0999 V2000
  192.1670  176.5490  144.6910 C   0  0  0  0  0  0  0  0  0  0  0  0
  195.1270  173.6350  145.5660 C   0  0  0  0  0  0  0  0  0  0  0  0
  191.1530  177.2700  144.2530 C   0  0  0  0  0  3  0  0  0  0  0  0
  194.4160  176.0680  145.6570 C   0  0  0  0  0  3  0  0  0  0  0  0
  193.1480  175.6850  144.9800 C   0  0  0  0  0  0  0  0  0  0  0  0
  191.6850  173.9480  144.2970 N   0  0  0  0  0  0  0  0  0  0  0  0
  194.0010  173.2390  144.9030 C   0  0  0  0  0  3  0  0  0  0  0  0
  195.3210  175.1060  145.9650 C   0  0  0  0  0  3  0  0  0  0  0  0
  192.8890  174.2370  144.6640 C   0  0  0  0  0  0  0  0  0  0  0  0
  190.3040  172.1220  144.7570 O   0  0  0  0  0  0  0  0  0  0  0  0
  190.9400  172.7490  143.8990 C   0  0  0  0  0  0  0  0  0  0  0  0
  191.0120  172.2670  142.4910 C   0  0  0  0  0  0  0  0  0  0  0  0
  190.2430  171.9500  140.2630 C   0  0  0  0  0  0  0  0  0  0  0  0
  192.3340  171.0000  140.8660 C   0  0  0  0  0  3  0  0  0  0  0  0
  190.0330  172.5190  141.5080 C   0  0  0  0  0  3  0  0  0  0  0  0
  192.1320  171.4760  142.1130 C   0  0  0  0  0  3  0  0  0  0  0  0
  191.4000  171.2640  139.8840 C   0  0  0  0  0  0  0  0  0  0  0  0
  188.5590  173.3330  139.0230 C   0  0  0  0  0  1  0  0  0  0  0  0
  189.0600  172.0900  139.4900 O   0  0  0  0  0  0  0  0  0  0  0  0
  191.8290  170.5170  138.6200 C   0  0  0  0  0  2  0  0  0  0  0  0
  192.9370  169.6580  138.7820 O   0  0  0  0  0  0  0  0  0  0  0  0
  193.4490  169.4410  137.4950 C   0  0  0  0  0  2  0  0  0  0  0  0
  194.9900  169.5820  137.4730 C   0  0  0  0  0  2  0  0  0  0  0  0
  195.3350  170.8660  136.9070 N   0  0  0  0  0  2  0  0  0  0  0  0
  195.8030  172.9860  138.1340 C   0  0  2  0  0  3  0  0  0  0  0  0
  196.2390  171.5910  137.7720 C   0  0  2  0  0  3  0  0  0  0  0  0
  196.6920  172.8320  137.1620 O   0  0  0  0  0  0  0  0  0  0  0  0
  196.4570  173.4980  139.4020 C   0  0  0  0  0  2  0  0  0  0  0  0
  196.4310  175.0560  139.4910 C   0  0  0  0  0  2  0  0  0  0  0  0
  197.2080  175.8030  140.6180 C   0  0  0  0  0  2  0  0  0  0  0  0
  196.2950  176.5080  141.6280 C   0  0  0  0  0  0  0  0  0  0  0  0
  195.0100  176.8200  141.1760 O   0  0  0  0  0  0  0  0  0  0  0  0
  196.4780  176.5340  142.8450 O   0  0  0  0  0  1  0  0  0  0  0  0
  189.8930  177.8510  144.9590 C   0  0  1  0  0  3  0  0  0  0  0  0
  187.8170  178.2050  142.5090 C   0  0  0  0  0  2  0  0  0  0  0  0
  185.9660  179.0410  144.4140 C   0  0  0  0  0  2  0  0  0  0  0  0
  188.2010  177.4510  144.1200 P   0  0  2  0  0  0  0  0  0  0  0  0
  186.3140  177.9360  142.1650 C   0  0  1  0  0  3  0  0  0  0  0  0
  186.6290  177.8000  145.0060 C   0  0  0  0  0  2  0  0  0  0  0  0
  188.1590  175.9870  143.8170 O   0  0  0  0  0  0  0  0  0  0  0  0
  185.3700  178.7190  143.0540 C   0  0  0  0  0  2  0  0  0  0  0  0
  184.7260  178.5010  140.4380 O   0  0  0  0  0  1  0  0  0  0  0  0
  186.7030  177.5750  139.7270 O   0  0  0  0  0  0  0  0  0  0  0  0
  185.8440  177.9880  140.7620 C   0  0  0  0  0  0  0  0  0  0  0  0
  189.8980  177.4680  146.4880 C   0  0  0  0  0  2  0  0  0  0  0  0
  191.0960  175.1650  147.8610 O   0  0  0  0  0  1  0  0  0  0  0  0
  188.4260  175.0930  147.2820 O   0  0  0  0  0  0  0  0  0  0  0  0
  189.7480  175.7520  147.0510 P   0  0  1  0  0  4  0  0  0  0  0  0
  196.3590  172.7580  145.6150 C   0  0  0  0  0  2  0  0  0  0  0  0
  197.3990  172.9790  143.2740 C   0  0  0  0  0  1  0  0  0  0  0  0
  197.6160  173.1700  144.7600 C   0  0  0  0  0  2  0  0  0  0  0  0
  1  5  2  0  0  0  0
  2 49  1  0  0  0  0
  2  8  1  0  0  0  0
  3  1  2  0  0  0  0
  4  8  2  0  0  0  0
  5  4  1  0  0  0  0
  6  9  2  0  0  0  0
  7  2  2  0  0  0  0
  9  7  1  0  0  0  0
  9  5  1  0  0  0  0
 11  6  1  0  0  0  0
 11 10  2  0  0  0  0
 12 11  1  0  0  0  0
 13 15  1  0  0  0  0
 14 16  2  0  0  0  0
 15 12  2  0  0  0  0
 16 12  1  0  0  0  0
 17 13  2  0  0  0  0
 17 14  1  0  0  0  0
 18 19  1  0  0  0  0
 19 13  1  0  0  0  0
 20 21  1  0  0  0  0
 20 17  1  0  0  0  0
 22 21  1  0  0  0  0
 23 22  1  0  0  0  0
 24 23  1  0  0  0  0
 25 28  1  1  0  0  0
 26 24  1  6  0  0  0
 26 25  1  0  0  0  0
 27 26  1  0  0  0  0
 27 25  1  0  0  0  0
 28 29  1  0  0  0  0
 29 30  1  0  0  0  0
 30 31  1  0  0  0  0
 31 33  1  0  0  0  0
 32 31  2  0  0  0  0
 34  3  1  6  0  0  0
 34 45  1  0  0  0  0
 35 37  1  0  0  0  0
 36 39  1  0  0  0  0
 37 40  2  6  0  0  0
 37 34  1  0  0  0  0
 37 39  1  0  0  0  0
 38 44  1  6  0  0  0
 38 35  1  0  0  0  0
 38 41  1  0  0  0  0
 41 36  1  0  0  0  0
 42 44  1  0  0  0  0
 43 44  2  0  0  0  0
 45 48  1  0  0  0  0
 48 47  2  1  0  0  0
 48 46  1  0  0  0  0
 50 51  1  0  0  0  0
 51 49  1  0  0  0  0
M  END
>  <MODEL>
4

>  <REMARK>
 VINA RESULT:      -5.6      2.634      6.105
  Name = 
  20 active torsions:
  status: ('A' for Active; 'I' for Inactive)
    1  A    between atoms: C_1  and  C_9
    2  A    between atoms: C_1  and  C_10
    3  A    between atoms: C_1  and  P_34
    4  A    between atoms: C_4  and  C_28
    5  A    between atoms: C_6  and  N_38
    6  A    between atoms: C_6  and  C_39
    7  A    between atoms: C_7  and  C_17
    8  A    between atoms: C_7  and  C_18
    9  A    between atoms: C_8  and  C_32
   10  A    between atoms: C_10  and  P_49
   11  A    between atoms: C_15  and  C_32
   12  A    between atoms: C_16  and  O_27
   13  A    between atoms: C_17  and  C_36
   14  A    between atoms: N_23  and  C_28
   15  A    between atoms: C_26  and  O_29
   16  A    between atoms: C_26  and  C_50
   17  A    between atoms: O_29  and  C_39
   18  A    between atoms: C_31  and  N_38
   19  A    between atoms: C_33  and  C_42
   20  A    between atoms: C_36  and  C_37
                            x       y       z     vdW  Elec       q    Type
                         _______ _______ _______ _____ _____    ______ ____

>  <TORSDO>
F 20

$$$$
=
 OpenBabel11042413573D

 51 54  0  0  1  0  0  0  0  0999 V2000
  193.4490  175.3610  144.5890 C   0  0  0  0  0  0  0  0  0  0  0  0
  196.2400  172.2530  145.3450 C   0  0  0  0  0  0  0  0  0  0  0  0
  192.4940  176.1650  144.1620 C   0  0  0  0  0  3  0  0  0  0  0  0
  195.6020  174.6880  145.6520 C   0  0  0  0  0  3  0  0  0  0  0  0
  194.3770  174.4320  144.8490 C   0  0  0  0  0  0  0  0  0  0  0  0
  192.9130  172.8390  143.8780 N   0  0  0  0  0  0  0  0  0  0  0  0
  195.1530  171.9760  144.5650 C   0  0  0  0  0  3  0  0  0  0  0  0
  196.4510  173.6630  145.9170 C   0  0  0  0  0  3  0  0  0  0  0  0
  194.0950  173.0380  144.3590 C   0  0  0  0  0  0  0  0  0  0  0  0
  192.0480  170.6710  143.9460 O   0  0  0  0  0  0  0  0  0  0  0  0
  192.1620  171.7200  143.2980 C   0  0  0  0  0  0  0  0  0  0  0  0
  191.6060  171.8380  141.9210 C   0  0  0  0  0  0  0  0  0  0  0  0
  190.8260  171.0410  139.8200 C   0  0  0  0  0  0  0  0  0  0  0  0
  190.8840  173.3890  140.1700 C   0  0  0  0  0  3  0  0  0  0  0  0
  191.2880  170.7430  141.0910 C   0  0  0  0  0  3  0  0  0  0  0  0
  191.4050  173.1420  141.3910 C   0  0  0  0  0  3  0  0  0  0  0  0
  190.5380  172.3280  139.3570 C   0  0  0  0  0  0  0  0  0  0  0  0
  190.6440  168.5500  139.6040 C   0  0  0  0  0  1  0  0  0  0  0  0
  190.7980  169.8480  139.0510 O   0  0  0  0  0  0  0  0  0  0  0  0
  190.0860  172.9000  138.0130 C   0  0  0  0  0  2  0  0  0  0  0  0
  190.7960  172.4200  136.8910 O   0  0  0  0  0  0  0  0  0  0  0  0
  191.5540  173.5020  136.4210 C   0  0  0  0  0  2  0  0  0  0  0  0
  193.0280  173.0930  136.1820 C   0  0  0  0  0  2  0  0  0  0  0  0
  193.8900  174.1540  136.6510 N   0  0  0  0  0  2  0  0  0  0  0  0
  194.3960  175.2580  138.8300 C   0  0  2  0  0  3  0  0  0  0  0  0
  194.2120  173.9820  138.0510 C   0  0  2  0  0  3  0  0  0  0  0  0
  195.4740  174.6180  138.3960 O   0  0  0  0  0  0  0  0  0  0  0  0
  194.2070  175.0700  140.3220 C   0  0  0  0  0  2  0  0  0  0  0  0
  194.7910  176.2610  141.1440 C   0  0  0  0  0  2  0  0  0  0  0  0
  196.3310  176.4780  141.2470 C   0  0  0  0  0  2  0  0  0  0  0  0
  196.8820  176.2980  142.6670 C   0  0  0  0  0  0  0  0  0  0  0  0
  197.7620  175.2270  142.8500 O   0  0  0  0  0  0  0  0  0  0  0  0
  196.8690  177.1620  143.5430 O   0  0  0  0  0  1  0  0  0  0  0  0
  191.2040  176.7170  144.8360 C   0  0  1  0  0  3  0  0  0  0  0  0
  188.1120  177.5170  144.3500 C   0  0  0  0  0  2  0  0  0  0  0  0
  187.9410  175.2310  142.7690 C   0  0  0  0  0  2  0  0  0  0  0  0
  189.7430  177.1270  143.6440 P   0  0  2  0  0  0  0  0  0  0  0  0
  187.0550  177.5620  143.1980 C   0  0  1  0  0  3  0  0  0  0  0  0
  189.2400  175.9180  142.3550 C   0  0  0  0  0  2  0  0  0  0  0  0
  190.0830  178.3750  142.8920 O   0  0  0  0  0  0  0  0  0  0  0  0
  186.7710  176.1900  142.6220 C   0  0  0  0  0  2  0  0  0  0  0  0
  185.5600  179.4110  142.7810 O   0  0  0  0  0  0  0  0  0  0  0  0
  184.7390  177.7290  144.1110 O   0  0  0  0  0  1  0  0  0  0  0  0
  185.7870  178.3070  143.3710 C   0  0  0  0  0  0  0  0  0  0  0  0
  190.7560  175.7700  146.0140 C   0  0  0  0  0  2  0  0  0  0  0  0
  190.8610  177.5510  148.3470 O   0  0  0  0  0  1  0  0  0  0  0  0
  191.5530  174.9270  148.6770 O   0  0  0  0  0  0  0  0  0  0  0  0
  191.2810  176.0490  147.7260 P   0  0  1  0  0  4  0  0  0  0  0  0
  197.4350  171.3260  145.3840 C   0  0  0  0  0  2  0  0  0  0  0  0
  196.5000  169.5030  146.9360 C   0  0  0  0  0  1  0  0  0  0  0  0
  197.1930  169.7870  145.6220 C   0  0  0  0  0  2  0  0  0  0  0  0
  1  5  2  0  0  0  0
  2 49  1  0  0  0  0
  2  8  1  0  0  0  0
  3  1  2  0  0  0  0
  4  8  2  0  0  0  0
  5  4  1  0  0  0  0
  6  9  2  0  0  0  0
  7  2  2  0  0  0  0
  9  7  1  0  0  0  0
  9  5  1  0  0  0  0
 11  6  1  0  0  0  0
 11 10  2  0  0  0  0
 12 11  1  0  0  0  0
 13 15  1  0  0  0  0
 14 16  2  0  0  0  0
 15 12  2  0  0  0  0
 16 12  1  0  0  0  0
 17 13  2  0  0  0  0
 17 14  1  0  0  0  0
 19 18  1  0  0  0  0
 19 13  1  0  0  0  0
 20 17  1  0  0  0  0
 21 20  1  0  0  0  0
 22 21  1  0  0  0  0
 23 22  1  0  0  0  0
 23 24  1  0  0  0  0
 25 28  1  1  0  0  0
 26 24  1  6  0  0  0
 26 27  1  0  0  0  0
 26 25  1  0  0  0  0
 27 25  1  0  0  0  0
 28 29  1  0  0  0  0
 29 30  1  0  0  0  0
 30 31  1  0  0  0  0
 31 32  2  0  0  0  0
 31 33  1  0  0  0  0
 34  3  1  6  0  0  0
 34 45  1  0  0  0  0
 37 40  2  6  0  0  0
 37 35  1  0  0  0  0
 37 34  1  0  0  0  0
 38 44  1  1  0  0  0
 38 35  1  0  0  0  0
 39 36  1  0  0  0  0
 39 37  1  0  0  0  0
 41 36  1  0  0  0  0
 41 38  1  0  0  0  0
 42 44  2  0  0  0  0
 44 43  1  0  0  0  0
 45 48  1  0  0  0  0
 48 46  1  1  0  0  0
 48 47  2  0  0  0  0
 49 51  1  0  0  0  0
 51 50  1  0  0  0  0
M  END
>  <MODEL>
5

>  <REMARK>
 VINA RESULT:      -5.5      2.499      6.849
  Name = 
  20 active torsions:
  status: ('A' for Active; 'I' for Inactive)
    1  A    between atoms: C_1  and  C_9
    2  A    between atoms: C_1  and  C_10
    3  A    between atoms: C_1  and  P_34
    4  A    between atoms: C_4  and  C_28
    5  A    between atoms: C_6  and  N_38
    6  A    between atoms: C_6  and  C_39
    7  A    between atoms: C_7  and  C_17
    8  A    between atoms: C_7  and  C_18
    9  A    between atoms: C_8  and  C_32
   10  A    between atoms: C_10  and  P_49
   11  A    between atoms: C_15  and  C_32
   12  A    between atoms: C_16  and  O_27
   13  A    between atoms: C_17  and  C_36
   14  A    between atoms: N_23  and  C_28
   15  A    between atoms: C_26  and  O_29
   16  A    between atoms: C_26  and  C_50
   17  A    between atoms: O_29  and  C_39
   18  A    between atoms: C_31  and  N_38
   19  A    between atoms: C_33  and  C_42
   20  A    between atoms: C_36  and  C_37
                            x       y       z     vdW  Elec       q    Type
                         _______ _______ _______ _____ _____    ______ ____

>  <TORSDO>
F 20

$$$$
=
 OpenBabel11042413573D

 51 54  0  0  1  0  0  0  0  0999 V2000
  194.0510  175.1550  140.4810 C   0  0  0  0  0  0  0  0  0  0  0  0
  192.0860  172.0560  138.3460 C   0  0  0  0  0  0  0  0  0  0  0  0
  194.4580  176.0930  141.3150 C   0  0  0  0  0  3  0  0  0  0  0  0
  193.7900  173.9340  138.3220 C   0  0  0  0  0  3  0  0  0  0  0  0
  193.4580  174.2060  139.7460 C   0  0  0  0  0  0  0  0  0  0  0  0
  192.3960  173.4670  141.7330 N   0  0  0  0  0  0  0  0  0  0  0  0
  191.7120  172.2940  139.6380 C   0  0  0  0  0  3  0  0  0  0  0  0
  193.1790  172.9060  137.6810 C   0  0  0  0  0  3  0  0  0  0  0  0
  192.4610  173.3270  140.4510 C   0  0  0  0  0  0  0  0  0  0  0  0
  191.6360  171.6540  142.9920 O   0  0  0  0  0  0  0  0  0  0  0  0
  191.6350  172.8820  142.8420 C   0  0  0  0  0  0  0  0  0  0  0  0
  190.8210  173.7640  143.7270 C   0  0  0  0  0  0  0  0  0  0  0  0
  189.8290  175.8050  144.4370 C   0  0  0  0  0  0  0  0  0  0  0  0
  189.5090  173.8800  145.7900 C   0  0  0  0  0  3  0  0  0  0  0  0
  190.5670  175.1280  143.4800 C   0  0  0  0  0  3  0  0  0  0  0  0
  190.2840  173.2010  144.9170 C   0  0  0  0  0  3  0  0  0  0  0  0
  189.2240  175.2100  145.5460 C   0  0  0  0  0  0  0  0  0  0  0  0
  191.0880  177.9140  143.9330 C   0  0  0  0  0  1  0  0  0  0  0  0
  189.8850  177.1960  144.1580 O   0  0  0  0  0  0  0  0  0  0  0  0
  188.4320  175.7420  146.7410 C   0  0  0  0  0  2  0  0  0  0  0  0
  187.1950  176.3400  146.4190 O   0  0  0  0  0  0  0  0  0  0  0  0
  186.7510  176.9680  147.5920 C   0  0  0  0  0  2  0  0  0  0  0  0
  186.3850  178.4490  147.3320 C   0  0  0  0  0  2  0  0  0  0  0  0
  184.9450  178.5760  147.2970 N   0  0  0  0  0  2  0  0  0  0  0  0
  184.4770  179.2040  144.9290 C   0  0  2  0  0  3  0  0  0  0  0  0
  184.4170  178.1630  146.0150 C   0  0  2  0  0  3  0  0  0  0  0  0
  183.3320  179.0250  145.5760 O   0  0  0  0  0  0  0  0  0  0  0  0
  184.4220  178.6070  143.5370 C   0  0  0  0  0  2  0  0  0  0  0  0
  185.7850  178.7380  142.7870 C   0  0  0  0  0  2  0  0  0  0  0  0
  186.8500  177.6030  142.8680 C   0  0  0  0  0  2  0  0  0  0  0  0
  187.1910  176.9840  141.5070 C   0  0  0  0  0  0  0  0  0  0  0  0
  187.0210  177.8170  140.3970 O   0  0  0  0  0  0  0  0  0  0  0  0
  187.8730  175.9720  141.3430 O   0  0  0  0  0  1  0  0  0  0  0  0
  195.7220  176.2220  142.2150 C   0  0  1  0  0  3  0  0  0  0  0  0
  195.2270  173.2530  143.3900 C   0  0  0  0  0  2  0  0  0  0  0  0
  193.8430  174.4850  145.4690 C   0  0  0  0  0  2  0  0  0  0  0  0
  195.8660  174.9370  143.6480 P   0  0  2  0  0  0  0  0  0  0  0  0
  195.2290  172.4920  144.7570 C   0  0  1  0  0  3  0  0  0  0  0  0
  195.1210  175.3010  145.2880 C   0  0  0  0  0  2  0  0  0  0  0  0
  197.3170  174.7000  143.9260 O   0  0  0  0  0  0  0  0  0  0  0  0
  194.1840  173.0250  145.7150 C   0  0  0  0  0  2  0  0  0  0  0  0
  194.2060  170.3350  145.1150 O   0  0  0  0  0  1  0  0  0  0  0  0
  196.3650  170.3110  144.3340 O   0  0  0  0  0  0  0  0  0  0  0  0
  195.2340  171.0120  144.7910 C   0  0  0  0  0  0  0  0  0  0  0  0
  197.0240  176.2640  141.3270 C   0  0  0  0  0  2  0  0  0  0  0  0
  197.0870  173.4330  140.5490 O   0  0  0  0  0  1  0  0  0  0  0  0
  197.3590  175.3280  138.5980 O   0  0  0  0  0  0  0  0  0  0  0  0
  197.3660  175.0140  140.0600 P   0  0  1  0  0  4  0  0  0  0  0  0
  191.2260  171.2230  137.4210 C   0  0  0  0  0  2  0  0  0  0  0  0
  190.4010  168.9530  138.2990 C   0  0  0  0  0  1  0  0  0  0  0  0
  190.0340  170.3970  138.0350 C   0  0  0  0  0  2  0  0  0  0  0  0
  1  3  2  0  0  0  0
  2  7  2  0  0  0  0
  4  5  1  0  0  0  0
  5  9  1  0  0  0  0
  5  1  2  0  0  0  0
  6 11  1  0  0  0  0
  7  9  1  0  0  0  0
  8  4  2  0  0  0  0
  8  2  1  0  0  0  0
  9  6  2  0  0  0  0
 11 10  2  0  0  0  0
 11 12  1  0  0  0  0
 12 16  1  0  0  0  0
 13 17  2  0  0  0  0
 15 12  2  0  0  0  0
 15 13  1  0  0  0  0
 16 14  2  0  0  0  0
 17 14  1  0  0  0  0
 17 20  1  0  0  0  0
 18 19  1  0  0  0  0
 19 13  1  0  0  0  0
 21 20  1  0  0  0  0
 21 22  1  0  0  0  0
 23 22  1  0  0  0  0
 24 23  1  0  0  0  0
 25 28  1  6  0  0  0
 25 27  1  0  0  0  0
 25 26  1  0  0  0  0
 26 24  1  1  0  0  0
 27 26  1  0  0  0  0
 29 30  1  0  0  0  0
 29 28  1  0  0  0  0
 31 30  1  0  0  0  0
 32 31  2  0  0  0  0
 33 31  1  0  0  0  0
 34  3  1  6  0  0  0
 34 37  1  0  0  0  0
 35 37  1  0  0  0  0
 35 38  1  0  0  0  0
 36 41  1  0  0  0  0
 37 40  2  1  0  0  0
 37 39  1  0  0  0  0
 38 44  1  6  0  0  0
 38 41  1  0  0  0  0
 39 36  1  0  0  0  0
 43 44  2  0  0  0  0
 44 42  1  0  0  0  0
 45 34  1  0  0  0  0
 48 47  2  6  0  0  0
 48 46  1  0  0  0  0
 48 45  1  0  0  0  0
 49 51  1  0  0  0  0
 49  2  1  0  0  0  0
 51 50  1  0  0  0  0
M  END
>  <MODEL>
6

>  <REMARK>
 VINA RESULT:      -5.5      3.178      9.449
  Name = 
  20 active torsions:
  status: ('A' for Active; 'I' for Inactive)
    1  A    between atoms: C_1  and  C_9
    2  A    between atoms: C_1  and  C_10
    3  A    between atoms: C_1  and  P_34
    4  A    between atoms: C_4  and  C_28
    5  A    between atoms: C_6  and  N_38
    6  A    between atoms: C_6  and  C_39
    7  A    between atoms: C_7  and  C_17
    8  A    between atoms: C_7  and  C_18
    9  A    between atoms: C_8  and  C_32
   10  A    between atoms: C_10  and  P_49
   11  A    between atoms: C_15  and  C_32
   12  A    between atoms: C_16  and  O_27
   13  A    between atoms: C_17  and  C_36
   14  A    between atoms: N_23  and  C_28
   15  A    between atoms: C_26  and  O_29
   16  A    between atoms: C_26  and  C_50
   17  A    between atoms: O_29  and  C_39
   18  A    between atoms: C_31  and  N_38
   19  A    between atoms: C_33  and  C_42
   20  A    between atoms: C_36  and  C_37
                            x       y       z     vdW  Elec       q    Type
                         _______ _______ _______ _____ _____    ______ ____

>  <TORSDO>
F 20

$$$$
=
 OpenBabel11042413573D

 51 54  0  0  1  0  0  0  0  0999 V2000
  189.3140  174.4280  140.9750 C   0  0  0  0  0  0  0  0  0  0  0  0
  187.5890  176.8180  144.0300 C   0  0  0  0  0  0  0  0  0  0  0  0
  190.0380  173.8740  140.0210 C   0  0  0  0  0  3  0  0  0  0  0  0
  187.2830  174.9750  142.3150 C   0  0  0  0  0  3  0  0  0  0  0  0
  188.7040  175.1580  141.9160 C   0  0  0  0  0  0  0  0  0  0  0  0
  190.8220  176.0980  142.4200 N   0  0  0  0  0  0  0  0  0  0  0  0
  188.8860  177.0570  143.6710 C   0  0  0  0  0  3  0  0  0  0  0  0
  186.7740  175.7220  143.3270 C   0  0  0  0  0  3  0  0  0  0  0  0
  189.5530  176.1580  142.6540 C   0  0  0  0  0  0  0  0  0  0  0  0
  191.9280  177.9530  143.3090 O   0  0  0  0  0  0  0  0  0  0  0  0
  192.0310  176.8050  142.8580 C   0  0  0  0  0  0  0  0  0  0  0  0
  193.3650  176.1610  142.6920 C   0  0  0  0  0  0  0  0  0  0  0  0
  194.9780  174.7420  141.6730 C   0  0  0  0  0  0  0  0  0  0  0  0
  195.6140  175.9270  143.6300 C   0  0  0  0  0  3  0  0  0  0  0  0
  193.7050  175.2860  141.6410 C   0  0  0  0  0  3  0  0  0  0  0  0
  194.3590  176.4240  143.6750 C   0  0  0  0  0  3  0  0  0  0  0  0
  195.9730  175.0940  142.5890 C   0  0  0  0  0  0  0  0  0  0  0  0
  195.9900  173.7000  139.6300 C   0  0  0  0  0  1  0  0  0  0  0  0
  195.0600  173.7100  140.7020 O   0  0  0  0  0  0  0  0  0  0  0  0
  197.3960  174.6020  142.8570 C   0  0  0  0  0  2  0  0  0  0  0  0
  197.5330  173.2030  142.9750 O   0  0  0  0  0  0  0  0  0  0  0  0
  197.7230  172.9460  144.3400 C   0  0  0  0  0  2  0  0  0  0  0  0
  197.3450  171.4890  144.6960 C   0  0  0  0  0  2  0  0  0  0  0  0
  196.2050  171.5040  145.5840 N   0  0  0  0  0  2  0  0  0  0  0  0
  193.8900  172.4300  145.5060 C   0  0  2  0  0  3  0  0  0  0  0  0
  195.3690  172.6590  145.3380 C   0  0  2  0  0  3  0  0  0  0  0  0
  194.4000  172.4090  144.2820 O   0  0  0  0  0  0  0  0  0  0  0  0
  193.1210  173.7110  145.7600 C   0  0  0  0  0  2  0  0  0  0  0  0
  191.8360  173.8110  144.8800 C   0  0  0  0  0  2  0  0  0  0  0  0
  190.4530  174.1370  145.5220 C   0  0  0  0  0  2  0  0  0  0  0  0
  190.5220  175.2210  146.6050 C   0  0  0  0  0  0  0  0  0  0  0  0
  191.1060  176.4320  146.2220 O   0  0  0  0  0  0  0  0  0  0  0  0
  189.8510  175.2290  147.6380 O   0  0  0  0  0  1  0  0  0  0  0  0
  190.8200  172.5300  139.9410 C   0  0  1  0  0  3  0  0  0  0  0  0
  192.8550  173.8110  137.7830 C   0  0  0  0  0  2  0  0  0  0  0  0
  191.1930  172.7350  135.8240 C   0  0  0  0  0  2  0  0  0  0  0  0
  192.0060  172.3370  138.4300 P   0  0  2  0  0  0  0  0  0  0  0  0
  193.5450  173.4470  136.4270 C   0  0  1  0  0  3  0  0  0  0  0  0
  191.3810  171.6250  136.8550 C   0  0  0  0  0  2  0  0  0  0  0  0
  193.1420  171.4520  138.8320 O   0  0  0  0  0  0  0  0  0  0  0  0
  192.5430  173.2110  135.3150 C   0  0  0  0  0  2  0  0  0  0  0  0
  195.1940  174.0600  134.7750 O   0  0  0  0  0  0  0  0  0  0  0  0
  195.1280  175.3610  136.6650 O   0  0  0  0  0  1  0  0  0  0  0  0
  194.6770  174.2560  135.9210 C   0  0  0  0  0  0  0  0  0  0  0  0
  191.5530  172.2420  141.3070 C   0  0  0  0  0  2  0  0  0  0  0  0
  191.9020  170.3240  143.5030 O   0  0  0  0  0  1  0  0  0  0  0  0
  189.4700  171.5360  143.2030 O   0  0  0  0  0  0  0  0  0  0  0  0
  190.8050  171.2250  142.6060 P   0  0  1  0  0  4  0  0  0  0  0  0
  186.8040  177.8210  144.8460 C   0  0  0  0  0  2  0  0  0  0  0  0
  184.5450  178.6370  145.7630 C   0  0  0  0  0  1  0  0  0  0  0  0
  185.2460  177.9160  144.6320 C   0  0  0  0  0  2  0  0  0  0  0  0
  1  5  2  0  0  0  0
  2 49  1  0  0  0  0
  3  1  2  0  0  0  0
  4  8  2  0  0  0  0
  5  4  1  0  0  0  0
  5  9  1  0  0  0  0
  6  9  2  0  0  0  0
  6 11  1  0  0  0  0
  7  2  2  0  0  0  0
  8  2  1  0  0  0  0
  9  7  1  0  0  0  0
 11 10  2  0  0  0  0
 12 11  1  0  0  0  0
 12 16  1  0  0  0  0
 13 17  2  0  0  0  0
 14 16  2  0  0  0  0
 15 13  1  0  0  0  0
 15 12  2  0  0  0  0
 17 20  1  0  0  0  0
 17 14  1  0  0  0  0
 18 19  1  0  0  0  0
 19 13  1  0  0  0  0
 20 21  1  0  0  0  0
 21 22  1  0  0  0  0
 22 23  1  0  0  0  0
 23 24  1  0  0  0  0
 25 28  1  6  0  0  0
 26 25  1  0  0  0  0
 26 24  1  1  0  0  0
 27 26  1  0  0  0  0
 27 25  1  0  0  0  0
 29 30  1  0  0  0  0
 29 28  1  0  0  0  0
 30 31  1  0  0  0  0
 31 33  1  0  0  0  0
 32 31  2  0  0  0  0
 34  3  1  1  0  0  0
 34 45  1  0  0  0  0
 35 37  1  0  0  0  0
 36 39  1  0  0  0  0
 37 40  2  1  0  0  0
 37 34  1  0  0  0  0
 38 44  1  6  0  0  0
 38 35  1  0  0  0  0
 39 37  1  0  0  0  0
 41 36  1  0  0  0  0
 41 38  1  0  0  0  0
 42 44  2  0  0  0  0
 44 43  1  0  0  0  0
 45 48  1  0  0  0  0
 48 47  2  1  0  0  0
 48 46  1  0  0  0  0
 51 49  1  0  0  0  0
 51 50  1  0  0  0  0
M  END
>  <MODEL>
7

>  <REMARK>
 VINA RESULT:      -5.3      3.437      7.207
  Name = 
  20 active torsions:
  status: ('A' for Active; 'I' for Inactive)
    1  A    between atoms: C_1  and  C_9
    2  A    between atoms: C_1  and  C_10
    3  A    between atoms: C_1  and  P_34
    4  A    between atoms: C_4  and  C_28
    5  A    between atoms: C_6  and  N_38
    6  A    between atoms: C_6  and  C_39
    7  A    between atoms: C_7  and  C_17
    8  A    between atoms: C_7  and  C_18
    9  A    between atoms: C_8  and  C_32
   10  A    between atoms: C_10  and  P_49
   11  A    between atoms: C_15  and  C_32
   12  A    between atoms: C_16  and  O_27
   13  A    between atoms: C_17  and  C_36
   14  A    between atoms: N_23  and  C_28
   15  A    between atoms: C_26  and  O_29
   16  A    between atoms: C_26  and  C_50
   17  A    between atoms: O_29  and  C_39
   18  A    between atoms: C_31  and  N_38
   19  A    between atoms: C_33  and  C_42
   20  A    between atoms: C_36  and  C_37
                            x       y       z     vdW  Elec       q    Type
                         _______ _______ _______ _____ _____    ______ ____

>  <TORSDO>
F 20

$$$$
=
 OpenBabel11042413573D

 51 54  0  0  1  0  0  0  0  0999 V2000
  193.9750  172.9210  144.0910 C   0  0  0  0  0  0  0  0  0  0  0  0
  191.8540  175.4160  146.7920 C   0  0  0  0  0  0  0  0  0  0  0  0
  194.4010  172.0190  143.2260 C   0  0  0  0  0  3  0  0  0  0  0  0
  194.0950  174.5880  145.9410 C   0  0  0  0  0  3  0  0  0  0  0  0
  193.3690  173.7170  144.9790 C   0  0  0  0  0  0  0  0  0  0  0  0
  191.3180  173.1780  143.9170 N   0  0  0  0  0  0  0  0  0  0  0  0
  191.1380  174.6020  145.9600 C   0  0  0  0  0  3  0  0  0  0  0  0
  193.3900  175.4090  146.7590 C   0  0  0  0  0  3  0  0  0  0  0  0
  191.8660  173.7750  144.9230 C   0  0  0  0  0  0  0  0  0  0  0  0
  189.4080  171.8640  143.6390 O   0  0  0  0  0  0  0  0  0  0  0  0
  189.9600  172.9480  143.4110 C   0  0  0  0  0  0  0  0  0  0  0  0
  189.2950  173.9900  142.5790 C   0  0  0  0  0  0  0  0  0  0  0  0
  188.3110  174.8950  140.6130 C   0  0  0  0  0  0  0  0  0  0  0  0
  188.4880  176.3010  142.5180 C   0  0  0  0  0  3  0  0  0  0  0  0
  188.8670  173.7980  141.2500 C   0  0  0  0  0  3  0  0  0  0  0  0
  189.1000  175.2770  143.1520 C   0  0  0  0  0  3  0  0  0  0  0  0
  188.0340  176.1190  141.2270 C   0  0  0  0  0  0  0  0  0  0  0  0
  187.4430  175.4040  138.3170 C   0  0  0  0  0  1  0  0  0  0  0  0
  188.1730  174.6010  139.2310 O   0  0  0  0  0  0  0  0  0  0  0  0
  187.4930  177.4610  140.7310 C   0  0  0  0  0  2  0  0  0  0  0  0
  186.1030  177.4930  140.4890 O   0  0  0  0  0  0  0  0  0  0  0  0
  185.5420  178.2210  141.5470 C   0  0  0  0  0  2  0  0  0  0  0  0
  184.0010  178.2880  141.4280 C   0  0  0  0  0  2  0  0  0  0  0  0
  183.4260  178.2480  142.7540 N   0  0  0  0  0  2  0  0  0  0  0  0
  184.6460  178.3680  144.9250 C   0  0  2  0  0  3  0  0  0  0  0  0
  184.1830  179.0660  143.6750 C   0  0  2  0  0  3  0  0  0  0  0  0
  183.5570  179.1230  144.9860 O   0  0  0  0  0  0  0  0  0  0  0  0
  185.8290  179.0520  145.5800 C   0  0  0  0  0  2  0  0  0  0  0  0
  186.0990  178.5140  147.0200 C   0  0  0  0  0  2  0  0  0  0  0  0
  186.4000  177.0030  147.2610 C   0  0  0  0  0  2  0  0  0  0  0  0
  187.8290  176.5950  146.8820 C   0  0  0  0  0  0  0  0  0  0  0  0
  188.1800  175.2700  147.1560 O   0  0  0  0  0  1  0  0  0  0  0  0
  188.5550  177.2120  146.1030 O   0  0  0  0  0  0  0  0  0  0  0  0
  194.9510  172.1330  141.7740 C   0  0  1  0  0  3  0  0  0  0  0  0
  192.2120  171.9630  140.0700 C   0  0  0  0  0  2  0  0  0  0  0  0
  192.0340  169.3200  140.9300 C   0  0  0  0  0  2  0  0  0  0  0  0
  193.8750  171.3060  140.4020 P   0  0  2  0  0  0  0  0  0  0  0  0
  191.4570  170.9830  139.1120 C   0  0  1  0  0  3  0  0  0  0  0  0
  193.4850  169.5120  140.4950 C   0  0  0  0  0  2  0  0  0  0  0  0
  194.5680  171.4830  139.0870 O   0  0  0  0  0  0  0  0  0  0  0  0
  191.0940  169.6780  139.7910 C   0  0  0  0  0  2  0  0  0  0  0  0
  190.4220  171.6880  137.0490 O   0  0  0  0  0  0  0  0  0  0  0  0
  189.0390  171.5490  138.8760 O   0  0  0  0  0  1  0  0  0  0  0  0
  190.3170  171.4590  138.2960 C   0  0  0  0  0  0  0  0  0  0  0  0
  195.2880  173.6350  141.4330 C   0  0  0  0  0  2  0  0  0  0  0  0
  193.4900  175.8890  141.9900 O   0  0  0  0  0  1  0  0  0  0  0  0
  193.8680  175.1330  139.3900 O   0  0  0  0  0  0  0  0  0  0  0  0
  194.0290  174.7940  140.8370 P   0  0  1  0  0  4  0  0  0  0  0  0
  191.2100  176.0690  147.9950 C   0  0  0  0  0  2  0  0  0  0  0  0
  190.7980  178.3400  149.1270 C   0  0  0  0  0  1  0  0  0  0  0  0
  191.8390  177.3970  148.5630 C   0  0  0  0  0  2  0  0  0  0  0  0
  1  5  2  0  0  0  0
  2 49  1  0  0  0  0
  3  1  2  0  0  0  0
  4  8  2  0  0  0  0
  5  4  1  0  0  0  0
  6  9  2  0  0  0  0
  7  2  2  0  0  0  0
  8  2  1  0  0  0  0
  9  5  1  0  0  0  0
  9  7  1  0  0  0  0
 11 10  2  0  0  0  0
 11  6  1  0  0  0  0
 12 16  1  0  0  0  0
 12 11  1  0  0  0  0
 13 17  2  0  0  0  0
 13 15  1  0  0  0  0
 14 16  2  0  0  0  0
 15 12  2  0  0  0  0
 17 14  1  0  0  0  0
 18 19  1  0  0  0  0
 19 13  1  0  0  0  0
 20 17  1  0  0  0  0
 21 20  1  0  0  0  0
 21 22  1  0  0  0  0
 23 22  1  0  0  0  0
 23 24  1  0  0  0  0
 25 27  1  0  0  0  0
 25 28  1  1  0  0  0
 26 24  1  6  0  0  0
 26 25  1  0  0  0  0
 26 27  1  0  0  0  0
 28 29  1  0  0  0  0
 29 30  1  0  0  0  0
 31 32  1  0  0  0  0
 31 30  1  0  0  0  0
 33 31  2  0  0  0  0
 34 45  1  6  0  0  0
 34  3  1  0  0  0  0
 35 37  1  0  0  0  0
 37 40  2  6  0  0  0
 37 39  1  0  0  0  0
 37 34  1  0  0  0  0
 38 44  1  1  0  0  0
 38 41  1  0  0  0  0
 38 35  1  0  0  0  0
 39 36  1  0  0  0  0
 41 36  1  0  0  0  0
 42 44  2  0  0  0  0
 44 43  1  0  0  0  0
 48 47  2  6  0  0  0
 48 45  1  0  0  0  0
 48 46  1  0  0  0  0
 49 51  1  0  0  0  0
 51 50  1  0  0  0  0
M  END
>  <MODEL>
8

>  <REMARK>
 VINA RESULT:      -5.2      3.361      9.761
  Name = 
  20 active torsions:
  status: ('A' for Active; 'I' for Inactive)
    1  A    between atoms: C_1  and  C_9
    2  A    between atoms: C_1  and  C_10
    3  A    between atoms: C_1  and  P_34
    4  A    between atoms: C_4  and  C_28
    5  A    between atoms: C_6  and  N_38
    6  A    between atoms: C_6  and  C_39
    7  A    between atoms: C_7  and  C_17
    8  A    between atoms: C_7  and  C_18
    9  A    between atoms: C_8  and  C_32
   10  A    between atoms: C_10  and  P_49
   11  A    between atoms: C_15  and  C_32
   12  A    between atoms: C_16  and  O_27
   13  A    between atoms: C_17  and  C_36
   14  A    between atoms: N_23  and  C_28
   15  A    between atoms: C_26  and  O_29
   16  A    between atoms: C_26  and  C_50
   17  A    between atoms: O_29  and  C_39
   18  A    between atoms: C_31  and  N_38
   19  A    between atoms: C_33  and  C_42
   20  A    between atoms: C_36  and  C_37
                            x       y       z     vdW  Elec       q    Type
                         _______ _______ _______ _____ _____    ______ ____

>  <TORSDO>
F 20

$$$$
=
 OpenBabel11042413573D

 51 54  0  0  1  0  0  0  0  0999 V2000
  188.7490  174.0000  141.3270 C   0  0  0  0  0  0  0  0  0  0  0  0
  189.6200  172.3100  137.5310 C   0  0  0  0  0  0  0  0  0  0  0  0
  188.5420  174.2840  142.5990 C   0  0  0  0  0  3  0  0  0  0  0  0
  188.5080  174.1690  138.8500 C   0  0  0  0  0  3  0  0  0  0  0  0
  188.9740  173.5120  140.1010 C   0  0  0  0  0  0  0  0  0  0  0  0
  190.3810  171.8920  141.1100 N   0  0  0  0  0  0  0  0  0  0  0  0
  190.0320  171.6430  138.6500 C   0  0  0  0  0  3  0  0  0  0  0  0
  188.8420  173.6300  137.6510 C   0  0  0  0  0  3  0  0  0  0  0  0
  189.8190  172.2710  140.0100 C   0  0  0  0  0  0  0  0  0  0  0  0
  190.7630  169.7570  141.9750 O   0  0  0  0  0  0  0  0  0  0  0  0
  191.2640  170.8050  141.5480 C   0  0  0  0  0  0  0  0  0  0  0  0
  192.7410  171.0020  141.5350 C   0  0  0  0  0  0  0  0  0  0  0  0
  194.9380  171.0010  142.4450 C   0  0  0  0  0  0  0  0  0  0  0  0
  194.6570  171.7520  140.2100 C   0  0  0  0  0  3  0  0  0  0  0  0
  193.5960  170.7080  142.6170 C   0  0  0  0  0  3  0  0  0  0  0  0
  193.3310  171.5480  140.3630 C   0  0  0  0  0  3  0  0  0  0  0  0
  195.5120  171.4390  141.2490 C   0  0  0  0  0  0  0  0  0  0  0  0
  196.3790  169.7610  144.0800 C   0  0  0  0  0  1  0  0  0  0  0  0
  195.5970  170.8820  143.6970 O   0  0  0  0  0  0  0  0  0  0  0  0
  196.9200  171.8740  140.8400 C   0  0  0  0  0  2  0  0  0  0  0  0
  197.0260  172.4060  139.5370 O   0  0  0  0  0  0  0  0  0  0  0  0
  197.8640  173.5250  139.6430 C   0  0  0  0  0  2  0  0  0  0  0  0
  197.2250  174.7680  138.9780 C   0  0  0  0  0  2  0  0  0  0  0  0
  196.7480  175.6580  140.0120 N   0  0  0  0  0  2  0  0  0  0  0  0
  194.9120  176.0500  141.6540 C   0  0  2  0  0  3  0  0  0  0  0  0
  195.4840  175.2030  140.5480 C   0  0  2  0  0  3  0  0  0  0  0  0
  195.5660  174.9420  141.9770 O   0  0  0  0  0  0  0  0  0  0  0  0
  193.4150  175.8730  141.8180 C   0  0  0  0  0  2  0  0  0  0  0  0
  193.0260  175.4650  143.2730 C   0  0  0  0  0  2  0  0  0  0  0  0
  192.9250  176.5360  144.4010 C   0  0  0  0  0  2  0  0  0  0  0  0
  194.0540  176.4460  145.4350 C   0  0  0  0  0  0  0  0  0  0  0  0
  195.3490  176.6320  144.9440 O   0  0  0  0  0  0  0  0  0  0  0  0
  193.9030  176.5390  146.6530 O   0  0  0  0  0  1  0  0  0  0  0  0
  189.2310  175.2760  143.5810 C   0  0  1  0  0  3  0  0  0  0  0  0
  186.9440  176.9010  145.1820 C   0  0  0  0  0  2  0  0  0  0  0  0
  185.8950  177.5570  142.6860 C   0  0  0  0  0  2  0  0  0  0  0  0
  188.2690  176.9110  143.9350 P   0  0  2  0  0  0  0  0  0  0  0  0
  186.1610  178.2530  145.1050 C   0  0  1  0  0  3  0  0  0  0  0  0
  187.4010  177.7820  142.5700 C   0  0  0  0  0  2  0  0  0  0  0  0
  189.2310  177.9150  144.4860 O   0  0  0  0  0  0  0  0  0  0  0  0
  185.3330  178.3690  143.8410 C   0  0  0  0  0  2  0  0  0  0  0  0
  185.9140  179.3510  147.2400 O   0  0  0  0  0  1  0  0  0  0  0  0
  183.9750  178.6250  146.2490 O   0  0  0  0  0  0  0  0  0  0  0  0
  185.3780  178.7340  146.2650 C   0  0  0  0  0  0  0  0  0  0  0  0
  189.6410  174.5330  144.9100 C   0  0  0  0  0  2  0  0  0  0  0  0
  188.9670  174.4970  147.7680 O   0  0  0  0  0  1  0  0  0  0  0  0
  190.6460  176.4480  146.8480 O   0  0  0  0  0  0  0  0  0  0  0  0
  189.6620  175.3720  146.5150 P   0  0  1  0  0  4  0  0  0  0  0  0
  189.5830  171.6290  136.1810 C   0  0  0  0  0  2  0  0  0  0  0  0
  191.1480  170.3610  134.5840 C   0  0  0  0  0  1  0  0  0  0  0  0
  190.4900  170.3630  135.9470 C   0  0  0  0  0  2  0  0  0  0  0  0
  1  3  2  0  0  0  0
  2  8  1  0  0  0  0
  2  7  2  0  0  0  0
  4  5  1  0  0  0  0
  5  1  2  0  0  0  0
  6 11  1  0  0  0  0
  7  9  1  0  0  0  0
  8  4  2  0  0  0  0
  9  5  1  0  0  0  0
  9  6  2  0  0  0  0
 11 10  2  0  0  0  0
 12 11  1  0  0  0  0
 12 15  1  0  0  0  0
 13 15  2  0  0  0  0
 13 19  1  0  0  0  0
 14 16  1  0  0  0  0
 14 17  2  0  0  0  0
 16 12  2  0  0  0  0
 17 13  1  0  0  0  0
 19 18  1  0  0  0  0
 20 17  1  0  0  0  0
 21 22  1  0  0  0  0
 21 20  1  0  0  0  0
 23 22  1  0  0  0  0
 23 24  1  0  0  0  0
 25 28  1  6  0  0  0
 25 27  1  0  0  0  0
 26 24  1  1  0  0  0
 26 25  1  0  0  0  0
 26 27  1  0  0  0  0
 28 29  1  0  0  0  0
 29 30  1  0  0  0  0
 30 31  1  0  0  0  0
 31 33  1  0  0  0  0
 32 31  2  0  0  0  0
 34  3  1  6  0  0  0
 34 37  1  0  0  0  0
 34 45  1  0  0  0  0
 36 41  1  0  0  0  0
 37 40  2  1  0  0  0
 37 35  1  0  0  0  0
 38 35  1  0  0  0  0
 38 44  1  1  0  0  0
 39 36  1  0  0  0  0
 39 37  1  0  0  0  0
 41 38  1  0  0  0  0
 43 44  2  0  0  0  0
 44 42  1  0  0  0  0
 45 48  1  0  0  0  0
 48 47  2  1  0  0  0
 48 46  1  0  0  0  0
 49  2  1  0  0  0  0
 50 51  1  0  0  0  0
 51 49  1  0  0  0  0
M  END
>  <MODEL>
9

>  <REMARK>
 VINA RESULT:      -5.1      2.803      5.580
  Name = 
  20 active torsions:
  status: ('A' for Active; 'I' for Inactive)
    1  A    between atoms: C_1  and  C_9
    2  A    between atoms: C_1  and  C_10
    3  A    between atoms: C_1  and  P_34
    4  A    between atoms: C_4  and  C_28
    5  A    between atoms: C_6  and  N_38
    6  A    between atoms: C_6  and  C_39
    7  A    between atoms: C_7  and  C_17
    8  A    between atoms: C_7  and  C_18
    9  A    between atoms: C_8  and  C_32
   10  A    between atoms: C_10  and  P_49
   11  A    between atoms: C_15  and  C_32
   12  A    between atoms: C_16  and  O_27
   13  A    between atoms: C_17  and  C_36
   14  A    between atoms: N_23  and  C_28
   15  A    between atoms: C_26  and  O_29
   16  A    between atoms: C_26  and  C_50
   17  A    between atoms: O_29  and  C_39
   18  A    between atoms: C_31  and  N_38
   19  A    between atoms: C_33  and  C_42
   20  A    between atoms: C_36  and  C_37
                            x       y       z     vdW  Elec       q    Type
                         _______ _______ _______ _____ _____    ______ ____

>  <TORSDO>
F 20

$$$$
