=
 OpenBabel11042415113D

 27 30  0  0  1  0  0  0  0  0999 V2000
  188.3030  176.2250  143.6280 N   0  0  0  0  0  0  0  0  0  0  0  0
  187.4780  176.7500  141.3470 C   0  0  0  0  0  3  0  0  0  0  0  0
  186.5180  177.2780  140.4860 C   0  0  0  0  0  0  0  0  0  0  0  0
  187.1830  177.2820  145.5140 C   0  0  1  0  0  3  0  0  0  0  0  0
  185.1090  178.5860  147.7060 C   0  0  0  0  0  2  0  0  0  0  0  0
  184.2710  178.0230  146.5540 C   0  0  0  0  0  2  0  0  0  0  0  0
  187.2790  176.7540  142.7410 C   0  0  0  0  0  0  0  0  0  0  0  0
  187.9830  176.0670  145.0560 C   0  0  0  0  0  2  0  0  0  0  0  0
  185.8410  177.3000  144.7500 C   0  0  2  0  0  3  0  0  0  0  0  0
  186.1030  177.3400  143.2610 C   0  0  0  0  0  0  0  0  0  0  0  0
  186.7140  177.2200  139.0150 C   0  0  0  0  0  1  0  0  0  0  0  0
  185.1430  177.8720  142.3880 C   0  0  0  0  0  3  0  0  0  0  0  0
  186.5450  178.6400  147.4090 N   0  0  0  0  0  2  0  0  0  0  0  0
  187.0240  177.3120  147.0350 C   0  0  0  0  0  2  0  0  0  0  0  0
  184.8620  178.3970  145.2020 C   0  0  0  0  0  2  0  0  0  0  0  0
  185.3590  177.8670  141.0060 C   0  0  0  0  0  3  0  0  0  0  0  0
  189.2830  174.0230  143.2910 C   0  0  0  0  0  0  0  0  0  0  0  0
  189.8910  173.4030  144.4800 C   0  0  0  0  0  0  0  0  0  0  0  0
  191.3770  175.3050  144.6510 C   0  0  0  0  0  0  0  0  0  0  0  0
  189.4600  175.5020  143.0750 C   0  0  2  0  0  3  0  0  0  0  0  0
  188.6090  173.3370  142.4780 O   0  0  0  0  0  0  0  0  0  0  0  0
  190.7580  175.9870  143.6750 C   0  0  0  0  0  3  0  0  0  0  0  0
  190.8600  174.0250  145.0870 N   0  0  0  0  0  0  0  0  0  0  0  0
  189.5090  172.1650  144.8970 F   0  0  0  0  0  0  0  0  0  0  0  0
  192.6410  175.8400  145.2780 C   0  0  1  0  0  3  0  0  0  0  0  0
  192.8990  177.1280  144.7920 O   0  0  0  0  0  1  0  0  0  0  0  0
  192.5350  175.9000  146.7960 C   0  0  0  0  0  1  0  0  0  0  0  0
  1  8  1  0  0  0  0
  2  7  1  0  0  0  0
  3 16  1  0  0  0  0
  3  2  2  0  0  0  0
  4  8  1  1  0  0  0
  4 14  1  0  0  0  0
  6  5  1  0  0  0  0
  7 10  2  0  0  0  0
  7  1  1  0  0  0  0
  9 15  1  1  0  0  0
  9  4  1  0  0  0  0
 10  9  1  0  0  0  0
 11  3  1  0  0  0  0
 12 10  1  0  0  0  0
 13  5  1  0  0  0  0
 14 13  1  0  0  0  0
 15  6  1  0  0  0  0
 16 12  2  0  0  0  0
 17 18  1  0  0  0  0
 18 24  1  0  0  0  0
 18 23  2  0  0  0  0
 19 23  1  0  0  0  0
 19 25  1  0  0  0  0
 20 17  1  0  0  0  0
 20  1  1  1  0  0  0
 20 22  1  0  0  0  0
 21 17  2  0  0  0  0
 22 19  2  0  0  0  0
 25 27  1  1  0  0  0
 26 25  1  0  0  0  0
M  END
>  <MODEL>
1

>  <REMARK>
 VINA RESULT:      -8.1      0.000      0.000
  Name = 
  2 active torsions:
  status: ('A' for Active; 'I' for Inactive)
    1  A    between atoms: N_1  and  C_17
    2  A    between atoms: C_4  and  C_16
                            x       y       z     vdW  Elec       q    Type
                         _______ _______ _______ _____ _____    ______ ____

>  <TORSDO>
F 2

$$$$
=
 OpenBabel11042415113D

 27 30  0  0  1  0  0  0  0  0999 V2000
  188.6760  176.5400  144.7840 N   0  0  0  0  0  0  0  0  0  0  0  0
  190.1480  176.9720  146.7350 C   0  0  0  0  0  3  0  0  0  0  0  0
  191.1830  176.6010  147.5910 C   0  0  0  0  0  0  0  0  0  0  0  0
  189.3120  174.7550  143.2540 C   0  0  1  0  0  3  0  0  0  0  0  0
  190.3380  172.0150  141.7540 C   0  0  0  0  0  2  0  0  0  0  0  0
  190.4560  171.7880  143.2640 C   0  0  0  0  0  2  0  0  0  0  0  0
  189.7400  176.1260  145.6860 C   0  0  0  0  0  0  0  0  0  0  0  0
  188.1470  175.5560  143.8250 C   0  0  0  0  0  2  0  0  0  0  0  0
  189.9650  173.9570  144.4030 C   0  0  2  0  0  3  0  0  0  0  0  0
  190.4260  174.9070  145.4860 C   0  0  0  0  0  0  0  0  0  0  0  0
  191.5680  177.4770  148.7280 C   0  0  0  0  0  1  0  0  0  0  0  0
  191.4700  174.5440  146.3490 C   0  0  0  0  0  3  0  0  0  0  0  0
  190.0780  173.4140  141.3940 N   0  0  0  0  0  2  0  0  0  0  0  0
  188.8740  173.8850  142.0740 C   0  0  0  0  0  2  0  0  0  0  0  0
  191.0780  172.9910  143.9600 C   0  0  0  0  0  2  0  0  0  0  0  0
  191.8670  175.3970  147.3830 C   0  0  0  0  0  3  0  0  0  0  0  0
  186.8400  177.4240  146.1120 C   0  0  0  0  0  0  0  0  0  0  0  0
  185.4880  177.0550  145.6630 C   0  0  0  0  0  0  0  0  0  0  0  0
  185.9640  178.0920  143.5310 C   0  0  0  0  0  0  0  0  0  0  0  0
  187.8840  177.7440  145.0760 C   0  0  2  0  0  3  0  0  0  0  0  0
  187.1280  177.4540  147.3380 O   0  0  0  0  0  0  0  0  0  0  0  0
  187.2540  178.3130  143.8280 C   0  0  0  0  0  3  0  0  0  0  0  0
  185.1140  177.3790  144.4590 N   0  0  0  0  0  0  0  0  0  0  0  0
  184.6090  176.4540  146.5120 F   0  0  0  0  0  0  0  0  0  0  0  0
  185.3710  178.6190  142.2470 C   0  0  1  0  0  3  0  0  0  0  0  0
  186.1320  178.1740  141.1590 O   0  0  0  0  0  1  0  0  0  0  0  0
  183.9320  178.1580  142.0610 C   0  0  0  0  0  1  0  0  0  0  0  0
  1 20  1  0  0  0  0
  1  7  1  0  0  0  0
  2  3  1  0  0  0  0
  3 11  1  0  0  0  0
  4 14  1  6  0  0  0
  4  8  1  0  0  0  0
  4  9  1  0  0  0  0
  5  6  1  0  0  0  0
  6 15  1  0  0  0  0
  7  2  2  0  0  0  0
  8  1  1  0  0  0  0
  9 15  1  6  0  0  0
  9 10  1  0  0  0  0
 10  7  1  0  0  0  0
 10 12  2  0  0  0  0
 12 16  1  0  0  0  0
 13  5  1  0  0  0  0
 13 14  1  0  0  0  0
 16  3  2  0  0  0  0
 17 21  2  0  0  0  0
 18 17  1  0  0  0  0
 18 24  1  0  0  0  0
 19 22  2  0  0  0  0
 19 23  1  0  0  0  0
 20 22  1  6  0  0  0
 20 17  1  0  0  0  0
 23 18  2  0  0  0  0
 25 27  1  6  0  0  0
 25 19  1  0  0  0  0
 26 25  1  0  0  0  0
M  END
>  <MODEL>
2

>  <REMARK>
 VINA RESULT:      -7.5      2.757      7.059
  Name = 
  2 active torsions:
  status: ('A' for Active; 'I' for Inactive)
    1  A    between atoms: N_1  and  C_17
    2  A    between atoms: C_4  and  C_16
                            x       y       z     vdW  Elec       q    Type
                         _______ _______ _______ _____ _____    ______ ____

>  <TORSDO>
F 2

$$$$
=
 OpenBabel11042415113D

 27 30  0  0  1  0  0  0  0  0999 V2000
  190.4110  175.8840  144.3210 N   0  0  0  0  0  0  0  0  0  0  0  0
  192.8620  176.2620  144.4230 C   0  0  0  0  0  3  0  0  0  0  0  0
  194.1530  176.0480  143.9430 C   0  0  0  0  0  0  0  0  0  0  0  0
  189.5000  174.8680  142.3050 C   0  0  1  0  0  3  0  0  0  0  0  0
  188.8220  173.1060  139.6140 C   0  0  0  0  0  2  0  0  0  0  0  0
  190.1150  172.5500  140.2170 C   0  0  0  0  0  2  0  0  0  0  0  0
  191.7550  175.6290  143.8260 C   0  0  0  0  0  0  0  0  0  0  0  0
  189.3040  175.0630  143.8050 C   0  0  0  0  0  2  0  0  0  0  0  0
  190.7990  174.0640  142.0830 C   0  0  2  0  0  3  0  0  0  0  0  0
  191.9660  174.8000  142.7020 C   0  0  0  0  0  0  0  0  0  0  0  0
  195.3180  176.6780  144.6140 C   0  0  0  0  0  1  0  0  0  0  0  0
  193.2680  174.5940  142.2220 C   0  0  0  0  0  3  0  0  0  0  0  0
  188.4050  174.3810  140.2060 N   0  0  0  0  0  2  0  0  0  0  0  0
  188.2690  174.2370  141.6530 C   0  0  0  0  0  2  0  0  0  0  0  0
  191.0650  173.6680  140.6200 C   0  0  0  0  0  2  0  0  0  0  0  0
  194.3570  175.2350  142.8210 C   0  0  0  0  0  3  0  0  0  0  0  0
  190.1280  175.6890  146.7300 C   0  0  0  0  0  0  0  0  0  0  0  0
  188.8010  175.2440  147.1860 C   0  0  0  0  0  0  0  0  0  0  0  0
  187.8300  177.1580  146.0690 C   0  0  0  0  0  0  0  0  0  0  0  0
  190.2130  176.6410  145.5680 C   0  0  2  0  0  3  0  0  0  0  0  0
  191.1770  175.2660  147.2860 O   0  0  0  0  0  0  0  0  0  0  0  0
  188.9880  177.5200  145.4960 C   0  0  0  0  0  3  0  0  0  0  0  0
  187.7560  175.9490  146.8610 N   0  0  0  0  0  0  0  0  0  0  0  0
  188.6670  174.1610  148.0000 F   0  0  0  0  0  0  0  0  0  0  0  0
  186.6020  178.0240  145.9330 C   0  0  1  0  0  3  0  0  0  0  0  0
  186.5880  178.6270  144.6690 O   0  0  0  0  0  1  0  0  0  0  0  0
  185.3220  177.2170  146.1050 C   0  0  0  0  0  1  0  0  0  0  0  0
  3  2  1  0  0  0  0
  3 11  1  0  0  0  0
  4 14  1  1  0  0  0
  4  8  1  0  0  0  0
  5 13  1  0  0  0  0
  5  6  1  0  0  0  0
  6 15  1  0  0  0  0
  7  1  1  0  0  0  0
  7  2  2  0  0  0  0
  8  1  1  0  0  0  0
  9 15  1  6  0  0  0
  9  4  1  0  0  0  0
  9 10  1  0  0  0  0
 10  7  1  0  0  0  0
 12 10  2  0  0  0  0
 12 16  1  0  0  0  0
 13 14  1  0  0  0  0
 16  3  2  0  0  0  0
 17 18  1  0  0  0  0
 17 21  2  0  0  0  0
 18 24  1  0  0  0  0
 19 23  1  0  0  0  0
 20  1  1  6  0  0  0
 20 17  1  0  0  0  0
 22 20  1  0  0  0  0
 22 19  2  0  0  0  0
 23 18  2  0  0  0  0
 25 19  1  0  0  0  0
 25 27  1  6  0  0  0
 26 25  1  0  0  0  0
M  END
>  <MODEL>
3

>  <REMARK>
 VINA RESULT:      -7.4      2.722      6.650
  Name = 
  2 active torsions:
  status: ('A' for Active; 'I' for Inactive)
    1  A    between atoms: N_1  and  C_17
    2  A    between atoms: C_4  and  C_16
                            x       y       z     vdW  Elec       q    Type
                         _______ _______ _______ _____ _____    ______ ____

>  <TORSDO>
F 2

$$$$
=
 OpenBabel11042415113D

 27 30  0  0  1  0  0  0  0  0999 V2000
  190.2160  176.0000  144.4110 N   0  0  0  0  0  0  0  0  0  0  0  0
  192.4490  176.6490  145.2800 C   0  0  0  0  0  3  0  0  0  0  0  0
  193.7890  176.3670  145.5380 C   0  0  0  0  0  0  0  0  0  0  0  0
  190.0720  174.0070  143.0200 C   0  0  1  0  0  3  0  0  0  0  0  0
  190.3230  171.0610  141.5830 C   0  0  0  0  0  2  0  0  0  0  0  0
  191.1930  171.0360  142.8420 C   0  0  0  0  0  2  0  0  0  0  0  0
  191.6050  175.6810  144.7000 C   0  0  0  0  0  0  0  0  0  0  0  0
  189.3190  174.9120  143.9890 C   0  0  0  0  0  2  0  0  0  0  0  0
  191.2490  173.3530  143.7770 C   0  0  2  0  0  3  0  0  0  0  0  0
  192.1490  174.4270  144.3440 C   0  0  0  0  0  0  0  0  0  0  0  0
  194.6550  177.3770  146.1990 C   0  0  0  0  0  1  0  0  0  0  0  0
  193.5010  174.1530  144.6040 C   0  0  0  0  0  3  0  0  0  0  0  0
  189.8570  172.4040  141.2230 N   0  0  0  0  0  2  0  0  0  0  0  0
  189.1390  172.9990  142.3470 C   0  0  0  0  0  2  0  0  0  0  0  0
  192.0280  172.3030  142.9660 C   0  0  0  0  0  2  0  0  0  0  0  0
  194.3270  175.1270  145.1740 C   0  0  0  0  0  3  0  0  0  0  0  0
  188.9940  177.0270  146.2480 C   0  0  0  0  0  0  0  0  0  0  0  0
  187.5560  176.7210  146.3120 C   0  0  0  0  0  0  0  0  0  0  0  0
  187.3070  177.6670  144.0990 C   0  0  0  0  0  0  0  0  0  0  0  0
  189.6270  177.2560  144.9020 C   0  0  2  0  0  3  0  0  0  0  0  0
  189.6920  177.0760  147.2960 O   0  0  0  0  0  0  0  0  0  0  0  0
  188.6270  177.8220  143.9220 C   0  0  0  0  0  3  0  0  0  0  0  0
  186.8020  177.0310  145.2980 N   0  0  0  0  0  0  0  0  0  0  0  0
  187.0010  176.1970  147.4400 F   0  0  0  0  0  0  0  0  0  0  0  0
  186.3280  178.1880  143.0760 C   0  0  1  0  0  3  0  0  0  0  0  0
  185.4190  177.1780  142.7360 O   0  0  0  0  0  1  0  0  0  0  0  0
  185.5540  179.3900  143.5980 C   0  0  0  0  0  1  0  0  0  0  0  0
  1  7  1  0  0  0  0
  1 20  1  0  0  0  0
  2  3  1  0  0  0  0
  3 11  1  0  0  0  0
  4 14  1  1  0  0  0
  4  9  1  0  0  0  0
  4  8  1  0  0  0  0
  5  6  1  0  0  0  0
  6 15  1  0  0  0  0
  7  2  2  0  0  0  0
  8  1  1  0  0  0  0
  9 15  1  6  0  0  0
  9 10  1  0  0  0  0
 10 12  2  0  0  0  0
 10  7  1  0  0  0  0
 12 16  1  0  0  0  0
 13  5  1  0  0  0  0
 13 14  1  0  0  0  0
 16  3  2  0  0  0  0
 17 18  1  0  0  0  0
 17 21  2  0  0  0  0
 18 24  1  0  0  0  0
 19 23  1  0  0  0  0
 20 22  1  6  0  0  0
 20 17  1  0  0  0  0
 22 19  2  0  0  0  0
 23 18  2  0  0  0  0
 25 27  1  1  0  0  0
 25 19  1  0  0  0  0
 26 25  1  0  0  0  0
M  END
>  <MODEL>
4

>  <REMARK>
 VINA RESULT:      -7.2      2.542      7.162
  Name = 
  2 active torsions:
  status: ('A' for Active; 'I' for Inactive)
    1  A    between atoms: N_1  and  C_17
    2  A    between atoms: C_4  and  C_16
                            x       y       z     vdW  Elec       q    Type
                         _______ _______ _______ _____ _____    ______ ____

>  <TORSDO>
F 2

$$$$
=
 OpenBabel11042415113D

 27 30  0  0  1  0  0  0  0  0999 V2000
  188.2650  175.9040  143.2810 N   0  0  0  0  0  0  0  0  0  0  0  0
  188.2740  174.3310  141.3610 C   0  0  0  0  0  3  0  0  0  0  0  0
  188.9470  173.5260  140.4440 C   0  0  0  0  0  0  0  0  0  0  0  0
  190.3140  176.1300  144.5760 C   0  0  1  0  0  3  0  0  0  0  0  0
  193.3840  176.4050  145.7200 C   0  0  0  0  0  2  0  0  0  0  0  0
  193.4640  176.3500  144.1920 C   0  0  0  0  0  2  0  0  0  0  0  0
  188.9830  175.0900  142.3130 C   0  0  0  0  0  0  0  0  0  0  0  0
  189.0350  176.8280  144.1290 C   0  0  0  0  0  2  0  0  0  0  0  0
  191.1750  175.8420  143.3260 C   0  0  2  0  0  3  0  0  0  0  0  0
  190.3910  174.9910  142.3530 C   0  0  0  0  0  0  0  0  0  0  0  0
  188.1920  172.7730  139.4100 C   0  0  0  0  0  1  0  0  0  0  0  0
  191.0600  174.1740  141.4290 C   0  0  0  0  0  3  0  0  0  0  0  0
  192.0590  176.0590  146.2470 N   0  0  0  0  0  2  0  0  0  0  0  0
  191.0460  176.9290  145.6550 C   0  0  0  0  0  2  0  0  0  0  0  0
  192.5660  175.2570  143.6280 C   0  0  0  0  0  2  0  0  0  0  0  0
  190.3420  173.4220  140.4940 C   0  0  0  0  0  3  0  0  0  0  0  0
  186.5410  177.4150  142.4630 C   0  0  0  0  0  0  0  0  0  0  0  0
  186.2890  178.6070  143.2880 C   0  0  0  0  0  0  0  0  0  0  0  0
  185.7500  177.1490  145.1420 C   0  0  0  0  0  0  0  0  0  0  0  0
  186.8120  176.1030  143.1490 C   0  0  2  0  0  3  0  0  0  0  0  0
  186.5510  177.4900  141.2050 O   0  0  0  0  0  0  0  0  0  0  0  0
  186.1180  176.0370  144.4880 C   0  0  0  0  0  3  0  0  0  0  0  0
  185.9240  178.4480  144.5280 N   0  0  0  0  0  0  0  0  0  0  0  0
  186.3550  179.8560  142.7520 F   0  0  0  0  0  0  0  0  0  0  0  0
  185.1130  177.0610  146.5070 C   0  0  1  0  0  3  0  0  0  0  0  0
  186.0970  176.8080  147.4710 O   0  0  0  0  0  1  0  0  0  0  0  0
  184.3870  178.3490  146.8730 C   0  0  0  0  0  1  0  0  0  0  0  0
  1  8  1  0  0  0  0
  2  7  1  0  0  0  0
  3 16  1  0  0  0  0
  3  2  2  0  0  0  0
  4  8  1  6  0  0  0
  4 14  1  0  0  0  0
  5 13  1  0  0  0  0
  6  5  1  0  0  0  0
  7 10  2  0  0  0  0
  7  1  1  0  0  0  0
  9 15  1  1  0  0  0
  9  4  1  0  0  0  0
 10  9  1  0  0  0  0
 11  3  1  0  0  0  0
 12 10  1  0  0  0  0
 14 13  1  0  0  0  0
 15  6  1  0  0  0  0
 16 12  2  0  0  0  0
 17 20  1  0  0  0  0
 17 18  1  0  0  0  0
 18 23  2  0  0  0  0
 19 25  1  0  0  0  0
 20  1  1  1  0  0  0
 20 22  1  0  0  0  0
 21 17  2  0  0  0  0
 22 19  2  0  0  0  0
 23 19  1  0  0  0  0
 24 18  1  0  0  0  0
 25 27  1  1  0  0  0
 25 26  1  0  0  0  0
M  END
>  <MODEL>
5

>  <REMARK>
 VINA RESULT:      -7.1      2.893      6.000
  Name = 
  2 active torsions:
  status: ('A' for Active; 'I' for Inactive)
    1  A    between atoms: N_1  and  C_17
    2  A    between atoms: C_4  and  C_16
                            x       y       z     vdW  Elec       q    Type
                         _______ _______ _______ _____ _____    ______ ____

>  <TORSDO>
F 2

$$$$
=
 OpenBabel11042415113D

 27 30  0  0  1  0  0  0  0  0999 V2000
  188.7620  176.8370  144.0710 N   0  0  0  0  0  0  0  0  0  0  0  0
  190.8370  176.3600  145.3480 C   0  0  0  0  0  3  0  0  0  0  0  0
  191.5740  176.3710  146.5300 C   0  0  0  0  0  0  0  0  0  0  0  0
  186.7440  177.3530  145.3330 C   0  0  1  0  0  3  0  0  0  0  0  0
  184.4410  178.4020  147.4320 C   0  0  0  0  0  2  0  0  0  0  0  0
  185.7750  179.0200  147.8620 C   0  0  0  0  0  2  0  0  0  0  0  0
  189.5290  176.8810  145.3070 C   0  0  0  0  0  0  0  0  0  0  0  0
  187.4810  177.5600  144.0140 C   0  0  0  0  0  2  0  0  0  0  0  0
  187.5760  177.9980  146.4630 C   0  0  2  0  0  3  0  0  0  0  0  0
  188.9550  177.3800  146.4970 C   0  0  0  0  0  0  0  0  0  0  0  0
  192.9720  175.8690  146.5480 C   0  0  0  0  0  1  0  0  0  0  0  0
  189.7030  177.3830  147.6850 C   0  0  0  0  0  3  0  0  0  0  0  0
  184.5870  177.3460  146.4240 N   0  0  0  0  0  2  0  0  0  0  0  0
  185.3050  177.8640  145.2620 C   0  0  0  0  0  2  0  0  0  0  0  0
  186.8960  177.9900  147.8430 C   0  0  0  0  0  2  0  0  0  0  0  0
  190.9980  176.8560  147.7100 C   0  0  0  0  0  3  0  0  0  0  0  0
  188.6860  177.0630  141.6500 C   0  0  0  0  0  0  0  0  0  0  0  0
  187.6400  176.2860  140.9660 C   0  0  0  0  0  0  0  0  0  0  0  0
  188.5970  174.2690  141.9000 C   0  0  0  0  0  0  0  0  0  0  0  0
  189.4090  176.4380  142.8110 C   0  0  2  0  0  3  0  0  0  0  0  0
  188.9590  178.2380  141.2870 O   0  0  0  0  0  0  0  0  0  0  0  0
  189.4700  174.9360  142.6690 C   0  0  0  0  0  3  0  0  0  0  0  0
  187.6270  174.9910  141.1040 N   0  0  0  0  0  0  0  0  0  0  0  0
  186.7460  176.8920  140.1380 F   0  0  0  0  0  0  0  0  0  0  0  0
  188.6380  172.7630  141.8200 C   0  0  1  0  0  3  0  0  0  0  0  0
  189.3680  172.3710  140.6910 O   0  0  0  0  0  1  0  0  0  0  0  0
  189.2810  172.1510  143.0570 C   0  0  0  0  0  1  0  0  0  0  0  0
  1  7  1  0  0  0  0
  2  3  1  0  0  0  0
  3 11  1  0  0  0  0
  3 16  2  0  0  0  0
  4  8  1  6  0  0  0
  4  9  1  0  0  0  0
  5  6  1  0  0  0  0
  7  2  2  0  0  0  0
  7 10  1  0  0  0  0
  8  1  1  0  0  0  0
  9 10  1  0  0  0  0
  9 15  1  1  0  0  0
 10 12  2  0  0  0  0
 12 16  1  0  0  0  0
 13  5  1  0  0  0  0
 14  4  1  0  0  0  0
 14 13  1  0  0  0  0
 15  6  1  0  0  0  0
 17 20  1  0  0  0  0
 18 23  2  0  0  0  0
 18 17  1  0  0  0  0
 19 22  2  0  0  0  0
 20 22  1  6  0  0  0
 20  1  1  0  0  0  0
 21 17  2  0  0  0  0
 23 19  1  0  0  0  0
 24 18  1  0  0  0  0
 25 19  1  0  0  0  0
 25 27  1  1  0  0  0
 26 25  1  0  0  0  0
M  END
>  <MODEL>
6

>  <REMARK>
 VINA RESULT:      -6.9      2.402      5.013
  Name = 
  2 active torsions:
  status: ('A' for Active; 'I' for Inactive)
    1  A    between atoms: N_1  and  C_17
    2  A    between atoms: C_4  and  C_16
                            x       y       z     vdW  Elec       q    Type
                         _______ _______ _______ _____ _____    ______ ____

>  <TORSDO>
F 2

$$$$
=
 OpenBabel11042415113D

 27 30  0  0  1  0  0  0  0  0999 V2000
  189.1300  175.3000  143.5520 N   0  0  0  0  0  0  0  0  0  0  0  0
  187.8230  176.5180  145.2750 C   0  0  0  0  0  3  0  0  0  0  0  0
  187.7420  177.2400  146.4650 C   0  0  0  0  0  0  0  0  0  0  0  0
  191.5500  175.5630  143.5650 C   0  0  1  0  0  3  0  0  0  0  0  0
  194.7490  175.8850  144.2540 C   0  0  0  0  0  2  0  0  0  0  0  0
  194.0070  175.6940  145.5800 C   0  0  0  0  0  2  0  0  0  0  0  0
  189.0590  176.0280  144.8100 C   0  0  0  0  0  0  0  0  0  0  0  0
  190.3950  174.6390  143.1940 C   0  0  0  0  0  2  0  0  0  0  0  0
  191.5560  175.7470  145.0980 C   0  0  2  0  0  3  0  0  0  0  0  0
  190.2280  176.3150  145.5470 C   0  0  0  0  0  0  0  0  0  0  0  0
  186.4270  177.7050  146.9730 C   0  0  0  0  0  1  0  0  0  0  0  0
  190.1390  177.0460  146.7410 C   0  0  0  0  0  3  0  0  0  0  0  0
  193.8560  176.1380  143.1180 N   0  0  0  0  0  2  0  0  0  0  0  0
  192.8800  175.0570  143.0020 C   0  0  0  0  0  2  0  0  0  0  0  0
  192.7500  176.5500  145.6420 C   0  0  0  0  0  2  0  0  0  0  0  0
  188.9060  177.5310  147.1870 C   0  0  0  0  0  3  0  0  0  0  0  0
  188.1800  173.7200  141.9640 C   0  0  0  0  0  0  0  0  0  0  0  0
  188.4920  173.9680  140.5480 C   0  0  0  0  0  0  0  0  0  0  0  0
  187.4600  176.1470  140.7530 C   0  0  0  0  0  0  0  0  0  0  0  0
  187.8960  174.8950  142.8600 C   0  0  2  0  0  3  0  0  0  0  0  0
  188.1710  172.5490  142.4280 O   0  0  0  0  0  0  0  0  0  0  0  0
  187.2940  176.0390  142.0800 C   0  0  0  0  0  3  0  0  0  0  0  0
  188.1450  175.1050  140.0170 N   0  0  0  0  0  0  0  0  0  0  0  0
  189.0620  173.0020  139.7770 F   0  0  0  0  0  0  0  0  0  0  0  0
  186.9020  177.3310  140.0030 C   0  0  1  0  0  3  0  0  0  0  0  0
  186.4830  176.9270  138.7290 O   0  0  0  0  0  1  0  0  0  0  0  0
  185.7200  177.9540  140.7340 C   0  0  0  0  0  1  0  0  0  0  0  0
  1  7  1  0  0  0  0
  2  3  1  0  0  0  0
  3 11  1  0  0  0  0
  3 16  2  0  0  0  0
  4 14  1  1  0  0  0
  4  9  1  0  0  0  0
  5  6  1  0  0  0  0
  6 15  1  0  0  0  0
  7  2  2  0  0  0  0
  7 10  1  0  0  0  0
  8  1  1  0  0  0  0
  8  4  1  0  0  0  0
  9 10  1  0  0  0  0
  9 15  1  6  0  0  0
 10 12  2  0  0  0  0
 12 16  1  0  0  0  0
 13  5  1  0  0  0  0
 14 13  1  0  0  0  0
 17 21  2  0  0  0  0
 17 20  1  0  0  0  0
 18 17  1  0  0  0  0
 19 22  2  0  0  0  0
 20 22  1  6  0  0  0
 20  1  1  0  0  0  0
 23 18  2  0  0  0  0
 23 19  1  0  0  0  0
 24 18  1  0  0  0  0
 25 27  1  1  0  0  0
 25 19  1  0  0  0  0
 26 25  1  0  0  0  0
M  END
>  <MODEL>
7

>  <REMARK>
 VINA RESULT:      -6.8      2.435      6.354
  Name = 
  2 active torsions:
  status: ('A' for Active; 'I' for Inactive)
    1  A    between atoms: N_1  and  C_17
    2  A    between atoms: C_4  and  C_16
                            x       y       z     vdW  Elec       q    Type
                         _______ _______ _______ _____ _____    ______ ____

>  <TORSDO>
F 2

$$$$
=
 OpenBabel11042415113D

 27 30  0  0  1  0  0  0  0  0999 V2000
  189.0140  175.8280  143.9400 N   0  0  0  0  0  0  0  0  0  0  0  0
  191.1080  175.7700  145.2720 C   0  0  0  0  0  3  0  0  0  0  0  0
  191.8500  176.1180  146.3990 C   0  0  0  0  0  0  0  0  0  0  0  0
  186.9870  176.6070  145.0430 C   0  0  1  0  0  3  0  0  0  0  0  0
  184.6630  178.1160  146.8110 C   0  0  0  0  0  2  0  0  0  0  0  0
  185.9790  178.8640  147.0440 C   0  0  0  0  0  2  0  0  0  0  0  0
  189.7840  176.2240  145.1090 C   0  0  0  0  0  0  0  0  0  0  0  0
  187.7110  176.4730  143.7080 C   0  0  0  0  0  2  0  0  0  0  0  0
  187.8040  177.5550  145.9480 C   0  0  2  0  0  3  0  0  0  0  0  0
  189.2020  177.0080  146.1290 C   0  0  0  0  0  0  0  0  0  0  0  0
  193.2620  175.6790  146.5330 C   0  0  0  0  0  1  0  0  0  0  0  0
  189.9540  177.3500  147.2630 C   0  0  0  0  0  3  0  0  0  0  0  0
  184.8360  176.8320  146.1220 N   0  0  0  0  0  2  0  0  0  0  0  0
  185.5320  177.0390  144.8550 C   0  0  0  0  0  2  0  0  0  0  0  0
  187.1300  177.8980  147.2880 C   0  0  0  0  0  2  0  0  0  0  0  0
  191.2650  176.8870  147.4120 C   0  0  0  0  0  3  0  0  0  0  0  0
  188.6230  174.5440  141.9110 C   0  0  0  0  0  0  0  0  0  0  0  0
  188.2070  173.1450  142.1070 C   0  0  0  0  0  0  0  0  0  0  0  0
  190.2580  172.7590  143.3310 C   0  0  0  0  0  0  0  0  0  0  0  0
  189.6670  175.1230  142.8260 C   0  0  2  0  0  3  0  0  0  0  0  0
  188.1020  175.2520  141.0090 O   0  0  0  0  0  0  0  0  0  0  0  0
  190.6100  174.0530  143.3210 C   0  0  0  0  0  3  0  0  0  0  0  0
  188.9890  172.3440  142.7710 N   0  0  0  0  0  0  0  0  0  0  0  0
  187.0660  172.6690  141.5400 F   0  0  0  0  0  0  0  0  0  0  0  0
  191.1930  171.7130  143.8870 C   0  0  1  0  0  3  0  0  0  0  0  0
  191.5850  170.8400  142.8640 O   0  0  0  0  0  1  0  0  0  0  0  0
  192.4380  172.3400  144.5010 C   0  0  0  0  0  1  0  0  0  0  0  0
  1  7  1  0  0  0  0
  2  3  1  0  0  0  0
  3 11  1  0  0  0  0
  3 16  2  0  0  0  0
  4  8  1  6  0  0  0
  4  9  1  0  0  0  0
  5  6  1  0  0  0  0
  6 15  1  0  0  0  0
  7  2  2  0  0  0  0
  7 10  1  0  0  0  0
  8  1  1  0  0  0  0
  9 10  1  0  0  0  0
  9 15  1  1  0  0  0
 10 12  2  0  0  0  0
 12 16  1  0  0  0  0
 13  5  1  0  0  0  0
 14  4  1  0  0  0  0
 14 13  1  0  0  0  0
 17 18  1  0  0  0  0
 17 20  1  0  0  0  0
 18 23  2  0  0  0  0
 19 25  1  0  0  0  0
 20 22  1  1  0  0  0
 20  1  1  0  0  0  0
 21 17  2  0  0  0  0
 22 19  2  0  0  0  0
 23 19  1  0  0  0  0
 24 18  1  0  0  0  0
 25 27  1  6  0  0  0
 26 25  1  0  0  0  0
M  END
>  <MODEL>
8

>  <REMARK>
 VINA RESULT:      -6.8      2.436      4.442
  Name = 
  2 active torsions:
  status: ('A' for Active; 'I' for Inactive)
    1  A    between atoms: N_1  and  C_17
    2  A    between atoms: C_4  and  C_16
                            x       y       z     vdW  Elec       q    Type
                         _______ _______ _______ _____ _____    ______ ____

>  <TORSDO>
F 2

$$$$
=
 OpenBabel11042415113D

 27 30  0  0  1  0  0  0  0  0999 V2000
  189.0470  175.5480  144.7880 N   0  0  0  0  0  0  0  0  0  0  0  0
  189.6840  174.5360  142.6130 C   0  0  0  0  0  3  0  0  0  0  0  0
  189.4580  174.3100  141.2560 C   0  0  0  0  0  0  0  0  0  0  0  0
  187.3420  177.2860  144.7770 C   0  0  1  0  0  3  0  0  0  0  0  0
  184.7390  179.2380  144.3010 C   0  0  0  0  0  2  0  0  0  0  0  0
  184.5450  177.9900  143.4360 C   0  0  0  0  0  2  0  0  0  0  0  0
  188.7820  175.2990  143.3790 C   0  0  0  0  0  0  0  0  0  0  0  0
  187.9940  176.1800  145.5990 C   0  0  0  0  0  2  0  0  0  0  0  0
  186.6460  176.6420  143.5580 C   0  0  2  0  0  3  0  0  0  0  0  0
  187.6590  175.8700  142.7420 C   0  0  0  0  0  0  0  0  0  0  0  0
  190.3880  173.4590  140.4710 C   0  0  0  0  0  1  0  0  0  0  0  0
  187.4400  175.6420  141.3750 C   0  0  0  0  0  3  0  0  0  0  0  0
  186.0890  179.3520  144.8650 N   0  0  0  0  0  2  0  0  0  0  0  0
  186.4110  178.1490  145.6300 C   0  0  0  0  0  2  0  0  0  0  0  0
  185.8250  177.6200  142.6990 C   0  0  0  0  0  2  0  0  0  0  0  0
  188.3490  174.8880  140.6260 C   0  0  0  0  0  3  0  0  0  0  0  0
  190.1640  175.2280  146.9250 C   0  0  0  0  0  0  0  0  0  0  0  0
  191.0490  176.3230  147.3560 C   0  0  0  0  0  0  0  0  0  0  0  0
  192.3370  176.0130  145.3320 C   0  0  0  0  0  0  0  0  0  0  0  0
  190.1440  174.8440  145.4710 C   0  0  2  0  0  3  0  0  0  0  0  0
  189.4210  174.6360  147.7510 O   0  0  0  0  0  0  0  0  0  0  0  0
  191.4760  175.1230  144.8170 C   0  0  0  0  0  3  0  0  0  0  0  0
  192.0480  176.6620  146.5930 N   0  0  0  0  0  0  0  0  0  0  0  0
  190.8830  176.9220  148.5670 F   0  0  0  0  0  0  0  0  0  0  0  0
  193.6370  176.3200  144.6280 C   0  0  1  0  0  3  0  0  0  0  0  0
  194.4470  177.1060  145.4570 O   0  0  0  0  0  1  0  0  0  0  0  0
  194.3940  175.0500  144.2640 C   0  0  0  0  0  1  0  0  0  0  0  0
  1  8  1  0  0  0  0
  2  7  1  0  0  0  0
  3  2  2  0  0  0  0
  4  8  1  1  0  0  0
  4 14  1  0  0  0  0
  5 13  1  0  0  0  0
  6  5  1  0  0  0  0
  7  1  1  0  0  0  0
  9 15  1  6  0  0  0
  9  4  1  0  0  0  0
 10  7  2  0  0  0  0
 10  9  1  0  0  0  0
 11  3  1  0  0  0  0
 12 10  1  0  0  0  0
 13 14  1  0  0  0  0
 15  6  1  0  0  0  0
 16  3  1  0  0  0  0
 16 12  2  0  0  0  0
 17 18  1  0  0  0  0
 17 21  2  0  0  0  0
 18 24  1  0  0  0  0
 19 23  1  0  0  0  0
 20  1  1  6  0  0  0
 20 17  1  0  0  0  0
 22 19  2  0  0  0  0
 22 20  1  0  0  0  0
 23 18  2  0  0  0  0
 25 27  1  1  0  0  0
 25 19  1  0  0  0  0
 25 26  1  0  0  0  0
M  END
>  <MODEL>
9

>  <REMARK>
 VINA RESULT:      -6.8      2.232      3.233
  Name = 
  2 active torsions:
  status: ('A' for Active; 'I' for Inactive)
    1  A    between atoms: N_1  and  C_17
    2  A    between atoms: C_4  and  C_16
                            x       y       z     vdW  Elec       q    Type
                         _______ _______ _______ _____ _____    ______ ____

>  <TORSDO>
F 2

$$$$
