=
 OpenBabel11042417273D

 29 31  0  0  1  0  0  0  0  0999 V2000
  191.7110  178.2800  143.9830 O   0  0  0  0  0  1  0  0  0  0  0  0
  191.3810  176.9270  144.1040 C   0  0  2  0  0  3  0  0  0  0  0  0
  186.6240  178.0100  145.3800 C   0  0  0  0  0  0  0  0  0  0  0  0
  188.9230  175.7240  146.7610 C   0  0  0  0  0  3  0  0  0  0  0  0
  186.6520  176.5420  147.0540 O   0  0  0  0  0  0  0  0  0  0  0  0
  185.9200  177.4370  146.4190 C   0  0  0  0  0  0  0  0  0  0  0  0
  184.6070  177.8100  146.6990 C   0  0  0  0  0  3  0  0  0  0  0  0
  190.1160  176.7870  144.8960 C   0  0  0  0  0  0  0  0  0  0  0  0
  184.0190  178.7910  145.8790 C   0  0  0  0  0  3  0  0  0  0  0  0
  190.0780  175.8680  145.9710 C   0  0  0  0  0  3  0  0  0  0  0  0
  187.8230  176.5180  146.4470 C   0  0  0  0  0  0  0  0  0  0  0  0
  188.9880  177.5830  144.6020 C   0  0  0  0  0  3  0  0  0  0  0  0
  187.8590  177.4120  145.3980 C   0  0  0  0  0  0  0  0  0  0  0  0
  186.0680  178.9800  144.5490 C   0  0  0  0  0  3  0  0  0  0  0  0
  184.7440  179.3720  144.8140 C   0  0  0  0  0  3  0  0  0  0  0  0
  192.5350  176.1270  144.7310 C   0  0  2  0  0  3  0  0  0  0  0  0
  193.8960  176.7830  146.6470 N   0  0  0  0  0  1  0  0  0  0  0  0
  193.6590  177.0260  145.2350 C   0  0  0  0  0  2  0  0  0  0  0  0
  193.0900  175.0580  143.7780 C   0  0  0  0  0  2  0  0  0  0  0  0
  192.5880  175.2090  142.3450 C   0  0  0  0  0  2  0  0  0  0  0  0
  192.1620  173.9220  141.8210 N   0  0  0  0  0  2  0  0  0  0  0  0
  190.9360  174.1220  141.1690 N   0  0  0  0  0  2  0  0  0  0  0  0
  189.6740  173.9800  141.8320 C   0  0  0  0  0  0  0  0  0  0  0  0
  189.5770  173.2110  143.2830 S   0  0  0  0  0  0  0  0  0  0  0  0
  188.5100  174.5490  141.2120 N   0  0  0  0  0  2  0  0  0  0  0  0
  186.7730  175.6800  142.5270 C   0  0  0  0  0  1  0  0  0  0  0  0
  187.9060  175.8410  141.5280 C   0  0  2  0  0  3  0  0  0  0  0  0
  186.5180  177.4080  140.8050 C   0  0  0  0  0  1  0  0  0  0  0  0
  187.4480  176.4650  140.3640 O   0  0  0  0  0  0  0  0  0  0  0  0
  2  1  1  1  0  0  0
  2 16  1  0  0  0  0
  2  8  1  0  0  0  0
  3 13  1  0  0  0  0
  3  6  1  0  0  0  0
  6  7  2  0  0  0  0
  6  5  1  0  0  0  0
  8 10  1  0  0  0  0
  9  7  1  0  0  0  0
 10  4  2  0  0  0  0
 11  4  1  0  0  0  0
 11  5  1  0  0  0  0
 12  8  2  0  0  0  0
 12 13  1  0  0  0  0
 13 11  2  0  0  0  0
 14 15  1  0  0  0  0
 14  3  2  0  0  0  0
 15  9  2  0  0  0  0
 16 19  1  6  0  0  0
 16 18  1  0  0  0  0
 18 17  1  0  0  0  0
 20 19  1  0  0  0  0
 21 20  1  0  0  0  0
 22 21  1  0  0  0  0
 22 23  1  0  0  0  0
 23 24  2  0  0  0  0
 25 27  1  0  0  0  0
 25 23  1  0  0  0  0
 27 26  1  1  0  0  0
 29 28  1  0  0  0  0
 29 27  1  0  0  0  0
M  END
>  <MODEL>
1

>  <REMARK>
 VINA RESULT:      -6.4      0.000      0.000
  Name = 
  11 active torsions:
  status: ('A' for Active; 'I' for Inactive)
    1  A    between atoms: C_4  and  N_12
    2  A    between atoms: C_4  and  N_13
    3  A    between atoms: C_10  and  C_14
    4  A    between atoms: C_10  and  C_29
    5  A    between atoms: N_12  and  N_20
    6  A    between atoms: N_13  and  C_22
    7  A    between atoms: C_19  and  C_23
    8  A    between atoms: C_19  and  C_29
    9  A    between atoms: N_20  and  C_23
   10  A    between atoms: C_22  and  O_27
   11  A    between atoms: C_28  and  C_29
                            x       y       z     vdW  Elec       q    Type
                         _______ _______ _______ _____ _____    ______ ____

>  <TORSDO>
F 11

$$$$
=
 OpenBabel11042417273D

 29 31  0  0  1  0  0  0  0  0999 V2000
  191.8880  177.5320  144.6290 O   0  0  0  0  0  1  0  0  0  0  0  0
  191.4610  176.2250  144.8790 C   0  0  2  0  0  3  0  0  0  0  0  0
  186.7080  177.8270  145.4030 C   0  0  0  0  0  0  0  0  0  0  0  0
  188.5440  175.4160  147.2000 C   0  0  0  0  0  3  0  0  0  0  0  0
  186.3510  176.4620  147.1250 O   0  0  0  0  0  0  0  0  0  0  0  0
  185.8110  177.3840  146.3520 C   0  0  0  0  0  0  0  0  0  0  0  0
  184.5160  177.8950  146.4220 C   0  0  0  0  0  3  0  0  0  0  0  0
  190.0900  176.2520  145.4850 C   0  0  0  0  0  0  0  0  0  0  0  0
  184.1520  178.8790  145.4830 C   0  0  0  0  0  3  0  0  0  0  0  0
  189.8080  175.4040  146.5810 C   0  0  0  0  0  3  0  0  0  0  0  0
  187.5870  176.2910  146.6960 C   0  0  0  0  0  0  0  0  0  0  0  0
  189.1020  177.1340  144.9960 C   0  0  0  0  0  3  0  0  0  0  0  0
  187.8600  177.1170  145.6260 C   0  0  0  0  0  0  0  0  0  0  0  0
  186.3760  178.7950  144.4590 C   0  0  0  0  0  3  0  0  0  0  0  0
  185.0750  179.3270  144.5110 C   0  0  0  0  0  3  0  0  0  0  0  0
  192.4620  175.4750  145.7740 C   0  0  2  0  0  3  0  0  0  0  0  0
  194.7770  176.1360  146.1710 N   0  0  0  0  0  1  0  0  0  0  0  0
  193.3960  176.4210  146.5210 C   0  0  0  0  0  2  0  0  0  0  0  0
  193.2710  174.4280  144.9940 C   0  0  0  0  0  2  0  0  0  0  0  0
  192.8960  174.3550  143.5170 C   0  0  0  0  0  2  0  0  0  0  0  0
  192.6170  172.9810  143.1340 N   0  0  0  0  0  2  0  0  0  0  0  0
  191.3640  172.9710  142.5010 N   0  0  0  0  0  2  0  0  0  0  0  0
  190.1380  173.1880  143.2090 C   0  0  0  0  0  0  0  0  0  0  0  0
  189.7360  172.2370  144.4900 S   0  0  0  0  0  0  0  0  0  0  0  0
  189.2900  174.2680  142.7880 N   0  0  0  0  0  2  0  0  0  0  0  0
  188.4890  174.3180  140.4690 C   0  0  0  0  0  1  0  0  0  0  0  0
  188.1120  174.1620  141.9320 C   0  0  2  0  0  3  0  0  0  0  0  0
  187.5530  176.2860  141.6540 C   0  0  0  0  0  1  0  0  0  0  0  0
  187.1550  175.1120  142.2950 O   0  0  0  0  0  0  0  0  0  0  0  0
  2  1  1  1  0  0  0
  2  8  1  0  0  0  0
  2 16  1  0  0  0  0
  3 13  1  0  0  0  0
  3  6  1  0  0  0  0
  6  7  2  0  0  0  0
  6  5  1  0  0  0  0
  8 10  1  0  0  0  0
  9  7  1  0  0  0  0
 10  4  2  0  0  0  0
 11  5  1  0  0  0  0
 11  4  1  0  0  0  0
 12  8  2  0  0  0  0
 12 13  1  0  0  0  0
 13 11  2  0  0  0  0
 14 15  1  0  0  0  0
 14  3  2  0  0  0  0
 15  9  2  0  0  0  0
 16 19  1  6  0  0  0
 16 18  1  0  0  0  0
 17 18  1  0  0  0  0
 20 19  1  0  0  0  0
 21 20  1  0  0  0  0
 22 21  1  0  0  0  0
 22 23  1  0  0  0  0
 23 24  2  0  0  0  0
 25 23  1  0  0  0  0
 27 26  1  6  0  0  0
 27 29  1  0  0  0  0
 27 25  1  0  0  0  0
 28 29  1  0  0  0  0
M  END
>  <MODEL>
2

>  <REMARK>
 VINA RESULT:      -6.3      1.138      1.308
  Name = 
  11 active torsions:
  status: ('A' for Active; 'I' for Inactive)
    1  A    between atoms: C_4  and  N_12
    2  A    between atoms: C_4  and  N_13
    3  A    between atoms: C_10  and  C_14
    4  A    between atoms: C_10  and  C_29
    5  A    between atoms: N_12  and  N_20
    6  A    between atoms: N_13  and  C_22
    7  A    between atoms: C_19  and  C_23
    8  A    between atoms: C_19  and  C_29
    9  A    between atoms: N_20  and  C_23
   10  A    between atoms: C_22  and  O_27
   11  A    between atoms: C_28  and  C_29
                            x       y       z     vdW  Elec       q    Type
                         _______ _______ _______ _____ _____    ______ ____

>  <TORSDO>
F 11

$$$$
=
 OpenBabel11042417273D

 29 31  0  0  1  0  0  0  0  0999 V2000
  192.1360  177.5690  144.2490 O   0  0  0  0  0  1  0  0  0  0  0  0
  191.1560  176.5720  144.2210 C   0  0  2  0  0  3  0  0  0  0  0  0
  186.4060  178.0910  144.9710 C   0  0  0  0  0  0  0  0  0  0  0  0
  188.4140  178.1290  142.0750 C   0  0  0  0  0  3  0  0  0  0  0  0
  186.1830  178.7150  142.8450 O   0  0  0  0  0  0  0  0  0  0  0  0
  185.5740  178.6310  144.0120 C   0  0  0  0  0  0  0  0  0  0  0  0
  184.2700  179.0150  144.3160 C   0  0  0  0  0  3  0  0  0  0  0  0
  189.8390  177.1730  143.8310 C   0  0  0  0  0  0  0  0  0  0  0  0
  183.8290  178.8360  145.6410 C   0  0  0  0  0  3  0  0  0  0  0  0
  189.6430  177.5870  142.4940 C   0  0  0  0  0  3  0  0  0  0  0  0
  187.4010  178.2400  143.0240 C   0  0  0  0  0  0  0  0  0  0  0  0
  188.7940  177.2920  144.7730 C   0  0  0  0  0  3  0  0  0  0  0  0
  187.5920  177.8380  144.3290 C   0  0  0  0  0  0  0  0  0  0  0  0
  186.0010  177.9060  146.2900 C   0  0  0  0  0  3  0  0  0  0  0  0
  184.6870  178.2850  146.6200 C   0  0  0  0  0  3  0  0  0  0  0  0
  191.0690  175.8400  145.5720 C   0  0  2  0  0  3  0  0  0  0  0  0
  191.5790  176.5030  147.8640 N   0  0  0  0  0  1  0  0  0  0  0  0
  192.1530  176.2890  146.5470 C   0  0  0  0  0  2  0  0  0  0  0  0
  191.0920  174.3140  145.4100 C   0  0  0  0  0  2  0  0  0  0  0  0
  189.7050  173.6800  145.4670 C   0  0  0  0  0  2  0  0  0  0  0  0
  189.7340  172.3480  144.8870 N   0  0  0  0  0  2  0  0  0  0  0  0
  190.5760  172.3990  143.7660 N   0  0  0  0  0  2  0  0  0  0  0  0
  190.2300  171.8050  142.5090 C   0  0  0  0  0  0  0  0  0  0  0  0
  191.0010  170.4470  141.9900 S   0  0  0  0  0  0  0  0  0  0  0  0
  189.1810  172.4070  141.7360 N   0  0  0  0  0  2  0  0  0  0  0  0
  187.8720  174.4270  142.2180 C   0  0  0  0  0  1  0  0  0  0  0  0
  189.0310  173.8290  141.4390 C   0  0  2  0  0  3  0  0  0  0  0  0
  188.2560  172.8510  139.6100 C   0  0  0  0  0  1  0  0  0  0  0  0
  188.8530  174.0270  140.0680 O   0  0  0  0  0  0  0  0  0  0  0  0
  2  1  1  1  0  0  0
  2 16  1  0  0  0  0
  3 14  1  0  0  0  0
  4 10  2  0  0  0  0
  4 11  1  0  0  0  0
  5 11  1  0  0  0  0
  5  6  1  0  0  0  0
  6  7  1  0  0  0  0
  6  3  2  0  0  0  0
  7  9  2  0  0  0  0
  8  2  1  0  0  0  0
  8 12  2  0  0  0  0
  9 15  1  0  0  0  0
 10  8  1  0  0  0  0
 11 13  2  0  0  0  0
 13 12  1  0  0  0  0
 13  3  1  0  0  0  0
 14 15  2  0  0  0  0
 16 19  1  6  0  0  0
 16 18  1  0  0  0  0
 18 17  1  0  0  0  0
 19 20  1  0  0  0  0
 21 20  1  0  0  0  0
 22 21  1  0  0  0  0
 23 22  1  0  0  0  0
 24 23  2  0  0  0  0
 25 23  1  0  0  0  0
 27 25  1  0  0  0  0
 27 26  1  1  0  0  0
 28 29  1  0  0  0  0
 29 27  1  0  0  0  0
M  END
>  <MODEL>
3

>  <REMARK>
 VINA RESULT:      -6.3      2.054      2.885
  Name = 
  11 active torsions:
  status: ('A' for Active; 'I' for Inactive)
    1  A    between atoms: C_4  and  N_12
    2  A    between atoms: C_4  and  N_13
    3  A    between atoms: C_10  and  C_14
    4  A    between atoms: C_10  and  C_29
    5  A    between atoms: N_12  and  N_20
    6  A    between atoms: N_13  and  C_22
    7  A    between atoms: C_19  and  C_23
    8  A    between atoms: C_19  and  C_29
    9  A    between atoms: N_20  and  C_23
   10  A    between atoms: C_22  and  O_27
   11  A    between atoms: C_28  and  C_29
                            x       y       z     vdW  Elec       q    Type
                         _______ _______ _______ _____ _____    ______ ____

>  <TORSDO>
F 11

$$$$
=
 OpenBabel11042417273D

 29 31  0  0  1  0  0  0  0  0999 V2000
  188.4520  173.5860  140.2140 O   0  0  0  0  0  1  0  0  0  0  0  0
  188.2440  173.7410  141.5870 C   0  0  2  0  0  3  0  0  0  0  0  0
  185.8980  177.3000  144.2820 C   0  0  0  0  0  0  0  0  0  0  0  0
  187.3660  177.4190  141.0820 C   0  0  0  0  0  3  0  0  0  0  0  0
  186.1750  178.8160  142.6750 O   0  0  0  0  0  0  0  0  0  0  0  0
  185.6790  178.6010  143.8780 C   0  0  0  0  0  0  0  0  0  0  0  0
  185.0120  179.5120  144.6940 C   0  0  0  0  0  3  0  0  0  0  0  0
  187.7190  175.1180  141.8640 C   0  0  0  0  0  0  0  0  0  0  0  0
  184.5700  179.0590  145.9520 C   0  0  0  0  0  3  0  0  0  0  0  0
  187.8690  176.1200  140.8780 C   0  0  0  0  0  3  0  0  0  0  0  0
  186.7170  177.6780  142.2850 C   0  0  0  0  0  0  0  0  0  0  0  0
  187.0520  175.4060  143.0750 C   0  0  0  0  0  3  0  0  0  0  0  0
  186.5720  176.7020  143.2480 C   0  0  0  0  0  0  0  0  0  0  0  0
  185.4770  176.8240  145.5210 C   0  0  0  0  0  3  0  0  0  0  0  0
  184.8000  177.7260  146.3620 C   0  0  0  0  0  3  0  0  0  0  0  0
  189.5310  173.4550  142.3800 C   0  0  2  0  0  3  0  0  0  0  0  0
  191.2290  171.9750  141.4410 N   0  0  0  0  0  1  0  0  0  0  0  0
  190.7570  173.3490  141.4800 C   0  0  0  0  0  2  0  0  0  0  0  0
  189.4050  172.2050  143.2640 C   0  0  0  0  0  2  0  0  0  0  0  0
  189.7920  172.4540  144.7190 C   0  0  0  0  0  2  0  0  0  0  0  0
  189.7780  173.8790  145.0090 N   0  0  0  0  0  2  0  0  0  0  0  0
  191.0590  174.2240  145.4650 N   0  0  0  0  0  2  0  0  0  0  0  0
  191.3350  175.4610  146.1340 C   0  0  0  0  0  0  0  0  0  0  0  0
  191.1360  175.5890  147.7620 S   0  0  0  0  0  0  0  0  0  0  0  0
  191.8130  176.5670  145.3530 N   0  0  0  0  0  2  0  0  0  0  0  0
  189.6450  177.6150  144.8780 C   0  0  0  0  0  1  0  0  0  0  0  0
  191.0470  177.3270  144.3690 C   0  0  2  0  0  3  0  0  0  0  0  0
  192.3280  176.4870  142.7700 C   0  0  0  0  0  1  0  0  0  0  0  0
  190.9950  176.6410  143.1530 O   0  0  0  0  0  0  0  0  0  0  0  0
  2  1  1  6  0  0  0
  2  8  1  0  0  0  0
  2 16  1  0  0  0  0
  3 14  1  0  0  0  0
  4 11  1  0  0  0  0
  5  6  1  0  0  0  0
  6  3  2  0  0  0  0
  6  7  1  0  0  0  0
  7  9  2  0  0  0  0
  8 12  2  0  0  0  0
  9 15  1  0  0  0  0
 10  4  2  0  0  0  0
 10  8  1  0  0  0  0
 11  5  1  0  0  0  0
 11 13  2  0  0  0  0
 12 13  1  0  0  0  0
 13  3  1  0  0  0  0
 14 15  2  0  0  0  0
 16 18  1  6  0  0  0
 16 19  1  0  0  0  0
 17 18  1  0  0  0  0
 19 20  1  0  0  0  0
 20 21  1  0  0  0  0
 21 22  1  0  0  0  0
 22 23  1  0  0  0  0
 23 24  2  0  0  0  0
 25 23  1  0  0  0  0
 27 26  1  1  0  0  0
 27 25  1  0  0  0  0
 28 29  1  0  0  0  0
 29 27  1  0  0  0  0
M  END
>  <MODEL>
4

>  <REMARK>
 VINA RESULT:      -6.1      2.195      4.634
  Name = 
  11 active torsions:
  status: ('A' for Active; 'I' for Inactive)
    1  A    between atoms: C_4  and  N_12
    2  A    between atoms: C_4  and  N_13
    3  A    between atoms: C_10  and  C_14
    4  A    between atoms: C_10  and  C_29
    5  A    between atoms: N_12  and  N_20
    6  A    between atoms: N_13  and  C_22
    7  A    between atoms: C_19  and  C_23
    8  A    between atoms: C_19  and  C_29
    9  A    between atoms: N_20  and  C_23
   10  A    between atoms: C_22  and  O_27
   11  A    between atoms: C_28  and  C_29
                            x       y       z     vdW  Elec       q    Type
                         _______ _______ _______ _____ _____    ______ ____

>  <TORSDO>
F 11

$$$$
=
 OpenBabel11042417273D

 29 31  0  0  1  0  0  0  0  0999 V2000
  189.9640  172.4340  143.7450 O   0  0  0  0  0  1  0  0  0  0  0  0
  190.3780  173.7690  143.7080 C   0  0  2  0  0  3  0  0  0  0  0  0
  187.1670  177.4220  145.0400 C   0  0  0  0  0  0  0  0  0  0  0  0
  188.8870  175.0370  146.9820 C   0  0  0  0  0  3  0  0  0  0  0  0
  187.3360  176.8960  147.1980 O   0  0  0  0  0  0  0  0  0  0  0  0
  186.7700  177.7120  146.3290 C   0  0  0  0  0  0  0  0  0  0  0  0
  185.8800  178.7500  146.5990 C   0  0  0  0  0  3  0  0  0  0  0  0
  189.5530  174.5780  144.6630 C   0  0  0  0  0  0  0  0  0  0  0  0
  185.3950  179.4940  145.5050 C   0  0  0  0  0  3  0  0  0  0  0  0
  189.6210  174.2860  146.0450 C   0  0  0  0  0  3  0  0  0  0  0  0
  188.0960  176.0750  146.4990 C   0  0  0  0  0  0  0  0  0  0  0  0
  188.7460  175.6390  144.2000 C   0  0  0  0  0  3  0  0  0  0  0  0
  188.0270  176.3590  145.1510 C   0  0  0  0  0  0  0  0  0  0  0  0
  186.7010  178.1350  143.9390 C   0  0  0  0  0  3  0  0  0  0  0  0
  185.8030  179.1890  144.1870 C   0  0  0  0  0  3  0  0  0  0  0  0
  190.3060  174.3330  142.2780 C   0  0  2  0  0  3  0  0  0  0  0  0
  188.5100  174.4400  140.6300 N   0  0  0  0  0  1  0  0  0  0  0  0
  189.3610  173.5360  141.3860 C   0  0  0  0  0  2  0  0  0  0  0  0
  191.6920  174.4460  141.6260 C   0  0  0  0  0  2  0  0  0  0  0  0
  192.8400  174.2470  142.6120 C   0  0  0  0  0  2  0  0  0  0  0  0
  194.0110  174.9920  142.1790 N   0  0  0  0  0  2  0  0  0  0  0  0
  195.0740  174.6210  143.0160 N   0  0  0  0  0  2  0  0  0  0  0  0
  195.7540  175.5550  143.8640 C   0  0  0  0  0  0  0  0  0  0  0  0
  196.7970  176.6540  143.2240 S   0  0  0  0  0  0  0  0  0  0  0  0
  195.4780  175.5230  145.2730 N   0  0  0  0  0  2  0  0  0  0  0  0
  193.2690  175.0550  146.2360 C   0  0  0  0  0  1  0  0  0  0  0  0
  194.3200  176.1110  145.9420 C   0  0  2  0  0  3  0  0  0  0  0  0
  192.4190  176.8350  145.0670 C   0  0  0  0  0  1  0  0  0  0  0  0
  193.7780  177.1400  145.1680 O   0  0  0  0  0  0  0  0  0  0  0  0
  2  1  1  6  0  0  0
  2  8  1  0  0  0  0
  3 13  1  0  0  0  0
  3  6  1  0  0  0  0
  6  7  2  0  0  0  0
  6  5  1  0  0  0  0
  8 10  1  0  0  0  0
  9  7  1  0  0  0  0
 10  4  2  0  0  0  0
 11  4  1  0  0  0  0
 11  5  1  0  0  0  0
 12  8  2  0  0  0  0
 12 13  1  0  0  0  0
 13 11  2  0  0  0  0
 14 15  1  0  0  0  0
 14  3  2  0  0  0  0
 15  9  2  0  0  0  0
 16 18  1  6  0  0  0
 16  2  1  0  0  0  0
 17 18  1  0  0  0  0
 19 16  1  0  0  0  0
 19 20  1  0  0  0  0
 21 20  1  0  0  0  0
 21 22  1  0  0  0  0
 22 23  1  0  0  0  0
 23 25  1  0  0  0  0
 24 23  2  0  0  0  0
 25 27  1  0  0  0  0
 27 26  1  6  0  0  0
 28 29  1  0  0  0  0
 29 27  1  0  0  0  0
M  END
>  <MODEL>
5

>  <REMARK>
 VINA RESULT:      -6.1      2.447      4.713
  Name = 
  11 active torsions:
  status: ('A' for Active; 'I' for Inactive)
    1  A    between atoms: C_4  and  N_12
    2  A    between atoms: C_4  and  N_13
    3  A    between atoms: C_10  and  C_14
    4  A    between atoms: C_10  and  C_29
    5  A    between atoms: N_12  and  N_20
    6  A    between atoms: N_13  and  C_22
    7  A    between atoms: C_19  and  C_23
    8  A    between atoms: C_19  and  C_29
    9  A    between atoms: N_20  and  C_23
   10  A    between atoms: C_22  and  O_27
   11  A    between atoms: C_28  and  C_29
                            x       y       z     vdW  Elec       q    Type
                         _______ _______ _______ _____ _____    ______ ____

>  <TORSDO>
F 11

$$$$
=
 OpenBabel11042417273D

 29 31  0  0  1  0  0  0  0  0999 V2000
  189.7880  173.2730  145.4250 O   0  0  0  0  0  1  0  0  0  0  0  0
  190.3540  174.4940  145.8030 C   0  0  2  0  0  3  0  0  0  0  0  0
  186.3250  177.5130  145.5210 C   0  0  0  0  0  0  0  0  0  0  0  0
  189.2680  177.4030  143.5870 C   0  0  0  0  0  3  0  0  0  0  0  0
  187.1700  178.6160  143.7820 O   0  0  0  0  0  0  0  0  0  0  0  0
  186.1400  178.5220  144.5990 C   0  0  0  0  0  0  0  0  0  0  0  0
  184.9840  179.3010  144.5980 C   0  0  0  0  0  3  0  0  0  0  0  0
  189.5300  175.6210  145.2560 C   0  0  0  0  0  0  0  0  0  0  0  0
  184.0090  179.0240  145.5750 C   0  0  0  0  0  3  0  0  0  0  0  0
  190.0200  176.3560  144.1520 C   0  0  0  0  0  3  0  0  0  0  0  0
  188.0280  177.6850  144.1530 C   0  0  0  0  0  0  0  0  0  0  0  0
  188.2670  175.9250  145.8090 C   0  0  0  0  0  3  0  0  0  0  0  0
  187.5510  176.9700  145.2310 C   0  0  0  0  0  0  0  0  0  0  0  0
  185.3820  177.2180  146.5020 C   0  0  0  0  0  3  0  0  0  0  0  0
  184.2060  177.9910  146.5190 C   0  0  0  0  0  3  0  0  0  0  0  0
  191.8200  174.5910  145.3470 C   0  0  2  0  0  3  0  0  0  0  0  0
  192.3230  173.5210  143.2130 N   0  0  0  0  0  1  0  0  0  0  0  0
  192.2980  173.3200  144.6520 C   0  0  0  0  0  2  0  0  0  0  0  0
  192.7660  174.9580  146.5000 C   0  0  0  0  0  2  0  0  0  0  0  0
  193.2570  176.4020  146.4400 C   0  0  0  0  0  2  0  0  0  0  0  0
  193.5760  176.7700  145.0710 N   0  0  0  0  0  2  0  0  0  0  0  0
  194.9680  176.9350  144.9960 N   0  0  0  0  0  2  0  0  0  0  0  0
  195.7980  176.1370  144.1430 C   0  0  0  0  0  0  0  0  0  0  0  0
  195.9380  174.5170  144.3960 S   0  0  0  0  0  0  0  0  0  0  0  0
  196.4740  176.7820  143.0530 N   0  0  0  0  0  2  0  0  0  0  0  0
  194.5990  176.3610  141.5270 C   0  0  0  0  0  1  0  0  0  0  0  0
  196.0490  176.7930  141.6560 C   0  0  2  0  0  3  0  0  0  0  0  0
  196.0040  175.2480  140.0710 C   0  0  0  0  0  1  0  0  0  0  0  0
  196.8760  175.9710  140.8860 O   0  0  0  0  0  0  0  0  0  0  0  0
  2  1  1  6  0  0  0
  3 14  1  0  0  0  0
  4 10  2  0  0  0  0
  4 11  1  0  0  0  0
  5 11  1  0  0  0  0
  5  6  1  0  0  0  0
  6  3  2  0  0  0  0
  7  6  1  0  0  0  0
  7  9  2  0  0  0  0
  8  2  1  0  0  0  0
  8 12  2  0  0  0  0
  9 15  1  0  0  0  0
 10  8  1  0  0  0  0
 11 13  2  0  0  0  0
 13  3  1  0  0  0  0
 13 12  1  0  0  0  0
 14 15  2  0  0  0  0
 16 18  1  1  0  0  0
 16  2  1  0  0  0  0
 16 19  1  0  0  0  0
 17 18  1  0  0  0  0
 20 19  1  0  0  0  0
 21 20  1  0  0  0  0
 22 21  1  0  0  0  0
 23 24  2  0  0  0  0
 23 22  1  0  0  0  0
 25 23  1  0  0  0  0
 27 26  1  1  0  0  0
 27 25  1  0  0  0  0
 28 29  1  0  0  0  0
 29 27  1  0  0  0  0
M  END
>  <MODEL>
6

>  <REMARK>
 VINA RESULT:      -6.0      2.747      4.974
  Name = 
  11 active torsions:
  status: ('A' for Active; 'I' for Inactive)
    1  A    between atoms: C_4  and  N_12
    2  A    between atoms: C_4  and  N_13
    3  A    between atoms: C_10  and  C_14
    4  A    between atoms: C_10  and  C_29
    5  A    between atoms: N_12  and  N_20
    6  A    between atoms: N_13  and  C_22
    7  A    between atoms: C_19  and  C_23
    8  A    between atoms: C_19  and  C_29
    9  A    between atoms: N_20  and  C_23
   10  A    between atoms: C_22  and  O_27
   11  A    between atoms: C_28  and  C_29
                            x       y       z     vdW  Elec       q    Type
                         _______ _______ _______ _____ _____    ______ ____

>  <TORSDO>
F 11

$$$$
=
 OpenBabel11042417273D

 29 31  0  0  1  0  0  0  0  0999 V2000
  190.9620  175.5180  147.8960 O   0  0  0  0  0  1  0  0  0  0  0  0
  191.4490  176.4380  146.9640 C   0  0  2  0  0  3  0  0  0  0  0  0
  186.7140  177.9090  146.0420 C   0  0  0  0  0  0  0  0  0  0  0  0
  189.5020  177.6240  143.9060 C   0  0  0  0  0  3  0  0  0  0  0  0
  187.1510  178.2420  143.8850 O   0  0  0  0  0  0  0  0  0  0  0  0
  186.2170  178.2950  144.8150 C   0  0  0  0  0  0  0  0  0  0  0  0
  184.8870  178.6790  144.6590 C   0  0  0  0  0  3  0  0  0  0  0  0
  190.3190  176.9460  146.1200 C   0  0  0  0  0  0  0  0  0  0  0  0
  184.0650  178.6640  145.8020 C   0  0  0  0  0  3  0  0  0  0  0  0
  190.5410  177.1760  144.7430 C   0  0  0  0  0  3  0  0  0  0  0  0
  188.2520  177.8290  144.4820 C   0  0  0  0  0  0  0  0  0  0  0  0
  189.0400  177.1580  146.6790 C   0  0  0  0  0  3  0  0  0  0  0  0
  188.0350  177.6070  145.8260 C   0  0  0  0  0  0  0  0  0  0  0  0
  185.9280  177.8870  147.1910 C   0  0  0  0  0  3  0  0  0  0  0  0
  184.5810  178.2700  147.0570 C   0  0  0  0  0  3  0  0  0  0  0  0
  192.5660  175.8200  146.1050 C   0  0  2  0  0  3  0  0  0  0  0  0
  191.7810  173.7460  145.0860 N   0  0  0  0  0  1  0  0  0  0  0  0
  192.5750  174.2970  146.1720 C   0  0  0  0  0  2  0  0  0  0  0  0
  193.9510  176.3810  146.4580 C   0  0  0  0  0  2  0  0  0  0  0  0
  194.7440  176.8420  145.2380 C   0  0  0  0  0  2  0  0  0  0  0  0
  195.6760  175.8080  144.8210 N   0  0  0  0  0  2  0  0  0  0  0  0
  195.1340  175.1930  143.6820 N   0  0  0  0  0  2  0  0  0  0  0  0
  194.8620  175.9090  142.4710 C   0  0  0  0  0  0  0  0  0  0  0  0
  196.0790  176.6540  141.6530 S   0  0  0  0  0  0  0  0  0  0  0  0
  193.5120  175.9330  141.9820 N   0  0  0  0  0  2  0  0  0  0  0  0
  192.8020  174.0280  140.6060 C   0  0  0  0  0  1  0  0  0  0  0  0
  192.6000  174.7940  141.9020 C   0  0  2  0  0  3  0  0  0  0  0  0
  190.5120  174.1540  141.5360 C   0  0  0  0  0  1  0  0  0  0  0  0
  191.2740  175.2200  142.0180 O   0  0  0  0  0  0  0  0  0  0  0  0
  2  1  1  1  0  0  0
  3 14  1  0  0  0  0
  4 11  2  0  0  0  0
  4 10  1  0  0  0  0
  5 11  1  0  0  0  0
  5  6  1  0  0  0  0
  6  3  2  0  0  0  0
  7  6  1  0  0  0  0
  7  9  2  0  0  0  0
  8 12  1  0  0  0  0
  8  2  1  0  0  0  0
  9 15  1  0  0  0  0
 10  8  2  0  0  0  0
 11 13  1  0  0  0  0
 13  3  1  0  0  0  0
 13 12  2  0  0  0  0
 15 14  2  0  0  0  0
 16 18  1  1  0  0  0
 16 19  1  0  0  0  0
 16  2  1  0  0  0  0
 17 18  1  0  0  0  0
 20 19  1  0  0  0  0
 21 20  1  0  0  0  0
 22 21  1  0  0  0  0
 23 22  1  0  0  0  0
 24 23  2  0  0  0  0
 25 23  1  0  0  0  0
 27 26  1  6  0  0  0
 27 25  1  0  0  0  0
 27 29  1  0  0  0  0
 28 29  1  0  0  0  0
M  END
>  <MODEL>
7

>  <REMARK>
 VINA RESULT:      -6.0      2.656      3.835
  Name = 
  11 active torsions:
  status: ('A' for Active; 'I' for Inactive)
    1  A    between atoms: C_4  and  N_12
    2  A    between atoms: C_4  and  N_13
    3  A    between atoms: C_10  and  C_14
    4  A    between atoms: C_10  and  C_29
    5  A    between atoms: N_12  and  N_20
    6  A    between atoms: N_13  and  C_22
    7  A    between atoms: C_19  and  C_23
    8  A    between atoms: C_19  and  C_29
    9  A    between atoms: N_20  and  C_23
   10  A    between atoms: C_22  and  O_27
   11  A    between atoms: C_28  and  C_29
                            x       y       z     vdW  Elec       q    Type
                         _______ _______ _______ _____ _____    ______ ____

>  <TORSDO>
F 11

$$$$
=
 OpenBabel11042417273D

 29 31  0  0  1  0  0  0  0  0999 V2000
  191.5420  178.0070  143.8510 O   0  0  0  0  0  1  0  0  0  0  0  0
  190.8090  177.4720  142.7880 C   0  0  2  0  0  3  0  0  0  0  0  0
  186.5730  178.1120  145.4480 C   0  0  0  0  0  0  0  0  0  0  0  0
  187.1660  178.2630  141.9780 C   0  0  0  0  0  3  0  0  0  0  0  0
  185.3750  178.4780  143.6070 O   0  0  0  0  0  0  0  0  0  0  0  0
  185.3280  178.3890  144.9220 C   0  0  0  0  0  0  0  0  0  0  0  0
  184.2110  178.5420  145.7420 C   0  0  0  0  0  3  0  0  0  0  0  0
  189.3520  177.7680  142.9820 C   0  0  0  0  0  0  0  0  0  0  0  0
  184.3980  178.4080  147.1310 C   0  0  0  0  0  3  0  0  0  0  0  0
  188.5440  178.0090  141.8470 C   0  0  0  0  0  3  0  0  0  0  0  0
  186.6300  178.2650  143.2620 C   0  0  0  0  0  0  0  0  0  0  0  0
  188.7820  177.7720  144.2730 C   0  0  0  0  0  3  0  0  0  0  0  0
  187.4180  178.0320  144.3700 C   0  0  0  0  0  0  0  0  0  0  0  0
  186.7900  177.9780  146.8170 C   0  0  0  0  0  3  0  0  0  0  0  0
  185.6770  178.1270  147.6630 C   0  0  0  0  0  3  0  0  0  0  0  0
  191.0660  175.9620  142.6410 C   0  0  2  0  0  3  0  0  0  0  0  0
  189.2680  174.3140  142.5610 N   0  0  0  0  0  1  0  0  0  0  0  0
  190.0830  175.1230  143.4510 C   0  0  0  0  0  2  0  0  0  0  0  0
  192.5120  175.5800  142.9890 C   0  0  0  0  0  2  0  0  0  0  0  0
  192.6170  174.2860  143.7910 C   0  0  0  0  0  2  0  0  0  0  0  0
  193.9470  174.1540  144.3640 N   0  0  0  0  0  2  0  0  0  0  0  0
  193.8070  174.2070  145.7590 N   0  0  0  0  0  2  0  0  0  0  0  0
  193.4300  175.4020  146.4550 C   0  0  0  0  0  0  0  0  0  0  0  0
  194.2680  176.7990  146.2240 S   0  0  0  0  0  0  0  0  0  0  0  0
  192.2920  175.3520  147.3290 N   0  0  0  0  0  2  0  0  0  0  0  0
  190.5160  177.0420  147.2130 C   0  0  0  0  0  1  0  0  0  0  0  0
  190.9010  175.5950  146.9560 C   0  0  2  0  0  3  0  0  0  0  0  0
  188.7730  175.0220  147.1660 C   0  0  0  0  0  1  0  0  0  0  0  0
  190.0500  174.7310  147.6480 O   0  0  0  0  0  0  0  0  0  0  0  0
  2  8  1  0  0  0  0
  2  1  1  1  0  0  0
  3 14  1  0  0  0  0
  4 11  1  0  0  0  0
  5  6  1  0  0  0  0
  6  3  2  0  0  0  0
  6  7  1  0  0  0  0
  7  9  2  0  0  0  0
  8 12  2  0  0  0  0
  9 15  1  0  0  0  0
 10  4  2  0  0  0  0
 10  8  1  0  0  0  0
 11  5  1  0  0  0  0
 11 13  2  0  0  0  0
 12 13  1  0  0  0  0
 13  3  1  0  0  0  0
 14 15  2  0  0  0  0
 16  2  1  0  0  0  0
 16 19  1  1  0  0  0
 16 18  1  0  0  0  0
 17 18  1  0  0  0  0
 19 20  1  0  0  0  0
 20 21  1  0  0  0  0
 21 22  1  0  0  0  0
 22 23  1  0  0  0  0
 23 25  1  0  0  0  0
 24 23  2  0  0  0  0
 27 26  1  1  0  0  0
 27 25  1  0  0  0  0
 27 29  1  0  0  0  0
 28 29  1  0  0  0  0
M  END
>  <MODEL>
8

>  <REMARK>
 VINA RESULT:      -6.0      2.230      4.392
  Name = 
  11 active torsions:
  status: ('A' for Active; 'I' for Inactive)
    1  A    between atoms: C_4  and  N_12
    2  A    between atoms: C_4  and  N_13
    3  A    between atoms: C_10  and  C_14
    4  A    between atoms: C_10  and  C_29
    5  A    between atoms: N_12  and  N_20
    6  A    between atoms: N_13  and  C_22
    7  A    between atoms: C_19  and  C_23
    8  A    between atoms: C_19  and  C_29
    9  A    between atoms: N_20  and  C_23
   10  A    between atoms: C_22  and  O_27
   11  A    between atoms: C_28  and  C_29
                            x       y       z     vdW  Elec       q    Type
                         _______ _______ _______ _____ _____    ______ ____

>  <TORSDO>
F 11

$$$$
=
 OpenBabel11042417273D

 29 31  0  0  1  0  0  0  0  0999 V2000
  191.6460  177.4610  144.3090 O   0  0  0  0  0  1  0  0  0  0  0  0
  191.3020  176.2180  144.8490 C   0  0  2  0  0  3  0  0  0  0  0  0
  186.5910  177.9360  145.3790 C   0  0  0  0  0  0  0  0  0  0  0  0
  188.4160  175.5790  147.2590 C   0  0  0  0  0  3  0  0  0  0  0  0
  186.2410  176.6630  147.1720 O   0  0  0  0  0  0  0  0  0  0  0  0
  185.7040  177.5570  146.3650 C   0  0  0  0  0  0  0  0  0  0  0  0
  184.4200  178.0960  146.4330 C   0  0  0  0  0  3  0  0  0  0  0  0
  189.9440  176.3010  145.4770 C   0  0  0  0  0  0  0  0  0  0  0  0
  184.0570  179.0400  145.4540 C   0  0  0  0  0  3  0  0  0  0  0  0
  189.6670  175.5130  146.6180 C   0  0  0  0  0  3  0  0  0  0  0  0
  187.4650  176.4480  146.7300 C   0  0  0  0  0  0  0  0  0  0  0  0
  188.9630  177.1770  144.9630 C   0  0  0  0  0  3  0  0  0  0  0  0
  187.7340  177.2150  145.6160 C   0  0  0  0  0  0  0  0  0  0  0  0
  186.2590  178.8630  144.3950 C   0  0  0  0  0  3  0  0  0  0  0  0
  184.9690  179.4220  144.4450 C   0  0  0  0  0  3  0  0  0  0  0  0
  192.3640  175.7360  145.8530 C   0  0  2  0  0  3  0  0  0  0  0  0
  194.6870  176.0820  146.5120 N   0  0  0  0  0  1  0  0  0  0  0  0
  193.4850  176.7510  146.0460 C   0  0  0  0  0  2  0  0  0  0  0  0
  192.9410  174.3640  145.4770 C   0  0  0  0  0  2  0  0  0  0  0  0
  192.8900  174.0780  143.9780 C   0  0  0  0  0  2  0  0  0  0  0  0
  194.2350  173.9830  143.4370 N   0  0  0  0  0  2  0  0  0  0  0  0
  194.5430  175.2250  142.8620 N   0  0  0  0  0  2  0  0  0  0  0  0
  195.8860  175.7080  142.7330 C   0  0  0  0  0  0  0  0  0  0  0  0
  196.4140  176.3280  141.3030 S   0  0  0  0  0  0  0  0  0  0  0  0
  196.7400  175.6610  143.8860 N   0  0  0  0  0  2  0  0  0  0  0  0
  197.7900  173.5790  143.1210 C   0  0  0  0  0  1  0  0  0  0  0  0
  197.6190  174.5590  144.2680 C   0  0  2  0  0  3  0  0  0  0  0  0
  197.1830  172.5480  145.0860 C   0  0  0  0  0  1  0  0  0  0  0  0
  197.1230  173.9070  145.4000 O   0  0  0  0  0  0  0  0  0  0  0  0
  2  1  1  1  0  0  0
  2  8  1  0  0  0  0
  2 16  1  0  0  0  0
  3 13  1  0  0  0  0
  3  6  1  0  0  0  0
  6  7  2  0  0  0  0
  6  5  1  0  0  0  0
  8 10  1  0  0  0  0
  9  7  1  0  0  0  0
 10  4  2  0  0  0  0
 11  5  1  0  0  0  0
 11  4  1  0  0  0  0
 12  8  2  0  0  0  0
 12 13  1  0  0  0  0
 13 11  2  0  0  0  0
 14 15  1  0  0  0  0
 14  3  2  0  0  0  0
 15  9  2  0  0  0  0
 16 19  1  6  0  0  0
 16 18  1  0  0  0  0
 18 17  1  0  0  0  0
 20 19  1  0  0  0  0
 21 20  1  0  0  0  0
 22 21  1  0  0  0  0
 23 22  1  0  0  0  0
 23 25  1  0  0  0  0
 24 23  2  0  0  0  0
 25 27  1  0  0  0  0
 27 26  1  6  0  0  0
 27 29  1  0  0  0  0
 28 29  1  0  0  0  0
M  END
>  <MODEL>
9

>  <REMARK>
 VINA RESULT:      -5.9      2.851      5.016
  Name = 
  11 active torsions:
  status: ('A' for Active; 'I' for Inactive)
    1  A    between atoms: C_4  and  N_12
    2  A    between atoms: C_4  and  N_13
    3  A    between atoms: C_10  and  C_14
    4  A    between atoms: C_10  and  C_29
    5  A    between atoms: N_12  and  N_20
    6  A    between atoms: N_13  and  C_22
    7  A    between atoms: C_19  and  C_23
    8  A    between atoms: C_19  and  C_29
    9  A    between atoms: N_20  and  C_23
   10  A    between atoms: C_22  and  O_27
   11  A    between atoms: C_28  and  C_29
                            x       y       z     vdW  Elec       q    Type
                         _______ _______ _______ _____ _____    ______ ____

>  <TORSDO>
F 11

$$$$
