=
 OpenBabel11042417313D

 39 42  0  0  1  0  0  0  0  0999 V2000
  192.0440  175.9990  143.6570 N   0  0  0  0  0  0  0  0  0  0  0  0
  191.7810  173.7960  144.6650 C   0  0  0  0  0  3  0  0  0  0  0  0
  189.6820  176.0300  144.3310 C   0  0  0  0  0  0  0  0  0  0  0  0
  192.4580  175.1260  144.7480 C   0  0  1  0  0  3  0  0  0  0  0  0
  190.4580  173.6530  144.7110 C   0  0  0  0  0  0  0  0  0  0  0  0
  190.8310  176.4340  143.4950 C   0  0  0  0  0  3  0  0  0  0  0  0
  189.5200  174.7890  144.8150 C   0  0  0  0  0  3  0  0  0  0  0  0
  194.6030  174.2430  145.6580 N   0  0  0  0  0  0  0  0  0  0  0  0
  194.7430  175.5680  143.8220 N   0  0  0  0  0  2  0  0  0  0  0  0
  193.9400  174.9650  144.7280 C   0  0  0  0  0  0  0  0  0  0  0  0
  195.8930  174.3990  145.3180 C   0  0  0  0  0  0  0  0  0  0  0  0
  195.9780  175.2010  144.2030 C   0  0  0  0  0  0  0  0  0  0  0  0
  196.8830  172.2410  145.9690 C   0  0  0  0  0  1  0  0  0  0  0  0
  197.0290  173.7480  146.0320 C   0  0  0  0  0  2  0  0  0  0  0  0
  197.2230  175.6060  143.4910 C   0  0  0  0  0  2  0  0  0  0  0  0
  197.2260  176.9880  143.2910 O   0  0  0  0  0  1  0  0  0  0  0  0
  189.8970  172.2690  144.7470 C   0  0  0  0  0  2  0  0  0  0  0  0
  188.9180  172.0990  143.7250 O   0  0  0  0  0  0  0  0  0  0  0  0
  190.1540  171.3520  141.7470 C   0  0  0  0  0  3  0  0  0  0  0  0
  189.2130  172.1950  142.3600 C   0  0  0  0  0  0  0  0  0  0  0  0
  189.7910  172.4570  139.6120 C   0  0  0  0  0  0  0  0  0  0  0  0
  188.8500  173.2940  140.2290 C   0  0  0  0  0  3  0  0  0  0  0  0
  188.5610  173.1620  141.5900 C   0  0  0  0  0  3  0  0  0  0  0  0
  190.4450  171.4880  140.3880 C   0  0  0  0  0  3  0  0  0  0  0  0
  192.3480  173.8570  138.5900 C   0  0  0  0  0  1  0  0  0  0  0  0
  191.4010  173.1530  137.7400 N   0  0  0  0  0  2  0  0  0  0  0  0
  190.1480  172.6090  138.1810 C   0  0  0  0  0  0  0  0  0  0  0  0
  189.3210  172.2370  137.3060 O   0  0  0  0  0  0  0  0  0  0  0  0
  188.5760  177.0310  144.5000 C   0  0  1  0  0  3  0  0  0  0  0  0
  186.5690  177.7720  143.2260 C   0  0  1  0  0  3  0  0  0  0  0  0
  187.2780  176.5730  143.8280 C   0  0  1  0  0  3  0  0  0  0  0  0
  187.3450  176.8270  142.3340 C   0  0  0  0  0  2  0  0  0  0  0  0
  184.3540  178.2880  144.0680 N   0  0  0  0  0  1  0  0  0  0  0  0
  185.0880  177.4680  143.1200 C   0  0  0  0  0  2  0  0  0  0  0  0
  188.3990  177.4400  145.9730 C   0  0  2  0  0  3  0  0  0  0  0  0
  189.6980  177.3650  146.7690 C   0  0  0  0  0  1  0  0  0  0  0  0
  187.3060  176.6150  146.6370 C   0  0  0  0  0  2  0  0  0  0  0  0
  186.2930  177.4930  147.2330 C   0  0  0  0  0  0  0  0  0  0  0  0
  185.4940  178.1860  147.7020 N   0  0  0  0  0  0  0  0  0  0  0  0
  1  4  1  0  0  0  0
  2  5  2  0  0  0  0
  2  4  1  0  0  0  0
  3 29  1  0  0  0  0
  3  7  2  0  0  0  0
  4 10  1  6  0  0  0
  5 17  1  0  0  0  0
  5  7  1  0  0  0  0
  6  1  2  0  0  0  0
  6  3  1  0  0  0  0
  9 12  1  0  0  0  0
  9 10  1  0  0  0  0
 10  8  2  0  0  0  0
 11  8  1  0  0  0  0
 11 14  1  0  0  0  0
 12 11  2  0  0  0  0
 13 14  1  0  0  0  0
 15 12  1  0  0  0  0
 16 15  1  0  0  0  0
 18 17  1  0  0  0  0
 19 20  1  0  0  0  0
 20 18  1  0  0  0  0
 21 22  2  0  0  0  0
 21 24  1  0  0  0  0
 22 23  1  0  0  0  0
 23 20  2  0  0  0  0
 24 19  2  0  0  0  0
 26 27  1  0  0  0  0
 26 25  1  0  0  0  0
 27 21  1  0  0  0  0
 28 27  2  0  0  0  0
 29 35  1  1  0  0  0
 30 34  1  6  0  0  0
 30 31  1  0  0  0  0
 31 29  1  1  0  0  0
 32 30  1  0  0  0  0
 32 31  1  0  0  0  0
 34 33  1  0  0  0  0
 35 37  1  0  0  0  0
 35 36  1  1  0  0  0
 37 38  1  0  0  0  0
 38 39  3  0  0  0  0
M  END
>  <MODEL>
1

>  <REMARK>
 VINA RESULT:      -6.8      0.000      0.000
  Name = 
  13 active torsions:
  status: ('A' for Active; 'I' for Inactive)
    1  A    between atoms: O_1  and  C_2
    2  A    between atoms: O_1  and  C_17
    3  A    between atoms: C_2  and  C_32
    4  A    between atoms: C_4  and  C_36
    5  A    between atoms: C_10  and  C_20
    6  A    between atoms: C_11  and  C_29
    7  A    between atoms: C_12  and  C_16
    8  A    between atoms: C_12  and  C_20
    9  A    between atoms: C_16  and  C_22
   10  A    between atoms: C_18  and  C_19
   11  A    between atoms: C_20  and  C_24
   12  A    between atoms: C_21  and  C_26
   13  A    between atoms: CA_27  and  C_35
                            x       y       z     vdW  Elec       q    Type
                         _______ _______ _______ _____ _____    ______ ____

>  <TORSDO>
F 13

$$$$
=
 OpenBabel11042417313D

 39 42  0  0  1  0  0  0  0  0999 V2000
  188.5100  176.4180  142.5160 N   0  0  0  0  0  0  0  0  0  0  0  0
  188.3500  175.8120  144.8700 C   0  0  0  0  0  3  0  0  0  0  0  0
  190.0720  174.5280  142.6580 C   0  0  0  0  0  0  0  0  0  0  0  0
  187.6330  175.9140  143.5640 C   0  0  1  0  0  3  0  0  0  0  0  0
  189.4260  175.0460  145.0480 C   0  0  0  0  0  0  0  0  0  0  0  0
  189.5620  175.7900  142.0840 C   0  0  0  0  0  3  0  0  0  0  0  0
  190.0400  174.2460  143.9690 C   0  0  0  0  0  3  0  0  0  0  0  0
  186.0570  177.3420  144.8650 N   0  0  0  0  0  0  0  0  0  0  0  0
  185.6100  177.0810  142.6560 N   0  0  0  0  0  0  0  0  0  0  0  0
  186.4380  176.7980  143.6870 C   0  0  0  0  0  0  0  0  0  0  0  0
  184.9290  178.0040  144.5560 C   0  0  2  0  0  3  0  0  0  0  0  0
  184.6600  177.8470  143.2160 C   0  0  0  0  0  0  0  0  0  0  0  0
  184.4960  178.4030  146.9470 C   0  0  0  0  0  1  0  0  0  0  0  0
  184.1440  178.8130  145.5310 C   0  0  0  0  0  2  0  0  0  0  0  0
  183.5150  178.4340  142.4640 C   0  0  0  0  0  2  0  0  0  0  0  0
  183.7400  178.3190  141.0920 O   0  0  0  0  0  1  0  0  0  0  0  0
  189.9870  174.9220  146.4270 C   0  0  0  0  0  2  0  0  0  0  0  0
  191.0770  175.8230  146.6060 O   0  0  0  0  0  0  0  0  0  0  0  0
  193.4610  176.3790  146.5530 C   0  0  0  0  0  3  0  0  0  0  0  0
  192.4100  175.4660  146.3690 C   0  0  0  0  0  0  0  0  0  0  0  0
  195.0730  174.7020  145.8450 C   0  0  0  0  0  0  0  0  0  0  0  0
  194.0190  173.7940  145.6660 C   0  0  0  0  0  3  0  0  0  0  0  0
  192.6990  174.1720  145.9290 C   0  0  0  0  0  3  0  0  0  0  0  0
  194.7780  176.0000  146.2850 C   0  0  0  0  0  3  0  0  0  0  0  0
  196.5140  175.4380  143.2130 C   0  0  0  0  0  1  0  0  0  0  0  0
  197.1560  174.8000  144.3510 N   0  0  0  0  0  2  0  0  0  0  0  0
  196.4740  174.3380  145.5270 C   0  0  0  0  0  0  0  0  0  0  0  0
  197.1060  173.5970  146.3270 O   0  0  0  0  0  0  0  0  0  0  0  0
  190.8000  173.6000  141.7280 C   0  0  1  0  0  3  0  0  0  0  0  0
  193.1490  173.0150  141.1440 C   0  0  1  0  0  3  0  0  0  0  0  0
  192.1640  173.1810  142.2860 C   0  0  1  0  0  3  0  0  0  0  0  0
  193.1970  174.2570  142.0070 C   0  0  0  0  0  2  0  0  0  0  0  0
  193.8670  171.4160  142.8190 N   0  0  0  0  0  1  0  0  0  0  0  0
  194.2440  172.0580  141.5720 C   0  0  0  0  0  2  0  0  0  0  0  0
  189.9170  172.4170  141.2980 C   0  0  2  0  0  3  0  0  0  0  0  0
  190.3510  171.0950  141.9230 C   0  0  0  0  0  1  0  0  0  0  0  0
  189.8590  172.3070  139.7800 C   0  0  0  0  0  2  0  0  0  0  0  0
  188.9820  173.3430  139.2260 C   0  0  0  0  0  0  0  0  0  0  0  0
  188.2900  174.1610  138.7870 N   0  0  0  0  0  0  0  0  0  0  0  0
  1  4  1  0  0  0  0
  2  5  2  0  0  0  0
  3  7  2  0  0  0  0
  4 10  1  1  0  0  0
  4  2  1  0  0  0  0
  5 17  1  0  0  0  0
  6  1  2  0  0  0  0
  6  3  1  0  0  0  0
  7  5  1  0  0  0  0
  9 12  2  0  0  0  0
  9 10  1  0  0  0  0
 10  8  2  0  0  0  0
 11  8  1  0  0  0  0
 11 14  1  6  0  0  0
 12 11  1  0  0  0  0
 14 13  1  0  0  0  0
 15 12  1  0  0  0  0
 16 15  1  0  0  0  0
 17 18  1  0  0  0  0
 20 19  1  0  0  0  0
 20 18  1  0  0  0  0
 21 24  1  0  0  0  0
 22 21  2  0  0  0  0
 22 23  1  0  0  0  0
 23 20  2  0  0  0  0
 24 19  2  0  0  0  0
 25 26  1  0  0  0  0
 26 27  1  0  0  0  0
 27 21  1  0  0  0  0
 27 28  2  0  0  0  0
 29 35  1  1  0  0  0
 29  3  1  0  0  0  0
 30 34  1  1  0  0  0
 30 32  1  0  0  0  0
 30 31  1  0  0  0  0
 31 29  1  6  0  0  0
 32 31  1  0  0  0  0
 34 33  1  0  0  0  0
 35 36  1  1  0  0  0
 37 35  1  0  0  0  0
 38 37  1  0  0  0  0
 39 38  3  0  0  0  0
M  END
>  <MODEL>
2

>  <REMARK>
 VINA RESULT:      -6.8      2.673      8.591
  Name = 
  13 active torsions:
  status: ('A' for Active; 'I' for Inactive)
    1  A    between atoms: O_1  and  C_2
    2  A    between atoms: O_1  and  C_17
    3  A    between atoms: C_2  and  C_32
    4  A    between atoms: C_4  and  C_36
    5  A    between atoms: C_10  and  C_20
    6  A    between atoms: C_11  and  C_29
    7  A    between atoms: C_12  and  C_16
    8  A    between atoms: C_12  and  C_20
    9  A    between atoms: C_16  and  C_22
   10  A    between atoms: C_18  and  C_19
   11  A    between atoms: C_20  and  C_24
   12  A    between atoms: C_21  and  C_26
   13  A    between atoms: CA_27  and  C_35
                            x       y       z     vdW  Elec       q    Type
                         _______ _______ _______ _____ _____    ______ ____

>  <TORSDO>
F 13

$$$$
=
 OpenBabel11042417313D

 39 42  0  0  1  0  0  0  0  0999 V2000
  187.7510  174.6960  142.1460 N   0  0  0  0  0  0  0  0  0  0  0  0
  189.7390  174.7450  143.5550 C   0  0  0  0  0  3  0  0  0  0  0  0
  187.0770  176.2590  143.9160 C   0  0  0  0  0  0  0  0  0  0  0  0
  189.1610  175.0570  142.2120 C   0  0  1  0  0  3  0  0  0  0  0  0
  189.2830  175.2870  144.6830 C   0  0  0  0  0  0  0  0  0  0  0  0
  186.8240  175.2540  142.8640 C   0  0  0  0  0  3  0  0  0  0  0  0
  188.1430  176.2250  144.7310 C   0  0  0  0  0  3  0  0  0  0  0  0
  189.3650  174.0630  139.9350 N   0  0  0  0  0  0  0  0  0  0  0  0
  191.1730  173.8790  141.2950 N   0  0  0  0  0  2  0  0  0  0  0  0
  189.9130  174.3460  141.1380 C   0  0  0  0  0  0  0  0  0  0  0  0
  190.3340  173.3820  139.3010 C   0  0  0  0  0  0  0  0  0  0  0  0
  191.4310  173.2720  140.1240 C   0  0  0  0  0  0  0  0  0  0  0  0
  188.9720  173.4400  137.2510 C   0  0  0  0  0  1  0  0  0  0  0  0
  190.2210  172.8800  137.9010 C   0  0  0  0  0  2  0  0  0  0  0  0
  192.7250  172.6090  139.7990 C   0  0  0  0  0  2  0  0  0  0  0  0
  193.3010  172.0980  140.9630 O   0  0  0  0  0  1  0  0  0  0  0  0
  190.0160  175.0020  145.9520 C   0  0  0  0  0  2  0  0  0  0  0  0
  191.1180  175.8930  146.1050 O   0  0  0  0  0  0  0  0  0  0  0  0
  193.5140  176.3450  146.3360 C   0  0  0  0  0  3  0  0  0  0  0  0
  192.4530  175.4800  146.0210 C   0  0  0  0  0  0  0  0  0  0  0  0
  195.1240  174.6040  145.8020 C   0  0  0  0  0  0  0  0  0  0  0  0
  194.0600  173.7430  145.4910 C   0  0  0  0  0  3  0  0  0  0  0  0
  192.7350  174.1770  145.6040 C   0  0  0  0  0  3  0  0  0  0  0  0
  194.8360  175.9110  146.2190 C   0  0  0  0  0  3  0  0  0  0  0  0
  196.8370  175.1350  143.2860 C   0  0  0  0  0  1  0  0  0  0  0  0
  197.3440  174.5500  144.5170 N   0  0  0  0  0  2  0  0  0  0  0  0
  196.5360  174.1810  145.6450 C   0  0  0  0  0  0  0  0  0  0  0  0
  197.0610  173.4720  146.5450 O   0  0  0  0  0  0  0  0  0  0  0  0
  185.9940  177.2680  144.1710 C   0  0  1  0  0  3  0  0  0  0  0  0
  184.4880  177.9460  146.0350 C   0  0  1  0  0  3  0  0  0  0  0  0
  185.9310  177.6840  145.6440 C   0  0  1  0  0  3  0  0  0  0  0  0
  185.1590  176.6530  146.4470 C   0  0  0  0  0  2  0  0  0  0  0  0
  185.8190  179.3060  147.5400 N   0  0  0  0  0  1  0  0  0  0  0  0
  184.4620  178.9000  147.2130 C   0  0  0  0  0  2  0  0  0  0  0  0
  186.0800  178.4540  143.1960 C   0  0  2  0  0  3  0  0  0  0  0  0
  185.9340  179.8050  143.8910 C   0  0  0  0  0  1  0  0  0  0  0  0
  185.0640  178.3080  142.0730 C   0  0  0  0  0  2  0  0  0  0  0  0
  185.7370  177.9670  140.8150 C   0  0  0  0  0  0  0  0  0  0  0  0
  186.2680  177.6960  139.8230 N   0  0  0  0  0  0  0  0  0  0  0  0
  1  4  1  0  0  0  0
  1  6  2  0  0  0  0
  2  5  2  0  0  0  0
  3 29  1  0  0  0  0
  3  7  2  0  0  0  0
  4 10  1  6  0  0  0
  4  2  1  0  0  0  0
  5  7  1  0  0  0  0
  5 17  1  0  0  0  0
  6  3  1  0  0  0  0
  8 10  2  0  0  0  0
 10  9  1  0  0  0  0
 11  8  1  0  0  0  0
 11 12  2  0  0  0  0
 12  9  1  0  0  0  0
 13 14  1  0  0  0  0
 14 11  1  0  0  0  0
 15 12  1  0  0  0  0
 15 16  1  0  0  0  0
 17 18  1  0  0  0  0
 20 18  1  0  0  0  0
 20 19  2  0  0  0  0
 21 24  2  0  0  0  0
 22 23  2  0  0  0  0
 22 21  1  0  0  0  0
 23 20  1  0  0  0  0
 24 19  1  0  0  0  0
 25 26  1  0  0  0  0
 26 27  1  0  0  0  0
 27 21  1  0  0  0  0
 27 28  2  0  0  0  0
 29 35  1  6  0  0  0
 30 32  1  0  0  0  0
 30 34  1  1  0  0  0
 31 29  1  6  0  0  0
 31 30  1  0  0  0  0
 31 32  1  0  0  0  0
 34 33  1  0  0  0  0
 35 36  1  1  0  0  0
 37 35  1  0  0  0  0
 38 37  1  0  0  0  0
 39 38  3  0  0  0  0
M  END
>  <MODEL>
3

>  <REMARK>
 VINA RESULT:      -6.8      2.385      6.466
  Name = 
  13 active torsions:
  status: ('A' for Active; 'I' for Inactive)
    1  A    between atoms: O_1  and  C_2
    2  A    between atoms: O_1  and  C_17
    3  A    between atoms: C_2  and  C_32
    4  A    between atoms: C_4  and  C_36
    5  A    between atoms: C_10  and  C_20
    6  A    between atoms: C_11  and  C_29
    7  A    between atoms: C_12  and  C_16
    8  A    between atoms: C_12  and  C_20
    9  A    between atoms: C_16  and  C_22
   10  A    between atoms: C_18  and  C_19
   11  A    between atoms: C_20  and  C_24
   12  A    between atoms: C_21  and  C_26
   13  A    between atoms: CA_27  and  C_35
                            x       y       z     vdW  Elec       q    Type
                         _______ _______ _______ _____ _____    ______ ____

>  <TORSDO>
F 13

$$$$
=
 OpenBabel11042417313D

 39 42  0  0  1  0  0  0  0  0999 V2000
  188.0630  174.7720  142.0400 N   0  0  0  0  0  0  0  0  0  0  0  0
  189.9170  174.6540  143.6170 C   0  0  0  0  0  3  0  0  0  0  0  0
  187.3000  176.2690  143.8320 C   0  0  0  0  0  0  0  0  0  0  0  0
  189.4760  175.0630  142.2490 C   0  0  1  0  0  3  0  0  0  0  0  0
  189.3860  175.1560  144.7300 C   0  0  0  0  0  0  0  0  0  0  0  0
  187.1000  175.3340  142.7060 C   0  0  0  0  0  3  0  0  0  0  0  0
  188.2860  176.1420  144.7320 C   0  0  0  0  0  3  0  0  0  0  0  0
  191.6420  174.3990  141.2100 N   0  0  0  0  0  0  0  0  0  0  0  0
  189.7520  173.7300  140.1460 N   0  0  0  0  0  0  0  0  0  0  0  0
  190.2900  174.3760  141.2060 C   0  0  0  0  0  0  0  0  0  0  0  0
  191.9710  173.7280  140.0930 C   0  0  2  0  0  3  0  0  0  0  0  0
  190.8250  173.3210  139.4500 C   0  0  0  0  0  0  0  0  0  0  0  0
  194.0130  174.7050  139.1240 C   0  0  0  0  0  1  0  0  0  0  0  0
  193.3740  173.4450  139.6730 C   0  0  0  0  0  2  0  0  0  0  0  0
  190.7460  172.5330  138.1880 C   0  0  0  0  0  2  0  0  0  0  0  0
  189.4230  172.4760  137.7460 O   0  0  0  0  0  1  0  0  0  0  0  0
  189.9900  174.7700  146.0400 C   0  0  0  0  0  2  0  0  0  0  0  0
  191.0820  175.6280  146.3600 O   0  0  0  0  0  0  0  0  0  0  0  0
  192.7830  173.9870  145.7190 C   0  0  0  0  0  3  0  0  0  0  0  0
  192.4200  175.2720  146.1540 C   0  0  0  0  0  0  0  0  0  0  0  0
  195.1340  174.6010  145.7870 C   0  0  0  0  0  0  0  0  0  0  0  0
  194.7660  175.8840  146.2180 C   0  0  0  0  0  3  0  0  0  0  0  0
  193.4200  176.2180  146.3960 C   0  0  0  0  0  3  0  0  0  0  0  0
  194.1280  173.6550  145.5450 C   0  0  0  0  0  3  0  0  0  0  0  0
  196.8380  175.1480  143.2690 C   0  0  0  0  0  1  0  0  0  0  0  0
  197.3570  174.5880  144.5060 N   0  0  0  0  0  2  0  0  0  0  0  0
  196.5560  174.2110  145.6360 C   0  0  0  0  0  0  0  0  0  0  0  0
  197.0970  173.5240  146.5440 O   0  0  0  0  0  0  0  0  0  0  0  0
  186.2410  177.3120  144.0480 C   0  0  1  0  0  3  0  0  0  0  0  0
  184.6180  177.8640  145.8550 C   0  0  1  0  0  3  0  0  0  0  0  0
  186.0880  177.6770  145.5280 C   0  0  1  0  0  3  0  0  0  0  0  0
  185.3250  176.5890  146.2600 C   0  0  0  0  0  2  0  0  0  0  0  0
  185.8070  179.2650  147.4380 N   0  0  0  0  0  1  0  0  0  0  0  0
  184.4930  178.7770  147.0580 C   0  0  0  0  0  2  0  0  0  0  0  0
  186.4430  178.5290  143.1290 C   0  0  2  0  0  3  0  0  0  0  0  0
  185.9630  179.8330  143.7570 C   0  0  0  0  0  1  0  0  0  0  0  0
  185.7840  178.3020  141.7760 C   0  0  0  0  0  2  0  0  0  0  0  0
  184.3260  178.2330  141.9220 C   0  0  0  0  0  0  0  0  0  0  0  0
  183.1760  178.1790  142.0390 N   0  0  0  0  0  0  0  0  0  0  0  0
  1  4  1  0  0  0  0
  1  6  2  0  0  0  0
  2  5  2  0  0  0  0
  3 29  1  0  0  0  0
  3  7  2  0  0  0  0
  4 10  1  6  0  0  0
  4  2  1  0  0  0  0
  5  7  1  0  0  0  0
  5 17  1  0  0  0  0
  6  3  1  0  0  0  0
  9 10  1  0  0  0  0
 10  8  2  0  0  0  0
 11 14  1  1  0  0  0
 11  8  1  0  0  0  0
 12 11  1  0  0  0  0
 12  9  2  0  0  0  0
 13 14  1  0  0  0  0
 15 12  1  0  0  0  0
 16 15  1  0  0  0  0
 17 18  1  0  0  0  0
 19 20  1  0  0  0  0
 20 18  1  0  0  0  0
 20 23  2  0  0  0  0
 21 22  2  0  0  0  0
 22 23  1  0  0  0  0
 24 19  2  0  0  0  0
 24 21  1  0  0  0  0
 25 26  1  0  0  0  0
 26 27  1  0  0  0  0
 27 21  1  0  0  0  0
 27 28  2  0  0  0  0
 29 35  1  6  0  0  0
 30 32  1  0  0  0  0
 30 34  1  1  0  0  0
 31 29  1  6  0  0  0
 31 30  1  0  0  0  0
 31 32  1  0  0  0  0
 34 33  1  0  0  0  0
 35 36  1  1  0  0  0
 37 38  1  0  0  0  0
 37 35  1  0  0  0  0
 38 39  3  0  0  0  0
M  END
>  <MODEL>
4

>  <REMARK>
 VINA RESULT:      -6.8      2.118      6.205
  Name = 
  13 active torsions:
  status: ('A' for Active; 'I' for Inactive)
    1  A    between atoms: O_1  and  C_2
    2  A    between atoms: O_1  and  C_17
    3  A    between atoms: C_2  and  C_32
    4  A    between atoms: C_4  and  C_36
    5  A    between atoms: C_10  and  C_20
    6  A    between atoms: C_11  and  C_29
    7  A    between atoms: C_12  and  C_16
    8  A    between atoms: C_12  and  C_20
    9  A    between atoms: C_16  and  C_22
   10  A    between atoms: C_18  and  C_19
   11  A    between atoms: C_20  and  C_24
   12  A    between atoms: C_21  and  C_26
   13  A    between atoms: CA_27  and  C_35
                            x       y       z     vdW  Elec       q    Type
                         _______ _______ _______ _____ _____    ______ ____

>  <TORSDO>
F 13

$$$$
=
 OpenBabel11042417313D

 39 42  0  0  1  0  0  0  0  0999 V2000
  188.3870  176.3230  142.4860 N   0  0  0  0  0  0  0  0  0  0  0  0
  188.3250  175.7530  144.8550 C   0  0  0  0  0  3  0  0  0  0  0  0
  189.8860  174.3800  142.5780 C   0  0  0  0  0  0  0  0  0  0  0  0
  187.5460  175.8650  143.5840 C   0  0  1  0  0  3  0  0  0  0  0  0
  189.3800  174.9510  144.9890 C   0  0  0  0  0  0  0  0  0  0  0  0
  189.3920  175.6520  142.0120 C   0  0  0  0  0  3  0  0  0  0  0  0
  189.9100  174.1150  143.8930 C   0  0  0  0  0  3  0  0  0  0  0  0
  186.0420  177.3030  144.9570 N   0  0  0  0  0  0  0  0  0  0  0  0
  185.5690  177.1530  142.7420 N   0  0  0  0  0  0  0  0  0  0  0  0
  186.3910  176.7930  143.7550 C   0  0  0  0  0  0  0  0  0  0  0  0
  184.9410  178.0240  144.6850 C   0  0  2  0  0  3  0  0  0  0  0  0
  184.6560  177.9340  143.3420 C   0  0  0  0  0  0  0  0  0  0  0  0
  184.6730  178.4640  147.0930 C   0  0  0  0  0  1  0  0  0  0  0  0
  184.1980  178.8250  145.6990 C   0  0  0  0  0  2  0  0  0  0  0  0
  183.5320  178.6000  142.6260 C   0  0  0  0  0  2  0  0  0  0  0  0
  183.3370  177.9940  141.3840 O   0  0  0  0  0  1  0  0  0  0  0  0
  190.0050  174.8240  146.3400 C   0  0  0  0  0  2  0  0  0  0  0  0
  191.0780  175.7510  146.4840 O   0  0  0  0  0  0  0  0  0  0  0  0
  193.4630  176.3000  146.5600 C   0  0  0  0  0  3  0  0  0  0  0  0
  192.4180  175.4070  146.2740 C   0  0  0  0  0  0  0  0  0  0  0  0
  195.0990  174.6700  145.8010 C   0  0  0  0  0  0  0  0  0  0  0  0
  194.0510  173.7800  145.5200 C   0  0  0  0  0  3  0  0  0  0  0  0
  192.7230  174.1440  145.7590 C   0  0  0  0  0  3  0  0  0  0  0  0
  194.7890  175.9360  146.3170 C   0  0  0  0  0  3  0  0  0  0  0  0
  196.5670  175.3670  143.1740 C   0  0  0  0  0  1  0  0  0  0  0  0
  197.2030  174.7680  144.3370 N   0  0  0  0  0  2  0  0  0  0  0  0
  196.5110  174.3230  145.5130 C   0  0  0  0  0  0  0  0  0  0  0  0
  197.1430  173.6130  146.3410 O   0  0  0  0  0  0  0  0  0  0  0  0
  190.5330  173.4150  141.6260 C   0  0  1  0  0  3  0  0  0  0  0  0
  189.9830  172.2370  139.5020 C   0  0  1  0  0  3  0  0  0  0  0  0
  190.0170  173.5870  140.1940 C   0  0  1  0  0  3  0  0  0  0  0  0
  188.7010  172.8530  140.0210 C   0  0  0  0  0  2  0  0  0  0  0  0
  190.2930  173.8570  137.7240 N   0  0  0  0  0  1  0  0  0  0  0  0
  190.0760  172.4480  138.0040 C   0  0  0  0  0  2  0  0  0  0  0  0
  192.0670  173.4470  141.7390 C   0  0  2  0  0  3  0  0  0  0  0  0
  192.7250  174.2760  140.6400 C   0  0  0  0  0  1  0  0  0  0  0  0
  192.6380  172.0370  141.7710 C   0  0  0  0  0  2  0  0  0  0  0  0
  192.3220  171.3860  143.0470 C   0  0  0  0  0  0  0  0  0  0  0  0
  192.0730  170.8710  144.0540 N   0  0  0  0  0  0  0  0  0  0  0  0
  1  4  1  0  0  0  0
  2  5  2  0  0  0  0
  3  7  2  0  0  0  0
  4 10  1  1  0  0  0
  4  2  1  0  0  0  0
  5 17  1  0  0  0  0
  6  1  2  0  0  0  0
  6  3  1  0  0  0  0
  7  5  1  0  0  0  0
  9 12  2  0  0  0  0
  9 10  1  0  0  0  0
 10  8  2  0  0  0  0
 11  8  1  0  0  0  0
 11 14  1  6  0  0  0
 12 11  1  0  0  0  0
 14 13  1  0  0  0  0
 15 12  1  0  0  0  0
 16 15  1  0  0  0  0
 17 18  1  0  0  0  0
 20 18  1  0  0  0  0
 20 19  2  0  0  0  0
 21 24  2  0  0  0  0
 22 23  2  0  0  0  0
 22 21  1  0  0  0  0
 23 20  1  0  0  0  0
 24 19  1  0  0  0  0
 25 26  1  0  0  0  0
 26 27  1  0  0  0  0
 27 21  1  0  0  0  0
 27 28  2  0  0  0  0
 29 35  1  6  0  0  0
 29  3  1  0  0  0  0
 30 34  1  6  0  0  0
 30 32  1  0  0  0  0
 30 31  1  0  0  0  0
 31 29  1  1  0  0  0
 32 31  1  0  0  0  0
 33 34  1  0  0  0  0
 35 36  1  6  0  0  0
 35 37  1  0  0  0  0
 37 38  1  0  0  0  0
 38 39  3  0  0  0  0
M  END
>  <MODEL>
5

>  <REMARK>
 VINA RESULT:      -6.6      2.559      8.412
  Name = 
  13 active torsions:
  status: ('A' for Active; 'I' for Inactive)
    1  A    between atoms: O_1  and  C_2
    2  A    between atoms: O_1  and  C_17
    3  A    between atoms: C_2  and  C_32
    4  A    between atoms: C_4  and  C_36
    5  A    between atoms: C_10  and  C_20
    6  A    between atoms: C_11  and  C_29
    7  A    between atoms: C_12  and  C_16
    8  A    between atoms: C_12  and  C_20
    9  A    between atoms: C_16  and  C_22
   10  A    between atoms: C_18  and  C_19
   11  A    between atoms: C_20  and  C_24
   12  A    between atoms: C_21  and  C_26
   13  A    between atoms: CA_27  and  C_35
                            x       y       z     vdW  Elec       q    Type
                         _______ _______ _______ _____ _____    ______ ____

>  <TORSDO>
F 13

$$$$
=
 OpenBabel11042417313D

 39 42  0  0  1  0  0  0  0  0999 V2000
  189.9410  177.3590  144.0460 N   0  0  0  0  0  0  0  0  0  0  0  0
  189.8900  175.2430  142.8380 C   0  0  0  0  0  3  0  0  0  0  0  0
  187.5330  177.0470  143.6740 C   0  0  0  0  0  0  0  0  0  0  0  0
  190.2260  175.9320  144.1210 C   0  0  1  0  0  3  0  0  0  0  0  0
  188.6620  175.2310  142.3230 C   0  0  0  0  0  0  0  0  0  0  0  0
  188.7510  177.8550  143.8920 C   0  0  0  0  0  3  0  0  0  0  0  0
  187.5130  175.9230  142.9430 C   0  0  0  0  0  3  0  0  0  0  0  0
  192.1740  174.4990  144.7270 N   0  0  0  0  0  0  0  0  0  0  0  0
  192.5460  176.7340  144.6170 N   0  0  0  0  0  2  0  0  0  0  0  0
  191.6610  175.7230  144.4710 C   0  0  0  0  0  0  0  0  0  0  0  0
  193.4520  174.7550  145.0500 C   0  0  0  0  0  0  0  0  0  0  0  0
  193.6790  176.1100  144.9810 C   0  0  0  0  0  0  0  0  0  0  0  0
  193.7810  172.3470  145.4430 C   0  0  0  0  0  1  0  0  0  0  0  0
  194.4560  173.7020  145.3790 C   0  0  0  0  0  2  0  0  0  0  0  0
  194.9670  176.8110  145.2440 C   0  0  0  0  0  2  0  0  0  0  0  0
  195.7910  176.7250  144.1210 O   0  0  0  0  0  1  0  0  0  0  0  0
  188.4140  174.4060  141.1030 C   0  0  0  0  0  2  0  0  0  0  0  0
  189.6040  173.7280  140.7080 O   0  0  0  0  0  0  0  0  0  0  0  0
  191.3010  173.4020  138.9730 C   0  0  0  0  0  3  0  0  0  0  0  0
  189.9600  173.5250  139.3690 C   0  0  0  0  0  0  0  0  0  0  0  0
  190.6190  173.1500  136.6530 C   0  0  0  0  0  0  0  0  0  0  0  0
  189.2800  173.2710  137.0550 C   0  0  0  0  0  3  0  0  0  0  0  0
  188.9530  173.4530  138.4020 C   0  0  0  0  0  3  0  0  0  0  0  0
  191.6250  173.2240  137.6260 C   0  0  0  0  0  3  0  0  0  0  0  0
  190.8700  170.4450  135.1830 C   0  0  0  0  0  1  0  0  0  0  0  0
  190.9780  171.7440  134.5380 N   0  0  0  0  0  2  0  0  0  0  0  0
  190.9910  173.0040  135.2260 C   0  0  0  0  0  0  0  0  0  0  0  0
  191.3250  174.0310  134.5760 O   0  0  0  0  0  0  0  0  0  0  0  0
  186.2370  177.6190  144.1730 C   0  0  1  0  0  3  0  0  0  0  0  0
  184.9840  177.6050  146.3240 C   0  0  1  0  0  3  0  0  0  0  0  0
  186.2990  177.9710  145.6620 C   0  0  1  0  0  3  0  0  0  0  0  0
  186.1930  176.7120  146.5020 C   0  0  0  0  0  2  0  0  0  0  0  0
  185.9200  179.3760  147.6900 N   0  0  0  0  0  1  0  0  0  0  0  0
  184.8000  178.4600  147.5620 C   0  0  0  0  0  2  0  0  0  0  0  0
  185.7460  178.7750  143.2840 C   0  0  2  0  0  3  0  0  0  0  0  0
  185.4370  180.0410  144.0750 C   0  0  0  0  0  1  0  0  0  0  0  0
  184.5440  178.3460  142.4530 C   0  0  0  0  0  2  0  0  0  0  0  0
  184.9540  178.0530  141.0750 C   0  0  0  0  0  0  0  0  0  0  0  0
  185.2770  177.8230  139.9880 N   0  0  0  0  0  0  0  0  0  0  0  0
  1  4  1  0  0  0  0
  2  4  1  0  0  0  0
  3  6  1  0  0  0  0
  3 29  1  0  0  0  0
  4 10  1  6  0  0  0
  5  2  2  0  0  0  0
  5  7  1  0  0  0  0
  6  1  2  0  0  0  0
  7  3  2  0  0  0  0
  8 11  1  0  0  0  0
  9 12  1  0  0  0  0
 10  9  1  0  0  0  0
 10  8  2  0  0  0  0
 11 14  1  0  0  0  0
 12 11  2  0  0  0  0
 12 15  1  0  0  0  0
 14 13  1  0  0  0  0
 16 15  1  0  0  0  0
 17  5  1  0  0  0  0
 18 17  1  0  0  0  0
 19 20  1  0  0  0  0
 20 18  1  0  0  0  0
 21 22  2  0  0  0  0
 21 24  1  0  0  0  0
 22 23  1  0  0  0  0
 23 20  2  0  0  0  0
 24 19  2  0  0  0  0
 26 25  1  0  0  0  0
 26 27  1  0  0  0  0
 27 21  1  0  0  0  0
 28 27  2  0  0  0  0
 29 35  1  6  0  0  0
 30 32  1  0  0  0  0
 30 34  1  1  0  0  0
 31 29  1  6  0  0  0
 31 30  1  0  0  0  0
 31 32  1  0  0  0  0
 34 33  1  0  0  0  0
 35 36  1  1  0  0  0
 37 35  1  0  0  0  0
 38 37  1  0  0  0  0
 39 38  3  0  0  0  0
M  END
>  <MODEL>
6

>  <REMARK>
 VINA RESULT:      -6.5      2.193      3.703
  Name = 
  13 active torsions:
  status: ('A' for Active; 'I' for Inactive)
    1  A    between atoms: O_1  and  C_2
    2  A    between atoms: O_1  and  C_17
    3  A    between atoms: C_2  and  C_32
    4  A    between atoms: C_4  and  C_36
    5  A    between atoms: C_10  and  C_20
    6  A    between atoms: C_11  and  C_29
    7  A    between atoms: C_12  and  C_16
    8  A    between atoms: C_12  and  C_20
    9  A    between atoms: C_16  and  C_22
   10  A    between atoms: C_18  and  C_19
   11  A    between atoms: C_20  and  C_24
   12  A    between atoms: C_21  and  C_26
   13  A    between atoms: CA_27  and  C_35
                            x       y       z     vdW  Elec       q    Type
                         _______ _______ _______ _____ _____    ______ ____

>  <TORSDO>
F 13

$$$$
=
 OpenBabel11042417313D

 39 42  0  0  1  0  0  0  0  0999 V2000
  187.8300  174.9390  142.4210 N   0  0  0  0  0  0  0  0  0  0  0  0
  189.8940  175.7670  143.4170 C   0  0  0  0  0  3  0  0  0  0  0  0
  187.0810  177.0270  143.4750 C   0  0  0  0  0  0  0  0  0  0  0  0
  189.1750  175.4300  142.1510 C   0  0  1  0  0  3  0  0  0  0  0  0
  189.4550  176.6850  144.2760 C   0  0  0  0  0  0  0  0  0  0  0  0
  186.8920  175.6530  142.9650 C   0  0  0  0  0  3  0  0  0  0  0  0
  188.2000  177.4410  144.0870 C   0  0  0  0  0  3  0  0  0  0  0  0
  191.1760  174.0050  141.7210 N   0  0  0  0  0  0  0  0  0  0  0  0
  189.4760  173.8560  140.2250 N   0  0  0  0  0  2  0  0  0  0  0  0
  189.9350  174.4110  141.3700 C   0  0  0  0  0  0  0  0  0  0  0  0
  191.5140  173.1470  140.7440 C   0  0  0  0  0  0  0  0  0  0  0  0
  190.4830  173.0550  139.8380 C   0  0  0  0  0  0  0  0  0  0  0  0
  193.7610  172.9550  141.7340 C   0  0  0  0  0  1  0  0  0  0  0  0
  192.7990  172.3910  140.7070 C   0  0  0  0  0  2  0  0  0  0  0  0
  190.4440  172.2000  138.6190 C   0  0  0  0  0  2  0  0  0  0  0  0
  189.3280  171.3640  138.6620 O   0  0  0  0  0  1  0  0  0  0  0  0
  190.3190  177.0310  145.4450 C   0  0  0  0  0  2  0  0  0  0  0  0
  190.8560  175.8510  146.0360 O   0  0  0  0  0  0  0  0  0  0  0  0
  192.5480  174.1890  145.4250 C   0  0  0  0  0  3  0  0  0  0  0  0
  192.1940  175.4650  145.8920 C   0  0  0  0  0  0  0  0  0  0  0  0
  194.9070  174.7330  145.6540 C   0  0  0  0  0  0  0  0  0  0  0  0
  194.5470  176.0070  146.1170 C   0  0  0  0  0  3  0  0  0  0  0  0
  193.2020  176.3720  146.2310 C   0  0  0  0  0  3  0  0  0  0  0  0
  193.8920  173.8260  145.3160 C   0  0  0  0  0  3  0  0  0  0  0  0
  196.7130  175.1610  143.1850 C   0  0  0  0  0  1  0  0  0  0  0  0
  197.1740  174.6310  144.4580 N   0  0  0  0  0  2  0  0  0  0  0  0
  196.3240  174.3080  145.5690 C   0  0  0  0  0  0  0  0  0  0  0  0
  196.8170  173.6400  146.5180 O   0  0  0  0  0  0  0  0  0  0  0  0
  185.8880  177.9390  143.4370 C   0  0  1  0  0  3  0  0  0  0  0  0
  183.8450  178.6290  142.1910 C   0  0  1  0  0  3  0  0  0  0  0  0
  184.9010  177.5480  142.3330 C   0  0  1  0  0  3  0  0  0  0  0  0
  184.9760  178.5420  141.1890 C   0  0  0  0  0  2  0  0  0  0  0  0
  182.7430  177.9090  140.1550 N   0  0  0  0  0  1  0  0  0  0  0  0
  182.5920  178.0200  141.5950 C   0  0  0  0  0  2  0  0  0  0  0  0
  185.2380  178.0840  144.8240 C   0  0  2  0  0  3  0  0  0  0  0  0
  185.5850  179.4040  145.5050 C   0  0  0  0  0  1  0  0  0  0  0  0
  185.5930  176.9020  145.7160 C   0  0  0  0  0  2  0  0  0  0  0  0
  185.7950  177.3470  147.0980 C   0  0  0  0  0  0  0  0  0  0  0  0
  185.9540  177.6960  148.1910 N   0  0  0  0  0  0  0  0  0  0  0  0
  1  6  2  0  0  0  0
  2  5  2  0  0  0  0
  3  7  2  0  0  0  0
  4 10  1  1  0  0  0
  4  1  1  0  0  0  0
  4  2  1  0  0  0  0
  5 17  1  0  0  0  0
  6  3  1  0  0  0  0
  7  5  1  0  0  0  0
  9 10  1  0  0  0  0
 10  8  2  0  0  0  0
 11  8  1  0  0  0  0
 12  9  1  0  0  0  0
 12 11  2  0  0  0  0
 14 11  1  0  0  0  0
 14 13  1  0  0  0  0
 15 16  1  0  0  0  0
 15 12  1  0  0  0  0
 17 18  1  0  0  0  0
 19 20  1  0  0  0  0
 20 18  1  0  0  0  0
 20 23  2  0  0  0  0
 21 22  2  0  0  0  0
 22 23  1  0  0  0  0
 24 19  2  0  0  0  0
 24 21  1  0  0  0  0
 25 26  1  0  0  0  0
 26 27  1  0  0  0  0
 27 21  1  0  0  0  0
 27 28  2  0  0  0  0
 29  3  1  0  0  0  0
 29 35  1  1  0  0  0
 30 34  1  6  0  0  0
 30 31  1  0  0  0  0
 31 29  1  1  0  0  0
 32 30  1  0  0  0  0
 32 31  1  0  0  0  0
 33 34  1  0  0  0  0
 35 36  1  1  0  0  0
 35 37  1  0  0  0  0
 37 38  1  0  0  0  0
 38 39  3  0  0  0  0
M  END
>  <MODEL>
7

>  <REMARK>
 VINA RESULT:      -6.4      2.260      5.919
  Name = 
  13 active torsions:
  status: ('A' for Active; 'I' for Inactive)
    1  A    between atoms: O_1  and  C_2
    2  A    between atoms: O_1  and  C_17
    3  A    between atoms: C_2  and  C_32
    4  A    between atoms: C_4  and  C_36
    5  A    between atoms: C_10  and  C_20
    6  A    between atoms: C_11  and  C_29
    7  A    between atoms: C_12  and  C_16
    8  A    between atoms: C_12  and  C_20
    9  A    between atoms: C_16  and  C_22
   10  A    between atoms: C_18  and  C_19
   11  A    between atoms: C_20  and  C_24
   12  A    between atoms: C_21  and  C_26
   13  A    between atoms: CA_27  and  C_35
                            x       y       z     vdW  Elec       q    Type
                         _______ _______ _______ _____ _____    ______ ____

>  <TORSDO>
F 13

$$$$
=
 OpenBabel11042417313D

 39 42  0  0  1  0  0  0  0  0999 V2000
  190.5470  175.9710  146.7740 N   0  0  0  0  0  0  0  0  0  0  0  0
  189.5220  174.3360  145.2850 C   0  0  0  0  0  3  0  0  0  0  0  0
  192.5150  174.8420  145.8310 C   0  0  0  0  0  0  0  0  0  0  0  0
  189.7320  175.7860  145.5800 C   0  0  1  0  0  3  0  0  0  0  0  0
  190.5250  173.4940  145.0430 C   0  0  0  0  0  0  0  0  0  0  0  0
  191.7870  175.5950  146.8730 C   0  0  0  0  0  3  0  0  0  0  0  0
  191.9470  173.8930  145.0710 C   0  0  0  0  0  3  0  0  0  0  0  0
  187.6470  176.8320  144.7020 N   0  0  0  0  0  0  0  0  0  0  0  0
  187.9410  176.8740  146.9520 N   0  0  0  0  0  2  0  0  0  0  0  0
  188.4250  176.4830  145.7510 C   0  0  0  0  0  0  0  0  0  0  0  0
  186.6160  177.4750  145.2750 C   0  0  0  0  0  0  0  0  0  0  0  0
  186.7930  177.4990  146.6390 C   0  0  0  0  0  0  0  0  0  0  0  0
  185.7880  179.3960  143.9780 C   0  0  0  0  0  1  0  0  0  0  0  0
  185.4510  178.0220  144.5220 C   0  0  0  0  0  2  0  0  0  0  0  0
  185.8710  178.0970  147.6460 C   0  0  0  0  0  2  0  0  0  0  0  0
  186.3110  179.3750  147.9910 O   0  0  0  0  0  1  0  0  0  0  0  0
  190.1920  172.0960  144.6350 C   0  0  0  0  0  2  0  0  0  0  0  0
  189.1300  172.0910  143.6860 O   0  0  0  0  0  0  0  0  0  0  0  0
  190.5170  171.7470  141.6970 C   0  0  0  0  0  3  0  0  0  0  0  0
  189.3370  172.2040  142.3060 C   0  0  0  0  0  0  0  0  0  0  0  0
  189.7120  172.4860  139.5260 C   0  0  0  0  0  0  0  0  0  0  0  0
  188.5340  172.9380  140.1390 C   0  0  0  0  0  3  0  0  0  0  0  0
  188.3460  172.7940  141.5170 C   0  0  0  0  0  3  0  0  0  0  0  0
  190.7040  171.8950  140.3210 C   0  0  0  0  0  3  0  0  0  0  0  0
  189.6930  170.2000  137.4480 C   0  0  0  0  0  1  0  0  0  0  0  0
  189.8140  171.6100  137.1170 N   0  0  0  0  0  2  0  0  0  0  0  0
  189.9530  172.6710  138.0740 C   0  0  0  0  0  0  0  0  0  0  0  0
  190.2850  173.8120  137.6540 O   0  0  0  0  0  0  0  0  0  0  0  0
  193.9990  175.0570  145.7450 C   0  0  1  0  0  3  0  0  0  0  0  0
  196.0590  174.1780  144.6580 C   0  0  1  0  0  3  0  0  0  0  0  0
  194.7380  173.7920  145.2960 C   0  0  1  0  0  3  0  0  0  0  0  0
  196.0320  173.6400  146.0730 C   0  0  0  0  0  2  0  0  0  0  0  0
  195.3140  172.5050  143.0680 N   0  0  0  0  0  1  0  0  0  0  0  0
  196.4860  173.0780  143.7070 C   0  0  0  0  0  2  0  0  0  0  0  0
  194.3460  176.3040  144.9150 C   0  0  2  0  0  3  0  0  0  0  0  0
  194.5670  177.5460  145.7730 C   0  0  0  0  0  1  0  0  0  0  0  0
  193.2880  176.5590  143.8510 C   0  0  0  0  0  2  0  0  0  0  0  0
  193.7350  176.0450  142.5520 C   0  0  0  0  0  0  0  0  0  0  0  0
  194.0870  175.6400  141.5260 N   0  0  0  0  0  0  0  0  0  0  0  0
  1  6  2  0  0  0  0
  2  4  1  0  0  0  0
  3  6  1  0  0  0  0
  4 10  1  1  0  0  0
  4  1  1  0  0  0  0
  5  7  1  0  0  0  0
  5  2  2  0  0  0  0
  7  3  2  0  0  0  0
  8 11  1  0  0  0  0
  8 10  2  0  0  0  0
 10  9  1  0  0  0  0
 11 12  2  0  0  0  0
 12  9  1  0  0  0  0
 12 15  1  0  0  0  0
 13 14  1  0  0  0  0
 14 11  1  0  0  0  0
 15 16  1  0  0  0  0
 17  5  1  0  0  0  0
 18 17  1  0  0  0  0
 19 20  1  0  0  0  0
 20 18  1  0  0  0  0
 21 22  2  0  0  0  0
 21 24  1  0  0  0  0
 22 23  1  0  0  0  0
 23 20  2  0  0  0  0
 24 19  2  0  0  0  0
 26 25  1  0  0  0  0
 26 27  1  0  0  0  0
 27 21  1  0  0  0  0
 28 27  2  0  0  0  0
 29 35  1  6  0  0  0
 29  3  1  0  0  0  0
 30 34  1  6  0  0  0
 30 31  1  0  0  0  0
 30 32  1  0  0  0  0
 31 29  1  1  0  0  0
 31 32  1  0  0  0  0
 33 34  1  0  0  0  0
 35 36  1  1  0  0  0
 37 35  1  0  0  0  0
 38 37  1  0  0  0  0
 39 38  3  0  0  0  0
M  END
>  <MODEL>
8

>  <REMARK>
 VINA RESULT:      -6.4      2.269      7.114
  Name = 
  13 active torsions:
  status: ('A' for Active; 'I' for Inactive)
    1  A    between atoms: O_1  and  C_2
    2  A    between atoms: O_1  and  C_17
    3  A    between atoms: C_2  and  C_32
    4  A    between atoms: C_4  and  C_36
    5  A    between atoms: C_10  and  C_20
    6  A    between atoms: C_11  and  C_29
    7  A    between atoms: C_12  and  C_16
    8  A    between atoms: C_12  and  C_20
    9  A    between atoms: C_16  and  C_22
   10  A    between atoms: C_18  and  C_19
   11  A    between atoms: C_20  and  C_24
   12  A    between atoms: C_21  and  C_26
   13  A    between atoms: CA_27  and  C_35
                            x       y       z     vdW  Elec       q    Type
                         _______ _______ _______ _____ _____    ______ ____

>  <TORSDO>
F 13

$$$$
=
 OpenBabel11042417313D

 39 42  0  0  1  0  0  0  0  0999 V2000
  190.4170  176.0750  146.3990 N   0  0  0  0  0  0  0  0  0  0  0  0
  189.3150  174.3490  145.0770 C   0  0  0  0  0  3  0  0  0  0  0  0
  192.3230  174.7200  145.6470 C   0  0  0  0  0  0  0  0  0  0  0  0
  189.6170  175.8060  145.2110 C   0  0  1  0  0  3  0  0  0  0  0  0
  190.2640  173.4210  144.9620 C   0  0  0  0  0  0  0  0  0  0  0  0
  191.6250  175.6340  146.5750 C   0  0  0  0  0  3  0  0  0  0  0  0
  191.7080  173.7280  144.9850 C   0  0  0  0  0  3  0  0  0  0  0  0
  187.4240  176.4220  146.2250 N   0  0  0  0  0  0  0  0  0  0  0  0
  188.0150  177.5190  144.3290 N   0  0  0  0  0  2  0  0  0  0  0  0
  188.3560  176.6020  145.2630 C   0  0  0  0  0  0  0  0  0  0  0  0
  186.4450  177.2740  145.8790 C   0  0  0  0  0  0  0  0  0  0  0  0
  186.8040  177.9410  144.7310 C   0  0  0  0  0  0  0  0  0  0  0  0
  185.3800  178.6220  147.6420 C   0  0  0  0  0  1  0  0  0  0  0  0
  185.1970  177.4750  146.6690 C   0  0  0  0  0  2  0  0  0  0  0  0
  186.0110  178.9850  144.0240 C   0  0  0  0  0  2  0  0  0  0  0  0
  186.3740  179.0250  142.6770 O   0  0  0  0  0  1  0  0  0  0  0  0
  189.8460  172.0100  144.7070 C   0  0  0  0  0  2  0  0  0  0  0  0
  188.9410  171.9460  143.6080 O   0  0  0  0  0  0  0  0  0  0  0  0
  190.3800  171.0860  141.8230 C   0  0  0  0  0  3  0  0  0  0  0  0
  189.3600  171.9400  142.2720 C   0  0  0  0  0  0  0  0  0  0  0  0
  190.1850  171.9930  139.5760 C   0  0  0  0  0  0  0  0  0  0  0  0
  189.1640  172.8410  140.0300 C   0  0  0  0  0  3  0  0  0  0  0  0
  188.7530  172.8120  141.3650 C   0  0  0  0  0  3  0  0  0  0  0  0
  190.7930  171.1190  140.4890 C   0  0  0  0  0  3  0  0  0  0  0  0
  192.5080  173.7760  138.5910 C   0  0  0  0  0  1  0  0  0  0  0  0
  191.8300  172.7830  137.7730 N   0  0  0  0  0  2  0  0  0  0  0  0
  190.6700  172.0390  138.1760 C   0  0  0  0  0  0  0  0  0  0  0  0
  190.0450  171.3900  137.2950 O   0  0  0  0  0  0  0  0  0  0  0  0
  193.8190  174.8260  145.5810 C   0  0  1  0  0  3  0  0  0  0  0  0
  195.7980  173.8880  144.3960 C   0  0  1  0  0  3  0  0  0  0  0  0
  194.4630  173.5490  145.0320 C   0  0  1  0  0  3  0  0  0  0  0  0
  195.7550  173.2560  145.7710 C   0  0  0  0  0  2  0  0  0  0  0  0
  196.6820  173.4690  142.1770 N   0  0  0  0  0  1  0  0  0  0  0  0
  196.1350  172.8320  143.3630 C   0  0  0  0  0  2  0  0  0  0  0  0
  194.2670  176.1060  144.8550 C   0  0  2  0  0  3  0  0  0  0  0  0
  194.5620  177.2580  145.8100 C   0  0  0  0  0  1  0  0  0  0  0  0
  193.2450  176.5190  143.8040 C   0  0  0  0  0  2  0  0  0  0  0  0
  193.6700  176.0710  142.4740 C   0  0  0  0  0  0  0  0  0  0  0  0
  194.0030  175.7170  141.4230 N   0  0  0  0  0  0  0  0  0  0  0  0
  1  6  2  0  0  0  0
  2  4  1  0  0  0  0
  3  6  1  0  0  0  0
  4 10  1  1  0  0  0
  4  1  1  0  0  0  0
  5  7  1  0  0  0  0
  5  2  2  0  0  0  0
  7  3  2  0  0  0  0
  9 12  1  0  0  0  0
  9 10  1  0  0  0  0
 10  8  2  0  0  0  0
 11  8  1  0  0  0  0
 11 14  1  0  0  0  0
 12 11  2  0  0  0  0
 14 13  1  0  0  0  0
 15 12  1  0  0  0  0
 16 15  1  0  0  0  0
 17  5  1  0  0  0  0
 18 17  1  0  0  0  0
 19 20  1  0  0  0  0
 20 18  1  0  0  0  0
 21 22  2  0  0  0  0
 21 24  1  0  0  0  0
 22 23  1  0  0  0  0
 23 20  2  0  0  0  0
 24 19  2  0  0  0  0
 26 27  1  0  0  0  0
 26 25  1  0  0  0  0
 27 21  1  0  0  0  0
 28 27  2  0  0  0  0
 29 35  1  6  0  0  0
 29  3  1  0  0  0  0
 30 34  1  6  0  0  0
 30 31  1  0  0  0  0
 30 32  1  0  0  0  0
 31 29  1  1  0  0  0
 31 32  1  0  0  0  0
 33 34  1  0  0  0  0
 35 36  1  1  0  0  0
 37 35  1  0  0  0  0
 38 37  1  0  0  0  0
 39 38  3  0  0  0  0
M  END
>  <MODEL>
9

>  <REMARK>
 VINA RESULT:      -6.3      2.268      6.968
  Name = 
  13 active torsions:
  status: ('A' for Active; 'I' for Inactive)
    1  A    between atoms: O_1  and  C_2
    2  A    between atoms: O_1  and  C_17
    3  A    between atoms: C_2  and  C_32
    4  A    between atoms: C_4  and  C_36
    5  A    between atoms: C_10  and  C_20
    6  A    between atoms: C_11  and  C_29
    7  A    between atoms: C_12  and  C_16
    8  A    between atoms: C_12  and  C_20
    9  A    between atoms: C_16  and  C_22
   10  A    between atoms: C_18  and  C_19
   11  A    between atoms: C_20  and  C_24
   12  A    between atoms: C_21  and  C_26
   13  A    between atoms: CA_27  and  C_35
                            x       y       z     vdW  Elec       q    Type
                         _______ _______ _______ _____ _____    ______ ____

>  <TORSDO>
F 13

$$$$
