=
 OpenBabel11042416033D

 58 66  0  0  1  0  0  0  0  0999 V2000
  189.4250  173.6620  141.6360 C   0  0  1  0  0  3  0  0  0  0  0  0
  193.4440  173.1480  143.5580 C   0  0  1  0  0  3  0  0  0  0  0  0
  193.2920  172.9930  145.0840 C   0  0  1  0  0  3  0  0  0  0  0  0
  194.2050  171.8930  145.5710 C   0  0  0  0  0  3  0  0  0  0  0  0
  194.3860  170.8040  144.8110 C   0  0  0  0  0  3  0  0  0  0  0  0
  193.7610  170.7210  143.5160 N   0  0  0  0  0  0  0  0  0  0  0  0
  188.4000  172.5960  141.3620 C   0  0  0  0  0  0  0  0  0  0  0  0
  188.1890  173.6260  139.0960 C   0  0  0  0  0  2  0  0  0  0  0  0
  188.1010  174.9640  139.8240 C   0  0  0  0  0  2  0  0  0  0  0  0
  188.4710  175.9620  142.1590 C   0  0  2  0  0  3  0  0  0  0  0  0
  188.1370  171.7720  142.2210 O   0  0  0  0  0  0  0  0  0  0  0  0
  187.7230  172.5060  140.0210 C   0  0  0  0  0  2  0  0  0  0  0  0
  193.3360  171.8040  142.9320 C   0  0  0  0  0  0  0  0  0  0  0  0
  190.8000  176.6110  143.0850 C   0  0  0  0  0  2  0  0  0  0  0  0
  192.5560  175.2990  142.6820 C   0  0  0  0  0  2  0  0  0  0  0  0
  192.3680  171.7900  141.9040 N   0  0  0  0  0  0  0  0  0  0  0  0
  189.4260  176.0030  143.3800 C   0  0  1  0  0  3  0  0  0  0  0  0
  191.8290  172.9640  141.9250 C   0  0  0  0  0  0  0  0  0  0  0  0
  191.4430  175.8830  142.0780 O   0  0  0  0  0  0  0  0  0  0  0  0
  190.7140  173.2600  141.0850 N   0  0  0  0  0  2  0  0  0  0  0  0
  189.0180  175.0320  141.0600 C   0  0  1  0  0  3  0  0  0  0  0  0
  192.3540  173.8700  142.9180 N   0  0  0  0  0  0  0  0  0  0  0  0
  191.9580  175.0790  147.6320 C   0  0  2  0  0  3  0  0  0  0  0  0
  193.5210  174.2810  145.8810 C   0  0  2  0  0  3  0  0  0  0  0  0
  194.5810  176.6590  145.7960 C   0  0  0  0  0  2  0  0  0  0  0  0
  192.1890  174.9970  146.1200 C   0  0  2  0  0  3  0  0  0  0  0  0
  190.5170  175.3620  147.9320 C   0  0  0  0  0  2  0  0  0  0  0  0
  194.6270  175.2030  145.3020 C   0  0  1  0  0  3  0  0  0  0  0  0
  191.3320  177.2330  146.7450 O   0  0  0  0  0  0  0  0  0  0  0  0
  192.3760  176.3060  146.8730 C   0  0  1  0  0  0  0  0  0  0  0  0
  193.7960  176.8120  147.0930 C   0  0  0  0  0  2  0  0  0  0  0  0
  190.3740  176.8470  147.6950 C   0  0  0  0  0  2  0  0  0  0  0  0
  196.0230  174.6060  145.4700 C   0  0  0  0  0  2  0  0  0  0  0  0
  196.9110  174.8950  144.2710 C   0  0  0  0  0  2  0  0  0  0  0  0
  197.9410  176.4690  142.1550 O   0  0  0  0  0  1  0  0  0  0  0  0
  196.1780  174.6110  143.0450 N   0  0  0  0  0  0  0  0  0  0  0  0
  196.6600  175.7420  141.8000 P   0  0  1  0  0  0  0  0  0  0  0  0
  197.9410  173.0330  142.1700 C   0  0  0  0  0  2  0  0  0  0  0  0
  195.4210  176.8420  141.4540 O   0  0  0  0  0  0  0  0  0  0  0  0
  196.8820  173.1930  141.0920 C   0  0  1  0  0  3  0  0  0  0  0  0
  196.4820  173.2390  142.5810 C   0  0  2  0  0  3  0  0  0  0  0  0
  196.9460  174.5900  140.4650 C   0  0  1  0  0  3  0  0  0  0  0  0
  195.8750  174.7220  139.4890 N   0  0  0  0  0  2  0  0  0  0  0  0
  197.9410  175.4170  138.4350 C   0  0  0  0  0  1  0  0  0  0  0  0
  196.4690  175.1160  138.2210 C   0  0  1  0  0  3  0  0  0  0  0  0
  194.9800  173.0500  137.2290 O   0  0  0  0  0  1  0  0  0  0  0  0
  197.5640  172.6660  137.1890 O   0  0  0  0  0  1  0  0  0  0  0  0
  196.2920  173.7680  137.0110 P   0  0  0  0  0  0  0  0  0  0  0  0
  196.3220  174.4010  135.4420 O   0  0  0  0  0  0  0  0  0  0  0  0
  188.7970  176.6470  144.5700 C   0  0  0  0  0  0  0  0  0  0  0  0
  188.0660  175.8930  145.4750 O   0  0  0  0  0  1  0  0  0  0  0  0
  188.9630  177.8760  144.7800 O   0  0  0  0  0  0  0  0  0  0  0  0
  188.1880  177.3730  141.6180 C   0  0  0  0  0  2  0  0  0  0  0  0
  186.7060  177.7620  141.6820 C   0  0  2  0  0  3  0  0  0  0  0  0
  186.0830  177.9130  140.3070 C   0  0  0  0  0  1  0  0  0  0  0  0
  186.4680  179.0200  142.5030 C   0  0  0  0  0  2  0  0  0  0  0  0
  185.2250  178.8960  143.2520 N   0  0  0  0  0  2  0  0  0  0  0  0
  185.2770  177.6280  143.9660 C   0  0  0  0  0  1  0  0  0  0  0  0
  1 20  1  6  0  0  0
  2 13  1  6  0  0  0
  2  3  1  0  0  0  0
  3  4  1  1  0  0  0
  5  4  2  0  0  0  0
  6  5  1  0  0  0  0
  7  1  1  0  0  0  0
  7 11  2  0  0  0  0
  8  9  1  0  0  0  0
  8 12  1  0  0  0  0
 10 53  1  6  0  0  0
 10 17  1  0  0  0  0
 12  7  1  0  0  0  0
 13  6  2  0  0  0  0
 14 17  1  0  0  0  0
 15 22  1  0  0  0  0
 16 18  2  0  0  0  0
 16 13  1  0  0  0  0
 17 50  1  1  0  0  0
 18 22  1  0  0  0  0
 19 15  1  0  0  0  0
 19 14  1  0  0  0  0
 20 18  1  0  0  0  0
 21  9  1  6  0  0  0
 21  1  1  0  0  0  0
 21 10  1  0  0  0  0
 22  2  1  0  0  0  0
 23 27  1  6  0  0  0
 24  3  1  6  0  0  0
 24 26  1  0  0  0  0
 25 31  1  0  0  0  0
 26 30  1  0  0  0  0
 26 23  1  0  0  0  0
 28 33  1  0  0  0  0
 28 25  1  0  0  0  0
 28 24  1  0  0  0  0
 29 30  1  0  0  0  0
 29 32  1  0  0  0  0
 30 31  1  0  0  0  0
 30 23  1  0  0  0  0
 32 27  1  0  0  0  0
 34 33  1  0  0  0  0
 36 34  1  0  0  0  0
 37 35  1  0  0  0  0
 37 36  1  0  0  0  0
 38 41  1  0  0  0  0
 39 37  2  0  0  0  0
 40 38  1  0  0  0  0
 40 41  1  0  0  0  0
 41 36  1  0  0  0  0
 42 40  1  0  0  0  0
 42 37  1  0  0  0  0
 43 42  1  0  0  0  0
 45 44  1  0  0  0  0
 45 43  1  0  0  0  0
 48 47  1  0  0  0  0
 48 46  1  0  0  0  0
 48 45  1  0  0  0  0
 49 48  2  0  0  0  0
 50 52  2  0  0  0  0
 50 51  1  0  0  0  0
 53 54  1  0  0  0  0
 54 56  1  0  0  0  0
 55 54  1  0  0  0  0
 56 57  1  0  0  0  0
 57 58  1  0  0  0  0
M  END
>  <MODEL>
1

>  <REMARK>
 VINA RESULT:      -7.1      0.000      0.000
  Name = 
  12 active torsions:
  status: ('A' for Active; 'I' for Inactive)
    1  A    between atoms: C_4  and  C_17
    2  A    between atoms: C_4  and  C_35
    3  A    between atoms: N_6  and  C_29
    4  A    between atoms: N_7  and  C_17
    5  A    between atoms: C_10  and  C_12
    6  A    between atoms: C_16  and  C_44
    7  A    between atoms: C_22  and  C_42
    8  A    between atoms: C_28  and  N_32
    9  A    between atoms: C_28  and  P_34
   10  A    between atoms: C_29  and  C_42
   11  A    between atoms: C_30  and  C_35
   12  A    between atoms: N_32  and  C_53
                            x       y       z     vdW  Elec       q    Type
                         _______ _______ _______ _____ _____    ______ ____

>  <TORSDO>
F 12

$$$$
=
 OpenBabel11042416033D

 58 66  0  0  1  0  0  0  0  0999 V2000
  192.5130  172.4550  138.0180 C   0  0  1  0  0  3  0  0  0  0  0  0
  191.8710  171.2320  142.2840 C   0  0  1  0  0  3  0  0  0  0  0  0
  192.0360  172.4460  143.2200 C   0  0  1  0  0  3  0  0  0  0  0  0
  190.9440  172.4290  144.2630 C   0  0  0  0  0  3  0  0  0  0  0  0
  189.7140  172.0200  143.9200 C   0  0  0  0  0  3  0  0  0  0  0  0
  189.4620  171.5450  142.5840 N   0  0  0  0  0  0  0  0  0  0  0  0
  191.5540  173.1940  137.1240 C   0  0  0  0  0  0  0  0  0  0  0  0
  192.1430  171.5020  135.3840 C   0  0  0  0  0  2  0  0  0  0  0  0
  193.5970  171.7680  135.7620 C   0  0  0  0  0  2  0  0  0  0  0  0
  194.9740  172.9380  137.5860 C   0  0  2  0  0  3  0  0  0  0  0  0
  190.9540  174.1650  137.5520 O   0  0  0  0  0  0  0  0  0  0  0  0
  191.2940  172.7240  135.7190 C   0  0  0  0  0  2  0  0  0  0  0  0
  190.4560  171.1700  141.8320 C   0  0  0  0  0  0  0  0  0  0  0  0
  195.4870  171.8790  139.8920 C   0  0  0  0  0  2  0  0  0  0  0  0
  193.9070  170.7170  140.9520 C   0  0  0  0  0  2  0  0  0  0  0  0
  190.3670  171.0990  140.4250 N   0  0  0  0  0  0  0  0  0  0  0  0
  195.1280  173.1480  139.1150 C   0  0  1  0  0  3  0  0  0  0  0  0
  191.5820  171.2060  139.9980 C   0  0  0  0  0  0  0  0  0  0  0  0
  194.5000  170.9040  139.7040 O   0  0  0  0  0  0  0  0  0  0  0  0
  191.8500  171.2950  138.5990 N   0  0  0  0  0  2  0  0  0  0  0  0
  193.7860  172.0090  137.2730 C   0  0  1  0  0  3  0  0  0  0  0  0
  192.5890  171.3470  141.0230 N   0  0  0  0  0  0  0  0  0  0  0  0
  195.0580  170.7020  143.8920 C   0  0  2  0  0  3  0  0  0  0  0  0
  193.4140  172.5580  143.8800 C   0  0  2  0  0  3  0  0  0  0  0  0
  194.7530  173.7060  145.7970 C   0  0  0  0  0  2  0  0  0  0  0  0
  193.7840  171.2350  144.5550 C   0  0  2  0  0  3  0  0  0  0  0  0
  195.2350  169.2420  144.1830 C   0  0  0  0  0  2  0  0  0  0  0  0
  193.5840  173.7950  144.8010 C   0  0  1  0  0  3  0  0  0  0  0  0
  195.3480  170.3570  146.2620 O   0  0  0  0  0  0  0  0  0  0  0  0
  195.1300  171.3150  145.2610 C   0  0  1  0  0  0  0  0  0  0  0  0
  195.7990  172.6790  145.3800 C   0  0  0  0  0  2  0  0  0  0  0  0
  195.7930  169.2110  145.5870 C   0  0  0  0  0  2  0  0  0  0  0  0
  193.6260  175.1020  144.0120 C   0  0  0  0  0  2  0  0  0  0  0  0
  192.7830  176.1860  144.6640 C   0  0  0  0  0  2  0  0  0  0  0  0
  191.0060  177.0840  146.6770 O   0  0  0  0  0  1  0  0  0  0  0  0
  191.4100  176.0830  144.1900 N   0  0  0  0  0  0  0  0  0  0  0  0
  190.3100  176.4200  145.5070 P   0  0  1  0  0  0  0  0  0  0  0  0
  191.2750  178.5240  143.5690 C   0  0  0  0  0  2  0  0  0  0  0  0
  189.4990  175.0210  146.0060 O   0  0  0  0  0  0  0  0  0  0  0  0
  189.9030  177.9100  143.3480 C   0  0  1  0  0  3  0  0  0  0  0  0
  191.1730  177.0680  143.1110 C   0  0  2  0  0  3  0  0  0  0  0  0
  189.2290  177.5800  144.6840 C   0  0  1  0  0  3  0  0  0  0  0  0
  187.9510  176.9350  144.4260 N   0  0  0  0  0  2  0  0  0  0  0  0
  185.8980  177.7410  143.4280 C   0  0  0  0  0  1  0  0  0  0  0  0
  186.9080  177.9410  144.5430 C   0  0  1  0  0  3  0  0  0  0  0  0
  185.2470  176.5180  146.1830 O   0  0  0  0  0  0  0  0  0  0  0  0
  185.0620  179.1150  146.4110 O   0  0  0  0  0  1  0  0  0  0  0  0
  186.0740  177.7830  146.1540 P   0  0  0  0  0  0  0  0  0  0  0  0
  187.2280  177.7170  147.3900 O   0  0  0  0  0  1  0  0  0  0  0  0
  196.0660  174.2620  139.4410 C   0  0  0  0  0  0  0  0  0  0  0  0
  197.4040  174.0060  139.6950 O   0  0  0  0  0  1  0  0  0  0  0  0
  195.6520  175.4500  139.4440 O   0  0  0  0  0  0  0  0  0  0  0  0
  196.2770  172.4230  136.9540 C   0  0  0  0  0  2  0  0  0  0  0  0
  196.7740  173.2920  135.7920 C   0  0  2  0  0  3  0  0  0  0  0  0
  197.1350  172.4750  134.5660 C   0  0  0  0  0  1  0  0  0  0  0  0
  197.9410  174.1820  136.1870 C   0  0  0  0  0  2  0  0  0  0  0  0
  197.8320  175.4710  135.5180 N   0  0  0  0  0  2  0  0  0  0  0  0
  196.6210  176.1110  136.0130 C   0  0  0  0  0  1  0  0  0  0  0  0
  1  7  1  6  0  0  0
  1 20  1  0  0  0  0
  2 13  1  6  0  0  0
  2  3  1  0  0  0  0
  3  4  1  1  0  0  0
  5  4  2  0  0  0  0
  6  5  1  0  0  0  0
  7 11  2  0  0  0  0
  8 12  1  0  0  0  0
  8  9  1  0  0  0  0
 10 53  1  1  0  0  0
 10 17  1  0  0  0  0
 12  7  1  0  0  0  0
 13  6  2  0  0  0  0
 15 22  1  0  0  0  0
 16 13  1  0  0  0  0
 17 50  1  6  0  0  0
 17 14  1  0  0  0  0
 18 16  2  0  0  0  0
 18 22  1  0  0  0  0
 19 14  1  0  0  0  0
 19 15  1  0  0  0  0
 20 18  1  0  0  0  0
 21  9  1  6  0  0  0
 21 10  1  0  0  0  0
 21  1  1  0  0  0  0
 22  2  1  0  0  0  0
 23 27  1  1  0  0  0
 23 26  1  0  0  0  0
 23 30  1  0  0  0  0
 24  3  1  1  0  0  0
 24 26  1  0  0  0  0
 24 28  1  0  0  0  0
 26 30  1  0  0  0  0
 27 32  1  0  0  0  0
 28 25  1  0  0  0  0
 30 31  1  0  0  0  0
 30 29  1  0  0  0  0
 31 25  1  0  0  0  0
 32 29  1  0  0  0  0
 33 34  1  0  0  0  0
 33 28  1  0  0  0  0
 36 34  1  0  0  0  0
 36 37  1  0  0  0  0
 37 39  2  0  0  0  0
 37 35  1  0  0  0  0
 40 38  1  0  0  0  0
 40 42  1  0  0  0  0
 41 40  1  0  0  0  0
 41 38  1  0  0  0  0
 41 36  1  0  0  0  0
 42 37  1  0  0  0  0
 43 45  1  0  0  0  0
 43 42  1  0  0  0  0
 44 45  1  0  0  0  0
 45 48  1  0  0  0  0
 48 46  2  0  0  0  0
 48 47  1  0  0  0  0
 48 49  1  0  0  0  0
 50 52  2  0  0  0  0
 50 51  1  0  0  0  0
 54 56  1  0  0  0  0
 54 53  1  0  0  0  0
 55 54  1  0  0  0  0
 57 58  1  0  0  0  0
 57 56  1  0  0  0  0
M  END
>  <MODEL>
2

>  <REMARK>
 VINA RESULT:      -6.9      3.406      8.496
  Name = 
  12 active torsions:
  status: ('A' for Active; 'I' for Inactive)
    1  A    between atoms: C_4  and  C_17
    2  A    between atoms: C_4  and  C_35
    3  A    between atoms: N_6  and  C_29
    4  A    between atoms: N_7  and  C_17
    5  A    between atoms: C_10  and  C_12
    6  A    between atoms: C_16  and  C_44
    7  A    between atoms: C_22  and  C_42
    8  A    between atoms: C_28  and  N_32
    9  A    between atoms: C_28  and  P_34
   10  A    between atoms: C_29  and  C_42
   11  A    between atoms: C_30  and  C_35
   12  A    between atoms: N_32  and  C_53
                            x       y       z     vdW  Elec       q    Type
                         _______ _______ _______ _____ _____    ______ ____

>  <TORSDO>
F 12

$$$$
=
 OpenBabel11042416033D

 58 66  0  0  1  0  0  0  0  0999 V2000
  191.3570  171.8040  139.0560 C   0  0  1  0  0  3  0  0  0  0  0  0
  191.9650  172.3010  143.4710 C   0  0  1  0  0  3  0  0  0  0  0  0
  191.8220  173.7840  143.8670 C   0  0  1  0  0  3  0  0  0  0  0  0
  191.0130  173.8890  145.1380 C   0  0  0  0  0  3  0  0  0  0  0  0
  189.9870  173.0500  145.3350 C   0  0  0  0  0  3  0  0  0  0  0  0
  189.7050  172.0210  144.3660 N   0  0  0  0  0  0  0  0  0  0  0  0
  190.0530  171.8140  138.3060 C   0  0  0  0  0  0  0  0  0  0  0  0
  190.9230  169.7980  137.1140 C   0  0  0  0  0  2  0  0  0  0  0  0
  192.2140  170.5900  136.9280 C   0  0  0  0  0  2  0  0  0  0  0  0
  193.3440  172.7360  137.7680 C   0  0  2  0  0  3  0  0  0  0  0  0
  189.2160  172.6640  138.5560 O   0  0  0  0  0  0  0  0  0  0  0  0
  189.7500  170.7590  137.2770 C   0  0  0  0  0  2  0  0  0  0  0  0
  190.6210  171.6670  143.5130 C   0  0  0  0  0  0  0  0  0  0  0  0
  194.6050  172.9010  140.0240 C   0  0  0  0  0  2  0  0  0  0  0  0
  193.7840  171.8810  141.8270 C   0  0  0  0  0  2  0  0  0  0  0  0
  190.3240  171.0060  142.3020 N   0  0  0  0  0  0  0  0  0  0  0  0
  193.6690  173.5860  139.0240 C   0  0  1  0  0  3  0  0  0  0  0  0
  191.3180  171.2650  141.5170 C   0  0  0  0  0  0  0  0  0  0  0  0
  194.0390  171.7000  140.4690 O   0  0  0  0  0  0  0  0  0  0  0  0
  191.2870  170.8470  140.1530 N   0  0  0  0  0  2  0  0  0  0  0  0
  192.5560  171.4690  138.1470 C   0  0  1  0  0  3  0  0  0  0  0  0
  192.3590  172.0880  142.0860 N   0  0  0  0  0  0  0  0  0  0  0  0
  195.3330  173.3870  144.2380 C   0  0  2  0  0  3  0  0  0  0  0  0
  193.1490  174.5370  144.0060 C   0  0  2  0  0  3  0  0  0  0  0  0
  194.2550  176.7300  144.8730 C   0  0  0  0  0  2  0  0  0  0  0  0
  194.0680  173.8090  144.9900 C   0  0  2  0  0  3  0  0  0  0  0  0
  196.0660  172.3180  144.9920 C   0  0  0  0  0  2  0  0  0  0  0  0
  192.9980  176.0520  144.3030 C   0  0  1  0  0  3  0  0  0  0  0  0
  196.0790  174.2360  146.3690 O   0  0  0  0  0  0  0  0  0  0  0  0
  195.3840  174.5460  145.1910 C   0  0  1  0  0  0  0  0  0  0  0  0
  195.5260  175.9380  144.5890 C   0  0  0  0  0  2  0  0  0  0  0  0
  196.8010  173.0700  146.0770 C   0  0  0  0  0  2  0  0  0  0  0  0
  192.4480  176.8240  143.1040 C   0  0  0  0  0  2  0  0  0  0  0  0
  191.0210  176.4180  142.7750 C   0  0  0  0  0  2  0  0  0  0  0  0
  188.3470  175.6420  142.2600 O   0  0  0  0  0  1  0  0  0  0  0  0
  190.1230  177.5290  143.0600 N   0  0  0  0  0  0  0  0  0  0  0  0
  188.5060  177.1250  142.5280 P   0  0  1  0  0  0  0  0  0  0  0  0
  189.4990  176.6440  145.3390 C   0  0  0  0  0  2  0  0  0  0  0  0
  188.0600  178.0320  141.1710 O   0  0  0  0  0  0  0  0  0  0  0  0
  188.6540  177.8770  145.0700 C   0  0  1  0  0  3  0  0  0  0  0  0
  190.0910  177.7910  144.5170 C   0  0  2  0  0  3  0  0  0  0  0  0
  187.6000  177.5950  143.9950 C   0  0  1  0  0  3  0  0  0  0  0  0
  186.8600  178.8170  143.7210 N   0  0  0  0  0  2  0  0  0  0  0  0
  185.2050  177.1530  143.1250 C   0  0  0  0  0  1  0  0  0  0  0  0
  185.4400  178.5040  143.7740 C   0  0  1  0  0  3  0  0  0  0  0  0
  183.4760  178.9960  145.6100 O   0  0  0  0  0  0  0  0  0  0  0  0
  185.9120  179.3920  146.4680 O   0  0  0  0  0  1  0  0  0  0  0  0
  184.8830  178.4540  145.5060 P   0  0  0  0  0  0  0  0  0  0  0  0
  184.9030  176.8580  146.0670 O   0  0  0  0  0  1  0  0  0  0  0  0
  194.1630  174.9490  138.6730 C   0  0  0  0  0  0  0  0  0  0  0  0
  195.2530  175.4960  139.3300 O   0  0  0  0  0  1  0  0  0  0  0  0
  193.6140  175.5950  137.7430 O   0  0  0  0  0  0  0  0  0  0  0  0
  194.6150  172.3960  136.9740 C   0  0  0  0  0  2  0  0  0  0  0  0
  194.5850  172.9100  135.5290 C   0  0  2  0  0  3  0  0  0  0  0  0
  194.8020  171.8040  134.5140 C   0  0  0  0  0  1  0  0  0  0  0  0
  195.5750  174.0380  135.2900 C   0  0  0  0  0  2  0  0  0  0  0  0
  196.7130  173.8990  136.1880 N   0  0  0  0  0  2  0  0  0  0  0  0
  197.8600  173.5190  135.3740 C   0  0  0  0  0  1  0  0  0  0  0  0
  1  7  1  6  0  0  0
  1 20  1  0  0  0  0
  2 13  1  6  0  0  0
  2  3  1  0  0  0  0
  3  4  1  1  0  0  0
  4  5  2  0  0  0  0
  6  5  1  0  0  0  0
  7 11  2  0  0  0  0
  8 12  1  0  0  0  0
  9  8  1  0  0  0  0
 10 53  1  1  0  0  0
 10 21  1  0  0  0  0
 10 17  1  0  0  0  0
 12  7  1  0  0  0  0
 13  6  2  0  0  0  0
 14 19  1  0  0  0  0
 15 22  1  0  0  0  0
 16 13  1  0  0  0  0
 17 50  1  6  0  0  0
 17 14  1  0  0  0  0
 18 22  1  0  0  0  0
 18 16  2  0  0  0  0
 19 15  1  0  0  0  0
 20 18  1  0  0  0  0
 21  9  1  6  0  0  0
 21  1  1  0  0  0  0
 22  2  1  0  0  0  0
 23 26  1  0  0  0  0
 23 27  1  1  0  0  0
 23 30  1  0  0  0  0
 24  3  1  1  0  0  0
 24 28  1  0  0  0  0
 24 26  1  0  0  0  0
 26 30  1  0  0  0  0
 27 32  1  0  0  0  0
 28 25  1  0  0  0  0
 30 29  1  0  0  0  0
 31 25  1  0  0  0  0
 31 30  1  0  0  0  0
 32 29  1  0  0  0  0
 33 28  1  0  0  0  0
 34 36  1  0  0  0  0
 34 33  1  0  0  0  0
 35 37  1  0  0  0  0
 36 41  1  0  0  0  0
 37 36  1  0  0  0  0
 37 42  1  0  0  0  0
 39 37  2  0  0  0  0
 40 38  1  0  0  0  0
 41 40  1  0  0  0  0
 41 38  1  0  0  0  0
 42 40  1  0  0  0  0
 43 45  1  0  0  0  0
 43 42  1  0  0  0  0
 44 45  1  0  0  0  0
 45 48  1  0  0  0  0
 48 46  2  0  0  0  0
 48 49  1  0  0  0  0
 48 47  1  0  0  0  0
 50 51  1  0  0  0  0
 52 50  2  0  0  0  0
 54 53  1  0  0  0  0
 55 54  1  0  0  0  0
 56 54  1  0  0  0  0
 56 57  1  0  0  0  0
 58 57  1  0  0  0  0
M  END
>  <MODEL>
3

>  <REMARK>
 VINA RESULT:      -6.9      3.521      8.287
  Name = 
  12 active torsions:
  status: ('A' for Active; 'I' for Inactive)
    1  A    between atoms: C_4  and  C_17
    2  A    between atoms: C_4  and  C_35
    3  A    between atoms: N_6  and  C_29
    4  A    between atoms: N_7  and  C_17
    5  A    between atoms: C_10  and  C_12
    6  A    between atoms: C_16  and  C_44
    7  A    between atoms: C_22  and  C_42
    8  A    between atoms: C_28  and  N_32
    9  A    between atoms: C_28  and  P_34
   10  A    between atoms: C_29  and  C_42
   11  A    between atoms: C_30  and  C_35
   12  A    between atoms: N_32  and  C_53
                            x       y       z     vdW  Elec       q    Type
                         _______ _______ _______ _____ _____    ______ ____

>  <TORSDO>
F 12

$$$$
=
 OpenBabel11042416033D

 58 66  0  0  1  0  0  0  0  0999 V2000
  191.3140  172.4370  139.4610 C   0  0  1  0  0  3  0  0  0  0  0  0
  191.3730  175.2610  142.9440 C   0  0  1  0  0  3  0  0  0  0  0  0
  192.4320  176.3590  142.7250 C   0  0  1  0  0  3  0  0  0  0  0  0
  191.8620  177.6960  143.1360 C   0  0  0  0  0  3  0  0  0  0  0  0
  190.5720  177.9630  142.8920 C   0  0  0  0  0  3  0  0  0  0  0  0
  189.7300  176.9550  142.2990 N   0  0  0  0  0  0  0  0  0  0  0  0
  190.7020  172.6690  138.1060 C   0  0  0  0  0  0  0  0  0  0  0  0
  189.7460  170.3740  138.3370 C   0  0  0  0  0  2  0  0  0  0  0  0
  191.1460  169.9430  138.7640 C   0  0  0  0  0  2  0  0  0  0  0  0
  193.3920  170.9690  139.4630 C   0  0  2  0  0  3  0  0  0  0  0  0
  190.8790  173.7320  137.5350 O   0  0  0  0  0  0  0  0  0  0  0  0
  189.8360  171.6200  137.4630 C   0  0  0  0  0  2  0  0  0  0  0  0
  190.0940  175.7060  142.3330 C   0  0  0  0  0  0  0  0  0  0  0  0
  193.8870  171.8400  141.8510 C   0  0  0  0  0  2  0  0  0  0  0  0
  192.3160  172.9590  142.9670 C   0  0  0  0  0  2  0  0  0  0  0  0
  189.5790  174.7360  141.4470 N   0  0  0  0  0  0  0  0  0  0  0  0
  194.0690  172.0510  140.3450 C   0  0  1  0  0  3  0  0  0  0  0  0
  190.4720  173.8030  141.4040 C   0  0  0  0  0  0  0  0  0  0  0  0
  192.5250  171.8320  142.1740 O   0  0  0  0  0  0  0  0  0  0  0  0
  190.3280  172.7080  140.5000 N   0  0  0  0  0  2  0  0  0  0  0  0
  191.8610  171.0060  139.6210 C   0  0  1  0  0  3  0  0  0  0  0  0
  191.6390  174.0220  142.2260 N   0  0  0  0  0  0  0  0  0  0  0  0
  195.9580  176.3500  142.2850 C   0  0  2  0  0  3  0  0  0  0  0  0
  193.7710  176.1020  143.4250 C   0  0  2  0  0  3  0  0  0  0  0  0
  194.9470  174.7260  145.2980 C   0  0  0  0  0  2  0  0  0  0  0  0
  194.7490  175.4270  142.4600 C   0  0  2  0  0  3  0  0  0  0  0  0
  196.7320  175.9800  141.0560 C   0  0  0  0  0  2  0  0  0  0  0  0
  193.6490  175.3790  144.7930 C   0  0  1  0  0  3  0  0  0  0  0  0
  196.8510  174.1210  142.5070 O   0  0  0  0  0  0  0  0  0  0  0  0
  196.0800  175.1140  143.1270 C   0  0  1  0  0  0  0  0  0  0  0  0
  196.1900  175.3050  144.6350 C   0  0  0  0  0  2  0  0  0  0  0  0
  197.5440  174.7780  141.4800 C   0  0  0  0  0  2  0  0  0  0  0  0
  193.0250  176.2710  145.8640 C   0  0  0  0  0  2  0  0  0  0  0  0
  191.8040  175.6260  146.4990 C   0  0  0  0  0  2  0  0  0  0  0  0
  189.5480  174.1770  147.4100 O   0  0  0  0  0  1  0  0  0  0  0  0
  190.5980  176.1470  145.8700 N   0  0  0  0  0  0  0  0  0  0  0  0
  189.2430  175.1100  146.2550 P   0  0  1  0  0  0  0  0  0  0  0  0
  189.9750  177.5560  147.8670 C   0  0  0  0  0  2  0  0  0  0  0  0
  188.7290  174.2380  144.8990 O   0  0  0  0  0  0  0  0  0  0  0  0
  188.8530  177.6670  146.8480 C   0  0  1  0  0  3  0  0  0  0  0  0
  190.3110  177.5080  146.3750 C   0  0  2  0  0  3  0  0  0  0  0  0
  188.0650  176.3570  146.7550 C   0  0  1  0  0  3  0  0  0  0  0  0
  187.0470  176.4850  145.7250 N   0  0  0  0  0  2  0  0  0  0  0  0
  186.7980  178.1140  143.9500 C   0  0  0  0  0  1  0  0  0  0  0  0
  186.8600  177.9020  145.4520 C   0  0  1  0  0  3  0  0  0  0  0  0
  184.4640  177.2910  146.6190 O   0  0  0  0  0  1  0  0  0  0  0  0
  184.4430  179.4220  145.1070 O   0  0  0  0  0  0  0  0  0  0  0  0
  185.3090  178.4770  146.2120 P   0  0  0  0  0  0  0  0  0  0  0  0
  185.6550  179.4050  147.5840 O   0  0  0  0  0  1  0  0  0  0  0  0
  195.5080  172.2440  139.9990 C   0  0  0  0  0  0  0  0  0  0  0  0
  196.4920  171.5090  140.6400 O   0  0  0  0  0  1  0  0  0  0  0  0
  195.8310  173.0500  139.0880 O   0  0  0  0  0  0  0  0  0  0  0  0
  193.9590  169.5700  139.7540 C   0  0  0  0  0  2  0  0  0  0  0  0
  194.6440  168.9280  138.5420 C   0  0  2  0  0  3  0  0  0  0  0  0
  196.0280  168.4000  138.8680 C   0  0  0  0  0  1  0  0  0  0  0  0
  194.7130  169.8650  137.3460 C   0  0  0  0  0  2  0  0  0  0  0  0
  196.1020  170.1700  137.0340 N   0  0  0  0  0  2  0  0  0  0  0  0
  196.0940  171.2320  136.0360 C   0  0  0  0  0  1  0  0  0  0  0  0
  1  7  1  6  0  0  0
  1 21  1  0  0  0  0
  1 20  1  0  0  0  0
  2 13  1  6  0  0  0
  3  2  1  0  0  0  0
  3  4  1  1  0  0  0
  5  4  2  0  0  0  0
  6 13  2  0  0  0  0
  6  5  1  0  0  0  0
  8  9  1  0  0  0  0
 10 21  1  0  0  0  0
 10 53  1  1  0  0  0
 10 17  1  0  0  0  0
 11  7  2  0  0  0  0
 12  7  1  0  0  0  0
 12  8  1  0  0  0  0
 14 19  1  0  0  0  0
 16 13  1  0  0  0  0
 17 50  1  1  0  0  0
 17 14  1  0  0  0  0
 18 16  2  0  0  0  0
 18 22  1  0  0  0  0
 19 15  1  0  0  0  0
 20 18  1  0  0  0  0
 21  9  1  6  0  0  0
 22  2  1  0  0  0  0
 22 15  1  0  0  0  0
 23 27  1  6  0  0  0
 23 26  1  0  0  0  0
 23 30  1  0  0  0  0
 24  3  1  6  0  0  0
 24 28  1  0  0  0  0
 26 30  1  0  0  0  0
 26 24  1  0  0  0  0
 27 32  1  0  0  0  0
 28 25  1  0  0  0  0
 28 33  1  0  0  0  0
 29 30  1  0  0  0  0
 30 31  1  0  0  0  0
 31 25  1  0  0  0  0
 32 29  1  0  0  0  0
 33 34  1  0  0  0  0
 36 37  1  0  0  0  0
 36 41  1  0  0  0  0
 36 34  1  0  0  0  0
 37 42  1  0  0  0  0
 37 35  1  0  0  0  0
 39 37  2  0  0  0  0
 40 38  1  0  0  0  0
 41 40  1  0  0  0  0
 41 38  1  0  0  0  0
 42 40  1  0  0  0  0
 43 42  1  0  0  0  0
 44 45  1  0  0  0  0
 45 43  1  0  0  0  0
 45 48  1  0  0  0  0
 47 48  2  0  0  0  0
 48 46  1  0  0  0  0
 48 49  1  0  0  0  0
 50 51  1  0  0  0  0
 52 50  2  0  0  0  0
 54 55  1  0  0  0  0
 54 53  1  0  0  0  0
 56 54  1  0  0  0  0
 57 56  1  0  0  0  0
 58 57  1  0  0  0  0
M  END
>  <MODEL>
4

>  <REMARK>
 VINA RESULT:      -6.8      3.505      8.796
  Name = 
  12 active torsions:
  status: ('A' for Active; 'I' for Inactive)
    1  A    between atoms: C_4  and  C_17
    2  A    between atoms: C_4  and  C_35
    3  A    between atoms: N_6  and  C_29
    4  A    between atoms: N_7  and  C_17
    5  A    between atoms: C_10  and  C_12
    6  A    between atoms: C_16  and  C_44
    7  A    between atoms: C_22  and  C_42
    8  A    between atoms: C_28  and  N_32
    9  A    between atoms: C_28  and  P_34
   10  A    between atoms: C_29  and  C_42
   11  A    between atoms: C_30  and  C_35
   12  A    between atoms: N_32  and  C_53
                            x       y       z     vdW  Elec       q    Type
                         _______ _______ _______ _____ _____    ______ ____

>  <TORSDO>
F 12

$$$$
=
 OpenBabel11042416033D

 58 66  0  0  1  0  0  0  0  0999 V2000
  190.7830  171.9110  140.5420 C   0  0  1  0  0  3  0  0  0  0  0  0
  188.2930  175.1660  142.3630 C   0  0  1  0  0  3  0  0  0  0  0  0
  189.1920  176.3260  142.8360 C   0  0  1  0  0  3  0  0  0  0  0  0
  188.5550  177.6420  142.4540 C   0  0  0  0  0  3  0  0  0  0  0  0
  187.9030  177.7430  141.2880 C   0  0  0  0  0  3  0  0  0  0  0  0
  187.7620  176.5850  140.4420 N   0  0  0  0  0  0  0  0  0  0  0  0
  191.4120  171.8970  139.1750 C   0  0  0  0  0  0  0  0  0  0  0  0
  190.5300  169.5690  138.9830 C   0  0  0  0  0  2  0  0  0  0  0  0
  191.1100  169.3420  140.3770 C   0  0  0  0  0  2  0  0  0  0  0  0
  192.0920  170.6740  142.3390 C   0  0  2  0  0  3  0  0  0  0  0  0
  191.9960  172.8870  138.7670 O   0  0  0  0  0  0  0  0  0  0  0  0
  191.2920  170.6900  138.2850 C   0  0  0  0  0  2  0  0  0  0  0  0
  187.9320  175.3950  140.9400 C   0  0  0  0  0  0  0  0  0  0  0  0
  190.6460  171.9010  144.1010 C   0  0  0  0  0  2  0  0  0  0  0  0
  188.8130  172.9950  143.4600 C   0  0  0  0  0  2  0  0  0  0  0  0
  188.2280  174.2680  140.1440 N   0  0  0  0  0  0  0  0  0  0  0  0
  191.9080  171.9260  143.2360 C   0  0  1  0  0  3  0  0  0  0  0  0
  188.8130  173.4320  140.9370 C   0  0  0  0  0  0  0  0  0  0  0  0
  189.5080  171.7990  143.2910 O   0  0  0  0  0  0  0  0  0  0  0  0
  189.3630  172.2180  140.4280 N   0  0  0  0  0  2  0  0  0  0  0  0
  190.9700  170.5760  141.2880 C   0  0  1  0  0  3  0  0  0  0  0  0
  188.9660  173.8760  142.3030 N   0  0  0  0  0  0  0  0  0  0  0  0
  187.8040  176.1800  146.1030 C   0  0  2  0  0  3  0  0  0  0  0  0
  189.5320  176.3010  144.3290 C   0  0  2  0  0  3  0  0  0  0  0  0
  191.2590  177.0790  146.1180 C   0  0  0  0  0  2  0  0  0  0  0  0
  188.5050  177.1190  145.1170 C   0  0  2  0  0  3  0  0  0  0  0  0
  186.5200  176.7850  146.5870 C   0  0  0  0  0  2  0  0  0  0  0  0
  191.0030  176.6700  144.6570 C   0  0  1  0  0  3  0  0  0  0  0  0
  188.2510  178.2120  147.3230 O   0  0  0  0  0  0  0  0  0  0  0  0
  188.8280  177.1570  146.6030 C   0  0  1  0  0  0  0  0  0  0  0  0
  190.1660  176.5900  147.0620 C   0  0  0  0  0  2  0  0  0  0  0  0
  186.9540  177.7800  147.6380 C   0  0  0  0  0  2  0  0  0  0  0  0
  191.9830  175.5890  144.2050 C   0  0  0  0  0  2  0  0  0  0  0  0
  193.4230  175.9620  144.5180 C   0  0  0  0  0  2  0  0  0  0  0  0
  195.8990  174.6610  144.0800 O   0  0  0  0  0  1  0  0  0  0  0  0
  194.0560  176.5000  143.3220 N   0  0  0  0  0  0  0  0  0  0  0  0
  195.6790  175.8610  143.1820 P   0  0  1  0  0  0  0  0  0  0  0  0
  193.2750  174.5970  141.8630 C   0  0  0  0  0  2  0  0  0  0  0  0
  196.8390  177.0560  143.4800 O   0  0  0  0  0  0  0  0  0  0  0  0
  194.1770  175.4880  141.0250 C   0  0  1  0  0  3  0  0  0  0  0  0
  193.2860  176.1050  142.1220 C   0  0  2  0  0  3  0  0  0  0  0  0
  195.6380  175.3590  141.4680 C   0  0  1  0  0  3  0  0  0  0  0  0
  196.4550  176.2750  140.6870 N   0  0  0  0  0  2  0  0  0  0  0  0
  197.8610  174.3210  140.9430 C   0  0  0  0  0  1  0  0  0  0  0  0
  197.5190  175.5070  140.0600 C   0  0  1  0  0  3  0  0  0  0  0  0
  197.1590  173.4180  138.3340 O   0  0  0  0  0  1  0  0  0  0  0  0
  197.8840  175.6640  137.2120 O   0  0  0  0  0  0  0  0  0  0  0  0
  196.9740  174.9160  138.4270 P   0  0  0  0  0  0  0  0  0  0  0  0
  195.3380  175.2850  138.2020 O   0  0  0  0  0  1  0  0  0  0  0  0
  193.1190  172.2150  144.0580 C   0  0  0  0  0  0  0  0  0  0  0  0
  192.9970  172.5800  145.3890 O   0  0  0  0  0  1  0  0  0  0  0  0
  194.2650  172.0870  143.5540 O   0  0  0  0  0  0  0  0  0  0  0  0
  192.1940  169.3900  143.1780 C   0  0  0  0  0  2  0  0  0  0  0  0
  193.5340  168.6630  143.0160 C   0  0  2  0  0  3  0  0  0  0  0  0
  194.3580  168.6680  144.2890 C   0  0  0  0  0  1  0  0  0  0  0  0
  194.3580  169.2090  141.8610 C   0  0  0  0  0  2  0  0  0  0  0  0
  194.4690  168.2060  140.8110 N   0  0  0  0  0  2  0  0  0  0  0  0
  194.6920  168.9170  139.5590 C   0  0  0  0  0  1  0  0  0  0  0  0
  1  7  1  6  0  0  0
  1 21  1  0  0  0  0
  2 13  1  6  0  0  0
  2  3  1  0  0  0  0
  3  4  1  1  0  0  0
  5  4  2  0  0  0  0
  6 13  2  0  0  0  0
  6  5  1  0  0  0  0
  8  9  1  0  0  0  0
 10 53  1  1  0  0  0
 10 17  1  0  0  0  0
 11  7  2  0  0  0  0
 12  8  1  0  0  0  0
 12  7  1  0  0  0  0
 16 18  2  0  0  0  0
 16 13  1  0  0  0  0
 17 50  1  1  0  0  0
 17 14  1  0  0  0  0
 18 22  1  0  0  0  0
 19 15  1  0  0  0  0
 19 14  1  0  0  0  0
 20  1  1  0  0  0  0
 20 18  1  0  0  0  0
 21  9  1  6  0  0  0
 21 10  1  0  0  0  0
 22  2  1  0  0  0  0
 22 15  1  0  0  0  0
 23 27  1  1  0  0  0
 23 30  1  0  0  0  0
 24  3  1  6  0  0  0
 24 28  1  0  0  0  0
 24 26  1  0  0  0  0
 25 31  1  0  0  0  0
 26 23  1  0  0  0  0
 26 30  1  0  0  0  0
 27 32  1  0  0  0  0
 28 25  1  0  0  0  0
 29 32  1  0  0  0  0
 30 31  1  0  0  0  0
 30 29  1  0  0  0  0
 33 34  1  0  0  0  0
 33 28  1  0  0  0  0
 36 34  1  0  0  0  0
 37 36  1  0  0  0  0
 37 39  2  0  0  0  0
 37 35  1  0  0  0  0
 38 41  1  0  0  0  0
 40 42  1  0  0  0  0
 40 38  1  0  0  0  0
 40 41  1  0  0  0  0
 41 36  1  0  0  0  0
 42 37  1  0  0  0  0
 43 42  1  0  0  0  0
 45 43  1  0  0  0  0
 45 44  1  0  0  0  0
 46 48  1  0  0  0  0
 47 48  2  0  0  0  0
 48 45  1  0  0  0  0
 49 48  1  0  0  0  0
 50 51  1  0  0  0  0
 52 50  2  0  0  0  0
 54 53  1  0  0  0  0
 54 55  1  0  0  0  0
 56 54  1  0  0  0  0
 57 56  1  0  0  0  0
 58 57  1  0  0  0  0
M  END
>  <MODEL>
5

>  <REMARK>
 VINA RESULT:      -6.7      2.527      6.010
  Name = 
  12 active torsions:
  status: ('A' for Active; 'I' for Inactive)
    1  A    between atoms: C_4  and  C_17
    2  A    between atoms: C_4  and  C_35
    3  A    between atoms: N_6  and  C_29
    4  A    between atoms: N_7  and  C_17
    5  A    between atoms: C_10  and  C_12
    6  A    between atoms: C_16  and  C_44
    7  A    between atoms: C_22  and  C_42
    8  A    between atoms: C_28  and  N_32
    9  A    between atoms: C_28  and  P_34
   10  A    between atoms: C_29  and  C_42
   11  A    between atoms: C_30  and  C_35
   12  A    between atoms: N_32  and  C_53
                            x       y       z     vdW  Elec       q    Type
                         _______ _______ _______ _____ _____    ______ ____

>  <TORSDO>
F 12

$$$$
=
 OpenBabel11042416033D

 58 66  0  0  1  0  0  0  0  0999 V2000
  195.0740  174.1840  144.6060 C   0  0  1  0  0  3  0  0  0  0  0  0
  191.0070  175.8770  145.4440 C   0  0  1  0  0  3  0  0  0  0  0  0
  189.9140  174.9590  144.8600 C   0  0  1  0  0  3  0  0  0  0  0  0
  188.7900  174.8180  145.8590 C   0  0  0  0  0  3  0  0  0  0  0  0
  189.0760  174.7580  147.1670 C   0  0  0  0  0  3  0  0  0  0  0  0
  190.4410  174.8880  147.6090 N   0  0  0  0  0  0  0  0  0  0  0  0
  195.7500  173.0390  145.3090 C   0  0  0  0  0  0  0  0  0  0  0  0
  197.7770  174.4970  145.3650 C   0  0  0  0  0  2  0  0  0  0  0  0
  197.4990  174.7670  143.8890 C   0  0  0  0  0  2  0  0  0  0  0  0
  195.6520  174.4230  142.1400 C   0  0  2  0  0  3  0  0  0  0  0  0
  195.1240  172.0200  145.5480 O   0  0  0  0  0  0  0  0  0  0  0  0
  197.1810  173.1510  145.7620 C   0  0  0  0  0  2  0  0  0  0  0  0
  191.3300  175.4150  146.8190 C   0  0  0  0  0  0  0  0  0  0  0  0
  193.5940  175.9760  141.9070 C   0  0  0  0  0  2  0  0  0  0  0  0
  192.5850  176.7570  143.7340 C   0  0  0  0  0  2  0  0  0  0  0  0
  192.7170  175.2070  146.9810 N   0  0  0  0  0  0  0  0  0  0  0  0
  194.1300  174.5430  141.8670 C   0  0  1  0  0  3  0  0  0  0  0  0
  193.2320  175.4100  145.8130 C   0  0  0  0  0  0  0  0  0  0  0  0
  193.8380  176.5470  143.1620 O   0  0  0  0  0  0  0  0  0  0  0  0
  194.6200  175.1640  145.5850 N   0  0  0  0  0  2  0  0  0  0  0  0
  195.9940  174.8660  143.5750 C   0  0  1  0  0  3  0  0  0  0  0  0
  192.2960  175.7710  144.7750 N   0  0  0  0  0  0  0  0  0  0  0  0
  188.4100  177.6450  143.0870 C   0  0  2  0  0  3  0  0  0  0  0  0
  189.3750  175.3980  143.4950 C   0  0  2  0  0  3  0  0  0  0  0  0
  188.2640  174.5620  141.2920 C   0  0  0  0  0  2  0  0  0  0  0  0
  188.1230  176.2600  143.6760 C   0  0  2  0  0  3  0  0  0  0  0  0
  187.4260  178.6520  143.6000 C   0  0  0  0  0  2  0  0  0  0  0  0
  189.1910  174.2410  142.4770 C   0  0  1  0  0  3  0  0  0  0  0  0
  186.1800  177.0670  142.3720 O   0  0  0  0  0  0  0  0  0  0  0  0
  187.5290  176.6850  142.3410 C   0  0  1  0  0  0  0  0  0  0  0  0
  188.0950  176.0600  141.0720 C   0  0  0  0  0  2  0  0  0  0  0  0
  186.1850  178.4110  142.7730 C   0  0  0  0  0  2  0  0  0  0  0  0
  190.5260  173.6750  141.9990 C   0  0  0  0  0  2  0  0  0  0  0  0
  190.4720  172.1670  141.8190 C   0  0  0  0  0  2  0  0  0  0  0  0
  190.4380  169.3520  141.5110 O   0  0  0  0  0  1  0  0  0  0  0  0
  191.1670  171.7980  140.5940 N   0  0  0  0  0  0  0  0  0  0  0  0
  191.3430  170.0590  140.5220 P   0  0  1  0  0  0  0  0  0  0  0  0
  189.0340  171.5480  139.2720 C   0  0  0  0  0  2  0  0  0  0  0  0
  192.9550  169.5930  140.7450 O   0  0  0  0  0  0  0  0  0  0  0  0
  190.1880  171.1200  138.3810 C   0  0  1  0  0  3  0  0  0  0  0  0
  190.3880  172.2440  139.4170 C   0  0  2  0  0  3  0  0  0  0  0  0
  190.7760  169.7850  138.8510 C   0  0  1  0  0  3  0  0  0  0  0  0
  191.9170  169.4470  138.0140 N   0  0  0  0  0  2  0  0  0  0  0  0
  193.4530  171.1600  137.2570 C   0  0  0  0  0  1  0  0  0  0  0  0
  192.0950  170.5160  137.0430 C   0  0  1  0  0  3  0  0  0  0  0  0
  190.8580  170.4850  134.6060 O   0  0  0  0  0  1  0  0  0  0  0  0
  191.7460  168.1670  135.4210 O   0  0  0  0  0  1  0  0  0  0  0  0
  192.0000  169.8400  135.3560 P   0  0  0  0  0  0  0  0  0  0  0  0
  193.4460  170.1490  134.5340 O   0  0  0  0  0  0  0  0  0  0  0  0
  193.7250  173.8510  140.6090 C   0  0  0  0  0  0  0  0  0  0  0  0
  193.0430  174.5360  139.6160 O   0  0  0  0  0  0  0  0  0  0  0  0
  194.0390  172.6470  140.4250 O   0  0  0  0  0  1  0  0  0  0  0  0
  196.4740  175.1980  141.0970 C   0  0  0  0  0  2  0  0  0  0  0  0
  197.4910  174.3240  140.3530 C   0  0  2  0  0  3  0  0  0  0  0  0
  197.3360  174.4050  138.8470 C   0  0  0  0  0  1  0  0  0  0  0  0
  197.4530  172.8720  140.8040 C   0  0  0  0  0  2  0  0  0  0  0  0
  197.6860  171.9930  139.6660 N   0  0  0  0  0  2  0  0  0  0  0  0
  196.9350  170.7680  139.9090 C   0  0  0  0  0  1  0  0  0  0  0  0
  1  7  1  1  0  0  0
  1 20  1  0  0  0  0
  2 13  1  1  0  0  0
  3  2  1  0  0  0  0
  3  4  1  1  0  0  0
  4  5  2  0  0  0  0
  5  6  1  0  0  0  0
  7 11  2  0  0  0  0
  7 12  1  0  0  0  0
  8 12  1  0  0  0  0
  9  8  1  0  0  0  0
 10 53  1  6  0  0  0
 10 21  1  0  0  0  0
 13 16  1  0  0  0  0
 13  6  2  0  0  0  0
 14 19  1  0  0  0  0
 15 22  1  0  0  0  0
 17 50  1  6  0  0  0
 17 14  1  0  0  0  0
 17 10  1  0  0  0  0
 18 16  2  0  0  0  0
 19 15  1  0  0  0  0
 20 18  1  0  0  0  0
 21  9  1  1  0  0  0
 21  1  1  0  0  0  0
 22  2  1  0  0  0  0
 22 18  1  0  0  0  0
 23 27  1  1  0  0  0
 23 26  1  0  0  0  0
 24 26  1  0  0  0  0
 24  3  1  1  0  0  0
 25 28  1  0  0  0  0
 28 24  1  0  0  0  0
 29 32  1  0  0  0  0
 30 29  1  0  0  0  0
 30 23  1  0  0  0  0
 30 26  1  0  0  0  0
 31 25  1  0  0  0  0
 31 30  1  0  0  0  0
 32 27  1  0  0  0  0
 33 28  1  0  0  0  0
 34 33  1  0  0  0  0
 36 34  1  0  0  0  0
 37 36  1  0  0  0  0
 37 39  2  0  0  0  0
 37 35  1  0  0  0  0
 38 41  1  0  0  0  0
 40 42  1  0  0  0  0
 40 38  1  0  0  0  0
 40 41  1  0  0  0  0
 41 36  1  0  0  0  0
 42 37  1  0  0  0  0
 43 42  1  0  0  0  0
 45 44  1  0  0  0  0
 45 43  1  0  0  0  0
 46 48  1  0  0  0  0
 48 47  1  0  0  0  0
 48 45  1  0  0  0  0
 49 48  2  0  0  0  0
 51 50  2  0  0  0  0
 52 50  1  0  0  0  0
 54 56  1  0  0  0  0
 54 53  1  0  0  0  0
 55 54  1  0  0  0  0
 57 58  1  0  0  0  0
 57 56  1  0  0  0  0
M  END
>  <MODEL>
6

>  <REMARK>
 VINA RESULT:      -6.7      3.094      7.688
  Name = 
  12 active torsions:
  status: ('A' for Active; 'I' for Inactive)
    1  A    between atoms: C_4  and  C_17
    2  A    between atoms: C_4  and  C_35
    3  A    between atoms: N_6  and  C_29
    4  A    between atoms: N_7  and  C_17
    5  A    between atoms: C_10  and  C_12
    6  A    between atoms: C_16  and  C_44
    7  A    between atoms: C_22  and  C_42
    8  A    between atoms: C_28  and  N_32
    9  A    between atoms: C_28  and  P_34
   10  A    between atoms: C_29  and  C_42
   11  A    between atoms: C_30  and  C_35
   12  A    between atoms: N_32  and  C_53
                            x       y       z     vdW  Elec       q    Type
                         _______ _______ _______ _____ _____    ______ ____

>  <TORSDO>
F 12

$$$$
=
 OpenBabel11042416033D

 58 66  0  0  1  0  0  0  0  0999 V2000
  189.9060  172.9150  139.0310 C   0  0  1  0  0  3  0  0  0  0  0  0
  187.8920  175.8890  141.7160 C   0  0  1  0  0  3  0  0  0  0  0  0
  188.9310  176.8490  142.3260 C   0  0  1  0  0  3  0  0  0  0  0  0
  188.3950  178.2610  142.2870 C   0  0  0  0  0  3  0  0  0  0  0  0
  187.6650  178.6580  141.2350 C   0  0  0  0  0  3  0  0  0  0  0  0
  187.3470  177.7210  140.1880 N   0  0  0  0  0  0  0  0  0  0  0  0
  190.4200  173.1440  137.6360 C   0  0  0  0  0  0  0  0  0  0  0  0
  189.3070  170.9840  137.0580 C   0  0  0  0  0  2  0  0  0  0  0  0
  189.9720  170.4230  138.3110 C   0  0  0  0  0  2  0  0  0  0  0  0
  191.2300  171.2270  140.3990 C   0  0  2  0  0  3  0  0  0  0  0  0
  191.0610  174.1500  137.3840 O   0  0  0  0  0  0  0  0  0  0  0  0
  190.1150  172.1670  136.5330 C   0  0  0  0  0  2  0  0  0  0  0  0
  187.4410  176.4420  140.4120 C   0  0  0  0  0  0  0  0  0  0  0  0
  190.0520  172.1580  142.5090 C   0  0  0  0  0  2  0  0  0  0  0  0
  188.2870  173.5000  142.2880 C   0  0  0  0  0  2  0  0  0  0  0  0
  187.5640  175.4910  139.3770 N   0  0  0  0  0  0  0  0  0  0  0  0
  191.2390  172.2700  141.5470 C   0  0  1  0  0  3  0  0  0  0  0  0
  188.1280  174.4640  139.9210 C   0  0  0  0  0  0  0  0  0  0  0  0
  188.8490  172.3180  141.8100 O   0  0  0  0  0  0  0  0  0  0  0  0
  188.5170  173.3460  139.1220 N   0  0  0  0  0  2  0  0  0  0  0  0
  190.0240  171.4410  139.4660 C   0  0  1  0  0  3  0  0  0  0  0  0
  188.4310  174.5930  141.3270 N   0  0  0  0  0  0  0  0  0  0  0  0
  187.7980  175.9460  145.5690 C   0  0  2  0  0  3  0  0  0  0  0  0
  189.3850  176.4810  143.7420 C   0  0  2  0  0  3  0  0  0  0  0  0
  191.2560  176.8310  145.5210 C   0  0  0  0  0  2  0  0  0  0  0  0
  188.4340  177.0900  144.7750 C   0  0  2  0  0  3  0  0  0  0  0  0
  186.5640  176.4160  146.2790 C   0  0  0  0  0  2  0  0  0  0  0  0
  190.8820  176.7700  144.0300 C   0  0  1  0  0  3  0  0  0  0  0  0
  188.3660  177.6420  147.1880 O   0  0  0  0  0  0  0  0  0  0  0  0
  188.8720  176.7850  146.2000 C   0  0  1  0  0  0  0  0  0  0  0  0
  190.2330  176.1330  146.4090 C   0  0  0  0  0  2  0  0  0  0  0  0
  187.0910  177.1440  147.4940 C   0  0  0  0  0  2  0  0  0  0  0  0
  191.8100  175.8280  143.2650 C   0  0  0  0  0  2  0  0  0  0  0  0
  193.2730  176.1920  143.4570 C   0  0  0  0  0  2  0  0  0  0  0  0
  196.0300  176.8230  143.3310 O   0  0  0  0  0  1  0  0  0  0  0  0
  194.0620  174.9760  143.5920 N   0  0  0  0  0  0  0  0  0  0  0  0
  195.7470  175.3350  143.2860 P   0  0  1  0  0  0  0  0  0  0  0  0
  194.5170  175.3550  146.0440 C   0  0  0  0  0  2  0  0  0  0  0  0
  196.2630  174.6690  141.8180 O   0  0  0  0  0  0  0  0  0  0  0  0
  195.3010  174.1280  145.6080 C   0  0  1  0  0  3  0  0  0  0  0  0
  193.9340  174.4400  144.9650 C   0  0  2  0  0  3  0  0  0  0  0  0
  196.4720  174.5200  144.7010 C   0  0  1  0  0  3  0  0  0  0  0  0
  197.1520  173.3140  144.2540 N   0  0  0  0  0  2  0  0  0  0  0  0
  196.3250  171.5720  142.7900 C   0  0  0  0  0  1  0  0  0  0  0  0
  196.1600  172.2570  144.1340 C   0  0  1  0  0  3  0  0  0  0  0  0
  197.1920  171.6560  146.5930 O   0  0  0  0  0  1  0  0  0  0  0  0
  197.2140  169.6860  144.8770 O   0  0  0  0  0  0  0  0  0  0  0  0
  196.3900  171.0400  145.4700 P   0  0  0  0  0  0  0  0  0  0  0  0
  194.8830  170.5560  146.0670 O   0  0  0  0  0  1  0  0  0  0  0  0
  192.5330  172.2840  142.2890 C   0  0  0  0  0  0  0  0  0  0  0  0
  192.6020  171.8260  143.5950 O   0  0  0  0  0  1  0  0  0  0  0  0
  193.5820  172.6740  141.7140 O   0  0  0  0  0  0  0  0  0  0  0  0
  191.2750  169.7900  140.9440 C   0  0  0  0  0  2  0  0  0  0  0  0
  192.5790  169.0550  140.6090 C   0  0  2  0  0  3  0  0  0  0  0  0
  193.4020  168.7390  141.8440 C   0  0  0  0  0  1  0  0  0  0  0  0
  193.4280  169.8040  139.5950 C   0  0  0  0  0  2  0  0  0  0  0  0
  194.8380  169.6740  139.9350 N   0  0  0  0  0  2  0  0  0  0  0  0
  195.5520  170.7210  139.2170 C   0  0  0  0  0  1  0  0  0  0  0  0
  1  7  1  6  0  0  0
  1 20  1  0  0  0  0
  1 21  1  0  0  0  0
  2 13  1  6  0  0  0
  2  3  1  0  0  0  0
  3  4  1  1  0  0  0
  5  4  2  0  0  0  0
  6 13  2  0  0  0  0
  6  5  1  0  0  0  0
  8  9  1  0  0  0  0
 10 53  1  1  0  0  0
 10 17  1  0  0  0  0
 11  7  2  0  0  0  0
 12  8  1  0  0  0  0
 12  7  1  0  0  0  0
 16 18  2  0  0  0  0
 16 13  1  0  0  0  0
 17 50  1  1  0  0  0
 17 14  1  0  0  0  0
 18 22  1  0  0  0  0
 19 15  1  0  0  0  0
 19 14  1  0  0  0  0
 20 18  1  0  0  0  0
 21  9  1  6  0  0  0
 21 10  1  0  0  0  0
 22  2  1  0  0  0  0
 22 15  1  0  0  0  0
 23 30  1  0  0  0  0
 23 27  1  1  0  0  0
 24  3  1  6  0  0  0
 24 28  1  0  0  0  0
 24 26  1  0  0  0  0
 25 31  1  0  0  0  0
 26 23  1  0  0  0  0
 26 30  1  0  0  0  0
 27 32  1  0  0  0  0
 28 25  1  0  0  0  0
 29 32  1  0  0  0  0
 30 31  1  0  0  0  0
 30 29  1  0  0  0  0
 33 34  1  0  0  0  0
 33 28  1  0  0  0  0
 34 36  1  0  0  0  0
 36 41  1  0  0  0  0
 37 35  1  0  0  0  0
 37 36  1  0  0  0  0
 37 42  1  0  0  0  0
 39 37  2  0  0  0  0
 40 38  1  0  0  0  0
 41 40  1  0  0  0  0
 41 38  1  0  0  0  0
 42 40  1  0  0  0  0
 43 42  1  0  0  0  0
 44 45  1  0  0  0  0
 45 43  1  0  0  0  0
 45 48  1  0  0  0  0
 47 48  2  0  0  0  0
 48 49  1  0  0  0  0
 48 46  1  0  0  0  0
 50 51  1  0  0  0  0
 52 50  2  0  0  0  0
 54 53  1  0  0  0  0
 54 55  1  0  0  0  0
 56 57  1  0  0  0  0
 56 54  1  0  0  0  0
 58 57  1  0  0  0  0
M  END
>  <MODEL>
7

>  <REMARK>
 VINA RESULT:      -6.6      2.975      6.623
  Name = 
  12 active torsions:
  status: ('A' for Active; 'I' for Inactive)
    1  A    between atoms: C_4  and  C_17
    2  A    between atoms: C_4  and  C_35
    3  A    between atoms: N_6  and  C_29
    4  A    between atoms: N_7  and  C_17
    5  A    between atoms: C_10  and  C_12
    6  A    between atoms: C_16  and  C_44
    7  A    between atoms: C_22  and  C_42
    8  A    between atoms: C_28  and  N_32
    9  A    between atoms: C_28  and  P_34
   10  A    between atoms: C_29  and  C_42
   11  A    between atoms: C_30  and  C_35
   12  A    between atoms: N_32  and  C_53
                            x       y       z     vdW  Elec       q    Type
                         _______ _______ _______ _____ _____    ______ ____

>  <TORSDO>
F 12

$$$$
=
 OpenBabel11042416033D

 58 66  0  0  1  0  0  0  0  0999 V2000
  190.4090  174.6740  145.4150 C   0  0  1  0  0  3  0  0  0  0  0  0
  191.4010  171.8390  142.0850 C   0  0  1  0  0  3  0  0  0  0  0  0
  192.5520  172.4000  141.2290 C   0  0  1  0  0  3  0  0  0  0  0  0
  193.5280  171.2930  140.9100 C   0  0  0  0  0  3  0  0  0  0  0  0
  193.7870  170.3580  141.8340 C   0  0  0  0  0  3  0  0  0  0  0  0
  193.0890  170.3830  143.0950 N   0  0  0  0  0  0  0  0  0  0  0  0
  191.1730  174.8850  146.6940 C   0  0  0  0  0  0  0  0  0  0  0  0
  188.9510  174.7940  147.8320 C   0  0  0  0  0  2  0  0  0  0  0  0
  188.4730  175.7650  146.7560 C   0  0  0  0  0  2  0  0  0  0  0  0
  189.2370  176.7430  144.5090 C   0  0  2  0  0  3  0  0  0  0  0  0
  192.3870  174.9840  146.6650 O   0  0  0  0  0  0  0  0  0  0  0  0
  190.4590  174.9340  148.0170 C   0  0  0  0  0  2  0  0  0  0  0  0
  191.9820  171.0570  143.2080 C   0  0  0  0  0  0  0  0  0  0  0  0
  188.9960  175.4990  142.2510 C   0  0  0  0  0  2  0  0  0  0  0  0
  189.3960  173.3100  142.1460 C   0  0  0  0  0  2  0  0  0  0  0  0
  191.4690  171.4820  144.4530 N   0  0  0  0  0  0  0  0  0  0  0  0
  189.8610  176.4070  143.1300 C   0  0  1  0  0  3  0  0  0  0  0  0
  190.7150  172.4960  144.1840 C   0  0  0  0  0  0  0  0  0  0  0  0
  188.7520  174.2850  142.9050 O   0  0  0  0  0  0  0  0  0  0  0  0
  190.1250  173.2550  145.2390 N   0  0  0  0  0  2  0  0  0  0  0  0
  189.0950  175.4780  145.3760 C   0  0  1  0  0  3  0  0  0  0  0  0
  190.6280  172.8530  142.7880 N   0  0  0  0  0  0  0  0  0  0  0  0
  190.0610  172.4820  138.6980 C   0  0  2  0  0  3  0  0  0  0  0  0
  192.1050  173.1140  139.9490 C   0  0  2  0  0  3  0  0  0  0  0  0
  192.9390  174.4180  137.8530 C   0  0  0  0  0  2  0  0  0  0  0  0
  191.5210  172.1030  138.9590 C   0  0  2  0  0  3  0  0  0  0  0  0
  189.3130  171.3270  138.1020 C   0  0  0  0  0  2  0  0  0  0  0  0
  193.1790  174.0450  139.3260 C   0  0  1  0  0  3  0  0  0  0  0  0
  190.9930  171.9080  136.5480 O   0  0  0  0  0  0  0  0  0  0  0  0
  191.1020  172.7640  137.6540 C   0  0  1  0  0  0  0  0  0  0  0  0
  191.4880  174.2210  137.4300 C   0  0  0  0  0  2  0  0  0  0  0  0
  189.7150  171.3380  136.6460 C   0  0  0  0  0  2  0  0  0  0  0  0
  193.4300  175.2880  140.1780 C   0  0  0  0  0  2  0  0  0  0  0  0
  194.9130  175.5210  140.4180 C   0  0  0  0  0  2  0  0  0  0  0  0
  197.6640  175.9750  140.9140 O   0  0  0  0  0  1  0  0  0  0  0  0
  195.4190  174.5140  141.3410 N   0  0  0  0  0  0  0  0  0  0  0  0
  197.1580  174.6580  141.4670 P   0  0  1  0  0  0  0  0  0  0  0  0
  195.2370  176.0350  143.3460 C   0  0  0  0  0  2  0  0  0  0  0  0
  197.9390  173.3540  140.7230 O   0  0  0  0  0  0  0  0  0  0  0  0
  195.8920  174.7410  143.7990 C   0  0  1  0  0  3  0  0  0  0  0  0
  194.8290  174.7170  142.6830 C   0  0  2  0  0  3  0  0  0  0  0  0
  197.3160  174.6270  143.2460 C   0  0  1  0  0  3  0  0  0  0  0  0
  197.8810  173.3470  143.6480 N   0  0  0  0  0  2  0  0  0  0  0  0
  197.1480  171.1360  142.9860 C   0  0  0  0  0  1  0  0  0  0  0  0
  196.7910  172.3910  143.7620 C   0  0  1  0  0  3  0  0  0  0  0  0
  197.1780  170.6450  145.8300 O   0  0  0  0  0  1  0  0  0  0  0  0
  194.8620  171.8550  145.8260 O   0  0  0  0  0  0  0  0  0  0  0  0
  196.5220  171.9690  145.5130 P   0  0  0  0  0  0  0  0  0  0  0  0
  197.1910  173.1690  146.5000 O   0  0  0  0  0  1  0  0  0  0  0  0
  190.2860  177.6290  142.3880 C   0  0  0  0  0  0  0  0  0  0  0  0
  189.3720  178.3510  141.6360 O   0  0  0  0  0  0  0  0  0  0  0  0
  191.4730  178.0360  142.4750 O   0  0  0  0  0  1  0  0  0  0  0  0
  187.8950  177.4780  144.3560 C   0  0  0  0  0  2  0  0  0  0  0  0
  186.6790  176.5490  144.4560 C   0  0  2  0  0  3  0  0  0  0  0  0
  185.9390  176.4160  143.1390 C   0  0  0  0  0  1  0  0  0  0  0  0
  185.7150  176.9660  145.5550 C   0  0  0  0  0  2  0  0  0  0  0  0
  185.7060  178.4160  145.6840 N   0  0  0  0  0  2  0  0  0  0  0  0
  184.3560  178.8670  145.3720 C   0  0  0  0  0  1  0  0  0  0  0  0
  1 20  1  1  0  0  0
  1  7  1  0  0  0  0
  2 22  1  0  0  0  0
  2 13  1  1  0  0  0
  3  4  1  6  0  0  0
  3  2  1  0  0  0  0
  4  5  2  0  0  0  0
  5  6  1  0  0  0  0
  6 13  2  0  0  0  0
  7 12  1  0  0  0  0
  8 12  1  0  0  0  0
  9  8  1  0  0  0  0
 10 53  1  6  0  0  0
 10 21  1  0  0  0  0
 11  7  2  0  0  0  0
 13 16  1  0  0  0  0
 14 19  1  0  0  0  0
 14 17  1  0  0  0  0
 15 22  1  0  0  0  0
 15 19  1  0  0  0  0
 17 50  1  6  0  0  0
 17 10  1  0  0  0  0
 18 16  2  0  0  0  0
 18 20  1  0  0  0  0
 21  1  1  0  0  0  0
 21  9  1  1  0  0  0
 22 18  1  0  0  0  0
 23 27  1  6  0  0  0
 23 26  1  0  0  0  0
 24  3  1  1  0  0  0
 25 28  1  0  0  0  0
 26 24  1  0  0  0  0
 28 24  1  0  0  0  0
 28 33  1  0  0  0  0
 29 32  1  0  0  0  0
 29 30  1  0  0  0  0
 30 23  1  0  0  0  0
 30 26  1  0  0  0  0
 31 30  1  0  0  0  0
 31 25  1  0  0  0  0
 32 27  1  0  0  0  0
 33 34  1  0  0  0  0
 34 36  1  0  0  0  0
 35 37  1  0  0  0  0
 36 37  1  0  0  0  0
 36 41  1  0  0  0  0
 37 42  1  0  0  0  0
 38 40  1  0  0  0  0
 39 37  2  0  0  0  0
 41 38  1  0  0  0  0
 41 40  1  0  0  0  0
 42 43  1  0  0  0  0
 42 40  1  0  0  0  0
 43 45  1  0  0  0  0
 44 45  1  0  0  0  0
 45 48  1  0  0  0  0
 48 47  2  0  0  0  0
 48 46  1  0  0  0  0
 48 49  1  0  0  0  0
 50 52  1  0  0  0  0
 51 50  2  0  0  0  0
 53 54  1  0  0  0  0
 54 56  1  0  0  0  0
 55 54  1  0  0  0  0
 56 57  1  0  0  0  0
 58 57  1  0  0  0  0
M  END
>  <MODEL>
8

>  <REMARK>
 VINA RESULT:      -6.3      2.687      5.942
  Name = 
  12 active torsions:
  status: ('A' for Active; 'I' for Inactive)
    1  A    between atoms: C_4  and  C_17
    2  A    between atoms: C_4  and  C_35
    3  A    between atoms: N_6  and  C_29
    4  A    between atoms: N_7  and  C_17
    5  A    between atoms: C_10  and  C_12
    6  A    between atoms: C_16  and  C_44
    7  A    between atoms: C_22  and  C_42
    8  A    between atoms: C_28  and  N_32
    9  A    between atoms: C_28  and  P_34
   10  A    between atoms: C_29  and  C_42
   11  A    between atoms: C_30  and  C_35
   12  A    between atoms: N_32  and  C_53
                            x       y       z     vdW  Elec       q    Type
                         _______ _______ _______ _____ _____    ______ ____

>  <TORSDO>
F 12

$$$$
=
 OpenBabel11042416033D

 58 66  0  0  1  0  0  0  0  0999 V2000
  192.0000  170.5370  137.5140 C   0  0  1  0  0  3  0  0  0  0  0  0
  190.3550  172.5800  141.1520 C   0  0  1  0  0  3  0  0  0  0  0  0
  190.8960  174.0200  141.2480 C   0  0  1  0  0  3  0  0  0  0  0  0
  189.7750  174.9530  141.6380 C   0  0  0  0  0  3  0  0  0  0  0  0
  188.5440  174.7400  141.1540 C   0  0  0  0  0  3  0  0  0  0  0  0
  188.2890  173.5940  140.3200 N   0  0  0  0  0  0  0  0  0  0  0  0
  191.5680  170.7260  136.0850 C   0  0  0  0  0  0  0  0  0  0  0  0
  191.6040  168.2340  135.9250 C   0  0  0  0  0  2  0  0  0  0  0  0
  192.9720  168.3120  136.5980 C   0  0  0  0  0  2  0  0  0  0  0  0
  194.4660  169.9970  137.8290 C   0  0  2  0  0  3  0  0  0  0  0  0
  191.3860  171.8510  135.6520 O   0  0  0  0  0  0  0  0  0  0  0  0
  191.3170  169.5410  135.1940 C   0  0  0  0  0  2  0  0  0  0  0  0
  189.1190  172.5910  140.3260 C   0  0  0  0  0  0  0  0  0  0  0  0
  194.1800  170.6030  140.3300 C   0  0  0  0  0  2  0  0  0  0  0  0
  192.1350  170.8420  141.1830 C   0  0  0  0  0  2  0  0  0  0  0  0
  189.1900  171.6500  139.2770 N   0  0  0  0  0  0  0  0  0  0  0  0
  194.4970  171.1020  138.9170 C   0  0  1  0  0  3  0  0  0  0  0  0
  190.3800  171.1500  139.3450 C   0  0  0  0  0  0  0  0  0  0  0  0
  192.9070  170.0220  140.3620 O   0  0  0  0  0  0  0  0  0  0  0  0
  190.8380  170.2410  138.3440 N   0  0  0  0  0  2  0  0  0  0  0  0
  193.0480  169.4180  137.6680 C   0  0  1  0  0  3  0  0  0  0  0  0
  191.2110  171.6670  140.4060 N   0  0  0  0  0  0  0  0  0  0  0  0
  194.0100  175.6760  141.6740 C   0  0  2  0  0  3  0  0  0  0  0  0
  192.0950  174.1880  142.1870 C   0  0  2  0  0  3  0  0  0  0  0  0
  193.5490  173.0010  143.9930 C   0  0  0  0  0  2  0  0  0  0  0  0
  193.3870  174.3090  141.3760 C   0  0  2  0  0  3  0  0  0  0  0  0
  195.0120  176.0420  140.6210 C   0  0  0  0  0  2  0  0  0  0  0  0
  192.1710  173.1340  143.3230 C   0  0  1  0  0  3  0  0  0  0  0  0
  195.8350  174.0980  141.6790 O   0  0  0  0  0  0  0  0  0  0  0  0
  194.6100  174.4360  142.2720 C   0  0  1  0  0  0  0  0  0  0  0  0
  194.4280  174.2260  143.7700 C   0  0  0  0  0  2  0  0  0  0  0  0
  196.2450  175.2500  140.9920 C   0  0  0  0  0  2  0  0  0  0  0  0
  191.0670  173.3240  144.3620 C   0  0  0  0  0  2  0  0  0  0  0  0
  191.1500  174.6830  145.0370 C   0  0  0  0  0  2  0  0  0  0  0  0
  190.9240  175.8320  147.6160 O   0  0  0  0  0  0  0  0  0  0  0  0
  189.8070  175.2160  145.2230 N   0  0  0  0  0  0  0  0  0  0  0  0
  189.6010  175.7170  146.8860 P   0  0  1  0  0  0  0  0  0  0  0  0
  190.5030  177.5810  144.6880 C   0  0  0  0  0  2  0  0  0  0  0  0
  188.5460  174.6850  147.7140 O   0  0  0  0  0  1  0  0  0  0  0  0
  189.0430  177.6070  145.1080 C   0  0  1  0  0  3  0  0  0  0  0  0
  189.6050  176.3910  144.3460 C   0  0  2  0  0  3  0  0  0  0  0  0
  188.8990  177.3360  146.6090 C   0  0  1  0  0  3  0  0  0  0  0  0
  187.4870  177.3040  146.9540 N   0  0  0  0  0  2  0  0  0  0  0  0
  185.9600  176.4140  145.2980 C   0  0  0  0  0  1  0  0  0  0  0  0
  186.7250  177.6410  145.7620 C   0  0  1  0  0  3  0  0  0  0  0  0
  185.6190  180.0400  145.0580 O   0  0  0  0  0  0  0  0  0  0  0  0
  185.9430  179.6860  147.6260 O   0  0  0  0  0  1  0  0  0  0  0  0
  185.5530  178.9830  146.1370 P   0  0  0  0  0  0  0  0  0  0  0  0
  183.9800  178.3650  146.2100 O   0  0  0  0  0  1  0  0  0  0  0  0
  195.7670  171.8840  138.8950 C   0  0  0  0  0  0  0  0  0  0  0  0
  196.7850  171.6010  139.7920 O   0  0  0  0  0  1  0  0  0  0  0  0
  195.9370  172.7800  138.0280 O   0  0  0  0  0  0  0  0  0  0  0  0
  195.4980  168.8950  138.1170 C   0  0  0  0  0  2  0  0  0  0  0  0
  196.5110  168.7000  136.9820 C   0  0  2  0  0  3  0  0  0  0  0  0
  197.9400  168.6110  137.4850 C   0  0  0  0  0  1  0  0  0  0  0  0
  196.4020  169.7740  135.9110 C   0  0  0  0  0  2  0  0  0  0  0  0
  197.5880  170.6190  135.9330 N   0  0  0  0  0  2  0  0  0  0  0  0
  197.2890  171.8000  135.1340 C   0  0  0  0  0  1  0  0  0  0  0  0
  1  7  1  6  0  0  0
  1 21  1  0  0  0  0
  1 20  1  0  0  0  0
  2 13  1  6  0  0  0
  2  3  1  0  0  0  0
  3  4  1  1  0  0  0
  5  4  2  0  0  0  0
  6 13  2  0  0  0  0
  6  5  1  0  0  0  0
  8  9  1  0  0  0  0
 10 53  1  1  0  0  0
 10 17  1  0  0  0  0
 11  7  2  0  0  0  0
 12  8  1  0  0  0  0
 12  7  1  0  0  0  0
 14 19  1  0  0  0  0
 16 18  2  0  0  0  0
 16 13  1  0  0  0  0
 17 50  1  1  0  0  0
 17 14  1  0  0  0  0
 18 22  1  0  0  0  0
 19 15  1  0  0  0  0
 20 18  1  0  0  0  0
 21  9  1  6  0  0  0
 21 10  1  0  0  0  0
 22  2  1  0  0  0  0
 22 15  1  0  0  0  0
 23 27  1  6  0  0  0
 23 30  1  0  0  0  0
 24  3  1  6  0  0  0
 24 28  1  0  0  0  0
 26 23  1  0  0  0  0
 26 24  1  0  0  0  0
 26 30  1  0  0  0  0
 27 32  1  0  0  0  0
 28 25  1  0  0  0  0
 28 33  1  0  0  0  0
 29 30  1  0  0  0  0
 30 31  1  0  0  0  0
 31 25  1  0  0  0  0
 32 29  1  0  0  0  0
 33 34  1  0  0  0  0
 34 36  1  0  0  0  0
 36 37  1  0  0  0  0
 37 35  2  0  0  0  0
 37 39  1  0  0  0  0
 38 40  1  0  0  0  0
 40 42  1  0  0  0  0
 41 38  1  0  0  0  0
 41 40  1  0  0  0  0
 41 36  1  0  0  0  0
 42 37  1  0  0  0  0
 42 43  1  0  0  0  0
 44 45  1  0  0  0  0
 45 48  1  0  0  0  0
 45 43  1  0  0  0  0
 46 48  2  0  0  0  0
 48 49  1  0  0  0  0
 48 47  1  0  0  0  0
 50 51  1  0  0  0  0
 52 50  2  0  0  0  0
 54 55  1  0  0  0  0
 54 53  1  0  0  0  0
 56 57  1  0  0  0  0
 56 54  1  0  0  0  0
 58 57  1  0  0  0  0
M  END
>  <MODEL>
9

>  <REMARK>
 VINA RESULT:      -6.3      4.099      9.428
  Name = 
  12 active torsions:
  status: ('A' for Active; 'I' for Inactive)
    1  A    between atoms: C_4  and  C_17
    2  A    between atoms: C_4  and  C_35
    3  A    between atoms: N_6  and  C_29
    4  A    between atoms: N_7  and  C_17
    5  A    between atoms: C_10  and  C_12
    6  A    between atoms: C_16  and  C_44
    7  A    between atoms: C_22  and  C_42
    8  A    between atoms: C_28  and  N_32
    9  A    between atoms: C_28  and  P_34
   10  A    between atoms: C_29  and  C_42
   11  A    between atoms: C_30  and  C_35
   12  A    between atoms: N_32  and  C_53
                            x       y       z     vdW  Elec       q    Type
                         _______ _______ _______ _____ _____    ______ ____

>  <TORSDO>
F 12

$$$$
