=
 OpenBabel11042415033D

 33 38  0  0  1  0  0  0  0  0999 V2000
  188.0280  176.8020  144.7040 C   0  0  1  0  0  3  0  0  0  0  0  0
  188.0760  178.0720  142.6700 C   0  0  2  0  0  0  0  0  0  0  0  0
  186.8740  178.3870  143.3840 C   0  0  2  0  0  3  0  0  0  0  0  0
  186.8310  177.6110  144.4530 C   0  0  2  0  0  3  0  0  0  0  0  0
  187.4950  177.4770  141.3970 C   0  0  1  0  0  3  0  0  0  0  0  0
  188.9780  177.2030  143.5600 C   0  0  2  0  0  3  0  0  0  0  0  0
  186.8030  177.2630  147.0820 S   0  0  0  0  0  0  0  0  0  0  0  0
  185.7400  178.5410  142.4580 C   0  0  2  0  0  3  0  0  0  0  0  0
  184.4190  177.9630  142.9950 C   0  0  1  0  0  3  0  0  0  0  0  0
  186.1420  177.9150  141.2510 O   0  0  0  0  0  0  0  0  0  0  0  0
  184.0110  178.7010  144.2760 C   0  0  0  0  0  2  0  0  0  0  0  0
  184.6990  178.2080  145.5300 C   0  0  0  0  0  3  0  0  0  0  0  0
  185.9580  177.7590  145.5840 C   0  0  0  0  0  0  0  0  0  0  0  0
  188.4630  178.6540  141.3220 C   0  0  0  0  0  2  0  0  0  0  0  0
  188.4020  177.1690  146.1380 C   0  0  1  0  0  3  0  0  0  0  0  0
  183.4250  178.1340  142.0330 O   0  0  0  0  0  1  0  0  0  0  0  0
  189.3580  176.1460  146.7610 C   0  0  1  0  0  3  0  0  0  0  0  0
  188.8670  174.8480  146.5930 O   0  0  0  0  0  1  0  0  0  0  0  0
  190.7760  176.2410  146.1830 C   0  0  0  0  0  2  0  0  0  0  0  0
  191.3330  175.2800  148.2960 O   0  0  0  0  0  1  0  0  0  0  0  0
  191.8800  175.9470  147.2000 C   0  0  1  0  0  3  0  0  0  0  0  0
  193.0030  175.1100  146.5860 C   0  0  0  0  0  2  0  0  0  0  0  0
  195.3500  175.2240  146.2310 O   0  0  0  0  0  1  0  0  0  0  0  0
  194.1760  175.9610  146.1060 C   0  0  0  0  0  0  0  0  0  0  0  0
  194.2770  177.1180  146.8830 O   0  0  0  0  0  1  0  0  0  0  0  0
  193.9990  176.3110  144.7660 O   0  0  0  0  0  1  0  0  0  0  0  0
  189.6650  176.0130  142.8650 C   0  0  0  0  0  2  0  0  0  0  0  0
  189.4180  172.2880  143.7600 C   0  0  0  0  0  2  0  0  0  0  0  0
  188.9760  171.8880  142.4840 O   0  0  0  0  0  0  0  0  0  0  0  0
  189.0130  174.6700  143.1640 C   0  0  0  0  0  3  0  0  0  0  0  0
  188.3320  174.1310  141.9060 C   0  0  0  0  0  2  0  0  0  0  0  0
  190.0550  173.6760  143.6780 C   0  0  0  0  0  2  0  0  0  0  0  0
  187.8680  172.6980  142.1690 C   0  0  0  0  0  2  0  0  0  0  0  0
  1 15  1  0  0  0  0
  2  3  1  0  0  0  0
  2  6  1  0  0  0  0
  3  4  1  0  0  0  0
  4  1  1  0  0  0  0
  4 13  1  0  0  0  0
  5  2  1  0  0  0  0
  6  1  1  0  0  0  0
  8  9  1  0  0  0  0
  8  3  1  0  0  0  0
  9 11  1  0  0  0  0
 10  5  1  0  0  0  0
 10  8  1  0  0  0  0
 11 12  1  0  0  0  0
 12 13  2  0  0  0  0
 13  7  1  0  0  0  0
 14  5  1  0  0  0  0
 14  2  1  0  0  0  0
 15 17  1  0  0  0  0
 15  7  1  0  0  0  0
 16  9  1  0  0  0  0
 18 17  1  0  0  0  0
 19 17  1  0  0  0  0
 19 21  1  0  0  0  0
 21 20  1  0  0  0  0
 22 21  1  0  0  0  0
 24 23  1  0  0  0  0
 24 22  1  0  0  0  0
 24 25  1  0  0  0  0
 26 24  1  0  0  0  0
 27 30  1  0  0  0  0
 27  6  1  0  0  0  0
 29 28  1  0  0  0  0
 30 32  1  0  0  0  0
 31 33  1  0  0  0  0
 31 30  1  0  0  0  0
 32 28  1  0  0  0  0
 33 29  1  0  0  0  0
M  END
>  <MODEL>
1

>  <REMARK>
 VINA RESULT:      -8.1      0.000      0.000
  Name = 
  7 active torsions:
  status: ('A' for Active; 'I' for Inactive)
    1  A    between atoms: C_3  and  C_15
    2  A    between atoms: C_6  and  C_31
    3  A    between atoms: C_6  and  C_32
    4  A    between atoms: C_10  and  C_15
    5  A    between atoms: C_10  and  C_31
    6  A    between atoms: C_11  and  C_12
    7  A    between atoms: C_11  and  C_18
                            x       y       z     vdW  Elec       q    Type
                         _______ _______ _______ _____ _____    ______ ____

>  <TORSDO>
F 7

$$$$
=
 OpenBabel11042415033D

 33 38  0  0  1  0  0  0  0  0999 V2000
  187.7540  176.6970  144.9160 C   0  0  1  0  0  3  0  0  0  0  0  0
  187.6800  177.4730  142.6480 C   0  0  2  0  0  0  0  0  0  0  0  0
  186.7200  178.2060  143.4200 C   0  0  2  0  0  3  0  0  0  0  0  0
  186.7200  177.7000  144.6410 C   0  0  2  0  0  3  0  0  0  0  0  0
  186.7650  176.7860  141.6470 C   0  0  1  0  0  3  0  0  0  0  0  0
  188.5370  176.6150  143.5930 C   0  0  2  0  0  3  0  0  0  0  0  0
  187.1080  177.9160  147.2550 S   0  0  0  0  0  0  0  0  0  0  0  0
  185.4890  178.4330  142.6440 C   0  0  2  0  0  3  0  0  0  0  0  0
  184.2020  178.3110  143.4780 C   0  0  1  0  0  3  0  0  0  0  0  0
  185.5260  177.4950  141.5820 O   0  0  0  0  0  0  0  0  0  0  0  0
  184.1950  179.3720  144.5850 C   0  0  0  0  0  2  0  0  0  0  0  0
  184.9890  178.9970  145.8170 C   0  0  0  0  0  3  0  0  0  0  0  0
  186.1190  178.2800  145.8090 C   0  0  0  0  0  0  0  0  0  0  0  0
  187.9200  177.6560  141.1610 C   0  0  0  0  0  2  0  0  0  0  0  0
  188.4520  177.2500  146.1570 C   0  0  1  0  0  3  0  0  0  0  0  0
  183.1020  178.5140  142.6450 O   0  0  0  0  0  1  0  0  0  0  0  0
  189.2800  176.1780  146.8740 C   0  0  1  0  0  3  0  0  0  0  0  0
  188.5690  174.9780  146.9530 O   0  0  0  0  0  1  0  0  0  0  0  0
  190.6350  175.9330  146.1970 C   0  0  0  0  0  2  0  0  0  0  0  0
  191.4050  175.2960  148.3650 O   0  0  0  0  0  1  0  0  0  0  0  0
  191.8140  175.8890  147.1710 C   0  0  1  0  0  3  0  0  0  0  0  0
  193.0000  175.1220  146.5850 C   0  0  0  0  0  2  0  0  0  0  0  0
  195.3240  175.3380  146.1400 O   0  0  0  0  0  1  0  0  0  0  0  0
  194.1240  176.0430  146.1190 C   0  0  0  0  0  0  0  0  0  0  0  0
  194.2260  177.1440  146.9730 O   0  0  0  0  0  1  0  0  0  0  0  0
  193.8780  176.4820  144.8160 O   0  0  0  0  0  1  0  0  0  0  0  0
  188.8280  175.1790  143.1210 C   0  0  0  0  0  2  0  0  0  0  0  0
  191.0510  173.6700  140.3780 C   0  0  0  0  0  2  0  0  0  0  0  0
  192.1610  173.4710  141.2220 O   0  0  0  0  0  0  0  0  0  0  0  0
  189.9710  175.0830  142.1200 C   0  0  0  0  0  3  0  0  0  0  0  0
  191.3060  175.0090  142.8600 C   0  0  0  0  0  2  0  0  0  0  0  0
  189.7870  173.8600  141.2190 C   0  0  0  0  0  2  0  0  0  0  0  0
  192.4150  174.7050  141.8520 C   0  0  0  0  0  2  0  0  0  0  0  0
  1 15  1  0  0  0  0
  2  3  1  0  0  0  0
  2  6  1  0  0  0  0
  3  4  1  0  0  0  0
  4  1  1  0  0  0  0
  4 13  1  0  0  0  0
  5  2  1  0  0  0  0
  6  1  1  0  0  0  0
  8  3  1  0  0  0  0
  8  9  1  0  0  0  0
  9 11  1  0  0  0  0
 10  5  1  0  0  0  0
 10  8  1  0  0  0  0
 11 12  1  0  0  0  0
 13 12  2  0  0  0  0
 13  7  1  0  0  0  0
 14  5  1  0  0  0  0
 14  2  1  0  0  0  0
 15 17  1  0  0  0  0
 15  7  1  0  0  0  0
 16  9  1  0  0  0  0
 17 18  1  0  0  0  0
 19 17  1  0  0  0  0
 19 21  1  0  0  0  0
 21 20  1  0  0  0  0
 22 21  1  0  0  0  0
 24 23  1  0  0  0  0
 24 22  1  0  0  0  0
 24 25  1  0  0  0  0
 26 24  1  0  0  0  0
 27  6  1  0  0  0  0
 28 32  1  0  0  0  0
 28 29  1  0  0  0  0
 29 33  1  0  0  0  0
 30 31  1  0  0  0  0
 30 27  1  0  0  0  0
 32 30  1  0  0  0  0
 33 31  1  0  0  0  0
M  END
>  <MODEL>
2

>  <REMARK>
 VINA RESULT:      -7.8      1.225      1.592
  Name = 
  7 active torsions:
  status: ('A' for Active; 'I' for Inactive)
    1  A    between atoms: C_3  and  C_15
    2  A    between atoms: C_6  and  C_31
    3  A    between atoms: C_6  and  C_32
    4  A    between atoms: C_10  and  C_15
    5  A    between atoms: C_10  and  C_31
    6  A    between atoms: C_11  and  C_12
    7  A    between atoms: C_11  and  C_18
                            x       y       z     vdW  Elec       q    Type
                         _______ _______ _______ _____ _____    ______ ____

>  <TORSDO>
F 7

$$$$
=
 OpenBabel11042415033D

 33 38  0  0  1  0  0  0  0  0999 V2000
  189.1080  176.7050  144.4590 C   0  0  1  0  0  3  0  0  0  0  0  0
  187.4570  177.9110  143.2060 C   0  0  2  0  0  0  0  0  0  0  0  0
  187.2180  178.1160  144.6050 C   0  0  2  0  0  3  0  0  0  0  0  0
  188.0840  177.3720  145.2700 C   0  0  2  0  0  3  0  0  0  0  0  0
  186.1640  177.2190  142.8030 C   0  0  1  0  0  3  0  0  0  0  0  0
  188.7920  177.1720  143.0260 C   0  0  2  0  0  3  0  0  0  0  0  0
  190.1210  177.1020  146.9470 S   0  0  0  0  0  0  0  0  0  0  0  0
  185.7740  178.1190  144.8940 C   0  0  2  0  0  3  0  0  0  0  0  0
  185.4060  177.4180  146.2130 C   0  0  1  0  0  3  0  0  0  0  0  0
  185.1570  177.5040  143.7760 O   0  0  0  0  0  0  0  0  0  0  0  0
  186.0650  178.1460  147.3910 C   0  0  0  0  0  2  0  0  0  0  0  0
  187.5100  177.7680  147.6320 C   0  0  0  0  0  3  0  0  0  0  0  0
  188.3890  177.4580  146.6710 C   0  0  0  0  0  0  0  0  0  0  0  0
  186.6110  178.4910  142.0870 C   0  0  0  0  0  2  0  0  0  0  0  0
  190.4140  177.1520  145.1120 C   0  0  1  0  0  3  0  0  0  0  0  0
  184.0210  177.4520  146.3730 O   0  0  0  0  0  1  0  0  0  0  0  0
  191.5920  176.2570  144.7100 C   0  0  1  0  0  3  0  0  0  0  0  0
  192.3760  176.8840  143.7380 O   0  0  0  0  0  1  0  0  0  0  0  0
  192.4670  175.8660  145.9080 C   0  0  0  0  0  2  0  0  0  0  0  0
  194.1250  177.2050  146.9840 O   0  0  0  0  0  1  0  0  0  0  0  0
  193.8860  176.4310  145.8480 C   0  0  1  0  0  3  0  0  0  0  0  0
  194.9310  175.3190  145.7440 C   0  0  0  0  0  2  0  0  0  0  0  0
  195.0240  174.6990  143.4520 O   0  0  0  0  0  1  0  0  0  0  0  0
  195.7260  175.3780  144.4430 C   0  0  0  0  0  0  0  0  0  0  0  0
  196.9730  174.7720  144.6160 O   0  0  0  0  0  1  0  0  0  0  0  0
  195.9030  176.7060  144.0470 O   0  0  0  0  0  1  0  0  0  0  0  0
  188.8000  176.0420  141.9800 C   0  0  0  0  0  2  0  0  0  0  0  0
  190.9400  172.8680  142.2730 C   0  0  0  0  0  2  0  0  0  0  0  0
  189.9180  171.9970  141.8470 O   0  0  0  0  0  0  0  0  0  0  0  0
  189.2790  174.7040  142.5260 C   0  0  0  0  0  3  0  0  0  0  0  0
  188.2140  173.6340  142.2890 C   0  0  0  0  0  2  0  0  0  0  0  0
  190.6000  174.3030  141.8680 C   0  0  0  0  0  2  0  0  0  0  0  0
  188.7950  172.2670  142.6530 C   0  0  0  0  0  2  0  0  0  0  0  0
  1 15  1  0  0  0  0
  1  4  1  0  0  0  0
  2  3  1  0  0  0  0
  3  8  1  0  0  0  0
  3  4  1  0  0  0  0
  4 13  1  0  0  0  0
  5  2  1  0  0  0  0
  5 10  1  0  0  0  0
  6  2  1  0  0  0  0
  6  1  1  0  0  0  0
  8  9  1  0  0  0  0
  9 16  1  0  0  0  0
  9 11  1  0  0  0  0
 10  8  1  0  0  0  0
 11 12  1  0  0  0  0
 13  7  1  0  0  0  0
 13 12  2  0  0  0  0
 14  5  1  0  0  0  0
 14  2  1  0  0  0  0
 15  7  1  0  0  0  0
 17 15  1  0  0  0  0
 17 19  1  0  0  0  0
 18 17  1  0  0  0  0
 21 19  1  0  0  0  0
 21 20  1  0  0  0  0
 22 21  1  0  0  0  0
 23 24  1  0  0  0  0
 24 25  1  0  0  0  0
 24 22  1  0  0  0  0
 26 24  1  0  0  0  0
 27 30  1  0  0  0  0
 27  6  1  0  0  0  0
 29 28  1  0  0  0  0
 29 33  1  0  0  0  0
 31 30  1  0  0  0  0
 31 33  1  0  0  0  0
 32 28  1  0  0  0  0
 32 30  1  0  0  0  0
M  END
>  <MODEL>
3

>  <REMARK>
 VINA RESULT:      -7.7      1.827      2.579
  Name = 
  7 active torsions:
  status: ('A' for Active; 'I' for Inactive)
    1  A    between atoms: C_3  and  C_15
    2  A    between atoms: C_6  and  C_31
    3  A    between atoms: C_6  and  C_32
    4  A    between atoms: C_10  and  C_15
    5  A    between atoms: C_10  and  C_31
    6  A    between atoms: C_11  and  C_12
    7  A    between atoms: C_11  and  C_18
                            x       y       z     vdW  Elec       q    Type
                         _______ _______ _______ _____ _____    ______ ____

>  <TORSDO>
F 7

$$$$
=
 OpenBabel11042415033D

 33 38  0  0  1  0  0  0  0  0999 V2000
  188.2370  176.0170  144.6690 C   0  0  1  0  0  3  0  0  0  0  0  0
  187.0620  177.3310  143.0430 C   0  0  2  0  0  0  0  0  0  0  0  0
  186.9080  177.9410  144.3310 C   0  0  2  0  0  3  0  0  0  0  0  0
  187.4890  177.1520  145.2180 C   0  0  2  0  0  3  0  0  0  0  0  0
  185.6130  177.0050  142.7170 C   0  0  1  0  0  3  0  0  0  0  0  0
  188.0840  176.1880  143.1460 C   0  0  2  0  0  3  0  0  0  0  0  0
  189.3350  176.6780  147.0620 S   0  0  0  0  0  0  0  0  0  0  0  0
  185.5440  178.4710  144.5000 C   0  0  2  0  0  3  0  0  0  0  0  0
  184.9740  178.2730  145.9150 C   0  0  1  0  0  3  0  0  0  0  0  0
  184.7570  177.8250  143.5140 O   0  0  0  0  0  0  0  0  0  0  0  0
  185.8390  179.0240  146.9350 C   0  0  0  0  0  2  0  0  0  0  0  0
  187.0840  178.2810  147.3680 C   0  0  0  0  0  3  0  0  0  0  0  0
  187.8110  177.4820  146.5780 C   0  0  0  0  0  0  0  0  0  0  0  0
  186.4450  177.8510  141.7580 C   0  0  0  0  0  2  0  0  0  0  0  0
  189.6210  176.1760  145.2950 C   0  0  1  0  0  3  0  0  0  0  0  0
  183.6770  178.7810  145.9560 O   0  0  0  0  0  1  0  0  0  0  0  0
  190.4430  174.8850  145.2070 C   0  0  1  0  0  3  0  0  0  0  0  0
  189.6020  173.7740  145.1010 O   0  0  0  0  0  1  0  0  0  0  0  0
  191.4330  174.8990  144.0350 C   0  0  0  0  0  2  0  0  0  0  0  0
  193.5960  174.0130  143.5490 O   0  0  0  0  0  1  0  0  0  0  0  0
  192.8980  174.8050  144.4620 C   0  0  1  0  0  3  0  0  0  0  0  0
  193.5460  176.1870  144.5570 C   0  0  0  0  0  2  0  0  0  0  0  0
  194.7510  177.7110  145.9250 O   0  0  0  0  0  1  0  0  0  0  0  0
  194.1000  176.4820  145.9490 C   0  0  0  0  0  0  0  0  0  0  0  0
  195.0100  175.4900  146.3220 O   0  0  0  0  0  1  0  0  0  0  0  0
  193.0600  176.5360  146.8790 O   0  0  0  0  0  1  0  0  0  0  0  0
  187.7210  174.8920  142.4000 C   0  0  0  0  0  2  0  0  0  0  0  0
  189.5340  173.7410  139.2170 C   0  0  0  0  0  2  0  0  0  0  0  0
  189.5470  172.3780  139.5740 O   0  0  0  0  0  0  0  0  0  0  0  0
  188.8470  174.3490  141.5310 C   0  0  0  0  0  3  0  0  0  0  0  0
  189.1200  172.8880  141.8840 C   0  0  0  0  0  2  0  0  0  0  0  0
  188.4900  174.4860  140.0500 C   0  0  0  0  0  2  0  0  0  0  0  0
  190.1020  172.3060  140.8670 C   0  0  0  0  0  2  0  0  0  0  0  0
  1  4  1  0  0  0  0
  1 15  1  0  0  0  0
  2  6  1  0  0  0  0
  2  3  1  0  0  0  0
  3  8  1  0  0  0  0
  3  4  1  0  0  0  0
  4 13  1  0  0  0  0
  5  2  1  0  0  0  0
  5 10  1  0  0  0  0
  6  1  1  0  0  0  0
  8  9  1  0  0  0  0
  9 16  1  0  0  0  0
  9 11  1  0  0  0  0
 10  8  1  0  0  0  0
 11 12  1  0  0  0  0
 13  7  1  0  0  0  0
 13 12  2  0  0  0  0
 14  5  1  0  0  0  0
 14  2  1  0  0  0  0
 15  7  1  0  0  0  0
 17 15  1  0  0  0  0
 18 17  1  0  0  0  0
 19 21  1  0  0  0  0
 19 17  1  0  0  0  0
 20 21  1  0  0  0  0
 21 22  1  0  0  0  0
 22 24  1  0  0  0  0
 23 24  1  0  0  0  0
 24 25  1  0  0  0  0
 24 26  1  0  0  0  0
 27  6  1  0  0  0  0
 28 29  1  0  0  0  0
 28 32  1  0  0  0  0
 29 33  1  0  0  0  0
 30 31  1  0  0  0  0
 30 27  1  0  0  0  0
 32 30  1  0  0  0  0
 33 31  1  0  0  0  0
M  END
>  <MODEL>
4

>  <REMARK>
 VINA RESULT:      -7.7      1.810      2.633
  Name = 
  7 active torsions:
  status: ('A' for Active; 'I' for Inactive)
    1  A    between atoms: C_3  and  C_15
    2  A    between atoms: C_6  and  C_31
    3  A    between atoms: C_6  and  C_32
    4  A    between atoms: C_10  and  C_15
    5  A    between atoms: C_10  and  C_31
    6  A    between atoms: C_11  and  C_12
    7  A    between atoms: C_11  and  C_18
                            x       y       z     vdW  Elec       q    Type
                         _______ _______ _______ _____ _____    ______ ____

>  <TORSDO>
F 7

$$$$
=
 OpenBabel11042415033D

 33 38  0  0  1  0  0  0  0  0999 V2000
  190.1680  175.2800  144.1530 C   0  0  1  0  0  3  0  0  0  0  0  0
  188.0660  175.2570  143.0010 C   0  0  2  0  0  0  0  0  0  0  0  0
  188.8930  174.2120  142.4740 C   0  0  2  0  0  3  0  0  0  0  0  0
  190.0730  174.3030  143.0640 C   0  0  2  0  0  3  0  0  0  0  0  0
  187.8780  176.1140  141.7590 C   0  0  1  0  0  3  0  0  0  0  0  0
  188.7460  175.8650  144.2370 C   0  0  2  0  0  3  0  0  0  0  0  0
  191.9900  173.3190  144.6090 S   0  0  0  0  0  0  0  0  0  0  0  0
  188.7320  174.1010  141.0150 C   0  0  2  0  0  3  0  0  0  0  0  0
  190.0440  173.8040  140.2680 C   0  0  1  0  0  3  0  0  0  0  0  0
  188.1480  175.3240  140.5990 O   0  0  0  0  0  0  0  0  0  0  0  0
  190.6100  172.4540  140.7260 C   0  0  0  0  0  2  0  0  0  0  0  0
  191.3960  172.5100  142.0170 C   0  0  0  0  0  3  0  0  0  0  0  0
  191.1180  173.3180  143.0460 C   0  0  0  0  0  0  0  0  0  0  0  0
  186.6650  175.5820  142.5150 C   0  0  0  0  0  2  0  0  0  0  0  0
  190.6960  174.4480  145.3200 C   0  0  1  0  0  3  0  0  0  0  0  0
  189.7830  173.7490  138.8990 O   0  0  0  0  0  1  0  0  0  0  0  0
  191.2730  175.3270  146.4360 C   0  0  1  0  0  3  0  0  0  0  0  0
  190.5880  175.1120  147.6350 O   0  0  0  0  0  1  0  0  0  0  0  0
  192.7740  175.0920  146.6490 C   0  0  0  0  0  2  0  0  0  0  0  0
  193.8900  177.1350  147.1800 O   0  0  0  0  0  1  0  0  0  0  0  0
  193.6560  176.2340  146.1410 C   0  0  1  0  0  3  0  0  0  0  0  0
  194.9850  175.7160  145.5900 C   0  0  0  0  0  2  0  0  0  0  0  0
  193.8610  176.3030  143.5800 O   0  0  0  0  0  1  0  0  0  0  0  0
  195.0670  175.8090  144.0680 C   0  0  0  0  0  0  0  0  0  0  0  0
  195.2970  174.5430  143.5240 O   0  0  0  0  0  1  0  0  0  0  0  0
  196.0980  176.6730  143.6940 O   0  0  0  0  0  1  0  0  0  0  0  0
  188.7020  177.4000  144.3430 C   0  0  0  0  0  2  0  0  0  0  0  0
  186.1970  177.2740  147.2490 C   0  0  0  0  0  2  0  0  0  0  0  0
  185.0890  177.6580  146.4670 O   0  0  0  0  0  0  0  0  0  0  0  0
  187.7340  177.9140  145.3990 C   0  0  0  0  0  3  0  0  0  0  0  0
  186.5040  178.5220  144.7260 C   0  0  0  0  0  2  0  0  0  0  0  0
  187.3260  176.7820  146.3430 C   0  0  0  0  0  2  0  0  0  0  0  0
  185.4590  178.8400  145.7970 C   0  0  0  0  0  2  0  0  0  0  0  0
  1  6  1  0  0  0  0
  1 15  1  0  0  0  0
  2  6  1  0  0  0  0
  3  2  1  0  0  0  0
  3  4  1  0  0  0  0
  4  1  1  0  0  0  0
  5 14  1  0  0  0  0
  5  2  1  0  0  0  0
  6 27  1  0  0  0  0
  7 15  1  0  0  0  0
  8  3  1  0  0  0  0
  9 11  1  0  0  0  0
  9  8  1  0  0  0  0
 10  8  1  0  0  0  0
 10  5  1  0  0  0  0
 11 12  1  0  0  0  0
 12 13  2  0  0  0  0
 13  4  1  0  0  0  0
 13  7  1  0  0  0  0
 14  2  1  0  0  0  0
 15 17  1  0  0  0  0
 16  9  1  0  0  0  0
 17 19  1  0  0  0  0
 17 18  1  0  0  0  0
 21 19  1  0  0  0  0
 21 20  1  0  0  0  0
 22 21  1  0  0  0  0
 23 24  1  0  0  0  0
 24 22  1  0  0  0  0
 25 24  1  0  0  0  0
 26 24  1  0  0  0  0
 27 30  1  0  0  0  0
 29 28  1  0  0  0  0
 30 32  1  0  0  0  0
 31 30  1  0  0  0  0
 31 33  1  0  0  0  0
 32 28  1  0  0  0  0
 33 29  1  0  0  0  0
M  END
>  <MODEL>
5

>  <REMARK>
 VINA RESULT:      -7.5      2.279      5.126
  Name = 
  7 active torsions:
  status: ('A' for Active; 'I' for Inactive)
    1  A    between atoms: C_3  and  C_15
    2  A    between atoms: C_6  and  C_31
    3  A    between atoms: C_6  and  C_32
    4  A    between atoms: C_10  and  C_15
    5  A    between atoms: C_10  and  C_31
    6  A    between atoms: C_11  and  C_12
    7  A    between atoms: C_11  and  C_18
                            x       y       z     vdW  Elec       q    Type
                         _______ _______ _______ _____ _____    ______ ____

>  <TORSDO>
F 7

$$$$
=
 OpenBabel11042415033D

 33 38  0  0  1  0  0  0  0  0999 V2000
  190.7460  175.7050  144.7100 C   0  0  1  0  0  3  0  0  0  0  0  0
  191.9400  174.3210  143.1590 C   0  0  2  0  0  0  0  0  0  0  0  0
  192.8550  174.7980  144.1530 C   0  0  2  0  0  3  0  0  0  0  0  0
  192.1910  175.6260  144.9420 C   0  0  2  0  0  3  0  0  0  0  0  0
  192.5430  174.9400  141.9070 C   0  0  1  0  0  3  0  0  0  0  0  0
  190.5090  174.7000  143.5680 C   0  0  2  0  0  3  0  0  0  0  0  0
  191.2250  176.3160  147.3120 S   0  0  0  0  0  0  0  0  0  0  0  0
  194.1560  175.1340  143.5500 C   0  0  2  0  0  3  0  0  0  0  0  0
  194.8070  176.3940  144.1450 C   0  0  1  0  0  3  0  0  0  0  0  0
  193.9110  175.2680  142.1600 O   0  0  0  0  0  0  0  0  0  0  0  0
  195.0870  176.1800  145.6380 C   0  0  0  0  0  2  0  0  0  0  0  0
  193.8930  176.4120  146.5380 C   0  0  0  0  0  3  0  0  0  0  0  0
  192.6260  176.1300  146.2140 C   0  0  0  0  0  0  0  0  0  0  0  0
  192.3170  173.4330  141.9860 C   0  0  0  0  0  2  0  0  0  0  0  0
  190.1570  175.4110  146.0880 C   0  0  1  0  0  3  0  0  0  0  0  0
  196.0120  176.6360  143.4860 O   0  0  0  0  0  1  0  0  0  0  0  0
  188.6930  175.8520  146.1920 C   0  0  1  0  0  3  0  0  0  0  0  0
  188.0890  175.2900  147.3210 O   0  0  0  0  0  1  0  0  0  0  0  0
  188.5410  177.3790  146.2290 C   0  0  0  0  0  2  0  0  0  0  0  0
  187.7730  178.7100  148.0560 O   0  0  0  0  0  1  0  0  0  0  0  0
  187.3370  177.8610  147.0390 C   0  0  1  0  0  3  0  0  0  0  0  0
  186.3180  178.5820  146.1570 C   0  0  0  0  0  2  0  0  0  0  0  0
  184.0660  178.5910  145.3970 O   0  0  0  0  0  1  0  0  0  0  0  0
  184.8840  178.1340  146.4260 C   0  0  0  0  0  0  0  0  0  0  0  0
  184.4350  178.6660  147.6370 O   0  0  0  0  0  1  0  0  0  0  0  0
  184.8170  176.7390  146.4740 O   0  0  0  0  0  1  0  0  0  0  0  0
  189.6040  175.2300  142.4410 C   0  0  0  0  0  2  0  0  0  0  0  0
  186.0320  176.4990  143.0530 C   0  0  0  0  0  2  0  0  0  0  0  0
  186.1350  177.5790  142.1550 O   0  0  0  0  0  0  0  0  0  0  0  0
  188.4930  176.1510  142.9280 C   0  0  0  0  0  3  0  0  0  0  0  0
  188.5360  177.4710  142.1580 C   0  0  0  0  0  2  0  0  0  0  0  0
  187.1310  175.4760  142.7620 C   0  0  0  0  0  2  0  0  0  0  0  0
  187.2960  178.2920  142.5120 C   0  0  0  0  0  2  0  0  0  0  0  0
  1  4  1  0  0  0  0
  1 15  1  0  0  0  0
  2  6  1  0  0  0  0
  2  3  1  0  0  0  0
  3  4  1  0  0  0  0
  4 13  1  0  0  0  0
  5 14  1  0  0  0  0
  5 10  1  0  0  0  0
  5  2  1  0  0  0  0
  6  1  1  0  0  0  0
  8  9  1  0  0  0  0
  8  3  1  0  0  0  0
  9 11  1  0  0  0  0
 10  8  1  0  0  0  0
 11 12  1  0  0  0  0
 13 12  2  0  0  0  0
 13  7  1  0  0  0  0
 14  2  1  0  0  0  0
 15 17  1  0  0  0  0
 15  7  1  0  0  0  0
 16  9  1  0  0  0  0
 17 19  1  0  0  0  0
 17 18  1  0  0  0  0
 19 21  1  0  0  0  0
 21 20  1  0  0  0  0
 22 24  1  0  0  0  0
 22 21  1  0  0  0  0
 23 24  1  0  0  0  0
 24 26  1  0  0  0  0
 24 25  1  0  0  0  0
 27 30  1  0  0  0  0
 27  6  1  0  0  0  0
 29 33  1  0  0  0  0
 29 28  1  0  0  0  0
 31 33  1  0  0  0  0
 31 30  1  0  0  0  0
 32 30  1  0  0  0  0
 32 28  1  0  0  0  0
M  END
>  <MODEL>
6

>  <REMARK>
 VINA RESULT:      -7.4      2.386      6.930
  Name = 
  7 active torsions:
  status: ('A' for Active; 'I' for Inactive)
    1  A    between atoms: C_3  and  C_15
    2  A    between atoms: C_6  and  C_31
    3  A    between atoms: C_6  and  C_32
    4  A    between atoms: C_10  and  C_15
    5  A    between atoms: C_10  and  C_31
    6  A    between atoms: C_11  and  C_12
    7  A    between atoms: C_11  and  C_18
                            x       y       z     vdW  Elec       q    Type
                         _______ _______ _______ _____ _____    ______ ____

>  <TORSDO>
F 7

$$$$
=
 OpenBabel11042415033D

 33 38  0  0  1  0  0  0  0  0999 V2000
  188.8100  177.5830  144.3480 C   0  0  1  0  0  3  0  0  0  0  0  0
  187.6360  176.4860  146.1280 C   0  0  2  0  0  0  0  0  0  0  0  0
  186.6880  176.9090  145.1400 C   0  0  2  0  0  3  0  0  0  0  0  0
  187.3490  177.5850  144.2160 C   0  0  2  0  0  3  0  0  0  0  0  0
  187.1640  177.2930  147.3280 C   0  0  1  0  0  3  0  0  0  0  0  0
  189.0580  176.7060  145.5890 C   0  0  2  0  0  3  0  0  0  0  0  0
  188.1930  177.9150  141.7240 S   0  0  0  0  0  0  0  0  0  0  0  0
  185.4570  177.4100  145.7750 C   0  0  2  0  0  3  0  0  0  0  0  0
  184.8520  178.6360  145.0700 C   0  0  1  0  0  3  0  0  0  0  0  0
  185.8070  177.6900  147.1200 O   0  0  0  0  0  0  0  0  0  0  0  0
  184.4560  178.2680  143.6340 C   0  0  0  0  0  2  0  0  0  0  0  0
  185.5970  178.3020  142.6410 C   0  0  0  0  0  3  0  0  0  0  0  0
  186.8620  177.9660  142.9200 C   0  0  0  0  0  0  0  0  0  0  0  0
  187.2820  175.7740  147.4210 C   0  0  0  0  0  2  0  0  0  0  0  0
  189.2800  177.0850  142.9830 C   0  0  1  0  0  3  0  0  0  0  0  0
  183.7150  179.0440  145.7660 O   0  0  0  0  0  1  0  0  0  0  0  0
  190.7600  177.3990  142.7370 C   0  0  1  0  0  3  0  0  0  0  0  0
  191.1860  178.4420  143.5650 O   0  0  0  0  0  1  0  0  0  0  0  0
  191.6620  176.1740  142.9430 C   0  0  0  0  0  2  0  0  0  0  0  0
  192.4180  174.6530  141.2660 O   0  0  0  0  0  1  0  0  0  0  0  0
  191.3100  174.9890  142.0430 C   0  0  1  0  0  3  0  0  0  0  0  0
  190.8580  173.7780  142.8600 C   0  0  0  0  0  2  0  0  0  0  0  0
  190.3600  171.9930  141.3720 O   0  0  0  0  0  1  0  0  0  0  0  0
  189.7650  172.9720  142.1620 C   0  0  0  0  0  0  0  0  0  0  0  0
  188.9980  173.8100  141.3490 O   0  0  0  0  0  1  0  0  0  0  0  0
  188.9430  172.3550  143.1070 O   0  0  0  0  0  1  0  0  0  0  0  0
  190.0720  177.2970  146.5850 C   0  0  0  0  0  2  0  0  0  0  0  0
  193.6660  175.9480  146.5120 C   0  0  0  0  0  2  0  0  0  0  0  0
  193.3510  174.8160  145.7350 O   0  0  0  0  0  0  0  0  0  0  0  0
  191.2420  176.3720  146.8890 C   0  0  0  0  0  3  0  0  0  0  0  0
  191.0090  175.0080  146.2420 C   0  0  0  0  0  2  0  0  0  0  0  0
  192.5500  176.9880  146.3890 C   0  0  0  0  0  2  0  0  0  0  0  0
  192.2800  174.1690  146.3810 C   0  0  0  0  0  2  0  0  0  0  0  0
  1  6  1  0  0  0  0
  2  5  1  0  0  0  0
  2 14  1  0  0  0  0
  3  8  1  0  0  0  0
  3  2  1  0  0  0  0
  4  1  1  0  0  0  0
  4  3  1  0  0  0  0
  5 14  1  0  0  0  0
  6  2  1  0  0  0  0
  6 27  1  0  0  0  0
  7 13  1  0  0  0  0
  7 15  1  0  0  0  0
  8 10  1  0  0  0  0
  9 16  1  0  0  0  0
  9  8  1  0  0  0  0
 10  5  1  0  0  0  0
 11  9  1  0  0  0  0
 12 13  2  0  0  0  0
 12 11  1  0  0  0  0
 13  4  1  0  0  0  0
 15  1  1  0  0  0  0
 17 19  1  0  0  0  0
 17 15  1  0  0  0  0
 17 18  1  0  0  0  0
 20 21  1  0  0  0  0
 21 22  1  0  0  0  0
 21 19  1  0  0  0  0
 23 24  1  0  0  0  0
 24 22  1  0  0  0  0
 24 26  1  0  0  0  0
 25 24  1  0  0  0  0
 27 30  1  0  0  0  0
 29 33  1  0  0  0  0
 29 28  1  0  0  0  0
 31 33  1  0  0  0  0
 31 30  1  0  0  0  0
 32 28  1  0  0  0  0
 32 30  1  0  0  0  0
M  END
>  <MODEL>
7

>  <REMARK>
 VINA RESULT:      -7.4      2.155      4.966
  Name = 
  7 active torsions:
  status: ('A' for Active; 'I' for Inactive)
    1  A    between atoms: C_3  and  C_15
    2  A    between atoms: C_6  and  C_31
    3  A    between atoms: C_6  and  C_32
    4  A    between atoms: C_10  and  C_15
    5  A    between atoms: C_10  and  C_31
    6  A    between atoms: C_11  and  C_12
    7  A    between atoms: C_11  and  C_18
                            x       y       z     vdW  Elec       q    Type
                         _______ _______ _______ _____ _____    ______ ____

>  <TORSDO>
F 7

$$$$
=
 OpenBabel11042415033D

 33 38  0  0  1  0  0  0  0  0999 V2000
  189.7620  175.2820  143.4260 C   0  0  1  0  0  3  0  0  0  0  0  0
  188.4820  173.5480  142.3740 C   0  0  2  0  0  0  0  0  0  0  0  0
  189.5350  172.9470  143.1370 C   0  0  2  0  0  3  0  0  0  0  0  0
  190.2750  173.9240  143.6330 C   0  0  2  0  0  3  0  0  0  0  0  0
  188.8530  173.0820  140.9750 C   0  0  1  0  0  3  0  0  0  0  0  0
  188.4370  175.0540  142.6750 C   0  0  2  0  0  3  0  0  0  0  0  0
  191.2780  175.2820  145.6780 S   0  0  0  0  0  0  0  0  0  0  0  0
  190.1050  171.7910  142.4250 C   0  0  2  0  0  3  0  0  0  0  0  0
  191.6320  171.6690  142.5650 C   0  0  1  0  0  3  0  0  0  0  0  0
  189.7050  171.9390  141.0730 O   0  0  0  0  0  0  0  0  0  0  0  0
  192.0050  171.4710  144.0390 C   0  0  0  0  0  2  0  0  0  0  0  0
  192.0670  172.7490  144.8470 C   0  0  0  0  0  3  0  0  0  0  0  0
  191.2680  173.8070  144.6630 C   0  0  0  0  0  0  0  0  0  0  0  0
  187.4680  172.7840  141.5410 C   0  0  0  0  0  2  0  0  0  0  0  0
  189.7220  175.8580  144.8400 C   0  0  1  0  0  3  0  0  0  0  0  0
  192.0670  170.5650  141.8320 O   0  0  0  0  0  1  0  0  0  0  0  0
  189.6240  177.3870  144.8330 C   0  0  1  0  0  3  0  0  0  0  0  0
  190.4050  177.9260  143.8070 O   0  0  0  0  0  1  0  0  0  0  0  0
  188.1780  177.8820  144.6970 C   0  0  0  0  0  2  0  0  0  0  0  0
  188.1440  177.7070  147.0770 O   0  0  0  0  0  1  0  0  0  0  0  0
  187.3270  177.6580  145.9480 C   0  0  1  0  0  3  0  0  0  0  0  0
  186.2120  178.6980  146.0630 C   0  0  0  0  0  2  0  0  0  0  0  0
  184.9380  176.7160  146.3700 O   0  0  0  0  0  1  0  0  0  0  0  0
  184.8930  178.0960  146.5410 C   0  0  0  0  0  0  0  0  0  0  0  0
  183.8320  178.6150  145.7950 O   0  0  0  0  0  1  0  0  0  0  0  0
  184.6970  178.3800  147.8940 O   0  0  0  0  0  1  0  0  0  0  0  0
  188.2340  175.9790  141.4610 C   0  0  0  0  0  2  0  0  0  0  0  0
  184.9460  177.5590  142.6560 C   0  0  0  0  0  2  0  0  0  0  0  0
  184.4060  177.7020  141.3630 O   0  0  0  0  0  0  0  0  0  0  0  0
  187.1780  177.0530  141.6780 C   0  0  0  0  0  3  0  0  0  0  0  0
  186.5670  177.4600  140.3370 C   0  0  0  0  0  2  0  0  0  0  0  0
  186.0930  176.5480  142.6310 C   0  0  0  0  0  2  0  0  0  0  0  0
  185.3730  178.3800  140.5960 C   0  0  0  0  0  2  0  0  0  0  0  0
  1  4  1  0  0  0  0
  1 15  1  0  0  0  0
  2  6  1  0  0  0  0
  2  3  1  0  0  0  0
  3  4  1  0  0  0  0
  4 13  1  0  0  0  0
  5 10  1  0  0  0  0
  5 14  1  0  0  0  0
  5  2  1  0  0  0  0
  6  1  1  0  0  0  0
  8  9  1  0  0  0  0
  8  3  1  0  0  0  0
  9 11  1  0  0  0  0
 10  8  1  0  0  0  0
 11 12  1  0  0  0  0
 13 12  2  0  0  0  0
 13  7  1  0  0  0  0
 14  2  1  0  0  0  0
 15  7  1  0  0  0  0
 16  9  1  0  0  0  0
 17 15  1  0  0  0  0
 18 17  1  0  0  0  0
 19 17  1  0  0  0  0
 19 21  1  0  0  0  0
 21 22  1  0  0  0  0
 21 20  1  0  0  0  0
 22 24  1  0  0  0  0
 23 24  1  0  0  0  0
 24 26  1  0  0  0  0
 25 24  1  0  0  0  0
 27 30  1  0  0  0  0
 27  6  1  0  0  0  0
 29 28  1  0  0  0  0
 30 32  1  0  0  0  0
 31 33  1  0  0  0  0
 31 30  1  0  0  0  0
 32 28  1  0  0  0  0
 33 29  1  0  0  0  0
M  END
>  <MODEL>
8

>  <REMARK>
 VINA RESULT:      -7.1      2.524      6.793
  Name = 
  7 active torsions:
  status: ('A' for Active; 'I' for Inactive)
    1  A    between atoms: C_3  and  C_15
    2  A    between atoms: C_6  and  C_31
    3  A    between atoms: C_6  and  C_32
    4  A    between atoms: C_10  and  C_15
    5  A    between atoms: C_10  and  C_31
    6  A    between atoms: C_11  and  C_12
    7  A    between atoms: C_11  and  C_18
                            x       y       z     vdW  Elec       q    Type
                         _______ _______ _______ _____ _____    ______ ____

>  <TORSDO>
F 7

$$$$
=
 OpenBabel11042415033D

 33 38  0  0  1  0  0  0  0  0999 V2000
  188.4300  176.1280  144.3320 C   0  0  1  0  0  3  0  0  0  0  0  0
  186.9540  176.5930  146.1640 C   0  0  2  0  0  0  0  0  0  0  0  0
  186.2880  176.9210  144.9380 C   0  0  2  0  0  3  0  0  0  0  0  0
  187.1520  176.7390  143.9540 C   0  0  2  0  0  3  0  0  0  0  0  0
  186.9910  177.9580  146.8330 C   0  0  1  0  0  3  0  0  0  0  0  0
  188.2750  175.8780  145.8440 C   0  0  2  0  0  3  0  0  0  0  0  0
  187.9330  175.5190  141.7330 S   0  0  0  0  0  0  0  0  0  0  0  0
  185.4900  178.1490  145.0880 C   0  0  2  0  0  3  0  0  0  0  0  0
  185.5280  179.0670  143.8540 C   0  0  1  0  0  3  0  0  0  0  0  0
  185.9930  178.7940  146.2460 O   0  0  0  0  0  0  0  0  0  0  0  0
  184.9370  178.3350  142.6430 C   0  0  0  0  0  2  0  0  0  0  0  0
  185.9020  177.4060  141.9400 C   0  0  0  0  0  3  0  0  0  0  0  0
  186.8530  176.6890  142.5510 C   0  0  0  0  0  0  0  0  0  0  0  0
  186.3580  176.7680  147.5490 C   0  0  0  0  0  2  0  0  0  0  0  0
  188.5340  174.9300  143.3910 C   0  0  1  0  0  3  0  0  0  0  0  0
  184.7680  180.2070  144.1130 O   0  0  0  0  0  1  0  0  0  0  0  0
  189.9660  174.3900  143.3060 C   0  0  1  0  0  3  0  0  0  0  0  0
  189.9580  173.0070  143.1020 O   0  0  0  0  0  1  0  0  0  0  0  0
  190.7850  175.0710  142.2020 C   0  0  0  0  0  2  0  0  0  0  0  0
  191.6040  173.9100  140.2840 O   0  0  0  0  0  1  0  0  0  0  0  0
  191.8910  174.1900  141.6200 C   0  0  1  0  0  3  0  0  0  0  0  0
  193.2610  174.8610  141.7300 C   0  0  0  0  0  2  0  0  0  0  0  0
  195.1720  174.8920  143.1420 O   0  0  0  0  0  1  0  0  0  0  0  0
  194.2570  174.0340  142.5390 C   0  0  0  0  0  0  0  0  0  0  0  0
  194.9420  173.1530  141.7000 O   0  0  0  0  0  1  0  0  0  0  0  0
  193.5890  173.3120  143.5310 O   0  0  0  0  0  1  0  0  0  0  0  0
  189.4940  176.3080  146.6810 C   0  0  0  0  0  2  0  0  0  0  0  0
  193.1840  175.2630  146.5080 C   0  0  0  0  0  2  0  0  0  0  0  0
  193.6360  176.5050  146.0200 O   0  0  0  0  0  0  0  0  0  0  0  0
  190.8300  175.9330  146.0550 C   0  0  0  0  0  3  0  0  0  0  0  0
  191.4230  177.1410  145.3310 C   0  0  0  0  0  2  0  0  0  0  0  0
  191.7950  175.4230  147.1270 C   0  0  0  0  0  2  0  0  0  0  0  0
  192.8490  176.8050  144.8920 C   0  0  0  0  0  2  0  0  0  0  0  0
  1  6  1  0  0  0  0
  2  5  1  0  0  0  0
  2 14  1  0  0  0  0
  3  8  1  0  0  0  0
  3  2  1  0  0  0  0
  4  1  1  0  0  0  0
  4  3  1  0  0  0  0
  5 14  1  0  0  0  0
  6  2  1  0  0  0  0
  6 27  1  0  0  0  0
  7 13  1  0  0  0  0
  7 15  1  0  0  0  0
  8 10  1  0  0  0  0
  9 16  1  0  0  0  0
  9  8  1  0  0  0  0
 10  5  1  0  0  0  0
 11  9  1  0  0  0  0
 12 13  2  0  0  0  0
 12 11  1  0  0  0  0
 13  4  1  0  0  0  0
 15  1  1  0  0  0  0
 17 15  1  0  0  0  0
 18 17  1  0  0  0  0
 19 17  1  0  0  0  0
 20 21  1  0  0  0  0
 21 22  1  0  0  0  0
 21 19  1  0  0  0  0
 22 24  1  0  0  0  0
 24 23  1  0  0  0  0
 24 26  1  0  0  0  0
 25 24  1  0  0  0  0
 28 32  1  0  0  0  0
 29 28  1  0  0  0  0
 30 27  1  0  0  0  0
 30 32  1  0  0  0  0
 31 30  1  0  0  0  0
 33 31  1  0  0  0  0
 33 29  1  0  0  0  0
M  END
>  <MODEL>
9

>  <REMARK>
 VINA RESULT:      -7.0      2.438      4.583
  Name = 
  7 active torsions:
  status: ('A' for Active; 'I' for Inactive)
    1  A    between atoms: C_3  and  C_15
    2  A    between atoms: C_6  and  C_31
    3  A    between atoms: C_6  and  C_32
    4  A    between atoms: C_10  and  C_15
    5  A    between atoms: C_10  and  C_31
    6  A    between atoms: C_11  and  C_12
    7  A    between atoms: C_11  and  C_18
                            x       y       z     vdW  Elec       q    Type
                         _______ _______ _______ _____ _____    ______ ____

>  <TORSDO>
F 7

$$$$
