=
 OpenBabel11042413493D

 25 27  0  0  1  0  0  0  0  0999 V2000
  187.6630  177.9730  143.5280 C   0  0  2  0  0  3  0  0  0  0  0  0
  187.4950  176.0890  145.9090 N   0  0  0  0  0  0  0  0  0  0  0  0
  189.0430  177.5320  143.6470 N   0  0  0  0  0  2  0  0  0  0  0  0
  190.9920  176.3980  144.4750 C   0  0  0  0  0  3  0  0  0  0  0  0
  186.6400  177.0110  145.5910 C   0  0  0  0  0  0  0  0  0  0  0  0
  189.6170  175.1250  146.5010 C   0  0  0  0  0  3  0  0  0  0  0  0
  191.6420  175.5260  145.3440 C   0  0  0  0  0  0  0  0  0  0  0  0
  189.6210  176.6430  144.6110 C   0  0  0  0  0  0  0  0  0  0  0  0
  188.9090  175.9980  145.6650 C   0  0  0  0  0  0  0  0  0  0  0  0
  190.9470  174.9130  146.3340 N   0  0  0  0  0  0  0  0  0  0  0  0
  187.0480  178.2630  144.8880 C   0  0  0  0  0  2  0  0  0  0  0  0
  185.4210  178.2030  140.6580 N   0  0  0  0  0  0  0  0  0  0  0  0
  186.8390  177.1530  142.5120 C   0  0  2  0  0  0  0  0  0  0  0  0
  187.1360  177.8180  140.8280 S   0  0  0  0  0  0  0  0  0  0  0  0
  183.3210  178.1220  141.7360 N   0  0  0  0  0  1  0  0  0  0  0  0
  185.4170  177.3070  142.7760 N   0  0  0  0  0  2  0  0  0  0  0  0
  184.7240  177.8910  141.6900 C   0  0  0  0  0  0  0  0  0  0  0  0
  187.1860  175.7240  142.5210 C   0  0  0  0  0  0  0  0  0  0  0  0
  187.4680  174.5510  142.5340 C   0  0  0  0  0  3  0  0  0  0  0  0
  193.1060  175.2870  145.2050 C   0  0  0  0  0  2  0  0  0  0  0  0
  194.1730  176.7430  146.4800 C   0  0  0  0  0  1  0  0  0  0  0  0
  193.7250  175.4220  146.4490 O   0  0  0  0  0  0  0  0  0  0  0  0
  185.3000  176.8100  145.9300 O   0  0  0  0  0  0  0  0  0  0  0  0
  184.4170  177.8810  146.2350 C   0  0  0  0  0  2  0  0  0  0  0  0
  184.8140  178.5010  147.5570 C   0  0  0  0  0  1  0  0  0  0  0  0
  1  3  1  0  0  0  0
  1 11  1  1  0  0  0
  3  8  1  0  0  0  0
  4  8  2  0  0  0  0
  4  7  1  0  0  0  0
  5  2  2  0  0  0  0
  5 23  1  0  0  0  0
  7 10  2  0  0  0  0
  8  9  1  0  0  0  0
  9  2  1  0  0  0  0
  9  6  2  0  0  0  0
 10  6  1  0  0  0  0
 11  5  1  0  0  0  0
 12 14  1  0  0  0  0
 12 17  2  0  0  0  0
 13 18  1  1  0  0  0
 13 16  1  0  0  0  0
 13  1  1  0  0  0  0
 14 13  1  0  0  0  0
 17 15  1  0  0  0  0
 17 16  1  0  0  0  0
 18 19  3  0  0  0  0
 20  7  1  0  0  0  0
 20 22  1  0  0  0  0
 22 21  1  0  0  0  0
 23 24  1  0  0  0  0
 24 25  1  0  0  0  0
M  END
>  <MODEL>
1

>  <REMARK>
 VINA RESULT:      -6.3      0.000      0.000
  Name = 
  6 active torsions:
  status: ('A' for Active; 'I' for Inactive)
    1  A    between atoms: C_1  and  C_12
    2  A    between atoms: C_6  and  O_20
    3  A    between atoms: C_8  and  O_20
    4  A    between atoms: C_9  and  C_14
    5  A    between atoms: C_12  and  C_19
    6  A    between atoms: C_14  and  O_22
                            x       y       z     vdW  Elec       q    Type
                         _______ _______ _______ _____ _____    ______ ____

>  <TORSDO>
F 6

$$$$
=
 OpenBabel11042413493D

 25 27  0  0  1  0  0  0  0  0999 V2000
  189.1700  177.8520  144.3560 C   0  0  2  0  0  3  0  0  0  0  0  0
  189.6280  175.7100  146.4640 N   0  0  0  0  0  0  0  0  0  0  0  0
  190.6030  177.6330  144.2400 N   0  0  0  0  0  2  0  0  0  0  0  0
  192.7960  176.7480  144.6570 C   0  0  0  0  0  3  0  0  0  0  0  0
  188.6090  176.5090  146.3820 C   0  0  0  0  0  0  0  0  0  0  0  0
  191.9310  175.0470  146.6510 C   0  0  0  0  0  3  0  0  0  0  0  0
  193.6870  175.9020  145.3140 C   0  0  0  0  0  0  0  0  0  0  0  0
  191.4390  176.7470  144.9960 C   0  0  0  0  0  0  0  0  0  0  0  0
  190.9900  175.8800  146.0350 C   0  0  0  0  0  0  0  0  0  0  0  0
  193.2400  175.0760  146.2920 N   0  0  0  0  0  0  0  0  0  0  0  0
  188.7230  177.8820  145.8080 C   0  0  0  0  0  2  0  0  0  0  0  0
  186.6640  178.0600  141.7100 N   0  0  0  0  0  0  0  0  0  0  0  0
  188.3380  177.0280  143.3500 C   0  0  2  0  0  0  0  0  0  0  0  0
  188.4150  177.8380  141.7050 S   0  0  0  0  0  0  0  0  0  0  0  0
  184.6880  177.6930  142.9510 N   0  0  0  0  0  1  0  0  0  0  0  0
  186.9370  177.0190  143.7430 N   0  0  0  0  0  2  0  0  0  0  0  0
  186.0960  177.6070  142.7690 C   0  0  0  0  0  0  0  0  0  0  0  0
  188.8160  175.6440  143.2160 C   0  0  0  0  0  0  0  0  0  0  0  0
  189.2070  174.5090  143.1010 C   0  0  0  0  0  3  0  0  0  0  0  0
  195.1340  175.9240  144.9620 C   0  0  0  0  0  2  0  0  0  0  0  0
  196.5310  176.6870  143.4290 C   0  0  0  0  0  1  0  0  0  0  0  0
  195.2810  176.0880  143.5840 O   0  0  0  0  0  0  0  0  0  0  0  0
  187.3770  176.0540  146.8570 O   0  0  0  0  0  0  0  0  0  0  0  0
  186.3940  176.9260  147.3970 C   0  0  0  0  0  2  0  0  0  0  0  0
  185.1320  176.8390  146.5660 C   0  0  0  0  0  1  0  0  0  0  0  0
  1 11  1  1  0  0  0
  3  1  1  0  0  0  0
  3  8  1  0  0  0  0
  4  8  2  0  0  0  0
  4  7  1  0  0  0  0
  5  2  2  0  0  0  0
  5 23  1  0  0  0  0
  7 10  2  0  0  0  0
  8  9  1  0  0  0  0
  9  2  1  0  0  0  0
  9  6  2  0  0  0  0
 10  6  1  0  0  0  0
 11  5  1  0  0  0  0
 12 17  2  0  0  0  0
 13 18  1  6  0  0  0
 13 16  1  0  0  0  0
 13  1  1  0  0  0  0
 14 12  1  0  0  0  0
 14 13  1  0  0  0  0
 17 15  1  0  0  0  0
 17 16  1  0  0  0  0
 19 18  3  0  0  0  0
 20  7  1  0  0  0  0
 21 22  1  0  0  0  0
 22 20  1  0  0  0  0
 23 24  1  0  0  0  0
 25 24  1  0  0  0  0
M  END
>  <MODEL>
2

>  <REMARK>
 VINA RESULT:      -6.0      1.811      2.158
  Name = 
  6 active torsions:
  status: ('A' for Active; 'I' for Inactive)
    1  A    between atoms: C_1  and  C_12
    2  A    between atoms: C_6  and  O_20
    3  A    between atoms: C_8  and  O_20
    4  A    between atoms: C_9  and  C_14
    5  A    between atoms: C_12  and  C_19
    6  A    between atoms: C_14  and  O_22
                            x       y       z     vdW  Elec       q    Type
                         _______ _______ _______ _____ _____    ______ ____

>  <TORSDO>
F 6

$$$$
=
 OpenBabel11042413493D

 25 27  0  0  1  0  0  0  0  0999 V2000
  188.3880  177.6630  143.1030 C   0  0  2  0  0  3  0  0  0  0  0  0
  188.9880  175.5940  145.2490 N   0  0  0  0  0  0  0  0  0  0  0  0
  189.7270  177.2390  142.7300 N   0  0  0  0  0  2  0  0  0  0  0  0
  191.8300  176.0790  142.7850 C   0  0  0  0  0  3  0  0  0  0  0  0
  188.0840  176.5220  145.3020 C   0  0  0  0  0  0  0  0  0  0  0  0
  191.1780  174.6250  145.0390 C   0  0  0  0  0  3  0  0  0  0  0  0
  192.7200  175.1520  143.3230 C   0  0  0  0  0  0  0  0  0  0  0  0
  190.5800  176.2870  143.3800 C   0  0  0  0  0  0  0  0  0  0  0  0
  190.2450  175.5480  144.5520 C   0  0  0  0  0  0  0  0  0  0  0  0
  192.3800  174.4510  144.4320 N   0  0  0  0  0  0  0  0  0  0  0  0
  188.2520  177.8330  144.6080 C   0  0  0  0  0  2  0  0  0  0  0  0
  185.4630  178.0760  140.9590 N   0  0  0  0  0  0  0  0  0  0  0  0
  187.2710  176.9110  142.3480 C   0  0  2  0  0  0  0  0  0  0  0  0
  187.1330  177.5940  140.6500 S   0  0  0  0  0  0  0  0  0  0  0  0
  183.7380  178.0880  142.5720 N   0  0  0  0  0  1  0  0  0  0  0  0
  185.9870  177.1370  142.9920 N   0  0  0  0  0  2  0  0  0  0  0  0
  185.0580  177.7810  142.1410 C   0  0  0  0  0  0  0  0  0  0  0  0
  187.5230  175.4650  142.2540 C   0  0  0  0  0  0  0  0  0  0  0  0
  187.7280  174.2780  142.1830 C   0  0  0  0  0  3  0  0  0  0  0  0
  194.0560  174.9520  142.6960 C   0  0  0  0  0  2  0  0  0  0  0  0
  195.6870  175.9940  143.7620 C   0  0  0  0  0  1  0  0  0  0  0  0
  194.7720  176.1490  142.7210 O   0  0  0  0  0  0  0  0  0  0  0  0
  186.9260  176.2710  146.0420 O   0  0  0  0  0  0  0  0  0  0  0  0
  186.2860  177.2670  146.8270 C   0  0  0  0  0  2  0  0  0  0  0  0
  184.8320  177.3730  146.4210 C   0  0  0  0  0  1  0  0  0  0  0  0
  1 11  1  1  0  0  0
  2  5  2  0  0  0  0
  3  1  1  0  0  0  0
  3  8  1  0  0  0  0
  4  7  2  0  0  0  0
  4  8  1  0  0  0  0
  5 23  1  0  0  0  0
  7 10  1  0  0  0  0
  8  9  2  0  0  0  0
  9  6  1  0  0  0  0
  9  2  1  0  0  0  0
 10  6  2  0  0  0  0
 11  5  1  0  0  0  0
 12 17  2  0  0  0  0
 13 18  1  6  0  0  0
 13 16  1  0  0  0  0
 13  1  1  0  0  0  0
 14 12  1  0  0  0  0
 14 13  1  0  0  0  0
 17 15  1  0  0  0  0
 17 16  1  0  0  0  0
 19 18  3  0  0  0  0
 20 22  1  0  0  0  0
 20  7  1  0  0  0  0
 22 21  1  0  0  0  0
 23 24  1  0  0  0  0
 25 24  1  0  0  0  0
M  END
>  <MODEL>
3

>  <REMARK>
 VINA RESULT:      -6.0      1.607      1.791
  Name = 
  6 active torsions:
  status: ('A' for Active; 'I' for Inactive)
    1  A    between atoms: C_1  and  C_12
    2  A    between atoms: C_6  and  O_20
    3  A    between atoms: C_8  and  O_20
    4  A    between atoms: C_9  and  C_14
    5  A    between atoms: C_12  and  C_19
    6  A    between atoms: C_14  and  O_22
                            x       y       z     vdW  Elec       q    Type
                         _______ _______ _______ _____ _____    ______ ____

>  <TORSDO>
F 6

$$$$
=
 OpenBabel11042413493D

 25 27  0  0  1  0  0  0  0  0999 V2000
  190.7340  176.5760  144.3860 C   0  0  2  0  0  3  0  0  0  0  0  0
  188.4870  175.0760  142.9890 N   0  0  0  0  0  0  0  0  0  0  0  0
  189.5920  177.4270  144.6780 N   0  0  0  0  0  2  0  0  0  0  0  0
  187.3380  178.2570  144.7040 C   0  0  0  0  0  3  0  0  0  0  0  0
  189.7590  174.9500  142.7630 C   0  0  0  0  0  0  0  0  0  0  0  0
  186.3570  176.1720  143.1860 C   0  0  0  0  0  3  0  0  0  0  0  0
  185.9860  178.1800  144.3810 C   0  0  0  0  0  0  0  0  0  0  0  0
  188.2280  177.2700  144.2650 C   0  0  0  0  0  0  0  0  0  0  0  0
  187.7280  176.1990  143.4690 C   0  0  0  0  0  0  0  0  0  0  0  0
  185.5260  177.1470  143.6320 N   0  0  0  0  0  0  0  0  0  0  0  0
  190.7130  176.0820  142.9480 C   0  0  0  0  0  2  0  0  0  0  0  0
  193.4150  174.9940  146.2910 N   0  0  0  0  0  0  0  0  0  0  0  0
  191.0450  175.5580  145.5050 C   0  0  2  0  0  0  0  0  0  0  0  0
  192.2740  176.2910  146.6530 S   0  0  0  0  0  0  0  0  0  0  0  0
  193.7400  173.0220  145.0320 N   0  0  0  0  0  1  0  0  0  0  0  0
  191.6600  174.3650  144.9430 N   0  0  0  0  0  2  0  0  0  0  0  0
  192.9640  174.1400  145.4440 C   0  0  0  0  0  0  0  0  0  0  0  0
  189.8510  175.1760  146.2740 C   0  0  0  0  0  0  0  0  0  0  0  0
  188.8690  174.8610  146.8990 C   0  0  0  0  0  3  0  0  0  0  0  0
  185.0490  179.2450  144.8350 C   0  0  0  0  0  2  0  0  0  0  0  0
  184.3450  178.4440  146.7700 C   0  0  0  0  0  1  0  0  0  0  0  0
  183.9400  178.6660  145.4530 O   0  0  0  0  0  0  0  0  0  0  0  0
  190.2290  173.7080  142.3290 O   0  0  0  0  0  0  0  0  0  0  0  0
  189.4130  172.5460  142.3000 C   0  0  0  0  0  2  0  0  0  0  0  0
  189.4570  171.8650  143.6510 C   0  0  0  0  0  1  0  0  0  0  0  0
  1 11  1  6  0  0  0
  1  3  1  0  0  0  0
  1 13  1  0  0  0  0
  2  9  1  0  0  0  0
  5 11  1  0  0  0  0
  5  2  2  0  0  0  0
  6  9  2  0  0  0  0
  6 10  1  0  0  0  0
  7  4  1  0  0  0  0
  7 20  1  0  0  0  0
  8  3  1  0  0  0  0
  8  4  2  0  0  0  0
  9  8  1  0  0  0  0
 10  7  2  0  0  0  0
 12 14  1  0  0  0  0
 13 18  1  1  0  0  0
 13 14  1  0  0  0  0
 15 17  1  0  0  0  0
 16 17  1  0  0  0  0
 16 13  1  0  0  0  0
 17 12  2  0  0  0  0
 18 19  3  0  0  0  0
 20 22  1  0  0  0  0
 22 21  1  0  0  0  0
 23  5  1  0  0  0  0
 24 23  1  0  0  0  0
 24 25  1  0  0  0  0
M  END
>  <MODEL>
4

>  <REMARK>
 VINA RESULT:      -5.9      2.628      6.975
  Name = 
  6 active torsions:
  status: ('A' for Active; 'I' for Inactive)
    1  A    between atoms: C_1  and  C_12
    2  A    between atoms: C_6  and  O_20
    3  A    between atoms: C_8  and  O_20
    4  A    between atoms: C_9  and  C_14
    5  A    between atoms: C_12  and  C_19
    6  A    between atoms: C_14  and  O_22
                            x       y       z     vdW  Elec       q    Type
                         _______ _______ _______ _____ _____    ______ ____

>  <TORSDO>
F 6

$$$$
=
 OpenBabel11042413493D

 25 27  0  0  1  0  0  0  0  0999 V2000
  189.9120  174.8530  144.5490 C   0  0  2  0  0  3  0  0  0  0  0  0
  188.8390  176.7980  146.6260 N   0  0  0  0  0  0  0  0  0  0  0  0
  188.7330  175.3740  143.8760 N   0  0  0  0  0  2  0  0  0  0  0  0
  186.7310  176.6400  143.4780 C   0  0  0  0  0  3  0  0  0  0  0  0
  189.6660  175.8200  146.8360 C   0  0  0  0  0  0  0  0  0  0  0  0
  186.8160  177.8960  145.9330 C   0  0  0  0  0  3  0  0  0  0  0  0
  185.7630  177.5730  143.8390 C   0  0  0  0  0  0  0  0  0  0  0  0
  187.7730  176.3230  144.3570 C   0  0  0  0  0  0  0  0  0  0  0  0
  187.8130  176.9600  145.6320 C   0  0  0  0  0  0  0  0  0  0  0  0
  185.8230  178.1760  145.0520 N   0  0  0  0  0  0  0  0  0  0  0  0
  189.6420  174.5720  146.0180 C   0  0  0  0  0  2  0  0  0  0  0  0
  193.2960  174.4270  143.2490 N   0  0  0  0  0  0  0  0  0  0  0  0
  191.2140  175.5940  144.1720 C   0  0  2  0  0  0  0  0  0  0  0  0
  191.7870  175.0000  142.5340 S   0  0  0  0  0  0  0  0  0  0  0  0
  194.5180  174.2480  145.2620 N   0  0  0  0  0  1  0  0  0  0  0  0
  192.2670  175.2750  145.1230 N   0  0  0  0  0  2  0  0  0  0  0  0
  193.3730  174.6370  144.5130 C   0  0  0  0  0  0  0  0  0  0  0  0
  191.0380  177.0530  144.1090 C   0  0  0  0  0  0  0  0  0  0  0  0
  190.8970  178.2500  144.0510 C   0  0  0  0  0  3  0  0  0  0  0  0
  184.6460  177.8890  142.9060 C   0  0  0  0  0  2  0  0  0  0  0  0
  184.0690  178.2930  140.8110 C   0  0  0  0  0  1  0  0  0  0  0  0
  185.0660  177.7020  141.5880 O   0  0  0  0  0  0  0  0  0  0  0  0
  190.5970  175.9570  147.8680 O   0  0  0  0  0  0  0  0  0  0  0  0
  191.5280  177.0290  147.9250 C   0  0  0  0  0  2  0  0  0  0  0  0
  191.4070  177.7320  149.2590 C   0  0  0  0  0  1  0  0  0  0  0  0
  1 11  1  1  0  0  0
  2  5  2  0  0  0  0
  3  8  1  0  0  0  0
  3  1  1  0  0  0  0
  4  7  2  0  0  0  0
  4  8  1  0  0  0  0
  5 23  1  0  0  0  0
  7 10  1  0  0  0  0
  8  9  2  0  0  0  0
  9  6  1  0  0  0  0
  9  2  1  0  0  0  0
 10  6  2  0  0  0  0
 11  5  1  0  0  0  0
 12 17  2  0  0  0  0
 13 18  1  6  0  0  0
 13  1  1  0  0  0  0
 13 16  1  0  0  0  0
 14 12  1  0  0  0  0
 14 13  1  0  0  0  0
 17 16  1  0  0  0  0
 17 15  1  0  0  0  0
 19 18  3  0  0  0  0
 20  7  1  0  0  0  0
 21 22  1  0  0  0  0
 22 20  1  0  0  0  0
 23 24  1  0  0  0  0
 24 25  1  0  0  0  0
M  END
>  <MODEL>
5

>  <REMARK>
 VINA RESULT:      -5.8      2.554      6.707
  Name = 
  6 active torsions:
  status: ('A' for Active; 'I' for Inactive)
    1  A    between atoms: C_1  and  C_12
    2  A    between atoms: C_6  and  O_20
    3  A    between atoms: C_8  and  O_20
    4  A    between atoms: C_9  and  C_14
    5  A    between atoms: C_12  and  C_19
    6  A    between atoms: C_14  and  O_22
                            x       y       z     vdW  Elec       q    Type
                         _______ _______ _______ _____ _____    ______ ____

>  <TORSDO>
F 6

$$$$
=
 OpenBabel11042413493D

 25 27  0  0  1  0  0  0  0  0999 V2000
  189.2540  175.6220  145.5100 C   0  0  2  0  0  3  0  0  0  0  0  0
  187.4080  177.4200  143.8970 N   0  0  0  0  0  0  0  0  0  0  0  0
  189.3150  174.9970  144.1990 N   0  0  0  0  0  2  0  0  0  0  0  0
  188.8860  174.5740  141.8740 C   0  0  0  0  0  3  0  0  0  0  0  0
  187.4470  177.3120  145.1890 C   0  0  0  0  0  0  0  0  0  0  0  0
  187.1750  176.7230  141.6080 C   0  0  0  0  0  3  0  0  0  0  0  0
  188.2910  174.8690  140.6490 C   0  0  0  0  0  0  0  0  0  0  0  0
  188.6280  175.3690  142.9960 C   0  0  0  0  0  0  0  0  0  0  0  0
  187.7340  176.4710  142.8670 C   0  0  0  0  0  0  0  0  0  0  0  0
  187.4520  175.9290  140.5430 N   0  0  0  0  0  0  0  0  0  0  0  0
  187.8370  176.0410  145.8670 C   0  0  0  0  0  2  0  0  0  0  0  0
  192.0830  176.3890  147.6850 N   0  0  0  0  0  0  0  0  0  0  0  0
  190.4020  176.6220  145.7690 C   0  0  2  0  0  0  0  0  0  0  0  0
  191.9520  175.6880  146.0700 S   0  0  0  0  0  0  0  0  0  0  0  0
  191.0630  177.8590  149.2260 N   0  0  0  0  0  1  0  0  0  0  0  0
  190.1370  177.3890  146.9760 N   0  0  0  0  0  2  0  0  0  0  0  0
  191.1250  177.1940  147.9710 C   0  0  0  0  0  0  0  0  0  0  0  0
  190.6170  177.5430  144.6430 C   0  0  0  0  0  0  0  0  0  0  0  0
  190.7940  178.3030  143.7230 C   0  0  0  0  0  3  0  0  0  0  0  0
  188.5550  174.0060  139.4640 C   0  0  0  0  0  2  0  0  0  0  0  0
  188.6270  174.2140  137.2660 C   0  0  0  0  0  1  0  0  0  0  0  0
  187.8170  174.4670  138.3730 O   0  0  0  0  0  0  0  0  0  0  0  0
  187.1050  178.4310  145.9530 O   0  0  0  0  0  0  0  0  0  0  0  0
  185.8160  179.0270  145.9040 C   0  0  0  0  0  2  0  0  0  0  0  0
  184.8300  178.1580  146.6560 C   0  0  0  0  0  1  0  0  0  0  0  0
  1 13  1  0  0  0  0
  1 11  1  6  0  0  0
  2  5  2  0  0  0  0
  3  1  1  0  0  0  0
  4  8  1  0  0  0  0
  5 11  1  0  0  0  0
  5 23  1  0  0  0  0
  6  9  1  0  0  0  0
  7  4  2  0  0  0  0
  8  3  1  0  0  0  0
  9  8  2  0  0  0  0
  9  2  1  0  0  0  0
 10  7  1  0  0  0  0
 10  6  2  0  0  0  0
 12 17  2  0  0  0  0
 13 18  1  6  0  0  0
 13 14  1  0  0  0  0
 13 16  1  0  0  0  0
 14 12  1  0  0  0  0
 16 17  1  0  0  0  0
 17 15  1  0  0  0  0
 19 18  3  0  0  0  0
 20  7  1  0  0  0  0
 21 22  1  0  0  0  0
 22 20  1  0  0  0  0
 24 23  1  0  0  0  0
 24 25  1  0  0  0  0
M  END
>  <MODEL>
6

>  <REMARK>
 VINA RESULT:      -5.6      3.175      6.072
  Name = 
  6 active torsions:
  status: ('A' for Active; 'I' for Inactive)
    1  A    between atoms: C_1  and  C_12
    2  A    between atoms: C_6  and  O_20
    3  A    between atoms: C_8  and  O_20
    4  A    between atoms: C_9  and  C_14
    5  A    between atoms: C_12  and  C_19
    6  A    between atoms: C_14  and  O_22
                            x       y       z     vdW  Elec       q    Type
                         _______ _______ _______ _____ _____    ______ ____

>  <TORSDO>
F 6

$$$$
=
 OpenBabel11042413493D

 25 27  0  0  1  0  0  0  0  0999 V2000
  190.5830  176.8170  143.3080 C   0  0  2  0  0  3  0  0  0  0  0  0
  191.3840  176.7280  146.2400 N   0  0  0  0  0  0  0  0  0  0  0  0
  191.9710  176.3950  143.2160 N   0  0  0  0  0  2  0  0  0  0  0  0
  194.1960  175.7800  143.8780 C   0  0  0  0  0  3  0  0  0  0  0  0
  190.3730  177.3640  145.7330 C   0  0  0  0  0  0  0  0  0  0  0  0
  193.6790  176.0920  146.5710 C   0  0  0  0  0  3  0  0  0  0  0  0
  195.1800  175.5290  144.8310 C   0  0  0  0  0  0  0  0  0  0  0  0
  192.9190  176.1940  144.2720 C   0  0  0  0  0  0  0  0  0  0  0  0
  192.6510  176.3700  145.6610 C   0  0  0  0  0  0  0  0  0  0  0  0
  194.9050  175.6920  146.1490 N   0  0  0  0  0  0  0  0  0  0  0  0
  190.3960  177.9130  144.3450 C   0  0  0  0  0  2  0  0  0  0  0  0
  187.7410  175.3650  141.5360 N   0  0  0  0  0  0  0  0  0  0  0  0
  189.5800  175.6430  143.2950 C   0  0  2  0  0  0  0  0  0  0  0  0
  189.4630  174.9760  141.5890 S   0  0  0  0  0  0  0  0  0  0  0  0
  185.9450  176.2890  142.7590 N   0  0  0  0  0  1  0  0  0  0  0  0
  188.2500  176.1120  143.6510 N   0  0  0  0  0  2  0  0  0  0  0  0
  187.3080  175.9100  142.6140 C   0  0  0  0  0  0  0  0  0  0  0  0
  189.9710  174.5520  144.2010 C   0  0  0  0  0  0  0  0  0  0  0  0
  190.2980  173.6580  144.9410 C   0  0  0  0  0  3  0  0  0  0  0  0
  196.5440  175.1100  144.4020 C   0  0  0  0  0  2  0  0  0  0  0  0
  197.6460  175.3220  142.4990 C   0  0  0  0  0  1  0  0  0  0  0  0
  197.0790  176.0640  143.5360 O   0  0  0  0  0  0  0  0  0  0  0  0
  189.2390  177.5370  146.5300 O   0  0  0  0  0  0  0  0  0  0  0  0
  188.4460  176.4480  146.9820 C   0  0  0  0  0  2  0  0  0  0  0  0
  186.9810  176.8140  146.8770 C   0  0  0  0  0  1  0  0  0  0  0  0
  1 11  1  1  0  0  0
  3  1  1  0  0  0  0
  3  8  1  0  0  0  0
  4  8  2  0  0  0  0
  4  7  1  0  0  0  0
  5  2  2  0  0  0  0
  5 23  1  0  0  0  0
  7 10  2  0  0  0  0
  8  9  1  0  0  0  0
  9  2  1  0  0  0  0
  9  6  2  0  0  0  0
 10  6  1  0  0  0  0
 11  5  1  0  0  0  0
 12 14  1  0  0  0  0
 12 17  2  0  0  0  0
 13  1  1  0  0  0  0
 13 16  1  0  0  0  0
 13 18  1  1  0  0  0
 14 13  1  0  0  0  0
 17 15  1  0  0  0  0
 17 16  1  0  0  0  0
 18 19  3  0  0  0  0
 20  7  1  0  0  0  0
 21 22  1  0  0  0  0
 22 20  1  0  0  0  0
 23 24  1  0  0  0  0
 25 24  1  0  0  0  0
M  END
>  <MODEL>
7

>  <REMARK>
 VINA RESULT:      -5.5      2.607      3.732
  Name = 
  6 active torsions:
  status: ('A' for Active; 'I' for Inactive)
    1  A    between atoms: C_1  and  C_12
    2  A    between atoms: C_6  and  O_20
    3  A    between atoms: C_8  and  O_20
    4  A    between atoms: C_9  and  C_14
    5  A    between atoms: C_12  and  C_19
    6  A    between atoms: C_14  and  O_22
                            x       y       z     vdW  Elec       q    Type
                         _______ _______ _______ _____ _____    ______ ____

>  <TORSDO>
F 6

$$$$
=
 OpenBabel11042413493D

 25 27  0  0  1  0  0  0  0  0999 V2000
  190.1140  175.1600  145.3780 C   0  0  2  0  0  3  0  0  0  0  0  0
  190.8110  174.7350  142.4490 N   0  0  0  0  0  0  0  0  0  0  0  0
  191.5620  175.2900  145.4030 N   0  0  0  0  0  2  0  0  0  0  0  0
  193.8410  175.3430  144.6460 C   0  0  0  0  0  3  0  0  0  0  0  0
  189.7090  174.3880  143.0400 C   0  0  0  0  0  0  0  0  0  0  0  0
  193.1740  174.8330  142.0170 C   0  0  0  0  0  3  0  0  0  0  0  0
  194.8210  175.2690  143.6600 C   0  0  0  0  0  0  0  0  0  0  0  0
  192.4920  175.1630  144.3200 C   0  0  0  0  0  0  0  0  0  0  0  0
  192.1440  174.8860  142.9650 C   0  0  0  0  0  0  0  0  0  0  0  0
  194.4700  175.0150  142.3750 N   0  0  0  0  0  0  0  0  0  0  0  0
  189.6680  174.0140  144.4850 C   0  0  0  0  0  2  0  0  0  0  0  0
  187.6410  177.3370  146.9490 N   0  0  0  0  0  0  0  0  0  0  0  0
  189.3770  176.5120  145.2580 C   0  0  2  0  0  0  0  0  0  0  0  0
  189.4060  177.3550  146.8870 S   0  0  0  0  0  0  0  0  0  0  0  0
  185.6890  176.6870  145.7910 N   0  0  0  0  0  1  0  0  0  0  0  0
  187.9780  176.2940  144.9270 N   0  0  0  0  0  2  0  0  0  0  0  0
  187.1010  176.7890  145.9210 C   0  0  0  0  0  0  0  0  0  0  0  0
  189.9830  177.4020  144.2570 C   0  0  0  0  0  0  0  0  0  0  0  0
  190.4770  178.1300  143.4310 C   0  0  0  0  0  3  0  0  0  0  0  0
  196.2560  175.4410  144.0190 C   0  0  0  0  0  2  0  0  0  0  0  0
  197.6780  174.0040  144.9100 C   0  0  0  0  0  1  0  0  0  0  0  0
  196.5330  174.7470  145.1980 O   0  0  0  0  0  0  0  0  0  0  0  0
  188.5360  174.3640  142.2820 O   0  0  0  0  0  0  0  0  0  0  0  0
  188.3930  175.0880  141.0680 C   0  0  0  0  0  2  0  0  0  0  0  0
  187.6080  176.3560  141.3260 C   0  0  0  0  0  1  0  0  0  0  0  0
  1 11  1  6  0  0  0
  1  3  1  0  0  0  0
  2  9  1  0  0  0  0
  2  5  2  0  0  0  0
  5 11  1  0  0  0  0
  6 10  2  0  0  0  0
  6  9  1  0  0  0  0
  7 20  1  0  0  0  0
  7  4  2  0  0  0  0
  8  4  1  0  0  0  0
  8  3  1  0  0  0  0
  9  8  2  0  0  0  0
 10  7  1  0  0  0  0
 13 18  1  6  0  0  0
 13  1  1  0  0  0  0
 13 14  1  0  0  0  0
 14 12  1  0  0  0  0
 15 17  1  0  0  0  0
 16 13  1  0  0  0  0
 16 17  1  0  0  0  0
 17 12  2  0  0  0  0
 19 18  3  0  0  0  0
 20 22  1  0  0  0  0
 21 22  1  0  0  0  0
 23  5  1  0  0  0  0
 24 25  1  0  0  0  0
 24 23  1  0  0  0  0
M  END
>  <MODEL>
8

>  <REMARK>
 VINA RESULT:      -5.5      2.911      4.863
  Name = 
  6 active torsions:
  status: ('A' for Active; 'I' for Inactive)
    1  A    between atoms: C_1  and  C_12
    2  A    between atoms: C_6  and  O_20
    3  A    between atoms: C_8  and  O_20
    4  A    between atoms: C_9  and  C_14
    5  A    between atoms: C_12  and  C_19
    6  A    between atoms: C_14  and  O_22
                            x       y       z     vdW  Elec       q    Type
                         _______ _______ _______ _____ _____    ______ ____

>  <TORSDO>
F 6

$$$$
=
 OpenBabel11042413493D

 25 27  0  0  1  0  0  0  0  0999 V2000
  190.0980  174.5380  144.2590 C   0  0  2  0  0  3  0  0  0  0  0  0
  190.2310  176.3170  146.7210 N   0  0  0  0  0  0  0  0  0  0  0  0
  188.7880  175.1660  144.2330 N   0  0  0  0  0  2  0  0  0  0  0  0
  186.9270  176.5430  144.8740 C   0  0  0  0  0  3  0  0  0  0  0  0
  190.9840  175.2910  146.4660 C   0  0  0  0  0  0  0  0  0  0  0  0
  188.2060  177.5550  147.1000 C   0  0  0  0  0  3  0  0  0  0  0  0
  186.3010  177.4750  145.6980 C   0  0  0  0  0  0  0  0  0  0  0  0
  188.2240  176.1030  145.1600 C   0  0  0  0  0  0  0  0  0  0  0  0
  188.8830  176.6130  146.3170 C   0  0  0  0  0  0  0  0  0  0  0  0
  186.9480  177.9570  146.7880 N   0  0  0  0  0  0  0  0  0  0  0  0
  190.4970  174.1280  145.6670 C   0  0  0  0  0  2  0  0  0  0  0  0
  192.5230  174.0930  141.5670 N   0  0  0  0  0  0  0  0  0  0  0  0
  191.1450  175.2590  143.3820 C   0  0  2  0  0  0  0  0  0  0  0  0
  190.8950  174.7720  141.6310 S   0  0  0  0  0  0  0  0  0  0  0  0
  194.4940  173.7170  142.8130 N   0  0  0  0  0  1  0  0  0  0  0  0
  192.4870  174.8310  143.7450 N   0  0  0  0  0  2  0  0  0  0  0  0
  193.1650  174.2030  142.6740 C   0  0  0  0  0  0  0  0  0  0  0  0
  191.0560  176.7240  143.4810 C   0  0  0  0  0  0  0  0  0  0  0  0
  190.9830  177.9250  143.5550 C   0  0  0  0  0  3  0  0  0  0  0  0
  184.9130  177.9230  145.3980 C   0  0  0  0  0  2  0  0  0  0  0  0
  185.2030  179.7960  144.2630 C   0  0  0  0  0  1  0  0  0  0  0  0
  184.8290  179.3110  145.5160 O   0  0  0  0  0  0  0  0  0  0  0  0
  192.2880  175.2920  146.9690 O   0  0  0  0  0  0  0  0  0  0  0  0
  193.1350  176.4290  146.8990 C   0  0  0  0  0  2  0  0  0  0  0  0
  194.4990  176.0120  146.3920 C   0  0  0  0  0  1  0  0  0  0  0  0
  1 11  1  1  0  0  0
  3  1  1  0  0  0  0
  3  8  1  0  0  0  0
  4  8  2  0  0  0  0
  4  7  1  0  0  0  0
  5  2  2  0  0  0  0
  5 23  1  0  0  0  0
  7 10  2  0  0  0  0
  8  9  1  0  0  0  0
  9  2  1  0  0  0  0
  9  6  2  0  0  0  0
 10  6  1  0  0  0  0
 11  5  1  0  0  0  0
 12 14  1  0  0  0  0
 12 17  2  0  0  0  0
 13 18  1  1  0  0  0
 13 16  1  0  0  0  0
 13  1  1  0  0  0  0
 14 13  1  0  0  0  0
 17 15  1  0  0  0  0
 17 16  1  0  0  0  0
 18 19  3  0  0  0  0
 20 22  1  0  0  0  0
 20  7  1  0  0  0  0
 21 22  1  0  0  0  0
 24 23  1  0  0  0  0
 25 24  1  0  0  0  0
M  END
>  <MODEL>
9

>  <REMARK>
 VINA RESULT:      -5.4      2.785      6.669
  Name = 
  6 active torsions:
  status: ('A' for Active; 'I' for Inactive)
    1  A    between atoms: C_1  and  C_12
    2  A    between atoms: C_6  and  O_20
    3  A    between atoms: C_8  and  O_20
    4  A    between atoms: C_9  and  C_14
    5  A    between atoms: C_12  and  C_19
    6  A    between atoms: C_14  and  O_22
                            x       y       z     vdW  Elec       q    Type
                         _______ _______ _______ _____ _____    ______ ____

>  <TORSDO>
F 6

$$$$
