=
 OpenBabel11042417323D

 39 44  0  0  1  0  0  0  0  0999 V2000
  188.1090  174.7220  142.3410 C   0  0  0  0  0  3  0  0  0  0  0  0
  190.8540  175.0460  142.1410 C   0  0  0  0  0  0  0  0  0  0  0  0
  190.8230  176.8280  143.7870 C   0  0  0  0  0  3  0  0  0  0  0  0
  188.8700  173.9240  141.4880 C   0  0  0  0  0  0  0  0  0  0  0  0
  192.2420  175.1720  142.0390 C   0  0  0  0  0  3  0  0  0  0  0  0
  192.9260  176.1220  142.8020 C   0  0  0  0  0  0  0  0  0  0  0  0
  188.7190  175.7230  143.1120 C   0  0  0  0  0  0  0  0  0  0  0  0
  190.2140  174.1000  141.4080 N   0  0  0  0  0  0  0  0  0  0  0  0
  192.2100  176.9490  143.6780 C   0  0  0  0  0  3  0  0  0  0  0  0
  190.1230  175.8860  143.0180 C   0  0  0  0  0  0  0  0  0  0  0  0
  186.1780  178.0720  145.6950 C   0  0  0  0  0  0  0  0  0  0  0  0
  187.1810  177.6770  143.5110 C   0  0  0  0  0  3  0  0  0  0  0  0
  185.6970  179.5750  143.7790 N   0  0  0  0  0  1  0  0  0  0  0  0
  186.8450  176.9350  146.1720 C   0  0  0  0  0  3  0  0  0  0  0  0
  186.3530  178.4400  144.3390 C   0  0  0  0  0  0  0  0  0  0  0  0
  187.8550  176.5490  143.9970 C   0  0  0  0  0  0  0  0  0  0  0  0
  187.6690  176.1800  145.3360 C   0  0  0  0  0  3  0  0  0  0  0  0
  185.8850  179.6180  147.6880 N   0  0  0  0  0  1  0  0  0  0  0  0
  184.0680  178.7830  146.5320 O   0  0  0  0  0  0  0  0  0  0  0  0
  185.3230  178.8310  146.6420 C   0  0  0  0  0  0  0  0  0  0  0  0
  194.3150  176.2140  142.6780 O   0  0  0  0  0  0  0  0  0  0  0  0
  195.1800  175.0920  142.8340 C   0  0  2  0  0  3  0  0  0  0  0  0
  195.8620  175.0720  144.1040 C   0  0  1  0  0  3  0  0  0  0  0  0
  196.6320  175.5760  142.8800 C   0  0  0  0  0  0  0  0  0  0  0  0
  197.6280  176.0430  142.3520 O   0  0  0  0  0  0  0  0  0  0  0  0
  194.3360  177.1760  146.8500 O   0  0  0  0  0  1  0  0  0  0  0  0
  194.6310  176.0670  146.0700 C   0  0  0  0  0  0  0  0  0  0  0  0
  195.5110  176.2030  144.9550 N   0  0  0  0  0  2  0  0  0  0  0  0
  194.1230  174.9510  146.3540 O   0  0  0  0  0  0  0  0  0  0  0  0
  188.2130  172.8430  140.6980 C   0  0  0  0  0  2  0  0  0  0  0  0
  188.6230  172.9220  139.2670 C   0  0  0  0  0  0  0  0  0  0  0  0
  188.3770  174.0850  138.5300 C   0  0  0  0  0  3  0  0  0  0  0  0
  189.5830  171.8760  137.2960 C   0  0  0  0  0  0  0  0  0  0  0  0
  188.7470  174.1520  137.1840 C   0  0  0  0  0  3  0  0  0  0  0  0
  189.2290  171.8210  138.6510 C   0  0  0  0  0  3  0  0  0  0  0  0
  189.3520  173.0520  136.5700 C   0  0  0  0  0  3  0  0  0  0  0  0
  190.2660  170.7140  136.6430 C   0  0  2  0  0  3  0  0  0  0  0  0
  191.0170  169.9360  137.6280 C   0  0  0  0  0  2  0  0  0  0  0  0
  191.7290  170.8680  136.7440 N   0  0  0  0  0  2  0  0  0  0  0  0
  1  7  1  0  0  0  0
  2 10  1  0  0  0  0
  4  1  2  0  0  0  0
  5  2  1  0  0  0  0
  5  6  2  0  0  0  0
  6  9  1  0  0  0  0
  7 16  1  0  0  0  0
  8  4  1  0  0  0  0
  8  2  2  0  0  0  0
  9  3  2  0  0  0  0
 10  7  2  0  0  0  0
 10  3  1  0  0  0  0
 11 14  1  0  0  0  0
 11 20  1  0  0  0  0
 12 16  2  0  0  0  0
 12 15  1  0  0  0  0
 13 15  1  0  0  0  0
 15 11  2  0  0  0  0
 16 17  1  0  0  0  0
 17 14  2  0  0  0  0
 19 20  2  0  0  0  0
 20 18  1  0  0  0  0
 21  6  1  0  0  0  0
 22 21  1  1  0  0  0
 22 24  1  0  0  0  0
 22 23  1  0  0  0  0
 23 28  1  1  0  0  0
 24 23  1  0  0  0  0
 25 24  2  0  0  0  0
 27 29  2  0  0  0  0
 27 26  1  0  0  0  0
 28 27  1  0  0  0  0
 30  4  1  0  0  0  0
 31 30  1  0  0  0  0
 32 31  2  0  0  0  0
 33 35  2  0  0  0  0
 34 32  1  0  0  0  0
 35 31  1  0  0  0  0
 36 34  2  0  0  0  0
 36 33  1  0  0  0  0
 37 39  1  0  0  0  0
 37 33  1  1  0  0  0
 37 38  1  0  0  0  0
 39 38  1  0  0  0  0
M  END
>  <MODEL>
1

>  <REMARK>
 VINA RESULT:      -7.8      0.000      0.000
  Name = 
  8 active torsions:
  status: ('A' for Active; 'I' for Inactive)
    1  A    between atoms: C_3  and  C_37
    2  A    between atoms: O_5  and  C_7
    3  A    between atoms: O_5  and  C_30
    4  A    between atoms: C_6  and  C_8
    5  A    between atoms: C_11  and  N_25
    6  A    between atoms: C_16  and  C_19
    7  A    between atoms: C_24  and  C_37
    8  A    between atoms: C_29  and  C_31
                            x       y       z     vdW  Elec       q    Type
                         _______ _______ _______ _____ _____    ______ ____

>  <TORSDO>
F 8

$$$$
=
 OpenBabel11042417323D

 39 44  0  0  1  0  0  0  0  0999 V2000
  191.5590  176.6110  145.1540 C   0  0  0  0  0  3  0  0  0  0  0  0
  191.7750  174.3140  143.6190 C   0  0  0  0  0  0  0  0  0  0  0  0
  189.3640  174.0480  143.5710 C   0  0  0  0  0  3  0  0  0  0  0  0
  192.8030  176.1270  144.7500 C   0  0  0  0  0  0  0  0  0  0  0  0
  191.9110  173.1730  142.8240 C   0  0  0  0  0  3  0  0  0  0  0  0
  190.7840  172.4630  142.4020 C   0  0  0  0  0  0  0  0  0  0  0  0
  190.3830  175.9330  144.8030 C   0  0  0  0  0  0  0  0  0  0  0  0
  192.8830  175.0010  143.9960 N   0  0  0  0  0  0  0  0  0  0  0  0
  189.5090  172.9070  142.7780 C   0  0  0  0  0  3  0  0  0  0  0  0
  190.4900  174.7620  144.0100 C   0  0  0  0  0  0  0  0  0  0  0  0
  186.5950  177.4950  146.1680 C   0  0  0  0  0  0  0  0  0  0  0  0
  188.3520  177.3870  144.4840 C   0  0  0  0  0  3  0  0  0  0  0  0
  186.4280  178.8010  144.0640 N   0  0  0  0  0  1  0  0  0  0  0  0
  187.3300  176.5870  146.9450 C   0  0  0  0  0  3  0  0  0  0  0  0
  187.1230  177.8940  144.9160 C   0  0  0  0  0  0  0  0  0  0  0  0
  189.0860  176.4910  145.2700 C   0  0  0  0  0  0  0  0  0  0  0  0
  188.5550  176.0870  146.5030 C   0  0  0  0  0  3  0  0  0  0  0  0
  185.2360  179.1270  147.5590 N   0  0  0  0  0  1  0  0  0  0  0  0
  184.2310  177.3980  146.4050 O   0  0  0  0  0  0  0  0  0  0  0  0
  185.3020  177.9900  146.7040 C   0  0  0  0  0  0  0  0  0  0  0  0
  190.9590  171.3310  141.6040 O   0  0  0  0  0  0  0  0  0  0  0  0
  191.9700  171.2410  140.6020 C   0  0  2  0  0  3  0  0  0  0  0  0
  191.4450  171.2890  139.2600 C   0  0  1  0  0  3  0  0  0  0  0  0
  191.8120  169.9220  139.8410 C   0  0  0  0  0  0  0  0  0  0  0  0
  191.8860  168.7060  139.7700 O   0  0  0  0  0  0  0  0  0  0  0  0
  187.9730  172.7510  138.9430 O   0  0  0  0  0  1  0  0  0  0  0  0
  189.3580  172.6790  138.9740 C   0  0  0  0  0  0  0  0  0  0  0  0
  189.9940  171.4260  139.2210 N   0  0  0  0  0  2  0  0  0  0  0  0
  190.0410  173.7190  138.7830 O   0  0  0  0  0  0  0  0  0  0  0  0
  194.0430  176.8750  145.1050 C   0  0  0  0  0  2  0  0  0  0  0  0
  195.2500  176.0500  144.8150 C   0  0  0  0  0  0  0  0  0  0  0  0
  196.1060  176.4040  143.7680 C   0  0  0  0  0  3  0  0  0  0  0  0
  196.6240  174.1020  145.2810 C   0  0  0  0  0  0  0  0  0  0  0  0
  197.2280  175.6200  143.4860 C   0  0  0  0  0  3  0  0  0  0  0  0
  195.5120  174.9030  145.5730 C   0  0  0  0  0  3  0  0  0  0  0  0
  197.4900  174.4750  144.2430 C   0  0  0  0  0  3  0  0  0  0  0  0
  196.9300  172.8960  146.1130 C   0  0  2  0  0  3  0  0  0  0  0  0
  197.3620  171.7810  145.2700 C   0  0  0  0  0  2  0  0  0  0  0  0
  195.9890  171.8080  145.7910 N   0  0  0  0  0  2  0  0  0  0  0  0
  2  8  2  0  0  0  0
  2 10  1  0  0  0  0
  3 10  1  0  0  0  0
  4 30  1  0  0  0  0
  4  1  2  0  0  0  0
  5  2  1  0  0  0  0
  6  9  1  0  0  0  0
  6  5  2  0  0  0  0
  7  1  1  0  0  0  0
  7 16  1  0  0  0  0
  8  4  1  0  0  0  0
  9  3  2  0  0  0  0
 10  7  2  0  0  0  0
 11 20  1  0  0  0  0
 11 14  1  0  0  0  0
 12 15  1  0  0  0  0
 12 16  2  0  0  0  0
 13 15  1  0  0  0  0
 15 11  2  0  0  0  0
 16 17  1  0  0  0  0
 17 14  2  0  0  0  0
 19 20  2  0  0  0  0
 20 18  1  0  0  0  0
 21  6  1  0  0  0  0
 22 21  1  1  0  0  0
 23 28  1  1  0  0  0
 23 24  1  0  0  0  0
 23 22  1  0  0  0  0
 24 22  1  0  0  0  0
 25 24  2  0  0  0  0
 26 27  1  0  0  0  0
 27 28  1  0  0  0  0
 29 27  2  0  0  0  0
 31 30  1  0  0  0  0
 31 35  1  0  0  0  0
 32 31  2  0  0  0  0
 33 35  2  0  0  0  0
 34 32  1  0  0  0  0
 34 36  2  0  0  0  0
 36 33  1  0  0  0  0
 37 33  1  6  0  0  0
 38 39  1  0  0  0  0
 38 37  1  0  0  0  0
 39 37  1  0  0  0  0
M  END
>  <MODEL>
2

>  <REMARK>
 VINA RESULT:      -7.8      3.021      6.893
  Name = 
  8 active torsions:
  status: ('A' for Active; 'I' for Inactive)
    1  A    between atoms: C_3  and  C_37
    2  A    between atoms: O_5  and  C_7
    3  A    between atoms: O_5  and  C_30
    4  A    between atoms: C_6  and  C_8
    5  A    between atoms: C_11  and  N_25
    6  A    between atoms: C_16  and  C_19
    7  A    between atoms: C_24  and  C_37
    8  A    between atoms: C_29  and  C_31
                            x       y       z     vdW  Elec       q    Type
                         _______ _______ _______ _____ _____    ______ ____

>  <TORSDO>
F 8

$$$$
=
 OpenBabel11042417323D

 39 44  0  0  1  0  0  0  0  0999 V2000
  191.7200  175.8480  145.9010 C   0  0  0  0  0  3  0  0  0  0  0  0
  191.9040  173.6440  144.2320 C   0  0  0  0  0  0  0  0  0  0  0  0
  189.5220  173.7200  143.7730 C   0  0  0  0  0  3  0  0  0  0  0  0
  192.9430  175.2220  145.6640 C   0  0  0  0  0  0  0  0  0  0  0  0
  192.0280  172.5470  143.3750 C   0  0  0  0  0  3  0  0  0  0  0  0
  190.9090  172.0290  142.7180 C   0  0  0  0  0  0  0  0  0  0  0  0
  190.5450  175.3640  145.3080 C   0  0  0  0  0  0  0  0  0  0  0  0
  193.0080  174.1450  144.8400 N   0  0  0  0  0  0  0  0  0  0  0  0
  189.6550  172.6210  142.9200 C   0  0  0  0  0  3  0  0  0  0  0  0
  190.6370  174.2420  144.4470 C   0  0  0  0  0  0  0  0  0  0  0  0
  186.8110  177.3490  146.1810 C   0  0  0  0  0  0  0  0  0  0  0  0
  188.7020  176.9660  144.6940 C   0  0  0  0  0  3  0  0  0  0  0  0
  186.9700  178.5110  143.9930 N   0  0  0  0  0  1  0  0  0  0  0  0
  187.3780  176.4380  147.0840 C   0  0  0  0  0  3  0  0  0  0  0  0
  187.4910  177.6080  144.9670 C   0  0  0  0  0  0  0  0  0  0  0  0
  189.2690  176.0660  145.6060 C   0  0  0  0  0  0  0  0  0  0  0  0
  188.5870  175.8010  146.8010 C   0  0  0  0  0  3  0  0  0  0  0  0
  185.4790  179.1150  147.4270 N   0  0  0  0  0  1  0  0  0  0  0  0
  184.4420  177.5460  146.0870 O   0  0  0  0  0  0  0  0  0  0  0  0
  185.5260  177.9940  146.5510 C   0  0  0  0  0  0  0  0  0  0  0  0
  191.0730  170.9350  141.8660 O   0  0  0  0  0  0  0  0  0  0  0  0
  192.0730  170.8920  140.8490 C   0  0  2  0  0  3  0  0  0  0  0  0
  191.5360  171.0210  139.5180 C   0  0  1  0  0  3  0  0  0  0  0  0
  191.8930  169.6190  140.0180 C   0  0  0  0  0  0  0  0  0  0  0  0
  191.9530  168.4080  139.8770 O   0  0  0  0  0  0  0  0  0  0  0  0
  188.0760  172.5160  139.2180 O   0  0  0  0  0  1  0  0  0  0  0  0
  189.4600  172.4270  139.2250 C   0  0  0  0  0  0  0  0  0  0  0  0
  190.0860  171.1750  139.5020 N   0  0  0  0  0  2  0  0  0  0  0  0
  190.1520  173.4510  138.9850 O   0  0  0  0  0  0  0  0  0  0  0  0
  194.1880  175.7670  146.2770 C   0  0  0  0  0  2  0  0  0  0  0  0
  195.3900  175.2550  145.5580 C   0  0  0  0  0  0  0  0  0  0  0  0
  196.1370  174.2050  146.1010 C   0  0  0  0  0  3  0  0  0  0  0  0
  196.9370  175.3900  143.6900 C   0  0  0  0  0  0  0  0  0  0  0  0
  197.2730  173.7370  145.4350 C   0  0  0  0  0  3  0  0  0  0  0  0
  195.7860  175.8420  144.3520 C   0  0  0  0  0  3  0  0  0  0  0  0
  197.6690  174.3240  144.2300 C   0  0  0  0  0  3  0  0  0  0  0  0
  197.3430  175.9900  142.3790 C   0  0  2  0  0  3  0  0  0  0  0  0
  196.2200  176.6980  141.7640 C   0  0  0  0  0  2  0  0  0  0  0  0
  196.5880  175.3600  141.2810 N   0  0  0  0  0  2  0  0  0  0  0  0
  2 10  1  0  0  0  0
  2  8  1  0  0  0  0
  3 10  2  0  0  0  0
  4  1  1  0  0  0  0
  4 30  1  0  0  0  0
  5  2  2  0  0  0  0
  6  9  2  0  0  0  0
  6  5  1  0  0  0  0
  7 16  1  0  0  0  0
  7  1  2  0  0  0  0
  8  4  2  0  0  0  0
  9  3  1  0  0  0  0
 10  7  1  0  0  0  0
 11 20  1  0  0  0  0
 11 14  1  0  0  0  0
 12 15  1  0  0  0  0
 12 16  2  0  0  0  0
 13 15  1  0  0  0  0
 15 11  2  0  0  0  0
 16 17  1  0  0  0  0
 17 14  2  0  0  0  0
 19 20  2  0  0  0  0
 20 18  1  0  0  0  0
 21  6  1  0  0  0  0
 22 21  1  1  0  0  0
 23 28  1  1  0  0  0
 23 24  1  0  0  0  0
 23 22  1  0  0  0  0
 24 22  1  0  0  0  0
 25 24  2  0  0  0  0
 26 27  1  0  0  0  0
 27 28  1  0  0  0  0
 29 27  2  0  0  0  0
 31 32  1  0  0  0  0
 31 30  1  0  0  0  0
 33 36  2  0  0  0  0
 33 35  1  0  0  0  0
 34 32  2  0  0  0  0
 35 31  2  0  0  0  0
 36 34  1  0  0  0  0
 37 33  1  1  0  0  0
 38 37  1  0  0  0  0
 39 38  1  0  0  0  0
 39 37  1  0  0  0  0
M  END
>  <MODEL>
3

>  <REMARK>
 VINA RESULT:      -7.7      3.110      6.911
  Name = 
  8 active torsions:
  status: ('A' for Active; 'I' for Inactive)
    1  A    between atoms: C_3  and  C_37
    2  A    between atoms: O_5  and  C_7
    3  A    between atoms: O_5  and  C_30
    4  A    between atoms: C_6  and  C_8
    5  A    between atoms: C_11  and  N_25
    6  A    between atoms: C_16  and  C_19
    7  A    between atoms: C_24  and  C_37
    8  A    between atoms: C_29  and  C_31
                            x       y       z     vdW  Elec       q    Type
                         _______ _______ _______ _____ _____    ______ ____

>  <TORSDO>
F 8

$$$$
=
 OpenBabel11042417323D

 39 44  0  0  1  0  0  0  0  0999 V2000
  191.5600  176.8640  145.1660 C   0  0  0  0  0  3  0  0  0  0  0  0
  191.7410  175.0880  143.0460 C   0  0  0  0  0  0  0  0  0  0  0  0
  189.3260  175.0220  142.8200 C   0  0  0  0  0  3  0  0  0  0  0  0
  192.7970  176.4260  144.6940 C   0  0  0  0  0  0  0  0  0  0  0  0
  191.8610  174.2130  141.9640 C   0  0  0  0  0  3  0  0  0  0  0  0
  190.7230  173.7360  141.3070 C   0  0  0  0  0  0  0  0  0  0  0  0
  190.3720  176.4010  144.5840 C   0  0  0  0  0  0  0  0  0  0  0  0
  192.8610  175.5580  143.6520 N   0  0  0  0  0  0  0  0  0  0  0  0
  189.4540  174.1450  141.7400 C   0  0  0  0  0  3  0  0  0  0  0  0
  190.4610  175.4990  143.4940 C   0  0  0  0  0  0  0  0  0  0  0  0
  186.6090  177.7780  146.1950 C   0  0  0  0  0  0  0  0  0  0  0  0
  188.2480  177.7400  144.3930 C   0  0  0  0  0  3  0  0  0  0  0  0
  186.2260  179.0430  144.0940 N   0  0  0  0  0  1  0  0  0  0  0  0
  187.4440  176.9220  146.9280 C   0  0  0  0  0  3  0  0  0  0  0  0
  187.0260  178.1860  144.9050 C   0  0  0  0  0  0  0  0  0  0  0  0
  189.0820  176.8950  145.1350 C   0  0  0  0  0  0  0  0  0  0  0  0
  188.6610  176.4820  146.4060 C   0  0  0  0  0  3  0  0  0  0  0  0
  184.0980  177.5700  146.5070 N   0  0  0  0  0  1  0  0  0  0  0  0
  185.3250  179.1710  147.6320 O   0  0  0  0  0  0  0  0  0  0  0  0
  185.3320  178.2110  146.8150 C   0  0  0  0  0  0  0  0  0  0  0  0
  190.8820  172.8660  140.2260 O   0  0  0  0  0  0  0  0  0  0  0  0
  190.0790  171.7020  140.0470 C   0  0  2  0  0  3  0  0  0  0  0  0
  190.8160  170.4730  140.2080 C   0  0  1  0  0  3  0  0  0  0  0  0
  190.5340  170.9630  138.7850 C   0  0  0  0  0  0  0  0  0  0  0  0
  190.6310  170.8630  137.5730 O   0  0  0  0  0  0  0  0  0  0  0  0
  194.0910  170.6960  142.0830 O   0  0  0  0  0  0  0  0  0  0  0  0
  192.7430  170.4790  141.8370 C   0  0  0  0  0  0  0  0  0  0  0  0
  192.2220  170.6910  140.5250 N   0  0  0  0  0  2  0  0  0  0  0  0
  191.9930  170.0940  142.7720 O   0  0  0  0  0  1  0  0  0  0  0  0
  194.0540  176.9510  145.3020 C   0  0  0  0  0  2  0  0  0  0  0  0
  195.2090  176.0800  144.9440 C   0  0  0  0  0  0  0  0  0  0  0  0
  196.0250  176.4110  143.8570 C   0  0  0  0  0  3  0  0  0  0  0  0
  196.5230  174.0730  145.3220 C   0  0  0  0  0  0  0  0  0  0  0  0
  197.0980  175.5840  143.5120 C   0  0  0  0  0  3  0  0  0  0  0  0
  195.4610  174.9160  145.6770 C   0  0  0  0  0  3  0  0  0  0  0  0
  197.3500  174.4210  144.2450 C   0  0  0  0  0  3  0  0  0  0  0  0
  196.8200  172.8460  146.1270 C   0  0  2  0  0  3  0  0  0  0  0  0
  197.2770  171.7570  145.2630 C   0  0  0  0  0  2  0  0  0  0  0  0
  195.8940  171.7620  145.7560 N   0  0  0  0  0  2  0  0  0  0  0  0
  2 10  1  0  0  0  0
  2  8  1  0  0  0  0
  3 10  2  0  0  0  0
  4  1  1  0  0  0  0
  4 30  1  0  0  0  0
  5  2  2  0  0  0  0
  6  9  2  0  0  0  0
  6  5  1  0  0  0  0
  7 16  1  0  0  0  0
  7  1  2  0  0  0  0
  8  4  2  0  0  0  0
  9  3  1  0  0  0  0
 10  7  1  0  0  0  0
 11 20  1  0  0  0  0
 11 14  1  0  0  0  0
 12 15  1  0  0  0  0
 12 16  2  0  0  0  0
 13 15  1  0  0  0  0
 15 11  2  0  0  0  0
 16 17  1  0  0  0  0
 17 14  2  0  0  0  0
 18 20  1  0  0  0  0
 20 19  2  0  0  0  0
 21  6  1  0  0  0  0
 22 23  1  0  0  0  0
 22 21  1  1  0  0  0
 23 28  1  1  0  0  0
 24 22  1  0  0  0  0
 24 23  1  0  0  0  0
 25 24  2  0  0  0  0
 27 26  2  0  0  0  0
 27 29  1  0  0  0  0
 28 27  1  0  0  0  0
 31 30  1  0  0  0  0
 31 35  1  0  0  0  0
 32 31  2  0  0  0  0
 33 35  2  0  0  0  0
 34 32  1  0  0  0  0
 34 36  2  0  0  0  0
 36 33  1  0  0  0  0
 37 33  1  6  0  0  0
 38 39  1  0  0  0  0
 38 37  1  0  0  0  0
 39 37  1  0  0  0  0
M  END
>  <MODEL>
4

>  <REMARK>
 VINA RESULT:      -7.6      2.853      6.618
  Name = 
  8 active torsions:
  status: ('A' for Active; 'I' for Inactive)
    1  A    between atoms: C_3  and  C_37
    2  A    between atoms: O_5  and  C_7
    3  A    between atoms: O_5  and  C_30
    4  A    between atoms: C_6  and  C_8
    5  A    between atoms: C_11  and  N_25
    6  A    between atoms: C_16  and  C_19
    7  A    between atoms: C_24  and  C_37
    8  A    between atoms: C_29  and  C_31
                            x       y       z     vdW  Elec       q    Type
                         _______ _______ _______ _____ _____    ______ ____

>  <TORSDO>
F 8

$$$$
=
 OpenBabel11042417323D

 39 44  0  0  1  0  0  0  0  0999 V2000
  191.2270  174.1510  144.4330 C   0  0  0  0  0  3  0  0  0  0  0  0
  188.9430  175.7110  144.6050 C   0  0  0  0  0  0  0  0  0  0  0  0
  188.0320  174.7020  142.5960 C   0  0  0  0  0  3  0  0  0  0  0  0
  191.0500  175.0600  145.4760 C   0  0  0  0  0  0  0  0  0  0  0  0
  187.7910  176.4920  144.7290 C   0  0  0  0  0  3  0  0  0  0  0  0
  186.7590  176.3870  143.7930 C   0  0  0  0  0  0  0  0  0  0  0  0
  190.2520  174.0150  143.4340 C   0  0  0  0  0  0  0  0  0  0  0  0
  189.9210  175.8120  145.5400 N   0  0  0  0  0  0  0  0  0  0  0  0
  186.8840  175.4870  142.7260 C   0  0  0  0  0  3  0  0  0  0  0  0
  189.0800  174.8060  143.5230 C   0  0  0  0  0  0  0  0  0  0  0  0
  191.0060  171.1400  140.3010 C   0  0  0  0  0  0  0  0  0  0  0  0
  191.0670  173.4320  141.1230 C   0  0  0  0  0  3  0  0  0  0  0  0
  191.8980  172.9780  138.8920 N   0  0  0  0  0  1  0  0  0  0  0  0
  190.4500  170.7490  141.5280 C   0  0  0  0  0  3  0  0  0  0  0  0
  191.3180  172.5070  140.1060 C   0  0  0  0  0  0  0  0  0  0  0  0
  190.5000  173.0370  142.3420 C   0  0  0  0  0  0  0  0  0  0  0  0
  190.2040  171.6810  142.5370 C   0  0  0  0  0  3  0  0  0  0  0  0
  190.2450  169.7810  138.2960 N   0  0  0  0  0  1  0  0  0  0  0  0
  192.3240  169.4620  139.2500 O   0  0  0  0  0  0  0  0  0  0  0  0
  191.2340  170.0960  139.2710 C   0  0  0  0  0  0  0  0  0  0  0  0
  185.6200  177.1800  143.9530 O   0  0  0  0  0  0  0  0  0  0  0  0
  185.4590  178.4400  143.3040 C   0  0  2  0  0  3  0  0  0  0  0  0
  184.5990  179.3440  144.0250 C   0  0  1  0  0  3  0  0  0  0  0  0
  184.0090  178.5840  142.8340 C   0  0  0  0  0  0  0  0  0  0  0  0
  183.0820  178.2890  142.0970 O   0  0  0  0  0  0  0  0  0  0  0  0
  184.2760  178.2930  147.6420 O   0  0  0  0  0  1  0  0  0  0  0  0
  184.8140  178.8480  146.4900 C   0  0  0  0  0  0  0  0  0  0  0  0
  184.0860  178.7740  145.2650 N   0  0  0  0  0  2  0  0  0  0  0  0
  185.9380  179.4130  146.5360 O   0  0  0  0  0  0  0  0  0  0  0  0
  192.0810  175.1710  146.5480 C   0  0  0  0  0  2  0  0  0  0  0  0
  193.4270  175.4060  145.9530 C   0  0  0  0  0  0  0  0  0  0  0  0
  193.6660  176.5550  145.1920 C   0  0  0  0  0  3  0  0  0  0  0  0
  195.7030  174.6600  145.5430 C   0  0  0  0  0  0  0  0  0  0  0  0
  194.9240  176.7660  144.6200 C   0  0  0  0  0  3  0  0  0  0  0  0
  194.4460  174.4630  146.1310 C   0  0  0  0  0  3  0  0  0  0  0  0
  195.9410  175.8240  144.7990 C   0  0  0  0  0  3  0  0  0  0  0  0
  196.8070  173.6730  145.7640 C   0  0  2  0  0  3  0  0  0  0  0  0
  197.8660  173.8520  144.7710 C   0  0  0  0  0  2  0  0  0  0  0  0
  196.9010  172.7560  144.6140 N   0  0  0  0  0  2  0  0  0  0  0  0
  1  4  1  0  0  0  0
  2  5  1  0  0  0  0
  2  8  1  0  0  0  0
  3  9  2  0  0  0  0
  3 10  1  0  0  0  0
  4  8  2  0  0  0  0
  4 30  1  0  0  0  0
  6 21  1  0  0  0  0
  6  5  2  0  0  0  0
  7 10  1  0  0  0  0
  7  1  2  0  0  0  0
  9  6  1  0  0  0  0
 10  2  2  0  0  0  0
 11 14  1  0  0  0  0
 12 16  2  0  0  0  0
 13 15  1  0  0  0  0
 14 17  2  0  0  0  0
 15 11  2  0  0  0  0
 15 12  1  0  0  0  0
 16 17  1  0  0  0  0
 16  7  1  0  0  0  0
 18 20  1  0  0  0  0
 19 20  2  0  0  0  0
 20 11  1  0  0  0  0
 22 21  1  1  0  0  0
 22 23  1  0  0  0  0
 23 28  1  1  0  0  0
 24 22  1  0  0  0  0
 24 23  1  0  0  0  0
 25 24  2  0  0  0  0
 27 29  2  0  0  0  0
 27 26  1  0  0  0  0
 28 27  1  0  0  0  0
 31 35  1  0  0  0  0
 31 30  1  0  0  0  0
 32 31  2  0  0  0  0
 33 35  2  0  0  0  0
 34 36  2  0  0  0  0
 34 32  1  0  0  0  0
 36 33  1  0  0  0  0
 37 33  1  6  0  0  0
 38 37  1  0  0  0  0
 39 38  1  0  0  0  0
 39 37  1  0  0  0  0
M  END
>  <MODEL>
5

>  <REMARK>
 VINA RESULT:      -7.6      3.556      9.245
  Name = 
  8 active torsions:
  status: ('A' for Active; 'I' for Inactive)
    1  A    between atoms: C_3  and  C_37
    2  A    between atoms: O_5  and  C_7
    3  A    between atoms: O_5  and  C_30
    4  A    between atoms: C_6  and  C_8
    5  A    between atoms: C_11  and  N_25
    6  A    between atoms: C_16  and  C_19
    7  A    between atoms: C_24  and  C_37
    8  A    between atoms: C_29  and  C_31
                            x       y       z     vdW  Elec       q    Type
                         _______ _______ _______ _____ _____    ______ ____

>  <TORSDO>
F 8

$$$$
=
 OpenBabel11042417323D

 39 44  0  0  1  0  0  0  0  0999 V2000
  191.5430  176.8810  145.1470 C   0  0  0  0  0  3  0  0  0  0  0  0
  191.7180  175.1470  142.9930 C   0  0  0  0  0  0  0  0  0  0  0  0
  189.3030  175.0780  142.7770 C   0  0  0  0  0  3  0  0  0  0  0  0
  192.7790  176.4570  144.6600 C   0  0  0  0  0  0  0  0  0  0  0  0
  191.8350  174.2930  141.8930 C   0  0  0  0  0  3  0  0  0  0  0  0
  190.6960  173.8250  141.2340 C   0  0  0  0  0  0  0  0  0  0  0  0
  190.3530  176.4260  144.5620 C   0  0  0  0  0  0  0  0  0  0  0  0
  192.8400  175.6080  143.6020 N   0  0  0  0  0  0  0  0  0  0  0  0
  189.4280  174.2220  141.6800 C   0  0  0  0  0  3  0  0  0  0  0  0
  190.4390  175.5450  143.4550 C   0  0  0  0  0  0  0  0  0  0  0  0
  186.5940  177.7600  146.2180 C   0  0  0  0  0  0  0  0  0  0  0  0
  188.2180  177.7520  144.4020 C   0  0  0  0  0  3  0  0  0  0  0  0
  186.1840  179.0430  144.1330 N   0  0  0  0  0  1  0  0  0  0  0  0
  187.4410  176.9030  146.9350 C   0  0  0  0  0  3  0  0  0  0  0  0
  186.9980  178.1840  144.9280 C   0  0  0  0  0  0  0  0  0  0  0  0
  189.0650  176.9060  145.1290 C   0  0  0  0  0  0  0  0  0  0  0  0
  188.6570  176.4770  146.3990 C   0  0  0  0  0  3  0  0  0  0  0  0
  184.0800  177.5670  146.5100 N   0  0  0  0  0  1  0  0  0  0  0  0
  185.3190  179.0980  147.7150 O   0  0  0  0  0  0  0  0  0  0  0  0
  185.3190  178.1780  146.8530 C   0  0  0  0  0  0  0  0  0  0  0  0
  190.8520  172.9770  140.1350 O   0  0  0  0  0  0  0  0  0  0  0  0
  189.9300  171.9330  139.8270 C   0  0  2  0  0  3  0  0  0  0  0  0
  190.1770  171.3150  138.5490 C   0  0  1  0  0  3  0  0  0  0  0  0
  189.0620  172.3600  138.6410 C   0  0  0  0  0  0  0  0  0  0  0  0
  188.1810  173.0410  138.1420 O   0  0  0  0  0  0  0  0  0  0  0  0
  193.5000  171.6910  136.7870 O   0  0  0  0  0  0  0  0  0  0  0  0
  192.4390  171.0950  137.4530 C   0  0  0  0  0  0  0  0  0  0  0  0
  191.3220  171.8880  137.8520 N   0  0  0  0  0  2  0  0  0  0  0  0
  192.4700  169.8600  137.6960 O   0  0  0  0  0  1  0  0  0  0  0  0
  194.0360  176.9740  145.2730 C   0  0  0  0  0  2  0  0  0  0  0  0
  195.1890  176.1000  144.9110 C   0  0  0  0  0  0  0  0  0  0  0  0
  195.9970  176.4220  143.8170 C   0  0  0  0  0  3  0  0  0  0  0  0
  196.5050  174.0940  145.2930 C   0  0  0  0  0  0  0  0  0  0  0  0
  197.0670  175.5930  143.4690 C   0  0  0  0  0  3  0  0  0  0  0  0
  195.4460  174.9400  145.6510 C   0  0  0  0  0  3  0  0  0  0  0  0
  197.3240  174.4350  144.2070 C   0  0  0  0  0  3  0  0  0  0  0  0
  196.8070  172.8720  146.1040 C   0  0  2  0  0  3  0  0  0  0  0  0
  197.2350  171.7710  145.2420 C   0  0  0  0  0  2  0  0  0  0  0  0
  195.8620  171.7940  145.7640 N   0  0  0  0  0  2  0  0  0  0  0  0
  2 10  1  0  0  0  0
  2  8  1  0  0  0  0
  3 10  2  0  0  0  0
  4  1  1  0  0  0  0
  4 30  1  0  0  0  0
  5  2  2  0  0  0  0
  6  9  2  0  0  0  0
  6  5  1  0  0  0  0
  7 16  1  0  0  0  0
  7  1  2  0  0  0  0
  8  4  2  0  0  0  0
  9  3  1  0  0  0  0
 10  7  1  0  0  0  0
 11 20  1  0  0  0  0
 11 14  1  0  0  0  0
 12 15  1  0  0  0  0
 12 16  2  0  0  0  0
 13 15  1  0  0  0  0
 15 11  2  0  0  0  0
 16 17  1  0  0  0  0
 17 14  2  0  0  0  0
 18 20  1  0  0  0  0
 20 19  2  0  0  0  0
 21  6  1  0  0  0  0
 22 21  1  6  0  0  0
 23 28  1  6  0  0  0
 23 24  1  0  0  0  0
 23 22  1  0  0  0  0
 24 22  1  0  0  0  0
 25 24  2  0  0  0  0
 26 27  2  0  0  0  0
 27 29  1  0  0  0  0
 27 28  1  0  0  0  0
 31 30  1  0  0  0  0
 31 35  1  0  0  0  0
 32 31  2  0  0  0  0
 33 35  2  0  0  0  0
 34 32  1  0  0  0  0
 34 36  2  0  0  0  0
 36 33  1  0  0  0  0
 37 33  1  6  0  0  0
 38 39  1  0  0  0  0
 38 37  1  0  0  0  0
 39 37  1  0  0  0  0
M  END
>  <MODEL>
6

>  <REMARK>
 VINA RESULT:      -7.5      2.911      7.076
  Name = 
  8 active torsions:
  status: ('A' for Active; 'I' for Inactive)
    1  A    between atoms: C_3  and  C_37
    2  A    between atoms: O_5  and  C_7
    3  A    between atoms: O_5  and  C_30
    4  A    between atoms: C_6  and  C_8
    5  A    between atoms: C_11  and  N_25
    6  A    between atoms: C_16  and  C_19
    7  A    between atoms: C_24  and  C_37
    8  A    between atoms: C_29  and  C_31
                            x       y       z     vdW  Elec       q    Type
                         _______ _______ _______ _____ _____    ______ ____

>  <TORSDO>
F 8

$$$$
=
 OpenBabel11042417323D

 39 44  0  0  1  0  0  0  0  0999 V2000
  187.8800  175.2020  141.1100 C   0  0  0  0  0  3  0  0  0  0  0  0
  189.7730  176.3600  142.7690 C   0  0  0  0  0  0  0  0  0  0  0  0
  191.4720  174.8020  142.0150 C   0  0  0  0  0  3  0  0  0  0  0  0
  187.5600  176.2910  141.9200 C   0  0  0  0  0  0  0  0  0  0  0  0
  190.7140  176.9780  143.5970 C   0  0  0  0  0  3  0  0  0  0  0  0
  192.0320  176.5140  143.6420 C   0  0  0  0  0  0  0  0  0  0  0  0
  189.1710  174.6560  141.1280 C   0  0  0  0  0  0  0  0  0  0  0  0
  188.5050  176.8430  142.7230 N   0  0  0  0  0  0  0  0  0  0  0  0
  192.4070  175.4240  142.8460 C   0  0  0  0  0  3  0  0  0  0  0  0
  190.1440  175.2510  141.9700 C   0  0  0  0  0  0  0  0  0  0  0  0
  190.0400  171.2640  138.6000 C   0  0  0  0  0  0  0  0  0  0  0  0
  189.3030  173.5710  138.8590 C   0  0  0  0  0  3  0  0  0  0  0  0
  189.4160  172.6340  136.6260 N   0  0  0  0  0  1  0  0  0  0  0  0
  190.1980  171.1920  139.9920 C   0  0  0  0  0  3  0  0  0  0  0  0
  189.5870  172.4800  138.0330 C   0  0  0  0  0  0  0  0  0  0  0  0
  189.4510  173.4890  140.2500 C   0  0  0  0  0  0  0  0  0  0  0  0
  189.9120  172.2890  140.8060 C   0  0  0  0  0  3  0  0  0  0  0  0
  191.3620  170.0750  136.7880 N   0  0  0  0  0  1  0  0  0  0  0  0
  189.7250  168.9850  137.9980 O   0  0  0  0  0  0  0  0  0  0  0  0
  190.3560  170.0570  137.7960 C   0  0  0  0  0  0  0  0  0  0  0  0
  192.9460  177.1610  144.4770 O   0  0  0  0  0  0  0  0  0  0  0  0
  194.1360  176.5330  144.9510 C   0  0  2  0  0  3  0  0  0  0  0  0
  194.1880  176.4280  146.3880 C   0  0  1  0  0  3  0  0  0  0  0  0
  194.9760  177.5580  145.7190 C   0  0  0  0  0  0  0  0  0  0  0  0
  195.6930  178.5440  145.7640 O   0  0  0  0  0  0  0  0  0  0  0  0
  190.8160  176.7410  148.0680 O   0  0  0  0  0  1  0  0  0  0  0  0
  191.9120  176.1620  147.4440 C   0  0  0  0  0  0  0  0  0  0  0  0
  193.0090  176.9820  147.0420 N   0  0  0  0  0  2  0  0  0  0  0  0
  191.9300  174.9200  147.2400 O   0  0  0  0  0  0  0  0  0  0  0  0
  186.1910  176.8800  141.8680 C   0  0  0  0  0  2  0  0  0  0  0  0
  185.9150  177.6640  143.1050 C   0  0  0  0  0  0  0  0  0  0  0  0
  185.7870  179.0560  143.0400 C   0  0  0  0  0  3  0  0  0  0  0  0
  185.5880  177.7470  145.5110 C   0  0  0  0  0  0  0  0  0  0  0  0
  185.5440  179.7910  144.2030 C   0  0  0  0  0  3  0  0  0  0  0  0
  185.8110  177.0120  144.3380 C   0  0  0  0  0  3  0  0  0  0  0  0
  185.4400  179.1390  145.4340 C   0  0  0  0  0  3  0  0  0  0  0  0
  185.4380  177.0490  146.8270 C   0  0  2  0  0  3  0  0  0  0  0  0
  185.9370  177.8870  147.9170 C   0  0  0  0  0  2  0  0  0  0  0  0
  186.7640  176.7840  147.4120 N   0  0  0  0  0  2  0  0  0  0  0  0
  1  7  2  0  0  0  0
  1  4  1  0  0  0  0
  2  5  1  0  0  0  0
  3  9  2  0  0  0  0
  4  8  2  0  0  0  0
  5  6  2  0  0  0  0
  6 21  1  0  0  0  0
  7 10  1  0  0  0  0
  8  2  1  0  0  0  0
  9  6  1  0  0  0  0
 10  3  1  0  0  0  0
 10  2  2  0  0  0  0
 11 14  1  0  0  0  0
 12 16  2  0  0  0  0
 13 15  1  0  0  0  0
 14 17  2  0  0  0  0
 15 11  2  0  0  0  0
 15 12  1  0  0  0  0
 16 17  1  0  0  0  0
 16  7  1  0  0  0  0
 18 20  1  0  0  0  0
 20 19  2  0  0  0  0
 20 11  1  0  0  0  0
 22 21  1  1  0  0  0
 22 24  1  0  0  0  0
 22 23  1  0  0  0  0
 23 28  1  1  0  0  0
 24 25  2  0  0  0  0
 24 23  1  0  0  0  0
 27 26  1  0  0  0  0
 28 27  1  0  0  0  0
 29 27  2  0  0  0  0
 30  4  1  0  0  0  0
 30 31  1  0  0  0  0
 31 35  1  0  0  0  0
 32 31  2  0  0  0  0
 32 34  1  0  0  0  0
 34 36  2  0  0  0  0
 35 33  2  0  0  0  0
 36 33  1  0  0  0  0
 37 33  1  6  0  0  0
 37 39  1  0  0  0  0
 37 38  1  0  0  0  0
 39 38  1  0  0  0  0
M  END
>  <MODEL>
7

>  <REMARK>
 VINA RESULT:      -7.4      2.384      7.747
  Name = 
  8 active torsions:
  status: ('A' for Active; 'I' for Inactive)
    1  A    between atoms: C_3  and  C_37
    2  A    between atoms: O_5  and  C_7
    3  A    between atoms: O_5  and  C_30
    4  A    between atoms: C_6  and  C_8
    5  A    between atoms: C_11  and  N_25
    6  A    between atoms: C_16  and  C_19
    7  A    between atoms: C_24  and  C_37
    8  A    between atoms: C_29  and  C_31
                            x       y       z     vdW  Elec       q    Type
                         _______ _______ _______ _____ _____    ______ ____

>  <TORSDO>
F 8

$$$$
=
 OpenBabel11042417323D

 39 44  0  0  1  0  0  0  0  0999 V2000
  188.5310  177.7100  143.0920 C   0  0  0  0  0  3  0  0  0  0  0  0
  188.0910  175.8250  141.1080 C   0  0  0  0  0  0  0  0  0  0  0  0
  190.0690  174.5850  141.7670 C   0  0  0  0  0  3  0  0  0  0  0  0
  187.4310  177.8020  142.2390 C   0  0  0  0  0  0  0  0  0  0  0  0
  187.8330  174.8760  140.1160 C   0  0  0  0  0  3  0  0  0  0  0  0
  188.6850  173.7830  139.9410 C   0  0  0  0  0  0  0  0  0  0  0  0
  189.4520  176.6620  142.9540 C   0  0  0  0  0  0  0  0  0  0  0  0
  187.2350  176.8650  141.2760 N   0  0  0  0  0  0  0  0  0  0  0  0
  189.8050  173.6410  140.7720 C   0  0  0  0  0  3  0  0  0  0  0  0
  189.2260  175.6930  141.9460 C   0  0  0  0  0  0  0  0  0  0  0  0
  192.8490  176.5150  145.6170 C   0  0  0  0  0  0  0  0  0  0  0  0
  190.5170  176.0010  145.1390 C   0  0  0  0  0  3  0  0  0  0  0  0
  191.4470  175.2970  147.2630 N   0  0  0  0  0  1  0  0  0  0  0  0
  192.9400  177.1230  144.3560 C   0  0  0  0  0  3  0  0  0  0  0  0
  191.6130  175.9450  146.0040 C   0  0  0  0  0  0  0  0  0  0  0  0
  190.6110  176.6210  143.8860 C   0  0  0  0  0  0  0  0  0  0  0  0
  191.8390  177.1730  143.5000 C   0  0  0  0  0  3  0  0  0  0  0  0
  194.9400  175.3870  146.5130 N   0  0  0  0  0  1  0  0  0  0  0  0
  194.3210  177.5020  147.2030 O   0  0  0  0  0  0  0  0  0  0  0  0
  194.0580  176.5050  146.4780 C   0  0  0  0  0  0  0  0  0  0  0  0
  188.3920  172.8510  138.9420 O   0  0  0  0  0  0  0  0  0  0  0  0
  188.5670  173.1260  137.5540 C   0  0  2  0  0  3  0  0  0  0  0  0
  189.2960  172.0960  136.8580 C   0  0  1  0  0  3  0  0  0  0  0  0
  190.0530  173.3620  137.2690 C   0  0  0  0  0  0  0  0  0  0  0  0
  191.0710  174.0300  137.3470 O   0  0  0  0  0  0  0  0  0  0  0  0
  191.0520  169.0400  138.2260 O   0  0  0  0  0  1  0  0  0  0  0  0
  190.7140  170.0690  137.3590 C   0  0  0  0  0  0  0  0  0  0  0  0
  189.6900  170.9930  137.7260 N   0  0  0  0  0  2  0  0  0  0  0  0
  191.3150  170.1810  136.2590 O   0  0  0  0  0  0  0  0  0  0  0  0
  186.4420  178.9040  142.4170 C   0  0  0  0  0  2  0  0  0  0  0  0
  185.7430  178.7690  143.7270 C   0  0  0  0  0  0  0  0  0  0  0  0
  184.3740  179.0420  143.8220 C   0  0  0  0  0  3  0  0  0  0  0  0
  185.8160  178.3020  146.1100 C   0  0  0  0  0  0  0  0  0  0  0  0
  183.7230  178.9310  145.0540 C   0  0  0  0  0  3  0  0  0  0  0  0
  186.4610  178.3950  144.8680 C   0  0  0  0  0  3  0  0  0  0  0  0
  184.4410  178.5570  146.1940 C   0  0  0  0  0  3  0  0  0  0  0  0
  186.5730  177.8650  147.3260 C   0  0  2  0  0  3  0  0  0  0  0  0
  187.9050  177.3820  146.9610 C   0  0  0  0  0  2  0  0  0  0  0  0
  186.8390  176.4170  147.2610 N   0  0  0  0  0  2  0  0  0  0  0  0
  2  8  2  0  0  0  0
  2 10  1  0  0  0  0
  3 10  1  0  0  0  0
  4 30  1  0  0  0  0
  4  1  2  0  0  0  0
  5  2  1  0  0  0  0
  6  5  2  0  0  0  0
  6  9  1  0  0  0  0
  7  1  1  0  0  0  0
  7 16  1  0  0  0  0
  8  4  1  0  0  0  0
  9  3  2  0  0  0  0
 10  7  2  0  0  0  0
 11 15  1  0  0  0  0
 11 20  1  0  0  0  0
 12 15  2  0  0  0  0
 14 11  2  0  0  0  0
 15 13  1  0  0  0  0
 16 12  1  0  0  0  0
 17 16  2  0  0  0  0
 17 14  1  0  0  0  0
 20 18  1  0  0  0  0
 20 19  2  0  0  0  0
 21  6  1  0  0  0  0
 22 21  1  1  0  0  0
 23 24  1  0  0  0  0
 23 22  1  0  0  0  0
 23 28  1  1  0  0  0
 24 25  2  0  0  0  0
 24 22  1  0  0  0  0
 27 28  1  0  0  0  0
 27 26  1  0  0  0  0
 29 27  2  0  0  0  0
 30 31  1  0  0  0  0
 31 32  2  0  0  0  0
 31 35  1  0  0  0  0
 32 34  1  0  0  0  0
 33 36  1  0  0  0  0
 34 36  2  0  0  0  0
 35 33  2  0  0  0  0
 37 33  1  6  0  0  0
 38 39  1  0  0  0  0
 38 37  1  0  0  0  0
 39 37  1  0  0  0  0
M  END
>  <MODEL>
8

>  <REMARK>
 VINA RESULT:      -7.4      3.140      8.377
  Name = 
  8 active torsions:
  status: ('A' for Active; 'I' for Inactive)
    1  A    between atoms: C_3  and  C_37
    2  A    between atoms: O_5  and  C_7
    3  A    between atoms: O_5  and  C_30
    4  A    between atoms: C_6  and  C_8
    5  A    between atoms: C_11  and  N_25
    6  A    between atoms: C_16  and  C_19
    7  A    between atoms: C_24  and  C_37
    8  A    between atoms: C_29  and  C_31
                            x       y       z     vdW  Elec       q    Type
                         _______ _______ _______ _____ _____    ______ ____

>  <TORSDO>
F 8

$$$$
=
 OpenBabel11042417323D

 39 44  0  0  1  0  0  0  0  0999 V2000
  193.1070  174.8510  144.5900 C   0  0  0  0  0  3  0  0  0  0  0  0
  190.9240  176.2770  145.5290 C   0  0  0  0  0  0  0  0  0  0  0  0
  189.4310  175.0930  144.0280 C   0  0  0  0  0  3  0  0  0  0  0  0
  193.2480  175.8100  145.5920 C   0  0  0  0  0  0  0  0  0  0  0  0
  189.8370  176.9930  146.0380 C   0  0  0  0  0  3  0  0  0  0  0  0
  188.5480  176.7680  145.5480 C   0  0  0  0  0  0  0  0  0  0  0  0
  191.8510  174.5950  144.0210 C   0  0  0  0  0  0  0  0  0  0  0  0
  192.1640  176.4940  146.0380 N   0  0  0  0  0  0  0  0  0  0  0  0
  188.3490  175.8140  144.5410 C   0  0  0  0  0  3  0  0  0  0  0  0
  190.7320  175.3170  144.5050 C   0  0  0  0  0  0  0  0  0  0  0  0
  191.6520  171.5930  140.9230 C   0  0  0  0  0  0  0  0  0  0  0  0
  191.5250  173.9250  141.6150 C   0  0  0  0  0  3  0  0  0  0  0  0
  191.2210  173.3930  139.2700 N   0  0  0  0  0  1  0  0  0  0  0  0
  191.9020  171.2440  142.2590 C   0  0  0  0  0  3  0  0  0  0  0  0
  191.4650  172.9600  140.6060 C   0  0  0  0  0  0  0  0  0  0  0  0
  191.7630  173.5680  142.9490 C   0  0  0  0  0  0  0  0  0  0  0  0
  191.9620  172.2160  143.2580 C   0  0  0  0  0  3  0  0  0  0  0  0
  192.7410  170.1370  139.1510 N   0  0  0  0  0  1  0  0  0  0  0  0
  190.5150  169.8890  139.7150 O   0  0  0  0  0  0  0  0  0  0  0  0
  191.5960  170.5060  139.9140 C   0  0  0  0  0  0  0  0  0  0  0  0
  187.4850  177.4980  146.0850 O   0  0  0  0  0  0  0  0  0  0  0  0
  186.2140  176.9160  146.3670 C   0  0  2  0  0  3  0  0  0  0  0  0
  185.1620  177.4060  145.5120 C   0  0  1  0  0  3  0  0  0  0  0  0
  185.2770  177.9930  146.9210 C   0  0  0  0  0  0  0  0  0  0  0  0
  184.9210  178.7610  147.8000 O   0  0  0  0  0  0  0  0  0  0  0  0
  186.2430  179.0330  142.2760 O   0  0  0  0  0  0  0  0  0  0  0  0
  185.8000  178.0610  143.1600 C   0  0  0  0  0  0  0  0  0  0  0  0
  185.6300  178.3850  144.5390 N   0  0  0  0  0  2  0  0  0  0  0  0
  185.5490  176.9010  142.7380 O   0  0  0  0  0  1  0  0  0  0  0  0
  194.5850  176.0490  146.2090 C   0  0  0  0  0  2  0  0  0  0  0  0
  195.6500  175.3580  145.4270 C   0  0  0  0  0  0  0  0  0  0  0  0
  196.2280  174.1820  145.9180 C   0  0  0  0  0  3  0  0  0  0  0  0
  197.1180  175.2750  143.4940 C   0  0  0  0  0  0  0  0  0  0  0  0
  197.2380  173.5450  145.1930 C   0  0  0  0  0  3  0  0  0  0  0  0
  196.0910  175.8990  144.2150 C   0  0  0  0  0  3  0  0  0  0  0  0
  197.6790  174.0860  143.9820 C   0  0  0  0  0  3  0  0  0  0  0  0
  197.5670  175.8300  142.1780 C   0  0  2  0  0  3  0  0  0  0  0  0
  196.4280  176.3540  141.4220 C   0  0  0  0  0  2  0  0  0  0  0  0
  196.9890  175.0410  141.0750 N   0  0  0  0  0  2  0  0  0  0  0  0
  1  4  1  0  0  0  0
  2  5  1  0  0  0  0
  2  8  1  0  0  0  0
  3 10  1  0  0  0  0
  3  9  2  0  0  0  0
  4  8  2  0  0  0  0
  4 30  1  0  0  0  0
  6  5  2  0  0  0  0
  6 21  1  0  0  0  0
  7 10  1  0  0  0  0
  7  1  2  0  0  0  0
  9  6  1  0  0  0  0
 10  2  2  0  0  0  0
 11 14  1  0  0  0  0
 12 16  2  0  0  0  0
 13 15  1  0  0  0  0
 14 17  2  0  0  0  0
 15 11  2  0  0  0  0
 15 12  1  0  0  0  0
 16 17  1  0  0  0  0
 16  7  1  0  0  0  0
 18 20  1  0  0  0  0
 19 20  2  0  0  0  0
 20 11  1  0  0  0  0
 22 21  1  6  0  0  0
 22 24  1  0  0  0  0
 23 28  1  6  0  0  0
 23 22  1  0  0  0  0
 23 24  1  0  0  0  0
 24 25  2  0  0  0  0
 26 27  2  0  0  0  0
 27 28  1  0  0  0  0
 29 27  1  0  0  0  0
 31 32  1  0  0  0  0
 31 30  1  0  0  0  0
 33 36  2  0  0  0  0
 33 35  1  0  0  0  0
 34 32  2  0  0  0  0
 35 31  2  0  0  0  0
 36 34  1  0  0  0  0
 37 33  1  1  0  0  0
 38 37  1  0  0  0  0
 39 38  1  0  0  0  0
 39 37  1  0  0  0  0
M  END
>  <MODEL>
9

>  <REMARK>
 VINA RESULT:      -7.3      3.431      9.022
  Name = 
  8 active torsions:
  status: ('A' for Active; 'I' for Inactive)
    1  A    between atoms: C_3  and  C_37
    2  A    between atoms: O_5  and  C_7
    3  A    between atoms: O_5  and  C_30
    4  A    between atoms: C_6  and  C_8
    5  A    between atoms: C_11  and  N_25
    6  A    between atoms: C_16  and  C_19
    7  A    between atoms: C_24  and  C_37
    8  A    between atoms: C_29  and  C_31
                            x       y       z     vdW  Elec       q    Type
                         _______ _______ _______ _____ _____    ______ ____

>  <TORSDO>
F 8

$$$$
