=
 OpenBabel11042416273D

 38 42  0  0  1  0  0  0  0  0999 V2000
  191.4330  174.6730  144.7390 S   0  0  0  0  0  0  0  0  0  0  0  0
  188.5610  174.6810  142.0540 C   0  0  2  0  0  3  0  0  0  0  0  0
  191.9610  174.2900  142.1640 N   0  0  0  0  0  0  0  0  0  0  0  0
  189.6610  172.7130  140.9670 C   0  0  0  0  0  2  0  0  0  0  0  0
  189.8000  175.3220  142.6980 C   0  0  1  0  0  3  0  0  0  0  0  0
  192.0550  173.6880  141.0120 C   0  0  0  0  0  0  0  0  0  0  0  0
  188.8760  173.9910  140.7320 C   0  0  0  0  0  2  0  0  0  0  0  0
  190.5920  176.2560  144.5590 C   0  0  1  0  0  3  0  0  0  0  0  0
  191.0120  172.8710  140.4550 N   0  0  0  0  0  2  0  0  0  0  0  0
  189.4140  176.0350  143.8430 O   0  0  0  0  0  0  0  0  0  0  0  0
  190.8320  174.2600  143.0870 C   0  0  2  0  0  3  0  0  0  0  0  0
  186.4840  175.7450  142.5980 O   0  0  0  0  0  0  0  0  0  0  0  0
  187.5980  176.6060  140.7350 N   0  0  0  0  0  2  0  0  0  0  0  0
  186.5890  177.6170  140.4680 C   0  0  0  0  0  1  0  0  0  0  0  0
  187.4840  175.6970  141.8290 C   0  0  0  0  0  0  0  0  0  0  0  0
  193.5840  173.8470  140.0980 S   0  0  0  0  0  0  0  0  0  0  0  0
  194.5910  174.1140  141.5950 C   0  0  0  0  0  2  0  0  0  0  0  0
  195.9960  172.4950  142.9810 N   0  0  0  0  0  2  0  0  0  0  0  0
  195.6380  173.0530  141.7140 C   0  0  0  0  0  0  0  0  0  0  0  0
  196.1970  172.6180  140.6750 O   0  0  0  0  0  0  0  0  0  0  0  0
  196.5220  172.8900  145.3720 C   0  0  1  0  0  3  0  0  0  0  0  0
  196.1330  174.2610  144.8050 C   0  0  2  0  0  0  0  0  0  0  0  0
  195.5130  172.9920  144.2650 C   0  0  1  0  0  0  0  0  0  0  0  0
  194.2140  172.6490  144.6480 O   0  0  0  0  0  1  0  0  0  0  0  0
  197.5490  173.9970  145.2790 C   0  0  0  0  0  2  0  0  0  0  0  0
  194.7470  176.5800  145.2930 S   0  0  0  0  0  1  0  0  0  0  0  0
  195.2930  174.9460  145.8700 C   0  0  0  0  0  2  0  0  0  0  0  0
  190.2770  176.8280  145.9310 C   0  0  0  0  0  2  0  0  0  0  0  0
  189.1120  177.8020  145.8570 C   0  0  0  0  0  2  0  0  0  0  0  0
  188.0520  177.4500  146.8980 C   0  0  2  0  0  3  0  0  0  0  0  0
  187.9760  175.9280  146.9640 C   0  0  0  0  0  1  0  0  0  0  0  0
  185.6950  177.0630  146.8670 C   0  0  0  0  0  2  0  0  0  0  0  0
  185.5930  180.0980  144.0900 O   0  0  0  0  0  1  0  0  0  0  0  0
  185.3710  178.8300  144.6210 C   0  0  1  0  0  3  0  0  0  0  0  0
  186.7070  178.2180  145.0770 C   0  0  0  0  0  2  0  0  0  0  0  0
  184.3540  178.9260  145.7610 C   0  0  0  0  0  2  0  0  0  0  0  0
  186.7520  178.0280  146.5340 N   0  0  0  0  0  0  0  0  0  0  0  0
  184.2990  177.6220  146.5590 C   0  0  0  0  0  2  0  0  0  0  0  0
  2 15  1  6  0  0  0
  2  5  1  0  0  0  0
  5 11  1  0  0  0  0
  5 10  1  1  0  0  0
  6  3  2  0  0  0  0
  7  4  1  0  0  0  0
  7  2  1  0  0  0  0
  8  1  1  0  0  0  0
  8 28  1  1  0  0  0
  9  4  1  0  0  0  0
  9  6  1  0  0  0  0
 10  8  1  0  0  0  0
 11  3  1  6  0  0  0
 11  1  1  0  0  0  0
 13 15  1  0  0  0  0
 14 13  1  0  0  0  0
 15 12  2  0  0  0  0
 16  6  1  0  0  0  0
 16 17  1  0  0  0  0
 17 19  1  0  0  0  0
 18 23  1  0  0  0  0
 19 18  1  0  0  0  0
 20 19  2  0  0  0  0
 21 25  1  6  0  0  0
 22 25  1  0  0  0  0
 22 21  1  0  0  0  0
 22 27  1  1  0  0  0
 23 24  1  1  0  0  0
 23 22  1  0  0  0  0
 23 21  1  0  0  0  0
 26 27  1  0  0  0  0
 29 28  1  0  0  0  0
 29 30  1  0  0  0  0
 30 31  1  6  0  0  0
 34 33  1  1  0  0  0
 34 35  1  0  0  0  0
 34 36  1  0  0  0  0
 35 37  1  0  0  0  0
 36 38  1  0  0  0  0
 37 32  1  0  0  0  0
 37 30  1  0  0  0  0
 38 32  1  0  0  0  0
M  END
>  <MODEL>
1

>  <REMARK>
 VINA RESULT:      -7.4      0.000      0.000
  Name = 
  10 active torsions:
  status: ('A' for Active; 'I' for Inactive)
    1  A    between atoms: C_5  and  C_38
    2  A    between atoms: S_9  and  C_20
    3  A    between atoms: S_9  and  C_29
    4  A    between atoms: C_10  and  C_16
    5  A    between atoms: C_13  and  N_15
    6  A    between atoms: C_21  and  C_31
    7  A    between atoms: C_21  and  C_32
    8  A    between atoms: C_25  and  C_32
    9  A    between atoms: C_26  and  C_29
   10  A    between atoms: N_27  and  C_31
                            x       y       z     vdW  Elec       q    Type
                         _______ _______ _______ _____ _____    ______ ____

>  <TORSDO>
F 10

$$$$
=
 OpenBabel11042416273D

 38 42  0  0  1  0  0  0  0  0999 V2000
  190.8310  173.2070  144.6580 S   0  0  0  0  0  0  0  0  0  0  0  0
  188.3250  174.4310  141.8870 C   0  0  2  0  0  3  0  0  0  0  0  0
  191.6270  173.5600  142.1480 N   0  0  0  0  0  0  0  0  0  0  0  0
  189.3380  172.7560  140.3250 C   0  0  0  0  0  2  0  0  0  0  0  0
  189.5370  174.6670  142.8020 C   0  0  1  0  0  3  0  0  0  0  0  0
  191.7970  173.3320  140.8770 C   0  0  0  0  0  0  0  0  0  0  0  0
  188.7260  174.1400  140.4440 C   0  0  0  0  0  2  0  0  0  0  0  0
  190.1900  174.8700  144.9220 C   0  0  1  0  0  3  0  0  0  0  0  0
  190.7500  172.8750  140.0040 N   0  0  0  0  0  2  0  0  0  0  0  0
  189.0910  175.0420  144.0780 O   0  0  0  0  0  0  0  0  0  0  0  0
  190.3970  173.4050  142.9170 C   0  0  2  0  0  3  0  0  0  0  0  0
  186.4320  175.6370  142.7210 O   0  0  0  0  0  0  0  0  0  0  0  0
  187.6110  176.6830  140.9980 N   0  0  0  0  0  2  0  0  0  0  0  0
  186.7470  177.8510  140.9750 C   0  0  0  0  0  1  0  0  0  0  0  0
  187.3960  175.6050  141.9090 C   0  0  0  0  0  0  0  0  0  0  0  0
  193.4340  173.5500  140.1910 S   0  0  0  0  0  0  0  0  0  0  0  0
  194.1400  174.1620  141.7580 C   0  0  0  0  0  2  0  0  0  0  0  0
  195.3500  176.2280  142.6410 N   0  0  0  0  0  2  0  0  0  0  0  0
  194.6650  175.5510  141.5840 C   0  0  0  0  0  0  0  0  0  0  0  0
  194.5300  176.1290  140.4750 O   0  0  0  0  0  0  0  0  0  0  0  0
  194.8780  176.6300  145.0430 C   0  0  1  0  0  3  0  0  0  0  0  0
  194.1970  175.2970  144.7070 C   0  0  2  0  0  0  0  0  0  0  0  0
  195.4680  175.7200  144.0030 C   0  0  1  0  0  0  0  0  0  0  0  0
  196.6830  175.1420  144.3790 O   0  0  0  0  0  1  0  0  0  0  0  0
  193.3700  176.5110  145.0800 C   0  0  0  0  0  2  0  0  0  0  0  0
  194.4170  172.6420  145.3700 S   0  0  0  0  0  1  0  0  0  0  0  0
  194.4350  174.3810  145.8960 C   0  0  0  0  0  2  0  0  0  0  0  0
  189.7720  175.0330  146.3740 C   0  0  0  0  0  2  0  0  0  0  0  0
  188.4100  175.7000  146.4730 C   0  0  0  0  0  2  0  0  0  0  0  0
  188.5190  177.1930  146.1770 C   0  0  2  0  0  3  0  0  0  0  0  0
  189.3720  177.8090  147.2820 C   0  0  0  0  0  1  0  0  0  0  0  0
  186.1850  176.8140  146.5190 C   0  0  0  0  0  2  0  0  0  0  0  0
  185.6640  180.1840  144.2170 O   0  0  0  0  0  1  0  0  0  0  0  0
  185.5090  178.8580  144.6120 C   0  0  1  0  0  3  0  0  0  0  0  0
  186.8900  178.1920  144.7400 C   0  0  0  0  0  2  0  0  0  0  0  0
  184.7130  178.8050  145.9190 C   0  0  0  0  0  2  0  0  0  0  0  0
  187.1890  177.8150  146.1290 N   0  0  0  0  0  0  0  0  0  0  0  0
  184.7700  177.4080  146.5400 C   0  0  0  0  0  2  0  0  0  0  0  0
  1  8  1  0  0  0  0
  2 15  1  6  0  0  0
  2  5  1  0  0  0  0
  4  7  1  0  0  0  0
  5 11  1  0  0  0  0
  5 10  1  1  0  0  0
  6  3  2  0  0  0  0
  7  2  1  0  0  0  0
  8 28  1  1  0  0  0
  9  4  1  0  0  0  0
  9  6  1  0  0  0  0
 10  8  1  0  0  0  0
 11  3  1  6  0  0  0
 11  1  1  0  0  0  0
 13 15  1  0  0  0  0
 14 13  1  0  0  0  0
 15 12  2  0  0  0  0
 16  6  1  0  0  0  0
 16 17  1  0  0  0  0
 18 23  1  0  0  0  0
 19 17  1  0  0  0  0
 19 18  1  0  0  0  0
 20 19  2  0  0  0  0
 21 25  1  6  0  0  0
 22 21  1  0  0  0  0
 22 25  1  0  0  0  0
 22 27  1  1  0  0  0
 23 24  1  1  0  0  0
 23 22  1  0  0  0  0
 23 21  1  0  0  0  0
 26 27  1  0  0  0  0
 28 29  1  0  0  0  0
 30 29  1  0  0  0  0
 30 31  1  1  0  0  0
 32 38  1  0  0  0  0
 34 33  1  1  0  0  0
 34 35  1  0  0  0  0
 34 36  1  0  0  0  0
 35 37  1  0  0  0  0
 36 38  1  0  0  0  0
 37 30  1  0  0  0  0
 37 32  1  0  0  0  0
M  END
>  <MODEL>
2

>  <REMARK>
 VINA RESULT:      -7.3      1.653      1.959
  Name = 
  10 active torsions:
  status: ('A' for Active; 'I' for Inactive)
    1  A    between atoms: C_5  and  C_38
    2  A    between atoms: S_9  and  C_20
    3  A    between atoms: S_9  and  C_29
    4  A    between atoms: C_10  and  C_16
    5  A    between atoms: C_13  and  N_15
    6  A    between atoms: C_21  and  C_31
    7  A    between atoms: C_21  and  C_32
    8  A    between atoms: C_25  and  C_32
    9  A    between atoms: C_26  and  C_29
   10  A    between atoms: N_27  and  C_31
                            x       y       z     vdW  Elec       q    Type
                         _______ _______ _______ _____ _____    ______ ____

>  <TORSDO>
F 10

$$$$
=
 OpenBabel11042416273D

 38 42  0  0  1  0  0  0  0  0999 V2000
  191.4630  172.7620  144.3760 S   0  0  0  0  0  0  0  0  0  0  0  0
  194.4910  175.0590  145.3790 C   0  0  2  0  0  3  0  0  0  0  0  0
  191.0880  175.2940  145.0860 N   0  0  0  0  0  0  0  0  0  0  0  0
  193.1010  175.9600  147.2560 C   0  0  0  0  0  2  0  0  0  0  0  0
  193.3630  174.6700  144.4110 C   0  0  1  0  0  3  0  0  0  0  0  0
  190.9690  176.3450  145.8460 C   0  0  0  0  0  0  0  0  0  0  0  0
  194.1530  176.2910  146.2120 C   0  0  0  0  0  2  0  0  0  0  0  0
  192.6280  173.0780  143.0380 C   0  0  1  0  0  3  0  0  0  0  0  0
  191.8610  176.6460  146.9320 N   0  0  0  0  0  2  0  0  0  0  0  0
  193.7900  173.6080  143.6000 O   0  0  0  0  0  0  0  0  0  0  0  0
  192.1030  174.2500  145.1730 C   0  0  2  0  0  3  0  0  0  0  0  0
  196.7110  174.4660  144.7010 O   0  0  0  0  0  0  0  0  0  0  0  0
  195.9190  176.5030  143.8780 N   0  0  0  0  0  2  0  0  0  0  0  0
  197.1350  176.7960  143.1380 C   0  0  0  0  0  1  0  0  0  0  0  0
  195.7720  175.3060  144.6420 C   0  0  0  0  0  0  0  0  0  0  0  0
  189.5900  177.4460  145.5560 S   0  0  0  0  0  0  0  0  0  0  0  0
  188.3740  176.0910  145.4460 C   0  0  0  0  0  2  0  0  0  0  0  0
  185.9490  176.8850  145.4430 N   0  0  0  0  0  2  0  0  0  0  0  0
  187.1140  176.4640  146.1580 C   0  0  0  0  0  0  0  0  0  0  0  0
  187.0630  176.3750  147.4120 O   0  0  0  0  0  0  0  0  0  0  0  0
  184.9380  178.2130  143.6090 C   0  0  1  0  0  3  0  0  0  0  0  0
  186.4470  178.4710  143.5190 C   0  0  2  0  0  0  0  0  0  0  0  0
  185.9130  177.1420  144.0080 C   0  0  1  0  0  0  0  0  0  0  0  0
  185.9290  176.0410  143.1490 O   0  0  0  0  0  1  0  0  0  0  0  0
  185.4960  179.5920  143.8880 C   0  0  0  0  0  2  0  0  0  0  0  0
  188.5600  178.1200  141.8020 S   0  0  0  0  0  1  0  0  0  0  0  0
  186.7960  178.4800  142.0400 C   0  0  0  0  0  2  0  0  0  0  0  0
  192.9370  171.7810  142.3100 C   0  0  0  0  0  2  0  0  0  0  0  0
  192.4300  171.8290  140.8780 C   0  0  0  0  0  2  0  0  0  0  0  0
  190.9660  171.4030  140.8120 C   0  0  2  0  0  3  0  0  0  0  0  0
  190.8510  170.3590  139.7060 C   0  0  0  0  0  1  0  0  0  0  0  0
  189.1100  172.6700  141.6240 C   0  0  0  0  0  2  0  0  0  0  0  0
  188.8350  174.0690  137.7640 O   0  0  0  0  0  1  0  0  0  0  0  0
  188.4140  173.4790  138.9530 C   0  0  1  0  0  3  0  0  0  0  0  0
  189.3430  172.3050  139.3050 C   0  0  0  0  0  2  0  0  0  0  0  0
  188.3670  174.5380  140.0580 C   0  0  0  0  0  2  0  0  0  0  0  0
  190.0980  172.5570  140.5410 N   0  0  0  0  0  0  0  0  0  0  0  0
  188.1960  173.8890  141.4330 C   0  0  0  0  0  2  0  0  0  0  0  0
  2 15  1  6  0  0  0
  2  7  1  0  0  0  0
  3 11  1  0  0  0  0
  3  6  2  0  0  0  0
  5 10  1  1  0  0  0
  5 11  1  0  0  0  0
  5  2  1  0  0  0  0
  6  9  1  0  0  0  0
  7  4  1  0  0  0  0
  8 28  1  1  0  0  0
  8 10  1  0  0  0  0
  8  1  1  0  0  0  0
  9  4  1  0  0  0  0
 11  1  1  6  0  0  0
 13 15  1  0  0  0  0
 14 13  1  0  0  0  0
 15 12  2  0  0  0  0
 16  6  1  0  0  0  0
 17 16  1  0  0  0  0
 17 19  1  0  0  0  0
 18 19  1  0  0  0  0
 19 20  2  0  0  0  0
 21 25  1  1  0  0  0
 21 23  1  0  0  0  0
 22 27  1  6  0  0  0
 22 21  1  0  0  0  0
 22 25  1  0  0  0  0
 22 23  1  0  0  0  0
 23 24  1  6  0  0  0
 23 18  1  0  0  0  0
 26 27  1  0  0  0  0
 29 28  1  0  0  0  0
 30 31  1  6  0  0  0
 30 29  1  0  0  0  0
 34 33  1  6  0  0  0
 34 35  1  0  0  0  0
 34 36  1  0  0  0  0
 35 37  1  0  0  0  0
 36 38  1  0  0  0  0
 37 30  1  0  0  0  0
 37 32  1  0  0  0  0
 38 32  1  0  0  0  0
M  END
>  <MODEL>
3

>  <REMARK>
 VINA RESULT:      -7.2      2.583      8.578
  Name = 
  10 active torsions:
  status: ('A' for Active; 'I' for Inactive)
    1  A    between atoms: C_5  and  C_38
    2  A    between atoms: S_9  and  C_20
    3  A    between atoms: S_9  and  C_29
    4  A    between atoms: C_10  and  C_16
    5  A    between atoms: C_13  and  N_15
    6  A    between atoms: C_21  and  C_31
    7  A    between atoms: C_21  and  C_32
    8  A    between atoms: C_25  and  C_32
    9  A    between atoms: C_26  and  C_29
   10  A    between atoms: N_27  and  C_31
                            x       y       z     vdW  Elec       q    Type
                         _______ _______ _______ _____ _____    ______ ____

>  <TORSDO>
F 10

$$$$
=
 OpenBabel11042416273D

 38 42  0  0  1  0  0  0  0  0999 V2000
  188.5360  173.9280  142.6570 S   0  0  0  0  0  0  0  0  0  0  0  0
  189.7840  172.4460  139.2360 C   0  0  2  0  0  3  0  0  0  0  0  0
  190.9710  172.8930  142.4170 N   0  0  0  0  0  0  0  0  0  0  0  0
  190.7980  170.5420  140.5070 C   0  0  0  0  0  2  0  0  0  0  0  0
  189.8360  173.5200  140.3340 C   0  0  1  0  0  3  0  0  0  0  0  0
  191.9150  172.0010  142.3250 C   0  0  0  0  0  0  0  0  0  0  0  0
  190.9530  171.4690  139.3140 C   0  0  0  0  0  2  0  0  0  0  0  0
  188.6810  175.1420  141.3320 C   0  0  1  0  0  3  0  0  0  0  0  0
  191.8290  170.8360  141.4880 N   0  0  0  0  0  2  0  0  0  0  0  0
  188.8030  174.4470  140.1280 O   0  0  0  0  0  0  0  0  0  0  0  0
  189.6870  172.8960  141.7240 C   0  0  2  0  0  3  0  0  0  0  0  0
  188.7690  172.8920  137.1130 O   0  0  0  0  0  0  0  0  0  0  0  0
  190.8690  173.8580  137.4460 N   0  0  0  0  0  2  0  0  0  0  0  0
  190.9010  174.4910  136.1380 C   0  0  0  0  0  1  0  0  0  0  0  0
  189.7590  173.0680  137.8740 C   0  0  0  0  0  0  0  0  0  0  0  0
  193.3770  172.2110  143.3340 S   0  0  0  0  0  0  0  0  0  0  0  0
  192.8570  173.8430  143.9600 C   0  0  0  0  0  2  0  0  0  0  0  0
  193.2680  176.3120  143.4620 N   0  0  0  0  0  2  0  0  0  0  0  0
  193.4600  174.9340  143.1330 C   0  0  0  0  0  0  0  0  0  0  0  0
  194.1780  174.6350  142.1450 O   0  0  0  0  0  0  0  0  0  0  0  0
  191.5710  178.0030  144.1060 C   0  0  1  0  0  3  0  0  0  0  0  0
  190.8800  176.6430  144.2700 C   0  0  2  0  0  0  0  0  0  0  0  0
  192.3670  176.7920  144.5040 C   0  0  1  0  0  0  0  0  0  0  0  0
  192.8520  176.8380  145.8130 O   0  0  0  0  0  1  0  0  0  0  0  0
  190.4100  177.6230  143.2130 C   0  0  0  0  0  2  0  0  0  0  0  0
  189.6240  175.0680  146.1350 S   0  0  0  0  0  1  0  0  0  0  0  0
  190.0510  176.7310  145.5400 C   0  0  0  0  0  2  0  0  0  0  0  0
  187.4450  176.0250  141.3100 C   0  0  0  0  0  2  0  0  0  0  0  0
  186.7710  176.0480  142.6720 C   0  0  0  0  0  2  0  0  0  0  0  0
  185.8370  177.2500  142.7880 C   0  0  2  0  0  3  0  0  0  0  0  0
  186.6240  178.4760  142.3350 C   0  0  0  0  0  1  0  0  0  0  0  0
  184.5530  178.6340  144.2530 C   0  0  0  0  0  2  0  0  0  0  0  0
  186.5760  176.7040  147.2710 O   0  0  0  0  0  1  0  0  0  0  0  0
  186.0980  177.7750  146.5220 C   0  0  1  0  0  3  0  0  0  0  0  0
  186.5200  177.6080  145.0520 C   0  0  0  0  0  2  0  0  0  0  0  0
  184.5790  177.8730  146.6850 C   0  0  0  0  0  2  0  0  0  0  0  0
  185.3610  177.4090  144.1690 N   0  0  0  0  0  0  0  0  0  0  0  0
  183.9780  178.8390  145.6620 C   0  0  0  0  0  2  0  0  0  0  0  0
  2 15  1  6  0  0  0
  2  7  1  0  0  0  0
  2  5  1  0  0  0  0
  4  9  1  0  0  0  0
  5 10  1  6  0  0  0
  5 11  1  0  0  0  0
  6  3  2  0  0  0  0
  6 16  1  0  0  0  0
  7  4  1  0  0  0  0
  8 28  1  6  0  0  0
  8  1  1  0  0  0  0
  9  6  1  0  0  0  0
 10  8  1  0  0  0  0
 11  3  1  1  0  0  0
 11  1  1  0  0  0  0
 12 15  2  0  0  0  0
 13 15  1  0  0  0  0
 14 13  1  0  0  0  0
 16 17  1  0  0  0  0
 18 23  1  0  0  0  0
 19 18  1  0  0  0  0
 19 17  1  0  0  0  0
 20 19  2  0  0  0  0
 21 25  1  6  0  0  0
 21 22  1  0  0  0  0
 21 23  1  0  0  0  0
 22 23  1  0  0  0  0
 22 27  1  1  0  0  0
 23 24  1  1  0  0  0
 25 22  1  0  0  0  0
 27 26  1  0  0  0  0
 28 29  1  0  0  0  0
 29 30  1  0  0  0  0
 30 31  1  1  0  0  0
 30 37  1  0  0  0  0
 32 38  1  0  0  0  0
 34 36  1  0  0  0  0
 34 33  1  1  0  0  0
 35 34  1  0  0  0  0
 37 32  1  0  0  0  0
 37 35  1  0  0  0  0
 38 36  1  0  0  0  0
M  END
>  <MODEL>
4

>  <REMARK>
 VINA RESULT:      -7.2      2.755      4.380
  Name = 
  10 active torsions:
  status: ('A' for Active; 'I' for Inactive)
    1  A    between atoms: C_5  and  C_38
    2  A    between atoms: S_9  and  C_20
    3  A    between atoms: S_9  and  C_29
    4  A    between atoms: C_10  and  C_16
    5  A    between atoms: C_13  and  N_15
    6  A    between atoms: C_21  and  C_31
    7  A    between atoms: C_21  and  C_32
    8  A    between atoms: C_25  and  C_32
    9  A    between atoms: C_26  and  C_29
   10  A    between atoms: N_27  and  C_31
                            x       y       z     vdW  Elec       q    Type
                         _______ _______ _______ _____ _____    ______ ____

>  <TORSDO>
F 10

$$$$
=
 OpenBabel11042416273D

 38 42  0  0  1  0  0  0  0  0999 V2000
  188.1580  174.5180  142.3830 S   0  0  0  0  0  0  0  0  0  0  0  0
  188.4270  173.6570  138.5560 C   0  0  2  0  0  3  0  0  0  0  0  0
  190.3200  173.3340  141.3910 N   0  0  0  0  0  0  0  0  0  0  0  0
  189.4210  171.4490  139.1900 C   0  0  0  0  0  2  0  0  0  0  0  0
  188.8600  174.4750  139.7830 C   0  0  1  0  0  3  0  0  0  0  0  0
  191.0920  172.3960  140.9200 C   0  0  0  0  0  0  0  0  0  0  0  0
  189.4400  172.5810  138.1790 C   0  0  0  0  0  2  0  0  0  0  0  0
  188.1790  175.9580  141.2990 C   0  0  1  0  0  3  0  0  0  0  0  0
  190.6690  171.4400  139.9340 N   0  0  0  0  0  2  0  0  0  0  0  0
  187.9430  175.5150  139.9960 O   0  0  0  0  0  0  0  0  0  0  0  0
  188.9300  173.5970  141.0350 C   0  0  2  0  0  3  0  0  0  0  0  0
  189.0200  174.5620  136.4190 O   0  0  0  0  0  0  0  0  0  0  0  0
  187.0310  175.3710  137.3360 N   0  0  0  0  0  2  0  0  0  0  0  0
  186.7480  176.2490  136.2130 C   0  0  0  0  0  1  0  0  0  0  0  0
  188.1940  174.5440  137.3720 C   0  0  0  0  0  0  0  0  0  0  0  0
  192.7510  172.2600  141.5720 S   0  0  0  0  0  0  0  0  0  0  0  0
  192.4670  173.4980  142.8820 C   0  0  0  0  0  2  0  0  0  0  0  0
  192.8680  173.6020  145.4000 N   0  0  0  0  0  2  0  0  0  0  0  0
  193.2660  173.1600  144.1000 C   0  0  0  0  0  0  0  0  0  0  0  0
  194.2940  172.4450  143.9850 O   0  0  0  0  0  0  0  0  0  0  0  0
  191.9150  175.3000  146.9360 C   0  0  1  0  0  3  0  0  0  0  0  0
  192.0730  176.0100  145.5850 C   0  0  2  0  0  0  0  0  0  0  0  0
  191.7710  174.5280  145.6550 C   0  0  1  0  0  0  0  0  0  0  0  0
  190.4720  174.0830  145.4030 O   0  0  0  0  0  1  0  0  0  0  0  0
  192.9000  176.4370  146.7820 C   0  0  0  0  0  2  0  0  0  0  0  0
  190.8190  177.6180  143.7480 S   0  0  0  0  0  1  0  0  0  0  0  0
  190.8370  176.8760  145.4060 C   0  0  0  0  0  2  0  0  0  0  0  0
  187.1000  176.9370  141.7280 C   0  0  0  0  0  2  0  0  0  0  0  0
  186.2960  176.3820  142.8930 C   0  0  0  0  0  2  0  0  0  0  0  0
  185.4900  177.4900  143.5660 C   0  0  2  0  0  3  0  0  0  0  0  0
  186.0080  178.8170  143.0210 C   0  0  0  0  0  1  0  0  0  0  0  0
  185.1550  178.6900  145.6040 C   0  0  0  0  0  2  0  0  0  0  0  0
  187.8270  176.0030  147.2080 O   0  0  0  0  0  1  0  0  0  0  0  0
  187.2900  177.2450  146.8790 C   0  0  1  0  0  3  0  0  0  0  0  0
  187.0620  177.3230  145.3600 C   0  0  0  0  0  2  0  0  0  0  0  0
  186.0030  177.4710  147.6750 C   0  0  0  0  0  2  0  0  0  0  0  0
  185.6340  177.4260  145.0260 N   0  0  0  0  0  0  0  0  0  0  0  0
  185.2290  178.6770  147.1370 C   0  0  0  0  0  2  0  0  0  0  0  0
  2 15  1  6  0  0  0
  2  5  1  0  0  0  0
  4  9  1  0  0  0  0
  5 10  1  1  0  0  0
  5 11  1  0  0  0  0
  6  3  2  0  0  0  0
  6 16  1  0  0  0  0
  7  2  1  0  0  0  0
  7  4  1  0  0  0  0
  8 28  1  1  0  0  0
  8  1  1  0  0  0  0
  9  6  1  0  0  0  0
 10  8  1  0  0  0  0
 11  3  1  1  0  0  0
 11  1  1  0  0  0  0
 12 15  2  0  0  0  0
 13 15  1  0  0  0  0
 14 13  1  0  0  0  0
 16 17  1  0  0  0  0
 17 19  1  0  0  0  0
 18 23  1  0  0  0  0
 19 18  1  0  0  0  0
 20 19  2  0  0  0  0
 21 25  1  1  0  0  0
 22 27  1  6  0  0  0
 22 23  1  0  0  0  0
 22 25  1  0  0  0  0
 22 21  1  0  0  0  0
 23 24  1  6  0  0  0
 23 21  1  0  0  0  0
 26 27  1  0  0  0  0
 28 29  1  0  0  0  0
 29 30  1  0  0  0  0
 30 31  1  6  0  0  0
 30 37  1  0  0  0  0
 32 38  1  0  0  0  0
 34 33  1  6  0  0  0
 34 36  1  0  0  0  0
 35 34  1  0  0  0  0
 37 35  1  0  0  0  0
 37 32  1  0  0  0  0
 38 36  1  0  0  0  0
M  END
>  <MODEL>
5

>  <REMARK>
 VINA RESULT:      -7.2      2.535      3.881
  Name = 
  10 active torsions:
  status: ('A' for Active; 'I' for Inactive)
    1  A    between atoms: C_5  and  C_38
    2  A    between atoms: S_9  and  C_20
    3  A    between atoms: S_9  and  C_29
    4  A    between atoms: C_10  and  C_16
    5  A    between atoms: C_13  and  N_15
    6  A    between atoms: C_21  and  C_31
    7  A    between atoms: C_21  and  C_32
    8  A    between atoms: C_25  and  C_32
    9  A    between atoms: C_26  and  C_29
   10  A    between atoms: N_27  and  C_31
                            x       y       z     vdW  Elec       q    Type
                         _______ _______ _______ _____ _____    ______ ____

>  <TORSDO>
F 10

$$$$
=
 OpenBabel11042416273D

 38 42  0  0  1  0  0  0  0  0999 V2000
  190.5630  172.7980  144.6370 S   0  0  0  0  0  0  0  0  0  0  0  0
  193.8190  175.0000  144.6970 C   0  0  2  0  0  3  0  0  0  0  0  0
  190.4870  175.3390  145.4090 N   0  0  0  0  0  0  0  0  0  0  0  0
  193.0660  175.9380  146.8920 C   0  0  0  0  0  2  0  0  0  0  0  0
  192.4460  174.6480  144.1040 C   0  0  1  0  0  3  0  0  0  0  0  0
  190.6270  176.3920  146.1640 C   0  0  0  0  0  0  0  0  0  0  0  0
  193.7760  176.2400  145.5850 C   0  0  0  0  0  2  0  0  0  0  0  0
  191.2960  173.0830  143.0150 C   0  0  1  0  0  3  0  0  0  0  0  0
  191.8060  176.6620  146.9400 N   0  0  0  0  0  2  0  0  0  0  0  0
  192.5870  173.5750  143.2100 O   0  0  0  0  0  0  0  0  0  0  0  0
  191.4520  174.2650  145.2030 C   0  0  2  0  0  3  0  0  0  0  0  0
  195.8910  174.5200  143.5950 O   0  0  0  0  0  0  0  0  0  0  0  0
  194.5990  176.2010  142.6180 N   0  0  0  0  0  2  0  0  0  0  0  0
  195.5450  176.4470  141.5420 C   0  0  0  0  0  1  0  0  0  0  0  0
  194.8360  175.2100  143.6170 C   0  0  0  0  0  0  0  0  0  0  0  0
  189.2570  177.5350  146.2820 S   0  0  0  0  0  0  0  0  0  0  0  0
  187.9990  176.2440  146.0040 C   0  0  0  0  0  2  0  0  0  0  0  0
  185.6390  177.0990  145.5400 N   0  0  0  0  0  2  0  0  0  0  0  0
  186.6580  176.7160  146.4680 C   0  0  0  0  0  0  0  0  0  0  0  0
  186.4060  176.7480  147.7000 O   0  0  0  0  0  0  0  0  0  0  0  0
  184.9900  178.2790  143.4570 C   0  0  1  0  0  3  0  0  0  0  0  0
  186.5050  178.4800  143.5880 C   0  0  2  0  0  0  0  0  0  0  0  0
  185.8410  177.2210  144.1010 C   0  0  1  0  0  0  0  0  0  0  0  0
  185.9420  176.0440  143.3560 O   0  0  0  0  0  1  0  0  0  0  0  0
  185.5580  179.6590  143.6990 C   0  0  0  0  0  2  0  0  0  0  0  0
  188.8460  177.9140  142.2710 S   0  0  0  0  0  1  0  0  0  0  0  0
  187.0810  178.3400  142.1890 C   0  0  0  0  0  2  0  0  0  0  0  0
  191.3400  171.7780  142.2380 C   0  0  0  0  0  2  0  0  0  0  0  0
  190.1230  171.6420  141.3380 C   0  0  0  0  0  2  0  0  0  0  0  0
  189.5920  173.0180  140.9410 C   0  0  2  0  0  3  0  0  0  0  0  0
  188.1330  173.0800  141.3810 C   0  0  0  0  0  1  0  0  0  0  0  0
  188.4960  173.8850  139.0040 C   0  0  0  0  0  2  0  0  0  0  0  0
  191.1600  171.5630  136.8960 O   0  0  0  0  0  1  0  0  0  0  0  0
  189.9240  172.0590  137.3010 C   0  0  1  0  0  3  0  0  0  0  0  0
  189.7850  171.9180  138.8270 C   0  0  0  0  0  2  0  0  0  0  0  0
  189.7780  173.5090  136.8330 C   0  0  0  0  0  2  0  0  0  0  0  0
  189.7170  173.2270  139.4920 N   0  0  0  0  0  0  0  0  0  0  0  0
  188.5760  174.1820  137.4990 C   0  0  0  0  0  2  0  0  0  0  0  0
  2 15  1  6  0  0  0
  2  7  1  0  0  0  0
  3  6  2  0  0  0  0
  4  9  1  0  0  0  0
  5 10  1  6  0  0  0
  5  2  1  0  0  0  0
  5 11  1  0  0  0  0
  6 16  1  0  0  0  0
  6  9  1  0  0  0  0
  7  4  1  0  0  0  0
  8 28  1  6  0  0  0
  8 10  1  0  0  0  0
  8  1  1  0  0  0  0
 11  1  1  6  0  0  0
 11  3  1  0  0  0  0
 12 15  2  0  0  0  0
 13 15  1  0  0  0  0
 14 13  1  0  0  0  0
 17 16  1  0  0  0  0
 17 19  1  0  0  0  0
 18 19  1  0  0  0  0
 19 20  2  0  0  0  0
 21 22  1  0  0  0  0
 21 25  1  1  0  0  0
 21 23  1  0  0  0  0
 22 27  1  6  0  0  0
 22 25  1  0  0  0  0
 22 23  1  0  0  0  0
 23 24  1  6  0  0  0
 23 18  1  0  0  0  0
 27 26  1  0  0  0  0
 29 28  1  0  0  0  0
 30 29  1  0  0  0  0
 30 31  1  6  0  0  0
 32 37  1  0  0  0  0
 34 33  1  1  0  0  0
 34 35  1  0  0  0  0
 35 37  1  0  0  0  0
 36 34  1  0  0  0  0
 36 38  1  0  0  0  0
 37 30  1  0  0  0  0
 38 32  1  0  0  0  0
M  END
>  <MODEL>
6

>  <REMARK>
 VINA RESULT:      -7.1      2.752      8.728
  Name = 
  10 active torsions:
  status: ('A' for Active; 'I' for Inactive)
    1  A    between atoms: C_5  and  C_38
    2  A    between atoms: S_9  and  C_20
    3  A    between atoms: S_9  and  C_29
    4  A    between atoms: C_10  and  C_16
    5  A    between atoms: C_13  and  N_15
    6  A    between atoms: C_21  and  C_31
    7  A    between atoms: C_21  and  C_32
    8  A    between atoms: C_25  and  C_32
    9  A    between atoms: C_26  and  C_29
   10  A    between atoms: N_27  and  C_31
                            x       y       z     vdW  Elec       q    Type
                         _______ _______ _______ _____ _____    ______ ____

>  <TORSDO>
F 10

$$$$
=
 OpenBabel11042416273D

 38 42  0  0  1  0  0  0  0  0999 V2000
  191.4280  172.7640  144.2780 S   0  0  0  0  0  0  0  0  0  0  0  0
  194.4570  175.2200  144.7750 C   0  0  2  0  0  3  0  0  0  0  0  0
  191.0480  175.2620  145.0970 N   0  0  0  0  0  0  0  0  0  0  0  0
  193.3770  176.0180  146.8890 C   0  0  0  0  0  2  0  0  0  0  0  0
  193.1960  174.7770  144.0160 C   0  0  1  0  0  3  0  0  0  0  0  0
  191.0100  176.2960  145.8890 C   0  0  0  0  0  0  0  0  0  0  0  0
  194.2060  176.4200  145.6820 C   0  0  0  0  0  2  0  0  0  0  0  0
  192.3160  173.1620  142.7610 C   0  0  1  0  0  3  0  0  0  0  0  0
  192.0640  176.6350  146.8050 N   0  0  0  0  0  2  0  0  0  0  0  0
  193.5290  173.7510  143.1190 O   0  0  0  0  0  0  0  0  0  0  0  0
  192.1180  174.2770  144.9800 C   0  0  2  0  0  3  0  0  0  0  0  0
  195.3990  176.4070  142.9210 O   0  0  0  0  0  0  0  0  0  0  0  0
  196.8220  174.8750  143.9620 N   0  0  0  0  0  2  0  0  0  0  0  0
  197.9400  175.1540  143.0770 C   0  0  0  0  0  1  0  0  0  0  0  0
  195.5700  175.5480  143.8290 C   0  0  0  0  0  0  0  0  0  0  0  0
  189.5430  177.3190  145.8720 S   0  0  0  0  0  0  0  0  0  0  0  0
  188.8810  176.5560  144.3530 C   0  0  0  0  0  2  0  0  0  0  0  0
  187.8420  178.0950  142.6030 N   0  0  0  0  0  2  0  0  0  0  0  0
  188.9980  177.5030  143.2020 C   0  0  0  0  0  0  0  0  0  0  0  0
  190.1370  177.8110  142.7680 O   0  0  0  0  0  0  0  0  0  0  0  0
  185.9590  178.3660  144.1940 C   0  0  1  0  0  3  0  0  0  0  0  0
  185.4140  178.8140  142.8310 C   0  0  2  0  0  0  0  0  0  0  0  0
  186.4680  177.7330  142.9300 C   0  0  1  0  0  0  0  0  0  0  0  0
  186.0930  176.3960  142.7750 O   0  0  0  0  0  1  0  0  0  0  0  0
  185.5710  179.8100  143.9630 C   0  0  0  0  0  2  0  0  0  0  0  0
  183.4280  178.2850  141.0110 S   0  0  0  0  0  1  0  0  0  0  0  0
  183.9950  178.2760  142.7370 C   0  0  0  0  0  2  0  0  0  0  0  0
  192.5600  171.8920  141.9630 C   0  0  0  0  0  2  0  0  0  0  0  0
  191.3660  170.9570  142.0550 C   0  0  0  0  0  2  0  0  0  0  0  0
  190.5680  170.9750  140.7530 C   0  0  2  0  0  3  0  0  0  0  0  0
  191.5500  170.6980  139.6200 C   0  0  0  0  0  1  0  0  0  0  0  0
  188.9170  172.4540  141.6450 C   0  0  0  0  0  2  0  0  0  0  0  0
  188.9610  174.1820  137.9110 O   0  0  0  0  0  1  0  0  0  0  0  0
  188.4230  173.5740  139.0430 C   0  0  1  0  0  3  0  0  0  0  0  0
  189.1460  172.2420  139.3070 C   0  0  0  0  0  2  0  0  0  0  0  0
  188.5180  174.5360  140.2300 C   0  0  0  0  0  2  0  0  0  0  0  0
  189.9010  172.2710  140.5690 N   0  0  0  0  0  0  0  0  0  0  0  0
  188.2130  173.8150  141.5450 C   0  0  0  0  0  2  0  0  0  0  0  0
  2 15  1  6  0  0  0
  2  7  1  0  0  0  0
  3  6  2  0  0  0  0
  5 10  1  6  0  0  0
  5  2  1  0  0  0  0
  5 11  1  0  0  0  0
  6  9  1  0  0  0  0
  7  4  1  0  0  0  0
  8 28  1  1  0  0  0
  8 10  1  0  0  0  0
  8  1  1  0  0  0  0
  9  4  1  0  0  0  0
 11  1  1  6  0  0  0
 11  3  1  0  0  0  0
 12 15  2  0  0  0  0
 14 13  1  0  0  0  0
 15 13  1  0  0  0  0
 16  6  1  0  0  0  0
 17 16  1  0  0  0  0
 18 23  1  0  0  0  0
 18 19  1  0  0  0  0
 19 17  1  0  0  0  0
 20 19  2  0  0  0  0
 21 25  1  6  0  0  0
 22 27  1  6  0  0  0
 22 23  1  0  0  0  0
 22 25  1  0  0  0  0
 22 21  1  0  0  0  0
 23 24  1  6  0  0  0
 23 21  1  0  0  0  0
 26 27  1  0  0  0  0
 28 29  1  0  0  0  0
 30 31  1  6  0  0  0
 30 29  1  0  0  0  0
 34 33  1  6  0  0  0
 34 35  1  0  0  0  0
 34 36  1  0  0  0  0
 35 37  1  0  0  0  0
 36 38  1  0  0  0  0
 37 30  1  0  0  0  0
 37 32  1  0  0  0  0
 38 32  1  0  0  0  0
M  END
>  <MODEL>
7

>  <REMARK>
 VINA RESULT:      -7.0      2.870      8.549
  Name = 
  10 active torsions:
  status: ('A' for Active; 'I' for Inactive)
    1  A    between atoms: C_5  and  C_38
    2  A    between atoms: S_9  and  C_20
    3  A    between atoms: S_9  and  C_29
    4  A    between atoms: C_10  and  C_16
    5  A    between atoms: C_13  and  N_15
    6  A    between atoms: C_21  and  C_31
    7  A    between atoms: C_21  and  C_32
    8  A    between atoms: C_25  and  C_32
    9  A    between atoms: C_26  and  C_29
   10  A    between atoms: N_27  and  C_31
                            x       y       z     vdW  Elec       q    Type
                         _______ _______ _______ _____ _____    ______ ____

>  <TORSDO>
F 10

$$$$
=
 OpenBabel11042416273D

 38 42  0  0  1  0  0  0  0  0999 V2000
  186.5180  177.5440  140.1330 S   0  0  0  0  0  0  0  0  0  0  0  0
  186.9260  178.4660  143.9330 C   0  0  2  0  0  3  0  0  0  0  0  0
  187.8190  175.9380  141.8020 N   0  0  0  0  0  0  0  0  0  0  0  0
  189.2980  177.6770  143.8020 C   0  0  0  0  0  2  0  0  0  0  0  0
  186.3240  177.5960  142.8190 C   0  0  1  0  0  3  0  0  0  0  0  0
  188.7770  175.4740  142.5540 C   0  0  0  0  0  0  0  0  0  0  0  0
  188.0600  177.7670  144.6760 C   0  0  0  0  0  2  0  0  0  0  0  0
  184.9680  177.6070  141.0510 C   0  0  1  0  0  3  0  0  0  0  0  0
  189.5480  176.2880  143.4530 N   0  0  0  0  0  2  0  0  0  0  0  0
  185.2160  178.2540  142.2630 O   0  0  0  0  0  0  0  0  0  0  0  0
  187.3510  177.3180  141.7190 C   0  0  2  0  0  3  0  0  0  0  0  0
  185.2820  179.9830  144.7900 O   0  0  0  0  0  0  0  0  0  0  0  0
  185.5670  178.0140  146.0130 N   0  0  0  0  0  2  0  0  0  0  0  0
  184.5580  178.3570  147.0000 C   0  0  0  0  0  1  0  0  0  0  0  0
  185.8790  178.8790  144.9200 C   0  0  0  0  0  0  0  0  0  0  0  0
  189.1890  173.7390  142.4210 S   0  0  0  0  0  0  0  0  0  0  0  0
  190.9050  173.9780  142.9910 C   0  0  0  0  0  2  0  0  0  0  0  0
  192.0090  173.8850  145.2910 N   0  0  0  0  0  2  0  0  0  0  0  0
  191.1030  173.3390  144.3280 C   0  0  0  0  0  0  0  0  0  0  0  0
  190.4350  172.3160  144.6290 O   0  0  0  0  0  0  0  0  0  0  0  0
  194.2630  174.8390  145.6890 C   0  0  1  0  0  3  0  0  0  0  0  0
  194.1370  174.7050  144.1660 C   0  0  2  0  0  0  0  0  0  0  0  0
  192.9240  174.9890  145.0250 C   0  0  1  0  0  0  0  0  0  0  0  0
  192.4090  176.2860  145.0730 O   0  0  0  0  0  1  0  0  0  0  0  0
  195.1430  173.8680  144.9320 C   0  0  0  0  0  2  0  0  0  0  0  0
  194.5860  175.9520  141.7620 S   0  0  0  0  0  1  0  0  0  0  0  0
  194.7680  175.9530  143.5700 C   0  0  0  0  0  2  0  0  0  0  0  0
  183.9280  178.3690  140.2480 C   0  0  0  0  0  2  0  0  0  0  0  0
  182.5270  177.8720  140.5660 C   0  0  0  0  0  2  0  0  0  0  0  0
  181.6420  179.0250  141.0320 C   0  0  2  0  0  3  0  0  0  0  0  0
  181.7000  179.0490  142.5560 C   0  0  0  0  0  1  0  0  0  0  0  0
  179.6600  180.1710  140.3460 C   0  0  0  0  0  2  0  0  0  0  0  0
  177.7620  176.5990  141.1030 O   0  0  0  0  0  1  0  0  0  0  0  0
  178.0180  177.9650  141.1890 C   0  0  1  0  0  3  0  0  0  0  0  0
  179.4780  178.1920  141.6170 C   0  0  0  0  0  2  0  0  0  0  0  0
  177.6920  178.6300  139.8490 C   0  0  0  0  0  2  0  0  0  0  0  0
  180.2620  178.8470  140.5590 N   0  0  0  0  0  0  0  0  0  0  0  0
  178.2290  180.0630  139.8020 C   0  0  0  0  0  2  0  0  0  0  0  0
  1  8  1  0  0  0  0
  2  7  1  0  0  0  0
  2 15  1  1  0  0  0
  3  6  2  0  0  0  0
  4  7  1  0  0  0  0
  5 10  1  6  0  0  0
  5  2  1  0  0  0  0
  6  9  1  0  0  0  0
  8 28  1  6  0  0  0
  8 10  1  0  0  0  0
  9  4  1  0  0  0  0
 11  1  1  6  0  0  0
 11  3  1  0  0  0  0
 11  5  1  0  0  0  0
 12 15  2  0  0  0  0
 13 14  1  0  0  0  0
 15 13  1  0  0  0  0
 16  6  1  0  0  0  0
 16 17  1  0  0  0  0
 17 19  1  0  0  0  0
 19 20  2  0  0  0  0
 19 18  1  0  0  0  0
 21 25  1  1  0  0  0
 22 27  1  6  0  0  0
 22 25  1  0  0  0  0
 22 23  1  0  0  0  0
 22 21  1  0  0  0  0
 23 24  1  6  0  0  0
 23 18  1  0  0  0  0
 23 21  1  0  0  0  0
 26 27  1  0  0  0  0
 28 29  1  0  0  0  0
 29 30  1  0  0  0  0
 30 31  1  1  0  0  0
 32 37  1  0  0  0  0
 34 33  1  6  0  0  0
 34 35  1  0  0  0  0
 36 34  1  0  0  0  0
 37 30  1  0  0  0  0
 37 35  1  0  0  0  0
 38 36  1  0  0  0  0
 38 32  1  0  0  0  0
M  END
>  <MODEL>
8

>  <REMARK>
 VINA RESULT:      -7.0      4.257      6.249
  Name = 
  10 active torsions:
  status: ('A' for Active; 'I' for Inactive)
    1  A    between atoms: C_5  and  C_38
    2  A    between atoms: S_9  and  C_20
    3  A    between atoms: S_9  and  C_29
    4  A    between atoms: C_10  and  C_16
    5  A    between atoms: C_13  and  N_15
    6  A    between atoms: C_21  and  C_31
    7  A    between atoms: C_21  and  C_32
    8  A    between atoms: C_25  and  C_32
    9  A    between atoms: C_26  and  C_29
   10  A    between atoms: N_27  and  C_31
                            x       y       z     vdW  Elec       q    Type
                         _______ _______ _______ _____ _____    ______ ____

>  <TORSDO>
F 10

$$$$
=
 OpenBabel11042416273D

 38 42  0  0  1  0  0  0  0  0999 V2000
  190.5770  175.5010  144.7620 S   0  0  0  0  0  0  0  0  0  0  0  0
  189.9800  173.2400  141.6010 C   0  0  2  0  0  3  0  0  0  0  0  0
  192.0490  173.3320  144.3280 N   0  0  0  0  0  0  0  0  0  0  0  0
  190.2600  171.2300  143.0670 C   0  0  0  0  0  2  0  0  0  0  0  0
  190.8360  174.2380  142.3980 C   0  0  1  0  0  3  0  0  0  0  0  0
  192.3850  172.0740  144.2730 C   0  0  0  0  0  0  0  0  0  0  0  0
  190.5090  171.8120  141.6870 C   0  0  0  0  0  2  0  0  0  0  0  0
  190.9190  176.3170  143.1920 C   0  0  1  0  0  3  0  0  0  0  0  0
  191.5280  171.0450  143.7530 N   0  0  0  0  0  2  0  0  0  0  0  0
  190.3610  175.5390  142.1760 O   0  0  0  0  0  0  0  0  0  0  0  0
  190.7900  173.9300  143.8960 C   0  0  2  0  0  3  0  0  0  0  0  0
  188.8300  174.1610  139.7130 O   0  0  0  0  0  0  0  0  0  0  0  0
  191.0050  173.4190  139.3010 N   0  0  0  0  0  2  0  0  0  0  0  0
  190.9770  173.7900  137.8960 C   0  0  0  0  0  1  0  0  0  0  0  0
  189.8870  173.6400  140.1610 C   0  0  0  0  0  0  0  0  0  0  0  0
  193.9800  171.5970  144.9260 S   0  0  0  0  0  0  0  0  0  0  0  0
  194.8650  172.9530  144.0860 C   0  0  0  0  0  2  0  0  0  0  0  0
  196.2290  174.9220  144.9670 N   0  0  0  0  0  2  0  0  0  0  0  0
  195.9110  173.5270  144.9860 C   0  0  0  0  0  0  0  0  0  0  0  0
  196.5050  172.7760  145.8020 O   0  0  0  0  0  0  0  0  0  0  0  0
  196.7440  176.7930  143.4230 C   0  0  1  0  0  3  0  0  0  0  0  0
  196.1180  175.6990  142.5490 C   0  0  2  0  0  0  0  0  0  0  0  0
  195.7030  175.8720  143.9940 C   0  0  1  0  0  0  0  0  0  0  0  0
  194.4890  176.4980  144.2860 O   0  0  0  0  0  1  0  0  0  0  0  0
  197.5690  176.0960  142.3650 C   0  0  0  0  0  2  0  0  0  0  0  0
  194.1790  175.1990  140.6700 S   0  0  0  0  0  1  0  0  0  0  0  0
  195.2030  176.4060  141.5630 C   0  0  0  0  0  2  0  0  0  0  0  0
  190.3050  177.7060  143.1930 C   0  0  0  0  0  2  0  0  0  0  0  0
  189.0830  177.7570  144.0950 C   0  0  0  0  0  2  0  0  0  0  0  0
  187.8160  177.4470  143.3020 C   0  0  2  0  0  3  0  0  0  0  0  0
  187.8690  178.2810  142.0260 C   0  0  0  0  0  1  0  0  0  0  0  0
  186.0840  179.0570  143.6420 C   0  0  0  0  0  2  0  0  0  0  0  0
  185.5770  177.2160  147.2870 O   0  0  0  0  0  1  0  0  0  0  0  0
  185.7930  178.2580  146.3900 C   0  0  1  0  0  3  0  0  0  0  0  0
  187.0040  177.9310  145.4990 C   0  0  0  0  0  2  0  0  0  0  0  0
  184.5200  178.5040  145.5760 C   0  0  0  0  0  2  0  0  0  0  0  0
  186.6170  177.7620  144.0900 N   0  0  0  0  0  0  0  0  0  0  0  0
  184.7960  179.4300  144.3900 C   0  0  0  0  0  2  0  0  0  0  0  0
  2 15  1  6  0  0  0
  2  7  1  0  0  0  0
  2  5  1  0  0  0  0
  4  9  1  0  0  0  0
  5 10  1  1  0  0  0
  5 11  1  0  0  0  0
  6  3  2  0  0  0  0
  6 16  1  0  0  0  0
  7  4  1  0  0  0  0
  8 28  1  1  0  0  0
  8  1  1  0  0  0  0
  9  6  1  0  0  0  0
 10  8  1  0  0  0  0
 11  3  1  1  0  0  0
 11  1  1  0  0  0  0
 12 15  2  0  0  0  0
 13 15  1  0  0  0  0
 14 13  1  0  0  0  0
 17 16  1  0  0  0  0
 17 19  1  0  0  0  0
 18 19  1  0  0  0  0
 19 20  2  0  0  0  0
 21 25  1  1  0  0  0
 21 23  1  0  0  0  0
 22 27  1  6  0  0  0
 22 21  1  0  0  0  0
 22 23  1  0  0  0  0
 23 24  1  1  0  0  0
 23 18  1  0  0  0  0
 25 22  1  0  0  0  0
 26 27  1  0  0  0  0
 28 29  1  0  0  0  0
 30 31  1  6  0  0  0
 30 37  1  0  0  0  0
 30 29  1  0  0  0  0
 32 37  1  0  0  0  0
 32 38  1  0  0  0  0
 34 33  1  1  0  0  0
 35 34  1  0  0  0  0
 36 34  1  0  0  0  0
 37 35  1  0  0  0  0
 38 36  1  0  0  0  0
M  END
>  <MODEL>
9

>  <REMARK>
 VINA RESULT:      -6.9      2.339      3.453
  Name = 
  10 active torsions:
  status: ('A' for Active; 'I' for Inactive)
    1  A    between atoms: C_5  and  C_38
    2  A    between atoms: S_9  and  C_20
    3  A    between atoms: S_9  and  C_29
    4  A    between atoms: C_10  and  C_16
    5  A    between atoms: C_13  and  N_15
    6  A    between atoms: C_21  and  C_31
    7  A    between atoms: C_21  and  C_32
    8  A    between atoms: C_25  and  C_32
    9  A    between atoms: C_26  and  C_29
   10  A    between atoms: N_27  and  C_31
                            x       y       z     vdW  Elec       q    Type
                         _______ _______ _______ _____ _____    ______ ____

>  <TORSDO>
F 10

$$$$
