=
 OpenBabel11042416153D

 33 37  0  0  1  0  0  0  0  0999 V2000
  187.4170  176.3240  143.9290 C   0  0  0  0  0  0  0  0  0  0  0  0
  185.8830  177.9920  147.9420 C   0  0  0  0  0  3  0  0  0  0  0  0
  190.1580  174.8330  143.6930 C   0  0  0  0  0  0  0  0  0  0  0  0
  190.1450  175.2240  145.0720 C   0  0  0  0  0  0  0  0  0  0  0  0
  191.2840  174.1230  143.2050 C   0  0  0  0  0  0  0  0  0  0  0  0
  187.9860  175.7330  142.8230 C   0  0  0  0  0  3  0  0  0  0  0  0
  189.1510  175.9150  145.7530 C   0  0  0  0  0  3  0  0  0  0  0  0
  191.2380  174.8980  145.8810 C   0  0  0  0  0  3  0  0  0  0  0  0
  192.3570  173.8210  144.0490 C   0  0  0  0  0  3  0  0  0  0  0  0
  187.0110  177.3550  147.3960 C   0  0  0  0  0  3  0  0  0  0  0  0
  187.0030  177.0640  146.0310 C   0  0  0  0  0  0  0  0  0  0  0  0
  185.9300  177.3960  145.2280 C   0  0  0  0  0  0  0  0  0  0  0  0
  189.1800  175.0980  142.7790 N   0  0  0  0  0  0  0  0  0  0  0  0
  192.3350  174.2040  145.3840 C   0  0  0  0  0  0  0  0  0  0  0  0
  184.7800  178.3120  147.1280 C   0  0  0  0  0  3  0  0  0  0  0  0
  186.1880  176.9690  143.9340 C   0  0  0  0  0  0  0  0  0  0  0  0
  184.7920  178.0080  145.7560 C   0  0  0  0  0  3  0  0  0  0  0  0
  187.9530  176.4030  145.2740 C   0  0  0  0  0  0  0  0  0  0  0  0
  184.2770  177.9110  140.8860 N   0  0  0  0  0  1  0  0  0  0  0  0
  185.2930  177.0270  142.8100 N   0  0  0  0  0  0  0  0  0  0  0  0
  186.1850  179.0480  141.9340 N   0  0  0  0  0  1  0  0  0  0  0  0
  185.2370  177.9830  141.9340 C   0  0  0  0  0  0  0  0  0  0  0  0
  190.6550  172.5010  141.3990 C   0  0  0  0  0  0  0  0  0  0  0  0
  191.3460  173.6880  141.8360 N   0  0  0  0  0  0  0  0  0  0  0  0
  189.9650  171.8370  142.2220 O   0  0  0  0  0  0  0  0  0  0  0  0
  192.0440  174.5320  140.8730 C   0  0  0  0  0  1  0  0  0  0  0  0
  189.4410  172.0770  139.3990 C   0  0  0  0  0  0  0  0  0  0  0  0
  190.1320  170.8220  139.8300 O   0  0  0  0  0  0  0  0  0  0  0  0
  190.7030  172.0610  139.9610 C   0  0  2  0  0  3  0  0  0  0  0  0
  188.3990  172.7100  138.8810 C   0  0  0  0  0  2  0  0  0  0  0  0
  193.4910  173.8950  146.2700 C   0  0  0  0  0  2  0  0  0  0  0  0
  194.7120  174.6790  145.8300 C   0  0  0  0  0  2  0  0  0  0  0  0
  194.5650  176.1230  146.2580 C   0  0  0  0  0  1  0  0  0  0  0  0
  1 16  2  0  0  0  0
  1 18  1  0  0  0  0
  3  4  1  0  0  0  0
  4  7  1  0  0  0  0
  4  8  2  0  0  0  0
  5  3  2  0  0  0  0
  5  9  1  0  0  0  0
  6  1  1  0  0  0  0
  9 14  2  0  0  0  0
 10  2  1  0  0  0  0
 11 10  2  0  0  0  0
 12 17  2  0  0  0  0
 12 11  1  0  0  0  0
 13  6  2  0  0  0  0
 13  3  1  0  0  0  0
 14  8  1  0  0  0  0
 14 31  1  0  0  0  0
 15  2  2  0  0  0  0
 16 12  1  0  0  0  0
 17 15  1  0  0  0  0
 18  7  2  0  0  0  0
 18 11  1  0  0  0  0
 19 22  1  0  0  0  0
 20 16  1  0  0  0  0
 22 21  1  0  0  0  0
 22 20  2  0  0  0  0
 23 24  1  0  0  0  0
 23 25  2  0  0  0  0
 24  5  1  0  0  0  0
 26 24  1  0  0  0  0
 27 28  1  0  0  0  0
 27 29  1  0  0  0  0
 28 29  1  0  0  0  0
 29 23  1  1  0  0  0
 30 27  2  0  0  0  0
 32 33  1  0  0  0  0
 32 31  1  0  0  0  0
M  END
>  <MODEL>
1

>  <REMARK>
 VINA RESULT:      -7.7      0.000      0.000
  Name = 
  5 active torsions:
  status: ('A' for Active; 'I' for Inactive)
    1  A    between atoms: C_4  and  C_30
    2  A    between atoms: C_8  and  C_14
    3  A    between atoms: N_10  and  C_27
    4  A    between atoms: C_11  and  N_16
    5  A    between atoms: C_14  and  C_23
                            x       y       z     vdW  Elec       q    Type
                         _______ _______ _______ _____ _____    ______ ____

>  <TORSDO>
F 5

$$$$
=
 OpenBabel11042416153D

 33 37  0  0  1  0  0  0  0  0999 V2000
  187.3690  176.3040  144.0040 C   0  0  0  0  0  0  0  0  0  0  0  0
  186.5830  178.5770  147.9360 C   0  0  0  0  0  3  0  0  0  0  0  0
  189.8950  174.5000  143.6100 C   0  0  0  0  0  0  0  0  0  0  0  0
  190.1140  175.0430  144.9180 C   0  0  0  0  0  0  0  0  0  0  0  0
  190.8680  173.6180  143.0760 C   0  0  0  0  0  0  0  0  0  0  0  0
  187.7180  175.5320  142.9190 C   0  0  0  0  0  3  0  0  0  0  0  0
  189.2960  175.9130  145.6280 C   0  0  0  0  0  3  0  0  0  0  0  0
  191.2740  174.6920  145.6150 C   0  0  0  0  0  3  0  0  0  0  0  0
  192.0160  173.2960  143.8070 C   0  0  0  0  0  3  0  0  0  0  0  0
  187.5560  177.7600  147.3360 C   0  0  0  0  0  3  0  0  0  0  0  0
  187.3280  177.3190  146.0310 C   0  0  0  0  0  0  0  0  0  0  0  0
  186.1890  177.6760  145.3370 C   0  0  0  0  0  0  0  0  0  0  0  0
  188.8280  174.7670  142.8040 N   0  0  0  0  0  0  0  0  0  0  0  0
  192.2190  173.8270  145.0730 C   0  0  0  0  0  0  0  0  0  0  0  0
  185.4110  178.9240  147.2370 C   0  0  0  0  0  3  0  0  0  0  0  0
  186.2200  177.0790  144.0850 C   0  0  0  0  0  0  0  0  0  0  0  0
  185.2000  178.4670  145.9250 C   0  0  0  0  0  3  0  0  0  0  0  0
  188.0950  176.4750  145.2490 C   0  0  0  0  0  0  0  0  0  0  0  0
  183.9770  177.8960  141.2350 N   0  0  0  0  0  1  0  0  0  0  0  0
  185.1850  177.1080  143.0880 N   0  0  0  0  0  0  0  0  0  0  0  0
  186.0850  178.9640  141.9060 N   0  0  0  0  0  1  0  0  0  0  0  0
  185.0750  177.9840  142.1350 C   0  0  0  0  0  0  0  0  0  0  0  0
  191.3510  173.5750  140.6160 C   0  0  0  0  0  0  0  0  0  0  0  0
  190.6950  173.0270  141.7770 N   0  0  0  0  0  0  0  0  0  0  0  0
  192.1090  174.5790  140.7380 O   0  0  0  0  0  0  0  0  0  0  0  0
  189.9180  171.7970  141.6730 C   0  0  0  0  0  1  0  0  0  0  0  0
  191.7960  173.7060  138.2840 C   0  0  0  0  0  0  0  0  0  0  0  0
  190.3150  173.6770  138.5010 O   0  0  0  0  0  0  0  0  0  0  0  0
  191.1870  172.9420  139.2610 C   0  0  2  0  0  3  0  0  0  0  0  0
  192.8660  174.1470  137.6410 C   0  0  0  0  0  2  0  0  0  0  0  0
  193.4530  173.4940  145.8360 C   0  0  0  0  0  2  0  0  0  0  0  0
  194.6300  174.2860  145.2990 C   0  0  0  0  0  2  0  0  0  0  0  0
  194.8630  175.4980  146.1760 C   0  0  0  0  0  1  0  0  0  0  0  0
  1 16  2  0  0  0  0
  1 18  1  0  0  0  0
  3  4  1  0  0  0  0
  4  8  2  0  0  0  0
  4  7  1  0  0  0  0
  5  3  2  0  0  0  0
  5  9  1  0  0  0  0
  6  1  1  0  0  0  0
  9 14  2  0  0  0  0
 10  2  1  0  0  0  0
 11 10  2  0  0  0  0
 12 17  2  0  0  0  0
 12 11  1  0  0  0  0
 13  6  2  0  0  0  0
 13  3  1  0  0  0  0
 14  8  1  0  0  0  0
 14 31  1  0  0  0  0
 15  2  2  0  0  0  0
 16 12  1  0  0  0  0
 17 15  1  0  0  0  0
 18  7  2  0  0  0  0
 18 11  1  0  0  0  0
 19 22  1  0  0  0  0
 20 16  1  0  0  0  0
 21 22  1  0  0  0  0
 22 20  2  0  0  0  0
 23 25  2  0  0  0  0
 23 24  1  0  0  0  0
 24  5  1  0  0  0  0
 26 24  1  0  0  0  0
 27 28  1  0  0  0  0
 27 29  1  0  0  0  0
 28 29  1  0  0  0  0
 29 23  1  1  0  0  0
 30 27  2  0  0  0  0
 32 31  1  0  0  0  0
 32 33  1  0  0  0  0
M  END
>  <MODEL>
2

>  <REMARK>
 VINA RESULT:      -7.5      1.275      1.566
  Name = 
  5 active torsions:
  status: ('A' for Active; 'I' for Inactive)
    1  A    between atoms: C_4  and  C_30
    2  A    between atoms: C_8  and  C_14
    3  A    between atoms: N_10  and  C_27
    4  A    between atoms: C_11  and  N_16
    5  A    between atoms: C_14  and  C_23
                            x       y       z     vdW  Elec       q    Type
                         _______ _______ _______ _____ _____    ______ ____

>  <TORSDO>
F 5

$$$$
=
 OpenBabel11042416153D

 33 37  0  0  1  0  0  0  0  0999 V2000
  189.6710  172.5640  140.5170 C   0  0  0  0  0  0  0  0  0  0  0  0
  191.7130  168.4940  141.2300 C   0  0  0  0  0  3  0  0  0  0  0  0
  189.1400  174.5820  142.8470 C   0  0  0  0  0  0  0  0  0  0  0  0
  189.7050  173.4620  143.5410 C   0  0  0  0  0  0  0  0  0  0  0  0
  188.7540  175.7180  143.6040 C   0  0  0  0  0  0  0  0  0  0  0  0
  189.1210  173.8250  140.4580 C   0  0  0  0  0  3  0  0  0  0  0  0
  190.1510  172.2620  143.0020 C   0  0  0  0  0  3  0  0  0  0  0  0
  189.8510  173.5260  144.9310 C   0  0  0  0  0  3  0  0  0  0  0  0
  188.9150  175.7370  144.9930 C   0  0  0  0  0  3  0  0  0  0  0  0
  191.2460  169.6090  141.9460 C   0  0  0  0  0  3  0  0  0  0  0  0
  190.6340  170.6400  141.2300 C   0  0  0  0  0  0  0  0  0  0  0  0
  190.4790  170.5720  139.8600 C   0  0  0  0  0  0  0  0  0  0  0  0
  188.9150  174.6570  141.5040 N   0  0  0  0  0  0  0  0  0  0  0  0
  189.4640  174.6480  145.6560 C   0  0  0  0  0  0  0  0  0  0  0  0
  191.5730  168.4340  139.8300 C   0  0  0  0  0  3  0  0  0  0  0  0
  189.8660  171.7360  139.4190 C   0  0  0  0  0  0  0  0  0  0  0  0
  190.9570  169.4830  139.1280 C   0  0  0  0  0  3  0  0  0  0  0  0
  190.1470  171.8500  141.6870 C   0  0  0  0  0  0  0  0  0  0  0  0
  190.0360  173.0570  135.9480 N   0  0  0  0  0  1  0  0  0  0  0  0
  189.6100  172.1160  138.0570 N   0  0  0  0  0  0  0  0  0  0  0  0
  191.7940  172.9640  137.6590 N   0  0  0  0  0  1  0  0  0  0  0  0
  190.4450  172.7230  137.2680 C   0  0  0  0  0  0  0  0  0  0  0  0
  186.7730  177.0450  142.8300 C   0  0  0  0  0  0  0  0  0  0  0  0
  188.1980  176.8780  142.9620 N   0  0  0  0  0  0  0  0  0  0  0  0
  185.9920  176.1710  143.3020 O   0  0  0  0  0  0  0  0  0  0  0  0
  189.1070  177.9350  142.5340 C   0  0  0  0  0  1  0  0  0  0  0  0
  185.4990  179.0350  143.0970 C   0  0  0  0  0  0  0  0  0  0  0  0
  184.8300  178.1540  142.0890 O   0  0  0  0  0  0  0  0  0  0  0  0
  186.1920  178.2700  142.1780 C   0  0  2  0  0  3  0  0  0  0  0  0
  185.4500  179.8890  144.1070 C   0  0  0  0  0  2  0  0  0  0  0  0
  189.6130  174.6710  147.1370 C   0  0  0  0  0  2  0  0  0  0  0  0
  190.6000  175.7470  147.5470 C   0  0  0  0  0  2  0  0  0  0  0  0
  192.0040  175.3030  147.1980 C   0  0  0  0  0  1  0  0  0  0  0  0
  1 18  1  0  0  0  0
  2 10  1  0  0  0  0
  3  4  2  0  0  0  0
  3  5  1  0  0  0  0
  4  8  1  0  0  0  0
  5  9  2  0  0  0  0
  6  1  1  0  0  0  0
  6 13  2  0  0  0  0
  7  4  1  0  0  0  0
  8 14  2  0  0  0  0
  9 14  1  0  0  0  0
 11 18  1  0  0  0  0
 11 10  2  0  0  0  0
 12 11  1  0  0  0  0
 13  3  1  0  0  0  0
 14 31  1  0  0  0  0
 15  2  2  0  0  0  0
 16 12  1  0  0  0  0
 16  1  2  0  0  0  0
 17 15  1  0  0  0  0
 17 12  2  0  0  0  0
 18  7  2  0  0  0  0
 19 22  1  0  0  0  0
 20 16  1  0  0  0  0
 22 21  1  0  0  0  0
 22 20  2  0  0  0  0
 23 24  1  0  0  0  0
 23 25  2  0  0  0  0
 24  5  1  0  0  0  0
 26 24  1  0  0  0  0
 27 30  2  0  0  0  0
 28 29  1  0  0  0  0
 28 27  1  0  0  0  0
 29 23  1  1  0  0  0
 29 27  1  0  0  0  0
 31 32  1  0  0  0  0
 33 32  1  0  0  0  0
M  END
>  <MODEL>
3

>  <REMARK>
 VINA RESULT:      -7.5      2.954      7.390
  Name = 
  5 active torsions:
  status: ('A' for Active; 'I' for Inactive)
    1  A    between atoms: C_4  and  C_30
    2  A    between atoms: C_8  and  C_14
    3  A    between atoms: N_10  and  C_27
    4  A    between atoms: C_11  and  N_16
    5  A    between atoms: C_14  and  C_23
                            x       y       z     vdW  Elec       q    Type
                         _______ _______ _______ _____ _____    ______ ____

>  <TORSDO>
F 5

$$$$
=
 OpenBabel11042416153D

 33 37  0  0  1  0  0  0  0  0999 V2000
  187.6540  177.1120  144.4230 C   0  0  0  0  0  0  0  0  0  0  0  0
  183.6930  178.2970  142.3860 C   0  0  0  0  0  3  0  0  0  0  0  0
  189.7390  175.2420  143.0280 C   0  0  0  0  0  0  0  0  0  0  0  0
  188.6690  175.2630  142.0750 C   0  0  0  0  0  0  0  0  0  0  0  0
  190.8890  174.4660  142.7330 C   0  0  0  0  0  0  0  0  0  0  0  0
  188.8910  176.7090  144.8750 C   0  0  0  0  0  3  0  0  0  0  0  0
  187.4670  175.9530  142.1590 C   0  0  0  0  0  3  0  0  0  0  0  0
  188.7920  174.5190  140.8980 C   0  0  0  0  0  3  0  0  0  0  0  0
  190.9680  173.7330  141.5440 C   0  0  0  0  0  3  0  0  0  0  0  0
  184.8170  177.4820  142.1710 C   0  0  0  0  0  3  0  0  0  0  0  0
  185.7960  177.4380  143.1660 C   0  0  0  0  0  0  0  0  0  0  0  0
  185.6700  178.1630  144.3340 C   0  0  0  0  0  0  0  0  0  0  0  0
  189.7550  175.8960  144.2260 N   0  0  0  0  0  0  0  0  0  0  0  0
  189.9260  173.7600  140.6270 C   0  0  0  0  0  0  0  0  0  0  0  0
  183.5740  179.0530  143.5680 C   0  0  0  0  0  3  0  0  0  0  0  0
  186.7930  177.9480  145.1200 C   0  0  0  0  0  0  0  0  0  0  0  0
  184.5720  178.9970  144.5550 C   0  0  0  0  0  3  0  0  0  0  0  0
  187.0040  176.7660  143.1730 C   0  0  0  0  0  0  0  0  0  0  0  0
  187.0690  178.9680  148.6850 N   0  0  0  0  0  1  0  0  0  0  0  0
  187.1100  178.5870  146.3680 N   0  0  0  0  0  0  0  0  0  0  0  0
  185.9400  177.0160  147.7140 N   0  0  0  0  0  1  0  0  0  0  0  0
  186.6870  178.2170  147.5390 C   0  0  0  0  0  0  0  0  0  0  0  0
  193.0100  175.4500  143.6370 C   0  0  0  0  0  0  0  0  0  0  0  0
  192.0020  174.4200  143.6420 N   0  0  0  0  0  0  0  0  0  0  0  0
  192.9100  176.4240  142.8380 O   0  0  0  0  0  0  0  0  0  0  0  0
  192.0380  173.3580  144.6400 C   0  0  0  0  0  1  0  0  0  0  0  0
  193.9010  176.1950  145.7120 C   0  0  0  0  0  0  0  0  0  0  0  0
  194.8160  176.6170  144.6050 O   0  0  0  0  0  0  0  0  0  0  0  0
  194.1620  175.4130  144.6040 C   0  0  2  0  0  3  0  0  0  0  0  0
  193.2990  176.4200  146.8690 C   0  0  0  0  0  2  0  0  0  0  0  0
  190.0110  172.9620  139.3740 C   0  0  0  0  0  2  0  0  0  0  0  0
  188.7320  173.1090  138.5720 C   0  0  0  0  0  2  0  0  0  0  0  0
  189.0350  173.8050  137.2620 C   0  0  0  0  0  1  0  0  0  0  0  0
  1  6  1  0  0  0  0
  1 16  2  0  0  0  0
  2 15  1  0  0  0  0
  3 13  1  0  0  0  0
  4  7  1  0  0  0  0
  4  3  2  0  0  0  0
  5  3  1  0  0  0  0
  5 24  1  0  0  0  0
  7 18  2  0  0  0  0
  8  4  1  0  0  0  0
  9  5  2  0  0  0  0
 10  2  2  0  0  0  0
 10 11  1  0  0  0  0
 11 18  1  0  0  0  0
 11 12  2  0  0  0  0
 12 17  1  0  0  0  0
 12 16  1  0  0  0  0
 13  6  2  0  0  0  0
 14  8  2  0  0  0  0
 14  9  1  0  0  0  0
 15 17  2  0  0  0  0
 16 20  1  0  0  0  0
 18  1  1  0  0  0  0
 20 22  2  0  0  0  0
 22 21  1  0  0  0  0
 22 19  1  0  0  0  0
 23 24  1  0  0  0  0
 24 26  1  0  0  0  0
 25 23  2  0  0  0  0
 27 30  2  0  0  0  0
 28 27  1  0  0  0  0
 29 23  1  6  0  0  0
 29 28  1  0  0  0  0
 29 27  1  0  0  0  0
 31 14  1  0  0  0  0
 32 31  1  0  0  0  0
 33 32  1  0  0  0  0
M  END
>  <MODEL>
4

>  <REMARK>
 VINA RESULT:      -7.4      2.591      5.528
  Name = 
  5 active torsions:
  status: ('A' for Active; 'I' for Inactive)
    1  A    between atoms: C_4  and  C_30
    2  A    between atoms: C_8  and  C_14
    3  A    between atoms: N_10  and  C_27
    4  A    between atoms: C_11  and  N_16
    5  A    between atoms: C_14  and  C_23
                            x       y       z     vdW  Elec       q    Type
                         _______ _______ _______ _____ _____    ______ ____

>  <TORSDO>
F 5

$$$$
=
 OpenBabel11042416153D

 33 37  0  0  1  0  0  0  0  0999 V2000
  190.2460  173.6510  141.7360 C   0  0  0  0  0  0  0  0  0  0  0  0
  188.4870  173.4450  137.4810 C   0  0  0  0  0  3  0  0  0  0  0  0
  188.9030  175.3360  144.0040 C   0  0  0  0  0  0  0  0  0  0  0  0
  188.0700  175.6310  142.8760 C   0  0  0  0  0  0  0  0  0  0  0  0
  188.5960  175.9480  145.2460 C   0  0  0  0  0  0  0  0  0  0  0  0
  190.6190  173.7740  143.0560 C   0  0  0  0  0  3  0  0  0  0  0  0
  188.1850  175.1440  141.5810 C   0  0  0  0  0  3  0  0  0  0  0  0
  186.9940  176.5100  143.0370 C   0  0  0  0  0  3  0  0  0  0  0  0
  187.5120  176.8240  145.3610 C   0  0  0  0  0  3  0  0  0  0  0  0
  188.2670  174.0870  138.7120 C   0  0  0  0  0  3  0  0  0  0  0  0
  189.1540  173.8220  139.7570 C   0  0  0  0  0  0  0  0  0  0  0  0
  190.2240  172.9650  139.5960 C   0  0  0  0  0  0  0  0  0  0  0  0
  189.9970  174.5210  143.9970 N   0  0  0  0  0  0  0  0  0  0  0  0
  186.7110  177.1030  144.2620 C   0  0  0  0  0  0  0  0  0  0  0  0
  189.5660  172.5540  137.3230 C   0  0  0  0  0  3  0  0  0  0  0  0
  190.9130  172.8750  140.7970 C   0  0  0  0  0  0  0  0  0  0  0  0
  190.4450  172.3000  138.3890 C   0  0  0  0  0  3  0  0  0  0  0  0
  189.1250  174.2790  141.0620 C   0  0  0  0  0  0  0  0  0  0  0  0
  193.1470  170.0760  141.7960 N   0  0  0  0  0  1  0  0  0  0  0  0
  192.0270  172.0170  141.0930 N   0  0  0  0  0  0  0  0  0  0  0  0
  190.6980  170.1190  141.6250 N   0  0  0  0  0  1  0  0  0  0  0  0
  191.9490  170.7940  141.5230 C   0  0  0  0  0  0  0  0  0  0  0  0
  190.5590  176.4560  146.7220 C   0  0  0  0  0  0  0  0  0  0  0  0
  189.3850  175.6770  146.4180 N   0  0  0  0  0  0  0  0  0  0  0  0
  190.8950  177.4080  145.9630 O   0  0  0  0  0  0  0  0  0  0  0  0
  188.9150  174.6570  147.3480 C   0  0  0  0  0  1  0  0  0  0  0  0
  191.5750  177.3480  148.6780 C   0  0  0  0  0  0  0  0  0  0  0  0
  192.6270  176.7140  147.8230 O   0  0  0  0  0  0  0  0  0  0  0  0
  191.3700  176.1860  147.9600 C   0  0  2  0  0  3  0  0  0  0  0  0
  191.1640  178.3070  149.4930 C   0  0  0  0  0  2  0  0  0  0  0  0
  185.5700  178.0520  144.3900 C   0  0  0  0  0  2  0  0  0  0  0  0
  185.5480  178.6590  145.7800 C   0  0  0  0  0  2  0  0  0  0  0  0
  184.2140  178.3700  146.4340 C   0  0  0  0  0  1  0  0  0  0  0  0
  1  6  1  0  0  0  0
  2 10  1  0  0  0  0
  3  5  1  0  0  0  0
  4  8  1  0  0  0  0
  4  3  2  0  0  0  0
  5  9  2  0  0  0  0
  5 24  1  0  0  0  0
  6 13  2  0  0  0  0
  7  4  1  0  0  0  0
  8 14  2  0  0  0  0
 10 11  2  0  0  0  0
 11 18  1  0  0  0  0
 12 11  1  0  0  0  0
 12 16  1  0  0  0  0
 13  3  1  0  0  0  0
 14 31  1  0  0  0  0
 14  9  1  0  0  0  0
 15  2  2  0  0  0  0
 15 17  1  0  0  0  0
 16 20  1  0  0  0  0
 16  1  2  0  0  0  0
 17 12  2  0  0  0  0
 18  7  2  0  0  0  0
 18  1  1  0  0  0  0
 20 22  2  0  0  0  0
 22 21  1  0  0  0  0
 22 19  1  0  0  0  0
 24 23  1  0  0  0  0
 24 26  1  0  0  0  0
 25 23  2  0  0  0  0
 27 30  2  0  0  0  0
 28 29  1  0  0  0  0
 28 27  1  0  0  0  0
 29 23  1  6  0  0  0
 29 27  1  0  0  0  0
 31 32  1  0  0  0  0
 32 33  1  0  0  0  0
M  END
>  <MODEL>
5

>  <REMARK>
 VINA RESULT:      -7.3      3.270      8.181
  Name = 
  5 active torsions:
  status: ('A' for Active; 'I' for Inactive)
    1  A    between atoms: C_4  and  C_30
    2  A    between atoms: C_8  and  C_14
    3  A    between atoms: N_10  and  C_27
    4  A    between atoms: C_11  and  N_16
    5  A    between atoms: C_14  and  C_23
                            x       y       z     vdW  Elec       q    Type
                         _______ _______ _______ _____ _____    ______ ____

>  <TORSDO>
F 5

$$$$
=
 OpenBabel11042416153D

 33 37  0  0  1  0  0  0  0  0999 V2000
  190.2580  173.9800  141.5710 C   0  0  0  0  0  0  0  0  0  0  0  0
  188.4090  173.8710  137.3510 C   0  0  0  0  0  3  0  0  0  0  0  0
  188.8210  175.3760  143.9740 C   0  0  0  0  0  0  0  0  0  0  0  0
  187.9310  175.6580  142.8860 C   0  0  0  0  0  0  0  0  0  0  0  0
  188.4900  175.8740  145.2600 C   0  0  0  0  0  0  0  0  0  0  0  0
  190.6540  174.0560  142.8880 C   0  0  0  0  0  3  0  0  0  0  0  0
  188.0570  175.2670  141.5590 C   0  0  0  0  0  3  0  0  0  0  0  0
  186.7790  176.4140  143.1280 C   0  0  0  0  0  3  0  0  0  0  0  0
  187.3290  176.6290  145.4550 C   0  0  0  0  0  3  0  0  0  0  0  0
  188.1620  174.4090  138.6260 C   0  0  0  0  0  3  0  0  0  0  0  0
  189.0990  174.1680  139.6320 C   0  0  0  0  0  0  0  0  0  0  0  0
  190.2430  173.4320  139.3920 C   0  0  0  0  0  0  0  0  0  0  0  0
  189.9880  174.6750  143.8890 N   0  0  0  0  0  0  0  0  0  0  0  0
  186.4740  176.8960  144.3950 C   0  0  0  0  0  0  0  0  0  0  0  0
  189.5640  173.1040  137.1110 C   0  0  0  0  0  3  0  0  0  0  0  0
  190.9700  173.3350  140.5690 C   0  0  0  0  0  0  0  0  0  0  0  0
  190.4940  172.8710  138.1380 C   0  0  0  0  0  3  0  0  0  0  0  0
  189.0630  174.5350  140.9640 C   0  0  0  0  0  0  0  0  0  0  0  0
  194.4750  172.1240  140.8420 N   0  0  0  0  0  1  0  0  0  0  0  0
  192.1710  172.5750  140.7830 N   0  0  0  0  0  0  0  0  0  0  0  0
  193.6490  174.3740  140.3050 N   0  0  0  0  0  1  0  0  0  0  0  0
  193.3830  173.0070  140.6120 C   0  0  0  0  0  0  0  0  0  0  0  0
  190.4670  176.4490  146.6920 C   0  0  0  0  0  0  0  0  0  0  0  0
  189.3340  175.6080  146.3940 N   0  0  0  0  0  0  0  0  0  0  0  0
  190.7170  177.4480  145.9610 O   0  0  0  0  0  0  0  0  0  0  0  0
  188.9600  174.5260  147.2970 C   0  0  0  0  0  1  0  0  0  0  0  0
  191.5680  177.3470  148.5990 C   0  0  0  0  0  0  0  0  0  0  0  0
  192.5820  176.7170  147.6960 O   0  0  0  0  0  0  0  0  0  0  0  0
  191.3350  176.1830  147.8910 C   0  0  2  0  0  3  0  0  0  0  0  0
  191.1900  178.3040  149.4320 C   0  0  0  0  0  2  0  0  0  0  0  0
  185.2500  177.7170  144.6100 C   0  0  0  0  0  2  0  0  0  0  0  0
  185.6140  179.0380  145.2610 C   0  0  0  0  0  2  0  0  0  0  0  0
  185.3500  180.1680  144.2900 C   0  0  0  0  0  1  0  0  0  0  0  0
  1  6  1  0  0  0  0
  2 10  1  0  0  0  0
  3  5  1  0  0  0  0
  4  8  1  0  0  0  0
  4  3  2  0  0  0  0
  5  9  2  0  0  0  0
  5 24  1  0  0  0  0
  6 13  2  0  0  0  0
  7  4  1  0  0  0  0
  8 14  2  0  0  0  0
 10 11  2  0  0  0  0
 11 18  1  0  0  0  0
 12 11  1  0  0  0  0
 12 16  1  0  0  0  0
 13  3  1  0  0  0  0
 14 31  1  0  0  0  0
 14  9  1  0  0  0  0
 15  2  2  0  0  0  0
 15 17  1  0  0  0  0
 16 20  1  0  0  0  0
 16  1  2  0  0  0  0
 17 12  2  0  0  0  0
 18  7  2  0  0  0  0
 18  1  1  0  0  0  0
 21 22  1  0  0  0  0
 22 20  2  0  0  0  0
 22 19  1  0  0  0  0
 24 23  1  0  0  0  0
 24 26  1  0  0  0  0
 25 23  2  0  0  0  0
 27 30  2  0  0  0  0
 28 29  1  0  0  0  0
 28 27  1  0  0  0  0
 29 23  1  6  0  0  0
 29 27  1  0  0  0  0
 31 32  1  0  0  0  0
 33 32  1  0  0  0  0
M  END
>  <MODEL>
6

>  <REMARK>
 VINA RESULT:      -7.2      3.293      8.092
  Name = 
  5 active torsions:
  status: ('A' for Active; 'I' for Inactive)
    1  A    between atoms: C_4  and  C_30
    2  A    between atoms: C_8  and  C_14
    3  A    between atoms: N_10  and  C_27
    4  A    between atoms: C_11  and  N_16
    5  A    between atoms: C_14  and  C_23
                            x       y       z     vdW  Elec       q    Type
                         _______ _______ _______ _____ _____    ______ ____

>  <TORSDO>
F 5

$$$$
=
 OpenBabel11042416153D

 33 37  0  0  1  0  0  0  0  0999 V2000
  188.0640  175.9370  143.5300 C   0  0  0  0  0  0  0  0  0  0  0  0
  186.3810  177.0690  147.6690 C   0  0  0  0  0  3  0  0  0  0  0  0
  190.8040  174.4630  143.2020 C   0  0  0  0  0  0  0  0  0  0  0  0
  190.7390  174.6660  144.6200 C   0  0  0  0  0  0  0  0  0  0  0  0
  191.9450  173.8120  142.6680 C   0  0  0  0  0  0  0  0  0  0  0  0
  188.6740  175.4930  142.3770 C   0  0  0  0  0  3  0  0  0  0  0  0
  189.7220  175.2700  145.3480 C   0  0  0  0  0  3  0  0  0  0  0  0
  191.7980  174.2240  145.4200 C   0  0  0  0  0  3  0  0  0  0  0  0
  192.9830  173.3900  143.5040 C   0  0  0  0  0  3  0  0  0  0  0  0
  187.5260  176.4990  147.0860 C   0  0  0  0  0  3  0  0  0  0  0  0
  187.5710  176.3940  145.6950 C   0  0  0  0  0  0  0  0  0  0  0  0
  186.5320  176.8410  144.9030 C   0  0  0  0  0  0  0  0  0  0  0  0
  189.8650  174.8580  142.2960 N   0  0  0  0  0  0  0  0  0  0  0  0
  192.9100  173.5910  144.8760 C   0  0  0  0  0  0  0  0  0  0  0  0
  185.3130  177.5070  146.8630 C   0  0  0  0  0  3  0  0  0  0  0  0
  186.8390  176.5880  143.5740 C   0  0  0  0  0  0  0  0  0  0  0  0
  185.3770  177.3890  145.4640 C   0  0  0  0  0  3  0  0  0  0  0  0
  188.5470  175.8300  144.8940 C   0  0  0  0  0  0  0  0  0  0  0  0
  184.8250  178.0140  140.7930 N   0  0  0  0  0  1  0  0  0  0  0  0
  185.9900  176.8050  142.4350 N   0  0  0  0  0  0  0  0  0  0  0  0
  186.3350  179.1550  142.3580 N   0  0  0  0  0  1  0  0  0  0  0  0
  185.7040  177.9580  141.9100 C   0  0  0  0  0  0  0  0  0  0  0  0
  192.8840  174.3980  140.4180 C   0  0  0  0  0  0  0  0  0  0  0  0
  192.0600  173.5650  141.2560 N   0  0  0  0  0  0  0  0  0  0  0  0
  193.5360  175.3530  140.9280 O   0  0  0  0  0  0  0  0  0  0  0  0
  191.4000  172.3870  140.7040 C   0  0  0  0  0  1  0  0  0  0  0  0
  194.2810  173.6440  138.6470 C   0  0  0  0  0  0  0  0  0  0  0  0
  193.8500  175.0500  138.3680 O   0  0  0  0  0  0  0  0  0  0  0  0
  193.0200  174.1240  138.9450 C   0  0  2  0  0  3  0  0  0  0  0  0
  195.1920  172.6840  138.6280 C   0  0  0  0  0  2  0  0  0  0  0  0
  194.0280  173.1540  145.7570 C   0  0  0  0  0  2  0  0  0  0  0  0
  195.3170  173.8400  145.3450 C   0  0  0  0  0  2  0  0  0  0  0  0
  195.2890  175.2820  145.8050 C   0  0  0  0  0  1  0  0  0  0  0  0
  1 16  2  0  0  0  0
  1 18  1  0  0  0  0
  3  4  1  0  0  0  0
  4  7  1  0  0  0  0
  4  8  2  0  0  0  0
  5  3  2  0  0  0  0
  5  9  1  0  0  0  0
  6  1  1  0  0  0  0
  9 14  2  0  0  0  0
 10  2  1  0  0  0  0
 11 10  2  0  0  0  0
 12 17  2  0  0  0  0
 12 11  1  0  0  0  0
 13  6  2  0  0  0  0
 13  3  1  0  0  0  0
 14  8  1  0  0  0  0
 14 31  1  0  0  0  0
 15  2  2  0  0  0  0
 16 12  1  0  0  0  0
 17 15  1  0  0  0  0
 18  7  2  0  0  0  0
 18 11  1  0  0  0  0
 19 22  1  0  0  0  0
 20 16  1  0  0  0  0
 22 21  1  0  0  0  0
 22 20  2  0  0  0  0
 23 25  2  0  0  0  0
 23 24  1  0  0  0  0
 24  5  1  0  0  0  0
 26 24  1  0  0  0  0
 27 29  1  0  0  0  0
 28 27  1  0  0  0  0
 28 29  1  0  0  0  0
 29 23  1  1  0  0  0
 30 27  2  0  0  0  0
 32 31  1  0  0  0  0
 32 33  1  0  0  0  0
M  END
>  <MODEL>
7

>  <REMARK>
 VINA RESULT:      -7.1      1.858      2.338
  Name = 
  5 active torsions:
  status: ('A' for Active; 'I' for Inactive)
    1  A    between atoms: C_4  and  C_30
    2  A    between atoms: C_8  and  C_14
    3  A    between atoms: N_10  and  C_27
    4  A    between atoms: C_11  and  N_16
    5  A    between atoms: C_14  and  C_23
                            x       y       z     vdW  Elec       q    Type
                         _______ _______ _______ _____ _____    ______ ____

>  <TORSDO>
F 5

$$$$
=
 OpenBabel11042416153D

 33 37  0  0  1  0  0  0  0  0999 V2000
  188.9400  173.3750  138.8200 C   0  0  0  0  0  0  0  0  0  0  0  0
  190.7710  169.2010  138.1390 C   0  0  0  0  0  3  0  0  0  0  0  0
  188.8490  174.7020  141.6520 C   0  0  0  0  0  0  0  0  0  0  0  0
  189.4190  173.4190  141.9390 C   0  0  0  0  0  0  0  0  0  0  0  0
  188.6420  175.6030  142.7280 C   0  0  0  0  0  0  0  0  0  0  0  0
  188.4750  174.6220  139.1750 C   0  0  0  0  0  3  0  0  0  0  0  0
  189.7100  172.3970  141.0450 C   0  0  0  0  0  3  0  0  0  0  0  0
  189.7440  173.0990  143.2610 C   0  0  0  0  0  3  0  0  0  0  0  0
  188.9780  175.2400  144.0360 C   0  0  0  0  0  3  0  0  0  0  0  0
  190.4770  170.0950  139.1820 C   0  0  0  0  0  3  0  0  0  0  0  0
  189.8510  171.3000  138.8570 C   0  0  0  0  0  0  0  0  0  0  0  0
  189.5190  171.6120  137.5530 C   0  0  0  0  0  0  0  0  0  0  0  0
  188.4610  175.1460  140.4220 N   0  0  0  0  0  0  0  0  0  0  0  0
  189.5310  173.9950  144.3030 C   0  0  0  0  0  0  0  0  0  0  0  0
  190.4510  169.5270  136.8070 C   0  0  0  0  0  3  0  0  0  0  0  0
  188.9370  172.8710  137.5260 C   0  0  0  0  0  0  0  0  0  0  0  0
  189.8240  170.7470  136.5010 C   0  0  0  0  0  3  0  0  0  0  0  0
  189.5100  172.3560  139.6810 C   0  0  0  0  0  0  0  0  0  0  0  0
  188.7420  175.1100  134.5660 N   0  0  0  0  0  1  0  0  0  0  0  0
  188.5370  173.6140  136.3630 N   0  0  0  0  0  0  0  0  0  0  0  0
  190.6810  174.5600  135.9690 N   0  0  0  0  0  1  0  0  0  0  0  0
  189.2900  174.4250  135.6850 C   0  0  0  0  0  0  0  0  0  0  0  0
  186.6830  177.1670  142.6780 C   0  0  0  0  0  0  0  0  0  0  0  0
  188.0900  176.9110  142.5000 N   0  0  0  0  0  0  0  0  0  0  0  0
  185.9190  176.2360  143.0590 O   0  0  0  0  0  0  0  0  0  0  0  0
  189.0040  178.0020  142.1810 C   0  0  0  0  0  1  0  0  0  0  0  0
  185.5120  179.0130  143.6130 C   0  0  0  0  0  0  0  0  0  0  0  0
  184.7420  178.4840  142.4430 O   0  0  0  0  0  0  0  0  0  0  0  0
  186.1110  178.5410  142.4600 C   0  0  2  0  0  3  0  0  0  0  0  0
  185.5640  179.5300  144.8300 C   0  0  0  0  0  2  0  0  0  0  0  0
  189.8680  173.6100  145.7010 C   0  0  0  0  0  2  0  0  0  0  0  0
  189.8420  174.8320  146.6010 C   0  0  0  0  0  2  0  0  0  0  0  0
  188.9510  174.5610  147.7930 C   0  0  0  0  0  1  0  0  0  0  0  0
  1  6  1  0  0  0  0
  1 18  1  0  0  0  0
  2 10  1  0  0  0  0
  3  4  2  0  0  0  0
  3  5  1  0  0  0  0
  4  8  1  0  0  0  0
  5  9  2  0  0  0  0
  6 13  2  0  0  0  0
  7  4  1  0  0  0  0
  8 14  2  0  0  0  0
  9 14  1  0  0  0  0
 11 10  2  0  0  0  0
 11 18  1  0  0  0  0
 12 11  1  0  0  0  0
 13  3  1  0  0  0  0
 14 31  1  0  0  0  0
 15  2  2  0  0  0  0
 16 12  1  0  0  0  0
 16  1  2  0  0  0  0
 17 15  1  0  0  0  0
 17 12  2  0  0  0  0
 18  7  2  0  0  0  0
 19 22  1  0  0  0  0
 20 16  1  0  0  0  0
 22 21  1  0  0  0  0
 22 20  2  0  0  0  0
 23 25  2  0  0  0  0
 24 23  1  0  0  0  0
 24  5  1  0  0  0  0
 26 24  1  0  0  0  0
 27 30  2  0  0  0  0
 28 29  1  0  0  0  0
 28 27  1  0  0  0  0
 29 23  1  1  0  0  0
 29 27  1  0  0  0  0
 31 32  1  0  0  0  0
 32 33  1  0  0  0  0
M  END
>  <MODEL>
8

>  <REMARK>
 VINA RESULT:      -6.9      3.315      7.754
  Name = 
  5 active torsions:
  status: ('A' for Active; 'I' for Inactive)
    1  A    between atoms: C_4  and  C_30
    2  A    between atoms: C_8  and  C_14
    3  A    between atoms: N_10  and  C_27
    4  A    between atoms: C_11  and  N_16
    5  A    between atoms: C_14  and  C_23
                            x       y       z     vdW  Elec       q    Type
                         _______ _______ _______ _____ _____    ______ ____

>  <TORSDO>
F 5

$$$$
=
 OpenBabel11042416153D

 33 37  0  0  1  0  0  0  0  0999 V2000
  188.7240  175.3250  144.4700 C   0  0  0  0  0  0  0  0  0  0  0  0
  185.6540  178.7050  145.0990 C   0  0  0  0  0  3  0  0  0  0  0  0
  189.3200  174.1350  141.6390 C   0  0  0  0  0  0  0  0  0  0  0  0
  188.2760  175.0740  141.3560 C   0  0  0  0  0  0  0  0  0  0  0  0
  189.8520  173.3770  140.5650 C   0  0  0  0  0  0  0  0  0  0  0  0
  189.6370  174.3570  144.1150 C   0  0  0  0  0  3  0  0  0  0  0  0
  187.6220  175.9150  142.2480 C   0  0  0  0  0  3  0  0  0  0  0  0
  187.8160  175.2070  140.0420 C   0  0  0  0  0  3  0  0  0  0  0  0
  189.3600  173.5380  139.2660 C   0  0  0  0  0  3  0  0  0  0  0  0
  186.1580  177.8780  144.0810 C   0  0  0  0  0  3  0  0  0  0  0  0
  187.1200  176.9270  144.4240 C   0  0  0  0  0  0  0  0  0  0  0  0
  187.5650  176.7870  145.7230 C   0  0  0  0  0  0  0  0  0  0  0  0
  189.8530  173.8790  142.8680 N   0  0  0  0  0  0  0  0  0  0  0  0
  188.3480  174.4520  139.0020 C   0  0  0  0  0  0  0  0  0  0  0  0
  186.1230  178.5770  146.4210 C   0  0  0  0  0  3  0  0  0  0  0  0
  188.5290  175.7900  145.7640 C   0  0  0  0  0  0  0  0  0  0  0  0
  187.0940  177.6150  146.7440 C   0  0  0  0  0  3  0  0  0  0  0  0
  187.8020  176.0420  143.6090 C   0  0  0  0  0  0  0  0  0  0  0  0
  191.1920  175.2910  148.3100 N   0  0  0  0  0  1  0  0  0  0  0  0
  189.3180  175.3950  146.8980 N   0  0  0  0  0  0  0  0  0  0  0  0
  191.1650  176.7950  146.3690 N   0  0  0  0  0  1  0  0  0  0  0  0
  190.5280  175.7910  147.1550 C   0  0  0  0  0  0  0  0  0  0  0  0
  192.2930  172.8490  140.7880 C   0  0  0  0  0  0  0  0  0  0  0  0
  190.9130  172.4310  140.7830 N   0  0  0  0  0  0  0  0  0  0  0  0
  192.5810  174.0670  140.6190 O   0  0  0  0  0  0  0  0  0  0  0  0
  190.5580  171.0530  141.0990 C   0  0  0  0  0  1  0  0  0  0  0  0
  194.4600  172.4660  141.6890 C   0  0  0  0  0  0  0  0  0  0  0  0
  194.4700  172.1400  140.2280 O   0  0  0  0  0  0  0  0  0  0  0  0
  193.4010  171.8620  141.0390 C   0  0  2  0  0  3  0  0  0  0  0  0
  195.0370  172.9670  142.7710 C   0  0  0  0  0  2  0  0  0  0  0  0
  187.8180  174.6030  137.6190 C   0  0  0  0  0  2  0  0  0  0  0  0
  186.9490  175.8430  137.5250 C   0  0  0  0  0  2  0  0  0  0  0  0
  187.0380  176.4160  136.1280 C   0  0  0  0  0  1  0  0  0  0  0  0
  1 16  2  0  0  0  0
  2 15  1  0  0  0  0
  3 13  1  0  0  0  0
  4  3  2  0  0  0  0
  4  7  1  0  0  0  0
  5 24  1  0  0  0  0
  5  3  1  0  0  0  0
  6  1  1  0  0  0  0
  7 18  2  0  0  0  0
  8  4  1  0  0  0  0
  9  5  2  0  0  0  0
 10 11  1  0  0  0  0
 10  2  2  0  0  0  0
 11 12  2  0  0  0  0
 12 16  1  0  0  0  0
 12 17  1  0  0  0  0
 13  6  2  0  0  0  0
 14  9  1  0  0  0  0
 14  8  2  0  0  0  0
 15 17  2  0  0  0  0
 16 20  1  0  0  0  0
 18 11  1  0  0  0  0
 18  1  1  0  0  0  0
 20 22  2  0  0  0  0
 21 22  1  0  0  0  0
 22 19  1  0  0  0  0
 24 23  1  0  0  0  0
 24 26  1  0  0  0  0
 25 23  2  0  0  0  0
 27 30  2  0  0  0  0
 28 29  1  0  0  0  0
 28 27  1  0  0  0  0
 29 23  1  6  0  0  0
 29 27  1  0  0  0  0
 31 14  1  0  0  0  0
 32 31  1  0  0  0  0
 33 32  1  0  0  0  0
M  END
>  <MODEL>
9

>  <REMARK>
 VINA RESULT:      -6.7      2.788      5.634
  Name = 
  5 active torsions:
  status: ('A' for Active; 'I' for Inactive)
    1  A    between atoms: C_4  and  C_30
    2  A    between atoms: C_8  and  C_14
    3  A    between atoms: N_10  and  C_27
    4  A    between atoms: C_11  and  N_16
    5  A    between atoms: C_14  and  C_23
                            x       y       z     vdW  Elec       q    Type
                         _______ _______ _______ _____ _____    ______ ____

>  <TORSDO>
F 5

$$$$
