=
 OpenBabel11042419493D

 50 52  0  0  1  0  0  0  0  0999 V2000
  191.6720  176.2490  144.3000 C   0  0  0  0  0  0  0  0  0  0  0  0
  191.3280  177.5610  144.5660 O   0  0  0  0  0  0  0  0  0  0  0  0
  190.6150  175.3140  144.7570 C   0  0  0  0  0  2  0  0  0  0  0  0
  193.8530  175.5570  143.0490 C   0  0  0  0  0  0  0  0  0  0  0  0
  190.0800  177.5570  145.1660 C   0  0  0  0  0  3  0  0  0  0  0  0
  192.7660  175.8990  143.6860 C   0  0  0  0  0  0  0  0  0  0  0  0
  189.6340  176.3070  145.2890 C   0  0  0  0  0  0  0  0  0  0  0  0
  188.4810  175.2910  147.2640 C   0  0  0  0  0  1  0  0  0  0  0  0
  188.3120  175.9190  145.8900 C   0  0  1  0  0  3  0  0  0  0  0  0
  187.2740  177.0490  145.9080 C   0  0  0  0  0  3  0  0  0  0  0  0
  185.3200  178.1540  144.7790 C   0  0  0  0  0  2  0  0  0  0  0  0
  186.3010  176.9860  144.7250 C   0  0  0  0  0  2  0  0  0  0  0  0
  186.5140  177.0690  147.2370 C   0  0  0  0  0  2  0  0  0  0  0  0
  184.5600  178.1420  146.1030 C   0  0  0  0  0  2  0  0  0  0  0  0
  185.5370  178.2390  147.2710 C   0  0  0  0  0  2  0  0  0  0  0  0
  195.6160  174.4170  144.3610 C   0  0  0  0  0  0  0  0  0  0  0  0
  195.1620  175.5420  143.7520 C   0  0  0  0  0  0  0  0  0  0  0  0
  196.8670  174.3240  144.9960 O   0  0  0  0  0  0  0  0  0  0  0  0
  197.1880  173.4420  146.0650 C   0  0  0  0  0  1  0  0  0  0  0  0
  197.0060  176.9820  143.0570 O   0  0  0  0  0  1  0  0  0  0  0  0
  195.9170  176.7580  143.8310 N   0  0  0  0  0  2  0  0  0  0  0  0
  194.7690  173.1840  144.4200 C   0  0  0  0  0  2  0  0  0  0  0  0
  194.8720  171.8960  142.0820 C   0  0  0  0  0  0  0  0  0  0  0  0
  194.8240  172.4720  143.1410 C   0  0  0  0  0  0  0  0  0  0  0  0
  194.9380  171.2040  140.7930 C   0  0  0  0  0  2  0  0  0  0  0  0
  193.6060  171.3000  140.0710 C   0  0  0  0  0  2  0  0  0  0  0  0
  192.5530  171.6600  141.0080 N   0  0  0  0  0  2  0  0  0  0  0  0
  190.6550  171.0950  139.2130 O   0  0  0  0  0  1  0  0  0  0  0  0
  191.1860  172.2240  140.0660 P   0  0  2  0  0  0  0  0  0  0  0  0
  191.6710  173.4980  139.0620 O   0  0  0  0  0  0  0  0  0  0  0  0
  189.8690  172.7930  141.1880 C   0  0  1  0  0  3  0  0  0  0  0  0
  190.4140  172.9850  142.4590 O   0  0  0  0  0  1  0  0  0  0  0  0
  189.2220  174.0920  140.6800 C   0  0  1  0  0  3  0  0  0  0  0  0
  188.3050  173.8150  139.6640 O   0  0  0  0  0  1  0  0  0  0  0  0
  187.3240  174.1800  142.3650 C   0  0  0  0  0  1  0  0  0  0  0  0
  188.5200  174.9090  141.7750 C   0  0  2  0  0  3  0  0  0  0  0  0
  187.3650  176.5060  140.2430 O   0  0  0  0  0  0  0  0  0  0  0  0
  188.5790  177.2970  142.0160 O   0  0  0  0  0  1  0  0  0  0  0  0
  188.1750  176.3060  141.3530 C   0  0  0  0  0  0  0  0  0  0  0  0
  193.7910  175.4010  141.5640 C   0  0  0  0  0  2  0  0  0  0  0  0
  194.9740  175.8720  140.9720 O   0  0  0  0  0  0  0  0  0  0  0  0
  197.7230  173.4740  140.2330 C   0  0  0  0  0  1  0  0  0  0  0  0
  197.1210  175.3270  137.8860 N   0  0  0  0  0  0  0  0  0  0  0  0
  197.6850  175.7350  139.1690 C   0  0  0  0  0  2  0  0  0  0  0  0
  197.9410  175.4420  136.6930 C   0  0  0  0  0  1  0  0  0  0  0  0
  197.1440  174.8750  140.3120 C   0  0  1  0  0  3  0  0  0  0  0  0
  195.6050  174.8130  140.2820 C   0  0  2  0  0  3  0  0  0  0  0  0
  195.7610  174.8790  137.8080 C   0  0  0  0  0  0  0  0  0  0  0  0
  195.0520  174.5980  138.9780 O   0  0  0  0  0  0  0  0  0  0  0  0
  195.2120  174.6940  136.6890 O   0  0  0  0  0  0  0  0  0  0  0  0
  1  2  1  0  0  0  0
  1  3  1  0  0  0  0
  2  5  1  0  0  0  0
  3  7  1  0  0  0  0
  4  6  2  0  0  0  0
  4 17  1  0  0  0  0
  5  7  2  0  0  0  0
  6  1  2  0  0  0  0
  7  9  1  0  0  0  0
  9 10  1  0  0  0  0
  9  8  1  1  0  0  0
 10 13  1  0  0  0  0
 11 14  1  0  0  0  0
 12 11  1  0  0  0  0
 12 10  1  0  0  0  0
 13 15  1  0  0  0  0
 14 15  1  0  0  0  0
 16 22  1  0  0  0  0
 16 18  1  0  0  0  0
 17 21  1  0  0  0  0
 17 16  2  0  0  0  0
 18 19  1  0  0  0  0
 20 21  1  0  0  0  0
 23 24  3  0  0  0  0
 24 22  1  0  0  0  0
 25 23  1  0  0  0  0
 26 25  1  0  0  0  0
 26 27  1  0  0  0  0
 28 29  1  0  0  0  0
 29 30  2  6  0  0  0
 29 27  1  0  0  0  0
 29 31  1  0  0  0  0
 31 32  1  1  0  0  0
 33 34  1  6  0  0  0
 33 31  1  0  0  0  0
 33 36  1  0  0  0  0
 36 35  1  6  0  0  0
 37 39  2  0  0  0  0
 39 36  1  0  0  0  0
 39 38  1  0  0  0  0
 40  4  1  0  0  0  0
 41 40  1  0  0  0  0
 43 44  1  0  0  0  0
 44 46  1  0  0  0  0
 45 43  1  0  0  0  0
 46 42  1  6  0  0  0
 47 46  1  0  0  0  0
 47 41  1  6  0  0  0
 48 43  1  0  0  0  0
 48 49  1  0  0  0  0
 49 47  1  0  0  0  0
 50 48  2  0  0  0  0
M  END
>  <MODEL>
1

>  <REMARK>
 VINA RESULT:      -6.3      0.000      0.000
  Name = 
  18 active torsions:
  status: ('A' for Active; 'I' for Inactive)
    1  A    between atoms: O_1  and  C_10
    2  A    between atoms: O_1  and  C_34
    3  A    between atoms: O_2  and  C_13
    4  A    between atoms: C_3  and  C_42
    5  A    between atoms: C_5  and  C_8
    6  A    between atoms: C_5  and  C_27
    7  A    between atoms: C_8  and  P_36
    8  A    between atoms: C_9  and  C_37
    9  A    between atoms: C_10  and  C_32
   10  A    between atoms: C_13  and  C_35
   11  A    between atoms: N_18  and  P_36
   12  A    between atoms: N_18  and  C_43
   13  A    between atoms: C_26  and  C_32
   14  A    between atoms: C_26  and  N_41
   15  A    between atoms: C_27  and  C_40
   16  A    between atoms: C_30  and  C_35
   17  A    between atoms: C_37  and  C_43
   18  A    between atoms: C_42  and  C_49
                            x       y       z     vdW  Elec       q    Type
                         _______ _______ _______ _____ _____    ______ ____

>  <TORSDO>
F 18

$$$$
=
 OpenBabel11042419493D

 50 52  0  0  1  0  0  0  0  0999 V2000
  191.7210  176.5310  143.8100 C   0  0  0  0  0  0  0  0  0  0  0  0
  191.4860  177.8880  143.9240 O   0  0  0  0  0  0  0  0  0  0  0  0
  190.4850  175.7490  144.0580 C   0  0  0  0  0  2  0  0  0  0  0  0
  194.0280  175.5210  143.1300 C   0  0  0  0  0  0  0  0  0  0  0  0
  190.1450  178.0600  144.2210 C   0  0  0  0  0  3  0  0  0  0  0  0
  192.8750  176.0230  143.4820 C   0  0  0  0  0  0  0  0  0  0  0  0
  189.5360  176.8770  144.3000 C   0  0  0  0  0  0  0  0  0  0  0  0
  187.8130  176.6180  146.0960 C   0  0  0  0  0  1  0  0  0  0  0  0
  188.0780  176.6760  144.6000 C   0  0  1  0  0  3  0  0  0  0  0  0
  187.1480  177.6770  143.9000 C   0  0  0  0  0  3  0  0  0  0  0  0
  185.3440  178.0610  142.1950 C   0  0  0  0  0  2  0  0  0  0  0  0
  186.2130  177.0130  142.8820 C   0  0  0  0  0  2  0  0  0  0  0  0
  186.3500  178.4880  144.9240 C   0  0  0  0  0  2  0  0  0  0  0  0
  184.5420  178.8430  143.2320 C   0  0  0  0  0  2  0  0  0  0  0  0
  185.4850  179.5260  144.2190 C   0  0  0  0  0  2  0  0  0  0  0  0
  195.0050  174.6800  145.2440 C   0  0  0  0  0  0  0  0  0  0  0  0
  195.1360  175.4220  144.1140 C   0  0  0  0  0  0  0  0  0  0  0  0
  196.0330  174.5050  146.1870 O   0  0  0  0  0  0  0  0  0  0  0  0
  196.9740  173.4390  146.1940 C   0  0  0  0  0  1  0  0  0  0  0  0
  196.4530  177.0420  142.8500 O   0  0  0  0  0  1  0  0  0  0  0  0
  196.3340  176.1750  143.8830 N   0  0  0  0  0  2  0  0  0  0  0  0
  193.7050  174.0140  145.5750 C   0  0  0  0  0  2  0  0  0  0  0  0
  193.6770  171.5340  144.5840 C   0  0  0  0  0  0  0  0  0  0  0  0
  193.6850  172.6520  145.0360 C   0  0  0  0  0  0  0  0  0  0  0  0
  193.6780  170.1770  144.0340 C   0  0  0  0  0  2  0  0  0  0  0  0
  192.8120  170.1090  142.7890 C   0  0  0  0  0  2  0  0  0  0  0  0
  193.4660  170.7950  141.6860 N   0  0  0  0  0  2  0  0  0  0  0  0
  191.2710  170.2480  140.2610 O   0  0  0  0  0  1  0  0  0  0  0  0
  192.2060  171.3810  140.6160 P   0  0  2  0  0  0  0  0  0  0  0  0
  192.9010  171.9930  139.1990 O   0  0  0  0  0  0  0  0  0  0  0  0
  191.2600  172.6940  141.4530 C   0  0  1  0  0  3  0  0  0  0  0  0
  191.5200  173.9090  140.8170 O   0  0  0  0  0  1  0  0  0  0  0  0
  189.7520  172.3940  141.4400 C   0  0  1  0  0  3  0  0  0  0  0  0
  189.3450  171.8930  142.6780 O   0  0  0  0  0  1  0  0  0  0  0  0
  187.7610  173.8310  142.0860 C   0  0  0  0  0  1  0  0  0  0  0  0
  188.8790  173.6050  141.0810 C   0  0  2  0  0  3  0  0  0  0  0  0
  188.1030  172.3630  139.0590 O   0  0  0  0  0  1  0  0  0  0  0  0
  188.1480  174.6530  139.0480 O   0  0  0  0  0  0  0  0  0  0  0  0
  188.3700  173.5800  139.6700 C   0  0  0  0  0  0  0  0  0  0  0  0
  194.2800  175.2600  141.6800 C   0  0  0  0  0  2  0  0  0  0  0  0
  194.7720  173.9570  141.4950 O   0  0  0  0  0  0  0  0  0  0  0  0
  197.5000  175.6150  139.5810 C   0  0  0  0  0  1  0  0  0  0  0  0
  196.0650  173.4700  137.9570 N   0  0  0  0  0  0  0  0  0  0  0  0
  195.4800  174.7280  138.4090 C   0  0  0  0  0  2  0  0  0  0  0  0
  196.2450  173.2530  136.5320 C   0  0  0  0  0  1  0  0  0  0  0  0
  196.0630  175.1590  139.7550 C   0  0  1  0  0  3  0  0  0  0  0  0
  195.9920  174.0160  140.7860 C   0  0  2  0  0  3  0  0  0  0  0  0
  196.3970  172.4480  138.9080 C   0  0  0  0  0  0  0  0  0  0  0  0
  196.3930  172.7390  140.2730 O   0  0  0  0  0  0  0  0  0  0  0  0
  196.7340  171.2980  138.5190 O   0  0  0  0  0  0  0  0  0  0  0  0
  1  2  1  0  0  0  0
  1  3  1  0  0  0  0
  2  5  1  0  0  0  0
  3  7  1  0  0  0  0
  4  6  2  0  0  0  0
  4 17  1  0  0  0  0
  5  7  2  0  0  0  0
  6  1  2  0  0  0  0
  7  9  1  0  0  0  0
  9  8  1  1  0  0  0
 10  9  1  0  0  0  0
 10 13  1  0  0  0  0
 11 12  1  0  0  0  0
 11 14  1  0  0  0  0
 12 10  1  0  0  0  0
 14 15  1  0  0  0  0
 15 13  1  0  0  0  0
 16 22  1  0  0  0  0
 16 18  1  0  0  0  0
 17 16  2  0  0  0  0
 18 19  1  0  0  0  0
 20 21  1  0  0  0  0
 21 17  1  0  0  0  0
 23 24  3  0  0  0  0
 24 22  1  0  0  0  0
 25 23  1  0  0  0  0
 26 25  1  0  0  0  0
 27 26  1  0  0  0  0
 28 29  1  0  0  0  0
 29 30  2  6  0  0  0
 29 31  1  0  0  0  0
 29 27  1  0  0  0  0
 31 32  1  6  0  0  0
 33 31  1  0  0  0  0
 33 34  1  1  0  0  0
 36 33  1  0  0  0  0
 36 35  1  1  0  0  0
 37 39  1  0  0  0  0
 38 39  2  0  0  0  0
 39 36  1  0  0  0  0
 40  4  1  0  0  0  0
 41 40  1  0  0  0  0
 43 44  1  0  0  0  0
 43 48  1  0  0  0  0
 44 46  1  0  0  0  0
 45 43  1  0  0  0  0
 46 42  1  6  0  0  0
 46 47  1  0  0  0  0
 47 41  1  6  0  0  0
 48 49  1  0  0  0  0
 49 47  1  0  0  0  0
 50 48  2  0  0  0  0
M  END
>  <MODEL>
2

>  <REMARK>
 VINA RESULT:      -6.2      1.721      2.188
  Name = 
  18 active torsions:
  status: ('A' for Active; 'I' for Inactive)
    1  A    between atoms: O_1  and  C_10
    2  A    between atoms: O_1  and  C_34
    3  A    between atoms: O_2  and  C_13
    4  A    between atoms: C_3  and  C_42
    5  A    between atoms: C_5  and  C_8
    6  A    between atoms: C_5  and  C_27
    7  A    between atoms: C_8  and  P_36
    8  A    between atoms: C_9  and  C_37
    9  A    between atoms: C_10  and  C_32
   10  A    between atoms: C_13  and  C_35
   11  A    between atoms: N_18  and  P_36
   12  A    between atoms: N_18  and  C_43
   13  A    between atoms: C_26  and  C_32
   14  A    between atoms: C_26  and  N_41
   15  A    between atoms: C_27  and  C_40
   16  A    between atoms: C_30  and  C_35
   17  A    between atoms: C_37  and  C_43
   18  A    between atoms: C_42  and  C_49
                            x       y       z     vdW  Elec       q    Type
                         _______ _______ _______ _____ _____    ______ ____

>  <TORSDO>
F 18

$$$$
=
 OpenBabel11042419493D

 50 52  0  0  1  0  0  0  0  0999 V2000
  190.1890  176.0420  143.3300 C   0  0  0  0  0  0  0  0  0  0  0  0
  191.0150  177.0700  142.9160 O   0  0  0  0  0  0  0  0  0  0  0  0
  190.6600  175.4550  144.6090 C   0  0  0  0  0  2  0  0  0  0  0  0
  188.0240  175.3340  142.0590 C   0  0  0  0  0  0  0  0  0  0  0  0
  192.0130  177.2160  143.8650 C   0  0  0  0  0  3  0  0  0  0  0  0
  189.1130  175.6780  142.6910 C   0  0  0  0  0  0  0  0  0  0  0  0
  191.8490  176.3280  144.8450 C   0  0  0  0  0  0  0  0  0  0  0  0
  191.9460  175.9080  147.3100 C   0  0  0  0  0  1  0  0  0  0  0  0
  192.7410  176.1970  146.0470 C   0  0  1  0  0  3  0  0  0  0  0  0
  193.8980  175.2060  145.8680 C   0  0  0  0  0  3  0  0  0  0  0  0
  194.6180  172.8190  145.5570 C   0  0  0  0  0  2  0  0  0  0  0  0
  193.4240  173.7580  145.6920 C   0  0  0  0  0  2  0  0  0  0  0  0
  194.8020  175.6270  144.7060 C   0  0  0  0  0  2  0  0  0  0  0  0
  195.4940  173.2450  144.3810 C   0  0  0  0  0  2  0  0  0  0  0  0
  195.9860  174.6750  144.5840 C   0  0  0  0  0  2  0  0  0  0  0  0
  188.1270  173.1470  140.9020 C   0  0  0  0  0  0  0  0  0  0  0  0
  188.1000  174.5030  140.8300 C   0  0  0  0  0  0  0  0  0  0  0  0
  188.1450  172.3060  139.7760 O   0  0  0  0  0  0  0  0  0  0  0  0
  189.3100  171.8970  139.0690 C   0  0  0  0  0  1  0  0  0  0  0  0
  187.2440  175.9880  139.0930 O   0  0  0  0  0  1  0  0  0  0  0  0
  188.2060  175.1580  139.5590 N   0  0  0  0  0  2  0  0  0  0  0  0
  188.1720  172.4530  142.2270 C   0  0  0  0  0  2  0  0  0  0  0  0
  190.6990  171.8510  142.8530 C   0  0  0  0  0  0  0  0  0  0  0  0
  189.5560  172.1170  142.5740 C   0  0  0  0  0  0  0  0  0  0  0  0
  192.0880  171.5380  143.1940 C   0  0  0  0  0  2  0  0  0  0  0  0
  192.9490  171.5180  141.9430 C   0  0  0  0  0  2  0  0  0  0  0  0
  193.0650  172.8600  141.3940 N   0  0  0  0  0  2  0  0  0  0  0  0
  192.5270  173.6450  138.8950 O   0  0  0  0  0  0  0  0  0  0  0  0
  193.4020  172.6950  139.6810 P   0  0  2  0  0  0  0  0  0  0  0  0
  193.0840  171.1080  139.1870 O   0  0  0  0  0  1  0  0  0  0  0  0
  195.1510  173.0980  139.3650 C   0  0  1  0  0  3  0  0  0  0  0  0
  195.2170  174.0140  138.3130 O   0  0  0  0  0  1  0  0  0  0  0  0
  195.8300  173.6720  140.6180 C   0  0  1  0  0  3  0  0  0  0  0  0
  196.8330  172.8110  141.0670 O   0  0  0  0  0  1  0  0  0  0  0  0
  197.9270  175.1030  140.6700 C   0  0  0  0  0  1  0  0  0  0  0  0
  196.4290  175.0720  140.4170 C   0  0  2  0  0  3  0  0  0  0  0  0
  194.3210  176.1510  141.2090 O   0  0  0  0  0  0  0  0  0  0  0  0
  196.3490  177.0240  141.8140 O   0  0  0  0  0  1  0  0  0  0  0  0
  195.7080  176.1470  141.1760 C   0  0  0  0  0  0  0  0  0  0  0  0
  186.7330  175.9700  142.4620 C   0  0  0  0  0  2  0  0  0  0  0  0
  186.9660  177.0280  143.3560 O   0  0  0  0  0  0  0  0  0  0  0  0
  183.8510  178.7480  144.4470 C   0  0  0  0  0  1  0  0  0  0  0  0
  185.9910  178.7120  146.6180 N   0  0  0  0  0  0  0  0  0  0  0  0
  186.0720  179.4400  145.3560 C   0  0  0  0  0  2  0  0  0  0  0  0
  185.9240  179.4650  147.8580 C   0  0  0  0  0  1  0  0  0  0  0  0
  185.3520  178.6890  144.2350 C   0  0  1  0  0  3  0  0  0  0  0  0
  185.8190  177.2240  144.1560 C   0  0  2  0  0  3  0  0  0  0  0  0
  186.0400  177.2790  146.6260 C   0  0  0  0  0  0  0  0  0  0  0  0
  185.9180  176.5720  145.4290 O   0  0  0  0  0  0  0  0  0  0  0  0
  186.1500  176.6480  147.7120 O   0  0  0  0  0  0  0  0  0  0  0  0
  1  3  1  0  0  0  0
  2  1  1  0  0  0  0
  2  5  1  0  0  0  0
  3  7  1  0  0  0  0
  4 40  1  0  0  0  0
  4  6  2  0  0  0  0
  5  7  2  0  0  0  0
  6  1  2  0  0  0  0
  7  9  1  0  0  0  0
  9  8  1  1  0  0  0
 10  9  1  0  0  0  0
 11 12  1  0  0  0  0
 12 10  1  0  0  0  0
 13 10  1  0  0  0  0
 14 15  1  0  0  0  0
 14 11  1  0  0  0  0
 15 13  1  0  0  0  0
 16 22  1  0  0  0  0
 17 16  2  0  0  0  0
 17  4  1  0  0  0  0
 18 16  1  0  0  0  0
 19 18  1  0  0  0  0
 20 21  1  0  0  0  0
 21 17  1  0  0  0  0
 22 24  1  0  0  0  0
 23 25  1  0  0  0  0
 24 23  3  0  0  0  0
 26 25  1  0  0  0  0
 27 26  1  0  0  0  0
 29 28  2  6  0  0  0
 29 27  1  0  0  0  0
 30 29  1  0  0  0  0
 31 32  1  6  0  0  0
 31 29  1  0  0  0  0
 31 33  1  0  0  0  0
 33 34  1  6  0  0  0
 36 33  1  0  0  0  0
 36 35  1  1  0  0  0
 36 39  1  0  0  0  0
 39 37  2  0  0  0  0
 39 38  1  0  0  0  0
 40 41  1  0  0  0  0
 43 48  1  0  0  0  0
 43 45  1  0  0  0  0
 44 43  1  0  0  0  0
 46 42  1  1  0  0  0
 46 44  1  0  0  0  0
 47 41  1  1  0  0  0
 47 46  1  0  0  0  0
 47 49  1  0  0  0  0
 48 50  2  0  0  0  0
 49 48  1  0  0  0  0
M  END
>  <MODEL>
3

>  <REMARK>
 VINA RESULT:      -6.1      2.551      8.648
  Name = 
  18 active torsions:
  status: ('A' for Active; 'I' for Inactive)
    1  A    between atoms: O_1  and  C_10
    2  A    between atoms: O_1  and  C_34
    3  A    between atoms: O_2  and  C_13
    4  A    between atoms: C_3  and  C_42
    5  A    between atoms: C_5  and  C_8
    6  A    between atoms: C_5  and  C_27
    7  A    between atoms: C_8  and  P_36
    8  A    between atoms: C_9  and  C_37
    9  A    between atoms: C_10  and  C_32
   10  A    between atoms: C_13  and  C_35
   11  A    between atoms: N_18  and  P_36
   12  A    between atoms: N_18  and  C_43
   13  A    between atoms: C_26  and  C_32
   14  A    between atoms: C_26  and  N_41
   15  A    between atoms: C_27  and  C_40
   16  A    between atoms: C_30  and  C_35
   17  A    between atoms: C_37  and  C_43
   18  A    between atoms: C_42  and  C_49
                            x       y       z     vdW  Elec       q    Type
                         _______ _______ _______ _____ _____    ______ ____

>  <TORSDO>
F 18

$$$$
=
 OpenBabel11042419493D

 50 52  0  0  1  0  0  0  0  0999 V2000
  190.5060  176.5330  143.7570 C   0  0  0  0  0  0  0  0  0  0  0  0
  190.3740  176.7700  142.4010 O   0  0  0  0  0  0  0  0  0  0  0  0
  189.3500  177.0780  144.5120 C   0  0  0  0  0  2  0  0  0  0  0  0
  192.4870  175.1940  144.7980 C   0  0  0  0  0  0  0  0  0  0  0  0
  189.1750  177.4350  142.2040 C   0  0  0  0  0  3  0  0  0  0  0  0
  191.5000  175.8750  144.2810 C   0  0  0  0  0  0  0  0  0  0  0  0
  188.5580  177.6250  143.3700 C   0  0  0  0  0  0  0  0  0  0  0  0
  186.2520  177.9200  142.4430 C   0  0  0  0  0  1  0  0  0  0  0  0
  187.2300  178.3080  143.5410 C   0  0  1  0  0  3  0  0  0  0  0  0
  186.6110  178.1400  144.9350 C   0  0  0  0  0  3  0  0  0  0  0  0
  185.3100  179.1760  146.8180 C   0  0  0  0  0  2  0  0  0  0  0  0
  185.8690  179.3930  145.4150 C   0  0  0  0  0  2  0  0  0  0  0  0
  185.6950  176.9140  144.9800 C   0  0  0  0  0  2  0  0  0  0  0  0
  184.3840  177.9630  146.8360 C   0  0  0  0  0  2  0  0  0  0  0  0
  185.1440  176.7170  146.3880 C   0  0  0  0  0  2  0  0  0  0  0  0
  194.6310  176.0780  143.9320 C   0  0  0  0  0  0  0  0  0  0  0  0
  193.8170  175.8280  144.9890 C   0  0  0  0  0  0  0  0  0  0  0  0
  195.8770  176.7220  144.0410 O   0  0  0  0  0  0  0  0  0  0  0  0
  196.8460  176.8270  143.0060 C   0  0  0  0  0  1  0  0  0  0  0  0
  193.5540  176.9200  147.1560 O   0  0  0  0  0  1  0  0  0  0  0  0
  194.2580  176.1190  146.3220 N   0  0  0  0  0  2  0  0  0  0  0  0
  194.2500  175.6400  142.5520 C   0  0  0  0  0  2  0  0  0  0  0  0
  195.2270  173.2040  142.0530 C   0  0  0  0  0  0  0  0  0  0  0  0
  194.7920  174.3060  142.2790 C   0  0  0  0  0  0  0  0  0  0  0  0
  195.7470  171.8640  141.7710 C   0  0  0  0  0  2  0  0  0  0  0  0
  195.8870  171.6530  140.2740 C   0  0  0  0  0  2  0  0  0  0  0  0
  194.9080  170.6820  139.8120 N   0  0  0  0  0  2  0  0  0  0  0  0
  195.1780  169.6190  137.3740 O   0  0  0  0  0  0  0  0  0  0  0  0
  194.7490  170.8860  138.0780 P   0  0  2  0  0  0  0  0  0  0  0  0
  195.7280  172.1670  137.5620 O   0  0  0  0  0  1  0  0  0  0  0  0
  193.0100  171.2370  137.6640 C   0  0  1  0  0  3  0  0  0  0  0  0
  192.3040  171.4630  138.8470 O   0  0  0  0  0  1  0  0  0  0  0  0
  192.8900  172.4520  136.7290 C   0  0  1  0  0  3  0  0  0  0  0  0
  192.1930  172.1070  135.5700 O   0  0  0  0  0  1  0  0  0  0  0  0
  191.0380  174.1800  136.5550 C   0  0  0  0  0  1  0  0  0  0  0  0
  192.2130  173.6700  137.3730 C   0  0  2  0  0  3  0  0  0  0  0  0
  193.2430  175.9000  136.9280 O   0  0  0  0  0  0  0  0  0  0  0  0
  193.8770  174.6950  138.7690 O   0  0  0  0  0  1  0  0  0  0  0  0
  193.1690  174.7700  137.7300 C   0  0  0  0  0  0  0  0  0  0  0  0
  192.3180  173.7210  144.9840 C   0  0  0  0  0  2  0  0  0  0  0  0
  190.9560  173.3780  144.9670 O   0  0  0  0  0  0  0  0  0  0  0  0
  191.9370  170.9980  142.2780 C   0  0  0  0  0  1  0  0  0  0  0  0
  189.8210  172.9940  141.3620 N   0  0  0  0  0  0  0  0  0  0  0  0
  191.1990  173.3180  141.7180 C   0  0  0  0  0  2  0  0  0  0  0  0
  189.3930  173.1710  139.9860 C   0  0  0  0  0  1  0  0  0  0  0  0
  191.7180  172.3980  142.8230 C   0  0  1  0  0  3  0  0  0  0  0  0
  190.7450  172.3550  144.0160 C   0  0  2  0  0  3  0  0  0  0  0  0
  188.8990  172.5670  142.3740 C   0  0  0  0  0  0  0  0  0  0  0  0
  189.3670  172.2250  143.6440 O   0  0  0  0  0  0  0  0  0  0  0  0
  187.6710  172.4550  142.1140 O   0  0  0  0  0  0  0  0  0  0  0  0
  1  6  2  0  0  0  0
  1  3  1  0  0  0  0
  2  1  1  0  0  0  0
  4 40  1  0  0  0  0
  4 17  1  0  0  0  0
  5  2  1  0  0  0  0
  5  7  2  0  0  0  0
  6  4  2  0  0  0  0
  7  9  1  0  0  0  0
  7  3  1  0  0  0  0
  9  8  1  6  0  0  0
  9 10  1  0  0  0  0
 10 13  1  0  0  0  0
 10 12  1  0  0  0  0
 11 14  1  0  0  0  0
 12 11  1  0  0  0  0
 13 15  1  0  0  0  0
 15 14  1  0  0  0  0
 16 18  1  0  0  0  0
 16 17  2  0  0  0  0
 17 21  1  0  0  0  0
 19 18  1  0  0  0  0
 21 20  1  0  0  0  0
 22 16  1  0  0  0  0
 23 24  3  0  0  0  0
 24 22  1  0  0  0  0
 25 23  1  0  0  0  0
 26 25  1  0  0  0  0
 27 26  1  0  0  0  0
 29 28  2  6  0  0  0
 29 27  1  0  0  0  0
 30 29  1  0  0  0  0
 31 29  1  0  0  0  0
 31 32  1  1  0  0  0
 33 34  1  6  0  0  0
 33 36  1  0  0  0  0
 33 31  1  0  0  0  0
 36 35  1  6  0  0  0
 36 39  1  0  0  0  0
 37 39  2  0  0  0  0
 39 38  1  0  0  0  0
 41 40  1  0  0  0  0
 43 44  1  0  0  0  0
 43 48  1  0  0  0  0
 44 46  1  0  0  0  0
 45 43  1  0  0  0  0
 46 42  1  6  0  0  0
 46 47  1  0  0  0  0
 47 41  1  6  0  0  0
 48 49  1  0  0  0  0
 49 47  1  0  0  0  0
 50 48  2  0  0  0  0
M  END
>  <MODEL>
4

>  <REMARK>
 VINA RESULT:      -6.0      2.404      4.948
  Name = 
  18 active torsions:
  status: ('A' for Active; 'I' for Inactive)
    1  A    between atoms: O_1  and  C_10
    2  A    between atoms: O_1  and  C_34
    3  A    between atoms: O_2  and  C_13
    4  A    between atoms: C_3  and  C_42
    5  A    between atoms: C_5  and  C_8
    6  A    between atoms: C_5  and  C_27
    7  A    between atoms: C_8  and  P_36
    8  A    between atoms: C_9  and  C_37
    9  A    between atoms: C_10  and  C_32
   10  A    between atoms: C_13  and  C_35
   11  A    between atoms: N_18  and  P_36
   12  A    between atoms: N_18  and  C_43
   13  A    between atoms: C_26  and  C_32
   14  A    between atoms: C_26  and  N_41
   15  A    between atoms: C_27  and  C_40
   16  A    between atoms: C_30  and  C_35
   17  A    between atoms: C_37  and  C_43
   18  A    between atoms: C_42  and  C_49
                            x       y       z     vdW  Elec       q    Type
                         _______ _______ _______ _____ _____    ______ ____

>  <TORSDO>
F 18

$$$$
=
 OpenBabel11042419493D

 50 52  0  0  1  0  0  0  0  0999 V2000
  190.1700  174.0180  145.2510 C   0  0  0  0  0  0  0  0  0  0  0  0
  189.5150  173.4040  146.3020 O   0  0  0  0  0  0  0  0  0  0  0  0
  190.0970  175.4960  145.3620 C   0  0  0  0  0  2  0  0  0  0  0  0
  191.4580  172.7120  143.3960 C   0  0  0  0  0  0  0  0  0  0  0  0
  189.0170  174.3990  147.1260 C   0  0  0  0  0  3  0  0  0  0  0  0
  190.8040  173.3680  144.3160 C   0  0  0  0  0  0  0  0  0  0  0  0
  189.3280  175.5990  146.6380 C   0  0  0  0  0  0  0  0  0  0  0  0
  190.1060  177.9030  147.2280 C   0  0  0  0  0  1  0  0  0  0  0  0
  188.9560  176.9100  147.2720 C   0  0  1  0  0  3  0  0  0  0  0  0
  187.6580  177.5250  146.7330 C   0  0  0  0  0  3  0  0  0  0  0  0
  185.3500  177.1430  145.8150 C   0  0  0  0  0  2  0  0  0  0  0  0
  186.5990  176.4730  146.3800 C   0  0  0  0  0  2  0  0  0  0  0  0
  187.0940  178.5550  147.7140 C   0  0  0  0  0  2  0  0  0  0  0  0
  184.7940  178.1510  146.8180 C   0  0  0  0  0  2  0  0  0  0  0  0
  185.8450  179.2110  147.1350 C   0  0  0  0  0  2  0  0  0  0  0  0
  190.4860  172.7030  141.1190 C   0  0  0  0  0  0  0  0  0  0  0  0
  190.7280  172.0500  142.2850 C   0  0  0  0  0  0  0  0  0  0  0  0
  189.8480  172.1150  140.0130 O   0  0  0  0  0  0  0  0  0  0  0  0
  188.8580  172.7370  139.2030 C   0  0  0  0  0  1  0  0  0  0  0  0
  190.7400  169.6510  141.8370 O   0  0  0  0  0  1  0  0  0  0  0  0
  190.2240  170.7220  142.4840 N   0  0  0  0  0  2  0  0  0  0  0  0
  190.8690  174.1400  140.9540 C   0  0  0  0  0  2  0  0  0  0  0  0
  188.9980  175.7100  142.0340 C   0  0  0  0  0  0  0  0  0  0  0  0
  189.8450  175.0070  141.5420 C   0  0  0  0  0  0  0  0  0  0  0  0
  187.9700  176.5600  142.6390 C   0  0  0  0  0  2  0  0  0  0  0  0
  186.8320  176.7950  141.6620 C   0  0  0  0  0  2  0  0  0  0  0  0
  185.5610  176.8190  142.3690 N   0  0  0  0  0  2  0  0  0  0  0  0
  185.0270  178.7920  140.6470 O   0  0  0  0  0  0  0  0  0  0  0  0
  184.8410  178.3940  142.0920 P   0  0  2  0  0  0  0  0  0  0  0  0
  185.5840  179.5440  143.0870 O   0  0  0  0  0  1  0  0  0  0  0  0
  183.0590  178.3200  142.4640 C   0  0  1  0  0  3  0  0  0  0  0  0
  182.7760  179.2270  143.4880 O   0  0  0  0  0  1  0  0  0  0  0  0
  182.2120  178.6360  141.2200 C   0  0  1  0  0  3  0  0  0  0  0  0
  182.3450  177.6210  140.2710 O   0  0  0  0  0  1  0  0  0  0  0  0
  180.0040  177.5480  141.8410 C   0  0  0  0  0  1  0  0  0  0  0  0
  180.7210  178.8490  141.5180 C   0  0  2  0  0  3  0  0  0  0  0  0
  180.3380  180.9700  140.2580 O   0  0  0  0  0  1  0  0  0  0  0  0
  179.1320  179.0950  139.7340 O   0  0  0  0  0  0  0  0  0  0  0  0
  180.0050  179.6380  140.4620 C   0  0  0  0  0  0  0  0  0  0  0  0
  192.9150  172.4530  143.6030 C   0  0  0  0  0  2  0  0  0  0  0  0
  193.6850  173.3500  142.8460 O   0  0  0  0  0  0  0  0  0  0  0  0
  195.7560  173.6930  145.9200 C   0  0  0  0  0  1  0  0  0  0  0  0
  194.9400  176.3880  144.7500 N   0  0  0  0  0  0  0  0  0  0  0  0
  194.0350  175.4110  145.3460 C   0  0  0  0  0  2  0  0  0  0  0  0
  195.1240  177.6670  145.4130 C   0  0  0  0  0  1  0  0  0  0  0  0
  194.5160  173.9820  145.0920 C   0  0  1  0  0  3  0  0  0  0  0  0
  194.8110  173.7500  143.5990 C   0  0  2  0  0  3  0  0  0  0  0  0
  195.5830  176.1040  143.5000 C   0  0  0  0  0  0  0  0  0  0  0  0
  195.5430  174.8120  142.9740 O   0  0  0  0  0  0  0  0  0  0  0  0
  196.2220  177.0030  142.8910 O   0  0  0  0  0  0  0  0  0  0  0  0
  1  3  1  0  0  0  0
  1  2  1  0  0  0  0
  2  5  1  0  0  0  0
  3  7  1  0  0  0  0
  4 40  1  0  0  0  0
  4  6  2  0  0  0  0
  6  1  2  0  0  0  0
  7  5  2  0  0  0  0
  7  9  1  0  0  0  0
  9  8  1  6  0  0  0
 10  9  1  0  0  0  0
 10 13  1  0  0  0  0
 11 12  1  0  0  0  0
 11 14  1  0  0  0  0
 12 10  1  0  0  0  0
 14 15  1  0  0  0  0
 15 13  1  0  0  0  0
 16 17  2  0  0  0  0
 17 21  1  0  0  0  0
 17  4  1  0  0  0  0
 18 16  1  0  0  0  0
 19 18  1  0  0  0  0
 20 21  1  0  0  0  0
 22 16  1  0  0  0  0
 22 24  1  0  0  0  0
 23 25  1  0  0  0  0
 24 23  3  0  0  0  0
 26 27  1  0  0  0  0
 26 25  1  0  0  0  0
 29 28  2  6  0  0  0
 29 27  1  0  0  0  0
 29 31  1  0  0  0  0
 29 30  1  0  0  0  0
 31 32  1  1  0  0  0
 33 34  1  6  0  0  0
 33 36  1  0  0  0  0
 33 31  1  0  0  0  0
 36 35  1  6  0  0  0
 37 39  1  0  0  0  0
 38 39  2  0  0  0  0
 39 36  1  0  0  0  0
 41 40  1  0  0  0  0
 43 44  1  0  0  0  0
 43 45  1  0  0  0  0
 46 44  1  0  0  0  0
 46 42  1  1  0  0  0
 47 41  1  6  0  0  0
 47 46  1  0  0  0  0
 48 43  1  0  0  0  0
 49 48  1  0  0  0  0
 49 47  1  0  0  0  0
 50 48  2  0  0  0  0
M  END
>  <MODEL>
5

>  <REMARK>
 VINA RESULT:      -5.9      3.660      6.668
  Name = 
  18 active torsions:
  status: ('A' for Active; 'I' for Inactive)
    1  A    between atoms: O_1  and  C_10
    2  A    between atoms: O_1  and  C_34
    3  A    between atoms: O_2  and  C_13
    4  A    between atoms: C_3  and  C_42
    5  A    between atoms: C_5  and  C_8
    6  A    between atoms: C_5  and  C_27
    7  A    between atoms: C_8  and  P_36
    8  A    between atoms: C_9  and  C_37
    9  A    between atoms: C_10  and  C_32
   10  A    between atoms: C_13  and  C_35
   11  A    between atoms: N_18  and  P_36
   12  A    between atoms: N_18  and  C_43
   13  A    between atoms: C_26  and  C_32
   14  A    between atoms: C_26  and  N_41
   15  A    between atoms: C_27  and  C_40
   16  A    between atoms: C_30  and  C_35
   17  A    between atoms: C_37  and  C_43
   18  A    between atoms: C_42  and  C_49
                            x       y       z     vdW  Elec       q    Type
                         _______ _______ _______ _____ _____    ______ ____

>  <TORSDO>
F 18

$$$$
=
 OpenBabel11042419493D

 50 52  0  0  1  0  0  0  0  0999 V2000
  190.4890  175.7320  143.3170 C   0  0  0  0  0  0  0  0  0  0  0  0
  191.3120  176.7750  142.9340 O   0  0  0  0  0  0  0  0  0  0  0  0
  190.8870  175.1910  144.6400 C   0  0  0  0  0  2  0  0  0  0  0  0
  188.4390  174.9280  141.9190 C   0  0  0  0  0  0  0  0  0  0  0  0
  192.2370  176.9740  143.9440 C   0  0  0  0  0  3  0  0  0  0  0  0
  189.4710  175.3200  142.6150 C   0  0  0  0  0  0  0  0  0  0  0  0
  192.0310  176.1050  144.9340 C   0  0  0  0  0  0  0  0  0  0  0  0
  191.9550  175.9190  147.4280 C   0  0  0  0  0  1  0  0  0  0  0  0
  192.8410  176.0310  146.1980 C   0  0  1  0  0  3  0  0  0  0  0  0
  193.9300  174.9510  146.1850 C   0  0  0  0  0  3  0  0  0  0  0  0
  194.5700  172.5900  145.6130 C   0  0  0  0  0  2  0  0  0  0  0  0
  193.4570  173.6320  145.5620 C   0  0  0  0  0  2  0  0  0  0  0  0
  195.1940  175.4600  145.4870 C   0  0  0  0  0  2  0  0  0  0  0  0
  195.8130  173.1090  144.8940 C   0  0  0  0  0  2  0  0  0  0  0  0
  196.2930  174.4040  145.5440 C   0  0  0  0  0  2  0  0  0  0  0  0
  188.7570  172.7240  140.8370 C   0  0  0  0  0  0  0  0  0  0  0  0
  188.6240  174.0700  140.7210 C   0  0  0  0  0  0  0  0  0  0  0  0
  188.8830  171.8540  139.7390 O   0  0  0  0  0  0  0  0  0  0  0  0
  190.0900  171.5680  139.0450 C   0  0  0  0  0  1  0  0  0  0  0  0
  187.7090  174.6560  138.5350 O   0  0  0  0  0  1  0  0  0  0  0  0
  188.7210  174.6940  139.4330 N   0  0  0  0  0  2  0  0  0  0  0  0
  188.8130  172.0750  142.1840 C   0  0  0  0  0  2  0  0  0  0  0  0
  191.2980  171.2340  142.6880 C   0  0  0  0  0  0  0  0  0  0  0  0
  190.1740  171.6090  142.4640 C   0  0  0  0  0  0  0  0  0  0  0  0
  192.6670  170.7890  142.9580 C   0  0  0  0  0  2  0  0  0  0  0  0
  193.1730  169.9120  141.8270 C   0  0  0  0  0  2  0  0  0  0  0  0
  193.3700  170.7080  140.6250 N   0  0  0  0  0  2  0  0  0  0  0  0
  195.4700  171.3470  139.1010 O   0  0  0  0  0  0  0  0  0  0  0  0
  195.0740  171.1100  140.5400 P   0  0  2  0  0  0  0  0  0  0  0  0
  195.9940  169.8350  141.1670 O   0  0  0  0  0  1  0  0  0  0  0  0
  195.3890  172.6260  141.5010 C   0  0  1  0  0  3  0  0  0  0  0  0
  196.7150  173.0150  141.3020 O   0  0  0  0  0  1  0  0  0  0  0  0
  194.4320  173.7570  141.0950 C   0  0  1  0  0  3  0  0  0  0  0  0
  193.6790  174.1770  142.1930 O   0  0  0  0  0  1  0  0  0  0  0  0
  194.7830  176.2700  141.1930 C   0  0  0  0  0  1  0  0  0  0  0  0
  195.1330  174.9760  140.4770 C   0  0  2  0  0  3  0  0  0  0  0  0
  193.6740  174.9950  138.4520 O   0  0  0  0  0  1  0  0  0  0  0  0
  195.9320  175.3000  138.2360 O   0  0  0  0  0  0  0  0  0  0  0  0
  194.9480  175.0870  138.9930 C   0  0  0  0  0  0  0  0  0  0  0  0
  187.1050  175.5340  142.2150 C   0  0  0  0  0  2  0  0  0  0  0  0
  187.1560  176.9290  142.0610 O   0  0  0  0  0  0  0  0  0  0  0  0
  187.6740  176.9780  145.7470 C   0  0  0  0  0  1  0  0  0  0  0  0
  185.0600  178.3090  144.9130 N   0  0  0  0  0  0  0  0  0  0  0  0
  185.3690  176.8890  144.7860 C   0  0  0  0  0  2  0  0  0  0  0  0
  184.0110  178.7190  145.8300 C   0  0  0  0  0  1  0  0  0  0  0  0
  186.8560  176.6670  144.5070 C   0  0  1  0  0  3  0  0  0  0  0  0
  187.3370  177.5320  143.3260 C   0  0  2  0  0  3  0  0  0  0  0  0
  185.7440  179.2700  144.0970 C   0  0  0  0  0  0  0  0  0  0  0  0
  186.8680  178.8860  143.3630 O   0  0  0  0  0  0  0  0  0  0  0  0
  185.3650  180.4720  144.0690 O   0  0  0  0  0  0  0  0  0  0  0  0
  1  3  1  0  0  0  0
  2  1  1  0  0  0  0
  2  5  1  0  0  0  0
  3  7  1  0  0  0  0
  4 40  1  0  0  0  0
  4  6  2  0  0  0  0
  5  7  2  0  0  0  0
  6  1  2  0  0  0  0
  7  9  1  0  0  0  0
  9  8  1  1  0  0  0
 10  9  1  0  0  0  0
 12 11  1  0  0  0  0
 12 10  1  0  0  0  0
 13 15  1  0  0  0  0
 13 10  1  0  0  0  0
 14 15  1  0  0  0  0
 14 11  1  0  0  0  0
 16 22  1  0  0  0  0
 17 16  2  0  0  0  0
 17  4  1  0  0  0  0
 18 16  1  0  0  0  0
 19 18  1  0  0  0  0
 20 21  1  0  0  0  0
 21 17  1  0  0  0  0
 22 24  1  0  0  0  0
 23 25  1  0  0  0  0
 24 23  3  0  0  0  0
 26 25  1  0  0  0  0
 27 26  1  0  0  0  0
 29 28  2  6  0  0  0
 29 27  1  0  0  0  0
 29 30  1  0  0  0  0
 29 31  1  0  0  0  0
 31 32  1  6  0  0  0
 33 31  1  0  0  0  0
 33 34  1  1  0  0  0
 36 33  1  0  0  0  0
 36 35  1  1  0  0  0
 37 39  1  0  0  0  0
 38 39  2  0  0  0  0
 39 36  1  0  0  0  0
 41 40  1  0  0  0  0
 43 45  1  0  0  0  0
 44 43  1  0  0  0  0
 46 44  1  0  0  0  0
 46 42  1  1  0  0  0
 47 41  1  6  0  0  0
 47 49  1  0  0  0  0
 47 46  1  0  0  0  0
 48 43  1  0  0  0  0
 49 48  1  0  0  0  0
 50 48  2  0  0  0  0
M  END
>  <MODEL>
6

>  <REMARK>
 VINA RESULT:      -5.9      2.651      8.208
  Name = 
  18 active torsions:
  status: ('A' for Active; 'I' for Inactive)
    1  A    between atoms: O_1  and  C_10
    2  A    between atoms: O_1  and  C_34
    3  A    between atoms: O_2  and  C_13
    4  A    between atoms: C_3  and  C_42
    5  A    between atoms: C_5  and  C_8
    6  A    between atoms: C_5  and  C_27
    7  A    between atoms: C_8  and  P_36
    8  A    between atoms: C_9  and  C_37
    9  A    between atoms: C_10  and  C_32
   10  A    between atoms: C_13  and  C_35
   11  A    between atoms: N_18  and  P_36
   12  A    between atoms: N_18  and  C_43
   13  A    between atoms: C_26  and  C_32
   14  A    between atoms: C_26  and  N_41
   15  A    between atoms: C_27  and  C_40
   16  A    between atoms: C_30  and  C_35
   17  A    between atoms: C_37  and  C_43
   18  A    between atoms: C_42  and  C_49
                            x       y       z     vdW  Elec       q    Type
                         _______ _______ _______ _____ _____    ______ ____

>  <TORSDO>
F 18

$$$$
=
 OpenBabel11042419493D

 50 52  0  0  1  0  0  0  0  0999 V2000
  190.3820  176.2730  143.1070 C   0  0  0  0  0  0  0  0  0  0  0  0
  190.6120  177.6350  143.0420 O   0  0  0  0  0  0  0  0  0  0  0  0
  191.4410  175.5860  143.8870 C   0  0  0  0  0  2  0  0  0  0  0  0
  188.2820  175.1170  142.0790 C   0  0  0  0  0  0  0  0  0  0  0  0
  191.7690  177.9010  143.7560 C   0  0  0  0  0  3  0  0  0  0  0  0
  189.3410  175.6910  142.5850 C   0  0  0  0  0  0  0  0  0  0  0  0
  192.2690  176.7720  144.2580 C   0  0  0  0  0  0  0  0  0  0  0  0
  193.1960  176.3770  146.5480 C   0  0  0  0  0  1  0  0  0  0  0  0
  193.5150  176.6790  145.0930 C   0  0  1  0  0  3  0  0  0  0  0  0
  194.5760  175.7210  144.5360 C   0  0  0  0  0  3  0  0  0  0  0  0
  196.3890  175.3130  142.8450 C   0  0  0  0  0  2  0  0  0  0  0  0
  195.3800  176.3250  143.3780 C   0  0  0  0  0  2  0  0  0  0  0  0
  195.5070  175.2330  145.6480 C   0  0  0  0  0  2  0  0  0  0  0  0
  197.3200  174.8560  143.9650 C   0  0  0  0  0  2  0  0  0  0  0  0
  196.5100  174.2260  145.0960 C   0  0  0  0  0  2  0  0  0  0  0  0
  188.6130  173.6730  140.0950 C   0  0  1  0  0  3  0  0  0  0  0  0
  188.1970  174.8540  140.6200 C   0  0  0  0  0  0  0  0  0  0  0  0
  188.5100  173.3440  138.7320 O   0  0  0  0  0  0  0  0  0  0  0  0
  189.3450  173.8450  137.6960 C   0  0  0  0  0  1  0  0  0  0  0  0
  187.4620  177.1450  140.2100 O   0  0  0  0  0  1  0  0  0  0  0  0
  187.7200  175.8950  139.7570 N   0  0  0  0  0  0  0  0  0  0  0  0
  189.2570  172.6360  140.9630 C   0  0  0  0  0  2  0  0  0  0  0  0
  191.8400  172.3790  140.3360 C   0  0  0  0  0  0  0  0  0  0  0  0
  190.6750  172.5010  140.6210 C   0  0  0  0  0  0  0  0  0  0  0  0
  193.2530  172.2250  139.9810 C   0  0  0  0  0  2  0  0  0  0  0  0
  193.7060  170.7950  140.2160 C   0  0  0  0  0  2  0  0  0  0  0  0
  195.1500  170.6970  140.0700 N   0  0  0  0  0  2  0  0  0  0  0  0
  197.0740  169.0340  140.8930 O   0  0  0  0  0  0  0  0  0  0  0  0
  195.7230  169.5800  141.2940 P   0  0  2  0  0  0  0  0  0  0  0  0
  194.6290  168.2980  141.4530 O   0  0  0  0  0  1  0  0  0  0  0  0
  195.8830  170.4520  142.8860 C   0  0  1  0  0  3  0  0  0  0  0  0
  195.9440  171.8250  142.6400 O   0  0  0  0  0  1  0  0  0  0  0  0
  194.7080  170.1280  143.8230 C   0  0  1  0  0  3  0  0  0  0  0  0
  195.1810  169.6610  145.0510 O   0  0  0  0  0  1  0  0  0  0  0  0
  193.9000  171.8800  145.4740 C   0  0  0  0  0  1  0  0  0  0  0  0
  193.7630  171.3120  144.0710 C   0  0  2  0  0  3  0  0  0  0  0  0
  191.3570  171.9720  143.9830 O   0  0  0  0  0  1  0  0  0  0  0  0
  192.0160  169.9420  143.1540 O   0  0  0  0  0  0  0  0  0  0  0  0
  192.3330  171.0220  143.7200 C   0  0  0  0  0  0  0  0  0  0  0  0
  187.0830  174.9370  142.9510 C   0  0  0  0  0  2  0  0  0  0  0  0
  186.2110  176.0300  142.8180 O   0  0  0  0  0  0  0  0  0  0  0  0
  187.9760  177.5360  145.7290 C   0  0  0  0  0  1  0  0  0  0  0  0
  184.9770  178.0820  145.7660 N   0  0  0  0  0  0  0  0  0  0  0  0
  185.6050  176.7750  145.9320 C   0  0  0  0  0  2  0  0  0  0  0  0
  184.2550  178.6590  146.8870 C   0  0  0  0  0  1  0  0  0  0  0  0
  186.8920  176.6710  145.1120 C   0  0  1  0  0  3  0  0  0  0  0  0
  186.6550  177.0840  143.6470 C   0  0  2  0  0  3  0  0  0  0  0  0
  185.0240  178.7480  144.4970 C   0  0  0  0  0  0  0  0  0  0  0  0
  185.8710  178.2740  143.4940 O   0  0  0  0  0  0  0  0  0  0  0  0
  184.3390  179.7860  144.2930 O   0  0  0  0  0  0  0  0  0  0  0  0
  1  3  1  0  0  0  0
  2  1  1  0  0  0  0
  2  5  1  0  0  0  0
  3  7  1  0  0  0  0
  4  6  2  0  0  0  0
  4 40  1  0  0  0  0
  5  7  2  0  0  0  0
  6  1  2  0  0  0  0
  7  9  1  0  0  0  0
  9  8  1  1  0  0  0
 10  9  1  0  0  0  0
 10 13  1  0  0  0  0
 11 12  1  0  0  0  0
 11 14  1  0  0  0  0
 12 10  1  0  0  0  0
 14 15  1  0  0  0  0
 15 13  1  0  0  0  0
 16 17  1  0  0  0  0
 16 22  1  6  0  0  0
 17  4  1  0  0  0  0
 18 16  1  0  0  0  0
 19 18  1  0  0  0  0
 21 20  1  0  0  0  0
 21 17  2  0  0  0  0
 23 24  3  0  0  0  0
 24 22  1  0  0  0  0
 25 26  1  0  0  0  0
 25 23  1  0  0  0  0
 27 26  1  0  0  0  0
 27 29  1  0  0  0  0
 29 28  2  6  0  0  0
 29 30  1  0  0  0  0
 29 31  1  0  0  0  0
 31 32  1  6  0  0  0
 31 33  1  0  0  0  0
 33 36  1  0  0  0  0
 33 34  1  1  0  0  0
 36 35  1  1  0  0  0
 38 39  2  0  0  0  0
 39 37  1  0  0  0  0
 39 36  1  0  0  0  0
 41 40  1  0  0  0  0
 43 44  1  0  0  0  0
 43 45  1  0  0  0  0
 46 42  1  1  0  0  0
 46 44  1  0  0  0  0
 47 41  1  6  0  0  0
 47 46  1  0  0  0  0
 48 43  1  0  0  0  0
 49 47  1  0  0  0  0
 49 48  1  0  0  0  0
 50 48  2  0  0  0  0
M  END
>  <MODEL>
7

>  <REMARK>
 VINA RESULT:      -5.8      3.023      8.677
  Name = 
  18 active torsions:
  status: ('A' for Active; 'I' for Inactive)
    1  A    between atoms: O_1  and  C_10
    2  A    between atoms: O_1  and  C_34
    3  A    between atoms: O_2  and  C_13
    4  A    between atoms: C_3  and  C_42
    5  A    between atoms: C_5  and  C_8
    6  A    between atoms: C_5  and  C_27
    7  A    between atoms: C_8  and  P_36
    8  A    between atoms: C_9  and  C_37
    9  A    between atoms: C_10  and  C_32
   10  A    between atoms: C_13  and  C_35
   11  A    between atoms: N_18  and  P_36
   12  A    between atoms: N_18  and  C_43
   13  A    between atoms: C_26  and  C_32
   14  A    between atoms: C_26  and  N_41
   15  A    between atoms: C_27  and  C_40
   16  A    between atoms: C_30  and  C_35
   17  A    between atoms: C_37  and  C_43
   18  A    between atoms: C_42  and  C_49
                            x       y       z     vdW  Elec       q    Type
                         _______ _______ _______ _____ _____    ______ ____

>  <TORSDO>
F 18

$$$$
=
 OpenBabel11042419493D

 50 52  0  0  1  0  0  0  0  0999 V2000
  191.9720  172.4480  141.9660 C   0  0  0  0  0  0  0  0  0  0  0  0
  192.2490  171.1180  141.7110 O   0  0  0  0  0  0  0  0  0  0  0  0
  190.9190  172.9620  141.0550 C   0  0  0  0  0  2  0  0  0  0  0  0
  193.0920  173.8110  143.8880 C   0  0  0  0  0  0  0  0  0  0  0  0
  191.4210  170.7050  140.6820 C   0  0  0  0  0  3  0  0  0  0  0  0
  192.5380  173.1350  142.9170 C   0  0  0  0  0  0  0  0  0  0  0  0
  190.6460  171.7130  140.2830 C   0  0  0  0  0  0  0  0  0  0  0  0
  188.5240  172.6700  139.3630 C   0  0  0  0  0  1  0  0  0  0  0  0
  189.6190  171.6290  139.1890 C   0  0  1  0  0  3  0  0  0  0  0  0
  190.2060  171.6580  137.7710 C   0  0  0  0  0  3  0  0  0  0  0  0
  191.0160  170.3530  135.7830 C   0  0  0  0  0  2  0  0  0  0  0  0
  190.3960  170.2580  137.1740 C   0  0  0  0  0  2  0  0  0  0  0  0
  189.3560  172.5330  136.8470 C   0  0  0  0  0  2  0  0  0  0  0  0
  190.1420  171.2120  134.8730 C   0  0  0  0  0  2  0  0  0  0  0  0
  189.9880  172.6120  135.4620 C   0  0  0  0  0  2  0  0  0  0  0  0
  194.7830  175.2240  142.7580 C   0  0  0  0  0  0  0  0  0  0  0  0
  194.4730  174.3400  143.7410 C   0  0  0  0  0  0  0  0  0  0  0  0
  196.0560  175.8000  142.6000 O   0  0  0  0  0  0  0  0  0  0  0  0
  196.8320  175.7730  141.4090 C   0  0  0  0  0  1  0  0  0  0  0  0
  195.8650  174.5250  145.7370 O   0  0  0  0  0  1  0  0  0  0  0  0
  195.4950  173.8540  144.6210 N   0  0  0  0  0  2  0  0  0  0  0  0
  193.7630  175.6210  141.7370 C   0  0  0  0  0  2  0  0  0  0  0  0
  191.9210  177.2160  142.8330 C   0  0  0  0  0  0  0  0  0  0  0  0
  192.7550  176.4950  142.3440 C   0  0  0  0  0  0  0  0  0  0  0  0
  190.9010  178.0880  143.4190 C   0  0  0  0  0  2  0  0  0  0  0  0
  189.5140  177.5220  143.1750 C   0  0  0  0  0  2  0  0  0  0  0  0
  188.8970  178.1820  142.0350 N   0  0  0  0  0  2  0  0  0  0  0  0
  187.2690  176.1320  142.5730 O   0  0  0  0  0  1  0  0  0  0  0  0
  187.3590  177.3930  141.7440 P   0  0  2  0  0  0  0  0  0  0  0  0
  187.2240  176.9910  140.1050 O   0  0  0  0  0  0  0  0  0  0  0  0
  186.0020  178.5130  142.2160 C   0  0  1  0  0  3  0  0  0  0  0  0
  184.7920  177.9490  141.8080 O   0  0  0  0  0  1  0  0  0  0  0  0
  185.9890  178.7710  143.7320 C   0  0  1  0  0  3  0  0  0  0  0  0
  185.9410  180.1420  143.9910 O   0  0  0  0  0  1  0  0  0  0  0  0
  183.6940  179.0410  144.7850 C   0  0  0  0  0  1  0  0  0  0  0  0
  184.8320  178.0840  144.4710 C   0  0  2  0  0  3  0  0  0  0  0  0
  184.6050  177.4970  146.8870 O   0  0  0  0  0  1  0  0  0  0  0  0
  186.2030  176.4720  145.6070 O   0  0  0  0  0  0  0  0  0  0  0  0
  185.2680  177.3120  145.6820 C   0  0  0  0  0  0  0  0  0  0  0  0
  192.4060  173.8480  145.2140 C   0  0  0  0  0  2  0  0  0  0  0  0
  191.8070  175.1020  145.4210 O   0  0  0  0  0  0  0  0  0  0  0  0
  188.8270  174.7200  147.6190 C   0  0  0  0  0  1  0  0  0  0  0  0
  190.0190  177.5240  147.7370 N   0  0  0  0  0  0  0  0  0  0  0  0
  189.3660  176.9250  146.5770 C   0  0  0  0  0  2  0  0  0  0  0  0
  189.3900  178.6630  148.3840 C   0  0  0  0  0  1  0  0  0  0  0  0
  189.6100  175.4170  146.5210 C   0  0  1  0  0  3  0  0  0  0  0  0
  191.1090  175.0890  146.6490 C   0  0  2  0  0  3  0  0  0  0  0  0
  191.2880  177.0280  148.1840 C   0  0  0  0  0  0  0  0  0  0  0  0
  191.7840  175.8270  147.6750 O   0  0  0  0  0  0  0  0  0  0  0  0
  191.9410  177.6450  149.0680 O   0  0  0  0  0  0  0  0  0  0  0  0
  1  6  2  0  0  0  0
  2  1  1  0  0  0  0
  3  1  1  0  0  0  0
  4 40  1  0  0  0  0
  5  2  1  0  0  0  0
  6  4  2  0  0  0  0
  7  5  2  0  0  0  0
  7  3  1  0  0  0  0
  9  8  1  6  0  0  0
  9  7  1  0  0  0  0
 10  9  1  0  0  0  0
 11 12  1  0  0  0  0
 12 10  1  0  0  0  0
 13 10  1  0  0  0  0
 14 15  1  0  0  0  0
 14 11  1  0  0  0  0
 15 13  1  0  0  0  0
 16 17  2  0  0  0  0
 17  4  1  0  0  0  0
 17 21  1  0  0  0  0
 18 16  1  0  0  0  0
 19 18  1  0  0  0  0
 21 20  1  0  0  0  0
 22 24  1  0  0  0  0
 22 16  1  0  0  0  0
 23 25  1  0  0  0  0
 24 23  3  0  0  0  0
 26 25  1  0  0  0  0
 27 26  1  0  0  0  0
 29 30  2  6  0  0  0
 29 27  1  0  0  0  0
 29 31  1  0  0  0  0
 29 28  1  0  0  0  0
 31 32  1  1  0  0  0
 31 33  1  0  0  0  0
 33 34  1  6  0  0  0
 33 36  1  0  0  0  0
 36 35  1  1  0  0  0
 36 39  1  0  0  0  0
 38 39  2  0  0  0  0
 39 37  1  0  0  0  0
 40 41  1  0  0  0  0
 43 48  1  0  0  0  0
 43 45  1  0  0  0  0
 44 43  1  0  0  0  0
 46 44  1  0  0  0  0
 46 47  1  0  0  0  0
 46 42  1  1  0  0  0
 47 41  1  6  0  0  0
 47 49  1  0  0  0  0
 48 50  2  0  0  0  0
 49 48  1  0  0  0  0
M  END
>  <MODEL>
8

>  <REMARK>
 VINA RESULT:      -5.7      3.320      8.191
  Name = 
  18 active torsions:
  status: ('A' for Active; 'I' for Inactive)
    1  A    between atoms: O_1  and  C_10
    2  A    between atoms: O_1  and  C_34
    3  A    between atoms: O_2  and  C_13
    4  A    between atoms: C_3  and  C_42
    5  A    between atoms: C_5  and  C_8
    6  A    between atoms: C_5  and  C_27
    7  A    between atoms: C_8  and  P_36
    8  A    between atoms: C_9  and  C_37
    9  A    between atoms: C_10  and  C_32
   10  A    between atoms: C_13  and  C_35
   11  A    between atoms: N_18  and  P_36
   12  A    between atoms: N_18  and  C_43
   13  A    between atoms: C_26  and  C_32
   14  A    between atoms: C_26  and  N_41
   15  A    between atoms: C_27  and  C_40
   16  A    between atoms: C_30  and  C_35
   17  A    between atoms: C_37  and  C_43
   18  A    between atoms: C_42  and  C_49
                            x       y       z     vdW  Elec       q    Type
                         _______ _______ _______ _____ _____    ______ ____

>  <TORSDO>
F 18

$$$$
=
 OpenBabel11042419493D

 50 52  0  0  1  0  0  0  0  0999 V2000
  193.5500  174.1280  141.2680 C   0  0  0  0  0  0  0  0  0  0  0  0
  193.4960  175.4920  141.0550 O   0  0  0  0  0  0  0  0  0  0  0  0
  194.8730  173.5750  140.8820 C   0  0  0  0  0  2  0  0  0  0  0  0
  191.5990  172.7560  142.3250 C   0  0  0  0  0  0  0  0  0  0  0  0
  194.7260  175.8900  140.5590 C   0  0  0  0  0  3  0  0  0  0  0  0
  192.5740  173.4380  141.7840 C   0  0  0  0  0  0  0  0  0  0  0  0
  195.5400  174.8400  140.4500 C   0  0  0  0  0  0  0  0  0  0  0  0
  197.8950  174.0880  140.8330 C   0  0  0  0  0  1  0  0  0  0  0  0
  196.9560  174.8960  139.9520 C   0  0  1  0  0  3  0  0  0  0  0  0
  197.1170  174.5310  138.4700 C   0  0  0  0  0  3  0  0  0  0  0  0
  197.5540  172.7430  136.7610 C   0  0  0  0  0  2  0  0  0  0  0  0
  197.3650  173.0340  138.2460 C   0  0  0  0  0  2  0  0  0  0  0  0
  195.9130  175.0110  137.6570 C   0  0  0  0  0  2  0  0  0  0  0  0
  196.3330  173.2100  135.9720 C   0  0  0  0  0  2  0  0  0  0  0  0
  196.1170  174.7070  136.1770 C   0  0  0  0  0  2  0  0  0  0  0  0
  189.2640  173.0980  141.5750 C   0  0  0  0  0  0  0  0  0  0  0  0
  190.4120  172.3760  141.5170 C   0  0  0  0  0  0  0  0  0  0  0  0
  188.1260  172.8210  140.7980 O   0  0  0  0  0  0  0  0  0  0  0  0
  188.0980  172.7220  139.3800 C   0  0  0  0  0  1  0  0  0  0  0  0
  191.1610  170.0900  141.1040 O   0  0  0  0  0  1  0  0  0  0  0  0
  190.4750  171.1890  140.7140 N   0  0  0  0  0  2  0  0  0  0  0  0
  189.1320  174.2480  142.5250 C   0  0  0  0  0  2  0  0  0  0  0  0
  187.4740  176.0800  141.5110 C   0  0  0  0  0  0  0  0  0  0  0  0
  188.2220  175.2550  141.9750 C   0  0  0  0  0  0  0  0  0  0  0  0
  186.5630  177.0740  140.9400 C   0  0  0  0  0  2  0  0  0  0  0  0
  186.1390  178.0760  141.9990 C   0  0  0  0  0  2  0  0  0  0  0  0
  185.2780  177.4330  142.9790 N   0  0  0  0  0  2  0  0  0  0  0  0
  183.5230  179.0050  144.2430 O   0  0  0  0  0  1  0  0  0  0  0  0
  184.9790  178.5980  144.2550 P   0  0  2  0  0  0  0  0  0  0  0  0
  185.9420  179.9690  144.0130 O   0  0  0  0  0  0  0  0  0  0  0  0
  185.3730  177.8480  145.8680 C   0  0  1  0  0  3  0  0  0  0  0  0
  185.0440  176.4910  145.8240 O   0  0  0  0  0  1  0  0  0  0  0  0
  186.8580  178.0270  146.2220 C   0  0  1  0  0  3  0  0  0  0  0  0
  187.0370  177.9870  147.6060 O   0  0  0  0  0  1  0  0  0  0  0  0
  188.1540  175.8640  146.5210 C   0  0  0  0  0  1  0  0  0  0  0  0
  187.7840  176.9910  145.5700 C   0  0  2  0  0  3  0  0  0  0  0  0
  190.2190  177.5430  145.5640 O   0  0  0  0  0  1  0  0  0  0  0  0
  188.9140  178.1090  143.7700 O   0  0  0  0  0  0  0  0  0  0  0  0
  188.9930  177.5930  144.9160 C   0  0  0  0  0  0  0  0  0  0  0  0
  191.5990  172.5640  143.8060 C   0  0  0  0  0  2  0  0  0  0  0  0
  192.9070  172.3620  144.2750 O   0  0  0  0  0  0  0  0  0  0  0  0
  192.0200  174.9150  146.8340 C   0  0  0  0  0  1  0  0  0  0  0  0
  194.3640  175.7760  145.0840 N   0  0  0  0  0  0  0  0  0  0  0  0
  192.9870  175.6000  144.6350 C   0  0  0  0  0  2  0  0  0  0  0  0
  194.9410  177.1090  145.0710 C   0  0  0  0  0  1  0  0  0  0  0  0
  192.2900  174.4780  145.4060 C   0  0  1  0  0  3  0  0  0  0  0  0
  193.1330  173.1890  145.3980 C   0  0  2  0  0  3  0  0  0  0  0  0
  195.1450  174.6370  145.4720 C   0  0  0  0  0  0  0  0  0  0  0  0
  194.5270  173.3990  145.6560 O   0  0  0  0  0  0  0  0  0  0  0  0
  196.3810  174.7530  145.6910 O   0  0  0  0  0  0  0  0  0  0  0  0
  1  6  2  0  0  0  0
  2  1  1  0  0  0  0
  3  1  1  0  0  0  0
  4 40  1  0  0  0  0
  5  2  1  0  0  0  0
  6  4  2  0  0  0  0
  7  5  2  0  0  0  0
  7  3  1  0  0  0  0
  9  7  1  0  0  0  0
  9  8  1  1  0  0  0
 10  9  1  0  0  0  0
 11 12  1  0  0  0  0
 12 10  1  0  0  0  0
 13 10  1  0  0  0  0
 14 15  1  0  0  0  0
 14 11  1  0  0  0  0
 15 13  1  0  0  0  0
 16 22  1  0  0  0  0
 17 16  2  0  0  0  0
 17  4  1  0  0  0  0
 18 16  1  0  0  0  0
 19 18  1  0  0  0  0
 21 20  1  0  0  0  0
 21 17  1  0  0  0  0
 23 24  3  0  0  0  0
 24 22  1  0  0  0  0
 25 23  1  0  0  0  0
 25 26  1  0  0  0  0
 26 27  1  0  0  0  0
 27 29  1  0  0  0  0
 28 29  1  0  0  0  0
 29 30  2  6  0  0  0
 29 31  1  0  0  0  0
 31 32  1  6  0  0  0
 31 33  1  0  0  0  0
 33 34  1  1  0  0  0
 36 33  1  0  0  0  0
 36 35  1  1  0  0  0
 38 39  2  0  0  0  0
 39 37  1  0  0  0  0
 39 36  1  0  0  0  0
 40 41  1  0  0  0  0
 43 48  1  0  0  0  0
 44 43  1  0  0  0  0
 44 46  1  0  0  0  0
 45 43  1  0  0  0  0
 46 42  1  1  0  0  0
 47 41  1  6  0  0  0
 47 46  1  0  0  0  0
 47 49  1  0  0  0  0
 48 49  1  0  0  0  0
 48 50  2  0  0  0  0
M  END
>  <MODEL>
9

>  <REMARK>
 VINA RESULT:      -5.7      2.934      8.865
  Name = 
  18 active torsions:
  status: ('A' for Active; 'I' for Inactive)
    1  A    between atoms: O_1  and  C_10
    2  A    between atoms: O_1  and  C_34
    3  A    between atoms: O_2  and  C_13
    4  A    between atoms: C_3  and  C_42
    5  A    between atoms: C_5  and  C_8
    6  A    between atoms: C_5  and  C_27
    7  A    between atoms: C_8  and  P_36
    8  A    between atoms: C_9  and  C_37
    9  A    between atoms: C_10  and  C_32
   10  A    between atoms: C_13  and  C_35
   11  A    between atoms: N_18  and  P_36
   12  A    between atoms: N_18  and  C_43
   13  A    between atoms: C_26  and  C_32
   14  A    between atoms: C_26  and  N_41
   15  A    between atoms: C_27  and  C_40
   16  A    between atoms: C_30  and  C_35
   17  A    between atoms: C_37  and  C_43
   18  A    between atoms: C_42  and  C_49
                            x       y       z     vdW  Elec       q    Type
                         _______ _______ _______ _____ _____    ______ ____

>  <TORSDO>
F 18

$$$$
