=
 OpenBabel11042414293D

 52 58  0  0  1  0  0  0  0  0999 V2000
  191.8760  175.0330  142.5120 C   0  0  1  0  0  3  0  0  0  0  0  0
  191.9360  171.2370  141.9490 C   0  0  0  0  0  3  0  0  0  0  0  0
  193.0900  173.1260  143.6370 C   0  0  0  0  0  3  0  0  0  0  0  0
  193.3890  171.7730  143.8050 C   0  0  0  0  0  0  0  0  0  0  0  0
  191.6070  172.5920  141.7800 C   0  0  0  0  0  0  0  0  0  0  0  0
  192.2150  173.5560  142.6260 C   0  0  0  0  0  0  0  0  0  0  0  0
  192.8200  170.8300  142.9520 C   0  0  0  0  0  3  0  0  0  0  0  0
  190.5950  172.9680  140.7540 C   0  0  0  0  0  0  0  0  0  0  0  0
  189.9580  173.6770  138.4970 C   0  0  0  0  0  0  0  0  0  0  0  0
  189.2310  172.8200  141.0560 C   0  0  0  0  0  3  0  0  0  0  0  0
  188.2460  173.0910  140.1020 C   0  0  0  0  0  3  0  0  0  0  0  0
  188.6100  173.5080  138.8200 C   0  0  0  0  0  3  0  0  0  0  0  0
  190.9580  173.4330  139.4640 C   0  0  0  0  0  0  0  0  0  0  0  0
  192.2900  173.6500  139.0950 C   0  0  0  0  0  3  0  0  0  0  0  0
  192.6020  174.0890  137.8060 C   0  0  0  0  0  0  0  0  0  0  0  0
  191.5850  174.2700  136.9130 N   0  0  0  0  0  0  0  0  0  0  0  0
  190.3100  174.0730  137.2460 N   0  0  0  0  0  0  0  0  0  0  0  0
  194.9730  174.4370  138.3660 N   0  0  0  0  0  0  0  0  0  0  0  0
  196.5780  174.8810  136.7170 N   0  0  0  0  0  0  0  0  0  0  0  0
  196.2600  174.6800  138.0230 C   0  0  0  0  0  3  0  0  0  0  0  0
  195.6400  174.8450  135.7700 N   0  0  0  0  0  0  0  0  0  0  0  0
  193.9940  174.4000  137.4210 C   0  0  0  0  0  0  0  0  0  0  0  0
  194.3390  174.6080  136.0820 C   0  0  0  0  0  3  0  0  0  0  0  0
  194.3260  171.3420  144.8800 C   0  0  0  0  0  2  0  0  0  0  0  0
  195.2590  170.4390  144.3670 O   0  0  0  0  0  0  0  0  0  0  0  0
  196.7760  171.1750  146.0400 C   0  0  0  0  0  1  0  0  0  0  0  0
  196.4920  171.0610  144.5580 C   0  0  0  0  0  2  0  0  0  0  0  0
  189.3410  176.5290  145.6680 C   0  0  0  0  0  0  0  0  0  0  0  0
  190.2730  177.3640  145.0410 C   0  0  0  0  0  3  0  0  0  0  0  0
  191.0780  176.8680  144.0120 C   0  0  0  0  0  3  0  0  0  0  0  0
  189.2430  175.1880  145.2830 C   0  0  0  0  0  3  0  0  0  0  0  0
  190.0570  174.6880  144.2600 C   0  0  0  0  0  3  0  0  0  0  0  0
  190.9660  175.5350  143.6020 C   0  0  0  0  0  0  0  0  0  0  0  0
  188.5030  177.0330  146.8010 C   0  0  0  0  0  2  0  0  0  0  0  0
  187.3490  176.1660  147.0260 N   0  0  0  0  0  2  0  0  0  0  0  0
  186.2390  177.0060  147.4720 C   0  0  2  0  0  3  0  0  0  0  0  0
  185.5010  179.2420  147.3770 N   0  0  0  0  0  2  0  0  0  0  0  0
  185.1260  177.0400  146.5280 N   0  0  2  0  0  0  0  0  0  0  0  0
  186.6720  178.4330  147.6610 C   0  0  0  0  0  2  0  0  0  0  0  0
  184.7600  177.8520  144.4360 N   0  0  0  0  0  2  0  0  0  0  0  0
  185.6130  177.0370  145.2030 N   0  0  0  0  0  2  0  0  0  0  0  0
  184.2550  178.8660  145.3390 C   0  0  0  0  0  2  0  0  0  0  0  0
  184.5380  178.3580  146.7180 C   0  0  2  0  0  3  0  0  0  0  0  0
  193.0600  175.9410  142.3320 C   0  0  0  0  0  3  0  0  0  0  0  0
  194.1210  175.5570  141.6220 C   0  0  0  0  0  3  0  0  0  0  0  0
  195.4930  176.6780  141.3790 S   0  0  0  0  0  0  0  0  0  0  0  0
  195.7890  175.1660  143.5730 N   0  0  0  0  0  0  0  0  0  0  0  0
  196.2420  176.1920  142.9270 C   0  0  0  0  0  3  0  0  0  0  0  0
  197.5650  174.4670  144.9410 O   0  0  0  0  0  0  0  0  0  0  0  0
  196.3390  174.7530  144.8290 C   0  0  0  0  0  0  0  0  0  0  0  0
  194.4320  175.8040  145.9800 C   0  0  0  0  0  1  0  0  0  0  0  0
  195.4620  174.6850  146.0310 C   0  0  0  0  0  2  0  0  0  0  0  0
  1 44  1  1  0  0  0
  1  6  1  0  0  0  0
  1 33  1  0  0  0  0
  2  7  1  0  0  0  0
  3  4  1  0  0  0  0
  4 24  1  0  0  0  0
  5  2  2  0  0  0  0
  5  6  1  0  0  0  0
  6  3  2  0  0  0  0
  7  4  2  0  0  0  0
  8 10  1  0  0  0  0
  8  5  1  0  0  0  0
  9 12  2  0  0  0  0
  9 13  1  0  0  0  0
 11 10  2  0  0  0  0
 12 11  1  0  0  0  0
 13  8  2  0  0  0  0
 14 13  1  0  0  0  0
 15 14  2  0  0  0  0
 16 17  2  0  0  0  0
 16 15  1  0  0  0  0
 17  9  1  0  0  0  0
 19 20  2  0  0  0  0
 20 18  1  0  0  0  0
 21 23  2  0  0  0  0
 21 19  1  0  0  0  0
 22 15  1  0  0  0  0
 22 18  2  0  0  0  0
 23 22  1  0  0  0  0
 25 27  1  0  0  0  0
 25 24  1  0  0  0  0
 27 26  1  0  0  0  0
 28 34  1  0  0  0  0
 29 28  2  0  0  0  0
 30 29  1  0  0  0  0
 31 28  1  0  0  0  0
 32 31  2  0  0  0  0
 33 30  2  0  0  0  0
 33 32  1  0  0  0  0
 34 35  1  0  0  0  0
 36 35  1  6  0  0  0
 36 39  1  0  0  0  0
 37 39  1  0  0  0  0
 38 41  1  6  0  0  0
 38 43  1  0  0  0  0
 38 36  1  0  0  0  0
 40 41  1  0  0  0  0
 40 42  1  0  0  0  0
 43 42  1  6  0  0  0
 43 37  1  0  0  0  0
 45 44  2  0  0  0  0
 46 45  1  0  0  0  0
 46 48  1  0  0  0  0
 47 50  1  0  0  0  0
 48 47  2  0  0  0  0
 50 49  2  0  0  0  0
 50 52  1  0  0  0  0
 51 52  1  0  0  0  0
M  END
>  <MODEL>
1

>  <REMARK>
 VINA RESULT:      -7.2      0.000      0.000
  Name = 
  15 active torsions:
  status: ('A' for Active; 'I' for Inactive)
    1  A    between atoms: N_1  and  C_32
    2  A    between atoms: C_2  and  N_43
    3  A    between atoms: C_3  and  C_24
    4  A    between atoms: C_8  and  C_34
    5  A    between atoms: C_10  and  C_19
    6  A    between atoms: C_10  and  O_26
    7  A    between atoms: C_14  and  C_27
    8  A    between atoms: C_14  and  C_31
    9  A    between atoms: C_14  and  C_50
   10  A    between atoms: C_18  and  C_42
   11  A    between atoms: S_25  and  C_37
   12  A    between atoms: S_25  and  C_52
   13  A    between atoms: O_26  and  C_47
   14  A    between atoms: C_32  and  C_36
   15  A    between atoms: C_34  and  N_43
                            x       y       z     vdW  Elec       q    Type
                         _______ _______ _______ _____ _____    ______ ____

>  <TORSDO>
F 15

$$$$
=
 OpenBabel11042414293D

 52 58  0  0  1  0  0  0  0  0999 V2000
  192.1860  174.4430  143.5980 C   0  0  1  0  0  3  0  0  0  0  0  0
  191.8260  170.6650  143.0240 C   0  0  0  0  0  3  0  0  0  0  0  0
  193.4360  172.4250  144.4600 C   0  0  0  0  0  3  0  0  0  0  0  0
  193.6500  171.0500  144.5630 C   0  0  0  0  0  0  0  0  0  0  0  0
  191.5830  172.0450  142.9250 C   0  0  0  0  0  0  0  0  0  0  0  0
  192.4190  172.9420  143.6390 C   0  0  0  0  0  0  0  0  0  0  0  0
  192.8520  170.1710  143.8350 C   0  0  0  0  0  3  0  0  0  0  0  0
  190.4250  172.5180  142.1170 C   0  0  0  0  0  0  0  0  0  0  0  0
  189.4190  173.3000  140.0240 C   0  0  0  0  0  0  0  0  0  0  0  0
  189.1400  172.4920  142.6850 C   0  0  0  0  0  3  0  0  0  0  0  0
  188.0150  172.8580  141.9420 C   0  0  0  0  0  3  0  0  0  0  0  0
  188.1520  173.2500  140.6100 C   0  0  0  0  0  3  0  0  0  0  0  0
  190.5650  172.9590  140.7750 C   0  0  0  0  0  0  0  0  0  0  0  0
  191.8120  173.0580  140.1480 C   0  0  0  0  0  3  0  0  0  0  0  0
  191.9000  173.4770  138.8180 C   0  0  0  0  0  0  0  0  0  0  0  0
  190.7460  173.7550  138.1430 N   0  0  0  0  0  0  0  0  0  0  0  0
  189.5500  173.6720  138.7240 N   0  0  0  0  0  0  0  0  0  0  0  0
  193.8770  172.5940  137.6490 N   0  0  0  0  0  0  0  0  0  0  0  0
  195.5810  174.0020  136.8700 N   0  0  0  0  0  0  0  0  0  0  0  0
  195.0590  172.7550  137.0080 C   0  0  0  0  0  3  0  0  0  0  0  0
  194.9460  175.0690  137.3580 N   0  0  0  0  0  0  0  0  0  0  0  0
  193.2100  173.6640  138.1620 C   0  0  0  0  0  0  0  0  0  0  0  0
  193.7610  174.9400  138.0100 C   0  0  0  0  0  3  0  0  0  0  0  0
  194.7390  170.5260  145.4350 C   0  0  0  0  0  2  0  0  0  0  0  0
  195.9830  170.9020  144.9240 O   0  0  0  0  0  0  0  0  0  0  0  0
  196.8400  172.7870  146.0870 C   0  0  0  0  0  1  0  0  0  0  0  0
  196.7240  171.2790  146.0430 C   0  0  0  0  0  2  0  0  0  0  0  0
  188.8920  175.6800  146.0960 C   0  0  0  0  0  0  0  0  0  0  0  0
  189.6820  174.5790  146.4460 C   0  0  0  0  0  3  0  0  0  0  0  0
  190.7540  174.1980  145.6330 C   0  0  0  0  0  3  0  0  0  0  0  0
  189.1580  176.3760  144.9130 C   0  0  0  0  0  3  0  0  0  0  0  0
  190.2240  175.9880  144.0920 C   0  0  0  0  0  3  0  0  0  0  0  0
  191.0430  174.9060  144.4620 C   0  0  0  0  0  0  0  0  0  0  0  0
  187.7150  176.0720  146.9330 C   0  0  0  0  0  2  0  0  0  0  0  0
  187.3020  177.4440  146.6480 N   0  0  0  0  0  2  0  0  0  0  0  0
  185.8780  177.4240  146.3210 C   0  0  2  0  0  3  0  0  0  0  0  0
  184.0140  178.8640  146.2330 N   0  0  0  0  0  2  0  0  0  0  0  0
  185.6070  177.6710  144.9090 N   0  0  2  0  0  0  0  0  0  0  0  0
  185.1260  178.4790  147.0830 C   0  0  0  0  0  2  0  0  0  0  0  0
  185.8020  179.4220  143.4720 N   0  0  0  0  0  2  0  0  0  0  0  0
  186.5050  178.6350  144.4020 N   0  0  0  0  0  2  0  0  0  0  0  0
  184.4240  179.4410  143.9200 C   0  0  0  0  0  2  0  0  0  0  0  0
  184.3030  178.3190  144.9040 C   0  0  2  0  0  3  0  0  0  0  0  0
  193.4140  175.2800  143.8260 C   0  0  0  0  0  3  0  0  0  0  0  0
  193.5140  176.0790  144.8880 C   0  0  0  0  0  3  0  0  0  0  0  0
  195.0090  177.0220  145.1640 S   0  0  0  0  0  0  0  0  0  0  0  0
  196.6270  176.3260  143.1430 N   0  0  0  0  0  0  0  0  0  0  0  0
  195.9760  175.8920  144.1730 C   0  0  0  0  0  3  0  0  0  0  0  0
  197.6820  175.7840  141.1160 O   0  0  0  0  0  0  0  0  0  0  0  0
  197.3940  175.4560  142.3030 C   0  0  0  0  0  0  0  0  0  0  0  0
  197.0870  173.0130  142.2250 C   0  0  0  0  0  1  0  0  0  0  0  0
  197.8840  174.1560  142.8390 C   0  0  0  0  0  2  0  0  0  0  0  0
  1  6  1  0  0  0  0
  1 44  1  1  0  0  0
  1 33  1  0  0  0  0
  2  7  1  0  0  0  0
  3  4  1  0  0  0  0
  4 24  1  0  0  0  0
  5  2  2  0  0  0  0
  5  6  1  0  0  0  0
  6  3  2  0  0  0  0
  7  4  2  0  0  0  0
  8 10  1  0  0  0  0
  8  5  1  0  0  0  0
  9 12  2  0  0  0  0
  9 13  1  0  0  0  0
 11 10  2  0  0  0  0
 12 11  1  0  0  0  0
 13  8  2  0  0  0  0
 14 13  1  0  0  0  0
 15 14  2  0  0  0  0
 16 17  2  0  0  0  0
 16 15  1  0  0  0  0
 17  9  1  0  0  0  0
 18 22  1  0  0  0  0
 19 20  1  0  0  0  0
 19 21  2  0  0  0  0
 20 18  2  0  0  0  0
 21 23  1  0  0  0  0
 22 15  1  0  0  0  0
 23 22  2  0  0  0  0
 25 24  1  0  0  0  0
 25 27  1  0  0  0  0
 27 26  1  0  0  0  0
 28 29  1  0  0  0  0
 28 34  1  0  0  0  0
 30 29  2  0  0  0  0
 31 28  2  0  0  0  0
 32 33  2  0  0  0  0
 32 31  1  0  0  0  0
 33 30  1  0  0  0  0
 35 34  1  0  0  0  0
 36 35  1  6  0  0  0
 36 39  1  0  0  0  0
 37 39  1  0  0  0  0
 38 41  1  1  0  0  0
 38 36  1  0  0  0  0
 40 42  1  0  0  0  0
 40 41  1  0  0  0  0
 43 42  1  6  0  0  0
 43 38  1  0  0  0  0
 43 37  1  0  0  0  0
 44 45  2  0  0  0  0
 45 46  1  0  0  0  0
 47 48  2  0  0  0  0
 48 46  1  0  0  0  0
 49 50  2  0  0  0  0
 50 52  1  0  0  0  0
 50 47  1  0  0  0  0
 51 52  1  0  0  0  0
M  END
>  <MODEL>
2

>  <REMARK>
 VINA RESULT:      -7.0      1.563      2.063
  Name = 
  15 active torsions:
  status: ('A' for Active; 'I' for Inactive)
    1  A    between atoms: N_1  and  C_32
    2  A    between atoms: C_2  and  N_43
    3  A    between atoms: C_3  and  C_24
    4  A    between atoms: C_8  and  C_34
    5  A    between atoms: C_10  and  C_19
    6  A    between atoms: C_10  and  O_26
    7  A    between atoms: C_14  and  C_27
    8  A    between atoms: C_14  and  C_31
    9  A    between atoms: C_14  and  C_50
   10  A    between atoms: C_18  and  C_42
   11  A    between atoms: S_25  and  C_37
   12  A    between atoms: S_25  and  C_52
   13  A    between atoms: O_26  and  C_47
   14  A    between atoms: C_32  and  C_36
   15  A    between atoms: C_34  and  N_43
                            x       y       z     vdW  Elec       q    Type
                         _______ _______ _______ _____ _____    ______ ____

>  <TORSDO>
F 15

$$$$
=
 OpenBabel11042414293D

 52 58  0  0  1  0  0  0  0  0999 V2000
  188.6570  176.2070  143.4920 C   0  0  1  0  0  3  0  0  0  0  0  0
  190.1920  172.6900  143.4210 C   0  0  0  0  0  3  0  0  0  0  0  0
  188.7000  174.3620  141.7690 C   0  0  0  0  0  3  0  0  0  0  0  0
  189.0840  173.1010  141.3110 C   0  0  0  0  0  0  0  0  0  0  0  0
  189.8310  173.9650  143.8890 C   0  0  0  0  0  0  0  0  0  0  0  0
  189.0510  174.8060  143.0540 C   0  0  0  0  0  0  0  0  0  0  0  0
  189.8210  172.2600  142.1440 C   0  0  0  0  0  3  0  0  0  0  0  0
  190.3230  174.4100  145.2220 C   0  0  0  0  0  0  0  0  0  0  0  0
  191.9200  175.5860  146.6610 C   0  0  0  0  0  0  0  0  0  0  0  0
  189.5250  174.1780  146.3550 C   0  0  0  0  0  3  0  0  0  0  0  0
  189.9100  174.6400  147.6170 C   0  0  0  0  0  3  0  0  0  0  0  0
  191.1000  175.3540  147.7670 C   0  0  0  0  0  3  0  0  0  0  0  0
  191.5530  175.0980  145.3870 C   0  0  0  0  0  0  0  0  0  0  0  0
  192.4270  175.3320  144.3210 C   0  0  0  0  0  3  0  0  0  0  0  0
  193.6180  176.0320  144.5270 C   0  0  0  0  0  0  0  0  0  0  0  0
  193.8900  176.5060  145.7780 N   0  0  0  0  0  0  0  0  0  0  0  0
  193.0730  176.2890  146.8080 N   0  0  0  0  0  0  0  0  0  0  0  0
  194.1860  176.1460  142.1350 N   0  0  0  0  0  0  0  0  0  0  0  0
  196.3530  176.6550  141.4040 N   0  0  0  0  0  0  0  0  0  0  0  0
  195.0580  176.3570  141.1210 C   0  0  0  0  0  3  0  0  0  0  0  0
  196.7780  176.7410  142.6650 N   0  0  0  0  0  0  0  0  0  0  0  0
  194.5920  176.2210  143.4320 C   0  0  0  0  0  0  0  0  0  0  0  0
  195.9280  176.5300  143.7050 C   0  0  0  0  0  3  0  0  0  0  0  0
  188.6940  172.6490  139.9460 C   0  0  0  0  0  2  0  0  0  0  0  0
  188.5850  173.7470  139.0920 O   0  0  0  0  0  0  0  0  0  0  0  0
  189.7230  172.0410  137.8920 C   0  0  0  0  0  1  0  0  0  0  0  0
  189.5540  173.5290  138.1130 C   0  0  0  0  0  2  0  0  0  0  0  0
  185.2940  177.8910  141.3750 C   0  0  0  0  0  0  0  0  0  0  0  0
  186.6040  178.2750  141.0620 C   0  0  0  0  0  3  0  0  0  0  0  0
  187.6830  177.7110  141.7480 C   0  0  0  0  0  3  0  0  0  0  0  0
  185.0700  176.9660  142.4000 C   0  0  0  0  0  3  0  0  0  0  0  0
  186.1510  176.4100  143.0950 C   0  0  0  0  0  3  0  0  0  0  0  0
  187.4680  176.7650  142.7550 C   0  0  0  0  0  0  0  0  0  0  0  0
  184.1270  178.5190  140.6800 C   0  0  0  0  0  2  0  0  0  0  0  0
  182.8910  178.2970  141.4260 N   0  0  0  0  0  2  0  0  0  0  0  0
  181.7780  178.7500  140.5940 C   0  0  2  0  0  3  0  0  0  0  0  0
  179.6540  178.0420  139.8590 N   0  0  0  0  0  2  0  0  0  0  0  0
  180.7970  179.5440  141.3250 N   0  0  2  0  0  0  0  0  0  0  0  0
  181.0250  177.5890  140.0070 C   0  0  0  0  0  2  0  0  0  0  0  0
  179.2740  179.1780  142.9730 N   0  0  0  0  0  2  0  0  0  0  0  0
  180.6310  179.0310  142.6300 N   0  0  0  0  0  2  0  0  0  0  0  0
  178.5320  179.0820  141.7320 C   0  0  0  0  0  2  0  0  0  0  0  0
  179.5400  179.2740  140.6420 C   0  0  2  0  0  3  0  0  0  0  0  0
  188.5080  176.3870  144.9770 C   0  0  0  0  0  3  0  0  0  0  0  0
  188.4130  177.6020  145.5170 C   0  0  0  0  0  3  0  0  0  0  0  0
  188.1820  177.7850  147.2810 S   0  0  0  0  0  0  0  0  0  0  0  0
  185.8280  178.0830  146.0320 N   0  0  0  0  0  0  0  0  0  0  0  0
  186.5330  178.4380  147.0580 C   0  0  0  0  0  3  0  0  0  0  0  0
  183.5650  178.3580  146.5960 O   0  0  0  0  0  0  0  0  0  0  0  0
  184.5140  178.6000  145.7950 C   0  0  0  0  0  0  0  0  0  0  0  0
  185.5580  180.1230  144.1660 C   0  0  0  0  0  1  0  0  0  0  0  0
  184.2610  179.4580  144.6040 C   0  0  0  0  0  2  0  0  0  0  0  0
  1 44  1  1  0  0  0
  2  5  1  0  0  0  0
  3  6  1  0  0  0  0
  4  3  2  0  0  0  0
  4  7  1  0  0  0  0
  5  8  1  0  0  0  0
  6  1  1  0  0  0  0
  6  5  2  0  0  0  0
  7  2  2  0  0  0  0
  8 13  2  0  0  0  0
  8 10  1  0  0  0  0
  9 17  1  0  0  0  0
  9 12  2  0  0  0  0
 10 11  2  0  0  0  0
 11 12  1  0  0  0  0
 13  9  1  0  0  0  0
 14 15  2  0  0  0  0
 14 13  1  0  0  0  0
 15 16  1  0  0  0  0
 16 17  2  0  0  0  0
 18 22  1  0  0  0  0
 19 21  2  0  0  0  0
 20 19  1  0  0  0  0
 20 18  2  0  0  0  0
 21 23  1  0  0  0  0
 22 23  2  0  0  0  0
 22 15  1  0  0  0  0
 24  4  1  0  0  0  0
 25 24  1  0  0  0  0
 26 27  1  0  0  0  0
 27 25  1  0  0  0  0
 28 31  1  0  0  0  0
 29 28  2  0  0  0  0
 29 30  1  0  0  0  0
 30 33  2  0  0  0  0
 31 32  2  0  0  0  0
 33 32  1  0  0  0  0
 33  1  1  0  0  0  0
 34 28  1  0  0  0  0
 34 35  1  0  0  0  0
 36 38  1  0  0  0  0
 36 35  1  1  0  0  0
 37 39  1  0  0  0  0
 37 43  1  0  0  0  0
 38 41  1  1  0  0  0
 39 36  1  0  0  0  0
 41 40  1  0  0  0  0
 42 40  1  0  0  0  0
 43 38  1  0  0  0  0
 43 42  1  1  0  0  0
 44 45  2  0  0  0  0
 45 46  1  0  0  0  0
 47 48  2  0  0  0  0
 48 46  1  0  0  0  0
 50 47  1  0  0  0  0
 50 49  2  0  0  0  0
 51 52  1  0  0  0  0
 52 50  1  0  0  0  0
M  END
>  <MODEL>
3

>  <REMARK>
 VINA RESULT:      -6.8      4.207      7.627
  Name = 
  15 active torsions:
  status: ('A' for Active; 'I' for Inactive)
    1  A    between atoms: N_1  and  C_32
    2  A    between atoms: C_2  and  N_43
    3  A    between atoms: C_3  and  C_24
    4  A    between atoms: C_8  and  C_34
    5  A    between atoms: C_10  and  C_19
    6  A    between atoms: C_10  and  O_26
    7  A    between atoms: C_14  and  C_27
    8  A    between atoms: C_14  and  C_31
    9  A    between atoms: C_14  and  C_50
   10  A    between atoms: C_18  and  C_42
   11  A    between atoms: S_25  and  C_37
   12  A    between atoms: S_25  and  C_52
   13  A    between atoms: O_26  and  C_47
   14  A    between atoms: C_32  and  C_36
   15  A    between atoms: C_34  and  N_43
                            x       y       z     vdW  Elec       q    Type
                         _______ _______ _______ _____ _____    ______ ____

>  <TORSDO>
F 15

$$$$
=
 OpenBabel11042414293D

 52 58  0  0  1  0  0  0  0  0999 V2000
  192.6640  176.4650  143.0620 C   0  0  1  0  0  3  0  0  0  0  0  0
  194.5830  175.8900  146.3370 C   0  0  0  0  0  3  0  0  0  0  0  0
  192.0050  176.5270  145.4990 C   0  0  0  0  0  3  0  0  0  0  0  0
  192.2750  176.3860  146.8610 C   0  0  0  0  0  0  0  0  0  0  0  0
  194.3230  176.0060  144.9610 C   0  0  0  0  0  0  0  0  0  0  0  0
  193.0140  176.3550  144.5370 C   0  0  0  0  0  0  0  0  0  0  0  0
  193.5690  176.0790  147.2800 C   0  0  0  0  0  3  0  0  0  0  0  0
  195.4150  175.7110  143.9920 C   0  0  0  0  0  0  0  0  0  0  0  0
  196.7020  174.1780  142.5790 C   0  0  0  0  0  0  0  0  0  0  0  0
  196.1420  176.7780  143.4380 C   0  0  0  0  0  3  0  0  0  0  0  0
  197.1270  176.5560  142.4720 C   0  0  0  0  0  3  0  0  0  0  0  0
  197.3990  175.2590  142.0340 C   0  0  0  0  0  3  0  0  0  0  0  0
  195.7250  174.3900  143.5760 C   0  0  0  0  0  0  0  0  0  0  0  0
  195.0800  173.2690  144.1090 C   0  0  0  0  0  3  0  0  0  0  0  0
  195.4030  171.9880  143.6540 C   0  0  0  0  0  0  0  0  0  0  0  0
  196.3330  171.8620  142.6610 N   0  0  0  0  0  0  0  0  0  0  0  0
  196.9600  172.9180  142.1440 N   0  0  0  0  0  0  0  0  0  0  0  0
  193.6180  170.2990  143.7750 N   0  0  0  0  0  0  0  0  0  0  0  0
  193.7010  168.5230  145.3010 N   0  0  0  0  0  0  0  0  0  0  0  0
  193.0670  169.1750  144.2920 C   0  0  0  0  0  3  0  0  0  0  0  0
  194.8560  168.9750  145.7910 N   0  0  0  0  0  0  0  0  0  0  0  0
  194.7930  170.7870  144.2590 C   0  0  0  0  0  0  0  0  0  0  0  0
  195.4320  170.1020  145.2970 C   0  0  0  0  0  3  0  0  0  0  0  0
  191.1910  176.5810  147.8640 C   0  0  0  0  0  2  0  0  0  0  0  0
  189.9450  176.3860  147.2650 O   0  0  0  0  0  0  0  0  0  0  0  0
  189.3160  174.3270  146.2590 C   0  0  0  0  0  1  0  0  0  0  0  0
  189.6230  175.0590  147.5480 C   0  0  0  0  0  2  0  0  0  0  0  0
  192.3650  172.7060  140.9630 C   0  0  0  0  0  0  0  0  0  0  0  0
  193.1420  173.7530  140.4520 C   0  0  0  0  0  3  0  0  0  0  0  0
  193.2390  174.9600  141.1500 C   0  0  0  0  0  3  0  0  0  0  0  0
  191.6610  172.8860  142.1580 C   0  0  0  0  0  3  0  0  0  0  0  0
  191.7490  174.0990  142.8520 C   0  0  0  0  0  3  0  0  0  0  0  0
  192.5590  175.1370  142.3600 C   0  0  0  0  0  0  0  0  0  0  0  0
  192.2170  171.4240  140.2060 C   0  0  0  0  0  2  0  0  0  0  0  0
  190.8550  171.2710  139.6980 N   0  0  0  0  0  2  0  0  0  0  0  0
  190.7750  171.9650  138.4140 C   0  0  2  0  0  3  0  0  0  0  0  0
  189.3170  172.2340  136.5830 N   0  0  0  0  0  2  0  0  0  0  0  0
  190.2140  173.3080  138.5190 N   0  0  2  0  0  0  0  0  0  0  0  0
  189.9020  171.2210  137.4420 C   0  0  0  0  0  2  0  0  0  0  0  0
  188.1920  174.2190  139.0160 N   0  0  0  0  0  2  0  0  0  0  0  0
  189.1790  173.3300  139.4790 N   0  0  0  0  0  2  0  0  0  0  0  0
  188.2470  174.1650  137.5690 C   0  0  0  0  0  2  0  0  0  0  0  0
  189.5570  173.5210  137.2380 C   0  0  2  0  0  3  0  0  0  0  0  0
  191.4770  177.3350  142.7580 C   0  0  0  0  0  3  0  0  0  0  0  0
  190.2380  176.8450  142.7890 C   0  0  0  0  0  3  0  0  0  0  0  0
  188.8400  177.9160  142.4760 S   0  0  0  0  0  0  0  0  0  0  0  0
  186.9700  177.8620  144.3960 N   0  0  0  0  0  0  0  0  0  0  0  0
  188.2280  177.7010  144.1420 C   0  0  0  0  0  3  0  0  0  0  0  0
  187.1630  177.9160  146.7360 O   0  0  0  0  0  0  0  0  0  0  0  0
  186.4360  177.7280  145.7180 C   0  0  0  0  0  0  0  0  0  0  0  0
  184.1890  178.6650  146.0870 C   0  0  0  0  0  1  0  0  0  0  0  0
  184.9970  177.3890  145.9030 C   0  0  0  0  0  2  0  0  0  0  0  0
  1 44  1  1  0  0  0
  1  6  1  0  0  0  0
  2  7  1  0  0  0  0
  3  4  1  0  0  0  0
  4  7  2  0  0  0  0
  4 24  1  0  0  0  0
  5  2  2  0  0  0  0
  6  5  1  0  0  0  0
  6  3  2  0  0  0  0
  8  5  1  0  0  0  0
  9 13  1  0  0  0  0
 10  8  2  0  0  0  0
 11 10  1  0  0  0  0
 12 11  2  0  0  0  0
 12  9  1  0  0  0  0
 13  8  1  0  0  0  0
 13 14  2  0  0  0  0
 15 14  1  0  0  0  0
 15 22  1  0  0  0  0
 16 15  2  0  0  0  0
 17  9  2  0  0  0  0
 17 16  1  0  0  0  0
 18 22  2  0  0  0  0
 18 20  1  0  0  0  0
 19 21  1  0  0  0  0
 20 19  2  0  0  0  0
 22 23  1  0  0  0  0
 23 21  2  0  0  0  0
 25 27  1  0  0  0  0
 25 24  1  0  0  0  0
 26 27  1  0  0  0  0
 28 31  1  0  0  0  0
 29 28  2  0  0  0  0
 29 30  1  0  0  0  0
 30 33  2  0  0  0  0
 31 32  2  0  0  0  0
 33 32  1  0  0  0  0
 33  1  1  0  0  0  0
 34 28  1  0  0  0  0
 35 34  1  0  0  0  0
 36 38  1  0  0  0  0
 36 35  1  1  0  0  0
 37 43  1  0  0  0  0
 37 39  1  0  0  0  0
 38 41  1  1  0  0  0
 39 36  1  0  0  0  0
 40 41  1  0  0  0  0
 42 40  1  0  0  0  0
 43 42  1  1  0  0  0
 43 38  1  0  0  0  0
 44 45  2  0  0  0  0
 46 45  1  0  0  0  0
 46 48  1  0  0  0  0
 47 50  1  0  0  0  0
 48 47  2  0  0  0  0
 50 52  1  0  0  0  0
 50 49  2  0  0  0  0
 52 51  1  0  0  0  0
M  END
>  <MODEL>
4

>  <REMARK>
 VINA RESULT:      -6.7      3.167      8.244
  Name = 
  15 active torsions:
  status: ('A' for Active; 'I' for Inactive)
    1  A    between atoms: N_1  and  C_32
    2  A    between atoms: C_2  and  N_43
    3  A    between atoms: C_3  and  C_24
    4  A    between atoms: C_8  and  C_34
    5  A    between atoms: C_10  and  C_19
    6  A    between atoms: C_10  and  O_26
    7  A    between atoms: C_14  and  C_27
    8  A    between atoms: C_14  and  C_31
    9  A    between atoms: C_14  and  C_50
   10  A    between atoms: C_18  and  C_42
   11  A    between atoms: S_25  and  C_37
   12  A    between atoms: S_25  and  C_52
   13  A    between atoms: O_26  and  C_47
   14  A    between atoms: C_32  and  C_36
   15  A    between atoms: C_34  and  N_43
                            x       y       z     vdW  Elec       q    Type
                         _______ _______ _______ _____ _____    ______ ____

>  <TORSDO>
F 15

$$$$
=
 OpenBabel11042414293D

 52 58  0  0  1  0  0  0  0  0999 V2000
  190.2010  174.1380  144.0460 C   0  0  1  0  0  3  0  0  0  0  0  0
  190.7220  177.7800  142.9530 C   0  0  0  0  0  3  0  0  0  0  0  0
  188.8550  175.7400  142.6320 C   0  0  0  0  0  3  0  0  0  0  0  0
  188.6250  176.9870  142.0480 C   0  0  0  0  0  0  0  0  0  0  0  0
  190.9580  176.5390  143.5660 C   0  0  0  0  0  0  0  0  0  0  0  0
  190.0170  175.4930  143.3820 C   0  0  0  0  0  0  0  0  0  0  0  0
  189.5660  178.0030  142.1990 C   0  0  0  0  0  3  0  0  0  0  0  0
  192.1600  176.3770  144.4300 C   0  0  0  0  0  0  0  0  0  0  0  0
  194.5750  176.1180  144.7560 C   0  0  0  0  0  0  0  0  0  0  0  0
  192.0170  176.4780  145.8240 C   0  0  0  0  0  3  0  0  0  0  0  0
  193.1260  176.4040  146.6710 C   0  0  0  0  0  3  0  0  0  0  0  0
  194.4050  176.2360  146.1370 C   0  0  0  0  0  3  0  0  0  0  0  0
  193.4570  176.1630  143.8940 C   0  0  0  0  0  0  0  0  0  0  0  0
  193.6820  176.0070  142.5220 C   0  0  0  0  0  3  0  0  0  0  0  0
  194.9790  175.8190  142.0380 C   0  0  0  0  0  0  0  0  0  0  0  0
  196.0160  175.8230  142.9270 N   0  0  0  0  0  0  0  0  0  0  0  0
  195.8210  175.9650  144.2370 N   0  0  0  0  0  0  0  0  0  0  0  0
  196.5010  175.5870  140.1190 N   0  0  0  0  0  0  0  0  0  0  0  0
  195.7170  175.0340  137.9810 N   0  0  0  0  0  0  0  0  0  0  0  0
  196.7510  175.3230  138.8140 C   0  0  0  0  0  3  0  0  0  0  0  0
  194.4610  175.0080  138.4290 N   0  0  0  0  0  0  0  0  0  0  0  0
  195.2300  175.5730  140.6030 C   0  0  0  0  0  0  0  0  0  0  0  0
  194.1780  175.2730  139.7320 C   0  0  0  0  0  3  0  0  0  0  0  0
  187.3890  177.2230  141.2510 C   0  0  0  0  0  2  0  0  0  0  0  0
  186.2630  176.8830  142.0030 O   0  0  0  0  0  0  0  0  0  0  0  0
  185.9500  179.1070  142.7780 C   0  0  0  0  0  1  0  0  0  0  0  0
  185.4240  177.9920  141.9000 C   0  0  0  0  0  2  0  0  0  0  0  0
  193.8620  172.1320  142.9510 C   0  0  0  0  0  0  0  0  0  0  0  0
  192.9420  172.5310  141.9740 C   0  0  0  0  0  3  0  0  0  0  0  0
  191.7680  173.1910  142.3430 C   0  0  0  0  0  3  0  0  0  0  0  0
  193.5820  172.3670  144.3020 C   0  0  0  0  0  3  0  0  0  0  0  0
  192.3990  173.0180  144.6720 C   0  0  0  0  0  3  0  0  0  0  0  0
  191.4940  173.4550  143.6890 C   0  0  0  0  0  0  0  0  0  0  0  0
  195.1020  171.3860  142.5750 C   0  0  0  0  0  2  0  0  0  0  0  0
  195.0080  169.9810  142.9660 N   0  0  0  0  0  2  0  0  0  0  0  0
  196.2660  169.6100  143.6110 C   0  0  2  0  0  3  0  0  0  0  0  0
  197.8080  170.4340  145.1910 N   0  0  0  0  0  2  0  0  0  0  0  0
  196.0820  168.8230  144.8250 N   0  0  2  0  0  0  0  0  0  0  0  0
  197.0530  170.8260  144.0150 C   0  0  0  0  0  2  0  0  0  0  0  0
  195.2410  169.1720  146.9080 N   0  0  0  0  0  2  0  0  0  0  0  0
  194.9510  169.2810  145.5360 N   0  0  0  0  0  2  0  0  0  0  0  0
  196.6730  169.3530  147.0330 C   0  0  0  0  0  2  0  0  0  0  0  0
  197.2260  169.1720  145.6540 C   0  0  2  0  0  3  0  0  0  0  0  0
  189.9730  174.1270  145.5320 C   0  0  0  0  0  3  0  0  0  0  0  0
  189.0240  174.8790  146.0880 C   0  0  0  0  0  3  0  0  0  0  0  0
  188.7380  174.8050  147.8520 S   0  0  0  0  0  0  0  0  0  0  0  0
  187.3360  176.8370  146.8070 N   0  0  0  0  0  0  0  0  0  0  0  0
  187.3600  175.9380  147.7360 C   0  0  0  0  0  3  0  0  0  0  0  0
  186.3040  178.8860  147.3080 O   0  0  0  0  0  0  0  0  0  0  0  0
  186.2680  177.7840  146.6890 C   0  0  0  0  0  0  0  0  0  0  0  0
  184.0190  178.5240  146.0120 C   0  0  0  0  0  1  0  0  0  0  0  0
  185.1090  177.4830  145.8030 C   0  0  0  0  0  2  0  0  0  0  0  0
  1 44  1  1  0  0  0
  2  5  1  0  0  0  0
  3  6  1  0  0  0  0
  4  7  1  0  0  0  0
  4  3  2  0  0  0  0
  5  8  1  0  0  0  0
  6  5  2  0  0  0  0
  6  1  1  0  0  0  0
  7  2  2  0  0  0  0
  8 10  1  0  0  0  0
  9 12  2  0  0  0  0
 10 11  2  0  0  0  0
 12 11  1  0  0  0  0
 13  8  2  0  0  0  0
 13  9  1  0  0  0  0
 14 13  1  0  0  0  0
 15 14  2  0  0  0  0
 15 16  1  0  0  0  0
 16 17  2  0  0  0  0
 17  9  1  0  0  0  0
 18 22  1  0  0  0  0
 19 21  2  0  0  0  0
 19 20  1  0  0  0  0
 20 18  2  0  0  0  0
 21 23  1  0  0  0  0
 22 15  1  0  0  0  0
 23 22  2  0  0  0  0
 24 25  1  0  0  0  0
 24  4  1  0  0  0  0
 27 25  1  0  0  0  0
 27 26  1  0  0  0  0
 28 31  1  0  0  0  0
 29 30  1  0  0  0  0
 29 28  2  0  0  0  0
 30 33  2  0  0  0  0
 31 32  2  0  0  0  0
 33  1  1  0  0  0  0
 33 32  1  0  0  0  0
 34 28  1  0  0  0  0
 34 35  1  0  0  0  0
 36 35  1  1  0  0  0
 36 39  1  0  0  0  0
 36 38  1  0  0  0  0
 37 43  1  0  0  0  0
 38 41  1  1  0  0  0
 38 43  1  0  0  0  0
 39 37  1  0  0  0  0
 40 42  1  0  0  0  0
 41 40  1  0  0  0  0
 43 42  1  1  0  0  0
 44 45  2  0  0  0  0
 45 46  1  0  0  0  0
 47 48  2  0  0  0  0
 48 46  1  0  0  0  0
 50 47  1  0  0  0  0
 50 49  2  0  0  0  0
 52 51  1  0  0  0  0
 52 50  1  0  0  0  0
M  END
>  <MODEL>
5

>  <REMARK>
 VINA RESULT:      -6.7      3.643      8.978
  Name = 
  15 active torsions:
  status: ('A' for Active; 'I' for Inactive)
    1  A    between atoms: N_1  and  C_32
    2  A    between atoms: C_2  and  N_43
    3  A    between atoms: C_3  and  C_24
    4  A    between atoms: C_8  and  C_34
    5  A    between atoms: C_10  and  C_19
    6  A    between atoms: C_10  and  O_26
    7  A    between atoms: C_14  and  C_27
    8  A    between atoms: C_14  and  C_31
    9  A    between atoms: C_14  and  C_50
   10  A    between atoms: C_18  and  C_42
   11  A    between atoms: S_25  and  C_37
   12  A    between atoms: S_25  and  C_52
   13  A    between atoms: O_26  and  C_47
   14  A    between atoms: C_32  and  C_36
   15  A    between atoms: C_34  and  N_43
                            x       y       z     vdW  Elec       q    Type
                         _______ _______ _______ _____ _____    ______ ____

>  <TORSDO>
F 15

$$$$
=
 OpenBabel11042414293D

 52 58  0  0  1  0  0  0  0  0999 V2000
  192.3380  174.5940  142.8760 C   0  0  1  0  0  3  0  0  0  0  0  0
  193.0350  175.3660  146.5710 C   0  0  0  0  0  3  0  0  0  0  0  0
  190.8870  174.6750  144.9410 C   0  0  0  0  0  3  0  0  0  0  0  0
  190.6870  174.8480  146.3110 C   0  0  0  0  0  0  0  0  0  0  0  0
  193.2570  175.1750  145.1970 C   0  0  0  0  0  0  0  0  0  0  0  0
  192.1560  174.8460  144.3640 C   0  0  0  0  0  0  0  0  0  0  0  0
  191.7610  175.2060  147.1240 C   0  0  0  0  0  3  0  0  0  0  0  0
  194.6460  175.2730  144.6690 C   0  0  0  0  0  0  0  0  0  0  0  0
  196.8170  174.2960  144.0890 C   0  0  0  0  0  0  0  0  0  0  0  0
  195.0710  176.4790  144.0880 C   0  0  0  0  0  3  0  0  0  0  0  0
  196.3400  176.5970  143.5160 C   0  0  0  0  0  3  0  0  0  0  0  0
  197.2080  175.5040  143.5050 C   0  0  0  0  0  3  0  0  0  0  0  0
  195.5470  174.1770  144.6950 C   0  0  0  0  0  0  0  0  0  0  0  0
  195.2200  172.9550  145.2920 C   0  0  0  0  0  3  0  0  0  0  0  0
  196.1320  171.8960  145.2750 C   0  0  0  0  0  0  0  0  0  0  0  0
  197.3270  172.0730  144.6390 N   0  0  0  0  0  0  0  0  0  0  0  0
  197.6580  173.2310  144.0680 N   0  0  0  0  0  0  0  0  0  0  0  0
  196.7800  170.0450  146.7620 N   0  0  0  0  0  0  0  0  0  0  0  0
  195.2830  168.3310  147.3230 N   0  0  0  0  0  0  0  0  0  0  0  0
  196.5110  168.9020  147.4360 C   0  0  0  0  0  3  0  0  0  0  0  0
  194.3400  168.8800  146.5570 N   0  0  0  0  0  0  0  0  0  0  0  0
  195.8380  170.6250  145.9680 C   0  0  0  0  0  0  0  0  0  0  0  0
  194.5790  170.0250  145.8650 C   0  0  0  0  0  3  0  0  0  0  0  0
  189.3300  174.6690  146.8990 C   0  0  0  0  0  2  0  0  0  0  0  0
  188.4110  175.4830  146.2360 O   0  0  0  0  0  0  0  0  0  0  0  0
  186.4830  176.7910  146.7020 C   0  0  0  0  0  1  0  0  0  0  0  0
  187.7450  176.1630  147.2550 C   0  0  0  0  0  2  0  0  0  0  0  0
  193.9200  170.7120  141.8510 C   0  0  0  0  0  0  0  0  0  0  0  0
  194.4320  171.8740  141.2600 C   0  0  0  0  0  3  0  0  0  0  0  0
  193.9180  173.1250  141.6130 C   0  0  0  0  0  3  0  0  0  0  0  0
  192.8690  170.8080  142.7680 C   0  0  0  0  0  3  0  0  0  0  0  0
  192.3460  172.0600  143.1120 C   0  0  0  0  0  3  0  0  0  0  0  0
  192.8860  173.2300  142.5500 C   0  0  0  0  0  0  0  0  0  0  0  0
  194.4300  169.3640  141.4510 C   0  0  0  0  0  2  0  0  0  0  0  0
  193.4380  168.6430  140.6560 N   0  0  0  0  0  2  0  0  0  0  0  0
  193.4330  169.2210  139.3140 C   0  0  2  0  0  3  0  0  0  0  0  0
  192.9320  168.6390  137.0860 N   0  0  0  0  0  2  0  0  0  0  0  0
  192.1810  169.8900  138.9780 N   0  0  2  0  0  0  0  0  0  0  0  0
  193.6410  168.1680  138.2620 C   0  0  0  0  0  2  0  0  0  0  0  0
  190.0270  169.2690  138.6010 N   0  0  0  0  0  2  0  0  0  0  0  0
  191.0890  169.1780  139.5190 N   0  0  0  0  0  2  0  0  0  0  0  0
  190.6360  169.3710  137.2900 C   0  0  0  0  0  2  0  0  0  0  0  0
  192.0680  169.7320  137.5360 C   0  0  2  0  0  3  0  0  0  0  0  0
  191.1370  174.9140  142.0300 C   0  0  0  0  0  3  0  0  0  0  0  0
  190.2470  173.9730  141.7150 C   0  0  0  0  0  3  0  0  0  0  0  0
  188.7990  174.3930  140.7520 S   0  0  0  0  0  0  0  0  0  0  0  0
  188.4020  176.8440  141.7630 N   0  0  0  0  0  0  0  0  0  0  0  0
  188.2550  175.5760  141.9760 C   0  0  0  0  0  3  0  0  0  0  0  0
  187.0440  178.6160  142.4910 O   0  0  0  0  0  0  0  0  0  0  0  0
  188.0060  177.8290  142.7240 C   0  0  0  0  0  0  0  0  0  0  0  0
  190.2180  178.0120  143.7910 C   0  0  0  0  0  1  0  0  0  0  0  0
  188.7180  177.9150  144.0300 C   0  0  0  0  0  2  0  0  0  0  0  0
  1 44  1  6  0  0  0
  1  6  1  0  0  0  0
  2  7  1  0  0  0  0
  3  4  1  0  0  0  0
  4 24  1  0  0  0  0
  4  7  2  0  0  0  0
  5  2  2  0  0  0  0
  6  3  2  0  0  0  0
  6  5  1  0  0  0  0
  8 13  1  0  0  0  0
  8  5  1  0  0  0  0
  9 13  1  0  0  0  0
 10  8  2  0  0  0  0
 11 10  1  0  0  0  0
 12 11  2  0  0  0  0
 12  9  1  0  0  0  0
 13 14  2  0  0  0  0
 15 14  1  0  0  0  0
 15 22  1  0  0  0  0
 16 15  2  0  0  0  0
 17  9  2  0  0  0  0
 17 16  1  0  0  0  0
 18 20  1  0  0  0  0
 19 20  2  0  0  0  0
 21 19  1  0  0  0  0
 22 18  2  0  0  0  0
 23 22  1  0  0  0  0
 23 21  2  0  0  0  0
 25 24  1  0  0  0  0
 25 27  1  0  0  0  0
 26 27  1  0  0  0  0
 28 31  1  0  0  0  0
 29 30  1  0  0  0  0
 29 28  2  0  0  0  0
 30 33  2  0  0  0  0
 31 32  2  0  0  0  0
 33  1  1  0  0  0  0
 33 32  1  0  0  0  0
 34 28  1  0  0  0  0
 35 34  1  0  0  0  0
 36 35  1  1  0  0  0
 37 43  1  0  0  0  0
 37 39  1  0  0  0  0
 38 36  1  0  0  0  0
 38 41  1  1  0  0  0
 39 36  1  0  0  0  0
 40 41  1  0  0  0  0
 42 40  1  0  0  0  0
 43 42  1  1  0  0  0
 43 38  1  0  0  0  0
 45 44  2  0  0  0  0
 46 45  1  0  0  0  0
 46 48  1  0  0  0  0
 47 48  2  0  0  0  0
 47 50  1  0  0  0  0
 49 50  2  0  0  0  0
 50 52  1  0  0  0  0
 51 52  1  0  0  0  0
M  END
>  <MODEL>
6

>  <REMARK>
 VINA RESULT:      -6.5      3.879      9.268
  Name = 
  15 active torsions:
  status: ('A' for Active; 'I' for Inactive)
    1  A    between atoms: N_1  and  C_32
    2  A    between atoms: C_2  and  N_43
    3  A    between atoms: C_3  and  C_24
    4  A    between atoms: C_8  and  C_34
    5  A    between atoms: C_10  and  C_19
    6  A    between atoms: C_10  and  O_26
    7  A    between atoms: C_14  and  C_27
    8  A    between atoms: C_14  and  C_31
    9  A    between atoms: C_14  and  C_50
   10  A    between atoms: C_18  and  C_42
   11  A    between atoms: S_25  and  C_37
   12  A    between atoms: S_25  and  C_52
   13  A    between atoms: O_26  and  C_47
   14  A    between atoms: C_32  and  C_36
   15  A    between atoms: C_34  and  N_43
                            x       y       z     vdW  Elec       q    Type
                         _______ _______ _______ _____ _____    ______ ____

>  <TORSDO>
F 15

$$$$
=
 OpenBabel11042414293D

 52 58  0  0  1  0  0  0  0  0999 V2000
  190.7870  173.2730  142.4760 C   0  0  1  0  0  3  0  0  0  0  0  0
  194.3400  172.0320  141.7240 C   0  0  0  0  0  3  0  0  0  0  0  0
  193.0790  173.9680  143.2770 C   0  0  0  0  0  3  0  0  0  0  0  0
  194.4680  173.8400  143.3240 C   0  0  0  0  0  0  0  0  0  0  0  0
  192.9400  172.1330  141.6810 C   0  0  0  0  0  0  0  0  0  0  0  0
  192.3000  173.1350  142.4560 C   0  0  0  0  0  0  0  0  0  0  0  0
  195.0990  172.8790  142.5360 C   0  0  0  0  0  3  0  0  0  0  0  0
  192.1690  171.1520  140.8660 C   0  0  0  0  0  0  0  0  0  0  0  0
  191.1840  170.3890  138.7570 C   0  0  0  0  0  0  0  0  0  0  0  0
  191.8010  169.9260  141.4440 C   0  0  0  0  0  3  0  0  0  0  0  0
  191.1410  168.9460  140.6980 C   0  0  0  0  0  3  0  0  0  0  0  0
  190.8430  169.1720  139.3530 C   0  0  0  0  0  3  0  0  0  0  0  0
  191.8260  171.3960  139.5110 C   0  0  0  0  0  0  0  0  0  0  0  0
  192.1150  172.6060  138.8730 C   0  0  0  0  0  3  0  0  0  0  0  0
  191.7770  172.7930  137.5300 C   0  0  0  0  0  0  0  0  0  0  0  0
  191.1900  171.7610  136.8540 N   0  0  0  0  0  0  0  0  0  0  0  0
  190.9020  170.6030  137.4460 N   0  0  0  0  0  0  0  0  0  0  0  0
  193.1330  174.8030  137.1110 N   0  0  0  0  0  0  0  0  0  0  0  0
  192.4740  176.4360  135.5650 N   0  0  0  0  0  0  0  0  0  0  0  0
  193.3720  175.9740  136.4730 C   0  0  0  0  0  3  0  0  0  0  0  0
  191.3590  175.7550  135.2950 N   0  0  0  0  0  0  0  0  0  0  0  0
  192.0020  174.0900  136.8600 C   0  0  0  0  0  0  0  0  0  0  0  0
  191.0880  174.5800  135.9210 C   0  0  0  0  0  3  0  0  0  0  0  0
  195.2730  174.7390  144.1970 C   0  0  0  0  0  2  0  0  0  0  0  0
  194.5850  175.9330  144.4180 O   0  0  0  0  0  0  0  0  0  0  0  0
  193.0710  176.4230  146.1820 C   0  0  0  0  0  1  0  0  0  0  0  0
  194.4830  176.0290  145.8050 C   0  0  0  0  0  2  0  0  0  0  0  0
  189.2060  175.1380  146.0330 C   0  0  0  0  0  0  0  0  0  0  0  0
  189.5180  173.7730  146.0170 C   0  0  0  0  0  3  0  0  0  0  0  0
  190.0420  173.1870  144.8620 C   0  0  0  0  0  3  0  0  0  0  0  0
  189.3890  175.9040  144.8760 C   0  0  0  0  0  3  0  0  0  0  0  0
  189.9020  175.3130  143.7150 C   0  0  0  0  0  3  0  0  0  0  0  0
  190.2530  173.9520  143.7100 C   0  0  0  0  0  0  0  0  0  0  0  0
  188.6040  175.7700  147.2480 C   0  0  0  0  0  2  0  0  0  0  0  0
  188.0940  177.1060  146.9460 N   0  0  0  0  0  2  0  0  0  0  0  0
  186.6340  177.0350  146.9360 C   0  0  2  0  0  3  0  0  0  0  0  0
  184.7480  178.3960  147.3150 N   0  0  0  0  0  2  0  0  0  0  0  0
  186.0510  177.3160  145.6280 N   0  0  2  0  0  0  0  0  0  0  0  0
  186.0310  178.0320  147.8870 C   0  0  0  0  0  2  0  0  0  0  0  0
  185.8660  179.1180  144.2550 N   0  0  0  0  0  2  0  0  0  0  0  0
  186.7830  178.3320  144.9780 N   0  0  0  0  0  2  0  0  0  0  0  0
  184.6200  179.0640  144.9940 C   0  0  0  0  0  2  0  0  0  0  0  0
  184.7570  177.9070  145.9340 C   0  0  2  0  0  3  0  0  0  0  0  0
  190.1890  173.8640  141.2300 C   0  0  0  0  0  3  0  0  0  0  0  0
  189.0520  173.3910  140.7210 C   0  0  0  0  0  3  0  0  0  0  0  0
  188.3340  174.1480  139.2680 S   0  0  0  0  0  0  0  0  0  0  0  0
  186.9780  176.4240  139.6780 N   0  0  0  0  0  0  0  0  0  0  0  0
  187.8030  175.5770  140.2020 C   0  0  0  0  0  3  0  0  0  0  0  0
  187.2850  178.1540  141.2360 O   0  0  0  0  0  0  0  0  0  0  0  0
  186.5440  177.5970  140.3760 C   0  0  0  0  0  0  0  0  0  0  0  0
  184.3400  178.1700  141.3140 C   0  0  0  0  0  1  0  0  0  0  0  0
  185.2130  178.1900  140.0670 C   0  0  0  0  0  2  0  0  0  0  0  0
  1 44  1  6  0  0  0
  1 33  1  0  0  0  0
  2  7  1  0  0  0  0
  3  4  1  0  0  0  0
  4 24  1  0  0  0  0
  5  2  2  0  0  0  0
  5  6  1  0  0  0  0
  6  1  1  0  0  0  0
  6  3  2  0  0  0  0
  7  4  2  0  0  0  0
  8 10  1  0  0  0  0
  8  5  1  0  0  0  0
  9 12  2  0  0  0  0
  9 13  1  0  0  0  0
 11 10  2  0  0  0  0
 12 11  1  0  0  0  0
 13  8  2  0  0  0  0
 14 13  1  0  0  0  0
 15 14  2  0  0  0  0
 16 17  2  0  0  0  0
 16 15  1  0  0  0  0
 17  9  1  0  0  0  0
 19 20  1  0  0  0  0
 20 18  2  0  0  0  0
 21 19  2  0  0  0  0
 21 23  1  0  0  0  0
 22 18  1  0  0  0  0
 22 15  1  0  0  0  0
 23 22  2  0  0  0  0
 24 25  1  0  0  0  0
 25 27  1  0  0  0  0
 27 26  1  0  0  0  0
 28 34  1  0  0  0  0
 29 28  1  0  0  0  0
 30 29  2  0  0  0  0
 31 28  2  0  0  0  0
 32 31  1  0  0  0  0
 33 32  2  0  0  0  0
 33 30  1  0  0  0  0
 35 34  1  0  0  0  0
 36 35  1  6  0  0  0
 36 39  1  0  0  0  0
 37 39  1  0  0  0  0
 38 41  1  1  0  0  0
 38 43  1  0  0  0  0
 38 36  1  0  0  0  0
 40 41  1  0  0  0  0
 40 42  1  0  0  0  0
 43 42  1  6  0  0  0
 43 37  1  0  0  0  0
 45 44  2  0  0  0  0
 46 48  1  0  0  0  0
 46 45  1  0  0  0  0
 47 48  2  0  0  0  0
 47 50  1  0  0  0  0
 50 49  2  0  0  0  0
 52 50  1  0  0  0  0
 52 51  1  0  0  0  0
M  END
>  <MODEL>
7

>  <REMARK>
 VINA RESULT:      -6.4      2.889      4.799
  Name = 
  15 active torsions:
  status: ('A' for Active; 'I' for Inactive)
    1  A    between atoms: N_1  and  C_32
    2  A    between atoms: C_2  and  N_43
    3  A    between atoms: C_3  and  C_24
    4  A    between atoms: C_8  and  C_34
    5  A    between atoms: C_10  and  C_19
    6  A    between atoms: C_10  and  O_26
    7  A    between atoms: C_14  and  C_27
    8  A    between atoms: C_14  and  C_31
    9  A    between atoms: C_14  and  C_50
   10  A    between atoms: C_18  and  C_42
   11  A    between atoms: S_25  and  C_37
   12  A    between atoms: S_25  and  C_52
   13  A    between atoms: O_26  and  C_47
   14  A    between atoms: C_32  and  C_36
   15  A    between atoms: C_34  and  N_43
                            x       y       z     vdW  Elec       q    Type
                         _______ _______ _______ _____ _____    ______ ____

>  <TORSDO>
F 15

$$$$
=
 OpenBabel11042414293D

 52 58  0  0  1  0  0  0  0  0999 V2000
  193.2560  174.1810  144.8700 C   0  0  1  0  0  3  0  0  0  0  0  0
  196.5390  172.2650  144.3400 C   0  0  0  0  0  3  0  0  0  0  0  0
  194.1280  171.9600  145.6970 C   0  0  0  0  0  3  0  0  0  0  0  0
  195.0910  170.9530  145.7620 C   0  0  0  0  0  0  0  0  0  0  0  0
  195.5720  173.2800  144.2460 C   0  0  0  0  0  0  0  0  0  0  0  0
  194.3530  173.1330  144.9580 C   0  0  0  0  0  0  0  0  0  0  0  0
  196.3030  171.1120  145.0920 C   0  0  0  0  0  3  0  0  0  0  0  0
  195.8360  174.4500  143.3630 C   0  0  0  0  0  0  0  0  0  0  0  0
  195.6710  175.6300  141.2220 C   0  0  0  0  0  0  0  0  0  0  0  0
  196.4130  175.6060  143.9170 C   0  0  0  0  0  3  0  0  0  0  0  0
  196.6140  176.7530  143.1450 C   0  0  0  0  0  3  0  0  0  0  0  0
  196.2320  176.7700  141.8030 C   0  0  0  0  0  3  0  0  0  0  0  0
  195.4900  174.4570  141.9870 C   0  0  0  0  0  0  0  0  0  0  0  0
  194.9530  173.3350  141.3470 C   0  0  0  0  0  3  0  0  0  0  0  0
  194.6070  173.3940  139.9950 C   0  0  0  0  0  0  0  0  0  0  0  0
  194.7760  174.5740  139.3270 N   0  0  0  0  0  0  0  0  0  0  0  0
  195.2910  175.6510  139.9190 N   0  0  0  0  0  0  0  0  0  0  0  0
  194.5470  171.9280  138.0190 N   0  0  0  0  0  0  0  0  0  0  0  0
  193.2820  169.9560  137.9840 N   0  0  0  0  0  0  0  0  0  0  0  0
  194.1350  170.8150  137.3670 C   0  0  0  0  0  3  0  0  0  0  0  0
  192.8440  170.1940  139.2210 N   0  0  0  0  0  0  0  0  0  0  0  0
  194.1130  172.2000  139.2800 C   0  0  0  0  0  0  0  0  0  0  0  0
  193.2360  171.3040  139.9000 C   0  0  0  0  0  3  0  0  0  0  0  0
  194.8320  169.7210  146.5590 C   0  0  0  0  0  2  0  0  0  0  0  0
  194.8990  168.5960  145.7350 O   0  0  0  0  0  0  0  0  0  0  0  0
  193.2730  168.1710  144.0560 C   0  0  0  0  0  1  0  0  0  0  0  0
  193.5690  168.2240  145.5390 C   0  0  0  0  0  2  0  0  0  0  0  0
  190.0310  173.2000  142.1760 C   0  0  0  0  0  0  0  0  0  0  0  0
  191.1030  173.9940  141.7520 C   0  0  0  0  0  3  0  0  0  0  0  0
  192.1470  174.2920  142.6320 C   0  0  0  0  0  3  0  0  0  0  0  0
  189.9930  172.7350  143.4950 C   0  0  0  0  0  3  0  0  0  0  0  0
  191.0320  173.0440  144.3810 C   0  0  0  0  0  3  0  0  0  0  0  0
  192.1290  173.8080  143.9450 C   0  0  0  0  0  0  0  0  0  0  0  0
  188.8860  172.9090  141.2580 C   0  0  0  0  0  2  0  0  0  0  0  0
  189.3100  172.0680  140.1410 N   0  0  0  0  0  2  0  0  0  0  0  0
  188.6230  172.5400  138.9400 C   0  0  2  0  0  3  0  0  0  0  0  0
  188.2280  174.5260  137.7350 N   0  0  0  0  0  2  0  0  0  0  0  0
  189.4480  172.4720  137.7390 N   0  0  2  0  0  0  0  0  0  0  0  0
  188.2010  173.9760  139.0790 C   0  0  0  0  0  2  0  0  0  0  0  0
  191.3090  173.5140  136.9530 N   0  0  0  0  0  2  0  0  0  0  0  0
  190.7850  172.8030  138.0480 N   0  0  0  0  0  2  0  0  0  0  0  0
  190.1910  174.2170  136.3570 C   0  0  0  0  0  2  0  0  0  0  0  0
  188.9620  173.5650  136.9100 C   0  0  2  0  0  3  0  0  0  0  0  0
  192.7340  174.6610  146.1960 C   0  0  0  0  0  3  0  0  0  0  0  0
  192.2200  175.8830  146.3310 C   0  0  0  0  0  3  0  0  0  0  0  0
  191.5560  176.4090  147.9070 S   0  0  0  0  0  0  0  0  0  0  0  0
  189.6100  176.3660  146.0630 N   0  0  0  0  0  0  0  0  0  0  0  0
  190.0200  176.9290  147.1530 C   0  0  0  0  0  3  0  0  0  0  0  0
  187.2700  176.4720  145.8920 O   0  0  0  0  0  0  0  0  0  0  0  0
  188.4010  176.7650  145.4070 C   0  0  0  0  0  0  0  0  0  0  0  0
  189.2810  176.8050  143.1080 C   0  0  0  0  0  1  0  0  0  0  0  0
  188.4710  177.5620  144.1510 C   0  0  0  0  0  2  0  0  0  0  0  0
  1  6  1  0  0  0  0
  1 44  1  1  0  0  0
  2  7  1  0  0  0  0
  3  4  1  0  0  0  0
  4 24  1  0  0  0  0
  5  2  2  0  0  0  0
  5  6  1  0  0  0  0
  6  3  2  0  0  0  0
  7  4  2  0  0  0  0
  8 10  1  0  0  0  0
  8  5  1  0  0  0  0
  9 12  2  0  0  0  0
  9 13  1  0  0  0  0
 11 10  2  0  0  0  0
 12 11  1  0  0  0  0
 13  8  2  0  0  0  0
 14 13  1  0  0  0  0
 15 14  2  0  0  0  0
 16 17  2  0  0  0  0
 16 15  1  0  0  0  0
 17  9  1  0  0  0  0
 18 22  1  0  0  0  0
 19 21  2  0  0  0  0
 20 19  1  0  0  0  0
 20 18  2  0  0  0  0
 21 23  1  0  0  0  0
 22 23  2  0  0  0  0
 22 15  1  0  0  0  0
 25 24  1  0  0  0  0
 26 27  1  0  0  0  0
 27 25  1  0  0  0  0
 28 31  1  0  0  0  0
 29 28  2  0  0  0  0
 29 30  1  0  0  0  0
 30 33  2  0  0  0  0
 31 32  2  0  0  0  0
 33 32  1  0  0  0  0
 33  1  1  0  0  0  0
 34 28  1  0  0  0  0
 35 34  1  0  0  0  0
 36 39  1  0  0  0  0
 36 35  1  1  0  0  0
 37 39  1  0  0  0  0
 38 41  1  1  0  0  0
 38 36  1  0  0  0  0
 40 41  1  0  0  0  0
 42 40  1  0  0  0  0
 43 42  1  1  0  0  0
 43 37  1  0  0  0  0
 43 38  1  0  0  0  0
 44 45  2  0  0  0  0
 45 46  1  0  0  0  0
 47 48  2  0  0  0  0
 48 46  1  0  0  0  0
 50 49  2  0  0  0  0
 50 47  1  0  0  0  0
 51 52  1  0  0  0  0
 52 50  1  0  0  0  0
M  END
>  <MODEL>
8

>  <REMARK>
 VINA RESULT:      -6.3      2.875      6.656
  Name = 
  15 active torsions:
  status: ('A' for Active; 'I' for Inactive)
    1  A    between atoms: N_1  and  C_32
    2  A    between atoms: C_2  and  N_43
    3  A    between atoms: C_3  and  C_24
    4  A    between atoms: C_8  and  C_34
    5  A    between atoms: C_10  and  C_19
    6  A    between atoms: C_10  and  O_26
    7  A    between atoms: C_14  and  C_27
    8  A    between atoms: C_14  and  C_31
    9  A    between atoms: C_14  and  C_50
   10  A    between atoms: C_18  and  C_42
   11  A    between atoms: S_25  and  C_37
   12  A    between atoms: S_25  and  C_52
   13  A    between atoms: O_26  and  C_47
   14  A    between atoms: C_32  and  C_36
   15  A    between atoms: C_34  and  N_43
                            x       y       z     vdW  Elec       q    Type
                         _______ _______ _______ _____ _____    ______ ____

>  <TORSDO>
F 15

$$$$
=
 OpenBabel11042414293D

 52 58  0  0  1  0  0  0  0  0999 V2000
  188.7610  175.9340  143.0480 C   0  0  1  0  0  3  0  0  0  0  0  0
  191.3200  173.7060  141.2540 C   0  0  0  0  0  3  0  0  0  0  0  0
  188.5900  174.2460  141.1780 C   0  0  0  0  0  3  0  0  0  0  0  0
  189.1390  173.3300  140.2800 C   0  0  0  0  0  0  0  0  0  0  0  0
  190.7870  174.6470  142.1500 C   0  0  0  0  0  0  0  0  0  0  0  0
  189.3910  174.9030  142.1260 C   0  0  0  0  0  0  0  0  0  0  0  0
  190.5040  173.0510  140.3280 C   0  0  0  0  0  3  0  0  0  0  0  0
  191.7100  175.3810  143.0610 C   0  0  0  0  0  0  0  0  0  0  0  0
  193.5730  175.4650  144.6490 C   0  0  0  0  0  0  0  0  0  0  0  0
  191.6730  176.7850  143.0810 C   0  0  0  0  0  3  0  0  0  0  0  0
  192.5670  177.5190  143.8650 C   0  0  0  0  0  3  0  0  0  0  0  0
  193.5240  176.8600  144.6390 C   0  0  0  0  0  3  0  0  0  0  0  0
  192.6550  174.7140  143.8820 C   0  0  0  0  0  0  0  0  0  0  0  0
  192.7300  173.3190  143.9550 C   0  0  0  0  0  3  0  0  0  0  0  0
  193.6910  172.7060  144.7610 C   0  0  0  0  0  0  0  0  0  0  0  0
  194.5700  173.4960  145.4470 N   0  0  0  0  0  0  0  0  0  0  0  0
  194.5120  174.8260  145.3940 N   0  0  0  0  0  0  0  0  0  0  0  0
  194.5670  170.6690  145.8300 N   0  0  0  0  0  0  0  0  0  0  0  0
  193.7650  168.5400  145.2710 N   0  0  0  0  0  0  0  0  0  0  0  0
  194.5890  169.3270  146.0100 C   0  0  0  0  0  3  0  0  0  0  0  0
  192.9370  169.0690  144.3690 N   0  0  0  0  0  0  0  0  0  0  0  0
  193.7360  171.2370  144.9140 C   0  0  0  0  0  0  0  0  0  0  0  0
  192.8940  170.4110  144.1620 C   0  0  0  0  0  3  0  0  0  0  0  0
  188.2680  172.6390  139.2880 C   0  0  0  0  0  2  0  0  0  0  0  0
  188.7700  172.8260  137.9990 O   0  0  0  0  0  0  0  0  0  0  0  0
  189.0270  174.5390  136.3740 C   0  0  0  0  0  1  0  0  0  0  0  0
  188.2920  174.0780  137.6140 C   0  0  0  0  0  2  0  0  0  0  0  0
  185.3130  177.9160  141.3740 C   0  0  0  0  0  0  0  0  0  0  0  0
  186.5610  177.9970  140.7470 C   0  0  0  0  0  3  0  0  0  0  0  0
  187.6660  177.3390  141.2940 C   0  0  0  0  0  3  0  0  0  0  0  0
  185.1840  177.2010  142.5700 C   0  0  0  0  0  3  0  0  0  0  0  0
  186.2930  176.5520  143.1250 C   0  0  0  0  0  3  0  0  0  0  0  0
  187.5390  176.5990  142.4750 C   0  0  0  0  0  0  0  0  0  0  0  0
  184.1320  178.6510  140.8240 C   0  0  0  0  0  2  0  0  0  0  0  0
  182.9100  178.2920  141.5410 N   0  0  0  0  0  2  0  0  0  0  0  0
  181.7720  178.7170  140.7270 C   0  0  2  0  0  3  0  0  0  0  0  0
  179.6630  177.9480  140.0110 N   0  0  0  0  0  2  0  0  0  0  0  0
  180.7750  179.4710  141.4790 N   0  0  2  0  0  0  0  0  0  0  0  0
  181.0500  177.5380  140.1370 C   0  0  0  0  0  2  0  0  0  0  0  0
  179.2860  179.0390  143.1410 N   0  0  0  0  0  2  0  0  0  0  0  0
  180.6420  178.9400  142.7790 N   0  0  0  0  0  2  0  0  0  0  0  0
  178.5320  178.9320  141.9080 C   0  0  0  0  0  2  0  0  0  0  0  0
  179.5190  179.1680  140.8080 C   0  0  2  0  0  3  0  0  0  0  0  0
  188.5100  175.4560  144.4520 C   0  0  0  0  0  3  0  0  0  0  0  0
  189.2060  175.9420  145.4790 C   0  0  0  0  0  3  0  0  0  0  0  0
  188.8500  175.3960  147.1440 S   0  0  0  0  0  0  0  0  0  0  0  0
  187.0060  177.2820  146.6660 N   0  0  0  0  0  0  0  0  0  0  0  0
  187.1960  176.0690  147.0750 C   0  0  0  0  0  3  0  0  0  0  0  0
  184.6610  177.1680  146.7370 O   0  0  0  0  0  0  0  0  0  0  0  0
  185.7030  177.8750  146.6180 C   0  0  0  0  0  0  0  0  0  0  0  0
  185.5130  179.6990  144.9750 C   0  0  0  0  0  1  0  0  0  0  0  0
  185.5680  179.3490  146.4550 C   0  0  0  0  0  2  0  0  0  0  0  0
  1 44  1  1  0  0  0
  2  5  1  0  0  0  0
  3  6  1  0  0  0  0
  4  7  1  0  0  0  0
  4  3  2  0  0  0  0
  5  8  1  0  0  0  0
  6  5  2  0  0  0  0
  6  1  1  0  0  0  0
  7  2  2  0  0  0  0
  8 10  2  0  0  0  0
  8 13  1  0  0  0  0
  9 17  1  0  0  0  0
 10 11  1  0  0  0  0
 11 12  2  0  0  0  0
 12  9  1  0  0  0  0
 13 14  1  0  0  0  0
 13  9  2  0  0  0  0
 14 15  2  0  0  0  0
 15 22  1  0  0  0  0
 15 16  1  0  0  0  0
 17 16  2  0  0  0  0
 18 20  1  0  0  0  0
 19 20  2  0  0  0  0
 21 19  1  0  0  0  0
 22 18  2  0  0  0  0
 23 21  2  0  0  0  0
 23 22  1  0  0  0  0
 24  4  1  0  0  0  0
 25 24  1  0  0  0  0
 26 27  1  0  0  0  0
 27 25  1  0  0  0  0
 28 31  1  0  0  0  0
 29 30  1  0  0  0  0
 29 28  2  0  0  0  0
 30 33  2  0  0  0  0
 31 32  2  0  0  0  0
 33  1  1  0  0  0  0
 33 32  1  0  0  0  0
 34 28  1  0  0  0  0
 34 35  1  0  0  0  0
 36 38  1  0  0  0  0
 36 35  1  1  0  0  0
 37 39  1  0  0  0  0
 37 43  1  0  0  0  0
 38 41  1  1  0  0  0
 39 36  1  0  0  0  0
 41 40  1  0  0  0  0
 42 40  1  0  0  0  0
 43 38  1  0  0  0  0
 43 42  1  1  0  0  0
 44 45  2  0  0  0  0
 45 46  1  0  0  0  0
 47 48  2  0  0  0  0
 48 46  1  0  0  0  0
 50 47  1  0  0  0  0
 50 49  2  0  0  0  0
 51 52  1  0  0  0  0
 52 50  1  0  0  0  0
M  END
>  <MODEL>
9

>  <REMARK>
 VINA RESULT:      -6.3      4.256      7.813
  Name = 
  15 active torsions:
  status: ('A' for Active; 'I' for Inactive)
    1  A    between atoms: N_1  and  C_32
    2  A    between atoms: C_2  and  N_43
    3  A    between atoms: C_3  and  C_24
    4  A    between atoms: C_8  and  C_34
    5  A    between atoms: C_10  and  C_19
    6  A    between atoms: C_10  and  O_26
    7  A    between atoms: C_14  and  C_27
    8  A    between atoms: C_14  and  C_31
    9  A    between atoms: C_14  and  C_50
   10  A    between atoms: C_18  and  C_42
   11  A    between atoms: S_25  and  C_37
   12  A    between atoms: S_25  and  C_52
   13  A    between atoms: O_26  and  C_47
   14  A    between atoms: C_32  and  C_36
   15  A    between atoms: C_34  and  N_43
                            x       y       z     vdW  Elec       q    Type
                         _______ _______ _______ _____ _____    ______ ____

>  <TORSDO>
F 15

$$$$
