=
 OpenBabel11042415093D

 27 29  0  0  1  0  0  0  0  0999 V2000
  189.0150  177.2080  144.5470 C   0  0  0  0  0  0  0  0  0  0  0  0
  189.5540  177.7950  143.2860 C   0  0  1  0  0  3  0  0  0  0  0  0
  189.9640  176.5740  145.2020 C   0  0  0  0  0  0  0  0  0  0  0  0
  187.6360  177.3820  145.1090 C   0  0  0  0  0  2  0  0  0  0  0  0
  190.9850  177.3270  143.3340 C   0  0  0  0  0  3  0  0  0  0  0  0
  187.3420  176.2860  146.1450 C   0  0  1  0  0  3  0  0  0  0  0  0
  188.5110  176.1480  147.1330 C   0  0  0  0  0  2  0  0  0  0  0  0
  191.2020  176.6240  144.4440 C   0  0  0  0  0  0  0  0  0  0  0  0
  189.7430  175.9470  146.4310 O   0  0  0  0  0  0  0  0  0  0  0  0
  193.0790  175.0220  144.0200 C   0  0  0  0  0  3  0  0  0  0  0  0
  194.2670  174.4640  144.3740 N   0  0  0  0  0  0  0  0  0  0  0  0
  194.9240  174.8420  145.5030 C   0  0  0  0  0  0  0  0  0  0  0  0
  194.3800  175.8250  146.3330 C   0  0  0  0  0  3  0  0  0  0  0  0
  192.4930  176.0120  144.8220 C   0  0  0  0  0  0  0  0  0  0  0  0
  193.1600  176.4090  145.9870 C   0  0  0  0  0  3  0  0  0  0  0  0
  196.1770  174.2300  145.8440 C   0  0  0  0  0  0  0  0  0  0  0  0
  197.1870  173.7360  146.1190 N   0  0  0  0  0  0  0  0  0  0  0  0
  187.1560  178.7870  142.0860 O   0  0  0  0  0  0  0  0  0  0  0  0
  187.6830  177.7580  141.5830 C   0  0  0  0  0  0  0  0  0  0  0  0
  187.0810  177.1400  140.4530 N   0  0  0  0  0  1  0  0  0  0  0  0
  188.8750  177.2050  142.1410 N   0  0  0  0  0  2  0  0  0  0  0  0
  186.1710  176.5950  146.8390 O   0  0  0  0  0  0  0  0  0  0  0  0
  186.3770  177.8850  147.3310 C   0  0  0  0  0  2  0  0  0  0  0  0
  185.0600  178.6370  147.3730 C   0  0  0  0  0  2  0  0  0  0  0  0
  184.1570  178.0600  146.4800 O   0  0  0  0  0  0  0  0  0  0  0  0
  184.3040  178.1830  144.2120 O   0  0  0  0  0  1  0  0  0  0  0  0
  184.1490  178.9210  145.3840 C   0  0  0  0  0  2  0  0  0  0  0  0
  1  4  1  0  0  0  0
  1  3  2  0  0  0  0
  2 21  1  6  0  0  0
  2  5  1  0  0  0  0
  2  1  1  0  0  0  0
  3  9  1  0  0  0  0
  4  6  1  0  0  0  0
  5  8  2  0  0  0  0
  6 22  1  1  0  0  0
  6  7  1  0  0  0  0
  8 14  1  0  0  0  0
  8  3  1  0  0  0  0
  9  7  1  0  0  0  0
 10 11  2  0  0  0  0
 10 14  1  0  0  0  0
 11 12  1  0  0  0  0
 12 16  1  0  0  0  0
 12 13  2  0  0  0  0
 14 15  2  0  0  0  0
 15 13  1  0  0  0  0
 16 17  3  0  0  0  0
 19 18  2  0  0  0  0
 19 21  1  0  0  0  0
 20 19  1  0  0  0  0
 22 23  1  0  0  0  0
 23 24  1  0  0  0  0
 25 24  1  0  0  0  0
 26 27  1  0  0  0  0
 27 25  1  0  0  0  0
M  END
>  <MODEL>
1

>  <REMARK>
 VINA RESULT:      -6.5      0.000      0.000
  Name = 
  8 active torsions:
  status: ('A' for Active; 'I' for Inactive)
    1  A    between atoms: C_5  and  O_23
    2  A    between atoms: C_6  and  C_8
    3  A    between atoms: C_7  and  N_26
    4  A    between atoms: O_14  and  C_15
    5  A    between atoms: O_14  and  C_19
    6  A    between atoms: C_19  and  C_27
    7  A    between atoms: C_21  and  C_22
    8  A    between atoms: O_23  and  C_27
                            x       y       z     vdW  Elec       q    Type
                         _______ _______ _______ _____ _____    ______ ____

>  <TORSDO>
F 8

$$$$
=
 OpenBabel11042415093D

 27 29  0  0  1  0  0  0  0  0999 V2000
  188.3440  176.2480  145.0080 C   0  0  0  0  0  0  0  0  0  0  0  0
  188.2290  176.1880  146.4930 C   0  0  1  0  0  3  0  0  0  0  0  0
  189.5660  175.9420  144.6270 C   0  0  0  0  0  0  0  0  0  0  0  0
  187.2380  176.4900  144.0240 C   0  0  0  0  0  2  0  0  0  0  0  0
  189.6410  175.8350  146.8810 C   0  0  0  0  0  3  0  0  0  0  0  0
  187.8180  176.9190  142.6660 C   0  0  1  0  0  3  0  0  0  0  0  0
  188.9630  175.9830  142.2490 C   0  0  0  0  0  2  0  0  0  0  0  0
  190.3970  175.6990  145.7930 C   0  0  0  0  0  0  0  0  0  0  0  0
  189.9490  175.8980  143.2840 O   0  0  0  0  0  0  0  0  0  0  0  0
  192.2830  174.1480  145.2370 C   0  0  0  0  0  3  0  0  0  0  0  0
  193.6060  173.8380  145.2440 N   0  0  0  0  0  0  0  0  0  0  0  0
  194.5320  174.6750  145.7850 C   0  0  0  0  0  0  0  0  0  0  0  0
  194.1320  175.8870  146.3520 C   0  0  0  0  0  3  0  0  0  0  0  0
  191.8340  175.3540  145.7960 C   0  0  0  0  0  0  0  0  0  0  0  0
  192.7780  176.2230  146.3560 C   0  0  0  0  0  3  0  0  0  0  0  0
  195.9210  174.3120  145.7730 C   0  0  0  0  0  0  0  0  0  0  0  0
  197.0410  174.0210  145.7640 N   0  0  0  0  0  0  0  0  0  0  0  0
  185.6300  177.0010  147.3640 O   0  0  0  0  0  0  0  0  0  0  0  0
  186.5650  177.8430  147.4400 C   0  0  0  0  0  0  0  0  0  0  0  0
  186.3020  179.1430  147.9530 N   0  0  0  0  0  1  0  0  0  0  0  0
  187.8850  177.5050  147.0120 N   0  0  0  0  0  2  0  0  0  0  0  0
  186.8150  176.9000  141.6970 O   0  0  0  0  0  0  0  0  0  0  0  0
  186.3180  178.2050  141.6710 C   0  0  0  0  0  2  0  0  0  0  0  0
  184.8240  178.1820  141.4080 C   0  0  0  0  0  2  0  0  0  0  0  0
  184.1440  177.8240  142.5730 O   0  0  0  0  0  0  0  0  0  0  0  0
  184.2180  178.4120  144.7700 O   0  0  0  0  0  1  0  0  0  0  0  0
  184.4060  178.8620  143.4650 C   0  0  0  0  0  2  0  0  0  0  0  0
  1  2  1  0  0  0  0
  2  5  1  0  0  0  0
  2 21  1  1  0  0  0
  3  1  2  0  0  0  0
  3  8  1  0  0  0  0
  4  1  1  0  0  0  0
  6 22  1  6  0  0  0
  6  4  1  0  0  0  0
  7  6  1  0  0  0  0
  7  9  1  0  0  0  0
  8 14  1  0  0  0  0
  8  5  2  0  0  0  0
  9  3  1  0  0  0  0
 10 11  2  0  0  0  0
 10 14  1  0  0  0  0
 11 12  1  0  0  0  0
 12 13  2  0  0  0  0
 13 15  1  0  0  0  0
 14 15  2  0  0  0  0
 16 12  1  0  0  0  0
 17 16  3  0  0  0  0
 18 19  2  0  0  0  0
 19 20  1  0  0  0  0
 21 19  1  0  0  0  0
 23 22  1  0  0  0  0
 24 23  1  0  0  0  0
 24 25  1  0  0  0  0
 25 27  1  0  0  0  0
 27 26  1  0  0  0  0
M  END
>  <MODEL>
2

>  <REMARK>
 VINA RESULT:      -6.3      2.131      3.662
  Name = 
  8 active torsions:
  status: ('A' for Active; 'I' for Inactive)
    1  A    between atoms: C_5  and  O_23
    2  A    between atoms: C_6  and  C_8
    3  A    between atoms: C_7  and  N_26
    4  A    between atoms: O_14  and  C_15
    5  A    between atoms: O_14  and  C_19
    6  A    between atoms: C_19  and  C_27
    7  A    between atoms: C_21  and  C_22
    8  A    between atoms: O_23  and  C_27
                            x       y       z     vdW  Elec       q    Type
                         _______ _______ _______ _____ _____    ______ ____

>  <TORSDO>
F 8

$$$$
=
 OpenBabel11042415093D

 27 29  0  0  1  0  0  0  0  0999 V2000
  187.5440  176.5280  144.6200 C   0  0  0  0  0  0  0  0  0  0  0  0
  187.3330  176.3690  146.0880 C   0  0  1  0  0  3  0  0  0  0  0  0
  188.6910  175.9910  144.2590 C   0  0  0  0  0  0  0  0  0  0  0  0
  186.5780  177.0920  143.6230 C   0  0  0  0  0  2  0  0  0  0  0  0
  188.6090  175.6790  146.4940 C   0  0  0  0  0  3  0  0  0  0  0  0
  187.3150  177.4950  142.3360 C   0  0  1  0  0  3  0  0  0  0  0  0
  188.2510  176.3660  141.8750 C   0  0  0  0  0  2  0  0  0  0  0  0
  189.3790  175.4710  145.4270 C   0  0  0  0  0  0  0  0  0  0  0  0
  189.1320  175.9770  142.9340 O   0  0  0  0  0  0  0  0  0  0  0  0
  190.9350  173.6400  144.7240 C   0  0  0  0  0  3  0  0  0  0  0  0
  192.1570  173.0440  144.7520 N   0  0  0  0  0  0  0  0  0  0  0  0
  193.1850  173.5580  145.4770 C   0  0  0  0  0  0  0  0  0  0  0  0
  193.0010  174.7280  146.2190 C   0  0  0  0  0  3  0  0  0  0  0  0
  190.7030  174.8160  145.4520 C   0  0  0  0  0  0  0  0  0  0  0  0
  191.7550  175.3540  146.2030 C   0  0  0  0  0  3  0  0  0  0  0  0
  194.4610  172.8990  145.4820 C   0  0  0  0  0  0  0  0  0  0  0  0
  195.4880  172.3670  145.4860 N   0  0  0  0  0  0  0  0  0  0  0  0
  184.9260  177.6730  146.9120 O   0  0  0  0  0  0  0  0  0  0  0  0
  186.0170  178.2720  147.1140 C   0  0  0  0  0  0  0  0  0  0  0  0
  186.0140  179.5490  147.7390 N   0  0  0  0  0  1  0  0  0  0  0  0
  187.2550  177.6800  146.7170 N   0  0  0  0  0  2  0  0  0  0  0  0
  186.3900  177.7820  141.3320 O   0  0  0  0  0  0  0  0  0  0  0  0
  185.2710  178.2750  142.0070 C   0  0  0  0  0  2  0  0  0  0  0  0
  184.0630  178.2490  141.0900 C   0  0  0  0  0  2  0  0  0  0  0  0
  182.8930  178.2360  141.8490 O   0  0  0  0  0  0  0  0  0  0  0  0
  180.6530  177.9930  141.5210 O   0  0  0  0  0  1  0  0  0  0  0  0
  181.8660  178.3090  140.9100 C   0  0  0  0  0  2  0  0  0  0  0  0
  1  2  1  0  0  0  0
  2  5  1  0  0  0  0
  2 21  1  1  0  0  0
  3  1  2  0  0  0  0
  3  8  1  0  0  0  0
  4  1  1  0  0  0  0
  6 22  1  6  0  0  0
  6  4  1  0  0  0  0
  7  6  1  0  0  0  0
  7  9  1  0  0  0  0
  8 14  1  0  0  0  0
  8  5  2  0  0  0  0
  9  3  1  0  0  0  0
 10 11  2  0  0  0  0
 10 14  1  0  0  0  0
 11 12  1  0  0  0  0
 12 16  1  0  0  0  0
 12 13  2  0  0  0  0
 14 15  2  0  0  0  0
 15 13  1  0  0  0  0
 16 17  3  0  0  0  0
 18 19  2  0  0  0  0
 19 20  1  0  0  0  0
 21 19  1  0  0  0  0
 22 23  1  0  0  0  0
 24 25  1  0  0  0  0
 24 23  1  0  0  0  0
 27 26  1  0  0  0  0
 27 25  1  0  0  0  0
M  END
>  <MODEL>
3

>  <REMARK>
 VINA RESULT:      -6.1      2.765      4.136
  Name = 
  8 active torsions:
  status: ('A' for Active; 'I' for Inactive)
    1  A    between atoms: C_5  and  O_23
    2  A    between atoms: C_6  and  C_8
    3  A    between atoms: C_7  and  N_26
    4  A    between atoms: O_14  and  C_15
    5  A    between atoms: O_14  and  C_19
    6  A    between atoms: C_19  and  C_27
    7  A    between atoms: C_21  and  C_22
    8  A    between atoms: O_23  and  C_27
                            x       y       z     vdW  Elec       q    Type
                         _______ _______ _______ _____ _____    ______ ____

>  <TORSDO>
F 8

$$$$
=
 OpenBabel11042415093D

 27 29  0  0  1  0  0  0  0  0999 V2000
  186.6590  177.2750  143.4580 C   0  0  0  0  0  0  0  0  0  0  0  0
  186.7440  177.0180  144.9250 C   0  0  1  0  0  3  0  0  0  0  0  0
  187.8390  177.1210  142.8950 C   0  0  0  0  0  0  0  0  0  0  0  0
  185.4220  177.5510  142.6580 C   0  0  0  0  0  2  0  0  0  0  0  0
  188.2140  176.7330  145.0870 C   0  0  0  0  0  3  0  0  0  0  0  0
  185.7910  178.1950  141.3120 C   0  0  1  0  0  3  0  0  0  0  0  0
  186.9290  177.4150  140.6350 C   0  0  0  0  0  2  0  0  0  0  0  0
  188.8290  176.7980  143.9070 C   0  0  0  0  0  0  0  0  0  0  0  0
  188.0450  177.2790  141.5220 O   0  0  0  0  0  0  0  0  0  0  0  0
  190.7210  175.7630  142.6360 C   0  0  0  0  0  3  0  0  0  0  0  0
  192.0510  175.5600  142.4420 N   0  0  0  0  0  0  0  0  0  0  0  0
  192.9840  176.1290  143.2510 C   0  0  0  0  0  0  0  0  0  0  0  0
  192.5850  176.9430  144.3140 C   0  0  0  0  0  3  0  0  0  0  0  0
  190.2720  176.5730  143.6890 C   0  0  0  0  0  0  0  0  0  0  0  0
  191.2240  177.1630  144.5290 C   0  0  0  0  0  3  0  0  0  0  0  0
  194.3800  175.8910  143.0150 C   0  0  0  0  0  0  0  0  0  0  0  0
  195.5060  175.7000  142.8250 N   0  0  0  0  0  0  0  0  0  0  0  0
  186.1630  177.1520  147.7210 O   0  0  0  0  0  0  0  0  0  0  0  0
  186.1180  178.2240  147.0590 C   0  0  0  0  0  0  0  0  0  0  0  0
  185.7910  179.4420  147.7150 N   0  0  0  0  0  1  0  0  0  0  0  0
  186.3870  178.2250  145.6570 N   0  0  0  0  0  2  0  0  0  0  0  0
  184.6730  178.2190  140.4780 O   0  0  0  0  0  0  0  0  0  0  0  0
  183.5790  178.2330  141.3470 C   0  0  0  0  0  2  0  0  0  0  0  0
  182.3000  177.9890  140.5690 C   0  0  0  0  0  2  0  0  0  0  0  0
  181.2010  178.0900  141.4210 O   0  0  0  0  0  0  0  0  0  0  0  0
  179.2690  179.2790  141.2300 O   0  0  0  0  0  1  0  0  0  0  0  0
  180.6590  179.3440  141.1480 C   0  0  0  0  0  2  0  0  0  0  0  0
  1  2  1  0  0  0  0
  2  5  1  0  0  0  0
  2 21  1  1  0  0  0
  3  1  2  0  0  0  0
  3  8  1  0  0  0  0
  4  1  1  0  0  0  0
  6 22  1  6  0  0  0
  6  4  1  0  0  0  0
  7  6  1  0  0  0  0
  7  9  1  0  0  0  0
  8  5  2  0  0  0  0
  9  3  1  0  0  0  0
 10 14  1  0  0  0  0
 11 10  2  0  0  0  0
 11 12  1  0  0  0  0
 12 13  2  0  0  0  0
 13 15  1  0  0  0  0
 14  8  1  0  0  0  0
 14 15  2  0  0  0  0
 16 12  1  0  0  0  0
 17 16  3  0  0  0  0
 19 20  1  0  0  0  0
 19 18  2  0  0  0  0
 21 19  1  0  0  0  0
 22 23  1  0  0  0  0
 24 23  1  0  0  0  0
 24 25  1  0  0  0  0
 27 26  1  0  0  0  0
 27 25  1  0  0  0  0
M  END
>  <MODEL>
4

>  <REMARK>
 VINA RESULT:      -6.0      3.060      4.841
  Name = 
  8 active torsions:
  status: ('A' for Active; 'I' for Inactive)
    1  A    between atoms: C_5  and  O_23
    2  A    between atoms: C_6  and  C_8
    3  A    between atoms: C_7  and  N_26
    4  A    between atoms: O_14  and  C_15
    5  A    between atoms: O_14  and  C_19
    6  A    between atoms: C_19  and  C_27
    7  A    between atoms: C_21  and  C_22
    8  A    between atoms: O_23  and  C_27
                            x       y       z     vdW  Elec       q    Type
                         _______ _______ _______ _____ _____    ______ ____

>  <TORSDO>
F 8

$$$$
=
 OpenBabel11042415093D

 27 29  0  0  1  0  0  0  0  0999 V2000
  187.7560  176.7560  143.2960 C   0  0  0  0  0  0  0  0  0  0  0  0
  187.2620  177.2990  141.9980 C   0  0  1  0  0  3  0  0  0  0  0  0
  188.4780  175.6730  143.0970 C   0  0  0  0  0  0  0  0  0  0  0  0
  187.5950  177.3710  144.6540 C   0  0  0  0  0  2  0  0  0  0  0  0
  187.8090  176.2830  141.0290 C   0  0  0  0  0  3  0  0  0  0  0  0
  187.8310  176.3160  145.7470 C   0  0  1  0  0  3  0  0  0  0  0  0
  189.1150  175.5210  145.4620 C   0  0  0  0  0  2  0  0  0  0  0  0
  188.5050  175.3530  141.6810 C   0  0  0  0  0  0  0  0  0  0  0  0
  189.0840  174.9690  144.1410 O   0  0  0  0  0  0  0  0  0  0  0  0
  188.4860  173.3390  140.1950 C   0  0  0  0  0  3  0  0  0  0  0  0
  189.1180  172.2840  139.6160 N   0  0  0  0  0  0  0  0  0  0  0  0
  190.4360  172.0320  139.8410 C   0  0  0  0  0  0  0  0  0  0  0  0
  191.1730  172.8670  140.6840 C   0  0  0  0  0  3  0  0  0  0  0  0
  189.1850  174.2040  141.0490 C   0  0  0  0  0  0  0  0  0  0  0  0
  190.5410  173.9540  141.2870 C   0  0  0  0  0  3  0  0  0  0  0  0
  191.0690  170.9070  139.2120 C   0  0  0  0  0  0  0  0  0  0  0  0
  191.5800  170.0010  138.7050 N   0  0  0  0  0  0  0  0  0  0  0  0
  185.5540  179.4140  142.8800 O   0  0  0  0  0  0  0  0  0  0  0  0
  185.0110  178.3720  142.4250 C   0  0  0  0  0  0  0  0  0  0  0  0
  183.5930  178.2870  142.3600 N   0  0  0  0  0  1  0  0  0  0  0  0
  185.8060  177.2740  141.9760 N   0  0  0  0  0  2  0  0  0  0  0  0
  187.9280  176.9400  146.9910 O   0  0  0  0  0  0  0  0  0  0  0  0
  186.6090  177.0600  147.4340 C   0  0  0  0  0  2  0  0  0  0  0  0
  186.3830  178.4450  148.0110 C   0  0  0  0  0  2  0  0  0  0  0  0
  185.5320  179.1710  147.1780 O   0  0  0  0  0  0  0  0  0  0  0  0
  183.8080  178.7340  145.7570 O   0  0  0  0  0  1  0  0  0  0  0  0
  184.4900  178.2920  146.8900 C   0  0  0  0  0  2  0  0  0  0  0  0
  1  4  1  0  0  0  0
  2 21  1  1  0  0  0
  2  1  1  0  0  0  0
  3  1  2  0  0  0  0
  3  9  1  0  0  0  0
  4  6  1  0  0  0  0
  5  8  2  0  0  0  0
  5  2  1  0  0  0  0
  6 22  1  1  0  0  0
  7  6  1  0  0  0  0
  8  3  1  0  0  0  0
  9  7  1  0  0  0  0
 10 14  1  0  0  0  0
 11 12  1  0  0  0  0
 11 10  2  0  0  0  0
 12 13  2  0  0  0  0
 13 15  1  0  0  0  0
 14 15  2  0  0  0  0
 14  8  1  0  0  0  0
 16 12  1  0  0  0  0
 17 16  3  0  0  0  0
 19 18  2  0  0  0  0
 20 19  1  0  0  0  0
 21 19  1  0  0  0  0
 22 23  1  0  0  0  0
 23 24  1  0  0  0  0
 25 24  1  0  0  0  0
 26 27  1  0  0  0  0
 27 25  1  0  0  0  0
M  END
>  <MODEL>
5

>  <REMARK>
 VINA RESULT:      -5.8      3.721      4.571
  Name = 
  8 active torsions:
  status: ('A' for Active; 'I' for Inactive)
    1  A    between atoms: C_5  and  O_23
    2  A    between atoms: C_6  and  C_8
    3  A    between atoms: C_7  and  N_26
    4  A    between atoms: O_14  and  C_15
    5  A    between atoms: O_14  and  C_19
    6  A    between atoms: C_19  and  C_27
    7  A    between atoms: C_21  and  C_22
    8  A    between atoms: O_23  and  C_27
                            x       y       z     vdW  Elec       q    Type
                         _______ _______ _______ _____ _____    ______ ____

>  <TORSDO>
F 8

$$$$
=
 OpenBabel11042415093D

 27 29  0  0  1  0  0  0  0  0999 V2000
  188.0370  176.3040  144.8910 C   0  0  0  0  0  0  0  0  0  0  0  0
  187.8970  176.2590  146.3750 C   0  0  1  0  0  3  0  0  0  0  0  0
  189.2670  176.0020  144.5350 C   0  0  0  0  0  0  0  0  0  0  0  0
  186.9470  176.5310  143.8870 C   0  0  0  0  0  2  0  0  0  0  0  0
  189.3050  175.9180  146.7900 C   0  0  0  0  0  3  0  0  0  0  0  0
  187.5480  176.9490  142.5350 C   0  0  1  0  0  3  0  0  0  0  0  0
  188.7050  176.0150  142.1460 C   0  0  0  0  0  2  0  0  0  0  0  0
  190.0790  175.7750  145.7170 C   0  0  0  0  0  0  0  0  0  0  0  0
  189.6730  175.9470  143.1990 O   0  0  0  0  0  0  0  0  0  0  0  0
  191.9790  174.2180  145.2340 C   0  0  0  0  0  3  0  0  0  0  0  0
  193.3040  173.9150  145.2670 N   0  0  0  0  0  0  0  0  0  0  0  0
  194.2190  174.7740  145.7910 C   0  0  0  0  0  0  0  0  0  0  0  0
  193.8060  176.0020  146.3140 C   0  0  0  0  0  3  0  0  0  0  0  0
  191.5180  175.4380  145.7480 C   0  0  0  0  0  0  0  0  0  0  0  0
  192.4510  176.3300  146.2900 C   0  0  0  0  0  3  0  0  0  0  0  0
  195.6100  174.4190  145.8070 C   0  0  0  0  0  0  0  0  0  0  0  0
  196.7320  174.1330  145.8210 N   0  0  0  0  0  0  0  0  0  0  0  0
  185.2410  177.1490  146.9450 O   0  0  0  0  0  0  0  0  0  0  0  0
  186.1870  177.9570  147.1490 C   0  0  0  0  0  0  0  0  0  0  0  0
  185.9070  179.2570  147.6520 N   0  0  0  0  0  1  0  0  0  0  0  0
  187.5370  177.5790  146.8750 N   0  0  0  0  0  2  0  0  0  0  0  0
  186.5610  176.9150  141.5490 O   0  0  0  0  0  0  0  0  0  0  0  0
  187.1450  177.5250  140.4370 C   0  0  0  0  0  2  0  0  0  0  0  0
  186.3940  177.1310  139.1790 C   0  0  0  0  0  2  0  0  0  0  0  0
  187.0050  176.0240  138.5900 O   0  0  0  0  0  0  0  0  0  0  0  0
  185.3890  175.9690  136.9880 O   0  0  0  0  0  1  0  0  0  0  0  0
  186.7480  176.1660  137.2270 C   0  0  0  0  0  2  0  0  0  0  0  0
  1  2  1  0  0  0  0
  2  5  1  0  0  0  0
  2 21  1  1  0  0  0
  3  1  2  0  0  0  0
  3  8  1  0  0  0  0
  4  1  1  0  0  0  0
  6 22  1  6  0  0  0
  6  4  1  0  0  0  0
  7  6  1  0  0  0  0
  7  9  1  0  0  0  0
  8 14  1  0  0  0  0
  8  5  2  0  0  0  0
  9  3  1  0  0  0  0
 10 11  2  0  0  0  0
 10 14  1  0  0  0  0
 11 12  1  0  0  0  0
 12 16  1  0  0  0  0
 12 13  2  0  0  0  0
 14 15  2  0  0  0  0
 15 13  1  0  0  0  0
 16 17  3  0  0  0  0
 18 19  2  0  0  0  0
 19 20  1  0  0  0  0
 21 19  1  0  0  0  0
 23 22  1  0  0  0  0
 24 23  1  0  0  0  0
 25 24  1  0  0  0  0
 26 27  1  0  0  0  0
 27 25  1  0  0  0  0
M  END
>  <MODEL>
6

>  <REMARK>
 VINA RESULT:      -5.8      2.692      4.738
  Name = 
  8 active torsions:
  status: ('A' for Active; 'I' for Inactive)
    1  A    between atoms: C_5  and  O_23
    2  A    between atoms: C_6  and  C_8
    3  A    between atoms: C_7  and  N_26
    4  A    between atoms: O_14  and  C_15
    5  A    between atoms: O_14  and  C_19
    6  A    between atoms: C_19  and  C_27
    7  A    between atoms: C_21  and  C_22
    8  A    between atoms: O_23  and  C_27
                            x       y       z     vdW  Elec       q    Type
                         _______ _______ _______ _____ _____    ______ ____

>  <TORSDO>
F 8

$$$$
=
 OpenBabel11042415093D

 27 29  0  0  1  0  0  0  0  0999 V2000
  188.1840  176.1270  143.4600 C   0  0  0  0  0  0  0  0  0  0  0  0
  188.9520  175.2010  144.3410 C   0  0  1  0  0  3  0  0  0  0  0  0
  188.1820  175.6870  142.2190 C   0  0  0  0  0  0  0  0  0  0  0  0
  187.4000  177.3330  143.8800 C   0  0  0  0  0  2  0  0  0  0  0  0
  189.4240  174.1740  143.3450 C   0  0  0  0  0  3  0  0  0  0  0  0
  187.1450  178.2500  142.6720 C   0  0  1  0  0  3  0  0  0  0  0  0
  186.6300  177.4350  141.4750 C   0  0  0  0  0  2  0  0  0  0  0  0
  188.9720  174.4710  142.1280 C   0  0  0  0  0  0  0  0  0  0  0  0
  187.5170  176.3500  141.1850 O   0  0  0  0  0  0  0  0  0  0  0  0
  188.1910  173.0550  140.2170 C   0  0  0  0  0  3  0  0  0  0  0  0
  188.4450  172.3300  139.0950 N   0  0  0  0  0  0  0  0  0  0  0  0
  189.7060  172.1870  138.6080 C   0  0  0  0  0  0  0  0  0  0  0  0
  190.7810  172.7930  139.2630 C   0  0  0  0  0  3  0  0  0  0  0  0
  189.2380  173.6810  140.9090 C   0  0  0  0  0  0  0  0  0  0  0  0
  190.5420  173.5410  140.4160 C   0  0  0  0  0  3  0  0  0  0  0  0
  189.9340  171.4130  137.4210 C   0  0  0  0  0  0  0  0  0  0  0  0
  190.1190  170.7890  136.4640 N   0  0  0  0  0  0  0  0  0  0  0  0
  189.8870  174.9300  147.0290 O   0  0  0  0  0  0  0  0  0  0  0  0
  190.5150  175.7120  146.2650 C   0  0  0  0  0  0  0  0  0  0  0  0
  191.6490  176.4160  146.7540 N   0  0  0  0  0  1  0  0  0  0  0  0
  190.0940  175.9010  144.9130 N   0  0  0  0  0  2  0  0  0  0  0  0
  186.2130  179.2300  143.0130 O   0  0  0  0  0  0  0  0  0  0  0  0
  184.9700  178.6170  142.8410 C   0  0  0  0  0  2  0  0  0  0  0  0
  184.0370  179.0200  143.9670 C   0  0  0  0  0  2  0  0  0  0  0  0
  184.7800  179.3820  145.0910 O   0  0  0  0  0  0  0  0  0  0  0  0
  184.7730  177.3940  146.2000 O   0  0  0  0  0  1  0  0  0  0  0  0
  184.2040  178.6660  146.1380 C   0  0  0  0  0  2  0  0  0  0  0  0
  1  4  1  0  0  0  0
  1  2  1  0  0  0  0
  2 21  1  6  0  0  0
  3  1  2  0  0  0  0
  5  2  1  0  0  0  0
  6 22  1  1  0  0  0
  6  4  1  0  0  0  0
  7  6  1  0  0  0  0
  8  3  1  0  0  0  0
  8  5  2  0  0  0  0
  9  7  1  0  0  0  0
  9  3  1  0  0  0  0
 10 14  1  0  0  0  0
 11 10  2  0  0  0  0
 12 11  1  0  0  0  0
 12 13  2  0  0  0  0
 13 15  1  0  0  0  0
 14  8  1  0  0  0  0
 15 14  2  0  0  0  0
 16 12  1  0  0  0  0
 17 16  3  0  0  0  0
 19 20  1  0  0  0  0
 19 18  2  0  0  0  0
 21 19  1  0  0  0  0
 23 22  1  0  0  0  0
 23 24  1  0  0  0  0
 24 25  1  0  0  0  0
 25 27  1  0  0  0  0
 27 26  1  0  0  0  0
M  END
>  <MODEL>
7

>  <REMARK>
 VINA RESULT:      -5.7      3.793      5.987
  Name = 
  8 active torsions:
  status: ('A' for Active; 'I' for Inactive)
    1  A    between atoms: C_5  and  O_23
    2  A    between atoms: C_6  and  C_8
    3  A    between atoms: C_7  and  N_26
    4  A    between atoms: O_14  and  C_15
    5  A    between atoms: O_14  and  C_19
    6  A    between atoms: C_19  and  C_27
    7  A    between atoms: C_21  and  C_22
    8  A    between atoms: O_23  and  C_27
                            x       y       z     vdW  Elec       q    Type
                         _______ _______ _______ _____ _____    ______ ____

>  <TORSDO>
F 8

$$$$
=
 OpenBabel11042415093D

 27 29  0  0  1  0  0  0  0  0999 V2000
  186.1230  178.3200  143.5940 C   0  0  0  0  0  0  0  0  0  0  0  0
  185.4430  178.9210  144.7770 C   0  0  1  0  0  3  0  0  0  0  0  0
  185.2690  178.1580  142.6040 C   0  0  0  0  0  0  0  0  0  0  0  0
  187.5860  178.0320  143.4400 C   0  0  0  0  0  2  0  0  0  0  0  0
  184.0250  179.0240  144.2770 C   0  0  0  0  0  3  0  0  0  0  0  0
  187.8150  177.0250  142.3010 C   0  0  1  0  0  3  0  0  0  0  0  0
  187.0260  177.4400  141.0490 C   0  0  0  0  0  2  0  0  0  0  0  0
  183.9450  178.5780  143.0250 C   0  0  0  0  0  0  0  0  0  0  0  0
  185.6430  177.6330  141.3650 O   0  0  0  0  0  0  0  0  0  0  0  0
  182.7040  177.9570  140.9410 C   0  0  0  0  0  3  0  0  0  0  0  0
  181.5610  177.9190  140.2060 N   0  0  0  0  0  0  0  0  0  0  0  0
  180.3930  178.4320  140.6770 C   0  0  0  0  0  0  0  0  0  0  0  0
  180.3470  179.0160  141.9450 C   0  0  0  0  0  3  0  0  0  0  0  0
  182.7070  178.5330  142.2190 C   0  0  0  0  0  0  0  0  0  0  0  0
  181.5100  179.0650  142.7140 C   0  0  0  0  0  3  0  0  0  0  0  0
  179.2060  178.3740  139.8710 C   0  0  0  0  0  0  0  0  0  0  0  0
  178.2500  178.3260  139.2210 N   0  0  0  0  0  0  0  0  0  0  0  0
  186.0860  179.6350  147.4690 O   0  0  0  0  0  0  0  0  0  0  0  0
  185.8280  178.4250  147.2280 C   0  0  0  0  0  0  0  0  0  0  0  0
  185.8580  177.4740  148.2840 N   0  0  0  0  0  1  0  0  0  0  0  0
  185.5090  178.0000  145.9020 N   0  0  0  0  0  2  0  0  0  0  0  0
  189.1750  176.9540  142.0000 O   0  0  0  0  0  0  0  0  0  0  0  0
  189.8020  177.6970  143.0030 C   0  0  0  0  0  2  0  0  0  0  0  0
  191.2500  177.2640  143.1360 C   0  0  0  0  0  2  0  0  0  0  0  0
  191.7100  177.5380  144.4240 O   0  0  0  0  0  0  0  0  0  0  0  0
  191.3120  176.1580  146.1900 O   0  0  0  0  0  1  0  0  0  0  0  0
  190.7260  177.0200  145.2640 C   0  0  0  0  0  2  0  0  0  0  0  0
  1  2  1  0  0  0  0
  2 21  1  1  0  0  0
  3  8  1  0  0  0  0
  3  1  2  0  0  0  0
  4  1  1  0  0  0  0
  5  2  1  0  0  0  0
  6 22  1  6  0  0  0
  6  4  1  0  0  0  0
  7  9  1  0  0  0  0
  7  6  1  0  0  0  0
  8  5  2  0  0  0  0
  9  3  1  0  0  0  0
 10 14  1  0  0  0  0
 11 12  1  0  0  0  0
 11 10  2  0  0  0  0
 12 13  2  0  0  0  0
 13 15  1  0  0  0  0
 14 15  2  0  0  0  0
 14  8  1  0  0  0  0
 16 12  1  0  0  0  0
 17 16  3  0  0  0  0
 19 18  2  0  0  0  0
 19 20  1  0  0  0  0
 21 19  1  0  0  0  0
 22 23  1  0  0  0  0
 23 24  1  0  0  0  0
 24 25  1  0  0  0  0
 25 27  1  0  0  0  0
 27 26  1  0  0  0  0
M  END
>  <MODEL>
8

>  <REMARK>
 VINA RESULT:      -5.7      4.106      9.701
  Name = 
  8 active torsions:
  status: ('A' for Active; 'I' for Inactive)
    1  A    between atoms: C_5  and  O_23
    2  A    between atoms: C_6  and  C_8
    3  A    between atoms: C_7  and  N_26
    4  A    between atoms: O_14  and  C_15
    5  A    between atoms: O_14  and  C_19
    6  A    between atoms: C_19  and  C_27
    7  A    between atoms: C_21  and  C_22
    8  A    between atoms: O_23  and  C_27
                            x       y       z     vdW  Elec       q    Type
                         _______ _______ _______ _____ _____    ______ ____

>  <TORSDO>
F 8

$$$$
=
 OpenBabel11042415093D

 27 29  0  0  1  0  0  0  0  0999 V2000
  192.0050  174.0280  145.2790 C   0  0  0  0  0  0  0  0  0  0  0  0
  191.1720  172.9220  144.7270 C   0  0  1  0  0  3  0  0  0  0  0  0
  191.2470  175.0450  145.6300 C   0  0  0  0  0  0  0  0  0  0  0  0
  193.4810  174.0040  145.5420 C   0  0  0  0  0  2  0  0  0  0  0  0
  189.7960  173.5330  144.7900 C   0  0  0  0  0  3  0  0  0  0  0  0
  194.0210  175.4380  145.6740 C   0  0  1  0  0  3  0  0  0  0  0  0
  193.1340  176.2640  146.6180 C   0  0  0  0  0  2  0  0  0  0  0  0
  189.8600  174.7570  145.3120 C   0  0  0  0  0  0  0  0  0  0  0  0
  191.7660  176.2110  146.1990 O   0  0  0  0  0  0  0  0  0  0  0  0
  188.1510  175.8160  146.8040 C   0  0  0  0  0  3  0  0  0  0  0  0
  187.0850  176.6390  146.9920 N   0  0  0  0  0  0  0  0  0  0  0  0
  186.5210  177.3220  145.9600 C   0  0  0  0  0  0  0  0  0  0  0  0
  187.0360  177.1880  144.6690 C   0  0  0  0  0  3  0  0  0  0  0  0
  188.7020  175.6490  145.5250 C   0  0  0  0  0  0  0  0  0  0  0  0
  188.1290  176.3470  144.4550 C   0  0  0  0  0  3  0  0  0  0  0  0
  185.3960  178.1820  146.1980 C   0  0  0  0  0  0  0  0  0  0  0  0
  184.4900  178.8760  146.3890 N   0  0  0  0  0  0  0  0  0  0  0  0
  192.4430  170.5560  143.7490 O   0  0  0  0  0  0  0  0  0  0  0  0
  192.1680  171.4610  142.9170 C   0  0  0  0  0  0  0  0  0  0  0  0
  192.4880  171.2760  141.5440 N   0  0  0  0  0  1  0  0  0  0  0  0
  191.5420  172.6730  143.3410 N   0  0  0  0  0  2  0  0  0  0  0  0
  195.3280  175.4060  146.1610 O   0  0  0  0  0  0  0  0  0  0  0  0
  195.8840  174.2450  145.6190 C   0  0  0  0  0  2  0  0  0  0  0  0
  197.0250  174.6070  144.6870 C   0  0  0  0  0  2  0  0  0  0  0  0
  196.5570  174.6890  143.3750 O   0  0  0  0  0  0  0  0  0  0  0  0
  196.7440  176.9550  143.4920 O   0  0  0  0  0  1  0  0  0  0  0  0
  197.1990  175.8070  142.8450 C   0  0  0  0  0  2  0  0  0  0  0  0
  1  4  1  0  0  0  0
  1  3  2  0  0  0  0
  2 21  1  6  0  0  0
  2  5  1  0  0  0  0
  2  1  1  0  0  0  0
  3  9  1  0  0  0  0
  4  6  1  0  0  0  0
  5  8  2  0  0  0  0
  6 22  1  1  0  0  0
  6  7  1  0  0  0  0
  8 14  1  0  0  0  0
  8  3  1  0  0  0  0
  9  7  1  0  0  0  0
 10 11  1  0  0  0  0
 12 16  1  0  0  0  0
 12 11  2  0  0  0  0
 13 12  1  0  0  0  0
 14 10  2  0  0  0  0
 15 13  2  0  0  0  0
 15 14  1  0  0  0  0
 16 17  3  0  0  0  0
 19 21  1  0  0  0  0
 19 18  2  0  0  0  0
 20 19  1  0  0  0  0
 23 22  1  0  0  0  0
 24 23  1  0  0  0  0
 25 24  1  0  0  0  0
 27 25  1  0  0  0  0
 27 26  1  0  0  0  0
M  END
>  <MODEL>
9

>  <REMARK>
 VINA RESULT:      -5.6      3.754      8.428
  Name = 
  8 active torsions:
  status: ('A' for Active; 'I' for Inactive)
    1  A    between atoms: C_5  and  O_23
    2  A    between atoms: C_6  and  C_8
    3  A    between atoms: C_7  and  N_26
    4  A    between atoms: O_14  and  C_15
    5  A    between atoms: O_14  and  C_19
    6  A    between atoms: C_19  and  C_27
    7  A    between atoms: C_21  and  C_22
    8  A    between atoms: O_23  and  C_27
                            x       y       z     vdW  Elec       q    Type
                         _______ _______ _______ _____ _____    ______ ____

>  <TORSDO>
F 8

$$$$
