=
 OpenBabel11042413483D

 25 27  0  0  0  0  0  0  0  0999 V2000
  185.4890  179.6990  144.3950 C   0  0  0  0  0  3  0  0  0  0  0  0
  185.7690  178.7220  145.3470 C   0  0  0  0  0  0  0  0  0  0  0  0
  186.5110  177.5910  144.9690 C   0  0  0  0  0  0  0  0  0  0  0  0
  186.6260  178.4710  142.7510 N   0  0  0  0  0  0  0  0  0  0  0  0
  186.9380  177.4840  143.6310 C   0  0  0  0  0  0  0  0  0  0  0  0
  185.9280  179.5460  143.1200 N   0  0  0  0  0  0  0  0  0  0  0  0
  185.2680  178.9050  146.7430 C   0  0  0  0  0  2  0  0  0  0  0  0
  184.0010  178.3350  146.8720 O   0  0  0  0  0  1  0  0  0  0  0  0
  186.8360  176.5190  145.9750 C   0  0  0  0  0  2  0  0  0  0  0  0
  187.8900  176.9830  146.9770 C   0  0  0  0  0  2  0  0  0  0  0  0
  190.3960  177.0040  146.9800 C   0  0  0  0  0  3  0  0  0  0  0  0
  191.6620  175.0680  146.2570 C   0  0  0  0  0  0  0  0  0  0  0  0
  191.6250  176.3810  146.7430 C   0  0  0  0  0  3  0  0  0  0  0  0
  189.2020  176.3140  146.7410 C   0  0  0  0  0  0  0  0  0  0  0  0
  189.2400  174.9990  146.2620 C   0  0  0  0  0  3  0  0  0  0  0  0
  190.4690  174.3770  146.0230 C   0  0  0  0  0  3  0  0  0  0  0  0
  193.9050  175.3330  145.5840 O   0  0  0  0  0  1  0  0  0  0  0  0
  192.9690  174.3990  146.0240 C   0  0  0  0  0  2  0  0  0  0  0  0
  187.6970  176.2910  143.1400 C   0  0  0  0  0  2  0  0  0  0  0  0
  191.8880  177.0720  143.0150 C   0  0  0  0  0  3  0  0  0  0  0  0
  190.0570  175.6050  142.6450 C   0  0  0  0  0  3  0  0  0  0  0  0
  191.0230  178.0720  143.4680 C   0  0  0  0  0  3  0  0  0  0  0  0
  189.6500  177.8210  143.5040 C   0  0  0  0  0  3  0  0  0  0  0  0
  191.3910  175.8700  142.6160 N   0  0  0  0  0  0  0  0  0  0  0  0
  189.1580  176.5810  143.0860 C   0  0  0  0  0  0  0  0  0  0  0  0
  1  2  1  0  0  0  0
  2  7  1  0  0  0  0
  3  2  2  0  0  0  0
  3  9  1  0  0  0  0
  4  6  1  0  0  0  0
  4  5  2  0  0  0  0
  5  3  1  0  0  0  0
  6  1  2  0  0  0  0
  7  8  1  0  0  0  0
  9 10  1  0  0  0  0
 12 13  2  0  0  0  0
 13 11  1  0  0  0  0
 14 10  1  0  0  0  0
 14 11  2  0  0  0  0
 15 14  1  0  0  0  0
 16 12  1  0  0  0  0
 16 15  2  0  0  0  0
 17 18  1  0  0  0  0
 18 12  1  0  0  0  0
 19  5  1  0  0  0  0
 20 22  1  0  0  0  0
 21 25  2  0  0  0  0
 22 23  2  0  0  0  0
 24 21  1  0  0  0  0
 24 20  2  0  0  0  0
 25 19  1  0  0  0  0
 25 23  1  0  0  0  0
M  END
>  <MODEL>
1

>  <REMARK>
 VINA RESULT:      -6.6      0.000      0.000
  Name = 
  7 active torsions:
  status: ('A' for Active; 'I' for Inactive)
    1  A    between atoms: C_6  and  C_22
    2  A    between atoms: C_8  and  C_18
    3  A    between atoms: C_9  and  C_13
    4  A    between atoms: C_9  and  C_17
    5  A    between atoms: C_11  and  C_16
    6  A    between atoms: C_11  and  C_21
    7  A    between atoms: C_15  and  C_17
                            x       y       z     vdW  Elec       q    Type
                         _______ _______ _______ _____ _____    ______ ____

>  <TORSDO>
F 7

$$$$
=
 OpenBabel11042413483D

 25 27  0  0  0  0  0  0  0  0999 V2000
  185.3660  178.3560  141.4290 C   0  0  0  0  0  3  0  0  0  0  0  0
  185.2950  178.0280  142.7810 C   0  0  0  0  0  0  0  0  0  0  0  0
  186.1690  177.0570  143.2960 C   0  0  0  0  0  0  0  0  0  0  0  0
  187.0960  176.8030  141.1090 N   0  0  0  0  0  0  0  0  0  0  0  0
  187.0830  176.4410  142.4190 C   0  0  0  0  0  0  0  0  0  0  0  0
  186.2680  177.7330  140.6290 N   0  0  0  0  0  0  0  0  0  0  0  0
  184.2880  178.7180  143.6420 C   0  0  0  0  0  2  0  0  0  0  0  0
  184.7960  179.9420  144.0800 O   0  0  0  0  0  1  0  0  0  0  0  0
  186.1210  176.6840  144.7540 C   0  0  0  0  0  2  0  0  0  0  0  0
  186.9320  177.6510  145.6140 C   0  0  0  0  0  2  0  0  0  0  0  0
  188.0940  175.6480  146.5720 C   0  0  0  0  0  3  0  0  0  0  0  0
  190.4020  175.7750  147.3010 C   0  0  0  0  0  0  0  0  0  0  0  0
  189.2250  175.0390  147.1250 C   0  0  0  0  0  3  0  0  0  0  0  0
  188.1420  176.9930  146.1870 C   0  0  0  0  0  0  0  0  0  0  0  0
  189.3210  177.7270  146.3570 C   0  0  0  0  0  3  0  0  0  0  0  0
  190.4510  177.1170  146.9100 C   0  0  0  0  0  3  0  0  0  0  0  0
  192.6890  175.2890  147.0030 O   0  0  0  0  0  1  0  0  0  0  0  0
  191.6100  175.1200  147.8690 C   0  0  0  0  0  2  0  0  0  0  0  0
  188.0170  175.3680  142.8820 C   0  0  0  0  0  2  0  0  0  0  0  0
  191.9510  176.9040  143.4790 C   0  0  0  0  0  3  0  0  0  0  0  0
  190.4200  175.0880  143.5400 C   0  0  0  0  0  3  0  0  0  0  0  0
  190.9500  177.7600  143.0150 C   0  0  0  0  0  3  0  0  0  0  0  0
  189.6630  177.2590  142.8130 C   0  0  0  0  0  3  0  0  0  0  0  0
  191.6690  175.5960  143.7300 N   0  0  0  0  0  0  0  0  0  0  0  0
  189.3920  175.9130  143.0720 C   0  0  0  0  0  0  0  0  0  0  0  0
  1  2  1  0  0  0  0
  2  3  2  0  0  0  0
  2  7  1  0  0  0  0
  3  9  1  0  0  0  0
  4  5  2  0  0  0  0
  5 19  1  0  0  0  0
  5  3  1  0  0  0  0
  6  4  1  0  0  0  0
  6  1  2  0  0  0  0
  7  8  1  0  0  0  0
  9 10  1  0  0  0  0
 10 14  1  0  0  0  0
 11 13  1  0  0  0  0
 12 18  1  0  0  0  0
 13 12  2  0  0  0  0
 14 15  1  0  0  0  0
 14 11  2  0  0  0  0
 15 16  2  0  0  0  0
 16 12  1  0  0  0  0
 17 18  1  0  0  0  0
 19 25  1  0  0  0  0
 20 24  1  0  0  0  0
 21 24  2  0  0  0  0
 22 20  2  0  0  0  0
 23 22  1  0  0  0  0
 23 25  2  0  0  0  0
 25 21  1  0  0  0  0
M  END
>  <MODEL>
2

>  <REMARK>
 VINA RESULT:      -6.5      1.611      2.158
  Name = 
  7 active torsions:
  status: ('A' for Active; 'I' for Inactive)
    1  A    between atoms: C_6  and  C_22
    2  A    between atoms: C_8  and  C_18
    3  A    between atoms: C_9  and  C_13
    4  A    between atoms: C_9  and  C_17
    5  A    between atoms: C_11  and  C_16
    6  A    between atoms: C_11  and  C_21
    7  A    between atoms: C_15  and  C_17
                            x       y       z     vdW  Elec       q    Type
                         _______ _______ _______ _____ _____    ______ ____

>  <TORSDO>
F 7

$$$$
=
 OpenBabel11042413483D

 25 27  0  0  0  0  0  0  0  0999 V2000
  184.4750  178.0200  143.2580 C   0  0  0  0  0  3  0  0  0  0  0  0
  185.2570  177.9640  144.4110 C   0  0  0  0  0  0  0  0  0  0  0  0
  186.6550  177.9110  144.2870 C   0  0  0  0  0  0  0  0  0  0  0  0
  186.3960  177.9580  141.9120 N   0  0  0  0  0  0  0  0  0  0  0  0
  187.2160  177.9080  142.9950 C   0  0  0  0  0  0  0  0  0  0  0  0
  185.0690  178.0170  142.0390 N   0  0  0  0  0  0  0  0  0  0  0  0
  184.5830  177.9580  145.7440 C   0  0  0  0  0  2  0  0  0  0  0  0
  183.6100  178.9570  145.7890 O   0  0  0  0  0  1  0  0  0  0  0  0
  187.5280  177.8550  145.5120 C   0  0  0  0  0  2  0  0  0  0  0  0
  187.6860  176.4280  146.0310 C   0  0  0  0  0  2  0  0  0  0  0  0
  190.1360  176.9420  146.1310 C   0  0  0  0  0  3  0  0  0  0  0  0
  191.7900  175.1790  145.9500 C   0  0  0  0  0  0  0  0  0  0  0  0
  191.4740  176.5350  146.1010 C   0  0  0  0  0  3  0  0  0  0  0  0
  189.1130  175.9940  146.0180 C   0  0  0  0  0  0  0  0  0  0  0  0
  189.4300  174.6380  145.8730 C   0  0  0  0  0  3  0  0  0  0  0  0
  190.7670  174.2320  145.8430 C   0  0  0  0  0  3  0  0  0  0  0  0
  193.9960  175.6790  146.6150 O   0  0  0  0  0  1  0  0  0  0  0  0
  193.2120  174.7440  145.9390 C   0  0  0  0  0  2  0  0  0  0  0  0
  188.6930  177.8110  142.7780 C   0  0  0  0  0  2  0  0  0  0  0  0
  189.9040  173.7700  142.1500 C   0  0  0  0  0  3  0  0  0  0  0  0
  190.4590  176.0530  142.5070 C   0  0  0  0  0  3  0  0  0  0  0  0
  188.5410  174.0710  142.2050 C   0  0  0  0  0  3  0  0  0  0  0  0
  188.1420  175.3920  142.4160 C   0  0  0  0  0  3  0  0  0  0  0  0
  190.8280  174.7590  142.3010 N   0  0  0  0  0  0  0  0  0  0  0  0
  189.1050  176.3930  142.5730 C   0  0  0  0  0  0  0  0  0  0  0  0
  1  2  1  0  0  0  0
  2  7  1  0  0  0  0
  3  2  2  0  0  0  0
  3  9  1  0  0  0  0
  4  6  1  0  0  0  0
  4  5  2  0  0  0  0
  5  3  1  0  0  0  0
  6  1  2  0  0  0  0
  7  8  1  0  0  0  0
  9 10  1  0  0  0  0
 12 13  2  0  0  0  0
 13 11  1  0  0  0  0
 14 10  1  0  0  0  0
 14 11  2  0  0  0  0
 15 14  1  0  0  0  0
 16 15  2  0  0  0  0
 16 12  1  0  0  0  0
 18 12  1  0  0  0  0
 18 17  1  0  0  0  0
 19  5  1  0  0  0  0
 20 22  2  0  0  0  0
 20 24  1  0  0  0  0
 21 25  1  0  0  0  0
 22 23  1  0  0  0  0
 23 25  2  0  0  0  0
 24 21  2  0  0  0  0
 25 19  1  0  0  0  0
M  END
>  <MODEL>
3

>  <REMARK>
 VINA RESULT:      -6.1      1.198      1.783
  Name = 
  7 active torsions:
  status: ('A' for Active; 'I' for Inactive)
    1  A    between atoms: C_6  and  C_22
    2  A    between atoms: C_8  and  C_18
    3  A    between atoms: C_9  and  C_13
    4  A    between atoms: C_9  and  C_17
    5  A    between atoms: C_11  and  C_16
    6  A    between atoms: C_11  and  C_21
    7  A    between atoms: C_15  and  C_17
                            x       y       z     vdW  Elec       q    Type
                         _______ _______ _______ _____ _____    ______ ____

>  <TORSDO>
F 7

$$$$
=
 OpenBabel11042413483D

 25 27  0  0  0  0  0  0  0  0999 V2000
  185.2470  179.0550  146.5090 C   0  0  0  0  0  3  0  0  0  0  0  0
  185.6740  178.6530  145.2450 C   0  0  0  0  0  0  0  0  0  0  0  0
  186.5220  177.5390  145.1320 C   0  0  0  0  0  0  0  0  0  0  0  0
  186.4690  177.3200  147.5100 N   0  0  0  0  0  0  0  0  0  0  0  0
  186.9170  176.8730  146.3080 C   0  0  0  0  0  0  0  0  0  0  0  0
  185.6570  178.3740  147.6090 N   0  0  0  0  0  0  0  0  0  0  0  0
  185.2190  179.4220  144.0480 C   0  0  0  0  0  2  0  0  0  0  0  0
  183.9900  178.9320  143.6070 O   0  0  0  0  0  1  0  0  0  0  0  0
  186.9970  177.0760  143.7800 C   0  0  0  0  0  2  0  0  0  0  0  0
  188.1360  177.9440  143.2520 C   0  0  0  0  0  2  0  0  0  0  0  0
  189.6420  175.9420  143.2220 C   0  0  0  0  0  3  0  0  0  0  0  0
  191.9470  176.1030  143.9530 C   0  0  0  0  0  0  0  0  0  0  0  0
  190.8840  175.3420  143.4540 C   0  0  0  0  0  3  0  0  0  0  0  0
  189.4640  177.3060  143.4810 C   0  0  0  0  0  0  0  0  0  0  0  0
  190.5300  178.0680  143.9750 C   0  0  0  0  0  3  0  0  0  0  0  0
  191.7700  177.4670  144.2070 C   0  0  0  0  0  3  0  0  0  0  0  0
  193.8620  176.0050  145.3250 O   0  0  0  0  0  1  0  0  0  0  0  0
  193.2730  175.4690  144.1800 C   0  0  0  0  0  2  0  0  0  0  0  0
  187.8520  175.7040  146.2740 C   0  0  0  0  0  2  0  0  0  0  0  0
  191.5890  176.7400  148.0470 C   0  0  0  0  0  3  0  0  0  0  0  0
  189.4550  177.3810  147.2250 C   0  0  0  0  0  3  0  0  0  0  0  0
  191.3300  175.4020  147.7400 C   0  0  0  0  0  3  0  0  0  0  0  0
  190.1050  175.0600  147.1650 C   0  0  0  0  0  3  0  0  0  0  0  0
  190.6550  177.6940  147.7860 N   0  0  0  0  0  0  0  0  0  0  0  0
  189.1560  176.0530  146.9080 C   0  0  0  0  0  0  0  0  0  0  0  0
  1  6  1  0  0  0  0
  2  1  2  0  0  0  0
  3  2  1  0  0  0  0
  3  5  2  0  0  0  0
  4  6  2  0  0  0  0
  5  4  1  0  0  0  0
  7  2  1  0  0  0  0
  8  7  1  0  0  0  0
  9  3  1  0  0  0  0
 10 14  1  0  0  0  0
 10  9  1  0  0  0  0
 11 13  2  0  0  0  0
 11 14  1  0  0  0  0
 12 18  1  0  0  0  0
 12 16  2  0  0  0  0
 13 12  1  0  0  0  0
 14 15  2  0  0  0  0
 15 16  1  0  0  0  0
 18 17  1  0  0  0  0
 19  5  1  0  0  0  0
 19 25  1  0  0  0  0
 21 24  2  0  0  0  0
 22 20  2  0  0  0  0
 23 22  1  0  0  0  0
 24 20  1  0  0  0  0
 25 23  2  0  0  0  0
 25 21  1  0  0  0  0
M  END
>  <MODEL>
4

>  <REMARK>
 VINA RESULT:      -6.1      2.093      3.641
  Name = 
  7 active torsions:
  status: ('A' for Active; 'I' for Inactive)
    1  A    between atoms: C_6  and  C_22
    2  A    between atoms: C_8  and  C_18
    3  A    between atoms: C_9  and  C_13
    4  A    between atoms: C_9  and  C_17
    5  A    between atoms: C_11  and  C_16
    6  A    between atoms: C_11  and  C_21
    7  A    between atoms: C_15  and  C_17
                            x       y       z     vdW  Elec       q    Type
                         _______ _______ _______ _____ _____    ______ ____

>  <TORSDO>
F 7

$$$$
=
 OpenBabel11042413483D

 25 27  0  0  0  0  0  0  0  0999 V2000
  192.7110  175.5070  146.0480 C   0  0  0  0  0  3  0  0  0  0  0  0
  191.5600  176.0520  146.6140 C   0  0  0  0  0  0  0  0  0  0  0  0
  190.7780  176.9380  145.8540 C   0  0  0  0  0  0  0  0  0  0  0  0
  192.3320  176.6870  144.0570 N   0  0  0  0  0  0  0  0  0  0  0  0
  191.1960  177.2500  144.5450 C   0  0  0  0  0  0  0  0  0  0  0  0
  193.0640  175.8400  144.7820 N   0  0  0  0  0  0  0  0  0  0  0  0
  191.1930  175.6800  148.0140 C   0  0  0  0  0  2  0  0  0  0  0  0
  191.5660  176.7000  148.8890 O   0  0  0  0  0  1  0  0  0  0  0  0
  189.5260  177.5410  146.4330 C   0  0  0  0  0  2  0  0  0  0  0  0
  188.3450  176.5770  146.3560 C   0  0  0  0  0  2  0  0  0  0  0  0
  186.9630  178.4660  145.4620 C   0  0  0  0  0  3  0  0  0  0  0  0
  185.2170  178.0720  143.8270 C   0  0  0  0  0  0  0  0  0  0  0  0
  185.9410  178.9530  144.6400 C   0  0  0  0  0  3  0  0  0  0  0  0
  187.2680  177.1010  145.4660 C   0  0  0  0  0  0  0  0  0  0  0  0
  186.5480  176.2220  144.6490 C   0  0  0  0  0  3  0  0  0  0  0  0
  185.5260  176.7080  143.8280 C   0  0  0  0  0  3  0  0  0  0  0  0
  184.4510  178.3000  141.6100 O   0  0  0  0  0  1  0  0  0  0  0  0
  184.1450  178.5930  142.9380 C   0  0  0  0  0  2  0  0  0  0  0  0
  190.4410  178.2160  143.6880 C   0  0  0  0  0  2  0  0  0  0  0  0
  187.7890  176.1770  141.0430 C   0  0  0  0  0  3  0  0  0  0  0  0
  188.5780  178.1980  142.0100 C   0  0  0  0  0  3  0  0  0  0  0  0
  188.7220  175.4370  141.7750 C   0  0  0  0  0  3  0  0  0  0  0  0
  189.5960  176.1030  142.6360 C   0  0  0  0  0  3  0  0  0  0  0  0
  187.7370  177.5300  141.1750 N   0  0  0  0  0  0  0  0  0  0  0  0
  189.5300  177.4940  142.7550 C   0  0  0  0  0  0  0  0  0  0  0  0
  1  2  1  0  0  0  0
  2  7  1  0  0  0  0
  3  9  1  0  0  0  0
  3  2  2  0  0  0  0
  4  5  2  0  0  0  0
  4  6  1  0  0  0  0
  5  3  1  0  0  0  0
  6  1  2  0  0  0  0
  7  8  1  0  0  0  0
 10  9  1  0  0  0  0
 11 14  1  0  0  0  0
 12 16  2  0  0  0  0
 12 13  1  0  0  0  0
 13 11  2  0  0  0  0
 14 10  1  0  0  0  0
 15 14  2  0  0  0  0
 16 15  1  0  0  0  0
 17 18  1  0  0  0  0
 18 12  1  0  0  0  0
 19  5  1  0  0  0  0
 20 24  2  0  0  0  0
 20 22  1  0  0  0  0
 21 25  2  0  0  0  0
 22 23  2  0  0  0  0
 23 25  1  0  0  0  0
 24 21  1  0  0  0  0
 25 19  1  0  0  0  0
M  END
>  <MODEL>
5

>  <REMARK>
 VINA RESULT:      -6.1      1.984      5.817
  Name = 
  7 active torsions:
  status: ('A' for Active; 'I' for Inactive)
    1  A    between atoms: C_6  and  C_22
    2  A    between atoms: C_8  and  C_18
    3  A    between atoms: C_9  and  C_13
    4  A    between atoms: C_9  and  C_17
    5  A    between atoms: C_11  and  C_16
    6  A    between atoms: C_11  and  C_21
    7  A    between atoms: C_15  and  C_17
                            x       y       z     vdW  Elec       q    Type
                         _______ _______ _______ _____ _____    ______ ____

>  <TORSDO>
F 7

$$$$
=
 OpenBabel11042413483D

 25 27  0  0  0  0  0  0  0  0999 V2000
  189.6760  176.3730  142.4300 C   0  0  0  0  0  3  0  0  0  0  0  0
  190.3220  176.8840  143.5540 C   0  0  0  0  0  0  0  0  0  0  0  0
  189.6490  176.8850  144.7880 C   0  0  0  0  0  0  0  0  0  0  0  0
  187.7640  175.8960  143.7040 N   0  0  0  0  0  0  0  0  0  0  0  0
  188.3380  176.3740  144.8390 C   0  0  0  0  0  0  0  0  0  0  0  0
  188.4120  175.8910  142.5380 N   0  0  0  0  0  0  0  0  0  0  0  0
  191.7090  177.4200  143.4130 C   0  0  0  0  0  2  0  0  0  0  0  0
  192.5780  176.3940  143.0390 O   0  0  0  0  0  1  0  0  0  0  0  0
  190.3210  177.4250  146.0220 C   0  0  0  0  0  2  0  0  0  0  0  0
  190.8020  176.3050  146.9420 C   0  0  0  0  0  2  0  0  0  0  0  0
  192.3330  174.5250  146.0670 C   0  0  0  0  0  3  0  0  0  0  0  0
  194.7180  174.9140  145.8740 C   0  0  0  0  0  0  0  0  0  0  0  0
  193.6100  174.0710  145.7220 C   0  0  0  0  0  3  0  0  0  0  0  0
  192.1600  175.8250  146.5560 C   0  0  0  0  0  0  0  0  0  0  0  0
  193.2680  176.6690  146.7020 C   0  0  0  0  0  3  0  0  0  0  0  0
  194.5440  176.2140  146.3580 C   0  0  0  0  0  3  0  0  0  0  0  0
  196.2330  173.1080  145.8760 O   0  0  0  0  0  1  0  0  0  0  0  0
  196.0720  174.4370  145.4870 C   0  0  0  0  0  2  0  0  0  0  0  0
  187.5410  176.3780  146.1050 C   0  0  0  0  0  2  0  0  0  0  0  0
  184.1490  178.9400  145.7470 C   0  0  0  0  0  3  0  0  0  0  0  0
  185.1410  176.9410  146.5630 C   0  0  0  0  0  3  0  0  0  0  0  0
  185.3550  179.3200  145.1520 C   0  0  0  0  0  3  0  0  0  0  0  0
  186.4680  178.4860  145.2720 C   0  0  0  0  0  3  0  0  0  0  0  0
  184.0680  177.7680  146.4340 N   0  0  0  0  0  0  0  0  0  0  0  0
  186.3660  177.2890  145.9860 C   0  0  0  0  0  0  0  0  0  0  0  0
  1  6  2  0  0  0  0
  1  2  1  0  0  0  0
  2  3  2  0  0  0  0
  3  5  1  0  0  0  0
  3  9  1  0  0  0  0
  4  5  2  0  0  0  0
  5 19  1  0  0  0  0
  6  4  1  0  0  0  0
  7  2  1  0  0  0  0
  8  7  1  0  0  0  0
  9 10  1  0  0  0  0
 11 14  1  0  0  0  0
 12 16  2  0  0  0  0
 13 12  1  0  0  0  0
 13 11  2  0  0  0  0
 14 15  2  0  0  0  0
 14 10  1  0  0  0  0
 16 15  1  0  0  0  0
 18 12  1  0  0  0  0
 18 17  1  0  0  0  0
 20 24  1  0  0  0  0
 22 23  1  0  0  0  0
 22 20  2  0  0  0  0
 23 25  2  0  0  0  0
 24 21  2  0  0  0  0
 25 19  1  0  0  0  0
 25 21  1  0  0  0  0
M  END
>  <MODEL>
6

>  <REMARK>
 VINA RESULT:      -5.9      2.583      5.025
  Name = 
  7 active torsions:
  status: ('A' for Active; 'I' for Inactive)
    1  A    between atoms: C_6  and  C_22
    2  A    between atoms: C_8  and  C_18
    3  A    between atoms: C_9  and  C_13
    4  A    between atoms: C_9  and  C_17
    5  A    between atoms: C_11  and  C_16
    6  A    between atoms: C_11  and  C_21
    7  A    between atoms: C_15  and  C_17
                            x       y       z     vdW  Elec       q    Type
                         _______ _______ _______ _____ _____    ______ ____

>  <TORSDO>
F 7

$$$$
=
 OpenBabel11042413483D

 25 27  0  0  0  0  0  0  0  0999 V2000
  194.3720  174.4870  145.4130 C   0  0  0  0  0  3  0  0  0  0  0  0
  193.5430  175.4610  145.9680 C   0  0  0  0  0  0  0  0  0  0  0  0
  192.1550  175.2470  145.9850 C   0  0  0  0  0  0  0  0  0  0  0  0
  192.5140  173.1500  144.9000 N   0  0  0  0  0  0  0  0  0  0  0  0
  191.6510  174.0550  145.4300 C   0  0  0  0  0  0  0  0  0  0  0  0
  193.8320  173.3550  144.8950 N   0  0  0  0  0  0  0  0  0  0  0  0
  194.1570  176.7040  146.5240 C   0  0  0  0  0  2  0  0  0  0  0  0
  194.5610  177.5410  145.4840 O   0  0  0  0  0  1  0  0  0  0  0  0
  191.2330  176.2770  146.5820 C   0  0  0  0  0  2  0  0  0  0  0  0
  190.6410  177.1940  145.5150 C   0  0  0  0  0  2  0  0  0  0  0  0
  188.4050  177.8150  144.5690 C   0  0  0  0  0  3  0  0  0  0  0  0
  186.3680  177.4330  145.8270 C   0  0  0  0  0  0  0  0  0  0  0  0
  187.0120  177.8950  144.6730 C   0  0  0  0  0  3  0  0  0  0  0  0
  189.1540  177.2650  145.6150 C   0  0  0  0  0  0  0  0  0  0  0  0
  188.5090  176.7970  146.7660 C   0  0  0  0  0  3  0  0  0  0  0  0
  187.1170  176.8790  146.8700 C   0  0  0  0  0  3  0  0  0  0  0  0
  184.5220  178.3980  146.9300 O   0  0  0  0  0  1  0  0  0  0  0  0
  184.8860  177.5000  145.9280 C   0  0  0  0  0  2  0  0  0  0  0  0
  190.1820  173.7730  145.3740 C   0  0  0  0  0  2  0  0  0  0  0  0
  188.9190  173.2890  141.3290 C   0  0  0  0  0  3  0  0  0  0  0  0
  189.3090  172.3730  143.4860 C   0  0  0  0  0  3  0  0  0  0  0  0
  189.3380  174.5480  141.7650 C   0  0  0  0  0  3  0  0  0  0  0  0
  189.7460  174.7110  143.0900 C   0  0  0  0  0  3  0  0  0  0  0  0
  188.9140  172.2360  142.1910 N   0  0  0  0  0  0  0  0  0  0  0  0
  189.7290  173.6190  143.9620 C   0  0  0  0  0  0  0  0  0  0  0  0
  1  2  1  0  0  0  0
  2  3  2  0  0  0  0
  2  7  1  0  0  0  0
  3  9  1  0  0  0  0
  4  5  2  0  0  0  0
  5  3  1  0  0  0  0
  6  4  1  0  0  0  0
  6  1  2  0  0  0  0
  8  7  1  0  0  0  0
 10 14  1  0  0  0  0
 10  9  1  0  0  0  0
 11 13  2  0  0  0  0
 11 14  1  0  0  0  0
 12 18  1  0  0  0  0
 12 16  2  0  0  0  0
 13 12  1  0  0  0  0
 14 15  2  0  0  0  0
 15 16  1  0  0  0  0
 18 17  1  0  0  0  0
 19  5  1  0  0  0  0
 20 22  2  0  0  0  0
 20 24  1  0  0  0  0
 21 25  1  0  0  0  0
 22 23  1  0  0  0  0
 23 25  2  0  0  0  0
 24 21  2  0  0  0  0
 25 19  1  0  0  0  0
M  END
>  <MODEL>
7

>  <REMARK>
 VINA RESULT:      -5.9      2.642      6.439
  Name = 
  7 active torsions:
  status: ('A' for Active; 'I' for Inactive)
    1  A    between atoms: C_6  and  C_22
    2  A    between atoms: C_8  and  C_18
    3  A    between atoms: C_9  and  C_13
    4  A    between atoms: C_9  and  C_17
    5  A    between atoms: C_11  and  C_16
    6  A    between atoms: C_11  and  C_21
    7  A    between atoms: C_15  and  C_17
                            x       y       z     vdW  Elec       q    Type
                         _______ _______ _______ _____ _____    ______ ____

>  <TORSDO>
F 7

$$$$
=
 OpenBabel11042413483D

 25 27  0  0  0  0  0  0  0  0999 V2000
  186.5890  177.3120  144.5780 C   0  0  0  0  0  3  0  0  0  0  0  0
  187.4540  177.1120  145.6520 C   0  0  0  0  0  0  0  0  0  0  0  0
  188.8290  177.3330  145.4720 C   0  0  0  0  0  0  0  0  0  0  0  0
  188.3880  177.9130  143.1970 N   0  0  0  0  0  0  0  0  0  0  0  0
  189.2840  177.7420  144.2040 C   0  0  0  0  0  0  0  0  0  0  0  0
  187.0820  177.7100  143.3780 N   0  0  0  0  0  0  0  0  0  0  0  0
  186.8920  176.6650  146.9620 C   0  0  0  0  0  2  0  0  0  0  0  0
  186.3820  177.7610  147.6590 O   0  0  0  0  0  1  0  0  0  0  0  0
  189.7900  177.1300  146.6140 C   0  0  0  0  0  2  0  0  0  0  0  0
  190.1690  175.6610  146.7810 C   0  0  0  0  0  2  0  0  0  0  0  0
  192.5590  176.4150  146.8150 C   0  0  0  0  0  3  0  0  0  0  0  0
  194.3220  175.0150  145.9180 C   0  0  0  0  0  0  0  0  0  0  0  0
  193.9120  176.2050  146.5300 C   0  0  0  0  0  3  0  0  0  0  0  0
  191.6150  175.4320  146.4950 C   0  0  0  0  0  0  0  0  0  0  0  0
  192.0270  174.2400  145.8890 C   0  0  0  0  0  3  0  0  0  0  0  0
  193.3790  174.0310  145.6040 C   0  0  0  0  0  3  0  0  0  0  0  0
  196.1170  175.4150  144.4430 O   0  0  0  0  0  1  0  0  0  0  0  0
  195.7630  174.7830  145.6340 C   0  0  0  0  0  2  0  0  0  0  0  0
  190.7380  177.9570  143.9210 C   0  0  0  0  0  2  0  0  0  0  0  0
  192.4510  174.5700  141.9760 C   0  0  0  0  0  3  0  0  0  0  0  0
  192.6960  176.7150  142.9670 C   0  0  0  0  0  3  0  0  0  0  0  0
  191.0790  174.5810  142.2400 C   0  0  0  0  0  3  0  0  0  0  0  0
  190.5170  175.6860  142.8820 C   0  0  0  0  0  3  0  0  0  0  0  0
  193.2250  175.6280  142.3420 N   0  0  0  0  0  0  0  0  0  0  0  0
  191.3280  176.7610  143.2540 C   0  0  0  0  0  0  0  0  0  0  0  0
  1  2  1  0  0  0  0
  2  7  1  0  0  0  0
  3  2  2  0  0  0  0
  3  9  1  0  0  0  0
  4  6  1  0  0  0  0
  4  5  2  0  0  0  0
  5  3  1  0  0  0  0
  6  1  2  0  0  0  0
  7  8  1  0  0  0  0
  9 10  1  0  0  0  0
 12 13  2  0  0  0  0
 13 11  1  0  0  0  0
 14 10  1  0  0  0  0
 14 11  2  0  0  0  0
 15 14  1  0  0  0  0
 16 15  2  0  0  0  0
 16 12  1  0  0  0  0
 17 18  1  0  0  0  0
 18 12  1  0  0  0  0
 19  5  1  0  0  0  0
 20 22  2  0  0  0  0
 20 24  1  0  0  0  0
 21 25  1  0  0  0  0
 22 23  1  0  0  0  0
 23 25  2  0  0  0  0
 24 21  2  0  0  0  0
 25 19  1  0  0  0  0
M  END
>  <MODEL>
8

>  <REMARK>
 VINA RESULT:      -5.9      1.536      2.648
  Name = 
  7 active torsions:
  status: ('A' for Active; 'I' for Inactive)
    1  A    between atoms: C_6  and  C_22
    2  A    between atoms: C_8  and  C_18
    3  A    between atoms: C_9  and  C_13
    4  A    between atoms: C_9  and  C_17
    5  A    between atoms: C_11  and  C_16
    6  A    between atoms: C_11  and  C_21
    7  A    between atoms: C_15  and  C_17
                            x       y       z     vdW  Elec       q    Type
                         _______ _______ _______ _____ _____    ______ ____

>  <TORSDO>
F 7

$$$$
=
 OpenBabel11042413483D

 25 27  0  0  0  0  0  0  0  0999 V2000
  188.3670  174.4550  142.1360 C   0  0  0  0  0  3  0  0  0  0  0  0
  189.3550  175.3410  142.5620 C   0  0  0  0  0  0  0  0  0  0  0  0
  188.9790  176.6140  143.0210 C   0  0  0  0  0  0  0  0  0  0  0  0
  186.7000  176.0410  142.5910 N   0  0  0  0  0  0  0  0  0  0  0  0
  187.6120  176.9500  143.0250 C   0  0  0  0  0  0  0  0  0  0  0  0
  187.0640  174.8310  142.1640 N   0  0  0  0  0  0  0  0  0  0  0  0
  190.7850  174.9110  142.5130 C   0  0  0  0  0  2  0  0  0  0  0  0
  191.0010  173.8760  143.4230 O   0  0  0  0  0  1  0  0  0  0  0  0
  190.0210  177.5930  143.4930 C   0  0  0  0  0  2  0  0  0  0  0  0
  190.2700  177.4760  144.9940 C   0  0  0  0  0  2  0  0  0  0  0  0
  191.6500  175.8260  146.2800 C   0  0  0  0  0  3  0  0  0  0  0  0
  194.0230  175.5810  145.8520 C   0  0  0  0  0  0  0  0  0  0  0  0
  192.8740  175.2110  146.5610 C   0  0  0  0  0  3  0  0  0  0  0  0
  191.5710  176.8060  145.2840 C   0  0  0  0  0  0  0  0  0  0  0  0
  192.7190  177.1710  144.5710 C   0  0  0  0  0  3  0  0  0  0  0  0
  193.9420  176.5570  144.8530 C   0  0  0  0  0  3  0  0  0  0  0  0
  196.1040  174.8950  144.9850 O   0  0  0  0  0  1  0  0  0  0  0  0
  195.3200  174.9130  146.1370 C   0  0  0  0  0  2  0  0  0  0  0  0
  187.1350  178.3010  143.4600 C   0  0  0  0  0  2  0  0  0  0  0  0
  184.4410  178.0190  146.7540 C   0  0  0  0  0  3  0  0  0  0  0  0
  184.9190  178.7490  144.5450 C   0  0  0  0  0  3  0  0  0  0  0  0
  185.7100  177.4460  146.8630 C   0  0  0  0  0  3  0  0  0  0  0  0
  186.5920  177.5310  145.7840 C   0  0  0  0  0  3  0  0  0  0  0  0
  184.0740  178.6540  145.6070 N   0  0  0  0  0  0  0  0  0  0  0  0
  186.1960  178.1830  144.6120 C   0  0  0  0  0  0  0  0  0  0  0  0
  1  6  2  0  0  0  0
  1  2  1  0  0  0  0
  2  3  2  0  0  0  0
  3  5  1  0  0  0  0
  3  9  1  0  0  0  0
  4  5  2  0  0  0  0
  5 19  1  0  0  0  0
  6  4  1  0  0  0  0
  7  2  1  0  0  0  0
  7  8  1  0  0  0  0
  9 10  1  0  0  0  0
 10 14  1  0  0  0  0
 11 13  1  0  0  0  0
 12 18  1  0  0  0  0
 12 13  2  0  0  0  0
 14 11  2  0  0  0  0
 15 16  2  0  0  0  0
 15 14  1  0  0  0  0
 16 12  1  0  0  0  0
 17 18  1  0  0  0  0
 19 25  1  0  0  0  0
 20 22  1  0  0  0  0
 21 25  2  0  0  0  0
 21 24  1  0  0  0  0
 23 22  2  0  0  0  0
 24 20  2  0  0  0  0
 25 23  1  0  0  0  0
M  END
>  <MODEL>
9

>  <REMARK>
 VINA RESULT:      -5.7      2.520      4.941
  Name = 
  7 active torsions:
  status: ('A' for Active; 'I' for Inactive)
    1  A    between atoms: C_6  and  C_22
    2  A    between atoms: C_8  and  C_18
    3  A    between atoms: C_9  and  C_13
    4  A    between atoms: C_9  and  C_17
    5  A    between atoms: C_11  and  C_16
    6  A    between atoms: C_11  and  C_21
    7  A    between atoms: C_15  and  C_17
                            x       y       z     vdW  Elec       q    Type
                         _______ _______ _______ _____ _____    ______ ____

>  <TORSDO>
F 7

$$$$
