=
 OpenBabel11042416213D

 38 42  0  0  1  0  0  0  0  0999 V2000
  185.5040  177.5720  140.1920 C   0  0  0  0  0  3  0  0  0  0  0  0
  182.4650  179.0780  143.0320 N   0  0  0  0  0  1  0  0  0  0  0  0
  184.6480  178.4690  144.1550 C   0  0  0  0  0  0  0  0  0  0  0  0
  185.6120  178.4870  146.4640 C   0  0  0  0  0  0  0  0  0  0  0  0
  184.3850  178.7390  145.6010 C   0  0  0  0  0  3  0  0  0  0  0  0
  185.7630  177.7990  142.3560 N   0  0  0  0  0  0  0  0  0  0  0  0
  184.5640  178.1820  141.9790 C   0  0  0  0  0  0  0  0  0  0  0  0
  185.8490  177.9630  143.6880 C   0  0  2  0  0  3  0  0  0  0  0  0
  186.7670  177.9670  145.9420 C   0  0  0  0  0  0  0  0  0  0  0  0
  184.3240  178.0730  140.6610 N   0  0  0  0  0  0  0  0  0  0  0  0
  186.8810  177.7000  144.4790 C   0  0  0  0  0  3  0  0  0  0  0  0
  186.4070  177.3980  141.2510 C   0  0  0  0  0  0  0  0  0  0  0  0
  183.8090  178.6120  143.0490 C   0  0  0  0  0  0  0  0  0  0  0  0
  188.9960  177.0410  146.3610 C   0  0  0  0  0  0  0  0  0  0  0  0
  187.9080  177.6110  146.8070 C   0  0  0  0  0  3  0  0  0  0  0  0
  190.0890  176.4760  145.9230 C   0  0  0  0  0  0  0  0  0  0  0  0
  190.5370  176.6720  144.5140 C   0  0  0  0  0  2  0  0  0  0  0  0
  190.5510  178.1460  144.1540 C   0  0  0  0  0  1  0  0  0  0  0  0
  190.9970  175.3670  146.9910 S   0  0  0  0  0  0  0  0  0  0  0  0
  192.4320  175.4450  145.9670 N   0  0  0  0  0  0  0  0  0  0  0  0
  194.7320  176.2750  145.9150 C   0  0  0  0  0  2  0  0  0  0  0  0
  195.1900  174.8370  145.6920 C   0  0  1  0  0  3  0  0  0  0  0  0
  193.4150  176.2550  146.6830 C   0  0  0  0  0  2  0  0  0  0  0  0
  192.9510  174.0830  145.8620 C   0  0  0  0  0  2  0  0  0  0  0  0
  194.1440  174.0720  145.0170 N   0  0  0  0  0  2  0  0  0  0  0  0
  196.4460  174.8310  144.8470 C   0  0  0  0  0  1  0  0  0  0  0  0
  186.1290  179.8460  148.5050 C   0  0  0  0  0  1  0  0  0  0  0  0
  185.4520  178.7970  147.8250 O   0  0  0  0  0  0  0  0  0  0  0  0
  187.7880  176.8700  141.1890 C   0  0  0  0  0  0  0  0  0  0  0  0
  188.7460  177.6830  141.1110 O   0  0  0  0  0  0  0  0  0  0  0  0
  187.9480  174.9080  138.6950 C   0  0  0  0  0  1  0  0  0  0  0  0
  188.3380  174.6490  142.3430 C   0  0  0  0  0  3  0  0  0  0  0  0
  188.0820  175.4170  141.2170 C   0  0  0  0  0  0  0  0  0  0  0  0
  188.5460  173.3750  141.8480 C   0  0  0  0  0  0  0  0  0  0  0  0
  188.4300  173.3470  140.5410 O   0  0  0  0  0  0  0  0  0  0  0  0
  188.1520  174.5570  140.1300 C   0  0  0  0  0  0  0  0  0  0  0  0
  189.8960  171.5330  142.4560 O   0  0  0  0  0  0  0  0  0  0  0  0
  188.8540  172.2070  142.6690 C   0  0  0  0  0  3  0  0  0  0  0  0
  1 10  1  0  0  0  0
  1 12  2  0  0  0  0
  2 13  1  0  0  0  0
  3  5  1  0  0  0  0
  4 28  1  0  0  0  0
  5  4  2  0  0  0  0
  6  8  1  0  0  0  0
  7  6  1  0  0  0  0
  7 13  1  0  0  0  0
  8  3  1  0  0  0  0
  8 11  1  1  0  0  0
  9  4  1  0  0  0  0
  9 15  1  0  0  0  0
 10  7  2  0  0  0  0
 11  9  2  0  0  0  0
 12  6  1  0  0  0  0
 13  3  2  0  0  0  0
 14 15  2  0  0  0  0
 16 14  2  0  0  0  0
 16 19  1  0  0  0  0
 17 16  1  0  0  0  0
 18 17  1  0  0  0  0
 20 23  1  0  0  0  0
 20 19  1  0  0  0  0
 21 23  1  0  0  0  0
 22 26  1  6  0  0  0
 22 21  1  0  0  0  0
 24 20  1  0  0  0  0
 25 22  1  0  0  0  0
 25 24  1  0  0  0  0
 28 27  1  0  0  0  0
 29 33  1  0  0  0  0
 29 12  1  0  0  0  0
 30 29  2  0  0  0  0
 31 36  1  0  0  0  0
 33 32  1  0  0  0  0
 34 32  2  0  0  0  0
 34 38  1  0  0  0  0
 35 34  1  0  0  0  0
 36 35  1  0  0  0  0
 36 33  2  0  0  0  0
 37 38  2  0  0  0  0
M  END
>  <MODEL>
1

>  <REMARK>
 VINA RESULT:      -7.7      0.000      0.000
  Name = 
  8 active torsions:
  status: ('A' for Active; 'I' for Inactive)
    1  A    between atoms: N_4  and  S_35
    2  A    between atoms: C_6  and  O_38
    3  A    between atoms: C_10  and  C_23
    4  A    between atoms: C_10  and  C_29
    5  A    between atoms: C_12  and  C_25
    6  A    between atoms: C_18  and  C_28
    7  A    between atoms: C_26  and  C_36
    8  A    between atoms: S_35  and  C_36
                            x       y       z     vdW  Elec       q    Type
                         _______ _______ _______ _____ _____    ______ ____

>  <TORSDO>
F 8

$$$$
=
 OpenBabel11042416213D

 38 42  0  0  1  0  0  0  0  0999 V2000
  186.7340  177.2220  139.7400 C   0  0  0  0  0  3  0  0  0  0  0  0
  188.1060  173.3860  138.0130 N   0  0  0  0  0  1  0  0  0  0  0  0
  188.9330  173.7560  140.3760 C   0  0  0  0  0  0  0  0  0  0  0  0
  190.3260  172.5420  142.0630 C   0  0  0  0  0  0  0  0  0  0  0  0
  189.7680  172.5470  140.6480 C   0  0  0  0  0  2  0  0  0  0  0  0
  187.9990  175.7370  140.7390 N   0  0  0  0  0  0  0  0  0  0  0  0
  187.6730  175.3450  139.5290 C   0  0  0  0  0  0  0  0  0  0  0  0
  188.7730  174.7840  141.2890 C   0  0  0  0  0  0  0  0  0  0  0  0
  190.1450  173.6010  142.9130 C   0  0  0  0  0  0  0  0  0  0  0  0
  186.8960  176.2020  138.8460 N   0  0  0  0  0  0  0  0  0  0  0  0
  189.3230  174.7720  142.4960 C   0  0  0  0  0  3  0  0  0  0  0  0
  187.4240  176.9340  140.9270 C   0  0  0  0  0  0  0  0  0  0  0  0
  188.2220  174.1160  139.2300 C   0  0  0  0  0  0  0  0  0  0  0  0
  191.1300  174.7500  144.8400 C   0  0  0  0  0  0  0  0  0  0  0  0
  190.7940  173.6400  144.2380 C   0  0  0  0  0  3  0  0  0  0  0  0
  191.4660  175.8550  145.4500 C   0  0  0  0  0  0  0  0  0  0  0  0
  190.7310  177.1250  145.1860 C   0  0  0  0  0  2  0  0  0  0  0  0
  191.2400  177.7890  143.9190 C   0  0  0  0  0  1  0  0  0  0  0  0
  192.8890  175.8680  146.5300 S   0  0  0  0  0  0  0  0  0  0  0  0
  193.9820  175.4520  145.2090 N   0  0  0  0  0  0  0  0  0  0  0  0
  195.7890  176.3580  143.8300 C   0  0  0  0  0  2  0  0  0  0  0  0
  196.6720  175.2210  144.3350 C   0  0  1  0  0  3  0  0  0  0  0  0
  194.7340  176.6630  144.8890 C   0  0  0  0  0  2  0  0  0  0  0  0
  194.9180  174.4580  145.7320 C   0  0  0  0  0  2  0  0  0  0  0  0
  195.8540  174.0600  144.6810 N   0  0  0  0  0  2  0  0  0  0  0  0
  197.6650  174.8370  143.2580 C   0  0  0  0  0  1  0  0  0  0  0  0
  190.7640  170.0770  141.9540 C   0  0  0  0  0  1  0  0  0  0  0  0
  191.0570  171.3930  142.4070 O   0  0  0  0  0  0  0  0  0  0  0  0
  187.5240  177.7700  142.1440 C   0  0  0  0  0  0  0  0  0  0  0  0
  188.3790  178.6930  142.1770 O   0  0  0  0  0  0  0  0  0  0  0  0
  184.3940  178.2830  142.3150 C   0  0  0  0  0  1  0  0  0  0  0  0
  187.0470  177.1020  144.5710 C   0  0  0  0  0  3  0  0  0  0  0  0
  186.6510  177.5590  143.3240 C   0  0  0  0  0  0  0  0  0  0  0  0
  185.8810  177.0820  145.3140 C   0  0  0  0  0  0  0  0  0  0  0  0
  184.8560  177.4890  144.6020 O   0  0  0  0  0  0  0  0  0  0  0  0
  185.2840  177.7830  143.4010 C   0  0  0  0  0  0  0  0  0  0  0  0
  186.0440  177.4790  147.6380 O   0  0  0  0  0  0  0  0  0  0  0  0
  185.7950  176.6650  146.7110 C   0  0  0  0  0  3  0  0  0  0  0  0
  1 12  2  0  0  0  0
  2 13  1  0  0  0  0
  3  5  1  0  0  0  0
  3  8  1  0  0  0  0
  4 28  1  0  0  0  0
  4  9  2  0  0  0  0
  5  4  1  0  0  0  0
  6 12  1  0  0  0  0
  6  8  1  0  0  0  0
  7  6  1  0  0  0  0
  8 11  2  0  0  0  0
  9 15  1  0  0  0  0
 10  7  2  0  0  0  0
 10  1  1  0  0  0  0
 11  9  1  0  0  0  0
 12 29  1  0  0  0  0
 13  7  1  0  0  0  0
 13  3  2  0  0  0  0
 14 16  2  0  0  0  0
 15 14  2  0  0  0  0
 16 19  1  0  0  0  0
 17 16  1  0  0  0  0
 18 17  1  0  0  0  0
 20 24  1  0  0  0  0
 20 19  1  0  0  0  0
 21 22  1  0  0  0  0
 21 23  1  0  0  0  0
 22 26  1  6  0  0  0
 22 25  1  0  0  0  0
 23 20  1  0  0  0  0
 25 24  1  0  0  0  0
 27 28  1  0  0  0  0
 29 30  2  0  0  0  0
 29 33  1  0  0  0  0
 31 36  1  0  0  0  0
 32 34  2  0  0  0  0
 33 36  2  0  0  0  0
 33 32  1  0  0  0  0
 34 38  1  0  0  0  0
 35 34  1  0  0  0  0
 36 35  1  0  0  0  0
 38 37  2  0  0  0  0
M  END
>  <MODEL>
2

>  <REMARK>
 VINA RESULT:      -7.2      2.070      5.509
  Name = 
  8 active torsions:
  status: ('A' for Active; 'I' for Inactive)
    1  A    between atoms: N_4  and  S_35
    2  A    between atoms: C_6  and  O_38
    3  A    between atoms: C_10  and  C_23
    4  A    between atoms: C_10  and  C_29
    5  A    between atoms: C_12  and  C_25
    6  A    between atoms: C_18  and  C_28
    7  A    between atoms: C_26  and  C_36
    8  A    between atoms: S_35  and  C_36
                            x       y       z     vdW  Elec       q    Type
                         _______ _______ _______ _____ _____    ______ ____

>  <TORSDO>
F 8

$$$$
=
 OpenBabel11042416213D

 38 42  0  0  1  0  0  0  0  0999 V2000
  193.9120  172.9850  145.7680 C   0  0  0  0  0  3  0  0  0  0  0  0
  192.6980  169.4280  143.4340 N   0  0  0  0  0  1  0  0  0  0  0  0
  191.5250  171.5430  142.6900 C   0  0  0  0  0  0  0  0  0  0  0  0
  189.8470  172.2210  140.9620 C   0  0  0  0  0  0  0  0  0  0  0  0
  190.6180  171.0740  141.5980 C   0  0  0  0  0  2  0  0  0  0  0  0
  192.4570  172.9530  144.1290 N   0  0  0  0  0  0  0  0  0  0  0  0
  192.9550  171.7570  144.3440 C   0  0  0  0  0  0  0  0  0  0  0  0
  191.5760  172.8580  143.1170 C   0  0  0  0  0  0  0  0  0  0  0  0
  189.9280  173.5010  141.4460 C   0  0  0  0  0  0  0  0  0  0  0  0
  193.8570  171.6900  145.3380 N   0  0  0  0  0  0  0  0  0  0  0  0
  190.8440  173.8240  142.5770 C   0  0  0  0  0  3  0  0  0  0  0  0
  193.0350  173.7780  145.0130 C   0  0  0  0  0  0  0  0  0  0  0  0
  192.4180  170.8220  143.4850 C   0  0  0  0  0  0  0  0  0  0  0  0
  188.7190  175.6260  141.5970 C   0  0  0  0  0  0  0  0  0  0  0  0
  189.0820  174.5810  140.9020 C   0  0  0  0  0  3  0  0  0  0  0  0
  188.3550  176.6760  142.2830 C   0  0  0  0  0  0  0  0  0  0  0  0
  189.1920  177.1790  143.4090 C   0  0  0  0  0  2  0  0  0  0  0  0
  190.5000  177.7510  142.8940 C   0  0  0  0  0  1  0  0  0  0  0  0
  186.7820  177.4520  141.9390 S   0  0  0  0  0  0  0  0  0  0  0  0
  186.5430  177.8790  143.6340 N   0  0  0  0  0  0  0  0  0  0  0  0
  185.3760  179.4620  145.0890 C   0  0  0  0  0  2  0  0  0  0  0  0
  184.6890  178.2690  145.7480 C   0  0  1  0  0  3  0  0  0  0  0  0
  185.7270  179.0900  143.6520 C   0  0  0  0  0  2  0  0  0  0  0  0
  185.7670  176.7960  144.2370 C   0  0  0  0  0  2  0  0  0  0  0  0
  185.5370  177.0820  145.6530 N   0  0  0  0  0  2  0  0  0  0  0  0
  184.4200  178.5820  147.2040 C   0  0  0  0  0  1  0  0  0  0  0  0
  189.4840  171.7080  138.5370 C   0  0  0  0  0  1  0  0  0  0  0  0
  189.0330  171.8570  139.8770 O   0  0  0  0  0  0  0  0  0  0  0  0
  192.7750  175.2290  145.1540 C   0  0  0  0  0  0  0  0  0  0  0  0
  193.1820  176.0080  144.2540 O   0  0  0  0  0  0  0  0  0  0  0  0
  189.8480  174.4690  146.1260 C   0  0  0  0  0  1  0  0  0  0  0  0
  192.5170  176.7630  147.1900 C   0  0  0  0  0  3  0  0  0  0  0  0
  192.0490  175.7940  146.3160 C   0  0  0  0  0  0  0  0  0  0  0  0
  191.4810  176.9460  148.0860 C   0  0  0  0  0  0  0  0  0  0  0  0
  190.4620  176.1700  147.8010 O   0  0  0  0  0  0  0  0  0  0  0  0
  190.7700  175.4640  146.7430 C   0  0  0  0  0  0  0  0  0  0  0  0
  191.6590  177.4650  150.3850 O   0  0  0  0  0  0  0  0  0  0  0  0
  191.5090  177.8820  149.2070 C   0  0  0  0  0  3  0  0  0  0  0  0
  2 13  1  0  0  0  0
  3  8  1  0  0  0  0
  3 13  2  0  0  0  0
  4  9  2  0  0  0  0
  4  5  1  0  0  0  0
  5  3  1  0  0  0  0
  6  7  1  0  0  0  0
  6 12  1  0  0  0  0
  7 10  2  0  0  0  0
  8  6  1  0  0  0  0
  9 11  1  0  0  0  0
 10  1  1  0  0  0  0
 11  8  2  0  0  0  0
 12 29  1  0  0  0  0
 12  1  2  0  0  0  0
 13  7  1  0  0  0  0
 14 16  2  0  0  0  0
 15  9  1  0  0  0  0
 15 14  2  0  0  0  0
 16 17  1  0  0  0  0
 18 17  1  0  0  0  0
 19 16  1  0  0  0  0
 19 20  1  0  0  0  0
 20 23  1  0  0  0  0
 20 24  1  0  0  0  0
 21 22  1  0  0  0  0
 22 26  1  1  0  0  0
 23 21  1  0  0  0  0
 24 25  1  0  0  0  0
 25 22  1  0  0  0  0
 27 28  1  0  0  0  0
 28  4  1  0  0  0  0
 29 33  1  0  0  0  0
 30 29  2  0  0  0  0
 31 36  1  0  0  0  0
 32 34  2  0  0  0  0
 33 36  2  0  0  0  0
 33 32  1  0  0  0  0
 34 38  1  0  0  0  0
 35 34  1  0  0  0  0
 36 35  1  0  0  0  0
 38 37  2  0  0  0  0
M  END
>  <MODEL>
3

>  <REMARK>
 VINA RESULT:      -7.2      2.947      8.864
  Name = 
  8 active torsions:
  status: ('A' for Active; 'I' for Inactive)
    1  A    between atoms: N_4  and  S_35
    2  A    between atoms: C_6  and  O_38
    3  A    between atoms: C_10  and  C_23
    4  A    between atoms: C_10  and  C_29
    5  A    between atoms: C_12  and  C_25
    6  A    between atoms: C_18  and  C_28
    7  A    between atoms: C_26  and  C_36
    8  A    between atoms: S_35  and  C_36
                            x       y       z     vdW  Elec       q    Type
                         _______ _______ _______ _____ _____    ______ ____

>  <TORSDO>
F 8

$$$$
=
 OpenBabel11042416213D

 38 42  0  0  1  0  0  0  0  0999 V2000
  187.6350  177.5160  147.6300 C   0  0  0  0  0  3  0  0  0  0  0  0
  185.2720  179.4190  144.4100 N   0  0  0  0  0  1  0  0  0  0  0  0
  186.7980  177.5870  143.5630 C   0  0  0  0  0  0  0  0  0  0  0  0
  187.3590  176.5050  141.3770 C   0  0  0  0  0  0  0  0  0  0  0  0
  186.5650  177.5920  142.0870 C   0  0  0  0  0  2  0  0  0  0  0  0
  187.7100  177.0030  145.5010 N   0  0  0  0  0  0  0  0  0  0  0  0
  186.8470  177.9680  145.7260 C   0  0  0  0  0  0  0  0  0  0  0  0
  187.7040  176.7430  144.1810 C   0  0  0  0  0  0  0  0  0  0  0  0
  188.2550  175.7130  142.0470 C   0  0  0  0  0  0  0  0  0  0  0  0
  186.7420  178.3430  147.0120 N   0  0  0  0  0  0  0  0  0  0  0  0
  188.4240  175.8440  143.5220 C   0  0  0  0  0  3  0  0  0  0  0  0
  188.2430  176.6750  146.6860 C   0  0  0  0  0  0  0  0  0  0  0  0
  186.2400  178.3860  144.5620 C   0  0  0  0  0  0  0  0  0  0  0  0
  189.5450  173.6390  141.8660 C   0  0  0  0  0  0  0  0  0  0  0  0
  189.1090  174.7470  141.3290 C   0  0  0  0  0  3  0  0  0  0  0  0
  189.9820  172.5260  142.3930 C   0  0  0  0  0  0  0  0  0  0  0  0
  189.2210  171.8490  143.4830 C   0  0  0  0  0  2  0  0  0  0  0  0
  189.7420  172.2700  144.8450 C   0  0  0  0  0  1  0  0  0  0  0  0
  191.5620  171.8680  141.8800 S   0  0  0  0  0  0  0  0  0  0  0  0
  190.9740  171.5440  140.2480 N   0  0  0  0  0  0  0  0  0  0  0  0
  191.6210  171.6790  137.8920 C   0  0  0  0  0  2  0  0  0  0  0  0
  191.3970  170.1730  137.7990 C   0  0  1  0  0  3  0  0  0  0  0  0
  192.0000  172.0280  139.3280 C   0  0  0  0  0  2  0  0  0  0  0  0
  190.8870  170.0910  140.1110 C   0  0  0  0  0  2  0  0  0  0  0  0
  190.3960  169.7490  138.7760 N   0  0  0  0  0  2  0  0  0  0  0  0
  190.9240  169.8170  136.4050 C   0  0  0  0  0  1  0  0  0  0  0  0
  186.4290  177.3730  139.2190 C   0  0  0  0  0  1  0  0  0  0  0  0
  187.1240  176.4070  139.9960 O   0  0  0  0  0  0  0  0  0  0  0  0
  189.2760  175.6420  146.9240 C   0  0  0  0  0  0  0  0  0  0  0  0
  188.9240  174.5330  147.4060 O   0  0  0  0  0  0  0  0  0  0  0  0
  191.3930  177.2040  148.7030 C   0  0  0  0  0  1  0  0  0  0  0  0
  191.3820  175.4350  145.4800 C   0  0  0  0  0  3  0  0  0  0  0  0
  190.7080  175.8660  146.6120 C   0  0  0  0  0  0  0  0  0  0  0  0
  192.6750  175.8910  145.6580 C   0  0  0  0  0  0  0  0  0  0  0  0
  192.7980  176.5450  146.7890 O   0  0  0  0  0  0  0  0  0  0  0  0
  191.6350  176.5480  147.3870 C   0  0  0  0  0  0  0  0  0  0  0  0
  194.9650  175.8010  145.0800 O   0  0  0  0  0  0  0  0  0  0  0  0
  193.7670  175.6770  144.7120 C   0  0  0  0  0  3  0  0  0  0  0  0
  2 13  1  0  0  0  0
  3  8  1  0  0  0  0
  3 13  2  0  0  0  0
  4  9  2  0  0  0  0
  4  5  1  0  0  0  0
  5  3  1  0  0  0  0
  6  7  1  0  0  0  0
  6 12  1  0  0  0  0
  7 10  2  0  0  0  0
  8  6  1  0  0  0  0
  9 11  1  0  0  0  0
 10  1  1  0  0  0  0
 11  8  2  0  0  0  0
 12 29  1  0  0  0  0
 12  1  2  0  0  0  0
 13  7  1  0  0  0  0
 14 16  2  0  0  0  0
 15 14  2  0  0  0  0
 15  9  1  0  0  0  0
 16 17  1  0  0  0  0
 17 18  1  0  0  0  0
 19 16  1  0  0  0  0
 20 19  1  0  0  0  0
 21 23  1  0  0  0  0
 22 26  1  6  0  0  0
 22 21  1  0  0  0  0
 22 25  1  0  0  0  0
 23 20  1  0  0  0  0
 24 20  1  0  0  0  0
 25 24  1  0  0  0  0
 27 28  1  0  0  0  0
 28  4  1  0  0  0  0
 29 30  2  0  0  0  0
 32 34  2  0  0  0  0
 32 33  1  0  0  0  0
 33 29  1  0  0  0  0
 33 36  2  0  0  0  0
 34 35  1  0  0  0  0
 35 36  1  0  0  0  0
 36 31  1  0  0  0  0
 38 37  2  0  0  0  0
 38 34  1  0  0  0  0
M  END
>  <MODEL>
4

>  <REMARK>
 VINA RESULT:      -7.1      3.666      6.767
  Name = 
  8 active torsions:
  status: ('A' for Active; 'I' for Inactive)
    1  A    between atoms: N_4  and  S_35
    2  A    between atoms: C_6  and  O_38
    3  A    between atoms: C_10  and  C_23
    4  A    between atoms: C_10  and  C_29
    5  A    between atoms: C_12  and  C_25
    6  A    between atoms: C_18  and  C_28
    7  A    between atoms: C_26  and  C_36
    8  A    between atoms: S_35  and  C_36
                            x       y       z     vdW  Elec       q    Type
                         _______ _______ _______ _____ _____    ______ ____

>  <TORSDO>
F 8

$$$$
=
 OpenBabel11042416213D

 38 42  0  0  1  0  0  0  0  0999 V2000
  187.7700  177.4870  147.4910 C   0  0  0  0  0  3  0  0  0  0  0  0
  185.2820  179.2750  144.3000 N   0  0  0  0  0  1  0  0  0  0  0  0
  186.8700  177.5050  143.4370 C   0  0  0  0  0  0  0  0  0  0  0  0
  187.4430  176.4380  141.2470 C   0  0  0  0  0  0  0  0  0  0  0  0
  186.6150  177.4940  141.9640 C   0  0  0  0  0  2  0  0  0  0  0  0
  187.8350  176.9680  145.3630 N   0  0  0  0  0  0  0  0  0  0  0  0
  186.9360  177.8970  145.5980 C   0  0  0  0  0  0  0  0  0  0  0  0
  187.8200  176.7020  144.0440 C   0  0  0  0  0  0  0  0  0  0  0  0
  188.3810  175.6870  141.9050 C   0  0  0  0  0  0  0  0  0  0  0  0
  186.8340  178.2730  146.8830 N   0  0  0  0  0  0  0  0  0  0  0  0
  188.5670  175.8320  143.3770 C   0  0  0  0  0  3  0  0  0  0  0  0
  188.3990  176.6680  146.5410 C   0  0  0  0  0  0  0  0  0  0  0  0
  186.2940  178.2840  144.4410 C   0  0  0  0  0  0  0  0  0  0  0  0
  189.7500  173.6650  141.7100 C   0  0  0  0  0  0  0  0  0  0  0  0
  189.2650  174.7550  141.1780 C   0  0  0  0  0  3  0  0  0  0  0  0
  190.2360  172.5710  142.2330 C   0  0  0  0  0  0  0  0  0  0  0  0
  189.5150  171.8660  143.3320 C   0  0  0  0  0  2  0  0  0  0  0  0
  189.6920  172.5980  144.6490 C   0  0  0  0  0  1  0  0  0  0  0  0
  191.8340  171.9740  141.7010 S   0  0  0  0  0  0  0  0  0  0  0  0
  192.2120  171.3480  143.3070 N   0  0  0  0  0  0  0  0  0  0  0  0
  193.0830  169.3760  144.4630 C   0  0  0  0  0  2  0  0  0  0  0  0
  194.1890  170.2620  145.0290 C   0  0  1  0  0  3  0  0  0  0  0  0
  192.6260  169.9580  143.1290 C   0  0  0  0  0  2  0  0  0  0  0  0
  193.3600  172.1080  143.7980 C   0  0  0  0  0  2  0  0  0  0  0  0
  193.7240  171.6440  145.1360 N   0  0  0  0  0  2  0  0  0  0  0  0
  194.5890  169.7560  146.3990 C   0  0  0  0  0  1  0  0  0  0  0  0
  186.3150  177.1660  139.1310 C   0  0  0  0  0  1  0  0  0  0  0  0
  187.1910  176.3240  139.8690 O   0  0  0  0  0  0  0  0  0  0  0  0
  189.4780  175.6800  146.7670 C   0  0  0  0  0  0  0  0  0  0  0  0
  189.1770  174.5500  147.2330 O   0  0  0  0  0  0  0  0  0  0  0  0
  191.5660  177.1650  148.6430 C   0  0  0  0  0  1  0  0  0  0  0  0
  191.5720  175.6530  145.2910 C   0  0  0  0  0  3  0  0  0  0  0  0
  190.8980  175.9730  146.4600 C   0  0  0  0  0  0  0  0  0  0  0  0
  192.8520  176.1350  145.4920 C   0  0  0  0  0  0  0  0  0  0  0  0
  192.9690  176.7030  146.6700 O   0  0  0  0  0  0  0  0  0  0  0  0
  191.8130  176.6220  147.2770 C   0  0  0  0  0  0  0  0  0  0  0  0
  194.9760  176.7330  144.6460 O   0  0  0  0  0  0  0  0  0  0  0  0
  193.9400  176.0300  144.5220 C   0  0  0  0  0  3  0  0  0  0  0  0
  2 13  1  0  0  0  0
  3  8  1  0  0  0  0
  3 13  2  0  0  0  0
  4  9  2  0  0  0  0
  4  5  1  0  0  0  0
  5  3  1  0  0  0  0
  6  7  1  0  0  0  0
  6 12  1  0  0  0  0
  7 10  2  0  0  0  0
  8  6  1  0  0  0  0
  9 11  1  0  0  0  0
 10  1  1  0  0  0  0
 11  8  2  0  0  0  0
 12 29  1  0  0  0  0
 12  1  2  0  0  0  0
 13  7  1  0  0  0  0
 14 16  2  0  0  0  0
 15 14  2  0  0  0  0
 15  9  1  0  0  0  0
 16 17  1  0  0  0  0
 17 18  1  0  0  0  0
 19 16  1  0  0  0  0
 19 20  1  0  0  0  0
 20 24  1  0  0  0  0
 21 22  1  0  0  0  0
 22 25  1  0  0  0  0
 22 26  1  1  0  0  0
 23 20  1  0  0  0  0
 23 21  1  0  0  0  0
 24 25  1  0  0  0  0
 27 28  1  0  0  0  0
 28  4  1  0  0  0  0
 29 30  2  0  0  0  0
 32 34  2  0  0  0  0
 32 33  1  0  0  0  0
 33 29  1  0  0  0  0
 33 36  2  0  0  0  0
 34 35  1  0  0  0  0
 35 36  1  0  0  0  0
 36 31  1  0  0  0  0
 38 37  2  0  0  0  0
 38 34  1  0  0  0  0
M  END
>  <MODEL>
5

>  <REMARK>
 VINA RESULT:      -7.0      3.147      6.041
  Name = 
  8 active torsions:
  status: ('A' for Active; 'I' for Inactive)
    1  A    between atoms: N_4  and  S_35
    2  A    between atoms: C_6  and  O_38
    3  A    between atoms: C_10  and  C_23
    4  A    between atoms: C_10  and  C_29
    5  A    between atoms: C_12  and  C_25
    6  A    between atoms: C_18  and  C_28
    7  A    between atoms: C_26  and  C_36
    8  A    between atoms: S_35  and  C_36
                            x       y       z     vdW  Elec       q    Type
                         _______ _______ _______ _____ _____    ______ ____

>  <TORSDO>
F 8

$$$$
=
 OpenBabel11042416213D

 38 42  0  0  1  0  0  0  0  0999 V2000
  185.1110  177.8170  140.0300 C   0  0  0  0  0  3  0  0  0  0  0  0
  182.2020  179.0030  143.1450 N   0  0  0  0  0  1  0  0  0  0  0  0
  184.4870  178.4570  144.0860 C   0  0  0  0  0  0  0  0  0  0  0  0
  185.6060  178.4080  146.3230 C   0  0  0  0  0  0  0  0  0  0  0  0
  184.3100  178.6360  145.5590 C   0  0  0  0  0  3  0  0  0  0  0  0
  185.5070  177.9440  142.1810 N   0  0  0  0  0  0  0  0  0  0  0  0
  184.2670  178.2800  141.9070 C   0  0  0  0  0  0  0  0  0  0  0  0
  185.6770  178.0430  143.5120 C   0  0  2  0  0  3  0  0  0  0  0  0
  186.7470  177.9800  145.6960 C   0  0  0  0  0  0  0  0  0  0  0  0
  183.9420  178.2270  140.6040 N   0  0  0  0  0  0  0  0  0  0  0  0
  186.7730  177.7970  144.2170 C   0  0  0  0  0  3  0  0  0  0  0  0
  186.0930  177.6380  141.0150 C   0  0  0  0  0  0  0  0  0  0  0  0
  183.5670  178.6110  143.0470 C   0  0  0  0  0  0  0  0  0  0  0  0
  189.0390  177.1440  145.9170 C   0  0  0  0  0  0  0  0  0  0  0  0
  187.9620  177.6430  146.4630 C   0  0  0  0  0  3  0  0  0  0  0  0
  190.1210  176.6480  145.3780 C   0  0  0  0  0  0  0  0  0  0  0  0
  190.4570  176.9230  143.9520 C   0  0  0  0  0  2  0  0  0  0  0  0
  191.0500  178.3110  143.7960 C   0  0  0  0  0  1  0  0  0  0  0  0
  191.1520  175.5400  146.3300 S   0  0  0  0  0  0  0  0  0  0  0  0
  191.3270  174.4270  144.9730 N   0  0  0  0  0  0  0  0  0  0  0  0
  192.8120  172.7170  144.0470 C   0  0  0  0  0  2  0  0  0  0  0  0
  191.6480  171.7340  144.1350 C   0  0  1  0  0  3  0  0  0  0  0  0
  192.6310  173.7850  145.1210 C   0  0  0  0  0  2  0  0  0  0  0  0
  190.2930  173.4040  145.1290 C   0  0  0  0  0  2  0  0  0  0  0  0
  190.3750  172.4460  144.0280 N   0  0  0  0  0  2  0  0  0  0  0  0
  191.7560  170.7200  143.0150 C   0  0  0  0  0  1  0  0  0  0  0  0
  186.1280  179.7300  148.3860 C   0  0  0  0  0  1  0  0  0  0  0  0
  185.5250  178.6370  147.7060 O   0  0  0  0  0  0  0  0  0  0  0  0
  187.4920  177.1910  140.8320 C   0  0  0  0  0  0  0  0  0  0  0  0
  188.4240  178.0080  141.0480 O   0  0  0  0  0  0  0  0  0  0  0  0
  187.0820  175.9320  137.9450 C   0  0  0  0  0  1  0  0  0  0  0  0
  188.3920  174.8190  141.1950 C   0  0  0  0  0  3  0  0  0  0  0  0
  187.8330  175.8120  140.4060 C   0  0  0  0  0  0  0  0  0  0  0  0
  188.5110  173.7340  140.3470 C   0  0  0  0  0  0  0  0  0  0  0  0
  188.0690  174.0180  139.1450 O   0  0  0  0  0  0  0  0  0  0  0  0
  187.6550  175.2590  139.1450 C   0  0  0  0  0  0  0  0  0  0  0  0
  190.0080  171.9240  140.0870 O   0  0  0  0  0  0  0  0  0  0  0  0
  189.0570  172.4350  140.7340 C   0  0  0  0  0  3  0  0  0  0  0  0
  1 10  1  0  0  0  0
  1 12  2  0  0  0  0
  3  5  1  0  0  0  0
  4 28  1  0  0  0  0
  5  4  2  0  0  0  0
  6  8  1  0  0  0  0
  7  6  1  0  0  0  0
  7 13  1  0  0  0  0
  8  3  1  0  0  0  0
  8 11  1  1  0  0  0
  9  4  1  0  0  0  0
  9 15  1  0  0  0  0
 10  7  2  0  0  0  0
 11  9  2  0  0  0  0
 12  6  1  0  0  0  0
 13  2  1  0  0  0  0
 13  3  2  0  0  0  0
 14 15  2  0  0  0  0
 16 14  2  0  0  0  0
 16 19  1  0  0  0  0
 17 16  1  0  0  0  0
 18 17  1  0  0  0  0
 20 23  1  0  0  0  0
 20 24  1  0  0  0  0
 20 19  1  0  0  0  0
 21 22  1  0  0  0  0
 21 23  1  0  0  0  0
 22 26  1  6  0  0  0
 25 22  1  0  0  0  0
 25 24  1  0  0  0  0
 28 27  1  0  0  0  0
 29 12  1  0  0  0  0
 29 30  2  0  0  0  0
 31 36  1  0  0  0  0
 33 29  1  0  0  0  0
 33 32  1  0  0  0  0
 34 38  1  0  0  0  0
 34 32  2  0  0  0  0
 35 34  1  0  0  0  0
 36 35  1  0  0  0  0
 36 33  2  0  0  0  0
 37 38  2  0  0  0  0
M  END
>  <MODEL>
6

>  <REMARK>
 VINA RESULT:      -6.9      1.429      1.984
  Name = 
  8 active torsions:
  status: ('A' for Active; 'I' for Inactive)
    1  A    between atoms: N_4  and  S_35
    2  A    between atoms: C_6  and  O_38
    3  A    between atoms: C_10  and  C_23
    4  A    between atoms: C_10  and  C_29
    5  A    between atoms: C_12  and  C_25
    6  A    between atoms: C_18  and  C_28
    7  A    between atoms: C_26  and  C_36
    8  A    between atoms: S_35  and  C_36
                            x       y       z     vdW  Elec       q    Type
                         _______ _______ _______ _____ _____    ______ ____

>  <TORSDO>
F 8

$$$$
=
 OpenBabel11042416213D

 38 42  0  0  1  0  0  0  0  0999 V2000
  188.6470  176.9660  147.3290 C   0  0  0  0  0  3  0  0  0  0  0  0
  185.2050  179.3460  145.8930 N   0  0  0  0  0  1  0  0  0  0  0  0
  186.2650  177.9460  144.0710 C   0  0  0  0  0  0  0  0  0  0  0  0
  185.9100  177.4980  141.6350 C   0  0  0  0  0  0  0  0  0  0  0  0
  185.4660  178.2900  142.8560 C   0  0  0  0  0  2  0  0  0  0  0  0
  187.8700  177.0020  145.2800 N   0  0  0  0  0  0  0  0  0  0  0  0
  187.1700  177.7870  146.0670 C   0  0  0  0  0  0  0  0  0  0  0  0
  187.3400  177.0750  144.0460 C   0  0  0  0  0  0  0  0  0  0  0  0
  186.9960  176.6630  141.6720 C   0  0  0  0  0  0  0  0  0  0  0  0
  187.5840  177.8230  147.3440 N   0  0  0  0  0  0  0  0  0  0  0  0
  187.7370  176.4450  142.9470 C   0  0  0  0  0  3  0  0  0  0  0  0
  188.8290  176.4510  146.0370 C   0  0  0  0  0  0  0  0  0  0  0  0
  186.1510  178.4130  145.3810 C   0  0  0  0  0  0  0  0  0  0  0  0
  188.2160  174.9090  140.4740 C   0  0  0  0  0  0  0  0  0  0  0  0
  187.4930  175.9970  140.4530 C   0  0  0  0  0  3  0  0  0  0  0  0
  188.9350  173.8190  140.4870 C   0  0  0  0  0  0  0  0  0  0  0  0
  188.8260  172.8460  141.6120 C   0  0  0  0  0  2  0  0  0  0  0  0
  187.3910  172.7400  142.0950 C   0  0  0  0  0  1  0  0  0  0  0  0
  190.1420  173.5440  139.1980 S   0  0  0  0  0  0  0  0  0  0  0  0
  190.5260  171.9330  139.8050 N   0  0  0  0  0  0  0  0  0  0  0  0
  190.6250  169.5820  139.1360 C   0  0  0  0  0  2  0  0  0  0  0  0
  192.1060  169.5940  139.5030 C   0  0  1  0  0  3  0  0  0  0  0  0
  190.2100  170.9930  138.7320 C   0  0  0  0  0  2  0  0  0  0  0  0
  191.9700  171.9000  140.0310 C   0  0  0  0  0  2  0  0  0  0  0  0
  192.3600  170.5880  140.5450 N   0  0  0  0  0  2  0  0  0  0  0  0
  192.5150  168.2240  140.0000 C   0  0  0  0  0  1  0  0  0  0  0  0
  183.8360  178.2700  140.4600 C   0  0  0  0  0  1  0  0  0  0  0  0
  185.1460  177.7190  140.4770 O   0  0  0  0  0  0  0  0  0  0  0  0
  189.8680  175.5030  145.5760 C   0  0  0  0  0  0  0  0  0  0  0  0
  189.5700  174.2860  145.4590 O   0  0  0  0  0  0  0  0  0  0  0  0
  191.0860  175.9380  142.6750 C   0  0  0  0  0  1  0  0  0  0  0  0
  192.2580  176.2300  146.1470 C   0  0  0  0  0  3  0  0  0  0  0  0
  191.2470  175.9380  145.2450 C   0  0  0  0  0  0  0  0  0  0  0  0
  193.3340  176.5790  145.3540 C   0  0  0  0  0  0  0  0  0  0  0  0
  193.0290  176.5100  144.0790 O   0  0  0  0  0  0  0  0  0  0  0  0
  191.7820  176.1280  143.9790 C   0  0  0  0  0  0  0  0  0  0  0  0
  195.0530  178.1580  145.7300 O   0  0  0  0  0  0  0  0  0  0  0  0
  194.6460  176.9740  145.8620 C   0  0  0  0  0  3  0  0  0  0  0  0
  1 10  1  0  0  0  0
  3 13  2  0  0  0  0
  4  9  2  0  0  0  0
  4  5  1  0  0  0  0
  5  3  1  0  0  0  0
  6 12  1  0  0  0  0
  6  7  1  0  0  0  0
  7 10  2  0  0  0  0
  8  3  1  0  0  0  0
  8  6  1  0  0  0  0
  9 11  1  0  0  0  0
 11  8  2  0  0  0  0
 12  1  2  0  0  0  0
 13  2  1  0  0  0  0
 13  7  1  0  0  0  0
 14 16  2  0  0  0  0
 15 14  2  0  0  0  0
 15  9  1  0  0  0  0
 16 17  1  0  0  0  0
 17 18  1  0  0  0  0
 19 20  1  0  0  0  0
 19 16  1  0  0  0  0
 20 24  1  0  0  0  0
 21 22  1  0  0  0  0
 22 26  1  1  0  0  0
 22 25  1  0  0  0  0
 23 21  1  0  0  0  0
 23 20  1  0  0  0  0
 24 25  1  0  0  0  0
 27 28  1  0  0  0  0
 28  4  1  0  0  0  0
 29 12  1  0  0  0  0
 30 29  2  0  0  0  0
 31 36  1  0  0  0  0
 33 29  1  0  0  0  0
 33 32  1  0  0  0  0
 34 38  1  0  0  0  0
 34 32  2  0  0  0  0
 35 34  1  0  0  0  0
 36 35  1  0  0  0  0
 36 33  2  0  0  0  0
 37 38  2  0  0  0  0
M  END
>  <MODEL>
7

>  <REMARK>
 VINA RESULT:      -6.8      3.529      6.412
  Name = 
  8 active torsions:
  status: ('A' for Active; 'I' for Inactive)
    1  A    between atoms: N_4  and  S_35
    2  A    between atoms: C_6  and  O_38
    3  A    between atoms: C_10  and  C_23
    4  A    between atoms: C_10  and  C_29
    5  A    between atoms: C_12  and  C_25
    6  A    between atoms: C_18  and  C_28
    7  A    between atoms: C_26  and  C_36
    8  A    between atoms: S_35  and  C_36
                            x       y       z     vdW  Elec       q    Type
                         _______ _______ _______ _____ _____    ______ ____

>  <TORSDO>
F 8

$$$$
=
 OpenBabel11042416213D

 38 42  0  0  1  0  0  0  0  0999 V2000
  187.8940  177.5670  147.6980 C   0  0  0  0  0  3  0  0  0  0  0  0
  185.4260  179.3810  144.5060 N   0  0  0  0  0  1  0  0  0  0  0  0
  186.9980  177.5970  143.6430 C   0  0  0  0  0  0  0  0  0  0  0  0
  187.5630  176.5260  141.4530 C   0  0  0  0  0  0  0  0  0  0  0  0
  186.7440  177.5890  142.1700 C   0  0  0  0  0  2  0  0  0  0  0  0
  187.9550  177.0490  145.5700 N   0  0  0  0  0  0  0  0  0  0  0  0
  187.0660  177.9860  145.8040 C   0  0  0  0  0  0  0  0  0  0  0  0
  187.9400  176.7850  144.2510 C   0  0  0  0  0  0  0  0  0  0  0  0
  188.4930  175.7660  142.1110 C   0  0  0  0  0  0  0  0  0  0  0  0
  186.9660  178.3630  147.0900 N   0  0  0  0  0  0  0  0  0  0  0  0
  188.6790  175.9080  143.5840 C   0  0  0  0  0  3  0  0  0  0  0  0
  188.5160  176.7430  146.7480 C   0  0  0  0  0  0  0  0  0  0  0  0
  186.4280  178.3810  144.6480 C   0  0  0  0  0  0  0  0  0  0  0  0
  189.7660  173.6850  141.8820 C   0  0  0  0  0  0  0  0  0  0  0  0
  189.3680  174.8260  141.3850 C   0  0  0  0  0  3  0  0  0  0  0  0
  190.1640  172.5410  142.3710 C   0  0  0  0  0  0  0  0  0  0  0  0
  189.3460  171.8210  143.3890 C   0  0  0  0  0  2  0  0  0  0  0  0
  189.6920  172.2910  144.7900 C   0  0  0  0  0  1  0  0  0  0  0  0
  191.7580  171.8870  141.8970 S   0  0  0  0  0  0  0  0  0  0  0  0
  192.4260  173.5020  141.6540 N   0  0  0  0  0  0  0  0  0  0  0  0
  194.0940  175.0610  142.5310 C   0  0  0  0  0  2  0  0  0  0  0  0
  194.7410  175.0640  141.1490 C   0  0  1  0  0  3  0  0  0  0  0  0
  193.3830  173.7270  142.7350 C   0  0  0  0  0  2  0  0  0  0  0  0
  193.1620  173.4690  140.3910 C   0  0  0  0  0  2  0  0  0  0  0  0
  193.7390  174.7850  140.1210 N   0  0  0  0  0  2  0  0  0  0  0  0
  195.3700  176.4160  140.8880 C   0  0  0  0  0  1  0  0  0  0  0  0
  186.3430  177.1740  139.3620 C   0  0  0  0  0  1  0  0  0  0  0  0
  187.3110  176.4160  140.0750 O   0  0  0  0  0  0  0  0  0  0  0  0
  189.5850  175.7440  146.9740 C   0  0  0  0  0  0  0  0  0  0  0  0
  189.2600  174.5520  147.2100 O   0  0  0  0  0  0  0  0  0  0  0  0
  191.1700  177.5410  149.0600 C   0  0  0  0  0  1  0  0  0  0  0  0
  191.9390  175.7130  145.9630 C   0  0  0  0  0  3  0  0  0  0  0  0
  191.0240  176.1000  146.9300 C   0  0  0  0  0  0  0  0  0  0  0  0
  193.1270  176.2950  146.3640 C   0  0  0  0  0  0  0  0  0  0  0  0
  192.9710  176.9820  147.4720 O   0  0  0  0  0  0  0  0  0  0  0  0
  191.7190  176.8840  147.8390 C   0  0  0  0  0  0  0  0  0  0  0  0
  195.2010  175.2460  145.9390 O   0  0  0  0  0  0  0  0  0  0  0  0
  194.3950  176.1690  145.6500 C   0  0  0  0  0  3  0  0  0  0  0  0
  2 13  1  0  0  0  0
  3  8  1  0  0  0  0
  3 13  2  0  0  0  0
  4  9  2  0  0  0  0
  4  5  1  0  0  0  0
  5  3  1  0  0  0  0
  6  7  1  0  0  0  0
  6 12  1  0  0  0  0
  7 10  2  0  0  0  0
  8  6  1  0  0  0  0
  9 11  1  0  0  0  0
 10  1  1  0  0  0  0
 11  8  2  0  0  0  0
 12 29  1  0  0  0  0
 12  1  2  0  0  0  0
 13  7  1  0  0  0  0
 14 16  2  0  0  0  0
 15 14  2  0  0  0  0
 15  9  1  0  0  0  0
 16 17  1  0  0  0  0
 17 18  1  0  0  0  0
 19 16  1  0  0  0  0
 20 19  1  0  0  0  0
 20 23  1  0  0  0  0
 21 23  1  0  0  0  0
 22 26  1  6  0  0  0
 22 21  1  0  0  0  0
 24 20  1  0  0  0  0
 25 24  1  0  0  0  0
 25 22  1  0  0  0  0
 27 28  1  0  0  0  0
 28  4  1  0  0  0  0
 29 30  2  0  0  0  0
 32 34  2  0  0  0  0
 32 33  1  0  0  0  0
 33 29  1  0  0  0  0
 33 36  2  0  0  0  0
 34 35  1  0  0  0  0
 35 36  1  0  0  0  0
 36 31  1  0  0  0  0
 38 37  2  0  0  0  0
 38 34  1  0  0  0  0
M  END
>  <MODEL>
8

>  <REMARK>
 VINA RESULT:      -6.7      3.256      6.084
  Name = 
  8 active torsions:
  status: ('A' for Active; 'I' for Inactive)
    1  A    between atoms: N_4  and  S_35
    2  A    between atoms: C_6  and  O_38
    3  A    between atoms: C_10  and  C_23
    4  A    between atoms: C_10  and  C_29
    5  A    between atoms: C_12  and  C_25
    6  A    between atoms: C_18  and  C_28
    7  A    between atoms: C_26  and  C_36
    8  A    between atoms: S_35  and  C_36
                            x       y       z     vdW  Elec       q    Type
                         _______ _______ _______ _____ _____    ______ ____

>  <TORSDO>
F 8

$$$$
=
 OpenBabel11042416213D

 38 42  0  0  1  0  0  0  0  0999 V2000
  185.0980  177.5270  142.3530 C   0  0  0  0  0  3  0  0  0  0  0  0
  185.0760  178.0830  146.7420 N   0  0  0  0  0  1  0  0  0  0  0  0
  187.3800  177.5860  145.8230 C   0  0  0  0  0  0  0  0  0  0  0  0
  189.7090  177.3260  146.7000 C   0  0  0  0  0  0  0  0  0  0  0  0
  188.2440  177.5580  147.0410 C   0  0  0  0  0  3  0  0  0  0  0  0
  186.8390  177.4010  143.6770 N   0  0  0  0  0  0  0  0  0  0  0  0
  185.7480  177.6790  144.3540 C   0  0  0  0  0  0  0  0  0  0  0  0
  187.8620  177.3370  144.5490 C   0  0  2  0  0  3  0  0  0  0  0  0
  190.1180  177.0680  145.4180 C   0  0  0  0  0  0  0  0  0  0  0  0
  184.6320  177.7730  143.6130 N   0  0  0  0  0  0  0  0  0  0  0  0
  189.1380  177.0810  144.2950 C   0  0  0  0  0  3  0  0  0  0  0  0
  186.4800  177.2930  142.3900 C   0  0  0  0  0  0  0  0  0  0  0  0
  186.0070  177.8070  145.7020 C   0  0  0  0  0  0  0  0  0  0  0  0
  191.9440  175.4930  144.9810 C   0  0  0  0  0  0  0  0  0  0  0  0
  191.5210  176.7220  145.1170 C   0  0  0  0  0  3  0  0  0  0  0  0
  192.3730  174.2680  144.8390 C   0  0  0  0  0  0  0  0  0  0  0  0
  191.4540  173.1860  144.3830 C   0  0  0  0  0  2  0  0  0  0  0  0
  190.0960  173.3160  145.0480 C   0  0  0  0  0  1  0  0  0  0  0  0
  194.0520  173.8640  145.3000 S   0  0  0  0  0  0  0  0  0  0  0  0
  194.7180  174.7840  143.9510 N   0  0  0  0  0  0  0  0  0  0  0  0
  196.7590  175.8920  143.1800 C   0  0  0  0  0  2  0  0  0  0  0  0
  196.7400  174.9660  141.9670 C   0  0  1  0  0  3  0  0  0  0  0  0
  196.0670  175.1870  144.3430 C   0  0  0  0  0  2  0  0  0  0  0  0
  194.8270  173.8610  142.8220 C   0  0  0  0  0  2  0  0  0  0  0  0
  195.3690  174.5630  141.6600 N   0  0  0  0  0  2  0  0  0  0  0  0
  197.3360  175.6830  140.7740 C   0  0  0  0  0  1  0  0  0  0  0  0
  191.1940  176.2290  148.3930 C   0  0  0  0  0  1  0  0  0  0  0  0
  190.5850  177.3660  147.7970 O   0  0  0  0  0  0  0  0  0  0  0  0
  187.3770  176.9750  141.2570 C   0  0  0  0  0  0  0  0  0  0  0  0
  187.7830  177.9140  140.5230 O   0  0  0  0  0  0  0  0  0  0  0  0
  187.3770  175.5440  138.4210 C   0  0  0  0  0  1  0  0  0  0  0  0
  188.3070  174.6670  141.8690 C   0  0  0  0  0  3  0  0  0  0  0  0
  187.8180  175.5910  140.9580 C   0  0  0  0  0  0  0  0  0  0  0  0
  188.5700  173.5430  141.1080 C   0  0  0  0  0  0  0  0  0  0  0  0
  188.2720  173.7430  139.8450 O   0  0  0  0  0  0  0  0  0  0  0  0
  187.8180  174.9630  139.7210 C   0  0  0  0  0  0  0  0  0  0  0  0
  190.2070  171.8430  141.2180 O   0  0  0  0  0  0  0  0  0  0  0  0
  189.1070  172.2920  141.6350 C   0  0  0  0  0  3  0  0  0  0  0  0
  1 12  2  0  0  0  0
  1 10  1  0  0  0  0
  3  5  1  0  0  0  0
  4  5  2  0  0  0  0
  4 28  1  0  0  0  0
  6  7  1  0  0  0  0
  6  8  1  0  0  0  0
  7 13  1  0  0  0  0
  8 11  1  1  0  0  0
  8  3  1  0  0  0  0
  9  4  1  0  0  0  0
 10  7  2  0  0  0  0
 11  9  2  0  0  0  0
 12  6  1  0  0  0  0
 13  3  2  0  0  0  0
 13  2  1  0  0  0  0
 14 15  2  0  0  0  0
 15  9  1  0  0  0  0
 16 14  2  0  0  0  0
 16 19  1  0  0  0  0
 17 16  1  0  0  0  0
 17 18  1  0  0  0  0
 20 23  1  0  0  0  0
 20 19  1  0  0  0  0
 21 23  1  0  0  0  0
 22 26  1  6  0  0  0
 22 21  1  0  0  0  0
 24 20  1  0  0  0  0
 25 22  1  0  0  0  0
 25 24  1  0  0  0  0
 28 27  1  0  0  0  0
 29 12  1  0  0  0  0
 30 29  2  0  0  0  0
 31 36  1  0  0  0  0
 33 29  1  0  0  0  0
 33 32  1  0  0  0  0
 34 38  1  0  0  0  0
 34 32  2  0  0  0  0
 35 34  1  0  0  0  0
 36 35  1  0  0  0  0
 36 33  2  0  0  0  0
 37 38  2  0  0  0  0
M  END
>  <MODEL>
9

>  <REMARK>
 VINA RESULT:      -6.7      2.087      3.214
  Name = 
  8 active torsions:
  status: ('A' for Active; 'I' for Inactive)
    1  A    between atoms: N_4  and  S_35
    2  A    between atoms: C_6  and  O_38
    3  A    between atoms: C_10  and  C_23
    4  A    between atoms: C_10  and  C_29
    5  A    between atoms: C_12  and  C_25
    6  A    between atoms: C_18  and  C_28
    7  A    between atoms: C_26  and  C_36
    8  A    between atoms: S_35  and  C_36
                            x       y       z     vdW  Elec       q    Type
                         _______ _______ _______ _____ _____    ______ ____

>  <TORSDO>
F 8

$$$$
