=
 OpenBabel11042414383D

 46 51  0  0  1  0  0  0  0  0999 V2000
  185.3760  177.5320  146.7530 C   0  0  0  0  0  0  0  0  0  0  0  0
  189.0940  176.8560  144.7960 C   0  0  2  0  0  3  0  0  0  0  0  0
  187.8040  177.6620  146.8970 C   0  0  0  0  0  3  0  0  0  0  0  0
  190.7130  175.5840  142.3210 C   0  0  2  0  0  3  0  0  0  0  0  0
  192.0350  176.9340  147.1620 C   0  0  0  0  0  3  0  0  0  0  0  0
  189.3220  176.2490  142.3250 C   0  0  2  0  0  3  0  0  0  0  0  0
  192.6390  175.6950  146.9820 C   0  0  0  0  0  3  0  0  0  0  0  0
  187.0430  176.2520  143.5740 C   0  0  0  0  0  2  0  0  0  0  0  0
  185.4730  176.9830  145.4670 C   0  0  0  0  0  3  0  0  0  0  0  0
  188.5580  176.0010  143.6390 C   0  0  2  0  0  3  0  0  0  0  0  0
  190.9290  175.0740  145.3720 C   0  0  0  0  0  0  0  0  0  0  0  0
  190.8820  177.2510  146.4520 C   0  0  0  0  0  3  0  0  0  0  0  0
  192.0980  174.7560  146.1020 C   0  0  0  0  0  0  0  0  0  0  0  0
  186.7400  176.7660  144.9270 C   0  0  0  0  0  0  0  0  0  0  0  0
  184.0970  177.7570  147.3330 N   0  0  0  0  0  1  0  0  0  0  0  0
  190.4420  174.1160  144.4180 N   0  0  0  0  0  0  0  0  0  0  0  0
  186.5380  177.8760  147.4650 C   0  0  0  0  0  3  0  0  0  0  0  0
  190.9300  173.2120  142.3170 O   0  0  0  0  0  0  0  0  0  0  0  0
  190.3010  176.3390  145.5610 C   0  0  0  0  0  0  0  0  0  0  0  0
  190.7330  174.2430  143.0130 C   0  0  0  0  0  0  0  0  0  0  0  0
  187.8800  177.0820  145.6270 C   0  0  0  0  0  0  0  0  0  0  0  0
  195.3970  174.4910  145.6020 S   0  0  0  0  0  0  0  0  0  0  0  0
  196.1690  170.1820  144.9210 C   0  0  0  0  0  1  0  0  0  0  0  0
  192.7450  173.4930  145.8680 N   0  0  0  0  0  2  0  0  0  0  0  0
  196.5650  172.4720  144.2910 N   0  0  0  0  0  0  0  0  0  0  0  0
  196.1750  173.8630  144.0870 C   0  0  2  0  0  3  0  0  0  0  0  0
  195.7500  171.6040  144.8100 C   0  0  0  0  0  0  0  0  0  0  0  0
  194.4410  171.9900  145.2540 N   0  0  0  0  0  0  0  0  0  0  0  0
  194.1150  173.2150  145.5400 C   0  0  0  0  0  0  0  0  0  0  0  0
  197.3930  174.7020  143.7480 C   0  0  0  0  0  2  0  0  0  0  0  0
  196.9630  176.0390  143.1730 C   0  0  0  0  0  2  0  0  0  0  0  0
  196.7830  175.9120  141.6740 C   0  0  0  0  0  2  0  0  0  0  0  0
  197.9410  175.1310  141.0900 C   0  0  0  0  0  1  0  0  0  0  0  0
  191.8500  176.4960  142.7140 C   0  0  0  0  0  0  0  0  0  0  0  0
  191.6580  177.6880  142.9030 O   0  0  0  0  0  0  0  0  0  0  0  0
  193.2370  175.9580  142.8230 C   0  0  0  0  0  1  0  0  0  0  0  0
  187.6000  176.5050  140.6780 O   0  0  0  0  0  0  0  0  0  0  0  0
  188.9170  174.5880  140.4720 N   0  0  0  0  0  2  0  0  0  0  0  0
  188.5600  175.8140  141.1120 C   0  0  0  0  0  0  0  0  0  0  0  0
  188.2460  174.1050  139.2760 C   0  0  1  0  0  3  0  0  0  0  0  0
  189.2300  173.2960  138.4580 C   0  0  1  0  0  3  0  0  0  0  0  0
  188.1820  172.5940  139.3000 C   0  0  0  0  0  2  0  0  0  0  0  0
  189.5700  174.3420  136.5420 C   0  0  0  0  0  1  0  0  0  0  0  0
  188.8310  173.3080  137.1220 O   0  0  0  0  0  0  0  0  0  0  0  0
  189.2550  173.1130  146.1590 O   0  0  0  0  0  1  0  0  0  0  0  0
  189.8380  172.8840  144.9120 C   0  0  0  0  0  2  0  0  0  0  0  0
  1 15  1  0  0  0  0
  1 17  1  0  0  0  0
  2 19  1  1  0  0  0
  2 21  1  0  0  0  0
  3 17  2  0  0  0  0
  4  6  1  0  0  0  0
  4 34  1  1  0  0  0
  4 20  1  0  0  0  0
  6 39  1  6  0  0  0
  6 10  1  0  0  0  0
  7  5  1  0  0  0  0
  8 14  1  0  0  0  0
  9  1  2  0  0  0  0
 10  8  1  6  0  0  0
 10  2  1  0  0  0  0
 11 19  2  0  0  0  0
 11 13  1  0  0  0  0
 12  5  2  0  0  0  0
 13  7  2  0  0  0  0
 14  9  1  0  0  0  0
 14 21  2  0  0  0  0
 16 46  1  0  0  0  0
 16 11  1  0  0  0  0
 18 20  2  0  0  0  0
 19 12  1  0  0  0  0
 20 16  1  0  0  0  0
 21  3  1  0  0  0  0
 24 13  1  0  0  0  0
 25 27  2  0  0  0  0
 26 30  1  1  0  0  0
 26 25  1  0  0  0  0
 26 22  1  0  0  0  0
 27 23  1  0  0  0  0
 27 28  1  0  0  0  0
 28 29  2  0  0  0  0
 29 22  1  0  0  0  0
 29 24  1  0  0  0  0
 31 30  1  0  0  0  0
 32 31  1  0  0  0  0
 33 32  1  0  0  0  0
 34 36  1  0  0  0  0
 34 35  2  0  0  0  0
 37 39  2  0  0  0  0
 38 39  1  0  0  0  0
 40 42  1  0  0  0  0
 40 38  1  1  0  0  0
 41 44  1  6  0  0  0
 41 40  1  0  0  0  0
 41 42  1  0  0  0  0
 43 44  1  0  0  0  0
 46 45  1  0  0  0  0
M  END
>  <MODEL>
1

>  <REMARK>
 VINA RESULT:      -7.5      0.000      0.000
  Name = 
  9 active torsions:
  status: ('A' for Active; 'I' for Inactive)
    1  A    between atoms: N_6  and  C_30
    2  A    between atoms: C_8  and  C_10
    3  A    between atoms: C_12  and  C_37
    4  A    between atoms: C_16  and  N_23
    5  A    between atoms: C_18  and  O_44
    6  A    between atoms: C_19  and  N_36
    7  A    between atoms: C_20  and  C_27
    8  A    between atoms: C_27  and  C_42
    9  A    between atoms: C_34  and  C_42
                            x       y       z     vdW  Elec       q    Type
                         _______ _______ _______ _____ _____    ______ ____

>  <TORSDO>
F 9

$$$$
=
 OpenBabel11042414383D

 46 51  0  0  1  0  0  0  0  0999 V2000
  186.1060  177.3770  144.3630 C   0  0  0  0  0  0  0  0  0  0  0  0
  189.9150  175.8720  143.2050 C   0  0  2  0  0  3  0  0  0  0  0  0
  188.5110  177.4110  144.7500 C   0  0  0  0  0  3  0  0  0  0  0  0
  191.6370  173.7500  141.5030 C   0  0  2  0  0  3  0  0  0  0  0  0
  192.6100  176.5800  145.7510 C   0  0  0  0  0  3  0  0  0  0  0  0
  190.3210  174.4550  141.1180 C   0  0  2  0  0  3  0  0  0  0  0  0
  193.1100  175.3210  146.0640 C   0  0  0  0  0  3  0  0  0  0  0  0
  187.9430  175.0070  142.0100 C   0  0  0  0  0  2  0  0  0  0  0  0
  186.2730  176.4200  143.3520 C   0  0  0  0  0  3  0  0  0  0  0  0
  189.4140  174.7080  142.3370 C   0  0  2  0  0  3  0  0  0  0  0  0
  191.5120  174.2890  144.5530 C   0  0  0  0  0  0  0  0  0  0  0  0
  191.5650  176.7020  144.8420 C   0  0  0  0  0  3  0  0  0  0  0  0
  192.5700  174.1710  145.4830 C   0  0  0  0  0  0  0  0  0  0  0  0
  187.5610  175.9640  143.0710 C   0  0  0  0  0  0  0  0  0  0  0  0
  184.8040  177.8550  144.6760 N   0  0  0  0  0  1  0  0  0  0  0  0
  191.0310  173.0940  143.9160 N   0  0  0  0  0  0  0  0  0  0  0  0
  187.2210  177.8750  145.0580 C   0  0  0  0  0  3  0  0  0  0  0  0
  191.6310  171.5080  142.3060 O   0  0  0  0  0  0  0  0  0  0  0  0
  190.9890  175.5770  144.2380 C   0  0  0  0  0  0  0  0  0  0  0  0
  191.4650  172.7240  142.5940 C   0  0  0  0  0  0  0  0  0  0  0  0
  188.6540  176.4330  143.7610 C   0  0  0  0  0  0  0  0  0  0  0  0
  195.8430  173.5070  145.2500 S   0  0  0  0  0  0  0  0  0  0  0  0
  196.2730  169.2110  146.2400 C   0  0  0  0  0  1  0  0  0  0  0  0
  193.1160  172.8700  145.7590 N   0  0  0  0  0  2  0  0  0  0  0  0
  196.8590  171.0680  144.8250 N   0  0  0  0  0  0  0  0  0  0  0  0
  196.5840  172.3080  144.1070 C   0  0  2  0  0  3  0  0  0  0  0  0
  195.9710  170.5150  145.5960 C   0  0  0  0  0  0  0  0  0  0  0  0
  194.6930  171.1300  145.8130 N   0  0  0  0  0  0  0  0  0  0  0  0
  194.4630  172.3930  145.6130 C   0  0  0  0  0  0  0  0  0  0  0  0
  197.8700  172.8720  143.5310 C   0  0  0  0  0  2  0  0  0  0  0  0
  197.9040  172.6630  142.0280 C   0  0  0  0  0  2  0  0  0  0  0  0
  197.9410  174.0070  141.3290 C   0  0  0  0  0  2  0  0  0  0  0  0
  197.8970  175.1140  142.3620 C   0  0  0  0  0  1  0  0  0  0  0  0
  192.8110  174.6770  141.7080 C   0  0  0  0  0  0  0  0  0  0  0  0
  192.6760  175.8880  141.6170 O   0  0  0  0  0  0  0  0  0  0  0  0
  194.1690  174.1170  141.9730 C   0  0  0  0  0  1  0  0  0  0  0  0
  189.2100  172.5150  140.2540 O   0  0  0  0  0  0  0  0  0  0  0  0
  189.5170  174.2620  138.7360 N   0  0  0  0  0  2  0  0  0  0  0  0
  189.6410  173.6790  140.0330 C   0  0  0  0  0  0  0  0  0  0  0  0
  188.8500  173.5870  137.6340 C   0  0  1  0  0  3  0  0  0  0  0  0
  189.6760  173.7710  136.3780 C   0  0  1  0  0  3  0  0  0  0  0  0
  189.7160  172.4540  137.1300 C   0  0  0  0  0  2  0  0  0  0  0  0
  188.7740  174.9480  134.7390 C   0  0  0  0  0  1  0  0  0  0  0  0
  188.8450  173.6550  135.2650 O   0  0  0  0  0  0  0  0  0  0  0  0
  188.9930  171.9830  144.1670 O   0  0  0  0  0  1  0  0  0  0  0  0
  190.2700  172.1370  144.7110 C   0  0  0  0  0  2  0  0  0  0  0  0
  1 15  1  0  0  0  0
  1 17  1  0  0  0  0
  2 21  1  1  0  0  0
  2 19  1  0  0  0  0
  3 17  2  0  0  0  0
  4 34  1  1  0  0  0
  4 20  1  0  0  0  0
  5  7  1  0  0  0  0
  6 39  1  6  0  0  0
  6  4  1  0  0  0  0
  6 10  1  0  0  0  0
  8 14  1  0  0  0  0
  9  1  2  0  0  0  0
 10  8  1  6  0  0  0
 10  2  1  0  0  0  0
 11 13  1  0  0  0  0
 12  5  2  0  0  0  0
 13 24  1  0  0  0  0
 13  7  2  0  0  0  0
 14  9  1  0  0  0  0
 14 21  2  0  0  0  0
 16 11  1  0  0  0  0
 16 46  1  0  0  0  0
 18 20  2  0  0  0  0
 19 11  2  0  0  0  0
 19 12  1  0  0  0  0
 20 16  1  0  0  0  0
 21  3  1  0  0  0  0
 22 29  1  0  0  0  0
 25 27  2  0  0  0  0
 26 30  1  1  0  0  0
 26 25  1  0  0  0  0
 26 22  1  0  0  0  0
 27 28  1  0  0  0  0
 27 23  1  0  0  0  0
 29 24  1  0  0  0  0
 29 28  2  0  0  0  0
 31 30  1  0  0  0  0
 32 31  1  0  0  0  0
 32 33  1  0  0  0  0
 34 36  1  0  0  0  0
 35 34  2  0  0  0  0
 38 39  1  0  0  0  0
 39 37  2  0  0  0  0
 40 38  1  1  0  0  0
 41 44  1  6  0  0  0
 41 42  1  0  0  0  0
 41 40  1  0  0  0  0
 42 40  1  0  0  0  0
 43 44  1  0  0  0  0
 45 46  1  0  0  0  0
M  END
>  <MODEL>
2

>  <REMARK>
 VINA RESULT:      -6.7      1.650      2.062
  Name = 
  9 active torsions:
  status: ('A' for Active; 'I' for Inactive)
    1  A    between atoms: N_6  and  C_30
    2  A    between atoms: C_8  and  C_10
    3  A    between atoms: C_12  and  C_37
    4  A    between atoms: C_16  and  N_23
    5  A    between atoms: C_18  and  O_44
    6  A    between atoms: C_19  and  N_36
    7  A    between atoms: C_20  and  C_27
    8  A    between atoms: C_27  and  C_42
    9  A    between atoms: C_34  and  C_42
                            x       y       z     vdW  Elec       q    Type
                         _______ _______ _______ _____ _____    ______ ____

>  <TORSDO>
F 9

$$$$
=
 OpenBabel11042414383D

 46 51  0  0  1  0  0  0  0  0999 V2000
  185.9010  177.8010  140.4800 C   0  0  0  0  0  0  0  0  0  0  0  0
  188.5830  175.2210  142.5450 C   0  0  2  0  0  3  0  0  0  0  0  0
  187.4800  175.9540  140.3140 C   0  0  0  0  0  3  0  0  0  0  0  0
  190.1800  174.4980  145.2460 C   0  0  2  0  0  3  0  0  0  0  0  0
  190.9170  173.3700  140.2270 C   0  0  0  0  0  3  0  0  0  0  0  0
  188.7600  175.0800  145.0890 C   0  0  2  0  0  3  0  0  0  0  0  0
  192.1840  173.7180  140.6820 C   0  0  0  0  0  3  0  0  0  0  0  0
  187.4190  176.9410  143.8690 C   0  0  0  0  0  2  0  0  0  0  0  0
  186.1460  177.8990  141.8570 C   0  0  0  0  0  3  0  0  0  0  0  0
  188.6380  176.0050  143.8650 C   0  0  2  0  0  3  0  0  0  0  0  0
  191.1990  175.1400  142.3890 C   0  0  0  0  0  0  0  0  0  0  0  0
  189.7900  173.8990  140.8460 C   0  0  0  0  0  3  0  0  0  0  0  0
  192.3410  174.6040  141.7510 C   0  0  0  0  0  0  0  0  0  0  0  0
  187.0710  177.0290  142.4340 C   0  0  0  0  0  0  0  0  0  0  0  0
  184.9680  178.6790  139.8630 N   0  0  0  0  0  1  0  0  0  0  0  0
  191.3950  175.9870  143.5330 N   0  0  0  0  0  0  0  0  0  0  0  0
  186.5630  176.8290  139.7110 C   0  0  0  0  0  3  0  0  0  0  0  0
  192.0230  175.9080  145.7840 O   0  0  0  0  0  0  0  0  0  0  0  0
  189.8990  174.7930  141.9180 C   0  0  0  0  0  0  0  0  0  0  0  0
  191.2670  175.4760  144.8730 C   0  0  0  0  0  0  0  0  0  0  0  0
  187.7350  176.0890  141.6830 C   0  0  0  0  0  0  0  0  0  0  0  0
  194.2610  172.3630  143.3320 S   0  0  0  0  0  0  0  0  0  0  0  0
  197.9400  174.5390  144.4980 C   0  0  0  0  0  1  0  0  0  0  0  0
  193.6450  174.9280  142.2650 N   0  0  0  0  0  2  0  0  0  0  0  0
  196.1860  172.9950  145.0800 N   0  0  0  0  0  0  0  0  0  0  0  0
  194.8150  172.4970  145.0550 C   0  0  2  0  0  3  0  0  0  0  0  0
  196.5510  174.0230  144.3740 C   0  0  0  0  0  0  0  0  0  0  0  0
  195.6280  174.6860  143.4980 N   0  0  0  0  0  0  0  0  0  0  0  0
  194.5460  174.1270  143.0450 C   0  0  0  0  0  0  0  0  0  0  0  0
  194.7430  171.1380  145.7270 C   0  0  0  0  0  2  0  0  0  0  0  0
  196.1410  170.6070  145.9840 C   0  0  0  0  0  2  0  0  0  0  0  0
  196.0880  169.1050  146.1690 C   0  0  0  0  0  2  0  0  0  0  0  0
  195.2520  168.7760  147.3890 C   0  0  0  0  0  1  0  0  0  0  0  0
  190.3640  173.1200  144.6590 C   0  0  0  0  0  0  0  0  0  0  0  0
  191.4820  172.6790  144.4370 O   0  0  0  0  0  0  0  0  0  0  0  0
  189.1750  172.2980  144.2910 C   0  0  0  0  0  1  0  0  0  0  0  0
  189.0930  175.6760  147.3870 O   0  0  0  0  0  0  0  0  0  0  0  0
  187.1010  176.4260  146.4280 N   0  0  0  0  0  2  0  0  0  0  0  0
  188.3530  175.7430  146.3690 C   0  0  0  0  0  0  0  0  0  0  0  0
  186.6410  177.1170  147.6220 C   0  0  1  0  0  3  0  0  0  0  0  0
  186.1980  178.5140  147.2370 C   0  0  1  0  0  3  0  0  0  0  0  0
  185.1670  177.4310  147.4960 C   0  0  0  0  0  2  0  0  0  0  0  0
  187.6370  179.2600  148.7380 C   0  0  0  0  0  1  0  0  0  0  0  0
  186.2970  179.3460  148.3510 O   0  0  0  0  0  0  0  0  0  0  0  0
  191.1050  178.2730  143.9040 O   0  0  0  0  0  1  0  0  0  0  0  0
  191.9480  177.3210  143.3290 C   0  0  0  0  0  2  0  0  0  0  0  0
  1  9  1  0  0  0  0
  2 21  1  6  0  0  0
  2 10  1  0  0  0  0
  3 21  2  0  0  0  0
  4 34  1  6  0  0  0
  5  7  2  0  0  0  0
  5 12  1  0  0  0  0
  6  4  1  0  0  0  0
  6 39  1  1  0  0  0
  7 13  1  0  0  0  0
  9 14  2  0  0  0  0
 10  8  1  1  0  0  0
 10  6  1  0  0  0  0
 11 16  1  0  0  0  0
 12 19  2  0  0  0  0
 13 24  1  0  0  0  0
 13 11  2  0  0  0  0
 14  8  1  0  0  0  0
 15  1  1  0  0  0  0
 16 20  1  0  0  0  0
 17  3  1  0  0  0  0
 17  1  2  0  0  0  0
 19 11  1  0  0  0  0
 19  2  1  0  0  0  0
 20  4  1  0  0  0  0
 20 18  2  0  0  0  0
 21 14  1  0  0  0  0
 22 26  1  0  0  0  0
 24 29  1  0  0  0  0
 26 25  1  0  0  0  0
 26 30  1  6  0  0  0
 27 23  1  0  0  0  0
 27 25  2  0  0  0  0
 28 27  1  0  0  0  0
 29 22  1  0  0  0  0
 29 28  2  0  0  0  0
 30 31  1  0  0  0  0
 31 32  1  0  0  0  0
 32 33  1  0  0  0  0
 35 34  2  0  0  0  0
 36 34  1  0  0  0  0
 39 38  1  0  0  0  0
 39 37  2  0  0  0  0
 40 38  1  6  0  0  0
 41 42  1  0  0  0  0
 41 40  1  0  0  0  0
 41 44  1  1  0  0  0
 42 40  1  0  0  0  0
 44 43  1  0  0  0  0
 46 16  1  0  0  0  0
 46 45  1  0  0  0  0
M  END
>  <MODEL>
3

>  <REMARK>
 VINA RESULT:      -6.6      2.471      6.057
  Name = 
  9 active torsions:
  status: ('A' for Active; 'I' for Inactive)
    1  A    between atoms: N_6  and  C_30
    2  A    between atoms: C_8  and  C_10
    3  A    between atoms: C_12  and  C_37
    4  A    between atoms: C_16  and  N_23
    5  A    between atoms: C_18  and  O_44
    6  A    between atoms: C_19  and  N_36
    7  A    between atoms: C_20  and  C_27
    8  A    between atoms: C_27  and  C_42
    9  A    between atoms: C_34  and  C_42
                            x       y       z     vdW  Elec       q    Type
                         _______ _______ _______ _____ _____    ______ ____

>  <TORSDO>
F 9

$$$$
=
 OpenBabel11042414383D

 46 51  0  0  1  0  0  0  0  0999 V2000
  195.7490  169.4920  145.7530 C   0  0  0  0  0  0  0  0  0  0  0  0
  195.8660  173.1900  143.6500 C   0  0  2  0  0  3  0  0  0  0  0  0
  196.6240  170.7160  143.8380 C   0  0  0  0  0  3  0  0  0  0  0  0
  194.7020  176.1640  143.2380 C   0  0  2  0  0  3  0  0  0  0  0  0
  197.2570  172.8500  140.1580 C   0  0  0  0  0  3  0  0  0  0  0  0
  194.9100  175.3810  144.5500 C   0  0  2  0  0  3  0  0  0  0  0  0
  196.2460  173.3500  139.3460 C   0  0  0  0  0  3  0  0  0  0  0  0
  194.4610  173.0790  145.6700 C   0  0  0  0  0  2  0  0  0  0  0  0
  195.0250  170.6230  146.1570 C   0  0  0  0  0  3  0  0  0  0  0  0
  194.6910  173.8680  144.3700 C   0  0  2  0  0  3  0  0  0  0  0  0
  194.8540  173.7510  141.2970 C   0  0  0  0  0  0  0  0  0  0  0  0
  197.0780  172.7980  141.5350 C   0  0  0  0  0  3  0  0  0  0  0  0
  195.0410  173.7950  139.8960 C   0  0  0  0  0  0  0  0  0  0  0  0
  195.1020  171.7780  145.3780 C   0  0  0  0  0  0  0  0  0  0  0  0
  195.6830  168.2990  146.5240 N   0  0  0  0  0  1  0  0  0  0  0  0
  193.6350  174.2870  141.8370 N   0  0  0  0  0  0  0  0  0  0  0  0
  196.5500  169.5390  144.6000 C   0  0  0  0  0  3  0  0  0  0  0  0
  192.5460  176.3170  142.2370 O   0  0  0  0  0  0  0  0  0  0  0  0
  195.8860  173.2290  142.1310 C   0  0  0  0  0  0  0  0  0  0  0  0
  193.5820  175.6150  142.3900 C   0  0  0  0  0  0  0  0  0  0  0  0
  195.8690  171.8230  144.2380 C   0  0  0  0  0  0  0  0  0  0  0  0
  192.9220  171.9160  138.1110 S   0  0  0  0  0  0  0  0  0  0  0  0
  190.3090  174.7690  135.9530 C   0  0  0  0  0  1  0  0  0  0  0  0
  194.0100  174.3640  139.0720 N   0  0  0  0  0  2  0  0  0  0  0  0
  191.6380  172.7610  135.9210 N   0  0  0  0  0  0  0  0  0  0  0  0
  192.7810  171.9380  136.3020 C   0  0  2  0  0  3  0  0  0  0  0  0
  191.4440  173.9390  136.4350 C   0  0  0  0  0  0  0  0  0  0  0  0
  192.3230  174.4620  137.4410 N   0  0  0  0  0  0  0  0  0  0  0  0
  193.0930  173.7170  138.1760 C   0  0  0  0  0  0  0  0  0  0  0  0
  192.6000  170.5230  135.7820 C   0  0  0  0  0  2  0  0  0  0  0  0
  191.1250  170.1730  135.7220 C   0  0  0  0  0  2  0  0  0  0  0  0
  190.7940  169.1790  136.8160 C   0  0  0  0  0  2  0  0  0  0  0  0
  189.7420  169.7680  137.7330 C   0  0  0  0  0  1  0  0  0  0  0  0
  195.9690  176.4550  142.4710 C   0  0  0  0  0  0  0  0  0  0  0  0
  195.9270  176.7750  141.2930 O   0  0  0  0  0  0  0  0  0  0  0  0
  197.2970  176.3000  143.1330 C   0  0  0  0  0  1  0  0  0  0  0  0
  194.5660  176.6300  146.5670 O   0  0  0  0  0  0  0  0  0  0  0  0
  192.6380  175.7600  145.5780 N   0  0  0  0  0  2  0  0  0  0  0  0
  194.0490  175.9740  145.6230 C   0  0  0  0  0  0  0  0  0  0  0  0
  191.7290  176.3210  146.5650 C   0  0  1  0  0  3  0  0  0  0  0  0
  190.4240  175.5540  146.5170 C   0  0  1  0  0  3  0  0  0  0  0  0
  191.4250  175.2870  147.6260 C   0  0  0  0  0  2  0  0  0  0  0  0
  188.8890  176.9970  145.8540 C   0  0  0  0  0  1  0  0  0  0  0  0
  189.3990  176.3690  146.9940 O   0  0  0  0  0  0  0  0  0  0  0  0
  192.5850  172.2030  141.8980 O   0  0  0  0  0  1  0  0  0  0  0  0
  192.3920  173.5570  141.6150 C   0  0  0  0  0  2  0  0  0  0  0  0
  1  9  1  0  0  0  0
  1 15  1  0  0  0  0
  2 19  1  6  0  0  0
  2 21  1  0  0  0  0
  2 10  1  0  0  0  0
  3 21  2  0  0  0  0
  3 17  1  0  0  0  0
  4 34  1  6  0  0  0
  4  6  1  0  0  0  0
  5 12  1  0  0  0  0
  6 39  1  1  0  0  0
  7 13  1  0  0  0  0
  7  5  2  0  0  0  0
 10  6  1  0  0  0  0
 10  8  1  1  0  0  0
 11 16  1  0  0  0  0
 11 19  1  0  0  0  0
 12 19  2  0  0  0  0
 13 11  2  0  0  0  0
 14  8  1  0  0  0  0
 14  9  2  0  0  0  0
 16 20  1  0  0  0  0
 17  1  2  0  0  0  0
 18 20  2  0  0  0  0
 20  4  1  0  0  0  0
 21 14  1  0  0  0  0
 22 29  1  0  0  0  0
 23 27  1  0  0  0  0
 24 13  1  0  0  0  0
 25 26  1  0  0  0  0
 25 27  2  0  0  0  0
 26 30  1  1  0  0  0
 26 22  1  0  0  0  0
 27 28  1  0  0  0  0
 28 29  2  0  0  0  0
 29 24  1  0  0  0  0
 31 30  1  0  0  0  0
 31 32  1  0  0  0  0
 32 33  1  0  0  0  0
 34 36  1  0  0  0  0
 35 34  2  0  0  0  0
 38 39  1  0  0  0  0
 39 37  2  0  0  0  0
 40 38  1  6  0  0  0
 40 42  1  0  0  0  0
 41 40  1  0  0  0  0
 41 44  1  1  0  0  0
 41 42  1  0  0  0  0
 43 44  1  0  0  0  0
 46 16  1  0  0  0  0
 46 45  1  0  0  0  0
M  END
>  <MODEL>
4

>  <REMARK>
 VINA RESULT:      -6.5      3.242      8.695
  Name = 
  9 active torsions:
  status: ('A' for Active; 'I' for Inactive)
    1  A    between atoms: N_6  and  C_30
    2  A    between atoms: C_8  and  C_10
    3  A    between atoms: C_12  and  C_37
    4  A    between atoms: C_16  and  N_23
    5  A    between atoms: C_18  and  O_44
    6  A    between atoms: C_19  and  N_36
    7  A    between atoms: C_20  and  C_27
    8  A    between atoms: C_27  and  C_42
    9  A    between atoms: C_34  and  C_42
                            x       y       z     vdW  Elec       q    Type
                         _______ _______ _______ _____ _____    ______ ____

>  <TORSDO>
F 9

$$$$
=
 OpenBabel11042414383D

 46 51  0  0  1  0  0  0  0  0999 V2000
  192.8110  172.1320  139.1590 C   0  0  0  0  0  0  0  0  0  0  0  0
  193.4210  174.4570  142.6710 C   0  0  2  0  0  3  0  0  0  0  0  0
  192.7840  174.3530  140.1580 C   0  0  0  0  0  3  0  0  0  0  0  0
  193.9160  174.5670  145.8500 C   0  0  2  0  0  3  0  0  0  0  0  0
  191.9760  177.9330  142.4000 C   0  0  0  0  0  3  0  0  0  0  0  0
  194.4610  173.5550  144.8220 C   0  0  2  0  0  3  0  0  0  0  0  0
  191.1010  178.0150  143.4770 C   0  0  0  0  0  3  0  0  0  0  0  0
  193.7330  172.0200  142.8550 C   0  0  0  0  0  2  0  0  0  0  0  0
  193.1680  171.5700  140.3930 C   0  0  0  0  0  3  0  0  0  0  0  0
  193.4690  173.2950  143.6740 C   0  0  2  0  0  3  0  0  0  0  0  0
  191.6320  175.7290  144.1050 C   0  0  0  0  0  0  0  0  0  0  0  0
  192.6820  176.7580  142.1690 C   0  0  0  0  0  3  0  0  0  0  0  0
  190.9120  176.9250  144.3290 C   0  0  0  0  0  0  0  0  0  0  0  0
  193.3090  172.4150  141.4940 C   0  0  0  0  0  0  0  0  0  0  0  0
  192.6530  171.2940  138.0200 N   0  0  0  0  0  1  0  0  0  0  0  0
  191.4730  174.6530  145.0450 N   0  0  0  0  0  0  0  0  0  0  0  0
  192.6230  173.5190  139.0400 C   0  0  0  0  0  3  0  0  0  0  0  0
  192.0470  174.0250  147.2230 O   0  0  0  0  0  0  0  0  0  0  0  0
  192.5230  175.6380  142.9950 C   0  0  0  0  0  0  0  0  0  0  0  0
  192.4340  174.4270  146.0930 C   0  0  0  0  0  0  0  0  0  0  0  0
  193.1080  173.7700  141.3880 C   0  0  0  0  0  0  0  0  0  0  0  0
  187.6080  177.3930  144.0670 S   0  0  0  0  0  0  0  0  0  0  0  0
  186.0860  177.5880  148.2230 C   0  0  0  0  0  1  0  0  0  0  0  0
  190.0510  177.0160  145.4770 N   0  0  0  0  0  2  0  0  0  0  0  0
  186.0820  178.4710  145.9830 N   0  0  0  0  0  0  0  0  0  0  0  0
  186.7050  178.8290  144.7120 C   0  0  2  0  0  3  0  0  0  0  0  0
  186.7440  177.8570  146.9180 C   0  0  0  0  0  0  0  0  0  0  0  0
  188.1080  177.4580  146.7200 N   0  0  0  0  0  0  0  0  0  0  0  0
  188.6470  177.3110  145.5470 C   0  0  0  0  0  0  0  0  0  0  0  0
  185.6440  179.2600  143.7160 C   0  0  0  0  0  2  0  0  0  0  0  0
  184.3990  178.4060  143.8760 C   0  0  0  0  0  2  0  0  0  0  0  0
  183.8020  178.1210  142.5130 C   0  0  0  0  0  2  0  0  0  0  0  0
  184.8680  178.2850  141.4500 C   0  0  0  0  0  1  0  0  0  0  0  0
  194.3730  175.9890  145.6370 C   0  0  0  0  0  0  0  0  0  0  0  0
  193.8170  176.9170  146.2050 O   0  0  0  0  0  0  0  0  0  0  0  0
  195.4810  176.2840  144.6820 C   0  0  0  0  0  1  0  0  0  0  0  0
  194.0240  171.5910  146.1260 O   0  0  0  0  0  0  0  0  0  0  0  0
  196.2600  171.9460  145.5530 N   0  0  0  0  0  2  0  0  0  0  0  0
  194.8780  172.3040  145.5320 C   0  0  0  0  0  0  0  0  0  0  0  0
  196.7460  170.7360  146.1980 C   0  0  1  0  0  3  0  0  0  0  0  0
  196.3470  169.5420  145.3570 C   0  0  1  0  0  3  0  0  0  0  0  0
  197.7710  170.0620  145.3140 C   0  0  0  0  0  2  0  0  0  0  0  0
  194.9220  168.2580  146.4530 C   0  0  0  0  0  1  0  0  0  0  0  0
  196.2820  168.4120  146.1720 O   0  0  0  0  0  0  0  0  0  0  0  0
  189.8860  173.5030  143.7770 O   0  0  0  0  0  1  0  0  0  0  0  0
  190.2090  173.9270  145.0670 C   0  0  0  0  0  2  0  0  0  0  0  0
  1  9  1  0  0  0  0
  2 21  1  6  0  0  0
  2 19  1  0  0  0  0
  2 10  1  0  0  0  0
  3 21  2  0  0  0  0
  4 34  1  6  0  0  0
  4 20  1  0  0  0  0
  5  7  1  0  0  0  0
  6 39  1  1  0  0  0
  6  4  1  0  0  0  0
  7 13  2  0  0  0  0
  9 14  2  0  0  0  0
 10  8  1  6  0  0  0
 10  6  1  0  0  0  0
 11 13  1  0  0  0  0
 11 16  1  0  0  0  0
 12  5  2  0  0  0  0
 12 19  1  0  0  0  0
 13 24  1  0  0  0  0
 14  8  1  0  0  0  0
 15  1  1  0  0  0  0
 16 46  1  0  0  0  0
 16 20  1  0  0  0  0
 17  1  2  0  0  0  0
 17  3  1  0  0  0  0
 19 11  2  0  0  0  0
 20 18  2  0  0  0  0
 21 14  1  0  0  0  0
 22 26  1  0  0  0  0
 22 29  1  0  0  0  0
 24 29  1  0  0  0  0
 25 27  2  0  0  0  0
 26 30  1  6  0  0  0
 26 25  1  0  0  0  0
 27 23  1  0  0  0  0
 28 27  1  0  0  0  0
 29 28  2  0  0  0  0
 30 31  1  0  0  0  0
 32 31  1  0  0  0  0
 33 32  1  0  0  0  0
 34 35  2  0  0  0  0
 36 34  1  0  0  0  0
 39 38  1  0  0  0  0
 39 37  2  0  0  0  0
 40 38  1  6  0  0  0
 41 44  1  1  0  0  0
 41 40  1  0  0  0  0
 42 41  1  0  0  0  0
 42 40  1  0  0  0  0
 44 43  1  0  0  0  0
 45 46  1  0  0  0  0
M  END
>  <MODEL>
5

>  <REMARK>
 VINA RESULT:      -6.3      3.078      8.799
  Name = 
  9 active torsions:
  status: ('A' for Active; 'I' for Inactive)
    1  A    between atoms: N_6  and  C_30
    2  A    between atoms: C_8  and  C_10
    3  A    between atoms: C_12  and  C_37
    4  A    between atoms: C_16  and  N_23
    5  A    between atoms: C_18  and  O_44
    6  A    between atoms: C_19  and  N_36
    7  A    between atoms: C_20  and  C_27
    8  A    between atoms: C_27  and  C_42
    9  A    between atoms: C_34  and  C_42
                            x       y       z     vdW  Elec       q    Type
                         _______ _______ _______ _____ _____    ______ ____

>  <TORSDO>
F 9

$$$$
=
 OpenBabel11042414383D

 46 51  0  0  1  0  0  0  0  0999 V2000
  197.0270  169.8470  145.5760 C   0  0  0  0  0  0  0  0  0  0  0  0
  195.7110  173.2610  143.4020 C   0  0  2  0  0  3  0  0  0  0  0  0
  197.3010  171.2200  143.5830 C   0  0  0  0  0  3  0  0  0  0  0  0
  193.5520  175.6190  143.0180 C   0  0  2  0  0  3  0  0  0  0  0  0
  196.9270  173.2860  139.8290 C   0  0  0  0  0  3  0  0  0  0  0  0
  194.0980  175.0130  144.3270 C   0  0  2  0  0  3  0  0  0  0  0  0
  195.7590  173.3670  139.0810 C   0  0  0  0  0  3  0  0  0  0  0  0
  194.5550  172.7480  145.5160 C   0  0  0  0  0  2  0  0  0  0  0  0
  195.9760  170.6680  146.0080 C   0  0  0  0  0  3  0  0  0  0  0  0
  194.4170  173.5130  144.1900 C   0  0  2  0  0  3  0  0  0  0  0  0
  194.4310  173.3340  141.1150 C   0  0  0  0  0  0  0  0  0  0  0  0
  196.8580  173.2320  141.2170 C   0  0  0  0  0  3  0  0  0  0  0  0
  194.5090  173.3830  139.7050 C   0  0  0  0  0  0  0  0  0  0  0  0
  195.5950  171.7430  145.2050 C   0  0  0  0  0  0  0  0  0  0  0  0
  197.4310  168.7390  146.3700 N   0  0  0  0  0  1  0  0  0  0  0  0
  193.1350  173.4310  141.7280 N   0  0  0  0  0  0  0  0  0  0  0  0
  197.6910  170.1240  144.3690 C   0  0  0  0  0  3  0  0  0  0  0  0
  191.4260  174.9660  142.1660 O   0  0  0  0  0  0  0  0  0  0  0  0
  195.6270  173.2410  141.8860 C   0  0  0  0  0  0  0  0  0  0  0  0
  192.6490  174.6780  142.2590 C   0  0  0  0  0  0  0  0  0  0  0  0
  196.2290  172.0080  144.0140 C   0  0  0  0  0  0  0  0  0  0  0  0
  194.4390  174.8100  136.6770 S   0  0  0  0  0  0  0  0  0  0  0  0
  190.1960  174.7250  135.4050 C   0  0  0  0  0  1  0  0  0  0  0  0
  193.2970  173.5210  138.9430 N   0  0  0  0  0  2  0  0  0  0  0  0
  192.2680  175.9380  135.5930 N   0  0  0  0  0  0  0  0  0  0  0  0
  193.5130  176.3130  136.2550 C   0  0  2  0  0  3  0  0  0  0  0  0
  191.4920  175.0120  136.0730 C   0  0  0  0  0  0  0  0  0  0  0  0
  191.8540  174.2810  137.2530 N   0  0  0  0  0  0  0  0  0  0  0  0
  193.0750  174.1870  137.6900 C   0  0  0  0  0  0  0  0  0  0  0  0
  194.3460  177.1910  135.3390 C   0  0  0  0  0  2  0  0  0  0  0  0
  193.6670  178.5350  135.1450 C   0  0  0  0  0  2  0  0  0  0  0  0
  194.6410  179.5080  134.5130 C   0  0  0  0  0  2  0  0  0  0  0  0
  196.0320  178.9080  134.5210 C   0  0  0  0  0  1  0  0  0  0  0  0
  194.5880  176.3030  142.1600 C   0  0  0  0  0  0  0  0  0  0  0  0
  194.3470  176.5910  140.9980 O   0  0  0  0  0  0  0  0  0  0  0  0
  195.9450  176.5890  142.7110 C   0  0  0  0  0  1  0  0  0  0  0  0
  193.5530  175.8830  146.4930 O   0  0  0  0  0  0  0  0  0  0  0  0
  191.7830  174.9100  145.3220 N   0  0  0  0  0  2  0  0  0  0  0  0
  193.1470  175.3110  145.4450 C   0  0  0  0  0  0  0  0  0  0  0  0
  190.7900  175.1820  146.3490 C   0  0  1  0  0  3  0  0  0  0  0  0
  189.5250  175.6810  145.6840 C   0  0  1  0  0  3  0  0  0  0  0  0
  189.6110  174.2500  146.1790 C   0  0  0  0  0  2  0  0  0  0  0  0
  188.3630  177.5530  145.8540 C   0  0  0  0  0  1  0  0  0  0  0  0
  188.8060  176.4540  146.5950 O   0  0  0  0  0  0  0  0  0  0  0  0
  192.6410  171.2610  142.4340 O   0  0  0  0  0  1  0  0  0  0  0  0
  192.2190  172.3030  141.6060 C   0  0  0  0  0  2  0  0  0  0  0  0
  1  9  1  0  0  0  0
  1 15  1  0  0  0  0
  2 19  1  6  0  0  0
  2 21  1  0  0  0  0
  2 10  1  0  0  0  0
  3 21  2  0  0  0  0
  3 17  1  0  0  0  0
  4 34  1  6  0  0  0
  4  6  1  0  0  0  0
  5 12  1  0  0  0  0
  6 39  1  1  0  0  0
  7 13  1  0  0  0  0
  7  5  2  0  0  0  0
 10  6  1  0  0  0  0
 10  8  1  1  0  0  0
 11 16  1  0  0  0  0
 11 19  1  0  0  0  0
 12 19  2  0  0  0  0
 13 11  2  0  0  0  0
 14  8  1  0  0  0  0
 14  9  2  0  0  0  0
 16 20  1  0  0  0  0
 17  1  2  0  0  0  0
 18 20  2  0  0  0  0
 20  4  1  0  0  0  0
 21 14  1  0  0  0  0
 22 29  1  0  0  0  0
 23 27  1  0  0  0  0
 24 13  1  0  0  0  0
 25 27  2  0  0  0  0
 25 26  1  0  0  0  0
 26 30  1  6  0  0  0
 26 22  1  0  0  0  0
 27 28  1  0  0  0  0
 28 29  2  0  0  0  0
 29 24  1  0  0  0  0
 31 30  1  0  0  0  0
 32 33  1  0  0  0  0
 32 31  1  0  0  0  0
 34 36  1  0  0  0  0
 35 34  2  0  0  0  0
 38 39  1  0  0  0  0
 39 37  2  0  0  0  0
 40 38  1  6  0  0  0
 41 42  1  0  0  0  0
 41 40  1  0  0  0  0
 41 44  1  1  0  0  0
 42 40  1  0  0  0  0
 43 44  1  0  0  0  0
 46 16  1  0  0  0  0
 46 45  1  0  0  0  0
M  END
>  <MODEL>
6

>  <REMARK>
 VINA RESULT:      -6.0      3.520      8.519
  Name = 
  9 active torsions:
  status: ('A' for Active; 'I' for Inactive)
    1  A    between atoms: N_6  and  C_30
    2  A    between atoms: C_8  and  C_10
    3  A    between atoms: C_12  and  C_37
    4  A    between atoms: C_16  and  N_23
    5  A    between atoms: C_18  and  O_44
    6  A    between atoms: C_19  and  N_36
    7  A    between atoms: C_20  and  C_27
    8  A    between atoms: C_27  and  C_42
    9  A    between atoms: C_34  and  C_42
                            x       y       z     vdW  Elec       q    Type
                         _______ _______ _______ _____ _____    ______ ____

>  <TORSDO>
F 9

$$$$
=
 OpenBabel11042414383D

 46 51  0  0  1  0  0  0  0  0999 V2000
  191.4120  169.9670  136.8130 C   0  0  0  0  0  0  0  0  0  0  0  0
  190.7630  171.6920  140.6490 C   0  0  2  0  0  3  0  0  0  0  0  0
  191.8320  169.8190  139.2080 C   0  0  0  0  0  3  0  0  0  0  0  0
  189.6980  174.1660  142.4130 C   0  0  2  0  0  3  0  0  0  0  0  0
  193.1060  170.3410  143.2820 C   0  0  0  0  0  3  0  0  0  0  0  0
  189.1170  173.5910  141.1050 C   0  0  2  0  0  3  0  0  0  0  0  0
  193.7410  171.4740  143.7760 C   0  0  0  0  0  3  0  0  0  0  0  0
  189.7840  172.8460  138.7060 C   0  0  0  0  0  2  0  0  0  0  0  0
  190.6820  171.1480  137.0050 C   0  0  0  0  0  3  0  0  0  0  0  0
  190.2100  173.0420  140.1700 C   0  0  2  0  0  3  0  0  0  0  0  0
  192.5070  172.8680  142.2150 C   0  0  0  0  0  0  0  0  0  0  0  0
  192.1720  170.4610  142.2590 C   0  0  0  0  0  3  0  0  0  0  0  0
  193.4600  172.7380  143.2510 C   0  0  0  0  0  0  0  0  0  0  0  0
  190.5570  171.6530  138.2990 C   0  0  0  0  0  0  0  0  0  0  0  0
  191.5630  169.4330  135.5030 N   0  0  0  0  0  1  0  0  0  0  0  0
  192.1850  174.1890  141.7500 N   0  0  0  0  0  0  0  0  0  0  0  0
  191.9820  169.3010  137.9110 C   0  0  0  0  0  3  0  0  0  0  0  0
  191.0470  176.1290  142.3890 O   0  0  0  0  0  0  0  0  0  0  0  0
  191.8610  171.7060  141.6990 C   0  0  0  0  0  0  0  0  0  0  0  0
  191.0120  174.8820  142.2150 C   0  0  0  0  0  0  0  0  0  0  0  0
  191.1290  171.0160  139.3750 C   0  0  0  0  0  0  0  0  0  0  0  0
  192.4090  174.1700  146.0880 S   0  0  0  0  0  0  0  0  0  0  0  0
  194.9750  177.7360  146.6590 C   0  0  0  0  0  1  0  0  0  0  0  0
  194.0710  173.9230  143.7910 N   0  0  0  0  0  2  0  0  0  0  0  0
  192.7800  176.7480  146.7020 N   0  0  0  0  0  0  0  0  0  0  0  0
  191.7350  175.8490  146.2200 C   0  0  2  0  0  3  0  0  0  0  0  0
  193.9730  176.7450  146.1870 C   0  0  0  0  0  0  0  0  0  0  0  0
  194.3300  175.8190  145.1500 N   0  0  0  0  0  0  0  0  0  0  0  0
  193.6870  174.7130  144.9260 C   0  0  0  0  0  0  0  0  0  0  0  0
  190.5580  175.8590  147.1780 C   0  0  0  0  0  2  0  0  0  0  0  0
  189.6370  177.0240  146.8620 C   0  0  0  0  0  2  0  0  0  0  0  0
  189.4480  177.1290  145.3630 C   0  0  0  0  0  2  0  0  0  0  0  0
  188.1760  176.4120  144.9620 C   0  0  0  0  0  1  0  0  0  0  0  0
  189.6870  173.2100  143.5810 C   0  0  0  0  0  0  0  0  0  0  0  0
  190.3220  173.4550  144.5960 O   0  0  0  0  0  0  0  0  0  0  0  0
  188.9410  171.9210  143.4860 C   0  0  0  0  0  1  0  0  0  0  0  0
  187.9240  174.5090  139.2390 O   0  0  0  0  0  0  0  0  0  0  0  0
  187.8260  175.7540  141.2120 N   0  0  0  0  0  2  0  0  0  0  0  0
  188.2500  174.6230  140.4520 C   0  0  0  0  0  0  0  0  0  0  0  0
  186.9640  176.7890  140.6630 C   0  0  1  0  0  3  0  0  0  0  0  0
  186.1560  177.3990  141.7890 C   0  0  1  0  0  3  0  0  0  0  0  0
  187.3570  178.1360  141.2270 C   0  0  0  0  0  2  0  0  0  0  0  0
  184.1080  178.0090  142.3530 C   0  0  0  0  0  1  0  0  0  0  0  0
  184.9830  177.9420  141.2650 O   0  0  0  0  0  0  0  0  0  0  0  0
  193.4270  174.2410  139.7740 O   0  0  0  0  0  1  0  0  0  0  0  0
  193.1800  174.9170  140.9700 C   0  0  0  0  0  2  0  0  0  0  0  0
  1  9  2  0  0  0  0
  1 17  1  0  0  0  0
  2 21  1  6  0  0  0
  2 19  1  0  0  0  0
  3 21  1  0  0  0  0
  4 34  1  1  0  0  0
  5  7  1  0  0  0  0
  6 39  1  6  0  0  0
  6  4  1  0  0  0  0
  9 14  1  0  0  0  0
 10  8  1  6  0  0  0
 10  2  1  0  0  0  0
 10  6  1  0  0  0  0
 11 13  1  0  0  0  0
 12  5  2  0  0  0  0
 13  7  2  0  0  0  0
 13 24  1  0  0  0  0
 14  8  1  0  0  0  0
 14 21  2  0  0  0  0
 15  1  1  0  0  0  0
 16 20  1  0  0  0  0
 16 11  1  0  0  0  0
 17  3  2  0  0  0  0
 19 11  2  0  0  0  0
 19 12  1  0  0  0  0
 20 18  2  0  0  0  0
 20  4  1  0  0  0  0
 22 26  1  0  0  0  0
 24 29  1  0  0  0  0
 26 25  1  0  0  0  0
 26 30  1  1  0  0  0
 27 23  1  0  0  0  0
 27 25  2  0  0  0  0
 28 27  1  0  0  0  0
 29 28  2  0  0  0  0
 29 22  1  0  0  0  0
 31 30  1  0  0  0  0
 32 31  1  0  0  0  0
 33 32  1  0  0  0  0
 34 35  2  0  0  0  0
 36 34  1  0  0  0  0
 37 39  2  0  0  0  0
 39 38  1  0  0  0  0
 40 38  1  1  0  0  0
 40 42  1  0  0  0  0
 40 41  1  0  0  0  0
 41 44  1  6  0  0  0
 42 41  1  0  0  0  0
 44 43  1  0  0  0  0
 45 46  1  0  0  0  0
 46 16  1  0  0  0  0
M  END
>  <MODEL>
7

>  <REMARK>
 VINA RESULT:      -6.0      2.816      7.151
  Name = 
  9 active torsions:
  status: ('A' for Active; 'I' for Inactive)
    1  A    between atoms: N_6  and  C_30
    2  A    between atoms: C_8  and  C_10
    3  A    between atoms: C_12  and  C_37
    4  A    between atoms: C_16  and  N_23
    5  A    between atoms: C_18  and  O_44
    6  A    between atoms: C_19  and  N_36
    7  A    between atoms: C_20  and  C_27
    8  A    between atoms: C_27  and  C_42
    9  A    between atoms: C_34  and  C_42
                            x       y       z     vdW  Elec       q    Type
                         _______ _______ _______ _____ _____    ______ ____

>  <TORSDO>
F 9

$$$$
=
 OpenBabel11042414383D

 46 51  0  0  1  0  0  0  0  0999 V2000
  187.0550  175.8470  137.9400 C   0  0  0  0  0  0  0  0  0  0  0  0
  188.9160  174.3980  141.4830 C   0  0  2  0  0  3  0  0  0  0  0  0
  188.3790  174.0780  138.9660 C   0  0  0  0  0  3  0  0  0  0  0  0
  189.8420  174.9250  144.5220 C   0  0  2  0  0  3  0  0  0  0  0  0
  191.3960  171.6330  140.8140 C   0  0  0  0  0  3  0  0  0  0  0  0
  188.5690  175.4150  143.8010 C   0  0  2  0  0  3  0  0  0  0  0  0
  192.5820  172.1110  141.3570 C   0  0  0  0  0  3  0  0  0  0  0  0
  187.7510  176.5640  141.6180 C   0  0  0  0  0  2  0  0  0  0  0  0
  187.0350  176.5480  139.1540 C   0  0  0  0  0  3  0  0  0  0  0  0
  188.8130  175.6910  142.3060 C   0  0  2  0  0  3  0  0  0  0  0  0
  191.4780  174.1790  141.9960 C   0  0  0  0  0  0  0  0  0  0  0  0
  190.2480  172.4170  140.8590 C   0  0  0  0  0  3  0  0  0  0  0  0
  192.6420  173.3790  141.9410 C   0  0  0  0  0  0  0  0  0  0  0  0
  187.7060  176.0050  140.2500 C   0  0  0  0  0  0  0  0  0  0  0  0
  186.3850  176.3790  136.8040 N   0  0  0  0  0  1  0  0  0  0  0  0
  191.5540  175.4450  142.6720 N   0  0  0  0  0  0  0  0  0  0  0  0
  187.7210  174.6130  137.8470 C   0  0  0  0  0  3  0  0  0  0  0  0
  191.7120  176.3710  144.8130 O   0  0  0  0  0  0  0  0  0  0  0  0
  190.2610  173.6950  141.4310 C   0  0  0  0  0  0  0  0  0  0  0  0
  191.1000  175.5970  144.0290 C   0  0  0  0  0  0  0  0  0  0  0  0
  188.3760  174.8080  140.1580 C   0  0  0  0  0  0  0  0  0  0  0  0
  194.6390  171.4150  143.7750 S   0  0  0  0  0  0  0  0  0  0  0  0
  197.9390  174.0210  145.1690 C   0  0  0  0  0  1  0  0  0  0  0  0
  193.8500  173.8620  142.5530 N   0  0  0  0  0  2  0  0  0  0  0  0
  196.3160  172.3100  145.6570 N   0  0  0  0  0  0  0  0  0  0  0  0
  195.0150  171.6630  145.5330 C   0  0  2  0  0  3  0  0  0  0  0  0
  196.6320  173.3500  144.9450 C   0  0  0  0  0  0  0  0  0  0  0  0
  195.7270  173.8790  143.9650 N   0  0  0  0  0  0  0  0  0  0  0  0
  194.7570  173.1900  143.4410 C   0  0  0  0  0  0  0  0  0  0  0  0
  195.0270  170.3260  146.2500 C   0  0  0  0  0  2  0  0  0  0  0  0
  196.4130  170.0420  146.8020 C   0  0  0  0  0  2  0  0  0  0  0  0
  197.1840  169.1840  145.8200 C   0  0  0  0  0  2  0  0  0  0  0  0
  196.2480  168.1750  145.1880 C   0  0  0  0  0  1  0  0  0  0  0  0
  189.9550  173.4260  144.6500 C   0  0  0  0  0  0  0  0  0  0  0  0
  188.9760  172.7090  144.5030 O   0  0  0  0  0  0  0  0  0  0  0  0
  191.2610  172.8030  145.0160 C   0  0  0  0  0  1  0  0  0  0  0  0
  188.4630  177.7530  144.3190 O   0  0  0  0  0  0  0  0  0  0  0  0
  186.9770  176.3900  145.4960 N   0  0  0  0  0  2  0  0  0  0  0  0
  188.0090  176.5960  144.5320 C   0  0  0  0  0  0  0  0  0  0  0  0
  186.3620  177.4830  146.2310 C   0  0  1  0  0  3  0  0  0  0  0  0
  184.8760  177.2170  146.3480 C   0  0  1  0  0  3  0  0  0  0  0  0
  185.7900  176.9660  147.5320 C   0  0  0  0  0  2  0  0  0  0  0  0
  184.1880  179.0010  145.2410 C   0  0  0  0  0  1  0  0  0  0  0  0
  184.2080  178.4290  146.5160 O   0  0  0  0  0  0  0  0  0  0  0  0
  191.8190  177.7570  142.4880 O   0  0  0  0  0  1  0  0  0  0  0  0
  192.3070  176.5260  142.0460 C   0  0  0  0  0  2  0  0  0  0  0  0
  1  9  1  0  0  0  0
  2 21  1  6  0  0  0
  2 10  1  0  0  0  0
  3 21  2  0  0  0  0
  4 34  1  6  0  0  0
  5 12  2  0  0  0  0
  5  7  1  0  0  0  0
  6  4  1  0  0  0  0
  6 39  1  1  0  0  0
  7 13  2  0  0  0  0
  9 14  2  0  0  0  0
 10  8  1  6  0  0  0
 10  6  1  0  0  0  0
 11 16  1  0  0  0  0
 12 19  1  0  0  0  0
 13 11  1  0  0  0  0
 13 24  1  0  0  0  0
 14  8  1  0  0  0  0
 15  1  1  0  0  0  0
 16 20  1  0  0  0  0
 17  1  2  0  0  0  0
 17  3  1  0  0  0  0
 19  2  1  0  0  0  0
 19 11  2  0  0  0  0
 20  4  1  0  0  0  0
 20 18  2  0  0  0  0
 21 14  1  0  0  0  0
 22 26  1  0  0  0  0
 24 29  1  0  0  0  0
 26 25  1  0  0  0  0
 26 30  1  1  0  0  0
 27 23  1  0  0  0  0
 27 25  2  0  0  0  0
 28 27  1  0  0  0  0
 29 22  1  0  0  0  0
 29 28  2  0  0  0  0
 30 31  1  0  0  0  0
 32 31  1  0  0  0  0
 33 32  1  0  0  0  0
 34 36  1  0  0  0  0
 35 34  2  0  0  0  0
 37 39  2  0  0  0  0
 39 38  1  0  0  0  0
 40 38  1  6  0  0  0
 40 41  1  0  0  0  0
 40 42  1  0  0  0  0
 41 44  1  1  0  0  0
 41 42  1  0  0  0  0
 43 44  1  0  0  0  0
 46 45  1  0  0  0  0
 46 16  1  0  0  0  0
M  END
>  <MODEL>
8

>  <REMARK>
 VINA RESULT:      -5.9      2.435      6.188
  Name = 
  9 active torsions:
  status: ('A' for Active; 'I' for Inactive)
    1  A    between atoms: N_6  and  C_30
    2  A    between atoms: C_8  and  C_10
    3  A    between atoms: C_12  and  C_37
    4  A    between atoms: C_16  and  N_23
    5  A    between atoms: C_18  and  O_44
    6  A    between atoms: C_19  and  N_36
    7  A    between atoms: C_20  and  C_27
    8  A    between atoms: C_27  and  C_42
    9  A    between atoms: C_34  and  C_42
                            x       y       z     vdW  Elec       q    Type
                         _______ _______ _______ _____ _____    ______ ____

>  <TORSDO>
F 9

$$$$
=
 OpenBabel11042414383D

 46 51  0  0  1  0  0  0  0  0999 V2000
  196.7920  173.3610  145.1110 C   0  0  0  0  0  0  0  0  0  0  0  0
  193.5340  172.0450  142.7090 C   0  0  2  0  0  3  0  0  0  0  0  0
  194.5330  172.4500  145.0680 C   0  0  0  0  0  3  0  0  0  0  0  0
  192.1710  171.8180  139.8010 C   0  0  2  0  0  3  0  0  0  0  0  0
  190.3170  171.7090  144.6540 C   0  0  0  0  0  3  0  0  0  0  0  0
  193.6620  171.7140  140.1790 C   0  0  2  0  0  3  0  0  0  0  0  0
  189.4290  172.5350  143.9740 C   0  0  0  0  0  3  0  0  0  0  0  0
  195.5290  172.9000  141.5440 C   0  0  0  0  0  2  0  0  0  0  0  0
  196.8110  173.4030  143.7090 C   0  0  0  0  0  3  0  0  0  0  0  0
  194.0280  172.6170  141.3720 C   0  0  2  0  0  3  0  0  0  0  0  0
  191.1820  173.1640  142.4130 C   0  0  0  0  0  0  0  0  0  0  0  0
  191.6340  171.6030  144.2210 C   0  0  0  0  0  3  0  0  0  0  0  0
  189.8460  173.2720  142.8630 C   0  0  0  0  0  0  0  0  0  0  0  0
  195.6780  172.9820  143.0130 C   0  0  0  0  0  0  0  0  0  0  0  0
  197.9310  173.7900  145.8470 N   0  0  0  0  0  1  0  0  0  0  0  0
  191.5570  173.8750  141.2210 N   0  0  0  0  0  0  0  0  0  0  0  0
  195.6590  172.8810  145.7890 C   0  0  0  0  0  3  0  0  0  0  0  0
  191.2780  173.8340  138.9000 O   0  0  0  0  0  0  0  0  0  0  0  0
  192.0970  172.3260  143.1140 C   0  0  0  0  0  0  0  0  0  0  0  0
  191.6170  173.2140  139.9440 C   0  0  0  0  0  0  0  0  0  0  0  0
  194.5590  172.5310  143.6720 C   0  0  0  0  0  0  0  0  0  0  0  0
  188.7520  176.2300  143.9850 S   0  0  0  0  0  0  0  0  0  0  0  0
  185.9360  177.7180  140.9060 C   0  0  0  0  0  1  0  0  0  0  0  0
  188.9220  174.0870  142.1200 N   0  0  0  0  0  2  0  0  0  0  0  0
  186.4510  177.3690  143.2320 N   0  0  0  0  0  0  0  0  0  0  0  0
  187.0200  176.6290  144.3530 C   0  0  2  0  0  3  0  0  0  0  0  0
  186.6040  176.9730  142.0040 C   0  0  0  0  0  0  0  0  0  0  0  0
  187.3860  175.8110  141.6930 N   0  0  0  0  0  0  0  0  0  0  0  0
  188.2830  175.3170  142.4940 C   0  0  0  0  0  0  0  0  0  0  0  0
  186.9410  177.4610  145.6200 C   0  0  0  0  0  2  0  0  0  0  0  0
  185.7860  176.9880  146.4840 C   0  0  0  0  0  2  0  0  0  0  0  0
  184.9990  178.1840  146.9770 C   0  0  0  0  0  2  0  0  0  0  0  0
  184.0730  178.6680  145.8800 C   0  0  0  0  0  1  0  0  0  0  0  0
  191.2940  170.7440  140.3970 C   0  0  0  0  0  0  0  0  0  0  0  0
  190.0850  170.9000  140.4830 O   0  0  0  0  0  0  0  0  0  0  0  0
  191.9040  169.4960  140.9420 C   0  0  0  0  0  1  0  0  0  0  0  0
  195.1010  171.0310  138.3880 O   0  0  0  0  0  0  0  0  0  0  0  0
  194.6350  173.3170  138.4930 N   0  0  0  0  0  2  0  0  0  0  0  0
  194.5000  171.9770  138.9660 C   0  0  0  0  0  0  0  0  0  0  0  0
  195.4090  173.6550  137.3090 C   0  0  1  0  0  3  0  0  0  0  0  0
  195.7700  175.1250  137.3660 C   0  0  1  0  0  3  0  0  0  0  0  0
  196.8050  174.0730  137.7130 C   0  0  0  0  0  2  0  0  0  0  0  0
  194.7080  175.8380  135.5640 C   0  0  0  0  0  1  0  0  0  0  0  0
  195.9870  175.5910  136.0700 O   0  0  0  0  0  0  0  0  0  0  0  0
  192.7650  175.6930  142.0480 O   0  0  0  0  0  1  0  0  0  0  0  0
  191.6590  175.3280  141.2780 C   0  0  0  0  0  2  0  0  0  0  0  0
  1 17  1  0  0  0  0
  1 15  1  0  0  0  0
  2 19  1  1  0  0  0
  2 21  1  0  0  0  0
  3 17  2  0  0  0  0
  4 20  1  0  0  0  0
  4  6  1  0  0  0  0
  4 34  1  1  0  0  0
  6 39  1  6  0  0  0
  6 10  1  0  0  0  0
  7  5  2  0  0  0  0
  8 14  1  0  0  0  0
  9  1  2  0  0  0  0
 10  8  1  1  0  0  0
 10  2  1  0  0  0  0
 11 13  2  0  0  0  0
 11 19  1  0  0  0  0
 12  5  1  0  0  0  0
 13  7  1  0  0  0  0
 14 21  2  0  0  0  0
 14  9  1  0  0  0  0
 16 46  1  0  0  0  0
 16 11  1  0  0  0  0
 18 20  2  0  0  0  0
 19 12  2  0  0  0  0
 20 16  1  0  0  0  0
 21  3  1  0  0  0  0
 22 26  1  0  0  0  0
 23 27  1  0  0  0  0
 24 29  1  0  0  0  0
 24 13  1  0  0  0  0
 25 26  1  0  0  0  0
 26 30  1  1  0  0  0
 27 25  2  0  0  0  0
 28 27  1  0  0  0  0
 28 29  2  0  0  0  0
 29 22  1  0  0  0  0
 30 31  1  0  0  0  0
 31 32  1  0  0  0  0
 33 32  1  0  0  0  0
 34 35  2  0  0  0  0
 34 36  1  0  0  0  0
 37 39  2  0  0  0  0
 38 39  1  0  0  0  0
 40 41  1  0  0  0  0
 40 42  1  0  0  0  0
 40 38  1  1  0  0  0
 41 44  1  6  0  0  0
 41 42  1  0  0  0  0
 43 44  1  0  0  0  0
 46 45  1  0  0  0  0
M  END
>  <MODEL>
9

>  <REMARK>
 VINA RESULT:      -5.8      3.396      8.507
  Name = 
  9 active torsions:
  status: ('A' for Active; 'I' for Inactive)
    1  A    between atoms: N_6  and  C_30
    2  A    between atoms: C_8  and  C_10
    3  A    between atoms: C_12  and  C_37
    4  A    between atoms: C_16  and  N_23
    5  A    between atoms: C_18  and  O_44
    6  A    between atoms: C_19  and  N_36
    7  A    between atoms: C_20  and  C_27
    8  A    between atoms: C_27  and  C_42
    9  A    between atoms: C_34  and  C_42
                            x       y       z     vdW  Elec       q    Type
                         _______ _______ _______ _____ _____    ______ ____

>  <TORSDO>
F 9

$$$$
