=
 OpenBabel11042413393D

 42 48  0  0  1  0  0  0  0  0999 V2000
  190.3700  176.3510  145.9430 C   0  0  0  0  0  0  0  0  0  0  0  0
  190.0240  177.4490  146.7490 C   0  0  0  0  0  3  0  0  0  0  0  0
  189.3620  175.4580  145.5050 C   0  0  0  0  0  0  0  0  0  0  0  0
  188.7000  177.6560  147.1410 C   0  0  0  0  0  3  0  0  0  0  0  0
  188.0370  175.6760  145.9220 C   0  0  0  0  0  3  0  0  0  0  0  0
  187.7020  176.7590  146.7420 C   0  0  0  0  0  0  0  0  0  0  0  0
  190.1750  173.2450  141.2770 C   0  0  1  0  0  0  0  0  0  0  0  0
  189.1180  172.6410  139.1870 C   0  0  1  0  0  0  0  0  0  0  0  0
  189.6550  174.3180  144.5950 C   0  0  0  0  0  0  0  0  0  0  0  0
  190.2940  171.4750  143.1220 C   0  0  0  0  0  2  0  0  0  0  0  0
  189.5850  171.9320  141.8480 C   0  0  0  0  0  2  0  0  0  0  0  0
  188.3200  173.8130  138.5150 C   0  0  1  0  0  3  0  0  0  0  0  0
  189.4100  173.3360  136.9020 C   0  0  2  0  0  3  0  0  0  0  0  0
  189.9150  174.5320  142.0150 C   0  0  0  0  0  3  0  0  0  0  0  0
  191.5120  173.0310  140.6650 C   0  0  1  0  0  3  0  0  0  0  0  0
  190.7700  172.8520  137.3530 C   0  0  0  0  0  2  0  0  0  0  0  0
  189.1150  174.5240  137.5880 O   0  0  0  0  0  0  0  0  0  0  0  0
  189.4710  171.8080  144.3630 C   0  0  0  0  0  2  0  0  0  0  0  0
  190.5370  172.3200  138.7690 C   0  0  1  0  0  3  0  0  0  0  0  0
  189.7800  174.5020  143.3080 C   0  0  0  0  0  0  0  0  0  0  0  0
  190.0800  172.9800  145.1380 C   0  0  0  0  0  2  0  0  0  0  0  0
  190.3520  173.4530  139.7390 C   0  0  1  0  0  0  0  0  0  0  0  0
  188.5030  172.5560  137.7870 C   0  0  1  0  0  3  0  0  0  0  0  0
  193.4810  173.8730  141.9200 C   0  0  0  0  0  1  0  0  0  0  0  0
  192.4800  174.1960  140.8320 C   0  0  0  0  0  2  0  0  0  0  0  0
  186.2650  176.9610  147.1340 C   0  0  1  0  0  3  0  0  0  0  0  0
  186.0460  178.2980  147.8350 C   0  0  0  0  0  1  0  0  0  0  0  0
  184.4120  177.5110  145.8790 O   0  0  0  0  0  0  0  0  0  0  0  0
  185.3790  176.8190  145.9980 N   0  0  0  0  0  0  0  0  0  0  0  0
  191.7430  176.1210  145.6060 N   0  0  0  0  0  2  0  0  0  0  0  0
  192.5550  177.0600  144.8460 C   0  0  0  0  0  2  0  0  0  0  0  0
  191.9580  177.2530  143.4610 C   0  0  0  0  0  2  0  0  0  0  0  0
  190.8990  178.3470  143.4630 C   0  0  0  0  0  2  0  0  0  0  0  0
  189.7190  177.9800  142.5730 C   0  0  0  0  0  2  0  0  0  0  0  0
  188.3950  178.1930  143.2960 C   0  0  0  0  0  2  0  0  0  0  0  0
  187.2270  178.2240  142.3150 C   0  0  0  0  0  3  0  0  0  0  0  0
  186.9270  176.8590  141.7810 C   0  0  0  0  0  0  0  0  0  0  0  0
  187.0140  176.6420  140.5450 O   0  0  0  0  0  0  0  0  0  0  0  0
  186.5520  175.8300  142.6380 O   0  0  0  0  0  1  0  0  0  0  0  0
  184.8820  178.6120  142.4570 O   0  0  0  0  0  0  0  0  0  0  0  0
  186.1350  179.5800  144.1140 O   0  0  0  0  0  1  0  0  0  0  0  0
  186.0180  178.8190  142.9580 C   0  0  0  0  0  0  0  0  0  0  0  0
  1  2  1  0  0  0  0
  2  4  2  0  0  0  0
  3  5  1  0  0  0  0
  3  1  2  0  0  0  0
  5  6  2  0  0  0  0
  6 26  1  0  0  0  0
  6  4  1  0  0  0  0
  7 11  1  1  0  0  0
  7 14  1  0  0  0  0
  8 22  1  0  0  0  0
  9 21  1  0  0  0  0
  9  3  1  0  0  0  0
 10 18  1  0  0  0  0
 11 10  1  0  0  0  0
 12  8  1  0  0  0  0
 13 16  1  0  0  0  0
 13 17  1  0  0  0  0
 13 23  1  0  0  0  0
 14 20  2  0  0  0  0
 15 25  1  0  0  0  0
 15  7  1  0  0  0  0
 16 19  1  0  0  0  0
 17 12  1  0  0  0  0
 18 21  1  0  0  0  0
 19  8  1  0  0  0  0
 19 22  1  0  0  0  0
 20  9  2  0  0  0  0
 22 15  1  0  0  0  0
 22  7  1  0  0  0  0
 23 12  1  0  0  0  0
 23  8  1  0  0  0  0
 25 24  1  0  0  0  0
 26 27  1  0  0  0  0
 28 29  2  0  0  0  0
 29 26  1  0  0  0  0
 30  1  1  0  0  0  0
 31 30  1  0  0  0  0
 32 33  1  0  0  0  0
 32 31  1  0  0  0  0
 34 35  1  0  0  0  0
 34 33  1  0  0  0  0
 36 42  1  0  0  0  0
 36 35  1  0  0  0  0
 37 36  1  0  0  0  0
 37 39  1  0  0  0  0
 38 37  2  0  0  0  0
 40 42  2  0  0  0  0
 42 41  1  0  0  0  0
M  END
>  <MODEL>
1

>  <REMARK>
 VINA RESULT:      -6.8      0.000      0.000
  Name = 
  13 active torsions:
  status: ('A' for Active; 'I' for Inactive)
    1  A    between atoms: C_1  and  C_18
    2  A    between atoms: C_1  and  C_21
    3  A    between atoms: C_3  and  C_5
    4  A    between atoms: C_3  and  C_16
    5  A    between atoms: C_3  and  C_34
    6  A    between atoms: C_6  and  N_24
    7  A    between atoms: C_8  and  C_23
    8  A    between atoms: C_15  and  C_29
    9  A    between atoms: C_16  and  C_41
   10  A    between atoms: C_18  and  C_41
   11  A    between atoms: C_21  and  N_24
   12  A    between atoms: N_25  and  C_31
   13  A    between atoms: C_31  and  C_38
                            x       y       z     vdW  Elec       q    Type
                         _______ _______ _______ _____ _____    ______ ____

>  <TORSDO>
F 13

$$$$
=
 OpenBabel11042413393D

 42 48  0  0  1  0  0  0  0  0999 V2000
  190.9710  172.4870  142.4240 C   0  0  0  0  0  0  0  0  0  0  0  0
  190.9810  171.3580  141.5870 C   0  0  0  0  0  3  0  0  0  0  0  0
  190.4900  173.7230  141.9260 C   0  0  0  0  0  0  0  0  0  0  0  0
  190.5430  171.4470  140.2640 C   0  0  0  0  0  3  0  0  0  0  0  0
  190.0670  173.7950  140.5870 C   0  0  0  0  0  3  0  0  0  0  0  0
  190.0990  172.6720  139.7540 C   0  0  0  0  0  0  0  0  0  0  0  0
  188.5030  176.7230  145.1640 C   0  0  1  0  0  0  0  0  0  0  0  0
  186.6200  178.2000  145.5180 C   0  0  1  0  0  0  0  0  0  0  0  0
  190.3900  174.9360  142.7820 C   0  0  0  0  0  0  0  0  0  0  0  0
  190.7150  177.7550  144.3960 C   0  0  0  0  0  2  0  0  0  0  0  0
  189.1990  177.9250  144.4810 C   0  0  0  0  0  2  0  0  0  0  0  0
  185.2360  177.5710  145.1270 C   0  0  1  0  0  3  0  0  0  0  0  0
  184.7030  178.1470  146.9710 C   0  0  2  0  0  3  0  0  0  0  0  0
  188.4250  175.4160  144.4180 C   0  0  0  0  0  3  0  0  0  0  0  0
  188.7570  176.6950  146.6290 C   0  0  1  0  0  3  0  0  0  0  0  0
  185.9030  178.0470  147.8850 C   0  0  0  0  0  2  0  0  0  0  0  0
  184.6080  176.9570  146.2340 O   0  0  0  0  0  0  0  0  0  0  0  0
  191.1470  177.3380  142.9930 C   0  0  0  0  0  2  0  0  0  0  0  0
  187.1080  178.1860  146.9510 C   0  0  1  0  0  3  0  0  0  0  0  0
  189.3760  175.1070  143.5880 C   0  0  0  0  0  0  0  0  0  0  0  0
  191.5620  175.8650  142.9540 C   0  0  0  0  0  2  0  0  0  0  0  0
  187.3090  176.9300  146.1510 C   0  0  1  0  0  0  0  0  0  0  0  0
  185.2720  178.8700  145.8010 C   0  0  1  0  0  3  0  0  0  0  0  0
  190.3290  174.9920  147.5210 C   0  0  0  0  0  1  0  0  0  0  0  0
  188.8750  175.2970  147.2250 C   0  0  0  0  0  2  0  0  0  0  0  0
  189.6070  172.8000  138.3390 C   0  0  1  0  0  3  0  0  0  0  0  0
  188.4300  173.7640  138.2270 C   0  0  0  0  0  1  0  0  0  0  0  0
  190.6350  174.2040  136.8270 O   0  0  0  0  0  0  0  0  0  0  0  0
  190.6740  173.1770  137.4370 N   0  0  0  0  0  0  0  0  0  0  0  0
  191.4840  172.3890  143.7570 N   0  0  0  0  0  2  0  0  0  0  0  0
  192.5620  171.4900  144.1430 C   0  0  0  0  0  2  0  0  0  0  0  0
  193.5330  172.2160  145.0600 C   0  0  0  0  0  2  0  0  0  0  0  0
  192.9810  173.5700  145.4890 C   0  0  0  0  0  2  0  0  0  0  0  0
  194.0370  174.6600  145.3740 C   0  0  0  0  0  2  0  0  0  0  0  0
  195.0700  174.3180  144.3070 C   0  0  0  0  0  2  0  0  0  0  0  0
  195.4150  175.5380  143.4580 C   0  0  0  0  0  3  0  0  0  0  0  0
  196.8790  175.8430  143.5110 C   0  0  0  0  0  0  0  0  0  0  0  0
  197.6930  174.9340  143.8180 O   0  0  0  0  0  1  0  0  0  0  0  0
  197.3460  177.1210  143.2260 O   0  0  0  0  0  0  0  0  0  0  0  0
  194.6800  176.3390  141.3400 O   0  0  0  0  0  0  0  0  0  0  0  0
  194.8820  174.0630  141.5070 O   0  0  0  0  0  1  0  0  0  0  0  0
  194.9660  175.3390  142.0480 C   0  0  0  0  0  0  0  0  0  0  0  0
  1 30  1  0  0  0  0
  2  1  2  0  0  0  0
  3  1  1  0  0  0  0
  3  9  1  0  0  0  0
  4  2  1  0  0  0  0
  5  3  2  0  0  0  0
  6  4  2  0  0  0  0
  6  5  1  0  0  0  0
  7 14  1  6  0  0  0
  7 22  1  0  0  0  0
  7 15  1  0  0  0  0
  8 23  1  0  0  0  0
  8 22  1  0  0  0  0
  8 19  1  0  0  0  0
  9 21  1  0  0  0  0
  9 20  2  0  0  0  0
 10 11  1  0  0  0  0
 11  7  1  0  0  0  0
 12  8  1  0  0  0  0
 12 23  1  0  0  0  0
 12 17  1  0  0  0  0
 13 16  1  0  0  0  0
 15 25  1  0  0  0  0
 17 13  1  0  0  0  0
 18 10  1  0  0  0  0
 19 16  1  0  0  0  0
 20 14  2  0  0  0  0
 21 18  1  0  0  0  0
 22 15  1  0  0  0  0
 22 19  1  0  0  0  0
 23 13  1  0  0  0  0
 25 24  1  0  0  0  0
 26  6  1  0  0  0  0
 27 26  1  0  0  0  0
 28 29  2  0  0  0  0
 29 26  1  0  0  0  0
 30 31  1  0  0  0  0
 31 32  1  0  0  0  0
 32 33  1  0  0  0  0
 34 33  1  0  0  0  0
 35 34  1  0  0  0  0
 36 37  1  0  0  0  0
 36 35  1  0  0  0  0
 37 38  1  0  0  0  0
 39 37  2  0  0  0  0
 40 42  2  0  0  0  0
 41 42  1  0  0  0  0
 42 36  1  0  0  0  0
M  END
>  <MODEL>
2

>  <REMARK>
 VINA RESULT:      -6.5      3.584      8.304
  Name = 
  13 active torsions:
  status: ('A' for Active; 'I' for Inactive)
    1  A    between atoms: C_1  and  C_18
    2  A    between atoms: C_1  and  C_21
    3  A    between atoms: C_3  and  C_5
    4  A    between atoms: C_3  and  C_16
    5  A    between atoms: C_3  and  C_34
    6  A    between atoms: C_6  and  N_24
    7  A    between atoms: C_8  and  C_23
    8  A    between atoms: C_15  and  C_29
    9  A    between atoms: C_16  and  C_41
   10  A    between atoms: C_18  and  C_41
   11  A    between atoms: C_21  and  N_24
   12  A    between atoms: N_25  and  C_31
   13  A    between atoms: C_31  and  C_38
                            x       y       z     vdW  Elec       q    Type
                         _______ _______ _______ _____ _____    ______ ____

>  <TORSDO>
F 13

$$$$
=
 OpenBabel11042413393D

 42 48  0  0  1  0  0  0  0  0999 V2000
  190.8820  172.1300  142.8630 C   0  0  0  0  0  0  0  0  0  0  0  0
  191.2800  170.8000  142.6500 C   0  0  0  0  0  3  0  0  0  0  0  0
  191.6030  172.9390  143.7750 C   0  0  0  0  0  0  0  0  0  0  0  0
  192.3650  170.2600  143.3440 C   0  0  0  0  0  3  0  0  0  0  0  0
  192.6830  172.3730  144.4740 C   0  0  0  0  0  3  0  0  0  0  0  0
  193.0610  171.0420  144.2730 C   0  0  0  0  0  0  0  0  0  0  0  0
  189.3700  176.7260  145.8020 C   0  0  1  0  0  0  0  0  0  0  0  0
  187.2080  177.7840  146.0410 C   0  0  1  0  0  0  0  0  0  0  0  0
  191.2730  174.3740  143.9920 C   0  0  0  0  0  0  0  0  0  0  0  0
  190.9590  177.6240  144.0090 C   0  0  0  0  0  2  0  0  0  0  0  0
  189.5100  177.5190  144.4810 C   0  0  0  0  0  2  0  0  0  0  0  0
  186.0520  176.7920  146.4220 C   0  0  1  0  0  3  0  0  0  0  0  0
  185.7010  178.1130  147.8870 C   0  0  2  0  0  3  0  0  0  0  0  0
  189.5830  175.2350  145.7740 C   0  0  0  0  0  3  0  0  0  0  0  0
  189.8770  177.4970  146.9680 C   0  0  1  0  0  3  0  0  0  0  0  0
  187.0130  178.7250  148.3240 C   0  0  0  0  0  2  0  0  0  0  0  0
  185.8620  176.7210  147.8200 O   0  0  0  0  0  0  0  0  0  0  0  0
  191.2440  176.6420  142.8760 C   0  0  0  0  0  2  0  0  0  0  0  0
  187.9210  178.5970  147.0990 C   0  0  1  0  0  3  0  0  0  0  0  0
  190.4190  174.7340  144.9130 C   0  0  0  0  0  0  0  0  0  0  0  0
  192.0960  175.4650  143.3610 C   0  0  0  0  0  2  0  0  0  0  0  0
  188.3690  177.1730  146.9160 C   0  0  1  0  0  0  0  0  0  0  0  0
  185.7900  178.2320  146.4060 C   0  0  1  0  0  3  0  0  0  0  0  0
  192.0340  176.5900  147.7970 C   0  0  0  0  0  1  0  0  0  0  0  0
  190.5420  176.6510  148.0470 C   0  0  0  0  0  2  0  0  0  0  0  0
  194.2420  170.4970  145.0270 C   0  0  1  0  0  3  0  0  0  0  0  0
  194.9340  169.3690  144.2670 C   0  0  0  0  0  1  0  0  0  0  0  0
  196.2110  171.2910  145.9240 O   0  0  0  0  0  0  0  0  0  0  0  0
  195.1810  171.5420  145.3720 N   0  0  0  0  0  0  0  0  0  0  0  0
  189.7280  172.6440  142.1890 N   0  0  0  0  0  2  0  0  0  0  0  0
  189.7780  173.3050  140.8920 C   0  0  0  0  0  2  0  0  0  0  0  0
  188.7790  174.4500  140.8600 C   0  0  0  0  0  2  0  0  0  0  0  0
  187.8540  174.4110  142.0700 C   0  0  0  0  0  2  0  0  0  0  0  0
  187.6890  175.7930  142.6870 C   0  0  0  0  0  2  0  0  0  0  0  0
  186.2680  176.3120  142.5030 C   0  0  0  0  0  2  0  0  0  0  0  0
  186.2650  177.7670  142.0410 C   0  0  0  0  0  3  0  0  0  0  0  0
  185.8660  177.8820  140.6040 C   0  0  0  0  0  0  0  0  0  0  0  0
  186.6820  177.5550  139.7040 O   0  0  0  0  0  0  0  0  0  0  0  0
  184.6030  178.3470  140.2540 O   0  0  0  0  0  1  0  0  0  0  0  0
  185.7630  179.7120  143.3190 O   0  0  0  0  0  1  0  0  0  0  0  0
  184.1000  178.1370  143.2420 O   0  0  0  0  0  0  0  0  0  0  0  0
  185.3700  178.5900  142.9060 C   0  0  0  0  0  0  0  0  0  0  0  0
  1  3  1  0  0  0  0
  2  1  2  0  0  0  0
  2  4  1  0  0  0  0
  3  9  1  0  0  0  0
  3  5  2  0  0  0  0
  4  6  2  0  0  0  0
  6  5  1  0  0  0  0
  6 26  1  0  0  0  0
  7 11  1  6  0  0  0
  7 22  1  0  0  0  0
  7 15  1  0  0  0  0
  8 23  1  0  0  0  0
  8 12  1  0  0  0  0
  8 22  1  0  0  0  0
  8 19  1  0  0  0  0
  9 20  2  0  0  0  0
 10 11  1  0  0  0  0
 12 17  1  0  0  0  0
 13 16  1  0  0  0  0
 14  7  1  0  0  0  0
 15 25  1  0  0  0  0
 17 13  1  0  0  0  0
 18 21  1  0  0  0  0
 18 10  1  0  0  0  0
 19 16  1  0  0  0  0
 20 14  2  0  0  0  0
 21  9  1  0  0  0  0
 22 15  1  0  0  0  0
 22 19  1  0  0  0  0
 23 12  1  0  0  0  0
 23 13  1  0  0  0  0
 24 25  1  0  0  0  0
 26 29  1  0  0  0  0
 27 26  1  0  0  0  0
 29 28  2  0  0  0  0
 30  1  1  0  0  0  0
 31 30  1  0  0  0  0
 32 31  1  0  0  0  0
 32 33  1  0  0  0  0
 33 34  1  0  0  0  0
 35 34  1  0  0  0  0
 36 35  1  0  0  0  0
 36 42  1  0  0  0  0
 37 36  1  0  0  0  0
 38 37  2  0  0  0  0
 39 37  1  0  0  0  0
 42 41  2  0  0  0  0
 42 40  1  0  0  0  0
M  END
>  <MODEL>
3

>  <REMARK>
 VINA RESULT:      -6.4      2.775      7.367
  Name = 
  13 active torsions:
  status: ('A' for Active; 'I' for Inactive)
    1  A    between atoms: C_1  and  C_18
    2  A    between atoms: C_1  and  C_21
    3  A    between atoms: C_3  and  C_5
    4  A    between atoms: C_3  and  C_16
    5  A    between atoms: C_3  and  C_34
    6  A    between atoms: C_6  and  N_24
    7  A    between atoms: C_8  and  C_23
    8  A    between atoms: C_15  and  C_29
    9  A    between atoms: C_16  and  C_41
   10  A    between atoms: C_18  and  C_41
   11  A    between atoms: C_21  and  N_24
   12  A    between atoms: N_25  and  C_31
   13  A    between atoms: C_31  and  C_38
                            x       y       z     vdW  Elec       q    Type
                         _______ _______ _______ _____ _____    ______ ____

>  <TORSDO>
F 13

$$$$
=
 OpenBabel11042413393D

 42 48  0  0  1  0  0  0  0  0999 V2000
  188.4770  174.2760  139.6190 C   0  0  0  0  0  0  0  0  0  0  0  0
  188.2300  174.4820  138.2520 C   0  0  0  0  0  3  0  0  0  0  0  0
  189.4750  173.3530  140.0190 C   0  0  0  0  0  0  0  0  0  0  0  0
  188.9410  173.7710  137.2830 C   0  0  0  0  0  3  0  0  0  0  0  0
  190.1700  172.6370  139.0290 C   0  0  0  0  0  3  0  0  0  0  0  0
  189.9050  172.8320  137.6700 C   0  0  0  0  0  0  0  0  0  0  0  0
  191.2640  174.5010  144.3680 C   0  0  1  0  0  0  0  0  0  0  0  0
  193.3250  175.0120  145.5280 C   0  0  1  0  0  0  0  0  0  0  0  0
  189.8300  173.1410  141.4490 C   0  0  0  0  0  0  0  0  0  0  0  0
  190.3710  172.1070  144.4970 C   0  0  0  0  0  2  0  0  0  0  0  0
  191.5950  173.0120  144.6280 C   0  0  0  0  0  2  0  0  0  0  0  0
  194.2300  176.0590  144.7860 C   0  0  1  0  0  3  0  0  0  0  0  0
  194.2170  176.9940  146.5590 C   0  0  2  0  0  3  0  0  0  0  0  0
  190.9570  174.9360  142.9590 C   0  0  0  0  0  3  0  0  0  0  0  0
  190.4860  175.0990  145.4850 C   0  0  1  0  0  3  0  0  0  0  0  0
  192.8850  176.7550  147.2330 C   0  0  0  0  0  2  0  0  0  0  0  0
  193.9780  177.3760  145.2300 O   0  0  0  0  0  0  0  0  0  0  0  0
  190.3710  171.3650  143.1640 C   0  0  0  0  0  2  0  0  0  0  0  0
  192.3860  175.4360  146.6370 C   0  0  1  0  0  3  0  0  0  0  0  0
  190.3880  174.0930  142.1490 C   0  0  0  0  0  0  0  0  0  0  0  0
  189.3250  171.9430  142.2060 C   0  0  0  0  0  2  0  0  0  0  0  0
  191.9090  175.6380  145.2260 C   0  0  1  0  0  0  0  0  0  0  0  0
  194.5930  175.6180  146.1350 C   0  0  1  0  0  3  0  0  0  0  0  0
  189.9950  177.5290  145.3520 C   0  0  0  0  0  1  0  0  0  0  0  0
  189.4610  176.1430  145.0570 C   0  0  0  0  0  2  0  0  0  0  0  0
  190.6990  172.0600  136.6530 C   0  0  1  0  0  3  0  0  0  0  0  0
  189.9020  170.8980  136.0670 C   0  0  0  0  0  1  0  0  0  0  0  0
  192.1450  173.6360  135.7950 O   0  0  0  0  0  0  0  0  0  0  0  0
  191.2050  172.9220  135.6080 N   0  0  0  0  0  0  0  0  0  0  0  0
  187.6920  174.9680  140.5970 N   0  0  0  0  0  2  0  0  0  0  0  0
  187.4350  176.4000  140.5590 C   0  0  0  0  0  2  0  0  0  0  0  0
  188.2060  177.0900  141.6730 C   0  0  0  0  0  2  0  0  0  0  0  0
  187.2930  177.9780  142.5080 C   0  0  0  0  0  2  0  0  0  0  0  0
  186.0190  177.2450  142.9050 C   0  0  0  0  0  2  0  0  0  0  0  0
  185.9620  177.0130  144.4100 C   0  0  0  0  0  2  0  0  0  0  0  0
  186.1400  178.3200  145.1790 C   0  0  0  0  0  3  0  0  0  0  0  0
  185.0500  179.2930  144.8590 C   0  0  0  0  0  0  0  0  0  0  0  0
  185.3330  180.3780  144.2880 O   0  0  0  0  0  0  0  0  0  0  0  0
  183.7290  179.0110  145.1880 O   0  0  0  0  0  1  0  0  0  0  0  0
  185.9330  178.9860  147.4550 O   0  0  0  0  0  1  0  0  0  0  0  0
  186.5400  176.8000  147.1280 O   0  0  0  0  0  0  0  0  0  0  0  0
  186.2040  178.0600  146.6470 C   0  0  0  0  0  0  0  0  0  0  0  0
  1  3  1  0  0  0  0
  1 30  1  0  0  0  0
  2  1  2  0  0  0  0
  3  9  1  0  0  0  0
  4  6  2  0  0  0  0
  4  2  1  0  0  0  0
  5  3  2  0  0  0  0
  6  5  1  0  0  0  0
  7 14  1  6  0  0  0
  7 11  1  0  0  0  0
  7 22  1  0  0  0  0
  7 15  1  0  0  0  0
  8 23  1  0  0  0  0
  8 19  1  0  0  0  0
  9 20  2  0  0  0  0
  9 21  1  0  0  0  0
 10 11  1  0  0  0  0
 12 17  1  0  0  0  0
 12  8  1  0  0  0  0
 12 23  1  0  0  0  0
 13 16  1  0  0  0  0
 17 13  1  0  0  0  0
 18 10  1  0  0  0  0
 19 16  1  0  0  0  0
 20 14  2  0  0  0  0
 21 18  1  0  0  0  0
 22 15  1  0  0  0  0
 22  8  1  0  0  0  0
 22 19  1  0  0  0  0
 23 13  1  0  0  0  0
 25 24  1  0  0  0  0
 25 15  1  0  0  0  0
 26  6  1  0  0  0  0
 27 26  1  0  0  0  0
 29 28  2  0  0  0  0
 29 26  1  0  0  0  0
 31 30  1  0  0  0  0
 31 32  1  0  0  0  0
 32 33  1  0  0  0  0
 33 34  1  0  0  0  0
 34 35  1  0  0  0  0
 35 36  1  0  0  0  0
 36 42  1  0  0  0  0
 37 36  1  0  0  0  0
 37 39  1  0  0  0  0
 38 37  2  0  0  0  0
 42 41  2  0  0  0  0
 42 40  1  0  0  0  0
M  END
>  <MODEL>
4

>  <REMARK>
 VINA RESULT:      -6.3      2.794      7.371
  Name = 
  13 active torsions:
  status: ('A' for Active; 'I' for Inactive)
    1  A    between atoms: C_1  and  C_18
    2  A    between atoms: C_1  and  C_21
    3  A    between atoms: C_3  and  C_5
    4  A    between atoms: C_3  and  C_16
    5  A    between atoms: C_3  and  C_34
    6  A    between atoms: C_6  and  N_24
    7  A    between atoms: C_8  and  C_23
    8  A    between atoms: C_15  and  C_29
    9  A    between atoms: C_16  and  C_41
   10  A    between atoms: C_18  and  C_41
   11  A    between atoms: C_21  and  N_24
   12  A    between atoms: N_25  and  C_31
   13  A    between atoms: C_31  and  C_38
                            x       y       z     vdW  Elec       q    Type
                         _______ _______ _______ _____ _____    ______ ____

>  <TORSDO>
F 13

$$$$
=
 OpenBabel11042413393D

 42 48  0  0  1  0  0  0  0  0999 V2000
  188.7720  177.1860  146.2620 C   0  0  0  0  0  0  0  0  0  0  0  0
  187.7100  177.6830  147.0350 C   0  0  0  0  0  3  0  0  0  0  0  0
  188.5830  176.9610  144.8760 C   0  0  0  0  0  0  0  0  0  0  0  0
  186.4640  177.9360  146.4580 C   0  0  0  0  0  3  0  0  0  0  0  0
  187.3170  177.2090  144.3160 C   0  0  0  0  0  3  0  0  0  0  0  0
  186.2580  177.6840  145.0970 C   0  0  0  0  0  0  0  0  0  0  0  0
  191.0140  173.8800  142.0420 C   0  0  1  0  0  0  0  0  0  0  0  0
  192.2370  171.7930  142.0720 C   0  0  1  0  0  0  0  0  0  0  0  0
  189.6880  176.5020  143.9910 C   0  0  0  0  0  0  0  0  0  0  0  0
  192.3500  176.0600  142.1540 C   0  0  0  0  0  2  0  0  0  0  0  0
  192.3470  174.5600  142.4420 C   0  0  0  0  0  2  0  0  0  0  0  0
  191.5050  170.6380  142.8430 C   0  0  1  0  0  3  0  0  0  0  0  0
  191.8340  169.6050  141.1580 C   0  0  2  0  0  3  0  0  0  0  0  0
  189.7880  174.1540  142.8730 C   0  0  0  0  0  3  0  0  0  0  0  0
  190.8680  173.7740  140.5670 C   0  0  1  0  0  3  0  0  0  0  0  0
  191.7730  170.5510  139.9800 C   0  0  0  0  0  2  0  0  0  0  0  0
  190.7200  169.8450  141.9760 O   0  0  0  0  0  0  0  0  0  0  0  0
  192.1240  176.8690  143.4280 C   0  0  0  0  0  2  0  0  0  0  0  0
  192.1340  171.9170  140.5680 C   0  0  1  0  0  3  0  0  0  0  0  0
  189.6670  175.3090  143.4570 C   0  0  0  0  0  0  0  0  0  0  0  0
  190.7150  177.4670  143.4650 C   0  0  0  0  0  2  0  0  0  0  0  0
  190.9920  172.4660  141.3770 C   0  0  1  0  0  0  0  0  0  0  0  0
  192.7270  170.3420  142.0920 C   0  0  1  0  0  3  0  0  0  0  0  0
  188.8700  172.5590  139.7340 C   0  0  0  0  0  1  0  0  0  0  0  0
  189.4380  173.9240  140.0590 C   0  0  0  0  0  2  0  0  0  0  0  0
  184.9350  177.9590  144.4400 C   0  0  1  0  0  3  0  0  0  0  0  0
  184.5370  179.4290  144.5480 C   0  0  0  0  0  1  0  0  0  0  0  0
  184.1510  177.9770  142.2730 O   0  0  0  0  0  0  0  0  0  0  0  0
  184.9220  177.5180  143.0620 N   0  0  0  0  0  0  0  0  0  0  0  0
  190.0220  176.8720  146.8860 N   0  0  0  0  0  2  0  0  0  0  0  0
  190.4000  175.5310  147.3060 C   0  0  0  0  0  2  0  0  0  0  0  0
  191.8460  175.2600  146.9220 C   0  0  0  0  0  2  0  0  0  0  0  0
  191.9490  174.0990  145.9420 C   0  0  0  0  0  2  0  0  0  0  0  0
  193.4000  173.6980  145.7080 C   0  0  0  0  0  2  0  0  0  0  0  0
  194.3350  174.8890  145.8800 C   0  0  0  0  0  2  0  0  0  0  0  0
  195.2040  175.0950  144.6430 C   0  0  0  0  0  3  0  0  0  0  0  0
  195.6080  176.5280  144.4930 C   0  0  0  0  0  0  0  0  0  0  0  0
  195.1040  177.3990  145.2470 O   0  0  0  0  0  1  0  0  0  0  0  0
  196.5350  176.9040  143.5270 O   0  0  0  0  0  0  0  0  0  0  0  0
  196.7680  173.5960  143.6550 O   0  0  0  0  0  0  0  0  0  0  0  0
  197.1330  174.0710  145.8670 O   0  0  0  0  0  1  0  0  0  0  0  0
  196.4040  174.2090  144.6920 C   0  0  0  0  0  0  0  0  0  0  0  0
  1 30  1  0  0  0  0
  1  2  1  0  0  0  0
  3  1  2  0  0  0  0
  4  2  2  0  0  0  0
  5  3  1  0  0  0  0
  5  6  2  0  0  0  0
  6  4  1  0  0  0  0
  7 11  1  1  0  0  0
  7 14  1  0  0  0  0
  8 23  1  0  0  0  0
  8 12  1  0  0  0  0
  9  3  1  0  0  0  0
 10 11  1  0  0  0  0
 10 18  1  0  0  0  0
 13 17  1  0  0  0  0
 13 23  1  0  0  0  0
 14 20  2  0  0  0  0
 15 22  1  0  0  0  0
 15  7  1  0  0  0  0
 16 19  1  0  0  0  0
 16 13  1  0  0  0  0
 17 12  1  0  0  0  0
 18 21  1  0  0  0  0
 19 22  1  0  0  0  0
 19  8  1  0  0  0  0
 20  9  2  0  0  0  0
 21  9  1  0  0  0  0
 22  7  1  0  0  0  0
 22  8  1  0  0  0  0
 23 12  1  0  0  0  0
 24 25  1  0  0  0  0
 25 15  1  0  0  0  0
 26 27  1  0  0  0  0
 26  6  1  0  0  0  0
 28 29  2  0  0  0  0
 29 26  1  0  0  0  0
 30 31  1  0  0  0  0
 32 31  1  0  0  0  0
 33 32  1  0  0  0  0
 34 35  1  0  0  0  0
 34 33  1  0  0  0  0
 36 42  1  0  0  0  0
 36 35  1  0  0  0  0
 37 36  1  0  0  0  0
 37 38  1  0  0  0  0
 39 37  2  0  0  0  0
 40 42  2  0  0  0  0
 42 41  1  0  0  0  0
M  END
>  <MODEL>
5

>  <REMARK>
 VINA RESULT:      -6.2      3.782      5.741
  Name = 
  13 active torsions:
  status: ('A' for Active; 'I' for Inactive)
    1  A    between atoms: C_1  and  C_18
    2  A    between atoms: C_1  and  C_21
    3  A    between atoms: C_3  and  C_5
    4  A    between atoms: C_3  and  C_16
    5  A    between atoms: C_3  and  C_34
    6  A    between atoms: C_6  and  N_24
    7  A    between atoms: C_8  and  C_23
    8  A    between atoms: C_15  and  C_29
    9  A    between atoms: C_16  and  C_41
   10  A    between atoms: C_18  and  C_41
   11  A    between atoms: C_21  and  N_24
   12  A    between atoms: N_25  and  C_31
   13  A    between atoms: C_31  and  C_38
                            x       y       z     vdW  Elec       q    Type
                         _______ _______ _______ _____ _____    ______ ____

>  <TORSDO>
F 13

$$$$
=
 OpenBabel11042413393D

 42 48  0  0  1  0  0  0  0  0999 V2000
  187.4900  175.7520  142.8730 C   0  0  0  0  0  0  0  0  0  0  0  0
  186.2480  176.4020  142.7740 C   0  0  0  0  0  3  0  0  0  0  0  0
  188.2930  175.9490  144.0230 C   0  0  0  0  0  0  0  0  0  0  0  0
  185.8080  177.2570  143.7860 C   0  0  0  0  0  3  0  0  0  0  0  0
  187.8370  176.8240  145.0250 C   0  0  0  0  0  3  0  0  0  0  0  0
  186.6100  177.4840  144.9100 C   0  0  0  0  0  0  0  0  0  0  0  0
  193.0700  175.2430  143.6890 C   0  0  1  0  0  0  0  0  0  0  0  0
  194.8490  174.8290  142.1020 C   0  0  1  0  0  0  0  0  0  0  0  0
  189.5850  175.2370  144.2190 C   0  0  0  0  0  0  0  0  0  0  0  0
  192.0680  173.2390  144.9260 C   0  0  0  0  0  2  0  0  0  0  0  0
  192.8470  173.7110  143.6990 C   0  0  0  0  0  2  0  0  0  0  0  0
  194.8160  175.7740  140.8490 C   0  0  1  0  0  3  0  0  0  0  0  0
  196.7320  176.1090  141.3290 C   0  0  2  0  0  3  0  0  0  0  0  0
  191.8910  176.1420  143.4220 C   0  0  0  0  0  3  0  0  0  0  0  0
  194.0720  175.6630  144.7040 C   0  0  1  0  0  3  0  0  0  0  0  0
  196.8840  176.0370  142.8320 C   0  0  0  0  0  2  0  0  0  0  0  0
  195.6240  176.9180  141.0350 O   0  0  0  0  0  0  0  0  0  0  0  0
  190.6100  172.9540  144.5790 C   0  0  0  0  0  2  0  0  0  0  0  0
  195.7360  175.1340  143.2890 C   0  0  1  0  0  3  0  0  0  0  0  0
  190.7070  175.7570  143.7980 C   0  0  0  0  0  0  0  0  0  0  0  0
  189.6840  174.0430  145.1300 C   0  0  0  0  0  2  0  0  0  0  0  0
  194.4240  175.8630  143.2140 C   0  0  1  0  0  0  0  0  0  0  0  0
  195.9540  174.8730  141.0440 C   0  0  1  0  0  3  0  0  0  0  0  0
  194.2180  176.9850  146.8000 C   0  0  0  0  0  1  0  0  0  0  0  0
  193.7940  177.0170  145.3470 C   0  0  0  0  0  2  0  0  0  0  0  0
  186.1590  178.3860  146.0250 C   0  0  1  0  0  3  0  0  0  0  0  0
  184.6410  178.5320  146.0650 C   0  0  0  0  0  1  0  0  0  0  0  0
  185.9980  177.3020  148.0520 O   0  0  0  0  0  0  0  0  0  0  0  0
  186.6720  177.9470  147.3050 N   0  0  0  0  0  0  0  0  0  0  0  0
  187.9520  174.9310  141.7950 N   0  0  0  0  0  2  0  0  0  0  0  0
  187.7870  173.4850  141.7540 C   0  0  0  0  0  2  0  0  0  0  0  0
  189.0530  172.8380  141.2170 C   0  0  0  0  0  2  0  0  0  0  0  0
  190.0850  173.8870  140.8240 C   0  0  0  0  0  2  0  0  0  0  0  0
  191.4010  173.2420  140.4100 C   0  0  0  0  0  2  0  0  0  0  0  0
  191.2950  171.7220  140.4130 C   0  0  0  0  0  2  0  0  0  0  0  0
  192.3900  171.0920  141.2690 C   0  0  0  0  0  3  0  0  0  0  0  0
  191.8250  170.0900  142.2260 C   0  0  0  0  0  0  0  0  0  0  0  0
  192.2900  170.0120  143.3920 O   0  0  0  0  0  1  0  0  0  0  0  0
  190.7920  169.2430  141.8380 O   0  0  0  0  0  0  0  0  0  0  0  0
  193.1390  170.0860  139.2460 O   0  0  0  0  0  0  0  0  0  0  0  0
  194.7390  170.3270  140.8670 O   0  0  0  0  0  1  0  0  0  0  0  0
  193.4370  170.4690  140.4070 C   0  0  0  0  0  0  0  0  0  0  0  0
  1  3  1  0  0  0  0
  2  1  2  0  0  0  0
  2  4  1  0  0  0  0
  3  9  1  0  0  0  0
  3  5  2  0  0  0  0
  4  6  2  0  0  0  0
  6  5  1  0  0  0  0
  6 26  1  0  0  0  0
  7 14  1  6  0  0  0
  7 11  1  0  0  0  0
  7 15  1  0  0  0  0
  8 22  1  0  0  0  0
  8 19  1  0  0  0  0
  9 21  1  0  0  0  0
 11 10  1  0  0  0  0
 12 17  1  0  0  0  0
 12 23  1  0  0  0  0
 12  8  1  0  0  0  0
 13 16  1  0  0  0  0
 14 20  2  0  0  0  0
 15 25  1  0  0  0  0
 16 19  1  0  0  0  0
 17 13  1  0  0  0  0
 18 10  1  0  0  0  0
 18 21  1  0  0  0  0
 20  9  2  0  0  0  0
 22 19  1  0  0  0  0
 22  7  1  0  0  0  0
 22 15  1  0  0  0  0
 23 13  1  0  0  0  0
 23  8  1  0  0  0  0
 25 24  1  0  0  0  0
 26 27  1  0  0  0  0
 26 29  1  0  0  0  0
 29 28  2  0  0  0  0
 30  1  1  0  0  0  0
 31 30  1  0  0  0  0
 32 31  1  0  0  0  0
 33 32  1  0  0  0  0
 34 35  1  0  0  0  0
 34 33  1  0  0  0  0
 35 36  1  0  0  0  0
 36 37  1  0  0  0  0
 37 38  1  0  0  0  0
 39 37  2  0  0  0  0
 40 42  2  0  0  0  0
 42 41  1  0  0  0  0
 42 36  1  0  0  0  0
M  END
>  <MODEL>
6

>  <REMARK>
 VINA RESULT:      -6.2      3.326      6.362
  Name = 
  13 active torsions:
  status: ('A' for Active; 'I' for Inactive)
    1  A    between atoms: C_1  and  C_18
    2  A    between atoms: C_1  and  C_21
    3  A    between atoms: C_3  and  C_5
    4  A    between atoms: C_3  and  C_16
    5  A    between atoms: C_3  and  C_34
    6  A    between atoms: C_6  and  N_24
    7  A    between atoms: C_8  and  C_23
    8  A    between atoms: C_15  and  C_29
    9  A    between atoms: C_16  and  C_41
   10  A    between atoms: C_18  and  C_41
   11  A    between atoms: C_21  and  N_24
   12  A    between atoms: N_25  and  C_31
   13  A    between atoms: C_31  and  C_38
                            x       y       z     vdW  Elec       q    Type
                         _______ _______ _______ _____ _____    ______ ____

>  <TORSDO>
F 13

$$$$
=
 OpenBabel11042413393D

 42 48  0  0  1  0  0  0  0  0999 V2000
  187.5550  175.7040  142.8790 C   0  0  0  0  0  0  0  0  0  0  0  0
  186.3170  176.3570  142.7640 C   0  0  0  0  0  3  0  0  0  0  0  0
  188.3430  175.8990  144.0400 C   0  0  0  0  0  0  0  0  0  0  0  0
  185.8640  177.2120  143.7700 C   0  0  0  0  0  3  0  0  0  0  0  0
  187.8770  176.7750  145.0360 C   0  0  0  0  0  3  0  0  0  0  0  0
  186.6520  177.4380  144.9050 C   0  0  0  0  0  0  0  0  0  0  0  0
  193.1210  175.1750  143.7530 C   0  0  1  0  0  0  0  0  0  0  0  0
  194.9120  174.7420  142.1850 C   0  0  1  0  0  0  0  0  0  0  0  0
  189.6310  175.1840  144.2520 C   0  0  0  0  0  0  0  0  0  0  0  0
  192.1010  173.1830  144.9960 C   0  0  0  0  0  2  0  0  0  0  0  0
  192.8930  173.6430  143.7730 C   0  0  0  0  0  2  0  0  0  0  0  0
  194.8930  175.6770  140.9240 C   0  0  1  0  0  3  0  0  0  0  0  0
  196.8070  176.0100  141.4180 C   0  0  2  0  0  3  0  0  0  0  0  0
  191.9470  176.0750  143.4690 C   0  0  0  0  0  3  0  0  0  0  0  0
  194.1160  175.5990  144.7730 C   0  0  1  0  0  3  0  0  0  0  0  0
  196.9450  175.9490  142.9230 C   0  0  0  0  0  2  0  0  0  0  0  0
  195.7040  176.8200  141.1080 O   0  0  0  0  0  0  0  0  0  0  0  0
  190.6450  172.9010  144.6390 C   0  0  0  0  0  2  0  0  0  0  0  0
  195.7900  175.0540  143.3770 C   0  0  1  0  0  3  0  0  0  0  0  0
  190.7590  175.6970  143.8380 C   0  0  0  0  0  0  0  0  0  0  0  0
  189.7190  173.9970  145.1730 C   0  0  0  0  0  2  0  0  0  0  0  0
  194.4810  175.7870  143.2850 C   0  0  1  0  0  0  0  0  0  0  0  0
  196.0270  174.7750  141.1360 C   0  0  1  0  0  3  0  0  0  0  0  0
  193.5930  176.7890  146.8880 C   0  0  0  0  0  1  0  0  0  0  0  0
  193.8370  176.9590  145.4030 C   0  0  0  0  0  2  0  0  0  0  0  0
  186.1890  178.3410  146.0140 C   0  0  1  0  0  3  0  0  0  0  0  0
  184.6680  178.4430  146.0710 C   0  0  0  0  0  1  0  0  0  0  0  0
  186.0870  177.2730  148.0540 O   0  0  0  0  0  0  0  0  0  0  0  0
  186.7300  177.9330  147.2930 N   0  0  0  0  0  0  0  0  0  0  0  0
  188.0290  174.8820  141.8070 N   0  0  0  0  0  2  0  0  0  0  0  0
  187.8450  173.4390  141.7550 C   0  0  0  0  0  2  0  0  0  0  0  0
  189.1360  172.7710  141.3100 C   0  0  0  0  0  2  0  0  0  0  0  0
  190.1350  173.7950  140.7870 C   0  0  0  0  0  2  0  0  0  0  0  0
  191.5310  173.1960  140.6670 C   0  0  0  0  0  2  0  0  0  0  0  0
  192.1020  173.4060  139.2700 C   0  0  0  0  0  2  0  0  0  0  0  0
  191.0160  173.2940  138.2050 C   0  0  0  0  0  3  0  0  0  0  0  0
  191.3160  174.1660  137.0260 C   0  0  0  0  0  0  0  0  0  0  0  0
  190.5020  174.2190  136.0680 O   0  0  0  0  0  0  0  0  0  0  0  0
  192.4860  174.9150  136.9800 O   0  0  0  0  0  1  0  0  0  0  0  0
  189.6910  171.4440  137.5040 O   0  0  0  0  0  0  0  0  0  0  0  0
  191.9380  171.0280  137.6720 O   0  0  0  0  0  1  0  0  0  0  0  0
  190.8410  171.8730  137.7810 C   0  0  0  0  0  0  0  0  0  0  0  0
  1  3  1  0  0  0  0
  2  1  2  0  0  0  0
  2  4  1  0  0  0  0
  3  9  1  0  0  0  0
  3  5  2  0  0  0  0
  4  6  2  0  0  0  0
  6  5  1  0  0  0  0
  6 26  1  0  0  0  0
  7 14  1  6  0  0  0
  7 11  1  0  0  0  0
  7 15  1  0  0  0  0
  8 22  1  0  0  0  0
  8 19  1  0  0  0  0
  9 21  1  0  0  0  0
 11 10  1  0  0  0  0
 12 17  1  0  0  0  0
 12 23  1  0  0  0  0
 12  8  1  0  0  0  0
 13 16  1  0  0  0  0
 14 20  2  0  0  0  0
 15 25  1  0  0  0  0
 16 19  1  0  0  0  0
 17 13  1  0  0  0  0
 18 10  1  0  0  0  0
 18 21  1  0  0  0  0
 20  9  2  0  0  0  0
 22 19  1  0  0  0  0
 22  7  1  0  0  0  0
 22 15  1  0  0  0  0
 23 13  1  0  0  0  0
 23  8  1  0  0  0  0
 25 24  1  0  0  0  0
 26 27  1  0  0  0  0
 26 29  1  0  0  0  0
 29 28  2  0  0  0  0
 30  1  1  0  0  0  0
 31 30  1  0  0  0  0
 32 31  1  0  0  0  0
 33 32  1  0  0  0  0
 34 33  1  0  0  0  0
 35 34  1  0  0  0  0
 36 35  1  0  0  0  0
 37 36  1  0  0  0  0
 38 37  2  0  0  0  0
 39 37  1  0  0  0  0
 40 42  2  0  0  0  0
 41 42  1  0  0  0  0
 42 36  1  0  0  0  0
M  END
>  <MODEL>
7

>  <REMARK>
 VINA RESULT:      -6.1      2.603      6.006
  Name = 
  13 active torsions:
  status: ('A' for Active; 'I' for Inactive)
    1  A    between atoms: C_1  and  C_18
    2  A    between atoms: C_1  and  C_21
    3  A    between atoms: C_3  and  C_5
    4  A    between atoms: C_3  and  C_16
    5  A    between atoms: C_3  and  C_34
    6  A    between atoms: C_6  and  N_24
    7  A    between atoms: C_8  and  C_23
    8  A    between atoms: C_15  and  C_29
    9  A    between atoms: C_16  and  C_41
   10  A    between atoms: C_18  and  C_41
   11  A    between atoms: C_21  and  N_24
   12  A    between atoms: N_25  and  C_31
   13  A    between atoms: C_31  and  C_38
                            x       y       z     vdW  Elec       q    Type
                         _______ _______ _______ _____ _____    ______ ____

>  <TORSDO>
F 13

$$$$
=
 OpenBabel11042413393D

 42 48  0  0  1  0  0  0  0  0999 V2000
  196.3290  172.2280  144.0190 C   0  0  0  0  0  0  0  0  0  0  0  0
  196.8740  170.9360  143.9390 C   0  0  0  0  0  3  0  0  0  0  0  0
  195.3240  172.5070  144.9780 C   0  0  0  0  0  0  0  0  0  0  0  0
  196.4200  169.9170  144.7790 C   0  0  0  0  0  3  0  0  0  0  0  0
  194.8710  171.4640  145.8060 C   0  0  0  0  0  3  0  0  0  0  0  0
  195.4030  170.1740  145.7060 C   0  0  0  0  0  0  0  0  0  0  0  0
  191.8700  175.8940  145.1470 C   0  0  1  0  0  0  0  0  0  0  0  0
  190.2740  177.0850  143.7740 C   0  0  1  0  0  0  0  0  0  0  0  0
  194.7570  173.8710  145.1580 C   0  0  0  0  0  0  0  0  0  0  0  0
  194.1060  177.0310  145.6550 C   0  0  0  0  0  2  0  0  0  0  0  0
  192.9000  176.9680  144.7190 C   0  0  0  0  0  2  0  0  0  0  0  0
  189.4350  176.1580  142.8240 C   0  0  1  0  0  3  0  0  0  0  0  0
  187.8720  177.1090  143.6410 C   0  0  2  0  0  3  0  0  0  0  0  0
  192.2260  174.4420  144.9630 C   0  0  0  0  0  3  0  0  0  0  0  0
  191.1230  176.2970  146.3670 C   0  0  1  0  0  3  0  0  0  0  0  0
  188.1990  177.4520  145.0770 C   0  0  0  0  0  2  0  0  0  0  0  0
  188.2140  175.7670  143.4170 O   0  0  0  0  0  0  0  0  0  0  0  0
  195.3170  176.3330  145.0430 C   0  0  0  0  0  2  0  0  0  0  0  0
  189.7270  177.5320  145.1130 C   0  0  1  0  0  3  0  0  0  0  0  0
  193.4720  174.0820  145.0530 C   0  0  0  0  0  0  0  0  0  0  0  0
  195.5890  174.9890  145.7260 C   0  0  0  0  0  2  0  0  0  0  0  0
  190.3330  176.1580  145.0490 C   0  0  1  0  0  0  0  0  0  0  0  0
  189.0930  177.5780  142.9320 C   0  0  1  0  0  3  0  0  0  0  0  0
  189.2830  174.8490  147.1910 C   0  0  0  0  0  1  0  0  0  0  0  0
  190.7640  175.1460  147.2990 C   0  0  0  0  0  2  0  0  0  0  0  0
  194.9010  169.1050  146.6360 C   0  0  1  0  0  3  0  0  0  0  0  0
  193.9120  168.1670  145.9480 C   0  0  0  0  0  1  0  0  0  0  0  0
  196.7550  168.8850  147.9880 O   0  0  0  0  0  0  0  0  0  0  0  0
  195.9920  168.3620  147.2300 N   0  0  0  0  0  0  0  0  0  0  0  0
  196.7630  173.2420  143.1050 N   0  0  0  0  0  2  0  0  0  0  0  0
  196.2690  173.3640  141.7410 C   0  0  0  0  0  2  0  0  0  0  0  0
  195.3510  174.5710  141.6340 C   0  0  0  0  0  2  0  0  0  0  0  0
  193.8870  174.1520  141.6160 C   0  0  0  0  0  2  0  0  0  0  0  0
  193.7340  172.6880  141.2290 C   0  0  0  0  0  2  0  0  0  0  0  0
  192.2710  172.3280  141.0010 C   0  0  0  0  0  2  0  0  0  0  0  0
  191.5490  172.0810  142.3220 C   0  0  0  0  0  3  0  0  0  0  0  0
  190.1560  172.6270  142.2930 C   0  0  0  0  0  0  0  0  0  0  0  0
  189.6760  173.0490  141.2100 O   0  0  0  0  0  0  0  0  0  0  0  0
  189.3890  172.6730  143.4520 O   0  0  0  0  0  1  0  0  0  0  0  0
  192.3090  170.1840  143.5430 O   0  0  0  0  0  1  0  0  0  0  0  0
  190.6750  169.7580  141.9940 O   0  0  0  0  0  0  0  0  0  0  0  0
  191.5400  170.6250  142.6510 C   0  0  0  0  0  0  0  0  0  0  0  0
  1  3  1  0  0  0  0
  2  1  2  0  0  0  0
  2  4  1  0  0  0  0
  3  9  1  0  0  0  0
  3  5  2  0  0  0  0
  4  6  2  0  0  0  0
  6  5  1  0  0  0  0
  6 26  1  0  0  0  0
  7 11  1  6  0  0  0
  7 15  1  0  0  0  0
  8 22  1  0  0  0  0
  8 19  1  0  0  0  0
  9 21  1  0  0  0  0
 11 10  1  0  0  0  0
 12 23  1  0  0  0  0
 12 17  1  0  0  0  0
 12  8  1  0  0  0  0
 13 16  1  0  0  0  0
 14 20  2  0  0  0  0
 14  7  1  0  0  0  0
 15 25  1  0  0  0  0
 16 19  1  0  0  0  0
 17 13  1  0  0  0  0
 18 10  1  0  0  0  0
 18 21  1  0  0  0  0
 20  9  2  0  0  0  0
 22 19  1  0  0  0  0
 22  7  1  0  0  0  0
 22 15  1  0  0  0  0
 23 13  1  0  0  0  0
 23  8  1  0  0  0  0
 24 25  1  0  0  0  0
 26 29  1  0  0  0  0
 27 26  1  0  0  0  0
 29 28  2  0  0  0  0
 30  1  1  0  0  0  0
 31 30  1  0  0  0  0
 32 31  1  0  0  0  0
 33 32  1  0  0  0  0
 34 33  1  0  0  0  0
 35 34  1  0  0  0  0
 35 36  1  0  0  0  0
 36 42  1  0  0  0  0
 37 36  1  0  0  0  0
 37 39  1  0  0  0  0
 38 37  2  0  0  0  0
 41 42  2  0  0  0  0
 42 40  1  0  0  0  0
M  END
>  <MODEL>
8

>  <REMARK>
 VINA RESULT:      -6.0      4.254      8.056
  Name = 
  13 active torsions:
  status: ('A' for Active; 'I' for Inactive)
    1  A    between atoms: C_1  and  C_18
    2  A    between atoms: C_1  and  C_21
    3  A    between atoms: C_3  and  C_5
    4  A    between atoms: C_3  and  C_16
    5  A    between atoms: C_3  and  C_34
    6  A    between atoms: C_6  and  N_24
    7  A    between atoms: C_8  and  C_23
    8  A    between atoms: C_15  and  C_29
    9  A    between atoms: C_16  and  C_41
   10  A    between atoms: C_18  and  C_41
   11  A    between atoms: C_21  and  N_24
   12  A    between atoms: N_25  and  C_31
   13  A    between atoms: C_31  and  C_38
                            x       y       z     vdW  Elec       q    Type
                         _______ _______ _______ _____ _____    ______ ____

>  <TORSDO>
F 13

$$$$
=
 OpenBabel11042413393D

 42 48  0  0  1  0  0  0  0  0999 V2000
  195.5600  173.5150  143.7480 C   0  0  0  0  0  0  0  0  0  0  0  0
  196.9260  173.5480  143.4220 C   0  0  0  0  0  3  0  0  0  0  0  0
  194.5990  173.3520  142.7200 C   0  0  0  0  0  0  0  0  0  0  0  0
  197.3460  173.4450  142.0940 C   0  0  0  0  0  3  0  0  0  0  0  0
  195.0410  173.2630  141.3880 C   0  0  0  0  0  3  0  0  0  0  0  0
  196.4010  173.3180  141.0690 C   0  0  0  0  0  0  0  0  0  0  0  0
  189.9340  174.6370  142.5870 C   0  0  1  0  0  0  0  0  0  0  0  0
  188.3840  176.3370  143.3340 C   0  0  1  0  0  0  0  0  0  0  0  0
  193.1430  173.2400  143.0080 C   0  0  0  0  0  0  0  0  0  0  0  0
  190.1130  172.4830  143.9570 C   0  0  0  0  0  2  0  0  0  0  0  0
  189.7040  173.9560  143.9570 C   0  0  0  0  0  2  0  0  0  0  0  0
  188.8820  177.8050  143.0880 C   0  0  1  0  0  3  0  0  0  0  0  0
  187.0910  178.0310  142.2160 C   0  0  2  0  0  3  0  0  0  0  0  0
  191.3480  174.9160  142.1480 C   0  0  0  0  0  3  0  0  0  0  0  0
  188.9480  174.1840  141.5700 C   0  0  1  0  0  3  0  0  0  0  0  0
  186.6920  176.7250  141.5670 C   0  0  0  0  0  2  0  0  0  0  0  0
  188.4170  178.3170  141.8560 O   0  0  0  0  0  0  0  0  0  0  0  0
  191.4640  172.2840  144.6370 C   0  0  0  0  0  2  0  0  0  0  0  0
  187.4460  175.6560  142.3610 C   0  0  1  0  0  3  0  0  0  0  0  0
  192.2970  174.1160  142.5350 C   0  0  0  0  0  0  0  0  0  0  0  0
  192.5640  171.9900  143.6130 C   0  0  0  0  0  2  0  0  0  0  0  0
  188.9070  175.6630  142.0080 C   0  0  1  0  0  0  0  0  0  0  0  0
  187.5170  177.5780  143.5690 C   0  0  1  0  0  3  0  0  0  0  0  0
  188.3540  173.9290  139.1740 C   0  0  0  0  0  1  0  0  0  0  0  0
  189.4980  174.0880  140.1520 C   0  0  0  0  0  2  0  0  0  0  0  0
  196.8190  173.1900  139.6310 C   0  0  1  0  0  3  0  0  0  0  0  0
  195.6650  172.7420  138.7380 C   0  0  0  0  0  1  0  0  0  0  0  0
  196.7890  175.4340  139.1070 O   0  0  0  0  0  0  0  0  0  0  0  0
  197.4110  174.4140  139.1370 N   0  0  0  0  0  0  0  0  0  0  0  0
  195.1490  173.6870  145.1090 N   0  0  0  0  0  2  0  0  0  0  0  0
  195.2990  174.9330  145.8460 C   0  0  0  0  0  2  0  0  0  0  0  0
  193.9290  175.5160  146.1560 C   0  0  0  0  0  2  0  0  0  0  0  0
  193.5500  176.5980  145.1530 C   0  0  0  0  0  2  0  0  0  0  0  0
  192.0390  176.7710  145.0700 C   0  0  0  0  0  2  0  0  0  0  0  0
  191.3300  175.9440  146.1360 C   0  0  0  0  0  2  0  0  0  0  0  0
  190.0940  176.6650  146.6660 C   0  0  0  0  0  3  0  0  0  0  0  0
  188.9960  175.7000  146.9880 C   0  0  0  0  0  0  0  0  0  0  0  0
  189.2830  174.5420  147.3850 O   0  0  0  0  0  1  0  0  0  0  0  0
  187.6640  176.0730  146.8500 O   0  0  0  0  0  0  0  0  0  0  0  0
  189.7030  178.4580  148.1820 O   0  0  0  0  0  0  0  0  0  0  0  0
  191.5570  177.1880  148.6290 O   0  0  0  0  0  1  0  0  0  0  0  0
  190.4400  177.4910  147.8600 C   0  0  0  0  0  0  0  0  0  0  0  0
  1 30  1  0  0  0  0
  2  1  1  0  0  0  0
  3  9  1  0  0  0  0
  3  1  2  0  0  0  0
  4  2  2  0  0  0  0
  5  3  1  0  0  0  0
  6  5  2  0  0  0  0
  6  4  1  0  0  0  0
  7 14  1  6  0  0  0
  7 11  1  0  0  0  0
  8 23  1  0  0  0  0
  9 21  1  0  0  0  0
 10 18  1  0  0  0  0
 11 10  1  0  0  0  0
 12  8  1  0  0  0  0
 12 23  1  0  0  0  0
 13 23  1  0  0  0  0
 14 20  2  0  0  0  0
 15 22  1  0  0  0  0
 15  7  1  0  0  0  0
 16 13  1  0  0  0  0
 16 19  1  0  0  0  0
 17 13  1  0  0  0  0
 17 12  1  0  0  0  0
 19  8  1  0  0  0  0
 20  9  2  0  0  0  0
 21 18  1  0  0  0  0
 22 19  1  0  0  0  0
 22  7  1  0  0  0  0
 22  8  1  0  0  0  0
 24 25  1  0  0  0  0
 25 15  1  0  0  0  0
 26  6  1  0  0  0  0
 27 26  1  0  0  0  0
 28 29  2  0  0  0  0
 29 26  1  0  0  0  0
 30 31  1  0  0  0  0
 31 32  1  0  0  0  0
 33 32  1  0  0  0  0
 34 33  1  0  0  0  0
 34 35  1  0  0  0  0
 35 36  1  0  0  0  0
 36 37  1  0  0  0  0
 36 42  1  0  0  0  0
 37 38  1  0  0  0  0
 39 37  2  0  0  0  0
 42 40  2  0  0  0  0
 42 41  1  0  0  0  0
M  END
>  <MODEL>
9

>  <REMARK>
 VINA RESULT:      -6.0      3.215      7.003
  Name = 
  13 active torsions:
  status: ('A' for Active; 'I' for Inactive)
    1  A    between atoms: C_1  and  C_18
    2  A    between atoms: C_1  and  C_21
    3  A    between atoms: C_3  and  C_5
    4  A    between atoms: C_3  and  C_16
    5  A    between atoms: C_3  and  C_34
    6  A    between atoms: C_6  and  N_24
    7  A    between atoms: C_8  and  C_23
    8  A    between atoms: C_15  and  C_29
    9  A    between atoms: C_16  and  C_41
   10  A    between atoms: C_18  and  C_41
   11  A    between atoms: C_21  and  N_24
   12  A    between atoms: N_25  and  C_31
   13  A    between atoms: C_31  and  C_38
                            x       y       z     vdW  Elec       q    Type
                         _______ _______ _______ _____ _____    ______ ____

>  <TORSDO>
F 13

$$$$
