=
 OpenBabel11042415343D

 47 52  0  0  1  0  0  0  0  0999 V2000
  189.9550  175.7500  142.4770 C   0  0  0  0  0  2  0  0  0  0  0  0
  188.8310  175.3010  143.4190 C   0  0  1  0  0  3  0  0  0  0  0  0
  196.9960  173.4750  142.7550 S   0  0  0  0  0  0  0  0  0  0  0  0
  197.7450  172.6130  141.4630 N   0  0  0  0  0  0  0  0  0  0  0  0
  193.4230  170.0450  140.4630 N   0  0  0  0  0  0  0  0  0  0  0  0
  195.1370  172.2650  144.4030 C   0  0  0  0  0  2  0  0  0  0  0  0
  197.2960  171.5300  140.9190 C   0  0  0  0  0  3  0  0  0  0  0  0
  194.9240  171.6600  141.2630 O   0  0  0  0  0  0  0  0  0  0  0  0
  192.0740  169.5610  140.1270 C   0  0  1  0  0  3  0  0  0  0  0  0
  191.8080  174.0910  142.7560 C   0  0  2  0  0  3  0  0  0  0  0  0
  192.4960  171.9700  141.5780 C   0  0  0  0  0  0  0  0  0  0  0  0
  195.7360  174.1260  142.2540 O   0  0  0  0  0  0  0  0  0  0  0  0
  196.6500  172.3860  144.1480 C   0  0  2  0  0  3  0  0  0  0  0  0
  196.8290  173.8110  146.1600 C   0  0  0  0  0  3  0  0  0  0  0  0
  196.0530  170.8040  141.3360 C   0  0  0  0  0  2  0  0  0  0  0  0
  195.5230  174.4560  145.7810 C   0  0  0  0  0  2  0  0  0  0  0  0
  194.5820  173.4380  145.1950 C   0  0  0  0  0  0  0  0  0  0  0  0
  191.2530  173.3950  144.0130 C   0  0  2  0  0  3  0  0  0  0  0  0
  190.6930  174.5800  141.8360 C   0  0  0  0  0  2  0  0  0  0  0  0
  190.5530  174.3050  144.8140 O   0  0  0  0  0  0  0  0  0  0  0  0
  191.0880  169.9710  141.2360 C   0  0  0  0  0  2  0  0  0  0  0  0
  189.2200  174.1860  144.4000 C   0  0  0  0  0  2  0  0  0  0  0  0
  191.2780  171.4130  141.6160 C   0  0  0  0  0  3  0  0  0  0  0  0
  192.7380  173.2730  142.0410 O   0  0  0  0  0  0  0  0  0  0  0  0
  193.6310  171.1780  141.0740 C   0  0  0  0  0  0  0  0  0  0  0  0
  193.3130  173.6170  145.3360 N   0  0  0  0  0  0  0  0  0  0  0  0
  197.3600  172.8460  145.3960 C   0  0  0  0  0  3  0  0  0  0  0  0
  197.9410  174.5590  143.1910 O   0  0  0  0  0  0  0  0  0  0  0  0
  192.3350  172.6840  144.8250 C   0  0  0  0  0  2  0  0  0  0  0  0
  189.8080  170.0460  137.1620 C   0  0  0  0  0  2  0  0  0  0  0  0
  190.2430  169.7160  138.6010 C   0  0  0  0  0  2  0  0  0  0  0  0
  191.6460  170.0950  138.8260 N   0  0  0  0  0  0  0  0  0  0  0  0
  192.4590  169.4770  137.7670 C   0  0  0  0  0  2  0  0  0  0  0  0
  191.9210  169.8490  136.3750 C   0  0  0  0  0  2  0  0  0  0  0  0
  190.8280  170.7330  136.4740 O   0  0  0  0  0  0  0  0  0  0  0  0
  188.9890  177.1970  144.8780 O   0  0  0  0  0  0  0  0  0  0  0  0
  185.6980  177.6840  144.1780 C   0  0  2  0  0  0  0  0  0  0  0  0
  188.2630  176.4830  144.1330 C   0  0  0  0  0  0  0  0  0  0  0  0
  186.9000  176.8360  143.9310 N   0  0  0  0  0  0  0  0  0  0  0  0
  185.5620  176.6330  143.2910 C   0  0  0  0  0  2  0  0  0  0  0  0
  185.8710  179.0650  143.6120 C   0  0  0  0  0  0  0  0  0  0  0  0
  185.1800  180.2280  144.2440 C   0  0  0  0  0  1  0  0  0  0  0  0
  186.5510  179.2380  142.6120 O   0  0  0  0  0  0  0  0  0  0  0  0
  185.1680  177.4970  145.6000 C   0  0  0  0  0  2  0  0  0  0  0  0
  185.5630  178.9300  147.5020 O   0  0  0  0  0  1  0  0  0  0  0  0
  186.6250  176.7870  147.5410 C   0  0  0  0  0  1  0  0  0  0  0  0
  186.1390  177.9490  146.6940 C   0  0  1  0  0  3  0  0  0  0  0  0
  1  2  1  0  0  0  0
  2 38  1  1  0  0  0
  2 22  1  0  0  0  0
  3 28  2  0  0  0  0
  3 13  1  0  0  0  0
  4  3  1  0  0  0  0
  5 25  2  0  0  0  0
  6 17  1  0  0  0  0
  7 15  1  0  0  0  0
  7  4  2  0  0  0  0
  8 15  1  0  0  0  0
  9 32  1  6  0  0  0
  9  5  1  0  0  0  0
  9 21  1  0  0  0  0
 10 19  1  6  0  0  0
 10 18  1  0  0  0  0
 11 23  2  0  0  0  0
 11 24  1  0  0  0  0
 12  3  2  0  0  0  0
 13  6  1  1  0  0  0
 13 27  1  0  0  0  0
 16 14  1  0  0  0  0
 17 26  2  0  0  0  0
 17 16  1  0  0  0  0
 18 20  1  0  0  0  0
 18 29  1  1  0  0  0
 19  1  1  0  0  0  0
 21 23  1  0  0  0  0
 22 20  1  0  0  0  0
 24 10  1  0  0  0  0
 25  8  1  0  0  0  0
 25 11  1  0  0  0  0
 27 14  2  0  0  0  0
 29 26  1  0  0  0  0
 30 31  1  0  0  0  0
 31 32  1  0  0  0  0
 33 32  1  0  0  0  0
 34 35  1  0  0  0  0
 34 33  1  0  0  0  0
 35 30  1  0  0  0  0
 37 44  1  1  0  0  0
 38 36  2  0  0  0  0
 39 38  1  0  0  0  0
 39 37  1  0  0  0  0
 40 39  1  0  0  0  0
 40 37  1  0  0  0  0
 41 37  1  0  0  0  0
 41 42  1  0  0  0  0
 43 41  2  0  0  0  0
 44 47  1  0  0  0  0
 47 45  1  0  0  0  0
 47 46  1  1  0  0  0
M  END
>  <MODEL>
1

>  <REMARK>
 VINA RESULT:      -8.1      0.000      0.000
  Name = 
  5 active torsions:
  status: ('A' for Active; 'I' for Inactive)
    1  A    between atoms: C_4  and  C_18
    2  A    between atoms: C_5  and  C_11
    3  A    between atoms: C_11  and  C_36
    4  A    between atoms: C_16  and  N_29
    5  A    between atoms: C_36  and  C_47
                            x       y       z     vdW  Elec       q    Type
                         _______ _______ _______ _____ _____    ______ ____

>  <TORSDO>
F 5

$$$$
=
 OpenBabel11042415343D

 47 52  0  0  1  0  0  0  0  0999 V2000
  189.3330  174.0310  143.9440 C   0  0  0  0  0  2  0  0  0  0  0  0
  189.1940  175.5400  143.7110 C   0  0  1  0  0  3  0  0  0  0  0  0
  191.8010  169.1030  138.9990 S   0  0  0  0  0  0  0  0  0  0  0  0
  193.2260  168.1670  139.2520 N   0  0  0  0  0  0  0  0  0  0  0  0
  195.5880  172.0970  141.5430 N   0  0  0  0  0  0  0  0  0  0  0  0
  191.9380  171.7930  138.3830 C   0  0  0  0  0  2  0  0  0  0  0  0
  194.3950  168.6360  139.5390 C   0  0  0  0  0  3  0  0  0  0  0  0
  193.9200  170.7070  140.6560 O   0  0  0  0  0  0  0  0  0  0  0  0
  196.0570  173.2090  142.3850 C   0  0  1  0  0  3  0  0  0  0  0  0
  190.8190  173.1740  142.1210 C   0  0  2  0  0  3  0  0  0  0  0  0
  193.2950  172.7520  141.8880 C   0  0  0  0  0  0  0  0  0  0  0  0
  191.3550  169.6950  140.3070 O   0  0  0  0  0  0  0  0  0  0  0  0
  192.0790  170.3890  137.7690 C   0  0  2  0  0  3  0  0  0  0  0  0
  189.8990  170.7130  136.6470 C   0  0  0  0  0  3  0  0  0  0  0  0
  194.7340  170.0890  139.6720 C   0  0  0  0  0  2  0  0  0  0  0  0
  189.3990  171.4020  137.8880 C   0  0  0  0  0  2  0  0  0  0  0  0
  190.4880  172.2360  138.5050 C   0  0  0  0  0  0  0  0  0  0  0  0
  190.7980  174.4420  141.2470 C   0  0  2  0  0  3  0  0  0  0  0  0
  190.7250  173.5060  143.6080 C   0  0  0  0  0  2  0  0  0  0  0  0
  189.5640  175.0950  141.3520 O   0  0  0  0  0  0  0  0  0  0  0  0
  195.0950  174.4030  142.2450 C   0  0  0  0  0  2  0  0  0  0  0  0
  189.7490  176.0390  142.3700 C   0  0  0  0  0  2  0  0  0  0  0  0
  193.6640  173.9530  142.3510 C   0  0  0  0  0  3  0  0  0  0  0  0
  191.9520  172.3430  141.8550 O   0  0  0  0  0  0  0  0  0  0  0  0
  194.3230  171.8400  141.3570 C   0  0  0  0  0  0  0  0  0  0  0  0
  190.1590  173.2890  139.1730 N   0  0  0  0  0  0  0  0  0  0  0  0
  191.1500  170.2350  136.5910 C   0  0  0  0  0  3  0  0  0  0  0  0
  190.7220  168.1740  138.5150 O   0  0  0  0  0  0  0  0  0  0  0  0
  191.1350  174.1610  139.7830 C   0  0  0  0  0  2  0  0  0  0  0  0
  197.0350  173.4470  146.0110 C   0  0  0  0  0  2  0  0  0  0  0  0
  196.6900  173.9020  144.5820 C   0  0  0  0  0  2  0  0  0  0  0  0
  196.1590  172.7830  143.7880 N   0  0  0  0  0  0  0  0  0  0  0  0
  197.1140  171.6680  143.8790 C   0  0  0  0  0  2  0  0  0  0  0  0
  197.4080  171.3150  145.3470 C   0  0  0  0  0  2  0  0  0  0  0  0
  196.6410  172.1110  146.2220 O   0  0  0  0  0  0  0  0  0  0  0  0
  186.8370  175.3430  143.3130 O   0  0  0  0  0  0  0  0  0  0  0  0
  186.5170  177.9460  145.4770 C   0  0  2  0  0  0  0  0  0  0  0  0
  187.7710  175.9540  143.9010 C   0  0  0  0  0  0  0  0  0  0  0  0
  187.4650  177.0200  144.7930 N   0  0  0  0  0  0  0  0  0  0  0  0
  187.8590  178.0740  145.7800 C   0  0  0  0  0  2  0  0  0  0  0  0
  185.6410  177.2170  146.4550 C   0  0  0  0  0  0  0  0  0  0  0  0
  186.2480  176.4600  147.5900 C   0  0  0  0  0  1  0  0  0  0  0  0
  184.4280  177.2110  146.3060 O   0  0  0  0  0  0  0  0  0  0  0  0
  185.9060  178.9430  144.4910 C   0  0  0  0  0  2  0  0  0  0  0  0
  183.8140  178.6840  143.3140 O   0  0  0  0  0  1  0  0  0  0  0  0
  185.8030  178.5890  141.9890 C   0  0  0  0  0  1  0  0  0  0  0  0
  185.1530  178.2910  143.3290 C   0  0  1  0  0  3  0  0  0  0  0  0
  2 38  1  6  0  0  0
  2  1  1  0  0  0  0
  3  4  1  0  0  0  0
  3 12  2  0  0  0  0
  4  7  2  0  0  0  0
  5  9  1  0  0  0  0
  6 17  1  0  0  0  0
  7 15  1  0  0  0  0
  8 25  1  0  0  0  0
  9 21  1  1  0  0  0
  9 32  1  0  0  0  0
 10 19  1  1  0  0  0
 11 23  2  0  0  0  0
 13 27  1  6  0  0  0
 13  6  1  0  0  0  0
 13  3  1  0  0  0  0
 14 16  1  0  0  0  0
 15  8  1  0  0  0  0
 16 17  1  0  0  0  0
 17 26  2  0  0  0  0
 18 29  1  6  0  0  0
 18 20  1  0  0  0  0
 18 10  1  0  0  0  0
 19  1  1  0  0  0  0
 20 22  1  0  0  0  0
 21 23  1  0  0  0  0
 22  2  1  0  0  0  0
 24 11  1  0  0  0  0
 24 10  1  0  0  0  0
 25  5  2  0  0  0  0
 25 11  1  0  0  0  0
 26 29  1  0  0  0  0
 27 14  2  0  0  0  0
 28  3  2  0  0  0  0
 30 35  1  0  0  0  0
 31 30  1  0  0  0  0
 32 33  1  0  0  0  0
 32 31  1  0  0  0  0
 33 34  1  0  0  0  0
 34 35  1  0  0  0  0
 36 38  2  0  0  0  0
 37 44  1  6  0  0  0
 37 40  1  0  0  0  0
 37 41  1  0  0  0  0
 38 39  1  0  0  0  0
 39 37  1  0  0  0  0
 39 40  1  0  0  0  0
 41 42  1  0  0  0  0
 43 41  2  0  0  0  0
 45 47  1  0  0  0  0
 47 46  1  6  0  0  0
 47 44  1  0  0  0  0
M  END
>  <MODEL>
2

>  <REMARK>
 VINA RESULT:      -6.8      2.309      6.220
  Name = 
  5 active torsions:
  status: ('A' for Active; 'I' for Inactive)
    1  A    between atoms: C_4  and  C_18
    2  A    between atoms: C_5  and  C_11
    3  A    between atoms: C_11  and  C_36
    4  A    between atoms: C_16  and  N_29
    5  A    between atoms: C_36  and  C_47
                            x       y       z     vdW  Elec       q    Type
                         _______ _______ _______ _____ _____    ______ ____

>  <TORSDO>
F 5

$$$$
=
 OpenBabel11042415343D

 47 52  0  0  1  0  0  0  0  0999 V2000
  191.2230  174.2870  143.2740 C   0  0  0  0  0  2  0  0  0  0  0  0
  191.3710  175.6000  144.0510 C   0  0  1  0  0  3  0  0  0  0  0  0
  195.5690  172.0330  137.7200 S   0  0  0  0  0  0  0  0  0  0  0  0
  196.5230  170.6000  137.8100 N   0  0  0  0  0  0  0  0  0  0  0  0
  197.5550  171.4120  142.7640 N   0  0  0  0  0  0  0  0  0  0  0  0
  196.2650  174.3140  139.1170 C   0  0  0  0  0  2  0  0  0  0  0  0
  197.3720  170.3170  138.7410 C   0  0  0  0  0  3  0  0  0  0  0  0
  196.5440  171.5130  140.6500 O   0  0  0  0  0  0  0  0  0  0  0  0
  197.5740  171.6270  144.2200 C   0  0  1  0  0  3  0  0  0  0  0  0
  193.3870  173.9370  142.0670 C   0  0  2  0  0  3  0  0  0  0  0  0
  195.5250  172.6950  142.5630 C   0  0  0  0  0  0  0  0  0  0  0  0
  194.5270  172.0060  138.8030 O   0  0  0  0  0  0  0  0  0  0  0  0
  196.5970  173.5070  137.8490 C   0  0  2  0  0  3  0  0  0  0  0  0
  195.4460  175.2340  136.5040 C   0  0  0  0  0  3  0  0  0  0  0  0
  197.7090  171.2030  139.9020 C   0  0  0  0  0  2  0  0  0  0  0  0
  194.4050  175.3370  137.5860 C   0  0  0  0  0  2  0  0  0  0  0  0
  195.0380  175.1960  138.9440 C   0  0  0  0  0  0  0  0  0  0  0  0
  193.9680  175.3430  142.3070 C   0  0  2  0  0  3  0  0  0  0  0  0
  192.5130  173.4760  143.2300 C   0  0  0  0  0  2  0  0  0  0  0  0
  192.9470  176.3010  142.3410 O   0  0  0  0  0  0  0  0  0  0  0  0
  196.9630  173.0020  144.5470 C   0  0  0  0  0  2  0  0  0  0  0  0
  192.6200  176.4210  143.6980 C   0  0  0  0  0  2  0  0  0  0  0  0
  195.6810  173.2110  143.7890 C   0  0  0  0  0  3  0  0  0  0  0  0
  194.3970  172.9680  141.7740 O   0  0  0  0  0  0  0  0  0  0  0  0
  196.5890  171.8440  142.0020 C   0  0  0  0  0  0  0  0  0  0  0  0
  194.4890  175.7910  139.9470 N   0  0  0  0  0  0  0  0  0  0  0  0
  196.4700  174.3760  136.6230 C   0  0  0  0  0  3  0  0  0  0  0  0
  194.8630  172.0310  136.3920 O   0  0  0  0  0  0  0  0  0  0  0  0
  195.0340  175.7280  141.2830 C   0  0  0  0  0  2  0  0  0  0  0  0
  196.2840  169.6430  147.1460 C   0  0  0  0  0  2  0  0  0  0  0  0
  196.8330  170.8410  146.3510 C   0  0  0  0  0  2  0  0  0  0  0  0
  196.8420  170.5540  144.9080 N   0  0  0  0  0  0  0  0  0  0  0  0
  197.5530  169.2840  144.7010 C   0  0  0  0  0  2  0  0  0  0  0  0
  196.9400  168.1660  145.5620 C   0  0  0  0  0  2  0  0  0  0  0  0
  195.8210  168.6340  146.2780 O   0  0  0  0  0  0  0  0  0  0  0  0
  189.9630  177.4630  144.5980 O   0  0  0  0  0  0  0  0  0  0  0  0
  187.8260  176.1960  142.2780 C   0  0  2  0  0  0  0  0  0  0  0  0
  190.1260  176.4150  143.9150 C   0  0  0  0  0  0  0  0  0  0  0  0
  189.1360  176.0280  142.9690 N   0  0  0  0  0  0  0  0  0  0  0  0
  188.6170  175.1320  141.8890 C   0  0  0  0  0  2  0  0  0  0  0  0
  187.8130  177.4190  141.4060 C   0  0  0  0  0  0  0  0  0  0  0  0
  186.8740  177.5070  140.2490 C   0  0  0  0  0  1  0  0  0  0  0  0
  188.5950  178.3330  141.6190 O   0  0  0  0  0  0  0  0  0  0  0  0
  186.6580  175.9140  143.2240 C   0  0  0  0  0  2  0  0  0  0  0  0
  184.9580  177.5790  143.6310 O   0  0  0  0  0  1  0  0  0  0  0  0
  186.2000  176.8320  145.5350 C   0  0  0  0  0  1  0  0  0  0  0  0
  186.2120  177.1260  144.0450 C   0  0  1  0  0  3  0  0  0  0  0  0
  1  2  1  0  0  0  0
  2 38  1  6  0  0  0
  3  4  1  0  0  0  0
  3 13  1  0  0  0  0
  3 12  2  0  0  0  0
  4  7  2  0  0  0  0
  5  9  1  0  0  0  0
  7 15  1  0  0  0  0
  8 25  1  0  0  0  0
  9 21  1  6  0  0  0
  9 32  1  0  0  0  0
 10 18  1  0  0  0  0
 10 19  1  1  0  0  0
 11 23  2  0  0  0  0
 13 27  1  6  0  0  0
 13  6  1  0  0  0  0
 14 27  2  0  0  0  0
 14 16  1  0  0  0  0
 15  8  1  0  0  0  0
 16 17  1  0  0  0  0
 17  6  1  0  0  0  0
 17 26  2  0  0  0  0
 18 29  1  6  0  0  0
 18 20  1  0  0  0  0
 19  1  1  0  0  0  0
 20 22  1  0  0  0  0
 22  2  1  0  0  0  0
 23 21  1  0  0  0  0
 24 10  1  0  0  0  0
 24 11  1  0  0  0  0
 25 11  1  0  0  0  0
 25  5  2  0  0  0  0
 26 29  1  0  0  0  0
 28  3  2  0  0  0  0
 31 30  1  0  0  0  0
 32 31  1  0  0  0  0
 33 32  1  0  0  0  0
 33 34  1  0  0  0  0
 34 35  1  0  0  0  0
 35 30  1  0  0  0  0
 37 39  1  0  0  0  0
 37 44  1  1  0  0  0
 38 36  2  0  0  0  0
 39 38  1  0  0  0  0
 40 37  1  0  0  0  0
 40 39  1  0  0  0  0
 41 43  2  0  0  0  0
 41 37  1  0  0  0  0
 42 41  1  0  0  0  0
 44 47  1  0  0  0  0
 45 47  1  0  0  0  0
 47 46  1  1  0  0  0
M  END
>  <MODEL>
3

>  <REMARK>
 VINA RESULT:      -6.7      3.137      5.761
  Name = 
  5 active torsions:
  status: ('A' for Active; 'I' for Inactive)
    1  A    between atoms: C_4  and  C_18
    2  A    between atoms: C_5  and  C_11
    3  A    between atoms: C_11  and  C_36
    4  A    between atoms: C_16  and  N_29
    5  A    between atoms: C_36  and  C_47
                            x       y       z     vdW  Elec       q    Type
                         _______ _______ _______ _____ _____    ______ ____

>  <TORSDO>
F 5

$$$$
=
 OpenBabel11042415343D

 47 52  0  0  1  0  0  0  0  0999 V2000
  189.6180  174.8160  141.4830 C   0  0  0  0  0  2  0  0  0  0  0  0
  188.4840  174.1340  142.2570 C   0  0  1  0  0  3  0  0  0  0  0  0
  196.8580  173.9860  142.7950 S   0  0  0  0  0  0  0  0  0  0  0  0
  197.9410  173.3160  141.6340 N   0  0  0  0  0  0  0  0  0  0  0  0
  194.4100  169.9580  140.0460 N   0  0  0  0  0  0  0  0  0  0  0  0
  195.0620  172.3980  144.1700 C   0  0  0  0  0  2  0  0  0  0  0  0
  197.8010  172.1770  141.0410 C   0  0  0  0  0  3  0  0  0  0  0  0
  195.4270  171.8240  141.0380 O   0  0  0  0  0  0  0  0  0  0  0  0
  193.2470  169.2220  139.5240 C   0  0  1  0  0  3  0  0  0  0  0  0
  191.7060  173.5560  142.0430 C   0  0  2  0  0  3  0  0  0  0  0  0
  192.9660  171.6370  140.9970 C   0  0  0  0  0  0  0  0  0  0  0  0
  195.5790  174.3830  142.1120 O   0  0  0  0  0  0  0  0  0  0  0  0
  196.5410  172.8240  144.1350 C   0  0  2  0  0  3  0  0  0  0  0  0
  196.1410  174.2170  146.1380 C   0  0  0  0  0  3  0  0  0  0  0  0
  196.6820  171.2100  141.2820 C   0  0  0  0  0  2  0  0  0  0  0  0
  194.8010  174.5950  145.5680 C   0  0  0  0  0  2  0  0  0  0  0  0
  194.1760  173.4220  144.8620 C   0  0  0  0  0  0  0  0  0  0  0  0
  191.1280  172.7380  143.2130 C   0  0  2  0  0  3  0  0  0  0  0  0
  190.6590  173.8300  140.9670 C   0  0  0  0  0  2  0  0  0  0  0  0
  190.1520  173.4750  143.8950 O   0  0  0  0  0  0  0  0  0  0  0  0
  192.0500  169.4050  140.4750 C   0  0  0  0  0  2  0  0  0  0  0  0
  188.9430  173.1000  143.2950 C   0  0  0  0  0  2  0  0  0  0  0  0
  191.8920  170.8490  140.8640 C   0  0  0  0  0  3  0  0  0  0  0  0
  192.8730  172.9530  141.4770 O   0  0  0  0  0  0  0  0  0  0  0  0
  194.2970  171.0980  140.6700 C   0  0  0  0  0  0  0  0  0  0  0  0
  192.8900  173.3400  144.8170 N   0  0  0  0  0  0  0  0  0  0  0  0
  196.9580  173.3920  145.4680 C   0  0  0  0  0  3  0  0  0  0  0  0
  197.4950  175.2290  143.3530 O   0  0  0  0  0  0  0  0  0  0  0  0
  192.2020  172.2420  144.1800 C   0  0  0  0  0  2  0  0  0  0  0  0
  191.7690  169.0300  136.0680 C   0  0  0  0  0  2  0  0  0  0  0  0
  191.9770  168.7250  137.5620 C   0  0  0  0  0  2  0  0  0  0  0  0
  192.9120  169.6840  138.1690 N   0  0  0  0  0  0  0  0  0  0  0  0
  194.1370  169.7020  137.3550 C   0  0  0  0  0  2  0  0  0  0  0  0
  193.8110  169.9870  135.8790 C   0  0  0  0  0  2  0  0  0  0  0  0
  192.4320  170.2170  135.7000 O   0  0  0  0  0  0  0  0  0  0  0  0
  186.3400  175.0770  142.7740 O   0  0  0  0  0  0  0  0  0  0  0  0
  188.0840  177.4870  144.4190 C   0  0  2  0  0  0  0  0  0  0  0  0
  187.5950  175.1660  142.8700 C   0  0  0  0  0  0  0  0  0  0  0  0
  188.1700  176.2350  143.6130 N   0  0  0  0  0  0  0  0  0  0  0  0
  189.3420  176.9620  144.1920 C   0  0  0  0  0  2  0  0  0  0  0  0
  187.4490  177.2390  145.7570 C   0  0  0  0  0  0  0  0  0  0  0  0
  186.0290  176.7850  145.8430 C   0  0  0  0  0  1  0  0  0  0  0  0
  188.0800  177.4430  146.7830 O   0  0  0  0  0  0  0  0  0  0  0  0
  187.6350  178.6700  143.5610 C   0  0  0  0  0  2  0  0  0  0  0  0
  185.4940  179.7860  143.5640 O   0  0  0  0  0  1  0  0  0  0  0  0
  185.9780  178.4100  141.6680 C   0  0  0  0  0  1  0  0  0  0  0  0
  186.1580  178.6270  143.1600 C   0  0  1  0  0  3  0  0  0  0  0  0
  1  2  1  0  0  0  0
  2 38  1  1  0  0  0
  2 22  1  0  0  0  0
  3 28  2  0  0  0  0
  3 13  1  0  0  0  0
  4  3  1  0  0  0  0
  5 25  2  0  0  0  0
  6 17  1  0  0  0  0
  7 15  1  0  0  0  0
  7  4  2  0  0  0  0
  8 15  1  0  0  0  0
  9 32  1  6  0  0  0
  9  5  1  0  0  0  0
  9 21  1  0  0  0  0
 10 19  1  6  0  0  0
 10 18  1  0  0  0  0
 11 24  1  0  0  0  0
 12  3  2  0  0  0  0
 13  6  1  1  0  0  0
 13 27  1  0  0  0  0
 16 14  1  0  0  0  0
 17 16  1  0  0  0  0
 18 20  1  0  0  0  0
 18 29  1  1  0  0  0
 19  1  1  0  0  0  0
 21 23  1  0  0  0  0
 22 20  1  0  0  0  0
 23 11  2  0  0  0  0
 24 10  1  0  0  0  0
 25 11  1  0  0  0  0
 25  8  1  0  0  0  0
 26 17  2  0  0  0  0
 27 14  2  0  0  0  0
 29 26  1  0  0  0  0
 30 31  1  0  0  0  0
 31 32  1  0  0  0  0
 33 32  1  0  0  0  0
 34 33  1  0  0  0  0
 35 34  1  0  0  0  0
 35 30  1  0  0  0  0
 36 38  2  0  0  0  0
 37 44  1  6  0  0  0
 37 41  1  0  0  0  0
 38 39  1  0  0  0  0
 39 40  1  0  0  0  0
 39 37  1  0  0  0  0
 40 37  1  0  0  0  0
 41 42  1  0  0  0  0
 41 43  2  0  0  0  0
 47 46  1  6  0  0  0
 47 44  1  0  0  0  0
 47 45  1  0  0  0  0
M  END
>  <MODEL>
4

>  <REMARK>
 VINA RESULT:      -6.6      1.304      2.163
  Name = 
  5 active torsions:
  status: ('A' for Active; 'I' for Inactive)
    1  A    between atoms: C_4  and  C_18
    2  A    between atoms: C_5  and  C_11
    3  A    between atoms: C_11  and  C_36
    4  A    between atoms: C_16  and  N_29
    5  A    between atoms: C_36  and  C_47
                            x       y       z     vdW  Elec       q    Type
                         _______ _______ _______ _____ _____    ______ ____

>  <TORSDO>
F 5

$$$$
=
 OpenBabel11042415343D

 47 52  0  0  1  0  0  0  0  0999 V2000
  190.6610  175.4400  142.1800 C   0  0  0  0  0  2  0  0  0  0  0  0
  189.3550  175.1800  142.9390 C   0  0  1  0  0  3  0  0  0  0  0  0
  196.8110  171.3400  142.6220 S   0  0  0  0  0  0  0  0  0  0  0  0
  197.4690  170.5040  141.2650 N   0  0  0  0  0  0  0  0  0  0  0  0
  192.7930  169.3650  139.5010 N   0  0  0  0  0  0  0  0  0  0  0  0
  194.5210  170.4500  143.8870 C   0  0  0  0  0  2  0  0  0  0  0  0
  196.8310  169.6720  140.5100 C   0  0  0  0  0  3  0  0  0  0  0  0
  194.5450  170.3840  140.6820 O   0  0  0  0  0  0  0  0  0  0  0  0
  191.4170  169.3160  138.9820 C   0  0  1  0  0  3  0  0  0  0  0  0
  191.9870  173.3220  142.3170 C   0  0  2  0  0  3  0  0  0  0  0  0
  192.2540  171.2870  140.8520 C   0  0  0  0  0  0  0  0  0  0  0  0
  195.8270  172.3710  142.1410 O   0  0  0  0  0  0  0  0  0  0  0  0
  196.0350  170.1960  143.7760 C   0  0  2  0  0  3  0  0  0  0  0  0
  196.3220  171.2150  146.0100 C   0  0  0  0  0  3  0  0  0  0  0  0
  195.4040  169.2550  140.6970 C   0  0  0  0  0  2  0  0  0  0  0  0
  195.2780  172.2350  145.6450 C   0  0  0  0  0  2  0  0  0  0  0  0
  194.1880  171.6030  144.8210 C   0  0  0  0  0  0  0  0  0  0  0  0
  191.1260  172.6270  143.3890 C   0  0  2  0  0  3  0  0  0  0  0  0
  191.1520  174.2210  141.4090 C   0  0  0  0  0  2  0  0  0  0  0  0
  190.5860  173.5670  144.2750 O   0  0  0  0  0  0  0  0  0  0  0  0
  190.4380  169.8110  140.0630 C   0  0  0  0  0  2  0  0  0  0  0  0
  189.3260  173.8720  143.7430 C   0  0  0  0  0  2  0  0  0  0  0  0
  190.9400  171.0790  140.6970 C   0  0  0  0  0  3  0  0  0  0  0  0
  192.7590  172.3960  141.5480 O   0  0  0  0  0  0  0  0  0  0  0  0
  193.2050  170.3000  140.3120 C   0  0  0  0  0  0  0  0  0  0  0  0
  192.9980  172.0940  144.8890 N   0  0  0  0  0  0  0  0  0  0  0  0
  196.6800  170.2630  145.1370 C   0  0  0  0  0  3  0  0  0  0  0  0
  197.9390  172.0550  143.3110 O   0  0  0  0  0  0  0  0  0  0  0  0
  191.8850  171.5430  144.1510 C   0  0  0  0  0  2  0  0  0  0  0  0
  189.7120  170.8520  135.9990 C   0  0  0  0  0  2  0  0  0  0  0  0
  189.8780  170.2120  137.3890 C   0  0  0  0  0  2  0  0  0  0  0  0
  191.2990  170.1260  137.7610 N   0  0  0  0  0  0  0  0  0  0  0  0
  192.0140  169.4500  136.6690 C   0  0  0  0  0  2  0  0  0  0  0  0
  191.7560  170.1520  135.3260 C   0  0  0  0  0  2  0  0  0  0  0  0
  190.9520  171.2960  135.4990 O   0  0  0  0  0  0  0  0  0  0  0  0
  188.9090  177.5080  143.2980 O   0  0  0  0  0  0  0  0  0  0  0  0
  188.4580  176.6540  146.5570 C   0  0  2  0  0  0  0  0  0  0  0  0
  189.0220  176.3560  143.7970 C   0  0  0  0  0  0  0  0  0  0  0  0
  188.7830  176.1640  145.1870 N   0  0  0  0  0  0  0  0  0  0  0  0
  188.6590  175.2970  146.4010 C   0  0  0  0  0  2  0  0  0  0  0  0
  187.0440  177.1520  146.6450 C   0  0  0  0  0  0  0  0  0  0  0  0
  186.6610  178.1470  147.6900 C   0  0  0  0  0  1  0  0  0  0  0  0
  186.1920  176.7180  145.8840 O   0  0  0  0  0  0  0  0  0  0  0  0
  189.6030  177.4880  147.1350 C   0  0  0  0  0  2  0  0  0  0  0  0
  191.7610  176.7170  146.3750 O   0  0  0  0  0  1  0  0  0  0  0  0
  191.5490  177.1590  148.7160 C   0  0  0  0  0  1  0  0  0  0  0  0
  190.8670  176.6820  147.4470 C   0  0  1  0  0  3  0  0  0  0  0  0
  1  2  1  0  0  0  0
  2 22  1  0  0  0  0
  2 38  1  1  0  0  0
  3 28  2  0  0  0  0
  3 13  1  0  0  0  0
  4  3  1  0  0  0  0
  5 25  2  0  0  0  0
  6 17  1  0  0  0  0
  7 15  1  0  0  0  0
  7  4  2  0  0  0  0
  8 15  1  0  0  0  0
  9 32  1  6  0  0  0
  9  5  1  0  0  0  0
  9 21  1  0  0  0  0
 10 19  1  6  0  0  0
 10 18  1  0  0  0  0
 11 24  1  0  0  0  0
 12  3  2  0  0  0  0
 13  6  1  1  0  0  0
 13 27  1  0  0  0  0
 16 14  1  0  0  0  0
 17 26  2  0  0  0  0
 17 16  1  0  0  0  0
 18 29  1  1  0  0  0
 18 20  1  0  0  0  0
 19  1  1  0  0  0  0
 21 23  1  0  0  0  0
 22 20  1  0  0  0  0
 23 11  2  0  0  0  0
 24 10  1  0  0  0  0
 25  8  1  0  0  0  0
 25 11  1  0  0  0  0
 27 14  2  0  0  0  0
 29 26  1  0  0  0  0
 30 31  1  0  0  0  0
 31 32  1  0  0  0  0
 33 32  1  0  0  0  0
 34 35  1  0  0  0  0
 34 33  1  0  0  0  0
 35 30  1  0  0  0  0
 36 38  2  0  0  0  0
 37 41  1  0  0  0  0
 37 44  1  1  0  0  0
 38 39  1  0  0  0  0
 39 40  1  0  0  0  0
 39 37  1  0  0  0  0
 40 37  1  0  0  0  0
 41 42  1  0  0  0  0
 43 41  2  0  0  0  0
 44 47  1  0  0  0  0
 45 47  1  0  0  0  0
 47 46  1  1  0  0  0
M  END
>  <MODEL>
5

>  <REMARK>
 VINA RESULT:      -6.6      1.873      2.524
  Name = 
  5 active torsions:
  status: ('A' for Active; 'I' for Inactive)
    1  A    between atoms: C_4  and  C_18
    2  A    between atoms: C_5  and  C_11
    3  A    between atoms: C_11  and  C_36
    4  A    between atoms: C_16  and  N_29
    5  A    between atoms: C_36  and  C_47
                            x       y       z     vdW  Elec       q    Type
                         _______ _______ _______ _____ _____    ______ ____

>  <TORSDO>
F 5

$$$$
=
 OpenBabel11042415343D

 47 52  0  0  1  0  0  0  0  0999 V2000
  190.3690  171.5200  140.7800 C   0  0  0  0  0  2  0  0  0  0  0  0
  190.0640  171.9200  139.3320 C   0  0  1  0  0  3  0  0  0  0  0  0
  195.6630  174.4440  145.0520 S   0  0  0  0  0  0  0  0  0  0  0  0
  195.3160  175.2910  146.5130 N   0  0  0  0  0  0  0  0  0  0  0  0
  191.1030  177.3860  144.4800 N   0  0  0  0  0  0  0  0  0  0  0  0
  195.1660  175.5760  142.5800 C   0  0  0  0  0  2  0  0  0  0  0  0
  194.5080  176.2920  146.6300 C   0  0  0  0  0  3  0  0  0  0  0  0
  192.9340  175.9670  144.8470 O   0  0  0  0  0  0  0  0  0  0  0  0
  189.8080  177.7220  143.8670 C   0  0  1  0  0  3  0  0  0  0  0  0
  191.7780  173.3550  141.7340 C   0  0  2  0  0  3  0  0  0  0  0  0
  191.3190  175.4560  143.0530 C   0  0  0  0  0  0  0  0  0  0  0  0
  194.4550  173.6500  144.6370 O   0  0  0  0  0  0  0  0  0  0  0  0
  196.1700  175.5790  143.7480 C   0  0  2  0  0  3  0  0  0  0  0  0
  197.7460  174.3010  142.3350 C   0  0  0  0  0  3  0  0  0  0  0  0
  193.7480  176.9250  145.5040 C   0  0  0  0  0  2  0  0  0  0  0  0
  196.5790  173.5170  141.7970 C   0  0  0  0  0  2  0  0  0  0  0  0
  195.3770  174.4070  141.6310 C   0  0  0  0  0  0  0  0  0  0  0  0
  192.0810  174.0730  140.4050 C   0  0  2  0  0  3  0  0  0  0  0  0
  190.3940  172.7110  141.7310 C   0  0  0  0  0  2  0  0  0  0  0  0
  192.1570  173.1530  139.3520 O   0  0  0  0  0  0  0  0  0  0  0  0
  189.8080  177.2920  142.3880 C   0  0  0  0  0  2  0  0  0  0  0  0
  190.8640  173.1240  138.8140 C   0  0  0  0  0  2  0  0  0  0  0  0
  190.3530  175.8990  142.2370 C   0  0  0  0  0  3  0  0  0  0  0  0
  191.9400  174.2110  142.8690 O   0  0  0  0  0  0  0  0  0  0  0  0
  191.7760  176.3160  144.1580 C   0  0  0  0  0  0  0  0  0  0  0  0
  194.5190  174.1220  140.7120 N   0  0  0  0  0  0  0  0  0  0  0  0
  197.5570  175.2630  143.2500 C   0  0  0  0  0  3  0  0  0  0  0  0
  196.7810  173.4800  145.3360 O   0  0  0  0  0  0  0  0  0  0  0  0
  193.3460  174.9280  140.4660 C   0  0  0  0  0  2  0  0  0  0  0  0
  186.3140  177.2950  145.1980 C   0  0  0  0  0  2  0  0  0  0  0  0
  187.4570  177.7800  144.2890 C   0  0  0  0  0  2  0  0  0  0  0  0
  188.7100  177.0740  144.5980 N   0  0  0  0  0  0  0  0  0  0  0  0
  188.9580  177.2000  146.0420 C   0  0  0  0  0  2  0  0  0  0  0  0
  187.7450  176.7150  146.8530 C   0  0  0  0  0  2  0  0  0  0  0  0
  186.7350  176.2190  146.0050 O   0  0  0  0  0  0  0  0  0  0  0  0
  189.3170  169.8540  138.3710 O   0  0  0  0  0  0  0  0  0  0  0  0
  192.2150  169.9310  136.5950 C   0  0  2  0  0  0  0  0  0  0  0  0
  190.2160  170.7360  138.4350 C   0  0  0  0  0  0  0  0  0  0  0  0
  191.3690  170.6270  137.6070 N   0  0  0  0  0  0  0  0  0  0  0  0
  192.6720  171.1420  137.0800 C   0  0  0  0  0  2  0  0  0  0  0  0
  191.5590  169.9160  135.2440 C   0  0  0  0  0  0  0  0  0  0  0  0
  190.7870  171.1040  134.7700 C   0  0  0  0  0  1  0  0  0  0  0  0
  191.6250  168.9200  134.5400 O   0  0  0  0  0  0  0  0  0  0  0  0
  192.8260  168.6520  137.1670 C   0  0  0  0  0  2  0  0  0  0  0  0
  192.8400  168.2150  139.5410 O   0  0  0  0  0  1  0  0  0  0  0  0
  194.9740  168.3530  138.4680 C   0  0  0  0  0  1  0  0  0  0  0  0
  193.5380  168.8440  138.5090 C   0  0  1  0  0  3  0  0  0  0  0  0
  1 19  1  0  0  0  0
  2 38  1  6  0  0  0
  2  1  1  0  0  0  0
  3 28  2  0  0  0  0
  3  4  1  0  0  0  0
  4  7  2  0  0  0  0
  8 15  1  0  0  0  0
  9 21  1  6  0  0  0
  9  5  1  0  0  0  0
  9 32  1  0  0  0  0
 10 19  1  6  0  0  0
 10 24  1  0  0  0  0
 11 25  1  0  0  0  0
 12  3  2  0  0  0  0
 13  6  1  6  0  0  0
 13  3  1  0  0  0  0
 14 27  2  0  0  0  0
 15  7  1  0  0  0  0
 16 14  1  0  0  0  0
 17 16  1  0  0  0  0
 17  6  1  0  0  0  0
 18 29  1  1  0  0  0
 18 10  1  0  0  0  0
 20 18  1  0  0  0  0
 22  2  1  0  0  0  0
 22 20  1  0  0  0  0
 23 21  1  0  0  0  0
 23 11  2  0  0  0  0
 24 11  1  0  0  0  0
 25  5  2  0  0  0  0
 25  8  1  0  0  0  0
 26 17  2  0  0  0  0
 27 13  1  0  0  0  0
 29 26  1  0  0  0  0
 30 35  1  0  0  0  0
 31 32  1  0  0  0  0
 31 30  1  0  0  0  0
 32 33  1  0  0  0  0
 33 34  1  0  0  0  0
 35 34  1  0  0  0  0
 36 38  2  0  0  0  0
 37 40  1  0  0  0  0
 37 44  1  1  0  0  0
 37 39  1  0  0  0  0
 39 38  1  0  0  0  0
 40 39  1  0  0  0  0
 41 37  1  0  0  0  0
 42 41  1  0  0  0  0
 43 41  2  0  0  0  0
 44 47  1  0  0  0  0
 47 46  1  6  0  0  0
 47 45  1  0  0  0  0
M  END
>  <MODEL>
6

>  <REMARK>
 VINA RESULT:      -6.5      2.444      8.706
  Name = 
  5 active torsions:
  status: ('A' for Active; 'I' for Inactive)
    1  A    between atoms: C_4  and  C_18
    2  A    between atoms: C_5  and  C_11
    3  A    between atoms: C_11  and  C_36
    4  A    between atoms: C_16  and  N_29
    5  A    between atoms: C_36  and  C_47
                            x       y       z     vdW  Elec       q    Type
                         _______ _______ _______ _____ _____    ______ ____

>  <TORSDO>
F 5

$$$$
=
 OpenBabel11042415343D

 47 52  0  0  1  0  0  0  0  0999 V2000
  193.9900  172.8150  143.6310 C   0  0  0  0  0  2  0  0  0  0  0  0
  193.6070  171.8140  144.7270 C   0  0  1  0  0  3  0  0  0  0  0  0
  191.9230  172.4510  136.5300 S   0  0  0  0  0  0  0  0  0  0  0  0
  190.9600  173.6680  135.7790 N   0  0  0  0  0  0  0  0  0  0  0  0
  188.2040  174.3380  140.0490 N   0  0  0  0  0  0  0  0  0  0  0  0
  190.8330  170.6600  138.3300 C   0  0  0  0  0  2  0  0  0  0  0  0
  189.8200  174.0970  136.2090 C   0  0  0  0  0  3  0  0  0  0  0  0
  189.9240  173.7240  138.5770 O   0  0  0  0  0  0  0  0  0  0  0  0
  187.6570  174.6010  141.3900 C   0  0  1  0  0  3  0  0  0  0  0  0
  192.4110  172.4130  141.7310 C   0  0  2  0  0  3  0  0  0  0  0  0
  190.2040  173.3950  141.0070 C   0  0  0  0  0  0  0  0  0  0  0  0
  192.4930  172.9890  137.8130 O   0  0  0  0  0  0  0  0  0  0  0  0
  190.9660  170.9540  136.8250 C   0  0  2  0  0  3  0  0  0  0  0  0
  192.5820  169.0910  136.6500 C   0  0  0  0  0  3  0  0  0  0  0  0
  189.1070  173.5900  137.4250 C   0  0  0  0  0  2  0  0  0  0  0  0
  193.1550  169.5060  137.9780 C   0  0  0  0  0  2  0  0  0  0  0  0
  192.0640  169.9740  138.9020 C   0  0  0  0  0  0  0  0  0  0  0  0
  191.8260  171.0850  142.2470 C   0  0  2  0  0  3  0  0  0  0  0  0
  192.7830  173.3550  142.8730 C   0  0  0  0  0  2  0  0  0  0  0  0
  192.7920  170.3620  142.9580 O   0  0  0  0  0  0  0  0  0  0  0  0
  188.1480  173.5180  142.3690 C   0  0  0  0  0  2  0  0  0  0  0  0
  192.6010  170.7380  144.2940 C   0  0  0  0  0  2  0  0  0  0  0  0
  189.6240  173.2820  142.2090 C   0  0  0  0  0  3  0  0  0  0  0  0
  191.5510  173.0640  140.7920 O   0  0  0  0  0  0  0  0  0  0  0  0
  189.3950  173.8420  139.8600 C   0  0  0  0  0  0  0  0  0  0  0  0
  192.2240  169.8280  140.1730 N   0  0  0  0  0  0  0  0  0  0  0  0
  191.5610  169.7690  136.1070 C   0  0  0  0  0  3  0  0  0  0  0  0
  193.0670  172.1380  135.6060 O   0  0  0  0  0  0  0  0  0  0  0  0
  191.2230  170.2280  141.1350 C   0  0  0  0  0  2  0  0  0  0  0  0
  187.8300  177.5420  143.7310 C   0  0  0  0  0  2  0  0  0  0  0  0
  187.6510  176.0880  143.2590 C   0  0  0  0  0  2  0  0  0  0  0  0
  188.0530  175.9390  141.8520 N   0  0  0  0  0  0  0  0  0  0  0  0
  187.3300  176.9480  141.0640 C   0  0  0  0  0  2  0  0  0  0  0  0
  187.5550  178.3570  141.6380 C   0  0  0  0  0  2  0  0  0  0  0  0
  188.4430  178.3230  142.7310 O   0  0  0  0  0  0  0  0  0  0  0  0
  195.7720  171.9330  145.7510 O   0  0  0  0  0  0  0  0  0  0  0  0
  195.6510  168.5360  145.7970 C   0  0  2  0  0  0  0  0  0  0  0  0
  194.8380  171.2060  145.3140 C   0  0  0  0  0  0  0  0  0  0  0  0
  194.9380  169.7910  145.4230 N   0  0  0  0  0  0  0  0  0  0  0  0
  194.3870  168.4090  145.2540 C   0  0  0  0  0  2  0  0  0  0  0  0
  195.7950  168.4040  147.2860 C   0  0  0  0  0  0  0  0  0  0  0  0
  197.1390  168.1700  147.8930 C   0  0  0  0  0  1  0  0  0  0  0  0
  194.8090  168.4530  148.0050 O   0  0  0  0  0  0  0  0  0  0  0  0
  196.8530  168.2880  144.8830 C   0  0  0  0  0  2  0  0  0  0  0  0
  197.8180  170.0680  143.5690 O   0  0  0  0  0  1  0  0  0  0  0  0
  196.9510  168.1960  142.3580 C   0  0  0  0  0  1  0  0  0  0  0  0
  196.8230  169.0890  143.5790 C   0  0  1  0  0  3  0  0  0  0  0  0
  1  2  1  0  0  0  0
  2 38  1  6  0  0  0
  3 13  1  0  0  0  0
  3 12  2  0  0  0  0
  4  7  2  0  0  0  0
  4  3  1  0  0  0  0
  5  9  1  0  0  0  0
  6 17  1  0  0  0  0
  7 15  1  0  0  0  0
  8 25  1  0  0  0  0
  9 32  1  1  0  0  0
  9 21  1  0  0  0  0
 10 18  1  0  0  0  0
 10 19  1  1  0  0  0
 11 23  2  0  0  0  0
 13 27  1  6  0  0  0
 13  6  1  0  0  0  0
 14 16  1  0  0  0  0
 15  8  1  0  0  0  0
 16 17  1  0  0  0  0
 17 26  2  0  0  0  0
 18 29  1  6  0  0  0
 18 20  1  0  0  0  0
 19  1  1  0  0  0  0
 20 22  1  0  0  0  0
 22  2  1  0  0  0  0
 23 21  1  0  0  0  0
 24 11  1  0  0  0  0
 24 10  1  0  0  0  0
 25  5  2  0  0  0  0
 25 11  1  0  0  0  0
 26 29  1  0  0  0  0
 27 14  2  0  0  0  0
 28  3  2  0  0  0  0
 31 30  1  0  0  0  0
 32 31  1  0  0  0  0
 33 34  1  0  0  0  0
 33 32  1  0  0  0  0
 34 35  1  0  0  0  0
 35 30  1  0  0  0  0
 37 44  1  6  0  0  0
 37 41  1  0  0  0  0
 38 39  1  0  0  0  0
 38 36  2  0  0  0  0
 39 37  1  0  0  0  0
 40 39  1  0  0  0  0
 40 37  1  0  0  0  0
 41 42  1  0  0  0  0
 41 43  2  0  0  0  0
 45 47  1  0  0  0  0
 47 46  1  6  0  0  0
 47 44  1  0  0  0  0
M  END
>  <MODEL>
7

>  <REMARK>
 VINA RESULT:      -6.3      3.207      9.364
  Name = 
  5 active torsions:
  status: ('A' for Active; 'I' for Inactive)
    1  A    between atoms: C_4  and  C_18
    2  A    between atoms: C_5  and  C_11
    3  A    between atoms: C_11  and  C_36
    4  A    between atoms: C_16  and  N_29
    5  A    between atoms: C_36  and  C_47
                            x       y       z     vdW  Elec       q    Type
                         _______ _______ _______ _____ _____    ______ ____

>  <TORSDO>
F 5

$$$$
=
 OpenBabel11042415343D

 47 52  0  0  1  0  0  0  0  0999 V2000
  188.9150  175.0330  141.3060 C   0  0  0  0  0  2  0  0  0  0  0  0
  188.1410  174.3010  142.4080 C   0  0  1  0  0  3  0  0  0  0  0  0
  196.2780  175.6980  140.8990 S   0  0  0  0  0  0  0  0  0  0  0  0
  197.1990  175.0450  139.5960 N   0  0  0  0  0  0  0  0  0  0  0  0
  194.1810  170.9100  139.3300 N   0  0  0  0  0  0  0  0  0  0  0  0
  195.1920  174.0710  142.8500 C   0  0  0  0  0  2  0  0  0  0  0  0
  197.1730  173.8170  139.1960 C   0  0  0  0  0  3  0  0  0  0  0  0
  194.9800  173.0620  139.8150 O   0  0  0  0  0  0  0  0  0  0  0  0
  193.1120  169.9080  139.1990 C   0  0  1  0  0  3  0  0  0  0  0  0
  191.2900  174.2630  141.4840 C   0  0  2  0  0  3  0  0  0  0  0  0
  192.6620  172.4470  140.3980 C   0  0  0  0  0  0  0  0  0  0  0  0
  194.8270  175.7500  140.5060 O   0  0  0  0  0  0  0  0  0  0  0  0
  196.5070  174.7350  142.4030 C   0  0  2  0  0  3  0  0  0  0  0  0
  196.2700  176.3470  144.2630 C   0  0  0  0  0  3  0  0  0  0  0  0
  196.3580  172.7230  139.8160 C   0  0  0  0  0  2  0  0  0  0  0  0
  194.7900  176.3880  143.9960 C   0  0  0  0  0  2  0  0  0  0  0  0
  194.2840  175.0250  143.6100 C   0  0  0  0  0  0  0  0  0  0  0  0
  191.1600  173.5610  142.8490 C   0  0  2  0  0  3  0  0  0  0  0  0
  190.0010  174.1710  140.6710 C   0  0  0  0  0  2  0  0  0  0  0  0
  190.2240  174.2190  143.6560 O   0  0  0  0  0  0  0  0  0  0  0  0
  192.1370  170.0340  140.3860 C   0  0  0  0  0  2  0  0  0  0  0  0
  189.0180  173.5470  143.4180 C   0  0  0  0  0  2  0  0  0  0  0  0
  191.7720  171.4730  140.6260 C   0  0  0  0  0  3  0  0  0  0  0  0
  192.4050  173.7870  140.7260 O   0  0  0  0  0  0  0  0  0  0  0  0
  193.9730  172.1000  139.8220 C   0  0  0  0  0  0  0  0  0  0  0  0
  193.0640  174.7150  143.8900 N   0  0  0  0  0  0  0  0  0  0  0  0
  197.0760  175.5770  143.5170 C   0  0  0  0  0  3  0  0  0  0  0  0
  196.7490  177.1070  141.1320 O   0  0  0  0  0  0  0  0  0  0  0  0
  192.4970  173.4250  143.5760 C   0  0  0  0  0  2  0  0  0  0  0  0
  191.1920  168.8490  136.1410 C   0  0  0  0  0  2  0  0  0  0  0  0
  191.7550  168.8040  137.5730 C   0  0  0  0  0  2  0  0  0  0  0  0
  192.4030  170.0770  137.9230 N   0  0  0  0  0  0  0  0  0  0  0  0
  193.3820  170.3920  136.8720 C   0  0  0  0  0  2  0  0  0  0  0  0
  192.7210  170.3820  135.4840 C   0  0  0  0  0  2  0  0  0  0  0  0
  191.3370  170.1350  135.5840 O   0  0  0  0  0  0  0  0  0  0  0  0
  185.9730  175.0190  143.1380 O   0  0  0  0  0  0  0  0  0  0  0  0
  187.6000  177.6630  144.5240 C   0  0  2  0  0  0  0  0  0  0  0  0
  187.2120  175.2490  143.0930 C   0  0  0  0  0  0  0  0  0  0  0  0
  187.7390  176.4010  143.7420 N   0  0  0  0  0  0  0  0  0  0  0  0
  188.8770  177.2730  144.1710 C   0  0  0  0  0  2  0  0  0  0  0  0
  187.1450  177.3940  145.9300 C   0  0  0  0  0  0  0  0  0  0  0  0
  185.8020  176.7910  146.1830 C   0  0  0  0  0  1  0  0  0  0  0  0
  187.8560  177.7000  146.8750 O   0  0  0  0  0  0  0  0  0  0  0  0
  186.9290  178.7590  143.6950 C   0  0  0  0  0  2  0  0  0  0  0  0
  184.6090  179.4160  143.8010 O   0  0  0  0  0  1  0  0  0  0  0  0
  185.3160  178.3150  141.7990 C   0  0  0  0  0  1  0  0  0  0  0  0
  185.4820  178.4490  143.3020 C   0  0  1  0  0  3  0  0  0  0  0  0
  1  2  1  0  0  0  0
  2 38  1  1  0  0  0
  2 22  1  0  0  0  0
  3 28  2  0  0  0  0
  3 13  1  0  0  0  0
  4  3  1  0  0  0  0
  5 25  2  0  0  0  0
  6 17  1  0  0  0  0
  7  4  2  0  0  0  0
  7 15  1  0  0  0  0
  8 15  1  0  0  0  0
  8 25  1  0  0  0  0
  9 32  1  6  0  0  0
  9  5  1  0  0  0  0
  9 21  1  0  0  0  0
 10 19  1  6  0  0  0
 10 18  1  0  0  0  0
 11 23  2  0  0  0  0
 11 24  1  0  0  0  0
 12  3  2  0  0  0  0
 13  6  1  1  0  0  0
 13 27  1  0  0  0  0
 16 14  1  0  0  0  0
 17 26  2  0  0  0  0
 17 16  1  0  0  0  0
 18 29  1  1  0  0  0
 18 20  1  0  0  0  0
 19  1  1  0  0  0  0
 21 23  1  0  0  0  0
 22 20  1  0  0  0  0
 24 10  1  0  0  0  0
 25 11  1  0  0  0  0
 27 14  2  0  0  0  0
 29 26  1  0  0  0  0
 30 31  1  0  0  0  0
 31 32  1  0  0  0  0
 33 32  1  0  0  0  0
 34 35  1  0  0  0  0
 34 33  1  0  0  0  0
 35 30  1  0  0  0  0
 37 44  1  6  0  0  0
 37 41  1  0  0  0  0
 38 36  2  0  0  0  0
 38 39  1  0  0  0  0
 39 40  1  0  0  0  0
 39 37  1  0  0  0  0
 40 37  1  0  0  0  0
 41 42  1  0  0  0  0
 41 43  2  0  0  0  0
 47 46  1  6  0  0  0
 47 44  1  0  0  0  0
 47 45  1  0  0  0  0
M  END
>  <MODEL>
8

>  <REMARK>
 VINA RESULT:      -6.1      1.936      2.570
  Name = 
  5 active torsions:
  status: ('A' for Active; 'I' for Inactive)
    1  A    between atoms: C_4  and  C_18
    2  A    between atoms: C_5  and  C_11
    3  A    between atoms: C_11  and  C_36
    4  A    between atoms: C_16  and  N_29
    5  A    between atoms: C_36  and  C_47
                            x       y       z     vdW  Elec       q    Type
                         _______ _______ _______ _____ _____    ______ ____

>  <TORSDO>
F 5

$$$$
=
 OpenBabel11042415343D

 47 52  0  0  1  0  0  0  0  0999 V2000
  188.9750  172.1120  140.8010 C   0  0  0  0  0  2  0  0  0  0  0  0
  189.5710  172.3040  139.4010 C   0  0  1  0  0  3  0  0  0  0  0  0
  191.2730  175.4850  146.9790 S   0  0  0  0  0  0  0  0  0  0  0  0
  190.2630  176.5450  147.8890 N   0  0  0  0  0  0  0  0  0  0  0  0
  188.1390  178.4330  143.6230 N   0  0  0  0  0  0  0  0  0  0  0  0
  192.3560  176.2560  144.5560 C   0  0  0  0  0  2  0  0  0  0  0  0
  189.6370  177.5740  147.4220 C   0  0  0  0  0  3  0  0  0  0  0  0
  189.2960  177.0350  145.1080 O   0  0  0  0  0  0  0  0  0  0  0  0
  187.4470  178.7120  142.3550 C   0  0  1  0  0  3  0  0  0  0  0  0
  189.7990  174.0280  142.1840 C   0  0  2  0  0  3  0  0  0  0  0  0
  188.9080  176.3100  142.7810 C   0  0  0  0  0  0  0  0  0  0  0  0
  190.4240  174.6720  146.0410 O   0  0  0  0  0  0  0  0  0  0  0  0
  192.5350  176.4020  146.0780 C   0  0  2  0  0  3  0  0  0  0  0  0
  194.4860  174.8890  145.9480 C   0  0  0  0  0  3  0  0  0  0  0  0
  189.7020  178.0560  146.0050 C   0  0  0  0  0  2  0  0  0  0  0  0
  193.7400  174.0670  144.9310 C   0  0  0  0  0  2  0  0  0  0  0  0
  192.9340  174.9550  144.0220 C   0  0  0  0  0  0  0  0  0  0  0  0
  190.8630  174.5350  141.1910 C   0  0  2  0  0  3  0  0  0  0  0  0
  188.5920  173.4280  141.4680 C   0  0  0  0  0  2  0  0  0  0  0  0
  191.4150  173.4690  140.4700 O   0  0  0  0  0  0  0  0  0  0  0  0
  188.2240  178.0700  141.1900 C   0  0  0  0  0  2  0  0  0  0  0  0
  190.6450  173.3970  139.3020 C   0  0  0  0  0  2  0  0  0  0  0  0
  188.6120  176.6550  141.5220 C   0  0  0  0  0  3  0  0  0  0  0  0
  189.3920  175.0350  143.1130 O   0  0  0  0  0  0  0  0  0  0  0  0
  188.7600  177.3100  143.8530 C   0  0  0  0  0  0  0  0  0  0  0  0
  192.7080  174.5620  142.8150 N   0  0  0  0  0  0  0  0  0  0  0  0
  193.9220  175.9790  146.4880 C   0  0  0  0  0  3  0  0  0  0  0  0
  191.9360  174.5420  147.9450 O   0  0  0  0  0  0  0  0  0  0  0  0
  191.9620  175.3550  141.8650 C   0  0  0  0  0  2  0  0  0  0  0  0
  183.9820  177.9870  141.0760 C   0  0  0  0  0  2  0  0  0  0  0  0
  185.4920  178.2840  141.0490 C   0  0  0  0  0  2  0  0  0  0  0  0
  186.0670  178.2070  142.4010 N   0  0  0  0  0  0  0  0  0  0  0  0
  185.2720  179.0740  143.2830 C   0  0  0  0  0  2  0  0  0  0  0  0
  183.7790  178.7100  143.2110 C   0  0  0  0  0  2  0  0  0  0  0  0
  183.5680  177.6020  142.3660 O   0  0  0  0  0  0  0  0  0  0  0  0
  189.3090  170.2250  138.2350 O   0  0  0  0  0  0  0  0  0  0  0  0
  192.6000  169.7220  138.9230 C   0  0  2  0  0  0  0  0  0  0  0  0
  190.0710  170.9970  138.8780 C   0  0  0  0  0  0  0  0  0  0  0  0
  191.4360  170.6430  139.0660 N   0  0  0  0  0  0  0  0  0  0  0  0
  192.8200  170.9270  139.5620 C   0  0  0  0  0  2  0  0  0  0  0  0
  193.0320  169.5960  137.4900 C   0  0  0  0  0  0  0  0  0  0  0  0
  193.9520  168.4950  137.0770 C   0  0  0  0  0  1  0  0  0  0  0  0
  192.6600  170.4140  136.6620 O   0  0  0  0  0  0  0  0  0  0  0  0
  192.4280  168.4720  139.7870 C   0  0  0  0  0  2  0  0  0  0  0  0
  190.5000  168.1810  141.2090 O   0  0  0  0  0  1  0  0  0  0  0  0
  192.6310  168.2250  142.2950 C   0  0  0  0  0  1  0  0  0  0  0  0
  191.7790  168.7360  141.1480 C   0  0  1  0  0  3  0  0  0  0  0  0
  1 19  1  0  0  0  0
  2 38  1  1  0  0  0
  2  1  1  0  0  0  0
  3  4  1  0  0  0  0
  3 28  2  0  0  0  0
  5 25  2  0  0  0  0
  7  4  2  0  0  0  0
  8 15  1  0  0  0  0
  9 21  1  6  0  0  0
  9 32  1  0  0  0  0
  9  5  1  0  0  0  0
 10 19  1  6  0  0  0
 10 24  1  0  0  0  0
 11 24  1  0  0  0  0
 11 25  1  0  0  0  0
 12  3  2  0  0  0  0
 13  6  1  6  0  0  0
 13 27  1  0  0  0  0
 13  3  1  0  0  0  0
 14 27  2  0  0  0  0
 15  7  1  0  0  0  0
 16 14  1  0  0  0  0
 17  6  1  0  0  0  0
 17 16  1  0  0  0  0
 18 29  1  1  0  0  0
 18 10  1  0  0  0  0
 20 18  1  0  0  0  0
 21 23  1  0  0  0  0
 22  2  1  0  0  0  0
 22 20  1  0  0  0  0
 23 11  2  0  0  0  0
 25  8  1  0  0  0  0
 26 17  2  0  0  0  0
 29 26  1  0  0  0  0
 30 35  1  0  0  0  0
 31 30  1  0  0  0  0
 31 32  1  0  0  0  0
 32 33  1  0  0  0  0
 34 33  1  0  0  0  0
 35 34  1  0  0  0  0
 36 38  2  0  0  0  0
 37 39  1  0  0  0  0
 37 40  1  0  0  0  0
 37 44  1  1  0  0  0
 38 39  1  0  0  0  0
 39 40  1  0  0  0  0
 41 37  1  0  0  0  0
 42 41  1  0  0  0  0
 43 41  2  0  0  0  0
 44 47  1  0  0  0  0
 47 45  1  0  0  0  0
 47 46  1  1  0  0  0
M  END
>  <MODEL>
9

>  <REMARK>
 VINA RESULT:      -5.8      2.930      8.994
  Name = 
  5 active torsions:
  status: ('A' for Active; 'I' for Inactive)
    1  A    between atoms: C_4  and  C_18
    2  A    between atoms: C_5  and  C_11
    3  A    between atoms: C_11  and  C_36
    4  A    between atoms: C_16  and  N_29
    5  A    between atoms: C_36  and  C_47
                            x       y       z     vdW  Elec       q    Type
                         _______ _______ _______ _____ _____    ______ ____

>  <TORSDO>
F 5

$$$$
