=
 OpenBabel11042418473D

 44 48  0  0  1  0  0  0  0  0999 V2000
  189.3890  174.5250  143.7160 C   0  0  0  0  0  1  0  0  0  0  0  0
  188.7620  175.7840  143.1350 C   0  0  1  0  0  3  0  0  0  0  0  0
  189.6240  176.9680  143.4770 C   0  0  0  0  0  0  0  0  0  0  0  0
  190.3340  177.4850  142.6280 O   0  0  0  0  0  0  0  0  0  0  0  0
  189.6330  177.5000  144.8740 C   0  0  0  0  0  2  0  0  0  0  0  0
  188.0820  176.4840  146.6350 C   0  0  0  0  0  0  0  0  0  0  0  0
  185.9640  178.0450  145.6130 C   0  0  0  0  0  0  0  0  0  0  0  0
  186.8120  176.4560  147.2310 C   0  0  0  0  0  3  0  0  0  0  0  0
  188.2900  177.3250  145.5120 C   0  0  0  0  0  0  0  0  0  0  0  0
  187.2310  178.0940  145.0160 C   0  0  0  0  0  3  0  0  0  0  0  0
  185.7630  177.2260  146.7240 C   0  0  0  0  0  3  0  0  0  0  0  0
  185.0560  179.8210  144.1500 C   0  0  0  0  0  1  0  0  0  0  0  0
  184.8930  178.7990  145.1260 O   0  0  0  0  0  0  0  0  0  0  0  0
  189.1430  175.6290  147.2140 C   0  0  0  0  0  0  0  0  0  0  0  0
  189.0520  174.3750  147.0990 O   0  0  0  0  0  0  0  0  0  0  0  0
  191.5450  176.0330  147.5220 C   0  0  0  0  0  3  0  0  0  0  0  0
  190.2960  176.2230  147.8370 N   0  0  0  0  0  0  0  0  0  0  0  0
  192.0100  175.0880  146.4610 C   0  0  0  0  0  2  0  0  0  0  0  0
  193.4940  175.2810  146.2150 C   0  0  0  0  0  2  0  0  0  0  0  0
  194.6330  177.3680  146.3250 O   0  0  0  0  0  1  0  0  0  0  0  0
  193.0540  177.1890  144.6730 O   0  0  0  0  0  0  0  0  0  0  0  0
  193.7560  176.6700  145.7540 C   0  0  0  0  0  0  0  0  0  0  0  0
  188.5500  175.6530  141.6190 C   0  0  2  0  0  3  0  0  0  0  0  0
  187.1320  176.7300  139.8530 O   0  0  0  0  0  0  0  0  0  0  0  0
  187.3030  176.3580  141.1820 C   0  0  0  0  0  0  0  0  0  0  0  0
  186.3960  176.6040  142.0190 O   0  0  0  0  0  1  0  0  0  0  0  0
  188.4670  174.1880  141.2010 C   0  0  0  0  0  2  0  0  0  0  0  0
  189.6800  173.8040  140.3740 C   0  0  0  0  0  2  0  0  0  0  0  0
  191.6590  172.3920  140.8880 C   0  0  2  0  0  3  0  0  0  0  0  0
  190.9600  171.9820  139.6710 C   0  0  0  0  0  2  0  0  0  0  0  0
  190.1730  172.4980  140.8020 N   0  0  0  0  0  0  0  0  0  0  0  0
  193.8170  173.5550  140.2770 C   0  0  1  0  0  3  0  0  0  0  0  0
  192.4230  173.7200  140.7340 C   0  0  1  0  0  0  0  0  0  0  0  0
  193.6700  175.5570  141.7170 C   0  0  0  0  0  2  0  0  0  0  0  0
  192.8160  174.1060  139.4390 O   0  0  0  0  0  0  0  0  0  0  0  0
  192.3470  174.8220  141.7710 C   0  0  0  0  0  2  0  0  0  0  0  0
  194.6450  174.6570  140.9540 C   0  0  2  0  0  0  0  0  0  0  0  0
  195.3210  175.4810  139.8620 C   0  0  0  0  0  1  0  0  0  0  0  0
  197.0350  174.0830  141.2610 C   0  0  0  0  0  2  0  0  0  0  0  0
  197.8220  175.5560  142.9860 O   0  0  0  0  0  0  0  0  0  0  0  0
  197.7740  175.3830  141.5960 C   0  0  0  0  0  2  0  0  0  0  0  0
  195.6750  174.0560  141.8390 N   0  0  0  0  0  0  0  0  0  0  0  0
  196.5060  175.8250  143.3890 C   0  0  0  0  0  2  0  0  0  0  0  0
  195.6470  174.5670  143.2260 C   0  0  0  0  0  2  0  0  0  0  0  0
  2  3  1  0  0  0  0
  2  1  1  6  0  0  0
  3  5  1  0  0  0  0
  4  3  2  0  0  0  0
  5  9  1  0  0  0  0
  6 14  1  0  0  0  0
  6  8  1  0  0  0  0
  7 11  1  0  0  0  0
  9  6  2  0  0  0  0
 10  9  1  0  0  0  0
 10  7  2  0  0  0  0
 11  8  2  0  0  0  0
 12 13  1  0  0  0  0
 13  7  1  0  0  0  0
 14 17  1  0  0  0  0
 15 14  2  0  0  0  0
 16 17  2  0  0  0  0
 18 16  1  0  0  0  0
 19 18  1  0  0  0  0
 21 22  2  0  0  0  0
 22 19  1  0  0  0  0
 22 20  1  0  0  0  0
 23 27  1  1  0  0  0
 23  2  1  0  0  0  0
 24 25  2  0  0  0  0
 25 23  1  0  0  0  0
 25 26  1  0  0  0  0
 28 31  1  0  0  0  0
 28 27  1  0  0  0  0
 29 30  1  6  0  0  0
 30 31  1  0  0  0  0
 31 29  1  0  0  0  0
 32 35  1  6  0  0  0
 32 33  1  0  0  0  0
 32 37  1  0  0  0  0
 33 29  1  0  0  0  0
 33 36  1  1  0  0  0
 34 36  1  0  0  0  0
 35 33  1  0  0  0  0
 37 38  1  6  0  0  0
 37 34  1  0  0  0  0
 37 42  1  0  0  0  0
 39 41  1  0  0  0  0
 39 42  1  0  0  0  0
 40 43  1  0  0  0  0
 41 40  1  0  0  0  0
 42 44  1  0  0  0  0
 44 43  1  0  0  0  0
M  END
>  <MODEL>
1

>  <REMARK>
 VINA RESULT:      -6.6      0.000      0.000
  Name = 
  16 active torsions:
  status: ('A' for Active; 'I' for Inactive)
    1  A    between atoms: C_1  and  C_21
    2  A    between atoms: C_4  and  C_37
    3  A    between atoms: C_4  and  C_43
    4  A    between atoms: C_6  and  C_27
    5  A    between atoms: C_7  and  C_9
    6  A    between atoms: C_8  and  O_33
    7  A    between atoms: N_17  and  C_34
    8  A    between atoms: C_19  and  C_43
    9  A    between atoms: C_21  and  N_23
   10  A    between atoms: C_24  and  C_28
   11  A    between atoms: C_24  and  C_43
   12  A    between atoms: C_25  and  C_38
   13  A    between atoms: C_27  and  C_36
   14  A    between atoms: C_28  and  C_38
   15  A    between atoms: N_31  and  C_37
   16  A    between atoms: C_36  and  C_40
                            x       y       z     vdW  Elec       q    Type
                         _______ _______ _______ _____ _____    ______ ____

>  <TORSDO>
F 16

$$$$
=
 OpenBabel11042418473D

 44 48  0  0  1  0  0  0  0  0999 V2000
  188.2640  172.7190  139.9280 C   0  0  0  0  0  1  0  0  0  0  0  0
  189.1830  173.8820  140.2790 C   0  0  1  0  0  3  0  0  0  0  0  0
  188.5740  174.6710  141.4050 C   0  0  0  0  0  0  0  0  0  0  0  0
  187.6700  174.1970  142.0760 O   0  0  0  0  0  0  0  0  0  0  0  0
  189.0580  176.0560  141.6880 C   0  0  0  0  0  2  0  0  0  0  0  0
  187.8020  177.5540  143.3360 C   0  0  0  0  0  0  0  0  0  0  0  0
  185.9200  178.1350  141.3140 C   0  0  0  0  0  0  0  0  0  0  0  0
  186.7500  178.4530  143.5660 C   0  0  0  0  0  3  0  0  0  0  0  0
  187.9140  176.9470  142.0590 C   0  0  0  0  0  0  0  0  0  0  0  0
  186.9750  177.2450  141.0650 C   0  0  0  0  0  3  0  0  0  0  0  0
  185.8170  178.7390  142.5670 C   0  0  0  0  0  3  0  0  0  0  0  0
  183.5690  178.3720  140.5810 C   0  0  0  0  0  1  0  0  0  0  0  0
  184.9690  178.4370  140.3360 O   0  0  0  0  0  0  0  0  0  0  0  0
  188.7430  177.2830  144.4470 C   0  0  0  0  0  0  0  0  0  0  0  0
  189.6490  178.1230  144.7030 O   0  0  0  0  0  0  0  0  0  0  0  0
  187.8000  175.9750  146.2990 C   0  0  0  0  0  3  0  0  0  0  0  0
  188.5820  176.1110  145.2670 N   0  0  0  0  0  0  0  0  0  0  0  0
  186.9510  177.0700  146.8600 C   0  0  0  0  0  2  0  0  0  0  0  0
  185.4950  176.8200  146.5160 C   0  0  0  0  0  2  0  0  0  0  0  0
  184.7930  178.7020  147.7900 O   0  0  0  0  0  1  0  0  0  0  0  0
  183.8970  178.5420  145.6860 O   0  0  0  0  0  0  0  0  0  0  0  0
  184.7060  178.0650  146.7090 C   0  0  0  0  0  0  0  0  0  0  0  0
  190.5970  173.3910  140.6240 C   0  0  2  0  0  3  0  0  0  0  0  0
  192.8300  173.0590  139.5330 O   0  0  0  0  0  1  0  0  0  0  0  0
  191.4970  173.4410  139.4290 C   0  0  0  0  0  0  0  0  0  0  0  0
  191.0430  173.8190  138.3180 O   0  0  0  0  0  0  0  0  0  0  0  0
  190.5660  171.9650  141.1670 C   0  0  0  0  0  2  0  0  0  0  0  0
  191.1240  171.9230  142.5770 C   0  0  0  0  0  2  0  0  0  0  0  0
  191.8800  173.6310  144.2150 C   0  0  2  0  0  3  0  0  0  0  0  0
  190.7440  172.8410  144.6890 C   0  0  0  0  0  2  0  0  0  0  0  0
  190.8270  173.1790  143.2600 N   0  0  0  0  0  0  0  0  0  0  0  0
  193.9630  172.8760  145.4290 C   0  0  1  0  0  3  0  0  0  0  0  0
  193.1970  172.8360  144.1680 C   0  0  1  0  0  0  0  0  0  0  0  0
  195.5360  172.6750  143.5350 C   0  0  0  0  0  2  0  0  0  0  0  0
  193.3090  171.6990  144.9880 O   0  0  0  0  0  0  0  0  0  0  0  0
  194.1440  172.9110  142.9870 C   0  0  0  0  0  2  0  0  0  0  0  0
  195.4520  172.8610  145.0510 C   0  0  2  0  0  0  0  0  0  0  0  0
  196.1010  171.6590  145.7300 C   0  0  0  0  0  1  0  0  0  0  0  0
  197.1880  174.5710  144.6090 C   0  0  0  0  0  2  0  0  0  0  0  0
  195.9790  176.5720  144.0600 O   0  0  0  0  0  0  0  0  0  0  0  0
  196.6560  175.4810  143.4970 C   0  0  0  0  0  2  0  0  0  0  0  0
  196.1110  174.1100  145.5090 N   0  0  0  0  0  0  0  0  0  0  0  0
  194.8100  176.0490  144.6320 C   0  0  0  0  0  2  0  0  0  0  0  0
  195.1680  175.1950  145.8530 C   0  0  0  0  0  2  0  0  0  0  0  0
  2  1  1  1  0  0  0
  2 23  1  0  0  0  0
  2  3  1  0  0  0  0
  3  5  1  0  0  0  0
  3  4  2  0  0  0  0
  5  9  1  0  0  0  0
  6  8  1  0  0  0  0
  6 14  1  0  0  0  0
  7 11  1  0  0  0  0
  9  6  2  0  0  0  0
 10  7  2  0  0  0  0
 10  9  1  0  0  0  0
 11  8  2  0  0  0  0
 13 12  1  0  0  0  0
 13  7  1  0  0  0  0
 14 15  2  0  0  0  0
 14 17  1  0  0  0  0
 16 18  1  0  0  0  0
 17 16  2  0  0  0  0
 19 22  1  0  0  0  0
 19 18  1  0  0  0  0
 21 22  2  0  0  0  0
 22 20  1  0  0  0  0
 23 27  1  6  0  0  0
 25 24  1  0  0  0  0
 25 23  1  0  0  0  0
 26 25  2  0  0  0  0
 27 28  1  0  0  0  0
 28 31  1  0  0  0  0
 29 30  1  1  0  0  0
 31 29  1  0  0  0  0
 31 30  1  0  0  0  0
 32 35  1  1  0  0  0
 33 36  1  6  0  0  0
 33 29  1  0  0  0  0
 33 35  1  0  0  0  0
 33 32  1  0  0  0  0
 34 37  1  0  0  0  0
 36 34  1  0  0  0  0
 37 32  1  0  0  0  0
 37 42  1  0  0  0  0
 37 38  1  1  0  0  0
 39 42  1  0  0  0  0
 40 43  1  0  0  0  0
 41 40  1  0  0  0  0
 41 39  1  0  0  0  0
 42 44  1  0  0  0  0
 43 44  1  0  0  0  0
M  END
>  <MODEL>
2

>  <REMARK>
 VINA RESULT:      -6.6      2.237      4.874
  Name = 
  16 active torsions:
  status: ('A' for Active; 'I' for Inactive)
    1  A    between atoms: C_1  and  C_21
    2  A    between atoms: C_4  and  C_37
    3  A    between atoms: C_4  and  C_43
    4  A    between atoms: C_6  and  C_27
    5  A    between atoms: C_7  and  C_9
    6  A    between atoms: C_8  and  O_33
    7  A    between atoms: N_17  and  C_34
    8  A    between atoms: C_19  and  C_43
    9  A    between atoms: C_21  and  N_23
   10  A    between atoms: C_24  and  C_28
   11  A    between atoms: C_24  and  C_43
   12  A    between atoms: C_25  and  C_38
   13  A    between atoms: C_27  and  C_36
   14  A    between atoms: C_28  and  C_38
   15  A    between atoms: N_31  and  C_37
   16  A    between atoms: C_36  and  C_40
                            x       y       z     vdW  Elec       q    Type
                         _______ _______ _______ _____ _____    ______ ____

>  <TORSDO>
F 16

$$$$
=
 OpenBabel11042418473D

 44 48  0  0  1  0  0  0  0  0999 V2000
  187.6650  173.0890  141.9230 C   0  0  0  0  0  1  0  0  0  0  0  0
  188.1560  174.2810  141.1120 C   0  0  1  0  0  3  0  0  0  0  0  0
  188.1640  175.5040  141.9870 C   0  0  0  0  0  0  0  0  0  0  0  0
  188.7670  176.5090  141.6420 O   0  0  0  0  0  0  0  0  0  0  0  0
  187.4550  175.4810  143.3030 C   0  0  0  0  0  2  0  0  0  0  0  0
  187.0110  177.7410  144.4130 C   0  0  0  0  0  0  0  0  0  0  0  0
  184.7950  178.1020  142.7030 C   0  0  0  0  0  0  0  0  0  0  0  0
  186.2560  178.9230  144.4500 C   0  0  0  0  0  3  0  0  0  0  0  0
  186.6500  176.7290  143.4870 C   0  0  0  0  0  0  0  0  0  0  0  0
  185.5490  176.9210  142.6440 C   0  0  0  0  0  3  0  0  0  0  0  0
  185.1580  179.1010  143.6060 C   0  0  0  0  0  3  0  0  0  0  0  0
  183.7840  178.3260  140.4560 C   0  0  0  0  0  1  0  0  0  0  0  0
  183.6880  178.3070  141.8760 O   0  0  0  0  0  0  0  0  0  0  0  0
  188.1520  177.6130  145.3490 C   0  0  0  0  0  0  0  0  0  0  0  0
  187.9400  177.2030  146.5230 O   0  0  0  0  0  0  0  0  0  0  0  0
  190.4510  177.0200  144.7220 C   0  0  0  0  0  3  0  0  0  0  0  0
  189.4930  177.8840  144.9020 N   0  0  0  0  0  0  0  0  0  0  0  0
  190.3320  175.5600  145.0170 C   0  0  0  0  0  2  0  0  0  0  0  0
  191.2990  175.1790  146.1220 C   0  0  0  0  0  2  0  0  0  0  0  0
  189.6290  174.7160  147.7530 O   0  0  0  0  0  0  0  0  0  0  0  0
  191.2060  176.2630  148.3640 O   0  0  0  0  0  1  0  0  0  0  0  0
  190.6570  175.3750  147.4480 C   0  0  0  0  0  0  0  0  0  0  0  0
  189.5380  174.0070  140.5000 C   0  0  2  0  0  3  0  0  0  0  0  0
  190.5470  173.7850  138.2150 O   0  0  0  0  0  0  0  0  0  0  0  0
  189.4330  173.6850  139.0420 C   0  0  0  0  0  0  0  0  0  0  0  0
  188.3330  173.3090  138.5610 O   0  0  0  0  0  1  0  0  0  0  0  0
  190.2390  172.8560  141.2160 C   0  0  0  0  0  2  0  0  0  0  0  0
  191.4730  173.3560  141.9410 C   0  0  0  0  0  2  0  0  0  0  0  0
  193.9380  173.5890  141.7210 C   0  0  2  0  0  3  0  0  0  0  0  0
  193.1930  174.4790  140.8310 C   0  0  0  0  0  2  0  0  0  0  0  0
  192.6540  173.1390  141.1090 N   0  0  0  0  0  0  0  0  0  0  0  0
  194.8310  175.0320  143.5920 C   0  0  1  0  0  3  0  0  0  0  0  0
  193.8530  173.9980  143.2030 C   0  0  1  0  0  0  0  0  0  0  0  0
  194.3760  173.5770  145.5360 C   0  0  0  0  0  2  0  0  0  0  0  0
  193.4450  175.3120  143.5000 O   0  0  0  0  0  0  0  0  0  0  0  0
  193.7070  172.9800  144.3160 C   0  0  0  0  0  2  0  0  0  0  0  0
  195.2440  174.7360  145.0420 C   0  0  2  0  0  0  0  0  0  0  0  0
  194.9380  175.9710  145.8840 C   0  0  0  0  0  1  0  0  0  0  0  0
  197.0500  173.5060  146.2080 C   0  0  0  0  0  2  0  0  0  0  0  0
  197.7690  171.8200  144.6570 O   0  0  0  0  0  0  0  0  0  0  0  0
  196.9530  172.0390  145.7750 C   0  0  0  0  0  2  0  0  0  0  0  0
  196.6950  174.4300  145.1110 N   0  0  0  0  0  0  0  0  0  0  0  0
  197.1640  172.5060  143.5950 C   0  0  0  0  0  2  0  0  0  0  0  0
  197.2840  174.0170  143.8200 C   0  0  0  0  0  2  0  0  0  0  0  0
  2  1  1  1  0  0  0
  2  3  1  0  0  0  0
  3  5  1  0  0  0  0
  4  3  2  0  0  0  0
  5  9  1  0  0  0  0
  6  8  1  0  0  0  0
  6 14  1  0  0  0  0
  7 11  1  0  0  0  0
  9  6  2  0  0  0  0
 10  7  2  0  0  0  0
 10  9  1  0  0  0  0
 11  8  2  0  0  0  0
 12 13  1  0  0  0  0
 13  7  1  0  0  0  0
 14 15  2  0  0  0  0
 16 17  2  0  0  0  0
 16 18  1  0  0  0  0
 17 14  1  0  0  0  0
 18 19  1  0  0  0  0
 19 22  1  0  0  0  0
 22 20  2  0  0  0  0
 22 21  1  0  0  0  0
 23  2  1  0  0  0  0
 23 27  1  1  0  0  0
 24 25  2  0  0  0  0
 25 23  1  0  0  0  0
 26 25  1  0  0  0  0
 27 28  1  0  0  0  0
 29 30  1  6  0  0  0
 29 33  1  0  0  0  0
 30 31  1  0  0  0  0
 31 29  1  0  0  0  0
 31 28  1  0  0  0  0
 32 35  1  1  0  0  0
 32 37  1  0  0  0  0
 33 35  1  0  0  0  0
 33 32  1  0  0  0  0
 33 36  1  1  0  0  0
 36 34  1  0  0  0  0
 37 42  1  0  0  0  0
 37 34  1  0  0  0  0
 37 38  1  1  0  0  0
 40 41  1  0  0  0  0
 41 39  1  0  0  0  0
 42 39  1  0  0  0  0
 43 44  1  0  0  0  0
 43 40  1  0  0  0  0
 44 42  1  0  0  0  0
M  END
>  <MODEL>
3

>  <REMARK>
 VINA RESULT:      -6.5      2.250      3.619
  Name = 
  16 active torsions:
  status: ('A' for Active; 'I' for Inactive)
    1  A    between atoms: C_1  and  C_21
    2  A    between atoms: C_4  and  C_37
    3  A    between atoms: C_4  and  C_43
    4  A    between atoms: C_6  and  C_27
    5  A    between atoms: C_7  and  C_9
    6  A    between atoms: C_8  and  O_33
    7  A    between atoms: N_17  and  C_34
    8  A    between atoms: C_19  and  C_43
    9  A    between atoms: C_21  and  N_23
   10  A    between atoms: C_24  and  C_28
   11  A    between atoms: C_24  and  C_43
   12  A    between atoms: C_25  and  C_38
   13  A    between atoms: C_27  and  C_36
   14  A    between atoms: C_28  and  C_38
   15  A    between atoms: N_31  and  C_37
   16  A    between atoms: C_36  and  C_40
                            x       y       z     vdW  Elec       q    Type
                         _______ _______ _______ _____ _____    ______ ____

>  <TORSDO>
F 16

$$$$
=
 OpenBabel11042418473D

 44 48  0  0  1  0  0  0  0  0999 V2000
  188.9570  171.8840  143.2100 C   0  0  0  0  0  1  0  0  0  0  0  0
  189.3270  172.4760  141.8570 C   0  0  1  0  0  3  0  0  0  0  0  0
  189.4100  173.9720  141.9780 C   0  0  0  0  0  0  0  0  0  0  0  0
  190.4030  174.5720  141.5920 O   0  0  0  0  0  0  0  0  0  0  0  0
  188.2830  174.7310  142.6020 C   0  0  0  0  0  2  0  0  0  0  0  0
  188.6670  177.0400  143.6320 C   0  0  0  0  0  0  0  0  0  0  0  0
  189.7510  175.7950  145.9210 C   0  0  0  0  0  0  0  0  0  0  0  0
  189.0800  177.7970  144.7380 C   0  0  0  0  0  3  0  0  0  0  0  0
  188.7900  175.6280  143.6870 C   0  0  0  0  0  0  0  0  0  0  0  0
  189.3290  175.0230  144.8300 C   0  0  0  0  0  3  0  0  0  0  0  0
  189.6190  177.1820  145.8700 C   0  0  0  0  0  3  0  0  0  0  0  0
  191.1620  175.9120  147.9500 C   0  0  0  0  0  1  0  0  0  0  0  0
  190.2980  175.2090  147.0650 O   0  0  0  0  0  0  0  0  0  0  0  0
  188.1220  177.7590  142.4570 C   0  0  0  0  0  0  0  0  0  0  0  0
  188.9050  178.4300  141.7300 O   0  0  0  0  0  0  0  0  0  0  0  0
  185.7290  178.2730  142.6460 C   0  0  0  0  0  3  0  0  0  0  0  0
  186.7310  177.6360  142.1120 N   0  0  0  0  0  0  0  0  0  0  0  0
  185.8540  179.2290  143.7890 C   0  0  0  0  0  2  0  0  0  0  0  0
  184.9350  178.8030  144.9180 C   0  0  0  0  0  2  0  0  0  0  0  0
  185.7810  176.6990  145.6390 O   0  0  0  0  0  0  0  0  0  0  0  0
  186.2680  178.4790  146.9990 O   0  0  0  0  0  1  0  0  0  0  0  0
  185.6730  177.9310  145.8700 C   0  0  0  0  0  0  0  0  0  0  0  0
  190.6350  171.8730  141.3230 C   0  0  2  0  0  3  0  0  0  0  0  0
  191.7240  171.4070  139.1120 O   0  0  0  0  0  0  0  0  0  0  0  0
  190.5660  171.6460  139.8450 C   0  0  0  0  0  0  0  0  0  0  0  0
  189.4510  171.6570  139.2610 O   0  0  0  0  0  1  0  0  0  0  0  0
  190.9540  170.5510  142.0160 C   0  0  0  0  0  2  0  0  0  0  0  0
  192.3640  170.5750  142.5770 C   0  0  0  0  0  2  0  0  0  0  0  0
  193.3690  171.6390  144.5850 C   0  0  2  0  0  3  0  0  0  0  0  0
  193.5780  170.1920  144.5340 C   0  0  0  0  0  2  0  0  0  0  0  0
  192.3130  170.7460  144.0270 N   0  0  0  0  0  0  0  0  0  0  0  0
  195.5660  172.7340  143.9880 C   0  0  1  0  0  3  0  0  0  0  0  0
  194.1970  172.4110  143.5420 C   0  0  1  0  0  0  0  0  0  0  0  0
  194.7830  174.4970  142.4440 C   0  0  0  0  0  2  0  0  0  0  0  0
  195.3160  171.7680  142.9830 O   0  0  0  0  0  0  0  0  0  0  0  0
  193.6240  173.5720  142.7530 C   0  0  0  0  0  2  0  0  0  0  0  0
  195.9290  174.0950  143.3740 C   0  0  2  0  0  0  0  0  0  0  0  0
  197.1960  173.9170  142.5430 C   0  0  0  0  0  1  0  0  0  0  0  0
  195.6530  176.4400  144.1220 C   0  0  0  0  0  2  0  0  0  0  0  0
  194.0650  176.3460  145.9220 O   0  0  0  0  0  0  0  0  0  0  0  0
  194.1910  176.6100  144.5510 C   0  0  0  0  0  2  0  0  0  0  0  0
  196.1700  175.0940  144.4460 N   0  0  0  0  0  0  0  0  0  0  0  0
  194.2840  174.9690  146.0730 C   0  0  0  0  0  2  0  0  0  0  0  0
  195.7540  174.6440  145.7910 C   0  0  0  0  0  2  0  0  0  0  0  0
  2  3  1  0  0  0  0
  2  1  1  1  0  0  0
  3  5  1  0  0  0  0
  4  3  2  0  0  0  0
  5  9  1  0  0  0  0
  6  9  2  0  0  0  0
  6  8  1  0  0  0  0
  7 13  1  0  0  0  0
  8 11  2  0  0  0  0
  9 10  1  0  0  0  0
 10  7  2  0  0  0  0
 11  7  1  0  0  0  0
 13 12  1  0  0  0  0
 14  6  1  0  0  0  0
 15 14  2  0  0  0  0
 16 18  1  0  0  0  0
 17 14  1  0  0  0  0
 17 16  2  0  0  0  0
 18 19  1  0  0  0  0
 19 22  1  0  0  0  0
 20 22  2  0  0  0  0
 22 21  1  0  0  0  0
 23  2  1  0  0  0  0
 23 27  1  1  0  0  0
 24 25  2  0  0  0  0
 25 23  1  0  0  0  0
 26 25  1  0  0  0  0
 27 28  1  0  0  0  0
 28 31  1  0  0  0  0
 29 30  1  6  0  0  0
 31 30  1  0  0  0  0
 31 29  1  0  0  0  0
 32 35  1  6  0  0  0
 33 36  1  6  0  0  0
 33 32  1  0  0  0  0
 33 29  1  0  0  0  0
 34 36  1  0  0  0  0
 34 37  1  0  0  0  0
 35 33  1  0  0  0  0
 37 38  1  6  0  0  0
 37 32  1  0  0  0  0
 37 42  1  0  0  0  0
 39 42  1  0  0  0  0
 39 41  1  0  0  0  0
 40 43  1  0  0  0  0
 41 40  1  0  0  0  0
 42 44  1  0  0  0  0
 44 43  1  0  0  0  0
M  END
>  <MODEL>
4

>  <REMARK>
 VINA RESULT:      -6.5      2.399      5.239
  Name = 
  16 active torsions:
  status: ('A' for Active; 'I' for Inactive)
    1  A    between atoms: C_1  and  C_21
    2  A    between atoms: C_4  and  C_37
    3  A    between atoms: C_4  and  C_43
    4  A    between atoms: C_6  and  C_27
    5  A    between atoms: C_7  and  C_9
    6  A    between atoms: C_8  and  O_33
    7  A    between atoms: N_17  and  C_34
    8  A    between atoms: C_19  and  C_43
    9  A    between atoms: C_21  and  N_23
   10  A    between atoms: C_24  and  C_28
   11  A    between atoms: C_24  and  C_43
   12  A    between atoms: C_25  and  C_38
   13  A    between atoms: C_27  and  C_36
   14  A    between atoms: C_28  and  C_38
   15  A    between atoms: N_31  and  C_37
   16  A    between atoms: C_36  and  C_40
                            x       y       z     vdW  Elec       q    Type
                         _______ _______ _______ _____ _____    ______ ____

>  <TORSDO>
F 16

$$$$
=
 OpenBabel11042418473D

 44 48  0  0  1  0  0  0  0  0999 V2000
  193.4720  173.6230  145.4300 C   0  0  0  0  0  1  0  0  0  0  0  0
  193.4310  174.8380  144.5140 C   0  0  1  0  0  3  0  0  0  0  0  0
  192.3540  174.6430  143.4830 C   0  0  0  0  0  0  0  0  0  0  0  0
  192.1080  175.5210  142.6680 O   0  0  0  0  0  0  0  0  0  0  0  0
  191.5570  173.3790  143.4710 C   0  0  0  0  0  2  0  0  0  0  0  0
  192.0420  172.1440  141.2850 C   0  0  0  0  0  0  0  0  0  0  0  0
  189.5530  173.0200  140.2840 C   0  0  0  0  0  0  0  0  0  0  0  0
  191.5950  171.7470  140.0160 C   0  0  0  0  0  3  0  0  0  0  0  0
  191.2130  172.9870  142.0680 C   0  0  0  0  0  0  0  0  0  0  0  0
  189.9800  173.4130  141.5600 C   0  0  0  0  0  3  0  0  0  0  0  0
  190.3650  172.1820  139.5190 C   0  0  0  0  0  3  0  0  0  0  0  0
  188.2300  174.1860  138.5480 C   0  0  0  0  0  1  0  0  0  0  0  0
  188.3300  173.4420  139.7570 O   0  0  0  0  0  0  0  0  0  0  0  0
  193.3660  171.6600  141.7410 C   0  0  0  0  0  0  0  0  0  0  0  0
  193.4720  171.1560  142.8930 O   0  0  0  0  0  0  0  0  0  0  0  0
  195.4040  172.6340  140.7790 C   0  0  0  0  0  3  0  0  0  0  0  0
  194.4990  171.7010  140.8550 N   0  0  0  0  0  0  0  0  0  0  0  0
  195.3840  173.8910  141.5870 C   0  0  0  0  0  2  0  0  0  0  0  0
  195.0290  175.0680  140.6960 C   0  0  0  0  0  2  0  0  0  0  0  0
  197.2620  175.7830  140.2930 O   0  0  0  0  0  1  0  0  0  0  0  0
  196.0470  175.2340  138.4280 O   0  0  0  0  0  0  0  0  0  0  0  0
  196.1710  175.3910  139.8020 C   0  0  0  0  0  0  0  0  0  0  0  0
  193.2280  176.1340  145.3140 C   0  0  2  0  0  3  0  0  0  0  0  0
  195.4850  176.8100  144.4530 O   0  0  0  0  0  0  0  0  0  0  0  0
  194.5070  176.9020  145.4380 C   0  0  0  0  0  0  0  0  0  0  0  0
  194.6960  177.6470  146.4350 O   0  0  0  0  0  1  0  0  0  0  0  0
  192.6850  175.8390  146.7090 C   0  0  0  0  0  2  0  0  0  0  0  0
  191.1850  176.0640  146.7520 C   0  0  0  0  0  2  0  0  0  0  0  0
  189.1140  174.9040  146.0160 C   0  0  2  0  0  3  0  0  0  0  0  0
  189.3220  174.8510  147.4630 C   0  0  0  0  0  2  0  0  0  0  0  0
  190.4930  174.7900  146.5750 N   0  0  0  0  0  0  0  0  0  0  0  0
  187.2670  176.5370  145.4640 C   0  0  1  0  0  3  0  0  0  0  0  0
  188.7230  176.3040  145.5090 C   0  0  1  0  0  0  0  0  0  0  0  0
  188.3500  177.8480  143.6720 C   0  0  0  0  0  2  0  0  0  0  0  0
  188.0980  177.1810  146.4130 O   0  0  0  0  0  0  0  0  0  0  0  0
  189.3850  176.9400  144.3020 C   0  0  0  0  0  2  0  0  0  0  0  0
  186.9940  177.4450  144.2550 C   0  0  2  0  0  0  0  0  0  0  0  0
  186.2830  178.6980  144.7560 C   0  0  0  0  0  1  0  0  0  0  0  0
  185.1420  177.6240  142.6190 C   0  0  0  0  0  2  0  0  0  0  0  0
  186.1690  177.3270  140.4690 O   0  0  0  0  0  0  0  0  0  0  0  0
  185.7090  178.3000  141.3660 C   0  0  0  0  0  2  0  0  0  0  0  0
  186.1360  176.7430  143.2680 N   0  0  0  0  0  0  0  0  0  0  0  0
  187.3040  176.7570  141.0640 C   0  0  0  0  0  2  0  0  0  0  0  0
  186.8890  175.9330  142.2870 C   0  0  0  0  0  2  0  0  0  0  0  0
  2 23  1  0  0  0  0
  2  1  1  1  0  0  0
  3  2  1  0  0  0  0
  4  3  2  0  0  0  0
  5  3  1  0  0  0  0
  6 14  1  0  0  0  0
  6  9  1  0  0  0  0
  7 10  1  0  0  0  0
  8  6  2  0  0  0  0
  9  5  1  0  0  0  0
 10  9  2  0  0  0  0
 11  8  1  0  0  0  0
 11  7  2  0  0  0  0
 12 13  1  0  0  0  0
 13  7  1  0  0  0  0
 14 15  2  0  0  0  0
 16 17  2  0  0  0  0
 16 18  1  0  0  0  0
 17 14  1  0  0  0  0
 19 18  1  0  0  0  0
 21 22  2  0  0  0  0
 22 20  1  0  0  0  0
 22 19  1  0  0  0  0
 23 25  1  0  0  0  0
 23 27  1  1  0  0  0
 24 25  2  0  0  0  0
 25 26  1  0  0  0  0
 27 28  1  0  0  0  0
 29 31  1  0  0  0  0
 29 30  1  1  0  0  0
 31 28  1  0  0  0  0
 31 30  1  0  0  0  0
 32 33  1  0  0  0  0
 32 35  1  1  0  0  0
 33 36  1  6  0  0  0
 33 29  1  0  0  0  0
 33 35  1  0  0  0  0
 34 37  1  0  0  0  0
 34 36  1  0  0  0  0
 37 38  1  1  0  0  0
 37 32  1  0  0  0  0
 39 42  1  0  0  0  0
 40 43  1  0  0  0  0
 40 41  1  0  0  0  0
 41 39  1  0  0  0  0
 42 37  1  0  0  0  0
 43 44  1  0  0  0  0
 44 42  1  0  0  0  0
M  END
>  <MODEL>
5

>  <REMARK>
 VINA RESULT:      -6.3      2.092      8.019
  Name = 
  16 active torsions:
  status: ('A' for Active; 'I' for Inactive)
    1  A    between atoms: C_1  and  C_21
    2  A    between atoms: C_4  and  C_37
    3  A    between atoms: C_4  and  C_43
    4  A    between atoms: C_6  and  C_27
    5  A    between atoms: C_7  and  C_9
    6  A    between atoms: C_8  and  O_33
    7  A    between atoms: N_17  and  C_34
    8  A    between atoms: C_19  and  C_43
    9  A    between atoms: C_21  and  N_23
   10  A    between atoms: C_24  and  C_28
   11  A    between atoms: C_24  and  C_43
   12  A    between atoms: C_25  and  C_38
   13  A    between atoms: C_27  and  C_36
   14  A    between atoms: C_28  and  C_38
   15  A    between atoms: N_31  and  C_37
   16  A    between atoms: C_36  and  C_40
                            x       y       z     vdW  Elec       q    Type
                         _______ _______ _______ _____ _____    ______ ____

>  <TORSDO>
F 16

$$$$
=
 OpenBabel11042418473D

 44 48  0  0  1  0  0  0  0  0999 V2000
  191.0840  177.7490  144.0300 C   0  0  0  0  0  1  0  0  0  0  0  0
  190.7100  176.4760  144.7760 C   0  0  1  0  0  3  0  0  0  0  0  0
  190.5820  175.3460  143.7930 C   0  0  0  0  0  0  0  0  0  0  0  0
  191.5150  175.0530  143.0590 O   0  0  0  0  0  0  0  0  0  0  0  0
  189.2950  174.5930  143.6900 C   0  0  0  0  0  2  0  0  0  0  0  0
  188.2840  175.2250  141.4280 C   0  0  0  0  0  0  0  0  0  0  0  0
  189.2460  172.7950  140.3630 C   0  0  0  0  0  0  0  0  0  0  0  0
  188.1080  174.9120  140.0710 C   0  0  0  0  0  3  0  0  0  0  0  0
  188.9690  174.3030  142.2580 C   0  0  0  0  0  0  0  0  0  0  0  0
  189.4420  173.1010  141.7170 C   0  0  0  0  0  3  0  0  0  0  0  0
  188.5820  173.7090  139.5450 C   0  0  0  0  0  3  0  0  0  0  0  0
  191.0780  171.3570  139.5290 C   0  0  0  0  0  1  0  0  0  0  0  0
  189.7040  171.5980  139.8080 O   0  0  0  0  0  0  0  0  0  0  0  0
  187.7400  176.5110  141.9230 C   0  0  0  0  0  0  0  0  0  0  0  0
  188.4240  177.5620  141.7840 O   0  0  0  0  0  0  0  0  0  0  0  0
  186.0940  176.9670  143.6870 C   0  0  0  0  0  3  0  0  0  0  0  0
  186.4180  176.5700  142.4890 N   0  0  0  0  0  0  0  0  0  0  0  0
  187.0790  177.3860  144.7290 C   0  0  0  0  0  2  0  0  0  0  0  0
  186.7010  176.7790  146.0670 C   0  0  0  0  0  2  0  0  0  0  0  0
  186.6930  178.5520  147.6540 O   0  0  0  0  0  1  0  0  0  0  0  0
  184.6360  177.9300  146.8550 O   0  0  0  0  0  0  0  0  0  0  0  0
  186.0170  177.7950  146.9100 C   0  0  0  0  0  0  0  0  0  0  0  0
  191.7280  176.1580  145.8820 C   0  0  2  0  0  3  0  0  0  0  0  0
  190.3500  177.3580  147.6010 O   0  0  0  0  0  0  0  0  0  0  0  0
  191.1010  176.2440  147.2390 C   0  0  0  0  0  0  0  0  0  0  0  0
  191.2430  175.2970  148.0560 O   0  0  0  0  0  1  0  0  0  0  0  0
  192.9200  177.1090  145.8220 C   0  0  0  0  0  2  0  0  0  0  0  0
  194.2020  176.3360  145.5760 C   0  0  0  0  0  2  0  0  0  0  0  0
  195.0230  174.9170  143.7080 C   0  0  2  0  0  3  0  0  0  0  0  0
  195.8910  176.0610  143.9880 C   0  0  0  0  0  2  0  0  0  0  0  0
  194.4370  176.2190  144.1380 N   0  0  0  0  0  0  0  0  0  0  0  0
  196.1160  172.8050  144.5600 C   0  0  1  0  0  3  0  0  0  0  0  0
  195.0800  173.8290  144.7960 C   0  0  1  0  0  0  0  0  0  0  0  0
  194.2210  171.7750  145.7650 C   0  0  0  0  0  2  0  0  0  0  0  0
  196.2330  173.7610  145.5990 O   0  0  0  0  0  0  0  0  0  0  0  0
  193.8310  173.1800  145.3560 C   0  0  0  0  0  2  0  0  0  0  0  0
  195.5600  171.4740  145.0890 C   0  0  2  0  0  0  0  0  0  0  0  0
  196.5300  170.9390  146.1390 C   0  0  0  0  0  1  0  0  0  0  0  0
  194.3570  169.5020  144.1940 C   0  0  0  0  0  2  0  0  0  0  0  0
  193.1210  170.3200  142.3050 O   0  0  0  0  0  0  0  0  0  0  0  0
  193.0070  169.9970  143.6640 C   0  0  0  0  0  2  0  0  0  0  0  0
  195.4310  170.4940  143.9810 N   0  0  0  0  0  0  0  0  0  0  0  0
  193.9270  171.4670  142.2450 C   0  0  0  0  0  2  0  0  0  0  0  0
  195.3640  171.1110  142.6390 C   0  0  0  0  0  2  0  0  0  0  0  0
  2  1  1  6  0  0  0
  2 23  1  0  0  0  0
  3  2  1  0  0  0  0
  4  3  2  0  0  0  0
  5  3  1  0  0  0  0
  6 14  1  0  0  0  0
  6  9  1  0  0  0  0
  7 10  1  0  0  0  0
  8  6  2  0  0  0  0
  9  5  1  0  0  0  0
 10  9  2  0  0  0  0
 11  8  1  0  0  0  0
 11  7  2  0  0  0  0
 12 13  1  0  0  0  0
 13  7  1  0  0  0  0
 14 17  1  0  0  0  0
 15 14  2  0  0  0  0
 16 18  1  0  0  0  0
 17 16  2  0  0  0  0
 18 19  1  0  0  0  0
 19 22  1  0  0  0  0
 21 22  2  0  0  0  0
 22 20  1  0  0  0  0
 23 27  1  1  0  0  0
 23 25  1  0  0  0  0
 25 24  2  0  0  0  0
 25 26  1  0  0  0  0
 28 27  1  0  0  0  0
 29 30  1  1  0  0  0
 29 31  1  0  0  0  0
 29 33  1  0  0  0  0
 30 31  1  0  0  0  0
 31 28  1  0  0  0  0
 32 33  1  0  0  0  0
 32 37  1  0  0  0  0
 32 35  1  1  0  0  0
 33 36  1  1  0  0  0
 33 35  1  0  0  0  0
 36 34  1  0  0  0  0
 37 34  1  0  0  0  0
 37 38  1  1  0  0  0
 40 41  1  0  0  0  0
 41 39  1  0  0  0  0
 42 39  1  0  0  0  0
 42 37  1  0  0  0  0
 43 40  1  0  0  0  0
 43 44  1  0  0  0  0
 44 42  1  0  0  0  0
M  END
>  <MODEL>
6

>  <REMARK>
 VINA RESULT:      -6.1      2.653      6.538
  Name = 
  16 active torsions:
  status: ('A' for Active; 'I' for Inactive)
    1  A    between atoms: C_1  and  C_21
    2  A    between atoms: C_4  and  C_37
    3  A    between atoms: C_4  and  C_43
    4  A    between atoms: C_6  and  C_27
    5  A    between atoms: C_7  and  C_9
    6  A    between atoms: C_8  and  O_33
    7  A    between atoms: N_17  and  C_34
    8  A    between atoms: C_19  and  C_43
    9  A    between atoms: C_21  and  N_23
   10  A    between atoms: C_24  and  C_28
   11  A    between atoms: C_24  and  C_43
   12  A    between atoms: C_25  and  C_38
   13  A    between atoms: C_27  and  C_36
   14  A    between atoms: C_28  and  C_38
   15  A    between atoms: N_31  and  C_37
   16  A    between atoms: C_36  and  C_40
                            x       y       z     vdW  Elec       q    Type
                         _______ _______ _______ _____ _____    ______ ____

>  <TORSDO>
F 16

$$$$
=
 OpenBabel11042418473D

 44 48  0  0  1  0  0  0  0  0999 V2000
  190.7380  171.9720  142.1170 C   0  0  0  0  0  1  0  0  0  0  0  0
  189.8290  172.6790  141.1210 C   0  0  1  0  0  3  0  0  0  0  0  0
  189.1440  173.8290  141.8060 C   0  0  0  0  0  0  0  0  0  0  0  0
  188.0870  173.6600  142.3960 O   0  0  0  0  0  0  0  0  0  0  0  0
  189.7460  175.1960  141.7430 C   0  0  0  0  0  2  0  0  0  0  0  0
  188.7910  176.8710  143.4230 C   0  0  0  0  0  0  0  0  0  0  0  0
  190.5560  175.8560  145.3780 C   0  0  0  0  0  0  0  0  0  0  0  0
  188.7660  177.3550  144.7400 C   0  0  0  0  0  3  0  0  0  0  0  0
  189.7140  175.8470  143.0910 C   0  0  0  0  0  0  0  0  0  0  0  0
  190.5830  175.3520  144.0700 C   0  0  0  0  0  3  0  0  0  0  0  0
  189.6400  176.8550  145.7060 C   0  0  0  0  0  3  0  0  0  0  0  0
  191.1640  175.5430  147.7560 C   0  0  0  0  0  1  0  0  0  0  0  0
  191.4210  175.3800  146.3660 O   0  0  0  0  0  0  0  0  0  0  0  0
  187.8480  177.4590  142.4450 C   0  0  0  0  0  0  0  0  0  0  0  0
  188.2680  178.3290  141.6330 O   0  0  0  0  0  0  0  0  0  0  0  0
  185.4390  177.5500  142.9080 C   0  0  0  0  0  3  0  0  0  0  0  0
  186.4880  176.9930  142.3760 N   0  0  0  0  0  0  0  0  0  0  0  0
  185.4800  178.7780  143.7600 C   0  0  0  0  0  2  0  0  0  0  0  0
  184.4260  178.6840  144.8470 C   0  0  0  0  0  2  0  0  0  0  0  0
  184.8130  177.0260  146.5100 O   0  0  0  0  0  0  0  0  0  0  0  0
  185.8940  179.0220  146.8330 O   0  0  0  0  0  1  0  0  0  0  0  0
  185.0420  178.1970  146.1100 C   0  0  0  0  0  0  0  0  0  0  0  0
  190.6090  173.1360  139.8790 C   0  0  2  0  0  3  0  0  0  0  0  0
  189.1400  171.4630  138.7260 O   0  0  0  0  0  1  0  0  0  0  0  0
  190.1150  172.4510  138.6430 C   0  0  0  0  0  0  0  0  0  0  0  0
  190.5740  172.7800  137.5190 O   0  0  0  0  0  0  0  0  0  0  0  0
  192.1020  172.8640  140.0380 C   0  0  0  0  0  2  0  0  0  0  0  0
  192.8650  174.1680  140.1810 C   0  0  0  0  0  2  0  0  0  0  0  0
  195.2410  174.3510  140.8860 C   0  0  2  0  0  3  0  0  0  0  0  0
  194.8790  175.2950  139.8290 C   0  0  0  0  0  2  0  0  0  0  0  0
  194.2670  173.9570  139.8270 N   0  0  0  0  0  0  0  0  0  0  0  0
  195.4320  175.6450  143.0480 C   0  0  1  0  0  3  0  0  0  0  0  0
  194.6240  174.7010  142.2520 C   0  0  1  0  0  0  0  0  0  0  0  0
  194.2070  174.1410  144.5780 C   0  0  0  0  0  2  0  0  0  0  0  0
  194.1990  176.0250  142.4630 O   0  0  0  0  0  0  0  0  0  0  0  0
  194.0190  173.6470  143.1590 C   0  0  0  0  0  2  0  0  0  0  0  0
  195.2520  175.2570  144.5230 C   0  0  2  0  0  0  0  0  0  0  0  0
  194.7130  176.4720  145.2700 C   0  0  0  0  0  1  0  0  0  0  0  0
  196.4300  173.7930  146.1380 C   0  0  0  0  0  2  0  0  0  0  0  0
  197.6570  172.2270  144.7930 O   0  0  0  0  0  0  0  0  0  0  0  0
  196.4750  172.3880  145.5270 C   0  0  0  0  0  2  0  0  0  0  0  0
  196.5540  174.8460  145.1090 N   0  0  0  0  0  0  0  0  0  0  0  0
  197.5320  173.0590  143.6700 C   0  0  0  0  0  2  0  0  0  0  0  0
  197.5900  174.5270  144.1040 C   0  0  0  0  0  2  0  0  0  0  0  0
  2  3  1  0  0  0  0
  2  1  1  1  0  0  0
  3  4  2  0  0  0  0
  5  3  1  0  0  0  0
  5  9  1  0  0  0  0
  6  8  1  0  0  0  0
  7 11  1  0  0  0  0
  7 13  1  0  0  0  0
  8 11  2  0  0  0  0
  9  6  2  0  0  0  0
  9 10  1  0  0  0  0
 10  7  2  0  0  0  0
 13 12  1  0  0  0  0
 14  6  1  0  0  0  0
 15 14  2  0  0  0  0
 16 18  1  0  0  0  0
 17 14  1  0  0  0  0
 17 16  2  0  0  0  0
 18 19  1  0  0  0  0
 19 22  1  0  0  0  0
 22 20  2  0  0  0  0
 22 21  1  0  0  0  0
 23 27  1  1  0  0  0
 23  2  1  0  0  0  0
 25 24  1  0  0  0  0
 25 23  1  0  0  0  0
 26 25  2  0  0  0  0
 27 28  1  0  0  0  0
 29 30  1  6  0  0  0
 29 33  1  0  0  0  0
 31 30  1  0  0  0  0
 31 28  1  0  0  0  0
 31 29  1  0  0  0  0
 32 35  1  1  0  0  0
 32 37  1  0  0  0  0
 33 35  1  0  0  0  0
 33 32  1  0  0  0  0
 33 36  1  1  0  0  0
 36 34  1  0  0  0  0
 37 34  1  0  0  0  0
 37 42  1  0  0  0  0
 37 38  1  1  0  0  0
 40 41  1  0  0  0  0
 41 39  1  0  0  0  0
 42 39  1  0  0  0  0
 43 44  1  0  0  0  0
 43 40  1  0  0  0  0
 44 42  1  0  0  0  0
M  END
>  <MODEL>
7

>  <REMARK>
 VINA RESULT:      -6.1      2.252      5.375
  Name = 
  16 active torsions:
  status: ('A' for Active; 'I' for Inactive)
    1  A    between atoms: C_1  and  C_21
    2  A    between atoms: C_4  and  C_37
    3  A    between atoms: C_4  and  C_43
    4  A    between atoms: C_6  and  C_27
    5  A    between atoms: C_7  and  C_9
    6  A    between atoms: C_8  and  O_33
    7  A    between atoms: N_17  and  C_34
    8  A    between atoms: C_19  and  C_43
    9  A    between atoms: C_21  and  N_23
   10  A    between atoms: C_24  and  C_28
   11  A    between atoms: C_24  and  C_43
   12  A    between atoms: C_25  and  C_38
   13  A    between atoms: C_27  and  C_36
   14  A    between atoms: C_28  and  C_38
   15  A    between atoms: N_31  and  C_37
   16  A    between atoms: C_36  and  C_40
                            x       y       z     vdW  Elec       q    Type
                         _______ _______ _______ _____ _____    ______ ____

>  <TORSDO>
F 16

$$$$
=
 OpenBabel11042418473D

 44 48  0  0  1  0  0  0  0  0999 V2000
  189.0850  172.3780  142.6500 C   0  0  0  0  0  1  0  0  0  0  0  0
  189.3570  173.6820  141.9120 C   0  0  1  0  0  3  0  0  0  0  0  0
  189.9770  174.6670  142.8640 C   0  0  0  0  0  0  0  0  0  0  0  0
  190.6020  175.6280  142.4410 O   0  0  0  0  0  0  0  0  0  0  0  0
  189.8530  174.4550  144.3380 C   0  0  0  0  0  2  0  0  0  0  0  0
  191.2750  176.0540  145.7390 C   0  0  0  0  0  0  0  0  0  0  0  0
  193.3530  174.1450  145.7380 C   0  0  0  0  0  0  0  0  0  0  0  0
  192.4660  176.2840  146.4440 C   0  0  0  0  0  3  0  0  0  0  0  0
  191.1240  174.8340  145.0330 C   0  0  0  0  0  0  0  0  0  0  0  0
  192.1630  173.8950  145.0420 C   0  0  0  0  0  3  0  0  0  0  0  0
  193.4950  175.3410  146.4420 C   0  0  0  0  0  3  0  0  0  0  0  0
  194.1950  171.8210  145.6240 C   0  0  0  0  0  1  0  0  0  0  0  0
  194.4030  173.2230  145.7520 O   0  0  0  0  0  0  0  0  0  0  0  0
  190.2320  177.1060  145.7690 C   0  0  0  0  0  0  0  0  0  0  0  0
  190.1580  177.9250  144.8120 O   0  0  0  0  0  0  0  0  0  0  0  0
  187.9860  176.9790  146.7520 C   0  0  0  0  0  3  0  0  0  0  0  0
  189.2740  177.1480  146.8420 N   0  0  0  0  0  0  0  0  0  0  0  0
  187.2540  176.7640  145.4660 C   0  0  0  0  0  2  0  0  0  0  0  0
  185.7850  177.0960  145.6500 C   0  0  0  0  0  2  0  0  0  0  0  0
  185.8830  179.3640  144.9380 O   0  0  0  0  0  0  0  0  0  0  0  0
  185.1400  179.0320  147.0810 O   0  0  0  0  0  1  0  0  0  0  0  0
  185.6180  178.5570  145.8660 C   0  0  0  0  0  0  0  0  0  0  0  0
  190.2380  173.4500  140.6760 C   0  0  2  0  0  3  0  0  0  0  0  0
  190.1270  173.6550  138.1780 O   0  0  0  0  0  0  0  0  0  0  0  0
  189.4970  173.7670  139.4130 C   0  0  0  0  0  0  0  0  0  0  0  0
  188.2920  174.1250  139.4670 O   0  0  0  0  0  1  0  0  0  0  0  0
  190.7320  172.0080  140.6150 C   0  0  0  0  0  2  0  0  0  0  0  0
  192.2470  171.9700  140.5430 C   0  0  0  0  0  2  0  0  0  0  0  0
  194.1010  172.4900  142.1130 C   0  0  2  0  0  3  0  0  0  0  0  0
  194.0720  171.0870  141.7020 C   0  0  0  0  0  2  0  0  0  0  0  0
  192.7980  171.8010  141.8850 N   0  0  0  0  0  0  0  0  0  0  0  0
  196.0100  173.6150  140.8980 C   0  0  1  0  0  3  0  0  0  0  0  0
  194.5470  173.4450  140.9900 C   0  0  1  0  0  0  0  0  0  0  0  0
  194.9060  175.7000  140.1640 C   0  0  0  0  0  2  0  0  0  0  0  0
  195.2780  172.9030  139.9170 O   0  0  0  0  0  0  0  0  0  0  0  0
  193.8560  174.7690  140.7330 C   0  0  0  0  0  2  0  0  0  0  0  0
  196.2660  175.0650  140.4580 C   0  0  2  0  0  0  0  0  0  0  0  0
  197.0810  175.0310  139.1690 C   0  0  0  0  0  1  0  0  0  0  0  0
  196.1980  176.7750  142.2490 C   0  0  0  0  0  2  0  0  0  0  0  0
  196.4500  175.5530  144.3000 O   0  0  0  0  0  0  0  0  0  0  0  0
  195.4990  176.1410  143.4550 C   0  0  0  0  0  2  0  0  0  0  0  0
  197.0200  175.7950  141.5090 N   0  0  0  0  0  0  0  0  0  0  0  0
  196.9530  174.4440  143.6050 C   0  0  0  0  0  2  0  0  0  0  0  0
  197.7920  174.9170  142.4130 C   0  0  0  0  0  2  0  0  0  0  0  0
  2  1  1  1  0  0  0
  2  3  1  0  0  0  0
  3  5  1  0  0  0  0
  4  3  2  0  0  0  0
  5  9  1  0  0  0  0
  6 14  1  0  0  0  0
  6  8  1  0  0  0  0
  7 13  1  0  0  0  0
  7 11  1  0  0  0  0
  9 10  1  0  0  0  0
  9  6  2  0  0  0  0
 10  7  2  0  0  0  0
 11  8  2  0  0  0  0
 12 13  1  0  0  0  0
 14 17  1  0  0  0  0
 15 14  2  0  0  0  0
 16 17  2  0  0  0  0
 18 19  1  0  0  0  0
 18 16  1  0  0  0  0
 19 22  1  0  0  0  0
 20 22  2  0  0  0  0
 22 21  1  0  0  0  0
 23 27  1  6  0  0  0
 23  2  1  0  0  0  0
 24 25  2  0  0  0  0
 25 26  1  0  0  0  0
 25 23  1  0  0  0  0
 28 27  1  0  0  0  0
 28 31  1  0  0  0  0
 29 30  1  6  0  0  0
 30 31  1  0  0  0  0
 31 29  1  0  0  0  0
 32 35  1  6  0  0  0
 32 33  1  0  0  0  0
 33 36  1  6  0  0  0
 33 29  1  0  0  0  0
 34 37  1  0  0  0  0
 34 36  1  0  0  0  0
 35 33  1  0  0  0  0
 37 38  1  6  0  0  0
 37 32  1  0  0  0  0
 37 42  1  0  0  0  0
 39 41  1  0  0  0  0
 41 40  1  0  0  0  0
 42 39  1  0  0  0  0
 42 44  1  0  0  0  0
 43 40  1  0  0  0  0
 44 43  1  0  0  0  0
M  END
>  <MODEL>
8

>  <REMARK>
 VINA RESULT:      -6.1      1.926      4.929
  Name = 
  16 active torsions:
  status: ('A' for Active; 'I' for Inactive)
    1  A    between atoms: C_1  and  C_21
    2  A    between atoms: C_4  and  C_37
    3  A    between atoms: C_4  and  C_43
    4  A    between atoms: C_6  and  C_27
    5  A    between atoms: C_7  and  C_9
    6  A    between atoms: C_8  and  O_33
    7  A    between atoms: N_17  and  C_34
    8  A    between atoms: C_19  and  C_43
    9  A    between atoms: C_21  and  N_23
   10  A    between atoms: C_24  and  C_28
   11  A    between atoms: C_24  and  C_43
   12  A    between atoms: C_25  and  C_38
   13  A    between atoms: C_27  and  C_36
   14  A    between atoms: C_28  and  C_38
   15  A    between atoms: N_31  and  C_37
   16  A    between atoms: C_36  and  C_40
                            x       y       z     vdW  Elec       q    Type
                         _______ _______ _______ _____ _____    ______ ____

>  <TORSDO>
F 16

$$$$
=
 OpenBabel11042418473D

 44 48  0  0  1  0  0  0  0  0999 V2000
  193.8370  173.2530  145.7450 C   0  0  0  0  0  1  0  0  0  0  0  0
  194.2490  174.3910  144.8220 C   0  0  1  0  0  3  0  0  0  0  0  0
  193.9050  174.0270  143.4040 C   0  0  0  0  0  0  0  0  0  0  0  0
  194.7490  173.5420  142.6660 O   0  0  0  0  0  0  0  0  0  0  0  0
  192.5270  174.2880  142.8850 C   0  0  0  0  0  2  0  0  0  0  0  0
  191.8220  172.0910  141.7820 C   0  0  0  0  0  0  0  0  0  0  0  0
  192.0220  173.3390  139.2580 C   0  0  0  0  0  0  0  0  0  0  0  0
  191.4900  171.4000  140.6060 C   0  0  0  0  0  3  0  0  0  0  0  0
  192.2500  173.4390  141.6830 C   0  0  0  0  0  0  0  0  0  0  0  0
  192.3440  174.0470  140.4250 C   0  0  0  0  0  3  0  0  0  0  0  0
  191.5900  172.0170  139.3580 C   0  0  0  0  0  3  0  0  0  0  0  0
  192.7670  173.2920  136.8990 C   0  0  0  0  0  1  0  0  0  0  0  0
  192.1170  173.9270  137.9950 O   0  0  0  0  0  0  0  0  0  0  0  0
  191.7090  171.3690  143.0700 C   0  0  0  0  0  0  0  0  0  0  0  0
  192.3920  170.3240  143.2510 O   0  0  0  0  0  0  0  0  0  0  0  0
  189.6430  172.2750  144.0400 C   0  0  0  0  0  3  0  0  0  0  0  0
  190.8860  171.8950  144.1270 N   0  0  0  0  0  0  0  0  0  0  0  0
  188.8540  172.2840  142.7710 C   0  0  0  0  0  2  0  0  0  0  0  0
  188.3480  173.6870  142.4910 C   0  0  0  0  0  2  0  0  0  0  0  0
  188.4800  175.1430  140.6140 O   0  0  0  0  0  1  0  0  0  0  0  0
  188.3560  172.9070  140.1240 O   0  0  0  0  0  0  0  0  0  0  0  0
  188.3880  173.9590  141.0300 C   0  0  0  0  0  0  0  0  0  0  0  0
  193.5990  175.7170  145.2460 C   0  0  2  0  0  3  0  0  0  0  0  0
  195.6330  176.9660  144.4760 O   0  0  0  0  0  0  0  0  0  0  0  0
  194.6240  176.7950  145.4170 C   0  0  0  0  0  0  0  0  0  0  0  0
  194.5660  177.5620  146.4130 O   0  0  0  0  0  1  0  0  0  0  0  0
  192.8210  175.5560  146.5480 C   0  0  0  0  0  2  0  0  0  0  0  0
  191.3630  175.9230  146.3430 C   0  0  0  0  0  2  0  0  0  0  0  0
  189.0700  174.9660  146.3180 C   0  0  2  0  0  3  0  0  0  0  0  0
  189.7010  174.9160  147.6370 C   0  0  0  0  0  2  0  0  0  0  0  0
  190.5370  174.7220  146.4420 N   0  0  0  0  0  0  0  0  0  0  0  0
  187.2850  176.7520  146.2340 C   0  0  1  0  0  3  0  0  0  0  0  0
  188.6730  176.3890  145.8870 C   0  0  1  0  0  0  0  0  0  0  0  0
  187.9380  177.9400  144.1680 C   0  0  0  0  0  2  0  0  0  0  0  0
  188.3960  177.3300  146.8960 O   0  0  0  0  0  0  0  0  0  0  0  0
  189.0270  176.9500  144.5240 C   0  0  0  0  0  2  0  0  0  0  0  0
  186.7670  177.6670  145.1140 C   0  0  2  0  0  0  0  0  0  0  0  0
  186.3280  178.9850  145.7450 C   0  0  0  0  0  1  0  0  0  0  0  0
  184.4390  177.9210  144.3060 C   0  0  0  0  0  2  0  0  0  0  0  0
  184.6010  177.9430  141.9110 O   0  0  0  0  0  0  0  0  0  0  0  0
  184.4910  178.7740  143.0340 C   0  0  0  0  0  2  0  0  0  0  0  0
  185.6140  177.0340  144.4250 N   0  0  0  0  0  0  0  0  0  0  0  0
  185.8830  177.3790  141.9690 C   0  0  0  0  0  2  0  0  0  0  0  0
  185.9620  176.3930  143.1390 C   0  0  0  0  0  2  0  0  0  0  0  0
  2 23  1  0  0  0  0
  2  1  1  1  0  0  0
  3  2  1  0  0  0  0
  4  3  2  0  0  0  0
  5  3  1  0  0  0  0
  6 14  1  0  0  0  0
  7 11  2  0  0  0  0
  7 10  1  0  0  0  0
  8  6  2  0  0  0  0
  9  6  1  0  0  0  0
  9  5  1  0  0  0  0
 10  9  2  0  0  0  0
 11  8  1  0  0  0  0
 12 13  1  0  0  0  0
 13  7  1  0  0  0  0
 14 15  2  0  0  0  0
 14 17  1  0  0  0  0
 16 17  2  0  0  0  0
 18 16  1  0  0  0  0
 19 18  1  0  0  0  0
 20 22  1  0  0  0  0
 21 22  2  0  0  0  0
 22 19  1  0  0  0  0
 23 25  1  0  0  0  0
 23 27  1  1  0  0  0
 24 25  2  0  0  0  0
 25 26  1  0  0  0  0
 28 31  1  0  0  0  0
 28 27  1  0  0  0  0
 29 31  1  0  0  0  0
 29 30  1  1  0  0  0
 31 30  1  0  0  0  0
 32 35  1  1  0  0  0
 33 36  1  6  0  0  0
 33 32  1  0  0  0  0
 33 29  1  0  0  0  0
 33 35  1  0  0  0  0
 34 36  1  0  0  0  0
 34 37  1  0  0  0  0
 37 38  1  1  0  0  0
 37 32  1  0  0  0  0
 39 42  1  0  0  0  0
 40 43  1  0  0  0  0
 40 41  1  0  0  0  0
 41 39  1  0  0  0  0
 42 37  1  0  0  0  0
 43 44  1  0  0  0  0
 44 42  1  0  0  0  0
M  END
>  <MODEL>
9

>  <REMARK>
 VINA RESULT:      -6.1      2.216      8.584
  Name = 
  16 active torsions:
  status: ('A' for Active; 'I' for Inactive)
    1  A    between atoms: C_1  and  C_21
    2  A    between atoms: C_4  and  C_37
    3  A    between atoms: C_4  and  C_43
    4  A    between atoms: C_6  and  C_27
    5  A    between atoms: C_7  and  C_9
    6  A    between atoms: C_8  and  O_33
    7  A    between atoms: N_17  and  C_34
    8  A    between atoms: C_19  and  C_43
    9  A    between atoms: C_21  and  N_23
   10  A    between atoms: C_24  and  C_28
   11  A    between atoms: C_24  and  C_43
   12  A    between atoms: C_25  and  C_38
   13  A    between atoms: C_27  and  C_36
   14  A    between atoms: C_28  and  C_38
   15  A    between atoms: N_31  and  C_37
   16  A    between atoms: C_36  and  C_40
                            x       y       z     vdW  Elec       q    Type
                         _______ _______ _______ _____ _____    ______ ____

>  <TORSDO>
F 16

$$$$
