=
 OpenBabel11042417053D

 44 47  0  0  1  0  0  0  0  0999 V2000
  188.4440  175.0110  140.9300 C   0  0  0  0  0  0  0  0  0  0  0  0
  190.0980  173.0700  141.1610 C   0  0  0  0  0  0  0  0  0  0  0  0
  188.6360  175.4530  142.0930 O   0  0  0  0  0  0  0  0  0  0  0  0
  190.2850  171.8300  140.8280 N   0  0  0  0  0  0  0  0  0  0  0  0
  189.0730  173.8060  140.4800 N   0  0  0  0  0  2  0  0  0  0  0  0
  187.5090  175.7270  140.0230 C   0  0  0  0  0  1  0  0  0  0  0  0
  190.9980  173.7070  142.1440 C   0  0  0  0  0  3  0  0  0  0  0  0
  190.7750  173.3000  144.7130 C   0  0  0  0  0  3  0  0  0  0  0  0
  190.8940  173.4820  143.4240 C   0  0  0  0  0  0  0  0  0  0  0  0
  190.9210  175.8420  147.4980 C   0  0  0  0  0  3  0  0  0  0  0  0
  189.7310  176.4720  147.3170 N   0  0  0  0  0  0  0  0  0  0  0  0
  188.8700  176.1150  146.3220 C   0  0  0  0  0  0  0  0  0  0  0  0
  190.4340  174.4020  145.6240 C   0  0  0  0  0  0  0  0  0  0  0  0
  191.2960  174.7970  146.6560 C   0  0  0  0  0  3  0  0  0  0  0  0
  189.2180  175.0640  145.4600 C   0  0  0  0  0  3  0  0  0  0  0  0
  187.5840  176.8270  146.1670 C   0  0  0  0  0  0  0  0  0  0  0  0
  185.6060  178.8890  143.8420 N   0  0  0  0  0  0  0  0  0  0  0  0
  185.1660  178.1760  145.8840 C   0  0  0  0  0  0  0  0  0  0  0  0
  186.6280  176.8280  147.2150 C   0  0  0  0  0  3  0  0  0  0  0  0
  184.3840  179.3490  144.1890 C   0  0  0  0  0  3  0  0  0  0  0  0
  186.2410  179.1130  142.6430 O   0  0  0  0  0  1  0  0  0  0  0  0
  184.0660  178.9160  145.4820 C   0  0  0  0  0  3  0  0  0  0  0  0
  187.3010  177.5170  144.9670 C   0  0  0  0  0  3  0  0  0  0  0  0
  186.0800  178.1790  144.8700 C   0  0  0  0  0  0  0  0  0  0  0  0
  185.4020  177.5050  147.0800 C   0  0  0  0  0  3  0  0  0  0  0  0
  191.3200  171.0650  141.3820 N   0  0  0  0  0  2  0  0  0  0  0  0
  191.1680  169.6850  141.5940 N   0  0  0  0  0  2  0  0  0  0  0  0
  192.1330  169.2690  142.6070 C   0  0  0  0  0  2  0  0  0  0  0  0
  193.9410  171.5820  145.0460 N   0  0  0  0  0  2  0  0  0  0  0  0
  192.4680  170.3800  143.4860 N   0  0  0  0  0  2  0  0  0  0  0  0
  193.7490  170.5380  144.0920 C   0  0  0  0  0  0  0  0  0  0  0  0
  194.7010  169.7700  143.7830 O   0  0  0  0  0  0  0  0  0  0  0  0
  195.2420  171.8830  145.6200 C   0  0  0  0  0  2  0  0  0  0  0  0
  195.9130  172.8870  144.8070 N   0  0  0  0  0  0  0  0  0  0  0  0
  193.8120  176.8730  145.1190 C   0  0  0  0  0  3  0  0  0  0  0  0
  195.3700  174.2190  144.7210 C   0  0  0  0  0  0  0  0  0  0  0  0
  192.3380  177.0340  143.2320 N   0  0  0  0  0  1  0  0  0  0  0  0
  195.1640  174.9170  145.8540 C   0  0  0  0  0  3  0  0  0  0  0  0
  194.6520  176.2950  145.9760 C   0  0  0  0  0  3  0  0  0  0  0  0
  195.2090  174.8070  143.4130 N   0  0  0  0  0  0  0  0  0  0  0  0
  193.2300  176.1480  143.9580 C   0  0  1  0  0  3  0  0  0  0  0  0
  194.3090  175.6690  143.0460 C   0  0  0  0  0  3  0  0  0  0  0  0
  197.7420  171.2560  144.8230 C   0  0  0  0  0  1  0  0  0  0  0  0
  197.1790  172.5100  144.1790 C   0  0  0  0  0  2  0  0  0  0  0  0
  1  3  2  0  0  0  0
  2  7  1  0  0  0  0
  4  2  2  0  0  0  0
  4 26  1  0  0  0  0
  5  1  1  0  0  0  0
  5  2  1  0  0  0  0
  6  1  1  0  0  0  0
  7  9  2  0  0  0  0
  8 13  1  0  0  0  0
  9  8  2  0  0  0  0
 11 10  1  0  0  0  0
 12 11  2  0  0  0  0
 13 14  1  0  0  0  0
 14 10  2  0  0  0  0
 15 13  2  0  0  0  0
 15 12  1  0  0  0  0
 16 12  1  0  0  0  0
 16 19  1  0  0  0  0
 17 20  1  0  0  0  0
 17 24  1  0  0  0  0
 18 25  1  0  0  0  0
 20 22  2  0  0  0  0
 21 17  1  0  0  0  0
 22 18  1  0  0  0  0
 23 16  2  0  0  0  0
 24 23  1  0  0  0  0
 24 18  2  0  0  0  0
 25 19  2  0  0  0  0
 26 27  1  0  0  0  0
 27 28  1  0  0  0  0
 28 30  1  0  0  0  0
 29 33  1  0  0  0  0
 30 31  1  0  0  0  0
 31 29  1  0  0  0  0
 32 31  2  0  0  0  0
 34 33  1  0  0  0  0
 35 39  2  0  0  0  0
 36 34  1  0  0  0  0
 36 38  2  0  0  0  0
 38 39  1  0  0  0  0
 40 36  1  0  0  0  0
 41 37  1  6  0  0  0
 41 35  1  0  0  0  0
 42 40  2  0  0  0  0
 42 41  1  0  0  0  0
 44 34  1  0  0  0  0
 44 43  1  0  0  0  0
M  END
>  <MODEL>
1

>  <REMARK>
 VINA RESULT:      -7.7      0.000      0.000
  Name = 
  11 active torsions:
  status: ('A' for Active; 'I' for Inactive)
    1  A    between atoms: N_1  and  C_41
    2  A    between atoms: N_2  and  N_12
    3  A    between atoms: N_2  and  C_43
    4  A    between atoms: C_4  and  N_25
    5  A    between atoms: C_5  and  C_24
    6  A    between atoms: N_8  and  C_43
    7  A    between atoms: N_12  and  N_32
    8  A    between atoms: C_15  and  C_22
    9  A    between atoms: C_17  and  N_25
   10  A    between atoms: N_25  and  C_41
   11  A    between atoms: C_30  and  C_31
                            x       y       z     vdW  Elec       q    Type
                         _______ _______ _______ _____ _____    ______ ____

>  <TORSDO>
F 11

$$$$
=
 OpenBabel11042417053D

 44 47  0  0  1  0  0  0  0  0999 V2000
  191.3880  169.9700  142.0130 C   0  0  0  0  0  0  0  0  0  0  0  0
  189.9090  172.0340  142.3430 C   0  0  0  0  0  0  0  0  0  0  0  0
  192.4730  170.5890  142.1770 O   0  0  0  0  0  0  0  0  0  0  0  0
  188.8200  172.6000  141.9220 N   0  0  0  0  0  0  0  0  0  0  0  0
  190.1330  170.6600  142.0020 N   0  0  0  0  0  2  0  0  0  0  0  0
  191.4140  168.5020  141.7790 C   0  0  0  0  0  1  0  0  0  0  0  0
  190.8240  172.7790  143.2330 C   0  0  0  0  0  3  0  0  0  0  0  0
  190.2950  173.1850  145.7570 C   0  0  0  0  0  3  0  0  0  0  0  0
  190.5640  172.9590  144.4970 C   0  0  0  0  0  0  0  0  0  0  0  0
  190.8480  176.4990  147.4770 C   0  0  0  0  0  3  0  0  0  0  0  0
  189.6520  177.0990  147.2390 N   0  0  0  0  0  0  0  0  0  0  0  0
  188.6610  176.4800  146.5380 C   0  0  0  0  0  0  0  0  0  0  0  0
  190.0940  174.5460  146.2750 C   0  0  0  0  0  0  0  0  0  0  0  0
  191.0920  175.2130  146.9990 C   0  0  0  0  0  3  0  0  0  0  0  0
  188.8760  175.1840  146.0460 C   0  0  0  0  0  3  0  0  0  0  0  0
  187.3750  177.1720  146.3090 C   0  0  0  0  0  0  0  0  0  0  0  0
  185.3060  178.7950  143.7290 N   0  0  0  0  0  0  0  0  0  0  0  0
  184.9570  178.4860  145.8850 C   0  0  0  0  0  0  0  0  0  0  0  0
  186.4690  177.3870  147.3800 C   0  0  0  0  0  3  0  0  0  0  0  0
  184.1060  179.3320  144.0370 C   0  0  0  0  0  3  0  0  0  0  0  0
  185.8850  178.7780  142.4810 O   0  0  0  0  0  1  0  0  0  0  0  0
  183.8460  179.1550  145.4010 C   0  0  0  0  0  3  0  0  0  0  0  0
  187.0410  177.6290  145.0140 C   0  0  0  0  0  3  0  0  0  0  0  0
  185.8220  178.2820  144.8490 C   0  0  0  0  0  0  0  0  0  0  0  0
  185.2440  178.0470  147.1750 C   0  0  0  0  0  3  0  0  0  0  0  0
  188.4830  173.9120  142.2820 N   0  0  0  0  0  2  0  0  0  0  0  0
  188.5960  174.9680  141.3630 N   0  0  0  0  0  2  0  0  0  0  0  0
  189.2980  176.0680  142.0140 C   0  0  0  0  0  2  0  0  0  0  0  0
  192.7970  175.9910  143.5380 N   0  0  0  0  0  2  0  0  0  0  0  0
  190.6490  175.6690  142.3840 N   0  0  0  0  0  2  0  0  0  0  0  0
  191.4360  176.3750  143.3420 C   0  0  0  0  0  0  0  0  0  0  0  0
  190.9340  177.3180  144.0110 O   0  0  0  0  0  0  0  0  0  0  0  0
  193.6300  176.5780  144.5740 C   0  0  0  0  0  2  0  0  0  0  0  0
  194.9660  176.0050  144.5090 N   0  0  0  0  0  0  0  0  0  0  0  0
  196.3550  171.9560  145.9510 C   0  0  0  0  0  3  0  0  0  0  0  0
  195.2260  174.7220  145.1120 C   0  0  0  0  0  0  0  0  0  0  0  0
  194.7400  170.3530  145.1890 N   0  0  0  0  0  1  0  0  0  0  0  0
  196.4960  174.3800  145.4010 C   0  0  0  0  0  3  0  0  0  0  0  0
  196.9630  173.1370  146.0450 C   0  0  0  0  0  3  0  0  0  0  0  0
  194.0990  173.9180  145.5180 N   0  0  0  0  0  0  0  0  0  0  0  0
  195.1500  171.7430  145.1050 C   0  0  1  0  0  3  0  0  0  0  0  0
  194.0330  172.6210  145.5560 C   0  0  0  0  0  3  0  0  0  0  0  0
  195.9820  176.2730  142.2960 C   0  0  0  0  0  1  0  0  0  0  0  0
  195.9760  176.7340  143.7410 C   0  0  0  0  0  2  0  0  0  0  0  0
  1  3  2  0  0  0  0
  2  7  1  0  0  0  0
  4 26  1  0  0  0  0
  4  2  2  0  0  0  0
  5  1  1  0  0  0  0
  5  2  1  0  0  0  0
  6  1  1  0  0  0  0
  7  9  2  0  0  0  0
  8 13  1  0  0  0  0
  9  8  2  0  0  0  0
 11 10  1  0  0  0  0
 12 11  2  0  0  0  0
 13 14  1  0  0  0  0
 14 10  2  0  0  0  0
 15 13  2  0  0  0  0
 15 12  1  0  0  0  0
 16 12  1  0  0  0  0
 16 19  1  0  0  0  0
 17 20  1  0  0  0  0
 17 24  1  0  0  0  0
 18 25  1  0  0  0  0
 20 22  2  0  0  0  0
 21 17  1  0  0  0  0
 22 18  1  0  0  0  0
 23 16  2  0  0  0  0
 24 23  1  0  0  0  0
 24 18  2  0  0  0  0
 25 19  2  0  0  0  0
 27 28  1  0  0  0  0
 27 26  1  0  0  0  0
 28 30  1  0  0  0  0
 29 33  1  0  0  0  0
 30 31  1  0  0  0  0
 31 29  1  0  0  0  0
 31 32  2  0  0  0  0
 34 33  1  0  0  0  0
 34 36  1  0  0  0  0
 35 39  2  0  0  0  0
 36 38  2  0  0  0  0
 36 40  1  0  0  0  0
 38 39  1  0  0  0  0
 40 42  2  0  0  0  0
 41 37  1  1  0  0  0
 41 42  1  0  0  0  0
 41 35  1  0  0  0  0
 43 44  1  0  0  0  0
 44 34  1  0  0  0  0
M  END
>  <MODEL>
2

>  <REMARK>
 VINA RESULT:      -7.7      1.440      3.951
  Name = 
  11 active torsions:
  status: ('A' for Active; 'I' for Inactive)
    1  A    between atoms: N_1  and  C_41
    2  A    between atoms: N_2  and  N_12
    3  A    between atoms: N_2  and  C_43
    4  A    between atoms: C_4  and  N_25
    5  A    between atoms: C_5  and  C_24
    6  A    between atoms: N_8  and  C_43
    7  A    between atoms: N_12  and  N_32
    8  A    between atoms: C_15  and  C_22
    9  A    between atoms: C_17  and  N_25
   10  A    between atoms: N_25  and  C_41
   11  A    between atoms: C_30  and  C_31
                            x       y       z     vdW  Elec       q    Type
                         _______ _______ _______ _____ _____    ______ ____

>  <TORSDO>
F 11

$$$$
=
 OpenBabel11042417053D

 44 47  0  0  1  0  0  0  0  0999 V2000
  185.4560  178.3160  145.7330 C   0  0  0  0  0  0  0  0  0  0  0  0
  187.3610  176.6370  146.0600 C   0  0  0  0  0  0  0  0  0  0  0  0
  186.1170  179.0830  144.9830 O   0  0  0  0  0  0  0  0  0  0  0  0
  187.9060  175.8540  146.9390 N   0  0  0  0  0  0  0  0  0  0  0  0
  186.0590  177.1690  146.3400 N   0  0  0  0  0  2  0  0  0  0  0  0
  184.0350  178.6360  146.0310 C   0  0  0  0  0  1  0  0  0  0  0  0
  188.0430  176.8740  144.7710 C   0  0  0  0  0  3  0  0  0  0  0  0
  187.5860  175.4100  142.6580 C   0  0  0  0  0  3  0  0  0  0  0  0
  187.7940  176.1530  143.7140 C   0  0  0  0  0  0  0  0  0  0  0  0
  189.7410  173.5490  140.1800 C   0  0  0  0  0  3  0  0  0  0  0  0
  190.6680  173.0130  141.0170 N   0  0  0  0  0  0  0  0  0  0  0  0
  190.6350  173.2280  142.3630 C   0  0  0  0  0  0  0  0  0  0  0  0
  188.6510  174.5860  142.0680 C   0  0  0  0  0  0  0  0  0  0  0  0
  188.7170  174.3450  140.6890 C   0  0  0  0  0  3  0  0  0  0  0  0
  189.6140  174.0240  142.9050 C   0  0  0  0  0  3  0  0  0  0  0  0
  191.6630  172.6200  143.2340 C   0  0  0  0  0  0  0  0  0  0  0  0
  193.7620  169.6270  143.6880 N   0  0  0  0  0  0  0  0  0  0  0  0
  193.5910  171.4740  144.8830 C   0  0  0  0  0  0  0  0  0  0  0  0
  192.1370  173.3080  144.3810 C   0  0  0  0  0  3  0  0  0  0  0  0
  194.6130  169.5270  144.7320 C   0  0  0  0  0  3  0  0  0  0  0  0
  193.5740  168.6810  142.7080 O   0  0  0  0  0  1  0  0  0  0  0  0
  194.5350  170.6840  145.5170 C   0  0  0  0  0  3  0  0  0  0  0  0
  192.1800  171.3420  142.9260 C   0  0  0  0  0  3  0  0  0  0  0  0
  193.1420  170.8070  143.7800 C   0  0  0  0  0  0  0  0  0  0  0  0
  193.1120  172.7370  145.2190 C   0  0  0  0  0  3  0  0  0  0  0  0
  189.1350  175.2240  146.7070 N   0  0  0  0  0  2  0  0  0  0  0  0
  190.2320  175.4390  147.5580 N   0  0  0  0  0  2  0  0  0  0  0  0
  190.9950  176.5720  147.0430 C   0  0  0  0  0  2  0  0  0  0  0  0
  194.5420  176.0120  145.7510 N   0  0  0  0  0  2  0  0  0  0  0  0
  192.4100  176.2430  146.9550 N   0  0  0  0  0  2  0  0  0  0  0  0
  193.2000  176.4950  145.7940 C   0  0  0  0  0  0  0  0  0  0  0  0
  192.7200  177.1410  144.8230 O   0  0  0  0  0  0  0  0  0  0  0  0
  195.4480  176.3270  144.6580 C   0  0  0  0  0  2  0  0  0  0  0  0
  195.9610  175.0940  144.0800 N   0  0  0  0  0  0  0  0  0  0  0  0
  194.6230  173.1140  140.2470 C   0  0  0  0  0  3  0  0  0  0  0  0
  195.3190  174.5240  142.9230 C   0  0  0  0  0  0  0  0  0  0  0  0
  193.8720  174.8630  138.7840 N   0  0  0  0  0  1  0  0  0  0  0  0
  195.7430  173.3330  142.4590 C   0  0  0  0  0  3  0  0  0  0  0  0
  195.2000  172.5720  141.3180 C   0  0  0  0  0  3  0  0  0  0  0  0
  194.1480  175.1830  142.3980 N   0  0  0  0  0  0  0  0  0  0  0  0
  194.5260  174.5860  140.0500 C   0  0  1  0  0  3  0  0  0  0  0  0
  193.7530  175.2120  141.1600 C   0  0  0  0  0  3  0  0  0  0  0  0
  196.8470  173.6340  145.8370 C   0  0  0  0  0  1  0  0  0  0  0  0
  197.1810  174.5330  144.6610 C   0  0  0  0  0  2  0  0  0  0  0  0
  1  6  1  0  0  0  0
  1  5  1  0  0  0  0
  2  5  1  0  0  0  0
  2  4  2  0  0  0  0
  3  1  2  0  0  0  0
  7  2  1  0  0  0  0
  8  9  2  0  0  0  0
  9  7  2  0  0  0  0
 10 14  2  0  0  0  0
 10 11  1  0  0  0  0
 11 12  2  0  0  0  0
 12 15  1  0  0  0  0
 12 16  1  0  0  0  0
 13  8  1  0  0  0  0
 13 15  2  0  0  0  0
 14 13  1  0  0  0  0
 16 19  1  0  0  0  0
 17 24  1  0  0  0  0
 17 20  1  0  0  0  0
 18 25  1  0  0  0  0
 18 22  1  0  0  0  0
 19 25  2  0  0  0  0
 20 22  2  0  0  0  0
 21 17  1  0  0  0  0
 23 16  2  0  0  0  0
 23 24  1  0  0  0  0
 24 18  2  0  0  0  0
 26  4  1  0  0  0  0
 26 27  1  0  0  0  0
 28 27  1  0  0  0  0
 29 31  1  0  0  0  0
 30 28  1  0  0  0  0
 31 30  1  0  0  0  0
 32 31  2  0  0  0  0
 33 29  1  0  0  0  0
 34 33  1  0  0  0  0
 34 44  1  0  0  0  0
 35 39  2  0  0  0  0
 36 34  1  0  0  0  0
 38 36  2  0  0  0  0
 39 38  1  0  0  0  0
 40 36  1  0  0  0  0
 41 37  1  6  0  0  0
 41 35  1  0  0  0  0
 41 42  1  0  0  0  0
 42 40  2  0  0  0  0
 44 43  1  0  0  0  0
M  END
>  <MODEL>
3

>  <REMARK>
 VINA RESULT:      -7.6      2.094      7.161
  Name = 
  11 active torsions:
  status: ('A' for Active; 'I' for Inactive)
    1  A    between atoms: N_1  and  C_41
    2  A    between atoms: N_2  and  N_12
    3  A    between atoms: N_2  and  C_43
    4  A    between atoms: C_4  and  N_25
    5  A    between atoms: C_5  and  C_24
    6  A    between atoms: N_8  and  C_43
    7  A    between atoms: N_12  and  N_32
    8  A    between atoms: C_15  and  C_22
    9  A    between atoms: C_17  and  N_25
   10  A    between atoms: N_25  and  C_41
   11  A    between atoms: C_30  and  C_31
                            x       y       z     vdW  Elec       q    Type
                         _______ _______ _______ _____ _____    ______ ____

>  <TORSDO>
F 11

$$$$
=
 OpenBabel11042417053D

 44 47  0  0  1  0  0  0  0  0999 V2000
  196.2860  176.2340  143.1530 C   0  0  0  0  0  0  0  0  0  0  0  0
  194.9350  174.4750  144.4320 C   0  0  0  0  0  0  0  0  0  0  0  0
  195.4330  176.3810  142.2390 O   0  0  0  0  0  0  0  0  0  0  0  0
  195.0550  173.3870  145.1270 N   0  0  0  0  0  0  0  0  0  0  0  0
  196.1120  175.2540  144.1820 N   0  0  0  0  0  2  0  0  0  0  0  0
  197.5230  177.0600  143.1350 C   0  0  0  0  0  1  0  0  0  0  0  0
  193.5930  174.9270  144.0090 C   0  0  0  0  0  3  0  0  0  0  0  0
  192.1860  176.6260  145.4060 C   0  0  0  0  0  3  0  0  0  0  0  0
  192.9050  175.7920  144.7000 C   0  0  0  0  0  0  0  0  0  0  0  0
  189.5780  174.8730  147.4970 C   0  0  0  0  0  3  0  0  0  0  0  0
  188.4570  175.5170  147.0800 N   0  0  0  0  0  0  0  0  0  0  0  0
  188.5000  176.5090  146.1450 C   0  0  0  0  0  0  0  0  0  0  0  0
  190.9020  176.2300  146.0030 C   0  0  0  0  0  0  0  0  0  0  0  0
  190.8210  175.2170  146.9680 C   0  0  0  0  0  3  0  0  0  0  0  0
  189.7370  176.8750  145.5920 C   0  0  0  0  0  3  0  0  0  0  0  0
  187.2530  177.1780  145.7200 C   0  0  0  0  0  0  0  0  0  0  0  0
  185.0840  177.8210  142.8130 N   0  0  0  0  0  0  0  0  0  0  0  0
  184.9090  178.4490  144.9210 C   0  0  0  0  0  0  0  0  0  0  0  0
  186.4650  177.8990  146.6540 C   0  0  0  0  0  3  0  0  0  0  0  0
  183.9580  178.5580  142.9350 C   0  0  0  0  0  3  0  0  0  0  0  0
  185.5450  177.2410  141.6540 O   0  0  0  0  0  1  0  0  0  0  0  0
  183.8110  178.9770  144.2630 C   0  0  0  0  0  3  0  0  0  0  0  0
  186.8380  177.1030  144.3710 C   0  0  0  0  0  3  0  0  0  0  0  0
  185.6600  177.7560  144.0160 C   0  0  0  0  0  0  0  0  0  0  0  0
  185.2780  178.5430  146.2600 C   0  0  0  0  0  3  0  0  0  0  0  0
  193.9440  172.6140  145.4890 N   0  0  0  0  0  2  0  0  0  0  0  0
  193.9250  171.2260  145.2730 N   0  0  0  0  0  2  0  0  0  0  0  0
  194.7060  170.9400  144.0740 C   0  0  0  0  0  2  0  0  0  0  0  0
  192.7010  171.2090  140.8370 N   0  0  0  0  0  2  0  0  0  0  0  0
  193.8310  170.6460  142.9480 N   0  0  0  0  0  2  0  0  0  0  0  0
  193.6840  171.5150  141.8260 C   0  0  0  0  0  0  0  0  0  0  0  0
  194.4180  172.5330  141.7070 O   0  0  0  0  0  0  0  0  0  0  0  0
  192.5680  171.9760  139.6090 C   0  0  0  0  0  2  0  0  0  0  0  0
  191.2510  172.5910  139.5580 N   0  0  0  0  0  0  0  0  0  0  0  0
  189.7390  174.0270  143.5650 C   0  0  0  0  0  3  0  0  0  0  0  0
  190.5730  172.9340  140.7830 C   0  0  0  0  0  0  0  0  0  0  0  0
  189.5940  172.0990  144.9880 N   0  0  0  0  0  1  0  0  0  0  0  0
  190.7020  174.1810  141.2750 C   0  0  0  0  0  3  0  0  0  0  0  0
  190.0680  174.7350  142.4870 C   0  0  0  0  0  3  0  0  0  0  0  0
  189.6620  171.9710  141.3520 N   0  0  0  0  0  0  0  0  0  0  0  0
  190.0510  172.5780  143.6960 C   0  0  1  0  0  3  0  0  0  0  0  0
  189.3860  171.8010  142.6110 C   0  0  0  0  0  3  0  0  0  0  0  0
  191.6810  173.7890  137.4650 C   0  0  0  0  0  1  0  0  0  0  0  0
  190.7090  172.9190  138.2400 C   0  0  0  0  0  2  0  0  0  0  0  0
  1  5  1  0  0  0  0
  2  4  2  0  0  0  0
  3  1  2  0  0  0  0
  4 26  1  0  0  0  0
  5  2  1  0  0  0  0
  6  1  1  0  0  0  0
  7  2  1  0  0  0  0
  7  9  2  0  0  0  0
  8 13  1  0  0  0  0
  9  8  2  0  0  0  0
 11 10  1  0  0  0  0
 12 11  2  0  0  0  0
 13 14  1  0  0  0  0
 14 10  2  0  0  0  0
 15 13  2  0  0  0  0
 15 12  1  0  0  0  0
 16 12  1  0  0  0  0
 16 19  1  0  0  0  0
 17 20  1  0  0  0  0
 17 24  1  0  0  0  0
 18 25  1  0  0  0  0
 20 22  2  0  0  0  0
 21 17  1  0  0  0  0
 22 18  1  0  0  0  0
 23 16  2  0  0  0  0
 24 23  1  0  0  0  0
 24 18  2  0  0  0  0
 25 19  2  0  0  0  0
 27 26  1  0  0  0  0
 28 27  1  0  0  0  0
 29 31  1  0  0  0  0
 30 28  1  0  0  0  0
 31 30  1  0  0  0  0
 32 31  2  0  0  0  0
 33 29  1  0  0  0  0
 34 33  1  0  0  0  0
 34 36  1  0  0  0  0
 35 41  1  0  0  0  0
 36 38  2  0  0  0  0
 36 40  1  0  0  0  0
 38 39  1  0  0  0  0
 39 35  2  0  0  0  0
 40 42  2  0  0  0  0
 41 37  1  1  0  0  0
 42 41  1  0  0  0  0
 43 44  1  0  0  0  0
 44 34  1  0  0  0  0
M  END
>  <MODEL>
4

>  <REMARK>
 VINA RESULT:      -7.6      2.055      4.983
  Name = 
  11 active torsions:
  status: ('A' for Active; 'I' for Inactive)
    1  A    between atoms: N_1  and  C_41
    2  A    between atoms: N_2  and  N_12
    3  A    between atoms: N_2  and  C_43
    4  A    between atoms: C_4  and  N_25
    5  A    between atoms: C_5  and  C_24
    6  A    between atoms: N_8  and  C_43
    7  A    between atoms: N_12  and  N_32
    8  A    between atoms: C_15  and  C_22
    9  A    between atoms: C_17  and  N_25
   10  A    between atoms: N_25  and  C_41
   11  A    between atoms: C_30  and  C_31
                            x       y       z     vdW  Elec       q    Type
                         _______ _______ _______ _____ _____    ______ ____

>  <TORSDO>
F 11

$$$$
=
 OpenBabel11042417053D

 44 47  0  0  1  0  0  0  0  0999 V2000
  196.2690  172.0470  145.1320 C   0  0  0  0  0  0  0  0  0  0  0  0
  195.3980  174.1380  143.9380 C   0  0  0  0  0  0  0  0  0  0  0  0
  196.6590  172.6650  146.1580 O   0  0  0  0  0  0  0  0  0  0  0  0
  195.2940  174.6900  142.7690 N   0  0  0  0  0  0  0  0  0  0  0  0
  195.7320  172.7460  144.0030 N   0  0  0  0  0  2  0  0  0  0  0  0
  196.4130  170.5690  145.0730 C   0  0  0  0  0  1  0  0  0  0  0  0
  195.0730  174.9230  145.1480 C   0  0  0  0  0  3  0  0  0  0  0  0
  192.8760  174.5510  146.5080 C   0  0  0  0  0  3  0  0  0  0  0  0
  193.9840  174.7170  145.8340 C   0  0  0  0  0  0  0  0  0  0  0  0
  190.6790  177.3040  147.8640 C   0  0  0  0  0  3  0  0  0  0  0  0
  189.9430  177.5950  146.7600 N   0  0  0  0  0  0  0  0  0  0  0  0
  190.1250  176.9410  145.5780 C   0  0  0  0  0  0  0  0  0  0  0  0
  191.8670  175.6140  146.6140 C   0  0  0  0  0  0  0  0  0  0  0  0
  191.6540  176.3100  147.8130 C   0  0  0  0  0  3  0  0  0  0  0  0
  191.0980  175.9330  145.4960 C   0  0  0  0  0  3  0  0  0  0  0  0
  189.2970  177.2900  144.4040 C   0  0  0  0  0  0  0  0  0  0  0  0
  185.8240  177.7490  143.2650 N   0  0  0  0  0  0  0  0  0  0  0  0
  187.7410  177.9380  142.1890 C   0  0  0  0  0  0  0  0  0  0  0  0
  189.9020  177.5870  143.1550 C   0  0  0  0  0  3  0  0  0  0  0  0
  185.5510  178.0910  141.9870 C   0  0  0  0  0  3  0  0  0  0  0  0
  184.8960  177.5400  144.2590 O   0  0  0  0  0  1  0  0  0  0  0  0
  186.7460  178.2220  141.2690 C   0  0  0  0  0  3  0  0  0  0  0  0
  187.8900  177.3280  144.5220 C   0  0  0  0  0  3  0  0  0  0  0  0
  187.1510  177.6560  143.3870 C   0  0  0  0  0  0  0  0  0  0  0  0
  189.1240  177.9170  142.0310 C   0  0  0  0  0  3  0  0  0  0  0  0
  194.8870  176.0210  142.6130 N   0  0  0  0  0  2  0  0  0  0  0  0
  194.6510  176.5640  141.3390 N   0  0  0  0  0  2  0  0  0  0  0  0
  195.0390  175.5720  140.3410 C   0  0  0  0  0  2  0  0  0  0  0  0
  192.2240  173.9560  138.3320 N   0  0  0  0  0  2  0  0  0  0  0  0
  193.9560  175.3420  139.3960 N   0  0  0  0  0  2  0  0  0  0  0  0
  193.1720  174.1500  139.3820 C   0  0  0  0  0  0  0  0  0  0  0  0
  193.3100  173.2840  140.2880 O   0  0  0  0  0  0  0  0  0  0  0  0
  191.3070  172.8280  138.3100 C   0  0  0  0  0  2  0  0  0  0  0  0
  190.0090  173.2450  138.8180 N   0  0  0  0  0  0  0  0  0  0  0  0
  189.3470  173.6140  143.2710 C   0  0  0  0  0  3  0  0  0  0  0  0
  189.7250  173.1420  140.2270 C   0  0  0  0  0  0  0  0  0  0  0  0
  190.9940  172.2320  144.3380 N   0  0  0  0  0  1  0  0  0  0  0  0
  189.1450  174.1820  140.8560 C   0  0  0  0  0  3  0  0  0  0  0  0
  188.7450  174.2610  142.2740 C   0  0  0  0  0  3  0  0  0  0  0  0
  189.9380  171.8700  140.8750 N   0  0  0  0  0  0  0  0  0  0  0  0
  190.5610  172.7800  143.0650 C   0  0  1  0  0  3  0  0  0  0  0  0
  190.2760  171.6680  142.1140 C   0  0  0  0  0  3  0  0  0  0  0  0
  189.5560  173.6410  136.4430 C   0  0  0  0  0  1  0  0  0  0  0  0
  189.0720  173.8430  137.8670 C   0  0  0  0  0  2  0  0  0  0  0  0
  1  3  2  0  0  0  0
  2  5  1  0  0  0  0
  2  7  1  0  0  0  0
  4  2  2  0  0  0  0
  5  1  1  0  0  0  0
  6  1  1  0  0  0  0
  7  9  2  0  0  0  0
  8 13  1  0  0  0  0
  9  8  2  0  0  0  0
 11 10  2  0  0  0  0
 12 11  1  0  0  0  0
 13 14  2  0  0  0  0
 14 10  1  0  0  0  0
 15 12  2  0  0  0  0
 15 13  1  0  0  0  0
 16 23  1  0  0  0  0
 16 12  1  0  0  0  0
 17 24  1  0  0  0  0
 17 21  1  0  0  0  0
 18 24  1  0  0  0  0
 19 16  2  0  0  0  0
 20 17  1  0  0  0  0
 22 20  2  0  0  0  0
 22 18  1  0  0  0  0
 24 23  2  0  0  0  0
 25 18  2  0  0  0  0
 25 19  1  0  0  0  0
 26  4  1  0  0  0  0
 27 26  1  0  0  0  0
 28 27  1  0  0  0  0
 29 31  1  0  0  0  0
 30 28  1  0  0  0  0
 31 30  1  0  0  0  0
 31 32  2  0  0  0  0
 33 29  1  0  0  0  0
 33 34  1  0  0  0  0
 34 36  1  0  0  0  0
 36 38  2  0  0  0  0
 36 40  1  0  0  0  0
 38 39  1  0  0  0  0
 39 35  2  0  0  0  0
 40 42  2  0  0  0  0
 41 35  1  0  0  0  0
 41 37  1  1  0  0  0
 42 41  1  0  0  0  0
 43 44  1  0  0  0  0
 44 34  1  0  0  0  0
M  END
>  <MODEL>
5

>  <REMARK>
 VINA RESULT:      -7.4      2.391      6.173
  Name = 
  11 active torsions:
  status: ('A' for Active; 'I' for Inactive)
    1  A    between atoms: N_1  and  C_41
    2  A    between atoms: N_2  and  N_12
    3  A    between atoms: N_2  and  C_43
    4  A    between atoms: C_4  and  N_25
    5  A    between atoms: C_5  and  C_24
    6  A    between atoms: N_8  and  C_43
    7  A    between atoms: N_12  and  N_32
    8  A    between atoms: C_15  and  C_22
    9  A    between atoms: C_17  and  N_25
   10  A    between atoms: N_25  and  C_41
   11  A    between atoms: C_30  and  C_31
                            x       y       z     vdW  Elec       q    Type
                         _______ _______ _______ _____ _____    ______ ____

>  <TORSDO>
F 11

$$$$
=
 OpenBabel11042417053D

 44 47  0  0  1  0  0  0  0  0999 V2000
  190.6090  170.5750  138.4870 C   0  0  0  0  0  0  0  0  0  0  0  0
  192.0490  172.6250  139.0150 C   0  0  0  0  0  0  0  0  0  0  0  0
  190.7520  170.0490  139.6220 O   0  0  0  0  0  0  0  0  0  0  0  0
  192.9100  173.4430  138.4930 N   0  0  0  0  0  0  0  0  0  0  0  0
  191.2960  171.7800  138.1340 N   0  0  0  0  0  2  0  0  0  0  0  0
  189.7480  169.9050  137.4760 C   0  0  0  0  0  1  0  0  0  0  0  0
  191.7980  172.6600  140.4710 C   0  0  0  0  0  3  0  0  0  0  0  0
  189.7740  173.9400  141.5110 C   0  0  0  0  0  3  0  0  0  0  0  0
  190.7730  173.2830  140.9810 C   0  0  0  0  0  0  0  0  0  0  0  0
  191.3810  176.8070  143.3670 C   0  0  0  0  0  3  0  0  0  0  0  0
  190.3330  177.2270  144.1220 N   0  0  0  0  0  0  0  0  0  0  0  0
  189.1110  176.6240  144.0600 C   0  0  0  0  0  0  0  0  0  0  0  0
  189.9870  175.0860  142.4070 C   0  0  0  0  0  0  0  0  0  0  0  0
  191.2280  175.7310  142.4950 C   0  0  0  0  0  3  0  0  0  0  0  0
  188.9280  175.5360  143.1930 C   0  0  0  0  0  3  0  0  0  0  0  0
  188.0020  177.1140  144.9050 C   0  0  0  0  0  0  0  0  0  0  0  0
  184.5430  178.3780  144.8070 N   0  0  0  0  0  0  0  0  0  0  0  0
  185.9190  178.0470  146.4990 C   0  0  0  0  0  0  0  0  0  0  0  0
  188.1520  177.2040  146.3130 C   0  0  0  0  0  3  0  0  0  0  0  0
  183.9010  178.7350  145.9400 C   0  0  0  0  0  3  0  0  0  0  0  0
  184.0230  178.4330  143.5340 O   0  0  0  0  0  1  0  0  0  0  0  0
  184.7430  178.5380  147.0410 C   0  0  0  0  0  3  0  0  0  0  0  0
  186.7800  177.5000  144.3090 C   0  0  0  0  0  3  0  0  0  0  0  0
  185.7670  177.9620  145.1460 C   0  0  0  0  0  0  0  0  0  0  0  0
  187.1040  177.6720  147.1270 C   0  0  0  0  0  3  0  0  0  0  0  0
  193.6240  174.3620  139.2730 N   0  0  0  0  0  2  0  0  0  0  0  0
  194.5350  175.2560  138.6880 N   0  0  0  0  0  2  0  0  0  0  0  0
  195.8020  175.1520  139.4050 C   0  0  0  0  0  2  0  0  0  0  0  0
  196.2070  173.3760  142.7600 N   0  0  0  0  0  2  0  0  0  0  0  0
  195.6980  174.1940  140.4960 N   0  0  0  0  0  2  0  0  0  0  0  0
  196.2370  174.4290  141.7960 C   0  0  0  0  0  0  0  0  0  0  0  0
  196.7260  175.5530  142.0910 O   0  0  0  0  0  0  0  0  0  0  0  0
  196.6270  173.5690  144.1380 C   0  0  0  0  0  2  0  0  0  0  0  0
  195.5400  173.2090  145.0340 N   0  0  0  0  0  0  0  0  0  0  0  0
  192.9280  176.4370  146.8120 C   0  0  0  0  0  3  0  0  0  0  0  0
  194.5680  174.2020  145.4180 C   0  0  0  0  0  0  0  0  0  0  0  0
  190.9260  175.3660  147.5890 N   0  0  0  0  0  1  0  0  0  0  0  0
  194.9960  175.3760  145.9210 C   0  0  0  0  0  3  0  0  0  0  0  0
  194.1700  176.5250  146.3380 C   0  0  0  0  0  3  0  0  0  0  0  0
  193.1810  173.9560  145.1070 N   0  0  0  0  0  0  0  0  0  0  0  0
  192.2520  175.1330  147.0470 C   0  0  1  0  0  3  0  0  0  0  0  0
  192.1430  174.3650  145.7730 C   0  0  0  0  0  3  0  0  0  0  0  0
  196.7620  171.3060  145.9780 C   0  0  0  0  0  1  0  0  0  0  0  0
  195.4350  171.8070  145.4380 C   0  0  0  0  0  2  0  0  0  0  0  0
  1  3  2  0  0  0  0
  2  7  1  0  0  0  0
  4  2  2  0  0  0  0
  4 26  1  0  0  0  0
  5  1  1  0  0  0  0
  5  2  1  0  0  0  0
  6  1  1  0  0  0  0
  7  9  2  0  0  0  0
  8 13  1  0  0  0  0
  9  8  2  0  0  0  0
 10 11  1  0  0  0  0
 12 11  2  0  0  0  0
 12 16  1  0  0  0  0
 13 14  1  0  0  0  0
 13 15  2  0  0  0  0
 14 10  2  0  0  0  0
 15 12  1  0  0  0  0
 16 19  1  0  0  0  0
 17 24  1  0  0  0  0
 17 20  1  0  0  0  0
 18 22  1  0  0  0  0
 18 25  1  0  0  0  0
 19 25  2  0  0  0  0
 20 22  2  0  0  0  0
 21 17  1  0  0  0  0
 23 16  2  0  0  0  0
 23 24  1  0  0  0  0
 24 18  2  0  0  0  0
 27 26  1  0  0  0  0
 27 28  1  0  0  0  0
 28 30  1  0  0  0  0
 29 33  1  0  0  0  0
 30 31  1  0  0  0  0
 31 32  2  0  0  0  0
 31 29  1  0  0  0  0
 33 34  1  0  0  0  0
 34 36  1  0  0  0  0
 34 44  1  0  0  0  0
 35 41  1  0  0  0  0
 36 38  2  0  0  0  0
 38 39  1  0  0  0  0
 39 35  2  0  0  0  0
 40 36  1  0  0  0  0
 40 42  2  0  0  0  0
 41 37  1  6  0  0  0
 42 41  1  0  0  0  0
 44 43  1  0  0  0  0
M  END
>  <MODEL>
6

>  <REMARK>
 VINA RESULT:      -7.4      2.555      3.668
  Name = 
  11 active torsions:
  status: ('A' for Active; 'I' for Inactive)
    1  A    between atoms: N_1  and  C_41
    2  A    between atoms: N_2  and  N_12
    3  A    between atoms: N_2  and  C_43
    4  A    between atoms: C_4  and  N_25
    5  A    between atoms: C_5  and  C_24
    6  A    between atoms: N_8  and  C_43
    7  A    between atoms: N_12  and  N_32
    8  A    between atoms: C_15  and  C_22
    9  A    between atoms: C_17  and  N_25
   10  A    between atoms: N_25  and  C_41
   11  A    between atoms: C_30  and  C_31
                            x       y       z     vdW  Elec       q    Type
                         _______ _______ _______ _____ _____    ______ ____

>  <TORSDO>
F 11

$$$$
=
 OpenBabel11042417053D

 44 47  0  0  1  0  0  0  0  0999 V2000
  191.3130  170.4820  141.0460 C   0  0  0  0  0  0  0  0  0  0  0  0
  189.7220  172.3300  141.8250 C   0  0  0  0  0  0  0  0  0  0  0  0
  192.3590  171.1610  141.2220 O   0  0  0  0  0  0  0  0  0  0  0  0
  188.5600  172.8580  141.5910 N   0  0  0  0  0  0  0  0  0  0  0  0
  190.0150  171.0520  141.2470 N   0  0  0  0  0  2  0  0  0  0  0  0
  191.4270  169.0770  140.5730 C   0  0  0  0  0  1  0  0  0  0  0  0
  190.6570  173.0050  142.7500 C   0  0  0  0  0  3  0  0  0  0  0  0
  190.2450  173.1070  145.3260 C   0  0  0  0  0  3  0  0  0  0  0  0
  190.4560  173.0330  144.0380 C   0  0  0  0  0  0  0  0  0  0  0  0
  190.7350  176.1660  147.4830 C   0  0  0  0  0  3  0  0  0  0  0  0
  189.5580  176.8100  147.2640 N   0  0  0  0  0  0  0  0  0  0  0  0
  188.6000  176.3000  146.4390 C   0  0  0  0  0  0  0  0  0  0  0  0
  190.0280  174.3930  146.0040 C   0  0  0  0  0  0  0  0  0  0  0  0
  190.9930  174.9480  146.8570 C   0  0  0  0  0  3  0  0  0  0  0  0
  188.8290  175.0740  145.7970 C   0  0  0  0  0  3  0  0  0  0  0  0
  187.3330  177.0350  146.2350 C   0  0  0  0  0  0  0  0  0  0  0  0
  184.8510  178.0050  143.6930 N   0  0  0  0  0  0  0  0  0  0  0  0
  184.9540  178.4300  145.8560 C   0  0  0  0  0  0  0  0  0  0  0  0
  186.6900  177.6810  147.3230 C   0  0  0  0  0  3  0  0  0  0  0  0
  183.7740  178.7520  144.0220 C   0  0  0  0  0  3  0  0  0  0  0  0
  185.1480  177.5300  142.4370 O   0  0  0  0  0  1  0  0  0  0  0  0
  183.8030  179.0430  145.3910 C   0  0  0  0  0  3  0  0  0  0  0  0
  186.7560  177.1000  144.9480 C   0  0  0  0  0  3  0  0  0  0  0  0
  185.5660  177.8110  144.8040 C   0  0  0  0  0  0  0  0  0  0  0  0
  185.4860  178.3860  147.1410 C   0  0  0  0  0  3  0  0  0  0  0  0
  188.1610  174.0620  142.1860 N   0  0  0  0  0  2  0  0  0  0  0  0
  187.8500  175.1880  141.4070 N   0  0  0  0  0  2  0  0  0  0  0  0
  188.5780  176.3320  141.9450 C   0  0  0  0  0  2  0  0  0  0  0  0
  192.0670  176.3300  143.4950 N   0  0  0  0  0  2  0  0  0  0  0  0
  189.9100  175.9350  142.3810 N   0  0  0  0  0  2  0  0  0  0  0  0
  190.7240  176.7390  143.2330 C   0  0  0  0  0  0  0  0  0  0  0  0
  190.2620  177.7900  143.7530 O   0  0  0  0  0  0  0  0  0  0  0  0
  192.9220  177.0270  144.4420 C   0  0  0  0  0  2  0  0  0  0  0  0
  194.2370  176.4060  144.4600 N   0  0  0  0  0  0  0  0  0  0  0  0
  196.0470  175.6620  140.3890 C   0  0  0  0  0  3  0  0  0  0  0  0
  194.8290  175.9460  143.2290 C   0  0  0  0  0  0  0  0  0  0  0  0
  194.4430  174.3940  139.1330 N   0  0  0  0  0  1  0  0  0  0  0  0
  195.7710  176.7020  142.6330 C   0  0  0  0  0  3  0  0  0  0  0  0
  196.5160  176.3950  141.3970 C   0  0  0  0  0  3  0  0  0  0  0  0
  194.4960  174.6220  142.7630 N   0  0  0  0  0  0  0  0  0  0  0  0
  194.6610  175.1230  140.3690 C   0  0  1  0  0  3  0  0  0  0  0  0
  194.4370  174.2150  141.5300 C   0  0  0  0  0  3  0  0  0  0  0  0
  194.1140  177.0100  146.8310 C   0  0  0  0  0  1  0  0  0  0  0  0
  194.9440  176.3580  145.7400 C   0  0  0  0  0  2  0  0  0  0  0  0
  1  3  2  0  0  0  0
  1  5  1  0  0  0  0
  2  7  1  0  0  0  0
  4  2  2  0  0  0  0
  4 26  1  0  0  0  0
  5  2  1  0  0  0  0
  6  1  1  0  0  0  0
  7  9  2  0  0  0  0
  8 13  1  0  0  0  0
  9  8  2  0  0  0  0
 11 10  1  0  0  0  0
 12 11  2  0  0  0  0
 13 14  1  0  0  0  0
 14 10  2  0  0  0  0
 15 13  2  0  0  0  0
 15 12  1  0  0  0  0
 16 12  1  0  0  0  0
 16 19  1  0  0  0  0
 17 20  1  0  0  0  0
 17 24  1  0  0  0  0
 18 25  1  0  0  0  0
 20 22  2  0  0  0  0
 21 17  1  0  0  0  0
 22 18  1  0  0  0  0
 23 16  2  0  0  0  0
 24 23  1  0  0  0  0
 24 18  2  0  0  0  0
 25 19  2  0  0  0  0
 27 28  1  0  0  0  0
 27 26  1  0  0  0  0
 28 30  1  0  0  0  0
 29 33  1  0  0  0  0
 30 31  1  0  0  0  0
 31 29  1  0  0  0  0
 31 32  2  0  0  0  0
 33 34  1  0  0  0  0
 34 44  1  0  0  0  0
 35 39  2  0  0  0  0
 36 34  1  0  0  0  0
 38 36  2  0  0  0  0
 39 38  1  0  0  0  0
 40 36  1  0  0  0  0
 41 37  1  6  0  0  0
 41 35  1  0  0  0  0
 41 42  1  0  0  0  0
 42 40  2  0  0  0  0
 44 43  1  0  0  0  0
M  END
>  <MODEL>
7

>  <REMARK>
 VINA RESULT:      -7.3      2.077      4.032
  Name = 
  11 active torsions:
  status: ('A' for Active; 'I' for Inactive)
    1  A    between atoms: N_1  and  C_41
    2  A    between atoms: N_2  and  N_12
    3  A    between atoms: N_2  and  C_43
    4  A    between atoms: C_4  and  N_25
    5  A    between atoms: C_5  and  C_24
    6  A    between atoms: N_8  and  C_43
    7  A    between atoms: N_12  and  N_32
    8  A    between atoms: C_15  and  C_22
    9  A    between atoms: C_17  and  N_25
   10  A    between atoms: N_25  and  C_41
   11  A    between atoms: C_30  and  C_31
                            x       y       z     vdW  Elec       q    Type
                         _______ _______ _______ _____ _____    ______ ____

>  <TORSDO>
F 11

$$$$
=
 OpenBabel11042417053D

 44 47  0  0  1  0  0  0  0  0999 V2000
  192.1480  170.5900  139.0750 C   0  0  0  0  0  0  0  0  0  0  0  0
  192.6140  170.5660  141.5920 C   0  0  0  0  0  0  0  0  0  0  0  0
  191.3620  171.5730  139.1210 O   0  0  0  0  0  0  0  0  0  0  0  0
  192.8210  169.7690  142.5950 N   0  0  0  0  0  0  0  0  0  0  0  0
  192.7020  170.0240  140.2670 N   0  0  0  0  0  2  0  0  0  0  0  0
  192.4680  169.9740  137.7600 C   0  0  0  0  0  1  0  0  0  0  0  0
  192.3970  172.0070  141.8360 C   0  0  0  0  0  3  0  0  0  0  0  0
  190.1600  172.9390  142.8060 C   0  0  0  0  0  3  0  0  0  0  0  0
  191.2850  172.4630  142.3410 C   0  0  0  0  0  0  0  0  0  0  0  0
  188.4230  174.6260  139.9100 C   0  0  0  0  0  3  0  0  0  0  0  0
  187.7150  175.5790  140.5720 N   0  0  0  0  0  0  0  0  0  0  0  0
  187.7670  175.7040  141.9290 C   0  0  0  0  0  0  0  0  0  0  0  0
  189.3130  173.8420  142.0130 C   0  0  0  0  0  0  0  0  0  0  0  0
  189.2340  173.7400  140.6170 C   0  0  0  0  0  3  0  0  0  0  0  0
  188.5770  174.8290  142.6670 C   0  0  0  0  0  3  0  0  0  0  0  0
  186.9810  176.7590  142.6030 C   0  0  0  0  0  0  0  0  0  0  0  0
  184.9830  177.4950  145.6090 N   0  0  0  0  0  0  0  0  0  0  0  0
  185.4930  178.7460  143.8650 C   0  0  0  0  0  0  0  0  0  0  0  0
  186.8270  178.0380  142.0070 C   0  0  0  0  0  3  0  0  0  0  0  0
  184.4120  178.7060  145.7850 C   0  0  0  0  0  3  0  0  0  0  0  0
  184.9040  176.4320  146.4800 O   0  0  0  0  0  1  0  0  0  0  0  0
  184.7140  179.5320  144.6960 C   0  0  0  0  0  3  0  0  0  0  0  0
  186.3740  176.4960  143.8520 C   0  0  0  0  0  3  0  0  0  0  0  0
  185.6380  177.5190  144.4450 C   0  0  0  0  0  0  0  0  0  0  0  0
  186.0790  179.0480  142.6390 C   0  0  0  0  0  3  0  0  0  0  0  0
  192.8390  170.2340  143.9160 N   0  0  0  0  0  2  0  0  0  0  0  0
  193.7000  169.6700  144.8720 N   0  0  0  0  0  2  0  0  0  0  0  0
  194.8300  170.5740  145.0600 C   0  0  0  0  0  2  0  0  0  0  0  0
  194.3510  174.3610  145.0080 N   0  0  0  0  0  2  0  0  0  0  0  0
  194.3660  171.9240  145.3460 N   0  0  0  0  0  2  0  0  0  0  0  0
  194.7450  173.0600  144.5700 C   0  0  0  0  0  0  0  0  0  0  0  0
  195.4110  172.9160  143.5090 O   0  0  0  0  0  0  0  0  0  0  0  0
  194.5950  175.5560  144.2160 C   0  0  0  0  0  2  0  0  0  0  0  0
  193.5060  175.7440  143.2700 N   0  0  0  0  0  0  0  0  0  0  0  0
  189.7830  177.8980  144.6490 C   0  0  0  0  0  3  0  0  0  0  0  0
  192.2270  176.2180  143.7350 C   0  0  0  0  0  0  0  0  0  0  0  0
  189.5510  177.4570  146.9970 N   0  0  0  0  0  1  0  0  0  0  0  0
  191.6780  177.3010  143.1500 C   0  0  0  0  0  3  0  0  0  0  0  0
  190.3730  177.9180  143.4550 C   0  0  0  0  0  3  0  0  0  0  0  0
  191.5160  175.4240  144.7080 N   0  0  0  0  0  0  0  0  0  0  0  0
  190.4260  177.3010  145.8490 C   0  0  1  0  0  3  0  0  0  0  0  0
  190.7040  175.8520  145.6270 C   0  0  0  0  0  3  0  0  0  0  0  0
  194.9130  176.4400  141.3890 C   0  0  0  0  0  1  0  0  0  0  0  0
  193.7970  175.5230  141.8530 C   0  0  0  0  0  2  0  0  0  0  0  0
  1  3  2  0  0  0  0
  1  5  1  0  0  0  0
  2  7  1  0  0  0  0
  2  4  2  0  0  0  0
  4 26  1  0  0  0  0
  5  2  1  0  0  0  0
  6  1  1  0  0  0  0
  7  9  2  0  0  0  0
  9  8  2  0  0  0  0
 10 11  2  0  0  0  0
 10 14  1  0  0  0  0
 11 12  1  0  0  0  0
 12 16  1  0  0  0  0
 12 15  2  0  0  0  0
 13 15  1  0  0  0  0
 13  8  1  0  0  0  0
 14 13  2  0  0  0  0
 16 23  1  0  0  0  0
 17 20  1  0  0  0  0
 17 21  1  0  0  0  0
 18 24  1  0  0  0  0
 18 22  1  0  0  0  0
 19 16  2  0  0  0  0
 19 25  1  0  0  0  0
 22 20  2  0  0  0  0
 23 24  2  0  0  0  0
 24 17  1  0  0  0  0
 25 18  2  0  0  0  0
 26 27  1  0  0  0  0
 27 28  1  0  0  0  0
 28 30  1  0  0  0  0
 31 29  1  0  0  0  0
 31 30  1  0  0  0  0
 32 31  2  0  0  0  0
 33 29  1  0  0  0  0
 34 36  1  0  0  0  0
 34 33  1  0  0  0  0
 35 41  1  0  0  0  0
 36 40  1  0  0  0  0
 38 39  1  0  0  0  0
 38 36  2  0  0  0  0
 39 35  2  0  0  0  0
 40 42  2  0  0  0  0
 41 37  1  1  0  0  0
 42 41  1  0  0  0  0
 43 44  1  0  0  0  0
 44 34  1  0  0  0  0
M  END
>  <MODEL>
8

>  <REMARK>
 VINA RESULT:      -7.2      2.260      4.371
  Name = 
  11 active torsions:
  status: ('A' for Active; 'I' for Inactive)
    1  A    between atoms: N_1  and  C_41
    2  A    between atoms: N_2  and  N_12
    3  A    between atoms: N_2  and  C_43
    4  A    between atoms: C_4  and  N_25
    5  A    between atoms: C_5  and  C_24
    6  A    between atoms: N_8  and  C_43
    7  A    between atoms: N_12  and  N_32
    8  A    between atoms: C_15  and  C_22
    9  A    between atoms: C_17  and  N_25
   10  A    between atoms: N_25  and  C_41
   11  A    between atoms: C_30  and  C_31
                            x       y       z     vdW  Elec       q    Type
                         _______ _______ _______ _____ _____    ______ ____

>  <TORSDO>
F 11

$$$$
=
 OpenBabel11042417053D

 44 47  0  0  1  0  0  0  0  0999 V2000
  192.7240  173.6940  136.4550 C   0  0  0  0  0  0  0  0  0  0  0  0
  192.7440  172.9970  138.9180 C   0  0  0  0  0  0  0  0  0  0  0  0
  192.3300  174.8690  136.6800 O   0  0  0  0  0  0  0  0  0  0  0  0
  192.4990  171.9980  139.7090 N   0  0  0  0  0  0  0  0  0  0  0  0
  192.8510  172.7370  137.5120 N   0  0  0  0  0  2  0  0  0  0  0  0
  193.0180  173.2790  135.0580 C   0  0  0  0  0  1  0  0  0  0  0  0
  193.0020  174.3350  139.4900 C   0  0  0  0  0  3  0  0  0  0  0  0
  195.4160  175.2180  139.9470 C   0  0  0  0  0  3  0  0  0  0  0  0
  194.2100  174.7780  139.6950 C   0  0  0  0  0  0  0  0  0  0  0  0
  197.5950  175.9450  142.9410 C   0  0  0  0  0  3  0  0  0  0  0  0
  196.6500  176.0480  143.9120 N   0  0  0  0  0  0  0  0  0  0  0  0
  195.3210  175.8960  143.6440 C   0  0  0  0  0  0  0  0  0  0  0  0
  195.8640  175.5120  141.3150 C   0  0  0  0  0  0  0  0  0  0  0  0
  197.2210  175.6770  141.6260 C   0  0  0  0  0  3  0  0  0  0  0  0
  194.9140  175.6220  142.3300 C   0  0  0  0  0  3  0  0  0  0  0  0
  194.3300  176.0130  144.7350 C   0  0  0  0  0  0  0  0  0  0  0  0
  191.0370  174.8230  145.8790 N   0  0  0  0  0  0  0  0  0  0  0  0
  192.4610  176.2440  146.7850 C   0  0  0  0  0  0  0  0  0  0  0  0
  194.5700  176.8690  145.8410 C   0  0  0  0  0  3  0  0  0  0  0  0
  190.5040  175.2630  147.0390 C   0  0  0  0  0  3  0  0  0  0  0  0
  190.4590  173.9200  145.0180 O   0  0  0  0  0  1  0  0  0  0  0  0
  191.3810  176.1710  147.6470 C   0  0  0  0  0  3  0  0  0  0  0  0
  193.1300  175.2690  144.6780 C   0  0  0  0  0  3  0  0  0  0  0  0
  192.2230  175.4180  145.7250 C   0  0  0  0  0  0  0  0  0  0  0  0
  193.6330  176.9900  146.8820 C   0  0  0  0  0  3  0  0  0  0  0  0
  192.4650  172.1490  141.1020 N   0  0  0  0  0  2  0  0  0  0  0  0
  191.6400  171.3380  141.8990 N   0  0  0  0  0  2  0  0  0  0  0  0
  190.2960  171.3560  141.3310 C   0  0  0  0  0  2  0  0  0  0  0  0
  188.4820  174.6020  142.1940 N   0  0  0  0  0  2  0  0  0  0  0  0
  189.4720  172.3590  141.9900 N   0  0  0  0  0  2  0  0  0  0  0  0
  189.1830  173.6320  141.4150 C   0  0  0  0  0  0  0  0  0  0  0  0
  189.5340  173.8940  140.2330 O   0  0  0  0  0  0  0  0  0  0  0  0
  188.0470  175.8750  141.6450 C   0  0  0  0  0  2  0  0  0  0  0  0
  188.2910  176.9330  142.6130 N   0  0  0  0  0  0  0  0  0  0  0  0
  185.1800  179.3660  144.8070 C   0  0  0  0  0  3  0  0  0  0  0  0
  187.1870  177.5070  143.3410 C   0  0  0  0  0  0  0  0  0  0  0  0
  185.3180  178.7490  147.1220 N   0  0  0  0  0  1  0  0  0  0  0  0
  186.6850  178.6910  142.9420 C   0  0  0  0  0  3  0  0  0  0  0  0
  185.5450  179.4230  143.5270 C   0  0  0  0  0  3  0  0  0  0  0  0
  186.5670  176.7160  144.3760 N   0  0  0  0  0  0  0  0  0  0  0  0
  185.9470  178.5960  145.8230 C   0  0  1  0  0  3  0  0  0  0  0  0
  185.9930  177.1510  145.4580 C   0  0  0  0  0  3  0  0  0  0  0  0
  189.8370  177.8530  144.2760 C   0  0  0  0  0  1  0  0  0  0  0  0
  189.6820  177.3060  142.8690 C   0  0  0  0  0  2  0  0  0  0  0  0
  1  3  2  0  0  0  0
  1  5  1  0  0  0  0
  2  7  1  0  0  0  0
  2  4  2  0  0  0  0
  4 26  1  0  0  0  0
  5  2  1  0  0  0  0
  6  1  1  0  0  0  0
  7  9  2  0  0  0  0
  8 13  1  0  0  0  0
  9  8  2  0  0  0  0
 10 11  1  0  0  0  0
 12 11  2  0  0  0  0
 12 16  1  0  0  0  0
 13 14  1  0  0  0  0
 13 15  2  0  0  0  0
 14 10  2  0  0  0  0
 15 12  1  0  0  0  0
 16 19  1  0  0  0  0
 17 20  1  0  0  0  0
 18 25  1  0  0  0  0
 18 22  1  0  0  0  0
 19 25  2  0  0  0  0
 20 22  2  0  0  0  0
 21 17  1  0  0  0  0
 23 16  2  0  0  0  0
 23 24  1  0  0  0  0
 24 17  1  0  0  0  0
 24 18  2  0  0  0  0
 26 27  1  0  0  0  0
 28 27  1  0  0  0  0
 28 30  1  0  0  0  0
 31 30  1  0  0  0  0
 31 29  1  0  0  0  0
 32 31  2  0  0  0  0
 33 29  1  0  0  0  0
 33 34  1  0  0  0  0
 34 44  1  0  0  0  0
 34 36  1  0  0  0  0
 35 41  1  0  0  0  0
 36 40  1  0  0  0  0
 38 36  2  0  0  0  0
 38 39  1  0  0  0  0
 39 35  2  0  0  0  0
 40 42  2  0  0  0  0
 41 37  1  1  0  0  0
 42 41  1  0  0  0  0
 44 43  1  0  0  0  0
M  END
>  <MODEL>
9

>  <REMARK>
 VINA RESULT:      -7.2      2.754      7.251
  Name = 
  11 active torsions:
  status: ('A' for Active; 'I' for Inactive)
    1  A    between atoms: N_1  and  C_41
    2  A    between atoms: N_2  and  N_12
    3  A    between atoms: N_2  and  C_43
    4  A    between atoms: C_4  and  N_25
    5  A    between atoms: C_5  and  C_24
    6  A    between atoms: N_8  and  C_43
    7  A    between atoms: N_12  and  N_32
    8  A    between atoms: C_15  and  C_22
    9  A    between atoms: C_17  and  N_25
   10  A    between atoms: N_25  and  C_41
   11  A    between atoms: C_30  and  C_31
                            x       y       z     vdW  Elec       q    Type
                         _______ _______ _______ _____ _____    ______ ____

>  <TORSDO>
F 11

$$$$
