=
 OpenBabel11042417473D

 25 29  0  0  1  0  0  0  0  0999 V2000
  188.6990  174.0100  142.3880 C   0  0  0  0  0  0  0  0  0  0  0  0
  190.1370  176.6500  144.6680 N   0  0  0  0  0  0  0  0  0  0  0  0
  189.4660  177.8490  144.9890 N   0  0  0  0  0  2  0  0  0  0  0  0
  187.4800  174.6720  142.1340 C   0  0  0  0  0  3  0  0  0  0  0  0
  188.1720  176.4750  143.5590 C   0  0  0  0  0  0  0  0  0  0  0  0
  189.6540  174.6100  143.2370 C   0  0  0  0  0  3  0  0  0  0  0  0
  187.2060  175.9190  142.7190 C   0  0  0  0  0  3  0  0  0  0  0  0
  188.1580  177.7680  144.3010 C   0  0  1  0  0  3  0  0  0  0  0  0
  189.3490  175.8490  143.8050 C   0  0  0  0  0  0  0  0  0  0  0  0
  185.2490  178.3550  146.5680 C   0  0  2  0  0  3  0  0  0  0  0  0
  184.0150  178.3640  146.1940 N   0  0  0  0  0  2  0  0  0  0  0  0
  185.2000  179.2320  144.4670 N   0  0  0  0  0  0  0  0  0  0  0  0
  186.1320  178.9550  145.5480 C   0  0  2  0  0  3  0  0  0  0  0  0
  185.8150  177.1790  147.1240 N   0  0  0  0  0  2  0  0  0  0  0  0
  187.0490  177.7980  145.3050 C   0  0  2  0  0  3  0  0  0  0  0  0
  186.9070  176.8790  146.2580 C   0  0  0  0  0  2  0  0  0  0  0  0
  184.0140  178.9460  144.8960 C   0  0  0  0  0  3  0  0  0  0  0  0
  192.6110  176.7810  144.5830 C   0  0  0  0  0  3  0  0  0  0  0  0
  191.4350  176.3340  145.2040 C   0  0  0  0  0  0  0  0  0  0  0  0
  191.5350  175.5630  146.3720 C   0  0  0  0  0  3  0  0  0  0  0  0
  193.9510  175.6960  146.2800 C   0  0  0  0  0  3  0  0  0  0  0  0
  193.8620  176.4640  145.1180 C   0  0  0  0  0  3  0  0  0  0  0  0
  192.7870  175.2440  146.9070 C   0  0  0  0  0  3  0  0  0  0  0  0
  189.7170  171.7570  142.3990 C   0  0  0  0  0  1  0  0  0  0  0  0
  188.9320  172.7710  141.7860 O   0  0  0  0  0  0  0  0  0  0  0  0
  1  6  1  0  0  0  0
  2  3  1  0  0  0  0
  2 19  1  0  0  0  0
  4  1  2  0  0  0  0
  4  7  1  0  0  0  0
  5  9  1  0  0  0  0
  6  9  2  0  0  0  0
  7  5  2  0  0  0  0
  8  5  1  1  0  0  0
  8  3  1  0  0  0  0
  8 15  1  0  0  0  0
  9  2  1  0  0  0  0
 10 11  1  6  0  0  0
 10 14  1  0  0  0  0
 12 17  2  0  0  0  0
 13 12  1  6  0  0  0
 13 10  1  0  0  0  0
 15 13  1  0  0  0  0
 15 16  1  1  0  0  0
 16 14  1  0  0  0  0
 17 11  1  0  0  0  0
 18 22  2  0  0  0  0
 18 19  1  0  0  0  0
 19 20  2  0  0  0  0
 20 23  1  0  0  0  0
 21 23  2  0  0  0  0
 22 21  1  0  0  0  0
 25  1  1  0  0  0  0
 25 24  1  0  0  0  0
M  END
>  <MODEL>
1

>  <REMARK>
 VINA RESULT:      -7.4      0.000      0.000
  Name = 
  3 active torsions:
  status: ('A' for Active; 'I' for Inactive)
    1  A    between atoms: C_1  and  O_18
    2  A    between atoms: N_5  and  C_13
    3  A    between atoms: C_19  and  C_22
                            x       y       z     vdW  Elec       q    Type
                         _______ _______ _______ _____ _____    ______ ____

>  <TORSDO>
F 3

$$$$
=
 OpenBabel11042417473D

 25 29  0  0  1  0  0  0  0  0999 V2000
  188.9560  173.5540  142.6370 C   0  0  0  0  0  0  0  0  0  0  0  0
  189.9320  176.7500  144.3860 N   0  0  0  0  0  0  0  0  0  0  0  0
  189.1840  177.9440  144.3000 N   0  0  0  0  0  2  0  0  0  0  0  0
  187.7740  174.0530  142.0510 C   0  0  0  0  0  3  0  0  0  0  0  0
  188.1760  176.1850  143.0770 C   0  0  0  0  0  0  0  0  0  0  0  0
  189.7440  174.4010  143.4450 C   0  0  0  0  0  3  0  0  0  0  0  0
  187.3730  175.3820  142.2650 C   0  0  0  0  0  3  0  0  0  0  0  0
  188.0060  177.6130  143.4670 C   0  0  1  0  0  3  0  0  0  0  0  0
  189.3160  175.7160  143.6400 C   0  0  0  0  0  0  0  0  0  0  0  0
  185.0250  177.6060  145.7160 C   0  0  2  0  0  3  0  0  0  0  0  0
  185.0650  177.7950  146.9910 N   0  0  0  0  0  2  0  0  0  0  0  0
  186.9670  176.6810  146.4630 N   0  0  0  0  0  0  0  0  0  0  0  0
  186.1890  176.8310  145.2440 C   0  0  2  0  0  3  0  0  0  0  0  0
  184.7260  178.6870  144.8460 N   0  0  0  0  0  2  0  0  0  0  0  0
  186.7500  177.8070  144.2580 C   0  0  2  0  0  3  0  0  0  0  0  0
  185.8670  178.7670  143.9940 C   0  0  0  0  0  2  0  0  0  0  0  0
  186.2690  177.1790  147.4310 C   0  0  0  0  0  3  0  0  0  0  0  0
  191.0960  176.3570  146.5390 C   0  0  0  0  0  3  0  0  0  0  0  0
  191.1360  176.6590  145.1700 C   0  0  0  0  0  0  0  0  0  0  0  0
  192.3810  176.8780  144.5600 C   0  0  0  0  0  3  0  0  0  0  0  0
  193.5080  176.4930  146.6670 C   0  0  0  0  0  3  0  0  0  0  0  0
  192.2750  176.2740  147.2850 C   0  0  0  0  0  3  0  0  0  0  0  0
  193.5610  176.7960  145.3040 C   0  0  0  0  0  3  0  0  0  0  0  0
  190.0700  171.8290  141.2610 C   0  0  0  0  0  1  0  0  0  0  0  0
  189.3180  172.2260  142.3990 O   0  0  0  0  0  0  0  0  0  0  0  0
  1  6  1  0  0  0  0
  2 19  1  0  0  0  0
  3  2  1  0  0  0  0
  4  7  1  0  0  0  0
  4  1  2  0  0  0  0
  5  9  1  0  0  0  0
  6  9  2  0  0  0  0
  7  5  2  0  0  0  0
  8  5  1  1  0  0  0
  8 15  1  0  0  0  0
  8  3  1  0  0  0  0
  9  2  1  0  0  0  0
 10 14  1  6  0  0  0
 10 11  1  0  0  0  0
 11 17  1  0  0  0  0
 12 17  2  0  0  0  0
 13 10  1  0  0  0  0
 13 12  1  1  0  0  0
 15 16  1  6  0  0  0
 15 13  1  0  0  0  0
 16 14  1  0  0  0  0
 18 22  1  0  0  0  0
 19 18  2  0  0  0  0
 20 19  1  0  0  0  0
 20 23  2  0  0  0  0
 21 22  2  0  0  0  0
 23 21  1  0  0  0  0
 24 25  1  0  0  0  0
 25  1  1  0  0  0  0
M  END
>  <MODEL>
2

>  <REMARK>
 VINA RESULT:      -7.3      0.960      1.869
  Name = 
  3 active torsions:
  status: ('A' for Active; 'I' for Inactive)
    1  A    between atoms: C_1  and  O_18
    2  A    between atoms: N_5  and  C_13
    3  A    between atoms: C_19  and  C_22
                            x       y       z     vdW  Elec       q    Type
                         _______ _______ _______ _____ _____    ______ ____

>  <TORSDO>
F 3

$$$$
=
 OpenBabel11042417473D

 25 29  0  0  1  0  0  0  0  0999 V2000
  188.2120  176.1290  142.0580 C   0  0  0  0  0  0  0  0  0  0  0  0
  187.9590  176.1290  145.8220 N   0  0  0  0  0  0  0  0  0  0  0  0
  188.8220  175.3920  146.6600 N   0  0  0  0  0  2  0  0  0  0  0  0
  189.3270  175.2680  141.9780 C   0  0  0  0  0  3  0  0  0  0  0  0
  189.3760  175.1240  144.3740 C   0  0  0  0  0  0  0  0  0  0  0  0
  187.6880  176.4740  143.3220 C   0  0  0  0  0  3  0  0  0  0  0  0
  189.9200  174.7530  143.1430 C   0  0  0  0  0  3  0  0  0  0  0  0
  189.7870  174.7330  145.7520 C   0  0  1  0  0  3  0  0  0  0  0  0
  188.3020  175.9460  144.4600 C   0  0  0  0  0  0  0  0  0  0  0  0
  193.4180  175.3710  146.3480 C   0  0  2  0  0  3  0  0  0  0  0  0
  194.3190  175.4110  145.4260 N   0  0  0  0  0  2  0  0  0  0  0  0
  192.8150  173.8480  144.7660 N   0  0  0  0  0  0  0  0  0  0  0  0
  192.3980  174.3410  146.0680 C   0  0  2  0  0  3  0  0  0  0  0  0
  192.8330  176.5730  146.8220 N   0  0  0  0  0  2  0  0  0  0  0  0
  191.1760  175.2040  146.0510 C   0  0  2  0  0  3  0  0  0  0  0  0
  191.4400  176.4030  146.5670 C   0  0  0  0  0  2  0  0  0  0  0  0
  193.9330  174.4290  144.4720 C   0  0  0  0  0  3  0  0  0  0  0  0
  185.5640  176.7410  146.0100 C   0  0  0  0  0  3  0  0  0  0  0  0
  186.9080  176.9590  146.3510 C   0  0  0  0  0  0  0  0  0  0  0  0
  187.2240  178.0110  147.2230 C   0  0  0  0  0  3  0  0  0  0  0  0
  184.8830  178.6010  147.4000 C   0  0  0  0  0  3  0  0  0  0  0  0
  184.5560  177.5570  146.5320 C   0  0  0  0  0  3  0  0  0  0  0  0
  186.2180  178.8290  147.7450 C   0  0  0  0  0  3  0  0  0  0  0  0
  186.6110  177.5860  140.8650 C   0  0  0  0  0  1  0  0  0  0  0  0
  187.6530  176.6190  140.8760 O   0  0  0  0  0  0  0  0  0  0  0  0
  1  6  1  0  0  0  0
  2 19  1  0  0  0  0
  2  3  1  0  0  0  0
  4  1  2  0  0  0  0
  4  7  1  0  0  0  0
  5  9  1  0  0  0  0
  6  9  2  0  0  0  0
  7  5  2  0  0  0  0
  8  5  1  6  0  0  0
  8 15  1  0  0  0  0
  8  3  1  0  0  0  0
  9  2  1  0  0  0  0
 10 11  1  6  0  0  0
 10 14  1  0  0  0  0
 13 12  1  6  0  0  0
 13 10  1  0  0  0  0
 15 13  1  0  0  0  0
 15 16  1  1  0  0  0
 16 14  1  0  0  0  0
 17 12  2  0  0  0  0
 17 11  1  0  0  0  0
 18 19  2  0  0  0  0
 18 22  1  0  0  0  0
 19 20  1  0  0  0  0
 20 23  2  0  0  0  0
 21 23  1  0  0  0  0
 22 21  2  0  0  0  0
 24 25  1  0  0  0  0
 25  1  1  0  0  0  0
M  END
>  <MODEL>
3

>  <REMARK>
 VINA RESULT:      -7.2      2.193      6.368
  Name = 
  3 active torsions:
  status: ('A' for Active; 'I' for Inactive)
    1  A    between atoms: C_1  and  O_18
    2  A    between atoms: N_5  and  C_13
    3  A    between atoms: C_19  and  C_22
                            x       y       z     vdW  Elec       q    Type
                         _______ _______ _______ _____ _____    ______ ____

>  <TORSDO>
F 3

$$$$
=
 OpenBabel11042417473D

 25 29  0  0  1  0  0  0  0  0999 V2000
  189.2910  173.6920  141.8950 C   0  0  0  0  0  0  0  0  0  0  0  0
  190.3780  176.7400  143.8340 N   0  0  0  0  0  0  0  0  0  0  0  0
  189.7670  178.0050  143.7010 N   0  0  0  0  0  2  0  0  0  0  0  0
  188.2390  174.3200  141.1970 C   0  0  0  0  0  3  0  0  0  0  0  0
  188.7340  176.3820  142.3230 C   0  0  0  0  0  0  0  0  0  0  0  0
  190.0640  174.4400  142.8100 C   0  0  0  0  0  3  0  0  0  0  0  0
  187.9510  175.6790  141.4040 C   0  0  0  0  0  3  0  0  0  0  0  0
  188.6640  177.8120  142.7340 C   0  0  1  0  0  3  0  0  0  0  0  0
  189.7500  175.7880  142.9940 C   0  0  0  0  0  0  0  0  0  0  0  0
  185.2450  178.8170  143.8500 C   0  0  2  0  0  3  0  0  0  0  0  0
  184.1470  178.3090  143.4040 N   0  0  0  0  0  2  0  0  0  0  0  0
  185.5850  178.3300  141.6520 N   0  0  0  0  0  0  0  0  0  0  0  0
  186.2580  178.9440  142.7840 C   0  0  2  0  0  3  0  0  0  0  0  0
  185.8120  178.3350  145.0580 N   0  0  0  0  0  2  0  0  0  0  0  0
  187.3520  178.1190  143.3860 C   0  0  2  0  0  3  0  0  0  0  0  0
  187.1100  177.8860  144.6740 C   0  0  0  0  0  2  0  0  0  0  0  0
  184.3790  178.0470  142.0250 C   0  0  0  0  0  3  0  0  0  0  0  0
  192.8020  176.7250  144.3540 C   0  0  0  0  0  3  0  0  0  0  0  0
  191.4710  176.5120  144.7430 C   0  0  0  0  0  0  0  0  0  0  0  0
  191.2090  176.0670  146.0470 C   0  0  0  0  0  3  0  0  0  0  0  0
  193.5780  176.0540  146.5450 C   0  0  0  0  0  3  0  0  0  0  0  0
  193.8510  176.4980  145.2490 C   0  0  0  0  0  3  0  0  0  0  0  0
  192.2570  175.8370  146.9440 C   0  0  0  0  0  3  0  0  0  0  0  0
  190.1360  171.4890  142.6330 C   0  0  0  0  0  1  0  0  0  0  0  0
  189.5430  172.3390  141.6600 O   0  0  0  0  0  0  0  0  0  0  0  0
  1  6  1  0  0  0  0
  2 19  1  0  0  0  0
  3  2  1  0  0  0  0
  4  7  1  0  0  0  0
  4  1  2  0  0  0  0
  5  9  1  0  0  0  0
  6  9  2  0  0  0  0
  7  5  2  0  0  0  0
  8  5  1  1  0  0  0
  8 15  1  0  0  0  0
  8  3  1  0  0  0  0
  9  2  1  0  0  0  0
 10 11  1  6  0  0  0
 10 14  1  0  0  0  0
 12 17  2  0  0  0  0
 13 12  1  6  0  0  0
 13 15  1  0  0  0  0
 13 10  1  0  0  0  0
 15 16  1  1  0  0  0
 16 14  1  0  0  0  0
 17 11  1  0  0  0  0
 18 19  2  0  0  0  0
 18 22  1  0  0  0  0
 19 20  1  0  0  0  0
 20 23  2  0  0  0  0
 21 23  1  0  0  0  0
 22 21  2  0  0  0  0
 25  1  1  0  0  0  0
 25 24  1  0  0  0  0
M  END
>  <MODEL>
4

>  <REMARK>
 VINA RESULT:      -7.1      1.409      1.671
  Name = 
  3 active torsions:
  status: ('A' for Active; 'I' for Inactive)
    1  A    between atoms: C_1  and  O_18
    2  A    between atoms: N_5  and  C_13
    3  A    between atoms: C_19  and  C_22
                            x       y       z     vdW  Elec       q    Type
                         _______ _______ _______ _____ _____    ______ ____

>  <TORSDO>
F 3

$$$$
=
 OpenBabel11042417473D

 25 29  0  0  1  0  0  0  0  0999 V2000
  190.7390  176.6200  145.7520 C   0  0  0  0  0  0  0  0  0  0  0  0
  187.5610  177.0840  143.7710 N   0  0  0  0  0  0  0  0  0  0  0  0
  187.4400  176.7460  142.4060 N   0  0  0  0  0  2  0  0  0  0  0  0
  191.4970  176.0670  144.7000 C   0  0  0  0  0  3  0  0  0  0  0  0
  189.5970  176.2480  143.2450 C   0  0  0  0  0  0  0  0  0  0  0  0
  189.3960  176.9890  145.5230 C   0  0  0  0  0  3  0  0  0  0  0  0
  190.9300  175.8770  143.4290 C   0  0  0  0  0  3  0  0  0  0  0  0
  188.7490  176.1710  142.0220 C   0  0  1  0  0  3  0  0  0  0  0  0
  188.8620  176.7860  144.2480 C   0  0  0  0  0  0  0  0  0  0  0  0
  188.7120  172.7540  140.5150 C   0  0  2  0  0  3  0  0  0  0  0  0
  189.6920  171.9170  140.5650 N   0  0  0  0  0  2  0  0  0  0  0  0
  190.6320  173.9750  140.4230 N   0  0  0  0  0  0  0  0  0  0  0  0
  189.1890  174.1430  140.3600 C   0  0  2  0  0  3  0  0  0  0  0  0
  187.6520  172.6660  141.4540 N   0  0  0  0  0  2  0  0  0  0  0  0
  188.5740  174.7520  141.5810 C   0  0  2  0  0  3  0  0  0  0  0  0
  187.6570  173.9370  142.1000 C   0  0  0  0  0  2  0  0  0  0  0  0
  190.8720  172.7060  140.4730 C   0  0  0  0  0  3  0  0  0  0  0  0
  185.9490  178.9040  144.2500 C   0  0  0  0  0  3  0  0  0  0  0  0
  186.4610  177.6270  144.5230 C   0  0  0  0  0  0  0  0  0  0  0  0
  185.8840  176.8700  145.5550 C   0  0  0  0  0  3  0  0  0  0  0  0
  184.3140  178.6540  146.0160 C   0  0  0  0  0  3  0  0  0  0  0  0
  184.8800  179.4160  144.9920 C   0  0  0  0  0  3  0  0  0  0  0  0
  184.8160  177.3810  146.2990 C   0  0  0  0  0  3  0  0  0  0  0  0
  191.2690  175.8100  148.0260 C   0  0  0  0  0  1  0  0  0  0  0  0
  191.3400  176.7910  147.0010 O   0  0  0  0  0  0  0  0  0  0  0  0
  1 25  1  0  0  0  0
  2  9  1  0  0  0  0
  2 19  1  0  0  0  0
  3  2  1  0  0  0  0
  4  1  2  0  0  0  0
  5  7  2  0  0  0  0
  5  9  1  0  0  0  0
  6  1  1  0  0  0  0
  7  4  1  0  0  0  0
  8  3  1  1  0  0  0
  8  5  1  0  0  0  0
  9  6  2  0  0  0  0
 10 11  1  1  0  0  0
 10 14  1  0  0  0  0
 12 17  2  0  0  0  0
 13 12  1  1  0  0  0
 13 10  1  0  0  0  0
 13 15  1  0  0  0  0
 14 16  1  0  0  0  0
 15  8  1  0  0  0  0
 15 16  1  6  0  0  0
 17 11  1  0  0  0  0
 18 19  2  0  0  0  0
 18 22  1  0  0  0  0
 19 20  1  0  0  0  0
 20 23  2  0  0  0  0
 21 23  1  0  0  0  0
 22 21  2  0  0  0  0
 25 24  1  0  0  0  0
M  END
>  <MODEL>
5

>  <REMARK>
 VINA RESULT:      -7.0      2.854      6.647
  Name = 
  3 active torsions:
  status: ('A' for Active; 'I' for Inactive)
    1  A    between atoms: C_1  and  O_18
    2  A    between atoms: N_5  and  C_13
    3  A    between atoms: C_19  and  C_22
                            x       y       z     vdW  Elec       q    Type
                         _______ _______ _______ _____ _____    ______ ____

>  <TORSDO>
F 3

$$$$
=
 OpenBabel11042417473D

 25 29  0  0  1  0  0  0  0  0999 V2000
  186.7090  176.9630  141.3310 C   0  0  0  0  0  0  0  0  0  0  0  0
  187.5400  176.4780  144.9790 N   0  0  0  0  0  0  0  0  0  0  0  0
  188.6090  175.6760  145.4330 N   0  0  0  0  0  2  0  0  0  0  0  0
  187.7560  176.1640  140.8260 C   0  0  0  0  0  3  0  0  0  0  0  0
  188.4870  175.7210  143.0690 C   0  0  0  0  0  0  0  0  0  0  0  0
  186.5660  177.1240  142.7260 C   0  0  0  0  0  3  0  0  0  0  0  0
  188.6580  175.5300  141.6970 C   0  0  0  0  0  3  0  0  0  0  0  0
  189.2760  175.1760  144.2100 C   0  0  1  0  0  3  0  0  0  0  0  0
  187.4810  176.4830  143.5640 C   0  0  0  0  0  0  0  0  0  0  0  0
  192.9330  175.8580  143.8830 C   0  0  2  0  0  3  0  0  0  0  0  0
  193.5660  175.9540  142.7630 N   0  0  0  0  0  2  0  0  0  0  0  0
  191.9540  174.3930  142.4400 N   0  0  0  0  0  0  0  0  0  0  0  0
  191.8830  174.8210  143.8270 C   0  0  2  0  0  3  0  0  0  0  0  0
  192.4800  177.0280  144.5460 N   0  0  0  0  0  2  0  0  0  0  0  0
  190.6910  175.6610  144.1640 C   0  0  2  0  0  3  0  0  0  0  0  0
  191.0700  176.8410  144.6500 C   0  0  0  0  0  2  0  0  0  0  0  0
  192.9540  175.0060  141.8960 C   0  0  0  0  0  3  0  0  0  0  0  0
  187.2060  177.9330  146.9580 C   0  0  0  0  0  3  0  0  0  0  0  0
  186.6820  177.1920  145.8880 C   0  0  0  0  0  0  0  0  0  0  0  0
  185.2910  177.1500  145.7080 C   0  0  0  0  0  3  0  0  0  0  0  0
  184.9740  178.5700  147.6430 C   0  0  0  0  0  3  0  0  0  0  0  0
  186.3570  178.6190  147.8310 C   0  0  0  0  0  3  0  0  0  0  0  0
  184.4410  177.8350  146.5810 C   0  0  0  0  0  3  0  0  0  0  0  0
  184.6280  178.2050  140.8430 C   0  0  0  0  0  1  0  0  0  0  0  0
  185.8340  177.5760  140.4310 O   0  0  0  0  0  0  0  0  0  0  0  0
  1  6  1  0  0  0  0
  2  3  1  0  0  0  0
  2 19  1  0  0  0  0
  4  1  2  0  0  0  0
  4  7  1  0  0  0  0
  5  9  1  0  0  0  0
  6  9  2  0  0  0  0
  7  5  2  0  0  0  0
  8  5  1  6  0  0  0
  8  3  1  0  0  0  0
  9  2  1  0  0  0  0
 10 11  1  6  0  0  0
 10 14  1  0  0  0  0
 13 12  1  6  0  0  0
 13 10  1  0  0  0  0
 13 15  1  0  0  0  0
 14 16  1  0  0  0  0
 15  8  1  0  0  0  0
 15 16  1  1  0  0  0
 17 12  2  0  0  0  0
 17 11  1  0  0  0  0
 18 22  1  0  0  0  0
 19 18  2  0  0  0  0
 20 19  1  0  0  0  0
 20 23  2  0  0  0  0
 21 22  2  0  0  0  0
 23 21  1  0  0  0  0
 25 24  1  0  0  0  0
 25  1  1  0  0  0  0
M  END
>  <MODEL>
6

>  <REMARK>
 VINA RESULT:      -7.0      2.411      6.345
  Name = 
  3 active torsions:
  status: ('A' for Active; 'I' for Inactive)
    1  A    between atoms: C_1  and  O_18
    2  A    between atoms: N_5  and  C_13
    3  A    between atoms: C_19  and  C_22
                            x       y       z     vdW  Elec       q    Type
                         _______ _______ _______ _____ _____    ______ ____

>  <TORSDO>
F 3

$$$$
=
 OpenBabel11042417473D

 25 29  0  0  1  0  0  0  0  0999 V2000
  187.2910  177.5670  146.5510 C   0  0  0  0  0  0  0  0  0  0  0  0
  187.6630  177.9030  142.8120 N   0  0  0  0  0  0  0  0  0  0  0  0
  188.9110  177.9340  142.1540 N   0  0  0  0  0  2  0  0  0  0  0  0
  188.6700  177.4860  146.8370 C   0  0  0  0  0  3  0  0  0  0  0  0
  189.1580  177.6710  144.4940 C   0  0  0  0  0  0  0  0  0  0  0  0
  186.8640  177.7060  145.2130 C   0  0  0  0  0  3  0  0  0  0  0  0
  189.6210  177.5400  145.8050 C   0  0  0  0  0  3  0  0  0  0  0  0
  189.9240  177.7610  143.2190 C   0  0  1  0  0  3  0  0  0  0  0  0
  187.8350  177.7550  144.2100 C   0  0  0  0  0  0  0  0  0  0  0  0
  192.3530  174.9600  142.7640 C   0  0  2  0  0  3  0  0  0  0  0  0
  193.0120  174.3960  143.7190 N   0  0  0  0  0  2  0  0  0  0  0  0
  192.8160  176.5790  144.2980 N   0  0  0  0  0  0  0  0  0  0  0  0
  192.2040  176.4120  142.9900 C   0  0  2  0  0  3  0  0  0  0  0  0
  191.1490  174.3770  142.2900 N   0  0  0  0  0  2  0  0  0  0  0  0
  190.7110  176.5100  142.9780 C   0  0  2  0  0  3  0  0  0  0  0  0
  190.1710  175.3950  142.4920 C   0  0  0  0  0  2  0  0  0  0  0  0
  193.3140  175.4360  144.6410 C   0  0  0  0  0  3  0  0  0  0  0  0
  185.2040  178.2130  142.7580 C   0  0  0  0  0  3  0  0  0  0  0  0
  186.4190  177.9870  142.0930 C   0  0  0  0  0  0  0  0  0  0  0  0
  186.4110  177.8400  140.6970 C   0  0  0  0  0  3  0  0  0  0  0  0
  184.0100  178.1420  140.6540 C   0  0  0  0  0  3  0  0  0  0  0  0
  184.0050  178.2910  142.0430 C   0  0  0  0  0  3  0  0  0  0  0  0
  185.2130  177.9160  139.9810 C   0  0  0  0  0  3  0  0  0  0  0  0
  185.1920  178.2890  147.6380 C   0  0  0  0  0  1  0  0  0  0  0  0
  186.3790  177.5080  147.6070 O   0  0  0  0  0  0  0  0  0  0  0  0
  1  4  1  0  0  0  0
  1 25  1  0  0  0  0
  2  9  1  0  0  0  0
  3  2  1  0  0  0  0
  5  7  1  0  0  0  0
  6  1  2  0  0  0  0
  7  4  2  0  0  0  0
  8  3  1  6  0  0  0
  8  5  1  0  0  0  0
  9  5  2  0  0  0  0
  9  6  1  0  0  0  0
 10 14  1  1  0  0  0
 10 13  1  0  0  0  0
 10 11  1  0  0  0  0
 11 17  1  0  0  0  0
 12 17  2  0  0  0  0
 13 12  1  1  0  0  0
 14 16  1  0  0  0  0
 15 16  1  6  0  0  0
 15 13  1  0  0  0  0
 15  8  1  0  0  0  0
 19 18  1  0  0  0  0
 19  2  1  0  0  0  0
 20 19  2  0  0  0  0
 21 22  1  0  0  0  0
 22 18  2  0  0  0  0
 23 21  2  0  0  0  0
 23 20  1  0  0  0  0
 25 24  1  0  0  0  0
M  END
>  <MODEL>
7

>  <REMARK>
 VINA RESULT:      -6.9      2.879      7.238
  Name = 
  3 active torsions:
  status: ('A' for Active; 'I' for Inactive)
    1  A    between atoms: C_1  and  O_18
    2  A    between atoms: N_5  and  C_13
    3  A    between atoms: C_19  and  C_22
                            x       y       z     vdW  Elec       q    Type
                         _______ _______ _______ _____ _____    ______ ____

>  <TORSDO>
F 3

$$$$
=
 OpenBabel11042417473D

 25 29  0  0  1  0  0  0  0  0999 V2000
  188.6820  174.8740  141.5260 C   0  0  0  0  0  0  0  0  0  0  0  0
  188.2680  176.1470  145.0530 N   0  0  0  0  0  0  0  0  0  0  0  0
  189.1230  175.7860  146.1160 N   0  0  0  0  0  2  0  0  0  0  0  0
  189.8310  174.0960  141.7760 C   0  0  0  0  0  3  0  0  0  0  0  0
  189.7840  174.7810  144.0760 C   0  0  0  0  0  0  0  0  0  0  0  0
  188.0910  175.6020  142.5800 C   0  0  0  0  0  3  0  0  0  0  0  0
  190.3940  174.0400  143.0620 C   0  0  0  0  0  3  0  0  0  0  0  0
  190.1510  174.9060  145.5150 C   0  0  1  0  0  3  0  0  0  0  0  0
  188.6770  175.5280  143.8460 C   0  0  0  0  0  0  0  0  0  0  0  0
  193.6860  175.9340  146.1450 C   0  0  2  0  0  3  0  0  0  0  0  0
  194.7140  175.4360  145.5460 N   0  0  0  0  0  2  0  0  0  0  0  0
  193.2320  173.7350  145.7640 N   0  0  0  0  0  0  0  0  0  0  0  0
  192.6570  174.9070  146.4040 C   0  0  2  0  0  3  0  0  0  0  0  0
  193.1120  177.1460  145.6820 N   0  0  0  0  0  2  0  0  0  0  0  0
  191.5060  175.5220  145.6710 C   0  0  2  0  0  3  0  0  0  0  0  0
  191.7640  176.7940  145.3740 C   0  0  0  0  0  2  0  0  0  0  0  0
  194.4140  174.0590  145.3530 C   0  0  0  0  0  3  0  0  0  0  0  0
  187.0200  178.2000  144.4410 C   0  0  0  0  0  3  0  0  0  0  0  0
  187.1640  177.0520  145.2360 C   0  0  0  0  0  0  0  0  0  0  0  0
  186.2080  176.7910  146.2290 C   0  0  0  0  0  3  0  0  0  0  0  0
  184.9960  178.7970  145.6250 C   0  0  0  0  0  3  0  0  0  0  0  0
  185.9420  179.0680  144.6340 C   0  0  0  0  0  3  0  0  0  0  0  0
  185.1300  177.6590  146.4240 C   0  0  0  0  0  3  0  0  0  0  0  0
  188.5670  173.9960  139.2180 C   0  0  0  0  0  1  0  0  0  0  0  0
  188.1550  174.9010  140.2330 O   0  0  0  0  0  0  0  0  0  0  0  0
  1  4  2  0  0  0  0
  1  6  1  0  0  0  0
  2 19  1  0  0  0  0
  2  3  1  0  0  0  0
  4  7  1  0  0  0  0
  6  9  2  0  0  0  0
  7  5  2  0  0  0  0
  8  5  1  6  0  0  0
  8 15  1  0  0  0  0
  8  3  1  0  0  0  0
  9  5  1  0  0  0  0
  9  2  1  0  0  0  0
 10 11  1  6  0  0  0
 10 13  1  0  0  0  0
 13 12  1  6  0  0  0
 14 10  1  0  0  0  0
 15 16  1  1  0  0  0
 15 13  1  0  0  0  0
 16 14  1  0  0  0  0
 17 11  1  0  0  0  0
 17 12  2  0  0  0  0
 18 22  2  0  0  0  0
 18 19  1  0  0  0  0
 19 20  2  0  0  0  0
 20 23  1  0  0  0  0
 21 23  2  0  0  0  0
 22 21  1  0  0  0  0
 24 25  1  0  0  0  0
 25  1  1  0  0  0  0
M  END
>  <MODEL>
8

>  <REMARK>
 VINA RESULT:      -6.9      1.970      6.258
  Name = 
  3 active torsions:
  status: ('A' for Active; 'I' for Inactive)
    1  A    between atoms: C_1  and  O_18
    2  A    between atoms: N_5  and  C_13
    3  A    between atoms: C_19  and  C_22
                            x       y       z     vdW  Elec       q    Type
                         _______ _______ _______ _____ _____    ______ ____

>  <TORSDO>
F 3

$$$$
=
 OpenBabel11042417473D

 25 29  0  0  1  0  0  0  0  0999 V2000
  187.3040  177.5160  146.5540 C   0  0  0  0  0  0  0  0  0  0  0  0
  187.6970  177.9150  142.8230 N   0  0  0  0  0  0  0  0  0  0  0  0
  188.9490  177.9450  142.1720 N   0  0  0  0  0  2  0  0  0  0  0  0
  188.6810  177.4170  146.8450 C   0  0  0  0  0  3  0  0  0  0  0  0
  189.1820  177.6390  144.5080 C   0  0  0  0  0  0  0  0  0  0  0  0
  186.8860  177.6830  145.2160 C   0  0  0  0  0  3  0  0  0  0  0  0
  189.6370  177.4810  145.8180 C   0  0  0  0  0  3  0  0  0  0  0  0
  189.9550  177.7440  143.2380 C   0  0  1  0  0  3  0  0  0  0  0  0
  187.8620  177.7400  144.2190 C   0  0  0  0  0  0  0  0  0  0  0  0
  191.3850  174.3420  142.6600 C   0  0  2  0  0  3  0  0  0  0  0  0
  191.1250  173.5990  141.6390 N   0  0  0  0  0  2  0  0  0  0  0  0
  189.2150  174.7340  142.0900 N   0  0  0  0  0  0  0  0  0  0  0  0
  190.1960  175.0990  143.0990 C   0  0  2  0  0  3  0  0  0  0  0  0
  192.5530  175.1470  142.6750 N   0  0  0  0  0  2  0  0  0  0  0  0
  190.7320  176.4910  142.9790 C   0  0  2  0  0  3  0  0  0  0  0  0
  192.0560  176.4730  142.8410 C   0  0  0  0  0  2  0  0  0  0  0  0
  189.7580  173.8410  141.3280 C   0  0  0  0  0  3  0  0  0  0  0  0
  186.3990  177.8060  140.7140 C   0  0  0  0  0  3  0  0  0  0  0  0
  186.4580  178.0230  142.0990 C   0  0  0  0  0  0  0  0  0  0  0  0
  185.2790  178.3540  142.7850 C   0  0  0  0  0  3  0  0  0  0  0  0
  184.0200  178.2460  140.7200 C   0  0  0  0  0  3  0  0  0  0  0  0
  185.1860  177.9160  140.0280 C   0  0  0  0  0  3  0  0  0  0  0  0
  184.0660  178.4660  142.0990 C   0  0  0  0  0  3  0  0  0  0  0  0
  185.2450  178.2900  147.6810 C   0  0  0  0  0  1  0  0  0  0  0  0
  186.3860  177.4470  147.6040 O   0  0  0  0  0  0  0  0  0  0  0  0
  1  4  1  0  0  0  0
  1 25  1  0  0  0  0
  2  9  1  0  0  0  0
  3  2  1  0  0  0  0
  5  7  1  0  0  0  0
  6  1  2  0  0  0  0
  7  4  2  0  0  0  0
  8  3  1  6  0  0  0
  8  5  1  0  0  0  0
  9  5  2  0  0  0  0
  9  6  1  0  0  0  0
 10 11  1  6  0  0  0
 10 14  1  0  0  0  0
 10 13  1  0  0  0  0
 13 12  1  6  0  0  0
 14 16  1  0  0  0  0
 15 16  1  1  0  0  0
 15 13  1  0  0  0  0
 15  8  1  0  0  0  0
 17 11  1  0  0  0  0
 17 12  2  0  0  0  0
 18 19  1  0  0  0  0
 19 20  2  0  0  0  0
 19  2  1  0  0  0  0
 21 23  2  0  0  0  0
 22 18  2  0  0  0  0
 22 21  1  0  0  0  0
 23 20  1  0  0  0  0
 25 24  1  0  0  0  0
M  END
>  <MODEL>
9

>  <REMARK>
 VINA RESULT:      -6.8      3.027      7.015
  Name = 
  3 active torsions:
  status: ('A' for Active; 'I' for Inactive)
    1  A    between atoms: C_1  and  O_18
    2  A    between atoms: N_5  and  C_13
    3  A    between atoms: C_19  and  C_22
                            x       y       z     vdW  Elec       q    Type
                         _______ _______ _______ _____ _____    ______ ____

>  <TORSDO>
F 3

$$$$
