=
 OpenBabel11042415483D

 50 54  0  0  1  0  0  0  0  0999 V2000
  188.4700  175.4090  145.1100 C   0  0  0  0  0  0  0  0  0  0  0  0
  187.4640  176.4620  143.2620 C   0  0  2  0  0  3  0  0  0  0  0  0
  189.6770  173.7140  143.4840 C   0  0  0  0  0  0  0  0  0  0  0  0
  188.7720  175.0010  146.4040 O   0  0  0  0  0  1  0  0  0  0  0  0
  188.9970  174.8620  143.8800 C   0  0  0  0  0  0  0  0  0  0  0  0
  187.5860  176.3620  144.7760 C   0  0  0  0  0  0  0  0  0  0  0  0
  188.0980  174.9220  140.3910 C   0  0  0  0  0  2  0  0  0  0  0  0
  189.4970  173.6690  142.1010 C   0  0  0  0  0  0  0  0  0  0  0  0
  188.4510  175.4760  142.8430 N   0  0  0  0  0  0  0  0  0  0  0  0
  188.7240  174.7630  141.7390 C   0  0  0  0  0  0  0  0  0  0  0  0
  189.9570  172.6220  141.1310 C   0  0  1  0  0  3  0  0  0  0  0  0
  188.9240  174.1500  139.3550 C   0  0  0  0  0  2  0  0  0  0  0  0
  189.1630  172.7000  139.8100 C   0  0  0  0  0  2  0  0  0  0  0  0
  186.5340  178.5120  147.7170 C   0  0  0  0  0  3  0  0  0  0  0  0
  185.3720  177.1420  145.5680 C   0  0  0  0  0  3  0  0  0  0  0  0
  185.1470  178.5120  147.5510 C   0  0  0  0  0  3  0  0  0  0  0  0
  186.7640  177.1180  145.7360 C   0  0  0  0  0  0  0  0  0  0  0  0
  184.5660  177.8300  146.4740 C   0  0  0  0  0  3  0  0  0  0  0  0
  188.7270  177.8640  146.9800 O   0  0  0  0  0  1  0  0  0  0  0  0
  187.3470  177.8230  146.8120 C   0  0  0  0  0  0  0  0  0  0  0  0
  187.8350  177.8700  142.7800 C   0  0  1  0  0  3  0  0  0  0  0  0
  189.1720  177.9330  142.3830 O   0  0  0  0  0  1  0  0  0  0  0  0
  186.9320  178.2980  141.6360 C   0  0  0  0  0  2  0  0  0  0  0  0
  185.7470  177.4560  141.5820 N   0  0  0  0  0  2  0  0  0  0  0  0
  184.7920  178.1060  140.6960 C   0  0  0  0  0  2  0  0  0  0  0  0
  183.4790  178.2950  142.6720 O   0  0  0  0  0  0  0  0  0  0  0  0
  182.3340  178.6600  140.6680 N   0  0  0  0  0  2  0  0  0  0  0  0
  183.5130  178.3570  141.4140 C   0  0  0  0  0  0  0  0  0  0  0  0
  179.8680  180.1150  140.4630 C   0  0  0  0  0  1  0  0  0  0  0  0
  181.0360  179.5100  142.8070 O   0  0  0  0  0  0  0  0  0  0  0  0
  180.8100  178.9600  141.4300 S   0  0  0  0  0  0  0  0  0  0  0  0
  180.0480  177.6710  141.5320 O   0  0  0  0  0  0  0  0  0  0  0  0
  190.3400  172.6820  144.2970 C   0  0  0  0  0  3  0  0  0  0  0  0
  189.6810  171.8740  145.1130 C   0  0  0  0  0  2  0  0  0  0  0  0
  191.4580  172.7610  140.8990 C   0  0  0  0  0  2  0  0  0  0  0  0
  191.9720  174.1220  141.3540 C   0  0  0  0  0  2  0  0  0  0  0  0
  194.1970  176.1680  141.3780 O   0  0  0  0  0  0  0  0  0  0  0  0
  194.2420  174.8330  140.9520 C   0  0  1  0  0  3  0  0  0  0  0  0
  193.3640  174.0130  141.7890 N   0  0  0  0  0  0  0  0  0  0  0  0
  193.4360  174.7000  143.0600 C   0  0  0  0  0  2  0  0  0  0  0  0
  193.9590  176.0920  142.7580 C   0  0  1  0  0  3  0  0  0  0  0  0
  193.9790  174.7140  139.4550 C   0  0  0  0  0  1  0  0  0  0  0  0
  196.2460  176.7390  142.8630 O   0  0  0  0  0  0  0  0  0  0  0  0
  195.2160  176.4120  143.5110 C   0  0  0  0  0  0  0  0  0  0  0  0
  195.2650  176.2730  144.9030 O   0  0  0  0  0  0  0  0  0  0  0  0
  194.6320  177.2010  145.7750 C   0  0  0  0  0  2  0  0  0  0  0  0
  192.4620  176.2200  146.6150 C   0  0  0  0  0  0  0  0  0  0  0  0
  191.8380  176.6550  145.6110 O   0  0  0  0  0  0  0  0  0  0  0  0
  191.7500  175.3920  147.6180 C   0  0  0  0  0  1  0  0  0  0  0  0
  193.8570  176.4840  146.7810 N   0  0  0  0  0  2  0  0  0  0  0  0
  1  4  1  0  0  0  0
  2 21  1  6  0  0  0
  2  6  1  0  0  0  0
  3  5  2  0  0  0  0
  3 33  1  0  0  0  0
  5  1  1  0  0  0  0
  6  1  2  0  0  0  0
  6 17  1  0  0  0  0
  7 10  1  0  0  0  0
  8  3  1  0  0  0  0
  9  2  1  0  0  0  0
  9  5  1  0  0  0  0
 10  8  2  0  0  0  0
 10  9  1  0  0  0  0
 11 35  1  6  0  0  0
 11  8  1  0  0  0  0
 12 13  1  0  0  0  0
 12  7  1  0  0  0  0
 13 11  1  0  0  0  0
 15 17  2  0  0  0  0
 15 18  1  0  0  0  0
 16 14  1  0  0  0  0
 17 20  1  0  0  0  0
 18 16  2  0  0  0  0
 20 19  1  0  0  0  0
 20 14  2  0  0  0  0
 21 22  1  6  0  0  0
 23 21  1  0  0  0  0
 24 23  1  0  0  0  0
 25 28  1  0  0  0  0
 25 24  1  0  0  0  0
 27 28  1  0  0  0  0
 27 31  1  0  0  0  0
 28 26  2  0  0  0  0
 29 31  1  0  0  0  0
 31 32  2  0  0  0  0
 31 30  2  0  0  0  0
 33 34  2  0  0  0  0
 35 36  1  0  0  0  0
 36 39  1  0  0  0  0
 37 41  1  0  0  0  0
 38 42  1  6  0  0  0
 38 37  1  0  0  0  0
 38 39  1  0  0  0  0
 39 40  1  0  0  0  0
 41 40  1  0  0  0  0
 41 44  1  1  0  0  0
 43 44  2  0  0  0  0
 44 45  1  0  0  0  0
 45 46  1  0  0  0  0
 46 50  1  0  0  0  0
 47 50  1  0  0  0  0
 47 49  1  0  0  0  0
 48 47  2  0  0  0  0
M  END
>  <MODEL>
1

>  <REMARK>
 VINA RESULT:      -8.1      0.000      0.000
  Name = 
  15 active torsions:
  status: ('A' for Active; 'I' for Inactive)
    1  A    between atoms: C_2  and  C_5
    2  A    between atoms: C_2  and  C_27
    3  A    between atoms: C_9  and  C_11
    4  A    between atoms: C_12  and  C_31
    5  A    between atoms: C_12  and  C_46
    6  A    between atoms: C_18  and  C_25
    7  A    between atoms: N_24  and  S_30
    8  A    between atoms: C_26  and  N_41
    9  A    between atoms: C_26  and  C_43
   10  A    between atoms: C_27  and  N_41
   11  A    between atoms: N_29  and  C_31
   12  A    between atoms: C_32  and  N_38
   13  A    between atoms: C_32  and  O_39
   14  A    between atoms: C_35  and  C_37
   15  A    between atoms: C_35  and  O_39
                            x       y       z     vdW  Elec       q    Type
                         _______ _______ _______ _____ _____    ______ ____

>  <TORSDO>
F 15

$$$$
=
 OpenBabel11042415483D

 50 54  0  0  1  0  0  0  0  0999 V2000
  188.3800  176.2100  144.4320 C   0  0  0  0  0  0  0  0  0  0  0  0
  187.0240  176.4280  142.5220 C   0  0  2  0  0  3  0  0  0  0  0  0
  190.0470  174.6800  143.0710 C   0  0  0  0  0  0  0  0  0  0  0  0
  188.8390  176.2270  145.7440 O   0  0  0  0  0  1  0  0  0  0  0  0
  189.0270  175.6010  143.2920 C   0  0  0  0  0  0  0  0  0  0  0  0
  187.2150  176.7190  144.0030 C   0  0  0  0  0  0  0  0  0  0  0  0
  188.0660  174.5710  139.9750 C   0  0  0  0  0  2  0  0  0  0  0  0
  189.8550  174.2660  141.7520 C   0  0  0  0  0  0  0  0  0  0  0  0
  188.2760  175.7510  142.2130 N   0  0  0  0  0  0  0  0  0  0  0  0
  188.7450  174.9350  141.2560 C   0  0  0  0  0  0  0  0  0  0  0  0
  190.6180  173.2350  140.9740 C   0  0  1  0  0  3  0  0  0  0  0  0
  189.0760  173.8970  139.0400 C   0  0  0  0  0  2  0  0  0  0  0  0
  189.8090  172.7470  139.7540 C   0  0  0  0  0  2  0  0  0  0  0  0
  184.9770  179.3220  145.6140 C   0  0  0  0  0  3  0  0  0  0  0  0
  185.5290  176.5830  145.8130 C   0  0  0  0  0  3  0  0  0  0  0  0
  184.3160  178.5390  146.5650 C   0  0  0  0  0  3  0  0  0  0  0  0
  186.2110  177.3630  144.8680 C   0  0  0  0  0  0  0  0  0  0  0  0
  184.5900  177.1680  146.6620 C   0  0  0  0  0  3  0  0  0  0  0  0
  186.5390  179.5330  143.8020 O   0  0  0  0  0  1  0  0  0  0  0  0
  185.9190  178.7400  144.7610 C   0  0  0  0  0  0  0  0  0  0  0  0
  186.8780  177.7310  141.7270 C   0  0  1  0  0  3  0  0  0  0  0  0
  188.0990  178.1270  141.1760 O   0  0  0  0  0  1  0  0  0  0  0  0
  185.8390  177.5750  140.6300 C   0  0  0  0  0  2  0  0  0  0  0  0
  184.6500  178.3530  140.9430 N   0  0  0  0  0  2  0  0  0  0  0  0
  183.5570  177.8160  140.1470 C   0  0  0  0  0  2  0  0  0  0  0  0
  182.2240  178.5400  141.9800 O   0  0  0  0  0  0  0  0  0  0  0  0
  181.0420  177.9320  140.0580 N   0  0  0  0  0  2  0  0  0  0  0  0
  182.2510  178.1220  140.7910 C   0  0  0  0  0  0  0  0  0  0  0  0
  179.2860  180.0120  140.9710 C   0  0  0  0  0  1  0  0  0  0  0  0
  179.3530  177.5530  142.0550 O   0  0  0  0  0  0  0  0  0  0  0  0
  179.4860  178.2620  140.7390 S   0  0  0  0  0  0  0  0  0  0  0  0
  178.4230  177.7670  139.8030 O   0  0  0  0  0  0  0  0  0  0  0  0
  191.0450  174.1340  144.0050 C   0  0  0  0  0  3  0  0  0  0  0  0
  190.9440  172.9290  144.5440 C   0  0  0  0  0  2  0  0  0  0  0  0
  191.9740  173.8010  140.5650 C   0  0  0  0  0  2  0  0  0  0  0  0
  193.1210  172.9910  141.1590 C   0  0  0  0  0  2  0  0  0  0  0  0
  196.0880  173.5330  140.9540 O   0  0  0  0  0  0  0  0  0  0  0  0
  195.3240  173.2750  142.1020 C   0  0  1  0  0  3  0  0  0  0  0  0
  193.9900  173.8600  141.9530 N   0  0  0  0  0  0  0  0  0  0  0  0
  194.2590  175.0130  141.1220 C   0  0  0  0  0  2  0  0  0  0  0  0
  195.6110  174.7620  140.4790 C   0  0  1  0  0  3  0  0  0  0  0  0
  195.3280  171.7920  142.4560 C   0  0  0  0  0  1  0  0  0  0  0  0
  197.7200  175.8250  140.1960 O   0  0  0  0  0  0  0  0  0  0  0  0
  196.6020  175.8460  140.7800 C   0  0  0  0  0  0  0  0  0  0  0  0
  196.3230  176.8160  141.7480 O   0  0  0  0  0  0  0  0  0  0  0  0
  196.8630  176.7460  143.0620 C   0  0  0  0  0  2  0  0  0  0  0  0
  195.8370  175.4520  144.9710 C   0  0  0  0  0  0  0  0  0  0  0  0
  196.7870  174.6240  144.9640 O   0  0  0  0  0  0  0  0  0  0  0  0
  194.7740  175.3370  145.9980 C   0  0  0  0  0  1  0  0  0  0  0  0
  195.7920  176.5210  144.0250 N   0  0  0  0  0  2  0  0  0  0  0  0
  1  4  1  0  0  0  0
  2 21  1  6  0  0  0
  2  6  1  0  0  0  0
  3  5  2  0  0  0  0
  3 33  1  0  0  0  0
  5  1  1  0  0  0  0
  6  1  2  0  0  0  0
  6 17  1  0  0  0  0
  7 10  1  0  0  0  0
  8  3  1  0  0  0  0
  9  2  1  0  0  0  0
  9  5  1  0  0  0  0
 10  8  2  0  0  0  0
 10  9  1  0  0  0  0
 11 35  1  6  0  0  0
 11  8  1  0  0  0  0
 12 13  1  0  0  0  0
 12  7  1  0  0  0  0
 13 11  1  0  0  0  0
 14 16  1  0  0  0  0
 15 18  1  0  0  0  0
 16 18  2  0  0  0  0
 17 15  2  0  0  0  0
 19 20  1  0  0  0  0
 20 17  1  0  0  0  0
 20 14  2  0  0  0  0
 21 22  1  6  0  0  0
 23 24  1  0  0  0  0
 23 21  1  0  0  0  0
 25 28  1  0  0  0  0
 25 24  1  0  0  0  0
 27 31  1  0  0  0  0
 27 28  1  0  0  0  0
 28 26  2  0  0  0  0
 31 29  1  0  0  0  0
 31 30  2  0  0  0  0
 32 31  2  0  0  0  0
 33 34  2  0  0  0  0
 35 36  1  0  0  0  0
 36 39  1  0  0  0  0
 37 38  1  0  0  0  0
 38 42  1  6  0  0  0
 39 38  1  0  0  0  0
 40 39  1  0  0  0  0
 41 44  1  1  0  0  0
 41 37  1  0  0  0  0
 41 40  1  0  0  0  0
 43 44  2  0  0  0  0
 44 45  1  0  0  0  0
 45 46  1  0  0  0  0
 46 50  1  0  0  0  0
 47 49  1  0  0  0  0
 48 47  2  0  0  0  0
 50 47  1  0  0  0  0
M  END
>  <MODEL>
2

>  <REMARK>
 VINA RESULT:      -7.6      1.652      2.238
  Name = 
  15 active torsions:
  status: ('A' for Active; 'I' for Inactive)
    1  A    between atoms: C_2  and  C_5
    2  A    between atoms: C_2  and  C_27
    3  A    between atoms: C_9  and  C_11
    4  A    between atoms: C_12  and  C_31
    5  A    between atoms: C_12  and  C_46
    6  A    between atoms: C_18  and  C_25
    7  A    between atoms: N_24  and  S_30
    8  A    between atoms: C_26  and  N_41
    9  A    between atoms: C_26  and  C_43
   10  A    between atoms: C_27  and  N_41
   11  A    between atoms: N_29  and  C_31
   12  A    between atoms: C_32  and  N_38
   13  A    between atoms: C_32  and  O_39
   14  A    between atoms: C_35  and  C_37
   15  A    between atoms: C_35  and  O_39
                            x       y       z     vdW  Elec       q    Type
                         _______ _______ _______ _____ _____    ______ ____

>  <TORSDO>
F 15

$$$$
=
 OpenBabel11042415483D

 50 54  0  0  1  0  0  0  0  0999 V2000
  188.7380  177.5120  146.4380 C   0  0  0  0  0  0  0  0  0  0  0  0
  188.5000  176.5640  144.2980 C   0  0  2  0  0  3  0  0  0  0  0  0
  191.0120  176.2090  146.7600 C   0  0  0  0  0  0  0  0  0  0  0  0
  188.4760  178.1570  147.6410 O   0  0  0  0  0  1  0  0  0  0  0  0
  189.9270  176.7670  146.0910 C   0  0  0  0  0  0  0  0  0  0  0  0
  187.8950  177.4250  145.3970 C   0  0  0  0  0  0  0  0  0  0  0  0
  190.8620  174.3380  143.5980 C   0  0  0  0  0  2  0  0  0  0  0  0
  191.5470  175.3000  145.8470 C   0  0  0  0  0  0  0  0  0  0  0  0
  189.8020  176.2600  144.8750 N   0  0  0  0  0  0  0  0  0  0  0  0
  190.7690  175.3460  144.6990 C   0  0  0  0  0  0  0  0  0  0  0  0
  192.7000  174.3590  146.0300 C   0  0  1  0  0  3  0  0  0  0  0  0
  192.2680  173.7300  143.5860 C   0  0  0  0  0  2  0  0  0  0  0  0
  192.6630  173.2240  144.9850 C   0  0  0  0  0  2  0  0  0  0  0  0
  184.2260  178.0230  146.1430 C   0  0  0  0  0  3  0  0  0  0  0  0
  186.2490  179.0420  144.4960 C   0  0  0  0  0  3  0  0  0  0  0  0
  183.9490  179.0650  145.2530 C   0  0  0  0  0  3  0  0  0  0  0  0
  186.5320  177.9840  145.3710 C   0  0  0  0  0  0  0  0  0  0  0  0
  184.9630  179.5770  144.4320 C   0  0  0  0  0  3  0  0  0  0  0  0
  185.7700  176.4700  147.1270 O   0  0  0  0  0  1  0  0  0  0  0  0
  185.5130  177.4840  146.2100 C   0  0  0  0  0  0  0  0  0  0  0  0
  188.6340  177.3620  142.9960 C   0  0  1  0  0  3  0  0  0  0  0  0
  189.9740  177.5260  142.6380 O   0  0  0  0  0  1  0  0  0  0  0  0
  187.8760  176.6790  141.8700 C   0  0  0  0  0  2  0  0  0  0  0  0
  188.2420  175.2730  141.7900 N   0  0  0  0  0  2  0  0  0  0  0  0
  188.2540  174.9060  140.3830 C   0  0  0  0  0  2  0  0  0  0  0  0
  188.0010  172.6100  139.8100 O   0  0  0  0  0  0  0  0  0  0  0  0
  190.1360  173.2360  140.5240 N   0  0  0  0  0  2  0  0  0  0  0  0
  188.7720  173.5210  140.2160 C   0  0  0  0  0  0  0  0  0  0  0  0
  192.5830  171.7400  140.4100 C   0  0  0  0  0  1  0  0  0  0  0  0
  190.3640  171.0480  139.0610 O   0  0  0  0  0  0  0  0  0  0  0  0
  190.8090  171.6520  140.3600 S   0  0  0  0  0  0  0  0  0  0  0  0
  190.3300  170.7920  141.4930 O   0  0  0  0  0  0  0  0  0  0  0  0
  191.4620  176.3960  148.1490 C   0  0  0  0  0  3  0  0  0  0  0  0
  191.6470  177.5890  148.6920 C   0  0  0  0  0  2  0  0  0  0  0  0
  194.0110  175.1350  145.9770 C   0  0  0  0  0  2  0  0  0  0  0  0
  195.1980  174.2140  145.7160 C   0  0  0  0  0  2  0  0  0  0  0  0
  196.3930  173.5070  143.0310 O   0  0  0  0  0  0  0  0  0  0  0  0
  197.0470  173.9500  144.1890 C   0  0  1  0  0  3  0  0  0  0  0  0
  196.2000  174.9050  144.9050 N   0  0  0  0  0  0  0  0  0  0  0  0
  195.4710  175.5290  143.8230 C   0  0  0  0  0  2  0  0  0  0  0  0
  195.5990  174.5930  142.6350 C   0  0  1  0  0  3  0  0  0  0  0  0
  197.5370  172.7810  145.0370 C   0  0  0  0  0  1  0  0  0  0  0  0
  196.8020  176.3630  141.5940 O   0  0  0  0  0  0  0  0  0  0  0  0
  196.2080  175.2610  141.4380 C   0  0  0  0  0  0  0  0  0  0  0  0
  196.0510  174.7120  140.1610 O   0  0  0  0  0  0  0  0  0  0  0  0
  195.3040  175.3680  139.1450 C   0  0  0  0  0  2  0  0  0  0  0  0
  193.2600  174.9000  137.7390 C   0  0  0  0  0  0  0  0  0  0  0  0
  193.5530  175.8310  136.9430 O   0  0  0  0  0  0  0  0  0  0  0  0
  192.0790  174.0460  137.4640 C   0  0  0  0  0  1  0  0  0  0  0  0
  194.0730  174.6320  138.8830 N   0  0  0  0  0  2  0  0  0  0  0  0
  1  4  1  0  0  0  0
  2 21  1  6  0  0  0
  2  9  1  0  0  0  0
  2  6  1  0  0  0  0
  3 33  1  0  0  0  0
  5  1  1  0  0  0  0
  5  3  2  0  0  0  0
  6  1  2  0  0  0  0
  7 10  1  0  0  0  0
  8 11  1  0  0  0  0
  8  3  1  0  0  0  0
  9  5  1  0  0  0  0
 10  9  1  0  0  0  0
 10  8  2  0  0  0  0
 11 35  1  6  0  0  0
 12  7  1  0  0  0  0
 12 13  1  0  0  0  0
 13 11  1  0  0  0  0
 14 20  1  0  0  0  0
 15 17  1  0  0  0  0
 16 14  2  0  0  0  0
 17  6  1  0  0  0  0
 17 20  2  0  0  0  0
 18 15  2  0  0  0  0
 18 16  1  0  0  0  0
 20 19  1  0  0  0  0
 21 22  1  6  0  0  0
 23 21  1  0  0  0  0
 24 23  1  0  0  0  0
 25 24  1  0  0  0  0
 26 28  2  0  0  0  0
 28 25  1  0  0  0  0
 28 27  1  0  0  0  0
 30 31  2  0  0  0  0
 31 29  1  0  0  0  0
 31 27  1  0  0  0  0
 31 32  2  0  0  0  0
 33 34  2  0  0  0  0
 36 35  1  0  0  0  0
 37 38  1  0  0  0  0
 38 39  1  0  0  0  0
 38 42  1  1  0  0  0
 39 36  1  0  0  0  0
 40 39  1  0  0  0  0
 41 44  1  6  0  0  0
 41 37  1  0  0  0  0
 41 40  1  0  0  0  0
 44 43  2  0  0  0  0
 45 44  1  0  0  0  0
 46 45  1  0  0  0  0
 47 50  1  0  0  0  0
 48 47  2  0  0  0  0
 49 47  1  0  0  0  0
 50 46  1  0  0  0  0
M  END
>  <MODEL>
3

>  <REMARK>
 VINA RESULT:      -7.6      3.388      6.131
  Name = 
  15 active torsions:
  status: ('A' for Active; 'I' for Inactive)
    1  A    between atoms: C_2  and  C_5
    2  A    between atoms: C_2  and  C_27
    3  A    between atoms: C_9  and  C_11
    4  A    between atoms: C_12  and  C_31
    5  A    between atoms: C_12  and  C_46
    6  A    between atoms: C_18  and  C_25
    7  A    between atoms: N_24  and  S_30
    8  A    between atoms: C_26  and  N_41
    9  A    between atoms: C_26  and  C_43
   10  A    between atoms: C_27  and  N_41
   11  A    between atoms: N_29  and  C_31
   12  A    between atoms: C_32  and  N_38
   13  A    between atoms: C_32  and  O_39
   14  A    between atoms: C_35  and  C_37
   15  A    between atoms: C_35  and  O_39
                            x       y       z     vdW  Elec       q    Type
                         _______ _______ _______ _____ _____    ______ ____

>  <TORSDO>
F 15

$$$$
=
 OpenBabel11042415483D

 50 54  0  0  1  0  0  0  0  0999 V2000
  187.3260  177.0040  145.4230 C   0  0  0  0  0  0  0  0  0  0  0  0
  188.3320  176.3590  143.3960 C   0  0  2  0  0  3  0  0  0  0  0  0
  185.2370  177.9200  144.0920 C   0  0  0  0  0  0  0  0  0  0  0  0
  187.1200  177.3300  146.7580 O   0  0  0  0  0  1  0  0  0  0  0  0
  186.4030  177.1960  144.3280 C   0  0  0  0  0  0  0  0  0  0  0  0
  188.4560  176.4960  144.9070 C   0  0  0  0  0  0  0  0  0  0  0  0
  186.5890  177.2960  140.7300 C   0  0  0  0  0  2  0  0  0  0  0  0
  185.1260  177.9470  142.7010 C   0  0  0  0  0  0  0  0  0  0  0  0
  186.9600  176.8050  143.1930 N   0  0  0  0  0  0  0  0  0  0  0  0
  186.2120  177.2620  142.1770 C   0  0  0  0  0  0  0  0  0  0  0  0
  184.0940  178.6360  141.8590 C   0  0  1  0  0  3  0  0  0  0  0  0
  185.3390  177.5770  139.8880 C   0  0  0  0  0  2  0  0  0  0  0  0
  184.5900  178.8160  140.4090 C   0  0  0  0  0  2  0  0  0  0  0  0
  192.0260  176.6400  146.1770 C   0  0  0  0  0  3  0  0  0  0  0  0
  189.6550  175.2290  146.6650 C   0  0  0  0  0  3  0  0  0  0  0  0
  191.9930  175.6340  147.1480 C   0  0  0  0  0  3  0  0  0  0  0  0
  189.6820  176.2230  145.6760 C   0  0  0  0  0  0  0  0  0  0  0  0
  190.8060  174.9320  147.3940 C   0  0  0  0  0  3  0  0  0  0  0  0
  190.9250  177.9670  144.5070 O   0  0  0  0  0  1  0  0  0  0  0  0
  190.8750  176.9410  145.4440 C   0  0  0  0  0  0  0  0  0  0  0  0
  188.5180  174.8990  142.9670 C   0  0  1  0  0  3  0  0  0  0  0  0
  187.3300  174.3640  142.4640 O   0  0  0  0  0  1  0  0  0  0  0  0
  189.6210  174.7830  141.9280 C   0  0  0  0  0  2  0  0  0  0  0  0
  190.8600  175.3510  142.4370 N   0  0  0  0  0  2  0  0  0  0  0  0
  191.9450  174.8300  141.6190 C   0  0  0  0  0  2  0  0  0  0  0  0
  193.2190  172.9060  142.1990 O   0  0  0  0  0  0  0  0  0  0  0  0
  193.5220  174.7630  143.5830 N   0  0  0  0  0  2  0  0  0  0  0  0
  192.9260  174.1020  142.4680 C   0  0  0  0  0  0  0  0  0  0  0  0
  193.8690  172.6880  145.5350 C   0  0  0  0  0  1  0  0  0  0  0  0
  195.2600  174.9880  145.5600 O   0  0  0  0  0  0  0  0  0  0  0  0
  194.6670  173.9830  144.6180 S   0  0  0  0  0  0  0  0  0  0  0  0
  195.7610  173.3860  143.7800 O   0  0  0  0  0  0  0  0  0  0  0  0
  184.3570  178.6250  145.0380 C   0  0  0  0  0  3  0  0  0  0  0  0
  184.0700  178.1560  146.2430 C   0  0  0  0  0  2  0  0  0  0  0  0
  182.7820  177.8600  141.9170 C   0  0  0  0  0  2  0  0  0  0  0  0
  181.5850  178.7930  142.0550 C   0  0  0  0  0  2  0  0  0  0  0  0
  178.8940  179.9740  141.3490 O   0  0  0  0  0  0  0  0  0  0  0  0
  179.1730  178.7680  142.0060 C   0  0  1  0  0  3  0  0  0  0  0  0
  180.3980  178.1770  141.4630 N   0  0  0  0  0  0  0  0  0  0  0  0
  180.3630  178.6280  140.0890 C   0  0  0  0  0  2  0  0  0  0  0  0
  179.3990  179.7980  140.0530 C   0  0  1  0  0  3  0  0  0  0  0  0
  179.1730  178.9410  143.5210 C   0  0  0  0  0  1  0  0  0  0  0  0
  177.7300  178.4480  139.0270 O   0  0  0  0  0  0  0  0  0  0  0  0
  178.2700  179.5860  139.0890 C   0  0  0  0  0  0  0  0  0  0  0  0
  177.8760  180.6090  138.2200 O   0  0  0  0  0  0  0  0  0  0  0  0
  178.2370  181.9670  138.4410 C   0  0  0  0  0  2  0  0  0  0  0  0
  179.9840  183.6050  137.6420 C   0  0  0  0  0  0  0  0  0  0  0  0
  179.6060  184.4670  138.4790 O   0  0  0  0  0  0  0  0  0  0  0  0
  181.1540  183.8890  136.7760 C   0  0  0  0  0  1  0  0  0  0  0  0
  179.3230  182.3420  137.5430 N   0  0  0  0  0  2  0  0  0  0  0  0
  1  4  1  0  0  0  0
  2 21  1  1  0  0  0
  2  6  1  0  0  0  0
  3  5  2  0  0  0  0
  3 33  1  0  0  0  0
  5  1  1  0  0  0  0
  6  1  2  0  0  0  0
  6 17  1  0  0  0  0
  7 10  1  0  0  0  0
  8  3  1  0  0  0  0
  9  2  1  0  0  0  0
  9  5  1  0  0  0  0
 10  8  2  0  0  0  0
 10  9  1  0  0  0  0
 11 35  1  6  0  0  0
 11  8  1  0  0  0  0
 12 13  1  0  0  0  0
 12  7  1  0  0  0  0
 13 11  1  0  0  0  0
 14 16  1  0  0  0  0
 15 18  1  0  0  0  0
 16 18  2  0  0  0  0
 17 15  2  0  0  0  0
 19 20  1  0  0  0  0
 20 17  1  0  0  0  0
 20 14  2  0  0  0  0
 21 22  1  6  0  0  0
 23 24  1  0  0  0  0
 23 21  1  0  0  0  0
 25 24  1  0  0  0  0
 25 28  1  0  0  0  0
 26 28  2  0  0  0  0
 27 31  1  0  0  0  0
 28 27  1  0  0  0  0
 31 29  1  0  0  0  0
 31 30  2  0  0  0  0
 32 31  2  0  0  0  0
 33 34  2  0  0  0  0
 35 36  1  0  0  0  0
 37 38  1  0  0  0  0
 38 42  1  1  0  0  0
 39 38  1  0  0  0  0
 39 36  1  0  0  0  0
 40 39  1  0  0  0  0
 41 44  1  6  0  0  0
 41 40  1  0  0  0  0
 41 37  1  0  0  0  0
 43 44  2  0  0  0  0
 45 46  1  0  0  0  0
 45 44  1  0  0  0  0
 47 48  2  0  0  0  0
 49 47  1  0  0  0  0
 50 47  1  0  0  0  0
 50 46  1  0  0  0  0
M  END
>  <MODEL>
4

>  <REMARK>
 VINA RESULT:      -7.5      3.315     11.237
  Name = 
  15 active torsions:
  status: ('A' for Active; 'I' for Inactive)
    1  A    between atoms: C_2  and  C_5
    2  A    between atoms: C_2  and  C_27
    3  A    between atoms: C_9  and  C_11
    4  A    between atoms: C_12  and  C_31
    5  A    between atoms: C_12  and  C_46
    6  A    between atoms: C_18  and  C_25
    7  A    between atoms: N_24  and  S_30
    8  A    between atoms: C_26  and  N_41
    9  A    between atoms: C_26  and  C_43
   10  A    between atoms: C_27  and  N_41
   11  A    between atoms: N_29  and  C_31
   12  A    between atoms: C_32  and  N_38
   13  A    between atoms: C_32  and  O_39
   14  A    between atoms: C_35  and  C_37
   15  A    between atoms: C_35  and  O_39
                            x       y       z     vdW  Elec       q    Type
                         _______ _______ _______ _____ _____    ______ ____

>  <TORSDO>
F 15

$$$$
=
 OpenBabel11042415483D

 50 54  0  0  1  0  0  0  0  0999 V2000
  193.0080  172.5560  143.9860 C   0  0  0  0  0  0  0  0  0  0  0  0
  193.7970  173.8880  145.7580 C   0  0  2  0  0  3  0  0  0  0  0  0
  190.6820  173.8020  144.0880 C   0  0  0  0  0  0  0  0  0  0  0  0
  192.8750  171.5440  143.0420 O   0  0  0  0  0  1  0  0  0  0  0  0
  192.0380  173.5780  144.3080 C   0  0  0  0  0  0  0  0  0  0  0  0
  194.0560  172.7280  144.8060 C   0  0  0  0  0  0  0  0  0  0  0  0
  191.4600  175.8780  147.0210 C   0  0  0  0  0  2  0  0  0  0  0  0
  190.3390  174.7760  145.0270 C   0  0  0  0  0  0  0  0  0  0  0  0
  192.4970  174.3430  145.2850 N   0  0  0  0  0  0  0  0  0  0  0  0
  191.4780  175.0780  145.7580 C   0  0  0  0  0  0  0  0  0  0  0  0
  188.9930  175.3760  145.3030 C   0  0  1  0  0  3  0  0  0  0  0  0
  190.2470  176.8140  147.0100 C   0  0  0  0  0  2  0  0  0  0  0  0
  188.9550  176.0390  146.6960 C   0  0  0  0  0  2  0  0  0  0  0  0
  197.2620  170.9320  143.8730 C   0  0  0  0  0  3  0  0  0  0  0  0
  195.4350  171.0470  145.9930 C   0  0  0  0  0  3  0  0  0  0  0  0
  197.4420  170.1250  144.9990 C   0  0  0  0  0  3  0  0  0  0  0  0
  195.2350  171.8470  144.8590 C   0  0  0  0  0  0  0  0  0  0  0  0
  196.5300  170.1860  146.0620 C   0  0  0  0  0  3  0  0  0  0  0  0
  196.0280  172.6130  142.6810 O   0  0  0  0  0  1  0  0  0  0  0  0
  196.1660  171.7970  143.7990 C   0  0  0  0  0  0  0  0  0  0  0  0
  194.8680  174.9730  145.5940 C   0  0  1  0  0  3  0  0  0  0  0  0
  196.1020  174.5440  146.0870 O   0  0  0  0  0  1  0  0  0  0  0  0
  195.0020  175.3750  144.1350 C   0  0  0  0  0  2  0  0  0  0  0  0
  196.3720  175.7630  143.8390 N   0  0  0  0  0  2  0  0  0  0  0  0
  196.3350  176.6390  142.6780 C   0  0  0  0  0  2  0  0  0  0  0  0
  197.9070  175.4020  141.3870 O   0  0  0  0  0  0  0  0  0  0  0  0
  195.8290  175.7490  140.3750 N   0  0  0  0  0  2  0  0  0  0  0  0
  196.7480  175.8940  141.4580 C   0  0  0  0  0  0  0  0  0  0  0  0
  194.8910  174.9990  137.7680 C   0  0  0  0  0  1  0  0  0  0  0  0
  196.5300  173.4650  139.2460 O   0  0  0  0  0  0  0  0  0  0  0  0
  196.2360  174.9000  138.9240 S   0  0  0  0  0  0  0  0  0  0  0  0
  197.4550  175.5280  138.3120 O   0  0  0  0  0  0  0  0  0  0  0  0
  189.7470  173.1150  143.1830 C   0  0  0  0  0  3  0  0  0  0  0  0
  189.9000  173.0930  141.8680 C   0  0  0  0  0  2  0  0  0  0  0  0
  188.6320  176.3610  144.1960 C   0  0  0  0  0  2  0  0  0  0  0  0
  187.4760  177.2660  144.6060 C   0  0  0  0  0  2  0  0  0  0  0  0
  184.9030  178.6690  143.8640 O   0  0  0  0  0  0  0  0  0  0  0  0
  185.0730  177.4900  144.6040 C   0  0  1  0  0  3  0  0  0  0  0  0
  186.2150  176.7360  144.0840 N   0  0  0  0  0  0  0  0  0  0  0  0
  186.1910  177.0870  142.6810 C   0  0  0  0  0  2  0  0  0  0  0  0
  185.3520  178.3470  142.5760 C   0  0  1  0  0  3  0  0  0  0  0  0
  185.1310  177.7720  146.1010 C   0  0  0  0  0  1  0  0  0  0  0  0
  184.3990  178.0270  140.4200 O   0  0  0  0  0  0  0  0  0  0  0  0
  184.1830  178.1850  141.6520 C   0  0  0  0  0  0  0  0  0  0  0  0
  182.8740  178.2870  142.1380 O   0  0  0  0  0  0  0  0  0  0  0  0
  181.7690  178.5380  141.2780 C   0  0  0  0  0  2  0  0  0  0  0  0
  179.3740  178.4750  142.0730 C   0  0  0  0  0  0  0  0  0  0  0  0
  179.1350  177.4510  141.3780 O   0  0  0  0  0  0  0  0  0  0  0  0
  178.3180  179.0210  142.9590 C   0  0  0  0  0  1  0  0  0  0  0  0
  180.6620  179.0930  142.0470 N   0  0  0  0  0  2  0  0  0  0  0  0
  1  5  1  0  0  0  0
  1  6  2  0  0  0  0
  2 21  1  6  0  0  0
  3  5  2  0  0  0  0
  3  8  1  0  0  0  0
  4  1  1  0  0  0  0
  5  9  1  0  0  0  0
  6 17  1  0  0  0  0
  6  2  1  0  0  0  0
  8 11  1  0  0  0  0
  8 10  2  0  0  0  0
  9 10  1  0  0  0  0
  9  2  1  0  0  0  0
 10  7  1  0  0  0  0
 11 35  1  6  0  0  0
 11 13  1  0  0  0  0
 12  7  1  0  0  0  0
 13 12  1  0  0  0  0
 14 16  1  0  0  0  0
 15 18  1  0  0  0  0
 16 18  2  0  0  0  0
 17 15  2  0  0  0  0
 19 20  1  0  0  0  0
 20 14  2  0  0  0  0
 20 17  1  0  0  0  0
 21 22  1  6  0  0  0
 23 21  1  0  0  0  0
 24 23  1  0  0  0  0
 25 24  1  0  0  0  0
 26 28  2  0  0  0  0
 27 28  1  0  0  0  0
 28 25  1  0  0  0  0
 29 31  1  0  0  0  0
 31 30  2  0  0  0  0
 31 27  1  0  0  0  0
 32 31  2  0  0  0  0
 33  3  1  0  0  0  0
 34 33  2  0  0  0  0
 35 36  1  0  0  0  0
 37 38  1  0  0  0  0
 38 42  1  1  0  0  0
 39 38  1  0  0  0  0
 39 36  1  0  0  0  0
 40 39  1  0  0  0  0
 41 44  1  6  0  0  0
 41 40  1  0  0  0  0
 41 37  1  0  0  0  0
 43 44  2  0  0  0  0
 44 45  1  0  0  0  0
 46 50  1  0  0  0  0
 46 45  1  0  0  0  0
 47 49  1  0  0  0  0
 48 47  2  0  0  0  0
 50 47  1  0  0  0  0
M  END
>  <MODEL>
5

>  <REMARK>
 VINA RESULT:      -7.4      3.653     10.751
  Name = 
  15 active torsions:
  status: ('A' for Active; 'I' for Inactive)
    1  A    between atoms: C_2  and  C_5
    2  A    between atoms: C_2  and  C_27
    3  A    between atoms: C_9  and  C_11
    4  A    between atoms: C_12  and  C_31
    5  A    between atoms: C_12  and  C_46
    6  A    between atoms: C_18  and  C_25
    7  A    between atoms: N_24  and  S_30
    8  A    between atoms: C_26  and  N_41
    9  A    between atoms: C_26  and  C_43
   10  A    between atoms: C_27  and  N_41
   11  A    between atoms: N_29  and  C_31
   12  A    between atoms: C_32  and  N_38
   13  A    between atoms: C_32  and  O_39
   14  A    between atoms: C_35  and  C_37
   15  A    between atoms: C_35  and  O_39
                            x       y       z     vdW  Elec       q    Type
                         _______ _______ _______ _____ _____    ______ ____

>  <TORSDO>
F 15

$$$$
=
 OpenBabel11042415483D

 50 54  0  0  1  0  0  0  0  0999 V2000
  193.0310  175.5530  143.9200 C   0  0  0  0  0  0  0  0  0  0  0  0
  192.8550  173.3110  143.2280 C   0  0  2  0  0  3  0  0  0  0  0  0
  190.6990  176.0800  142.8000 C   0  0  0  0  0  0  0  0  0  0  0  0
  193.5310  176.7640  144.3840 O   0  0  0  0  0  1  0  0  0  0  0  0
  191.7310  175.3150  143.3360 C   0  0  0  0  0  0  0  0  0  0  0  0
  193.7020  174.3910  143.8870 C   0  0  0  0  0  0  0  0  0  0  0  0
  190.1890  172.7470  141.3320 C   0  0  0  0  0  2  0  0  0  0  0  0
  189.9420  175.1670  142.0640 C   0  0  0  0  0  0  0  0  0  0  0  0
  191.6240  174.0470  142.9750 N   0  0  0  0  0  0  0  0  0  0  0  0
  190.5480  173.9240  142.1820 C   0  0  0  0  0  0  0  0  0  0  0  0
  188.7320  175.4220  141.2170 C   0  0  1  0  0  3  0  0  0  0  0  0
  188.7370  172.8870  140.8600 C   0  0  0  0  0  2  0  0  0  0  0  0
  188.4950  174.2660  140.2230 C   0  0  0  0  0  2  0  0  0  0  0  0
  197.4800  174.0830  143.8400 C   0  0  0  0  0  3  0  0  0  0  0  0
  195.3670  173.9890  145.6760 C   0  0  0  0  0  3  0  0  0  0  0  0
  197.7350  173.8380  145.1920 C   0  0  0  0  0  3  0  0  0  0  0  0
  195.0990  174.2150  144.3180 C   0  0  0  0  0  0  0  0  0  0  0  0
  196.6780  173.7950  146.1110 C   0  0  0  0  0  3  0  0  0  0  0  0
  195.9450  174.5500  142.0530 O   0  0  0  0  0  1  0  0  0  0  0  0
  196.1690  174.2770  143.3990 C   0  0  0  0  0  0  0  0  0  0  0  0
  192.6240  172.1410  144.1910 C   0  0  1  0  0  3  0  0  0  0  0  0
  191.3150  172.1370  144.6790 O   0  0  0  0  0  1  0  0  0  0  0  0
  192.9270  170.8180  143.5070 C   0  0  0  0  0  2  0  0  0  0  0  0
  193.6960  171.0390  142.2930 N   0  0  0  0  0  2  0  0  0  0  0  0
  193.6790  169.7970  141.5350 C   0  0  0  0  0  2  0  0  0  0  0  0
  194.0080  170.3410  139.2420 O   0  0  0  0  0  0  0  0  0  0  0  0
  191.7930  169.9460  139.8720 N   0  0  0  0  0  2  0  0  0  0  0  0
  193.1890  170.0430  140.1520 C   0  0  0  0  0  0  0  0  0  0  0  0
  191.4070  171.9130  137.8170 C   0  0  0  0  0  1  0  0  0  0  0  0
  189.6790  169.9090  138.2870 O   0  0  0  0  0  0  0  0  0  0  0  0
  191.1460  170.2210  138.2910 S   0  0  0  0  0  0  0  0  0  0  0  0
  191.8440  169.3240  137.3100 O   0  0  0  0  0  0  0  0  0  0  0  0
  190.4750  177.5340  142.8530 C   0  0  0  0  0  3  0  0  0  0  0  0
  190.5460  178.2330  143.9750 C   0  0  0  0  0  2  0  0  0  0  0  0
  187.5190  175.6590  142.1100 C   0  0  0  0  0  2  0  0  0  0  0  0
  186.5460  176.6510  141.4820 C   0  0  0  0  0  2  0  0  0  0  0  0
  184.5020  177.8060  143.3860 O   0  0  0  0  0  0  0  0  0  0  0  0
  185.1940  178.4510  142.3510 C   0  0  1  0  0  3  0  0  0  0  0  0
  186.5470  177.9020  142.2400 N   0  0  0  0  0  0  0  0  0  0  0  0
  186.8330  177.5340  143.6090 C   0  0  0  0  0  2  0  0  0  0  0  0
  185.4930  177.4630  144.3160 C   0  0  1  0  0  3  0  0  0  0  0  0
  184.3980  178.4360  141.0510 C   0  0  0  0  0  1  0  0  0  0  0  0
  185.6550  179.6040  145.3410 O   0  0  0  0  0  0  0  0  0  0  0  0
  185.4180  178.3770  145.5030 C   0  0  0  0  0  0  0  0  0  0  0  0
  185.1670  177.8630  146.7800 O   0  0  0  0  0  0  0  0  0  0  0  0
  186.2180  177.4890  147.6620 C   0  0  0  0  0  2  0  0  0  0  0  0
  188.3830  176.4990  146.8230 C   0  0  0  0  0  0  0  0  0  0  0  0
  188.9980  177.5780  147.0350 O   0  0  0  0  0  0  0  0  0  0  0  0
  189.1310  175.3140  146.3360 C   0  0  0  0  0  1  0  0  0  0  0  0
  186.9830  176.3920  147.0820 N   0  0  0  0  0  2  0  0  0  0  0  0
  1  4  1  0  0  0  0
  2  6  1  0  0  0  0
  2 21  1  1  0  0  0
  3 33  1  0  0  0  0
  3  5  2  0  0  0  0
  5  1  1  0  0  0  0
  6  1  2  0  0  0  0
  6 17  1  0  0  0  0
  7 10  1  0  0  0  0
  8 10  2  0  0  0  0
  8  3  1  0  0  0  0
  9  2  1  0  0  0  0
  9  5  1  0  0  0  0
 10  9  1  0  0  0  0
 11  8  1  0  0  0  0
 11 35  1  1  0  0  0
 12  7  1  0  0  0  0
 13 12  1  0  0  0  0
 13 11  1  0  0  0  0
 14 16  1  0  0  0  0
 15 18  1  0  0  0  0
 16 18  2  0  0  0  0
 17 15  2  0  0  0  0
 19 20  1  0  0  0  0
 20 14  2  0  0  0  0
 20 17  1  0  0  0  0
 21 22  1  6  0  0  0
 23 21  1  0  0  0  0
 24 23  1  0  0  0  0
 25 24  1  0  0  0  0
 26 28  2  0  0  0  0
 27 28  1  0  0  0  0
 28 25  1  0  0  0  0
 29 31  1  0  0  0  0
 30 31  2  0  0  0  0
 31 27  1  0  0  0  0
 32 31  2  0  0  0  0
 33 34  2  0  0  0  0
 36 35  1  0  0  0  0
 36 39  1  0  0  0  0
 37 41  1  0  0  0  0
 38 42  1  6  0  0  0
 38 37  1  0  0  0  0
 39 38  1  0  0  0  0
 39 40  1  0  0  0  0
 40 41  1  0  0  0  0
 41 44  1  1  0  0  0
 43 44  2  0  0  0  0
 44 45  1  0  0  0  0
 45 46  1  0  0  0  0
 47 48  2  0  0  0  0
 47 50  1  0  0  0  0
 49 47  1  0  0  0  0
 50 46  1  0  0  0  0
M  END
>  <MODEL>
6

>  <REMARK>
 VINA RESULT:      -7.4      3.610      8.920
  Name = 
  15 active torsions:
  status: ('A' for Active; 'I' for Inactive)
    1  A    between atoms: C_2  and  C_5
    2  A    between atoms: C_2  and  C_27
    3  A    between atoms: C_9  and  C_11
    4  A    between atoms: C_12  and  C_31
    5  A    between atoms: C_12  and  C_46
    6  A    between atoms: C_18  and  C_25
    7  A    between atoms: N_24  and  S_30
    8  A    between atoms: C_26  and  N_41
    9  A    between atoms: C_26  and  C_43
   10  A    between atoms: C_27  and  N_41
   11  A    between atoms: N_29  and  C_31
   12  A    between atoms: C_32  and  N_38
   13  A    between atoms: C_32  and  O_39
   14  A    between atoms: C_35  and  C_37
   15  A    between atoms: C_35  and  O_39
                            x       y       z     vdW  Elec       q    Type
                         _______ _______ _______ _____ _____    ______ ____

>  <TORSDO>
F 15

$$$$
=
 OpenBabel11042415483D

 50 54  0  0  1  0  0  0  0  0999 V2000
  192.0860  173.9150  141.7330 C   0  0  0  0  0  0  0  0  0  0  0  0
  193.3010  174.1530  143.7340 C   0  0  2  0  0  3  0  0  0  0  0  0
  190.0250  175.1370  142.8420 C   0  0  0  0  0  0  0  0  0  0  0  0
  191.6710  173.5010  140.4730 O   0  0  0  0  0  1  0  0  0  0  0  0
  191.3430  174.7260  142.6710 C   0  0  0  0  0  0  0  0  0  0  0  0
  193.2450  173.5830  142.3240 C   0  0  0  0  0  0  0  0  0  0  0  0
  191.4980  175.4620  146.1950 C   0  0  0  0  0  2  0  0  0  0  0  0
  189.9660  175.5580  144.1710 C   0  0  0  0  0  0  0  0  0  0  0  0
  192.0420  174.8830  143.7840 N   0  0  0  0  0  0  0  0  0  0  0  0
  191.2240  175.3760  144.7280 C   0  0  0  0  0  0  0  0  0  0  0  0
  188.7820  176.0550  144.9440 C   0  0  1  0  0  3  0  0  0  0  0  0
  190.4600  176.3810  146.8500 C   0  0  0  0  0  2  0  0  0  0  0  0
  189.0300  175.9610  146.4640 C   0  0  0  0  0  2  0  0  0  0  0  0
  196.1430  172.2970  140.2450 C   0  0  0  0  0  3  0  0  0  0  0  0
  194.2970  171.3490  142.1270 C   0  0  0  0  0  3  0  0  0  0  0  0
  196.1560  170.9520  140.6260 C   0  0  0  0  0  3  0  0  0  0  0  0
  194.2630  172.6960  141.7370 C   0  0  0  0  0  0  0  0  0  0  0  0
  195.2350  170.4790  141.5710 C   0  0  0  0  0  3  0  0  0  0  0  0
  195.2330  174.5120  140.4270 O   0  0  0  0  0  1  0  0  0  0  0  0
  195.2040  173.1720  140.7990 C   0  0  0  0  0  0  0  0  0  0  0  0
  194.5020  175.0920  143.8920 C   0  0  1  0  0  3  0  0  0  0  0  0
  194.1510  176.4150  143.6160 O   0  0  0  0  0  1  0  0  0  0  0  0
  195.0800  174.9900  145.2940 C   0  0  0  0  0  2  0  0  0  0  0  0
  195.0160  173.6170  145.7700 N   0  0  0  0  0  2  0  0  0  0  0  0
  196.3530  173.0540  145.6560 C   0  0  0  0  0  2  0  0  0  0  0  0
  197.3530  170.8940  145.6560 O   0  0  0  0  0  0  0  0  0  0  0  0
  195.0160  170.9180  145.6340 N   0  0  0  0  0  2  0  0  0  0  0  0
  196.2870  171.5680  145.6510 C   0  0  0  0  0  0  0  0  0  0  0  0
  195.3090  168.5380  147.2120 C   0  0  0  0  0  1  0  0  0  0  0  0
  195.7440  168.6150  144.5610 O   0  0  0  0  0  0  0  0  0  0  0  0
  194.8590  169.1950  145.6240 S   0  0  0  0  0  0  0  0  0  0  0  0
  193.4320  168.8330  145.3310 O   0  0  0  0  0  0  0  0  0  0  0  0
  188.8820  175.0510  141.9180 C   0  0  0  0  0  3  0  0  0  0  0  0
  187.8410  174.2610  142.1300 C   0  0  0  0  0  2  0  0  0  0  0  0
  188.4450  177.4780  144.5120 C   0  0  0  0  0  2  0  0  0  0  0  0
  187.1270  177.9500  145.1150 C   0  0  0  0  0  2  0  0  0  0  0  0
  184.5550  179.0120  143.9360 O   0  0  0  0  0  0  0  0  0  0  0  0
  184.7370  177.9130  144.7870 C   0  0  1  0  0  3  0  0  0  0  0  0
  186.0080  177.2530  144.4830 N   0  0  0  0  0  0  0  0  0  0  0  0
  186.1400  177.5000  143.0630 C   0  0  0  0  0  2  0  0  0  0  0  0
  185.2040  178.6510  142.7470 C   0  0  1  0  0  3  0  0  0  0  0  0
  184.5630  178.3040  146.2510 C   0  0  0  0  0  1  0  0  0  0  0  0
  184.5800  178.1430  140.5080 O   0  0  0  0  0  0  0  0  0  0  0  0
  184.1920  178.3000  141.6980 C   0  0  0  0  0  0  0  0  0  0  0  0
  182.8330  178.2270  142.0180 O   0  0  0  0  0  0  0  0  0  0  0  0
  181.8190  178.6110  141.0970 C   0  0  0  0  0  2  0  0  0  0  0  0
  179.3780  178.5300  141.7350 C   0  0  0  0  0  0  0  0  0  0  0  0
  179.1790  177.5430  140.9790 O   0  0  0  0  0  0  0  0  0  0  0  0
  178.2710  179.0430  142.5780 C   0  0  0  0  0  1  0  0  0  0  0  0
  180.6680  179.1390  141.8200 N   0  0  0  0  0  2  0  0  0  0  0  0
  1  6  2  0  0  0  0
  1  5  1  0  0  0  0
  2  9  1  0  0  0  0
  2 21  1  6  0  0  0
  3  8  1  0  0  0  0
  4  1  1  0  0  0  0
  5  3  2  0  0  0  0
  5  9  1  0  0  0  0
  6  2  1  0  0  0  0
  7 12  1  0  0  0  0
  8 10  2  0  0  0  0
  8 11  1  0  0  0  0
  9 10  1  0  0  0  0
 10  7  1  0  0  0  0
 11 35  1  6  0  0  0
 11 13  1  0  0  0  0
 13 12  1  0  0  0  0
 14 16  2  0  0  0  0
 14 20  1  0  0  0  0
 16 18  1  0  0  0  0
 17 15  1  0  0  0  0
 17  6  1  0  0  0  0
 18 15  2  0  0  0  0
 19 20  1  0  0  0  0
 20 17  2  0  0  0  0
 21 22  1  1  0  0  0
 21 23  1  0  0  0  0
 23 24  1  0  0  0  0
 25 24  1  0  0  0  0
 27 28  1  0  0  0  0
 28 25  1  0  0  0  0
 28 26  2  0  0  0  0
 30 31  2  0  0  0  0
 31 27  1  0  0  0  0
 31 29  1  0  0  0  0
 32 31  2  0  0  0  0
 33 34  2  0  0  0  0
 33  3  1  0  0  0  0
 35 36  1  0  0  0  0
 37 38  1  0  0  0  0
 38 42  1  1  0  0  0
 39 38  1  0  0  0  0
 39 36  1  0  0  0  0
 40 39  1  0  0  0  0
 41 44  1  6  0  0  0
 41 40  1  0  0  0  0
 41 37  1  0  0  0  0
 43 44  2  0  0  0  0
 44 45  1  0  0  0  0
 46 50  1  0  0  0  0
 46 45  1  0  0  0  0
 47 50  1  0  0  0  0
 47 49  1  0  0  0  0
 48 47  2  0  0  0  0
M  END
>  <MODEL>
7

>  <REMARK>
 VINA RESULT:      -7.1      3.926     11.069
  Name = 
  15 active torsions:
  status: ('A' for Active; 'I' for Inactive)
    1  A    between atoms: C_2  and  C_5
    2  A    between atoms: C_2  and  C_27
    3  A    between atoms: C_9  and  C_11
    4  A    between atoms: C_12  and  C_31
    5  A    between atoms: C_12  and  C_46
    6  A    between atoms: C_18  and  C_25
    7  A    between atoms: N_24  and  S_30
    8  A    between atoms: C_26  and  N_41
    9  A    between atoms: C_26  and  C_43
   10  A    between atoms: C_27  and  N_41
   11  A    between atoms: N_29  and  C_31
   12  A    between atoms: C_32  and  N_38
   13  A    between atoms: C_32  and  O_39
   14  A    between atoms: C_35  and  C_37
   15  A    between atoms: C_35  and  O_39
                            x       y       z     vdW  Elec       q    Type
                         _______ _______ _______ _____ _____    ______ ____

>  <TORSDO>
F 15

$$$$
=
 OpenBabel11042415483D

 50 54  0  0  1  0  0  0  0  0999 V2000
  188.7710  177.1260  145.3880 C   0  0  0  0  0  0  0  0  0  0  0  0
  187.7720  176.5830  143.3280 C   0  0  2  0  0  3  0  0  0  0  0  0
  190.8970  175.7050  144.7300 C   0  0  0  0  0  0  0  0  0  0  0  0
  188.9700  177.5560  146.6950 O   0  0  0  0  0  1  0  0  0  0  0  0
  189.7110  176.4130  144.5550 C   0  0  0  0  0  0  0  0  0  0  0  0
  187.6350  177.2560  144.6860 C   0  0  0  0  0  0  0  0  0  0  0  0
  189.5680  174.4330  141.5460 C   0  0  0  0  0  2  0  0  0  0  0  0
  191.0250  174.9540  143.5610 C   0  0  0  0  0  0  0  0  0  0  0  0
  189.1570  176.1340  143.3860 N   0  0  0  0  0  0  0  0  0  0  0  0
  189.9270  175.2320  142.7580 C   0  0  0  0  0  0  0  0  0  0  0  0
  192.0820  173.9540  143.2020 C   0  0  1  0  0  3  0  0  0  0  0  0
  190.8330  173.7860  140.9730 C   0  0  0  0  0  2  0  0  0  0  0  0
  191.6070  173.0260  142.0650 C   0  0  0  0  0  2  0  0  0  0  0  0
  184.4440  177.8210  146.6560 C   0  0  0  0  0  3  0  0  0  0  0  0
  185.9720  179.0930  144.6830 C   0  0  0  0  0  3  0  0  0  0  0  0
  184.0230  179.0400  146.1180 C   0  0  0  0  0  3  0  0  0  0  0  0
  186.3940  177.8600  145.2020 C   0  0  0  0  0  0  0  0  0  0  0  0
  184.7890  179.6780  145.1340 C   0  0  0  0  0  3  0  0  0  0  0  0
  186.0430  176.0330  146.7810 O   0  0  0  0  0  1  0  0  0  0  0  0
  185.6280  177.2300  146.2070 C   0  0  0  0  0  0  0  0  0  0  0  0
  187.5550  177.5950  142.1970 C   0  0  1  0  0  3  0  0  0  0  0  0
  188.7680  178.1210  141.7480 O   0  0  0  0  0  1  0  0  0  0  0  0
  186.8080  176.9510  141.0410 C   0  0  0  0  0  2  0  0  0  0  0  0
  185.7820  177.8500  140.5360 N   0  0  0  0  0  2  0  0  0  0  0  0
  184.9230  178.2030  141.6570 C   0  0  0  0  0  2  0  0  0  0  0  0
  183.2000  177.9670  140.0320 O   0  0  0  0  0  0  0  0  0  0  0  0
  182.5010  178.7060  142.1360 N   0  0  0  0  0  2  0  0  0  0  0  0
  183.5040  178.2770  141.2160 C   0  0  0  0  0  0  0  0  0  0  0  0
  180.5990  180.1610  140.5530 C   0  0  0  0  0  1  0  0  0  0  0  0
  180.0040  179.0490  142.9270 O   0  0  0  0  0  0  0  0  0  0  0  0
  180.8330  178.8220  141.6970 S   0  0  0  0  0  0  0  0  0  0  0  0
  180.4050  177.5400  141.0440 O   0  0  0  0  0  0  0  0  0  0  0  0
  191.7840  175.6260  145.9020 C   0  0  0  0  0  3  0  0  0  0  0  0
  192.7620  176.4900  146.1260 C   0  0  0  0  0  2  0  0  0  0  0  0
  193.3740  174.6800  142.8390 C   0  0  0  0  0  2  0  0  0  0  0  0
  194.5460  174.1930  143.6830 C   0  0  0  0  0  2  0  0  0  0  0  0
  196.8280  172.2590  144.1200 O   0  0  0  0  0  0  0  0  0  0  0  0
  195.8110  172.2070  143.1560 C   0  0  1  0  0  3  0  0  0  0  0  0
  194.5650  172.7310  143.7190 N   0  0  0  0  0  0  0  0  0  0  0  0
  194.6930  172.3720  145.1140 C   0  0  0  0  0  2  0  0  0  0  0  0
  196.1660  172.0920  145.3440 C   0  0  1  0  0  3  0  0  0  0  0  0
  196.2410  172.8670  141.8510 C   0  0  0  0  0  1  0  0  0  0  0  0
  197.5820  170.2380  145.8110 O   0  0  0  0  0  0  0  0  0  0  0  0
  196.4150  170.7120  145.8750 C   0  0  0  0  0  0  0  0  0  0  0  0
  195.3570  169.9350  146.3580 O   0  0  0  0  0  0  0  0  0  0  0  0
  195.0600  168.6500  145.8250 C   0  0  0  0  0  2  0  0  0  0  0  0
  193.6670  169.1370  143.7770 C   0  0  0  0  0  0  0  0  0  0  0  0
  192.6490  169.3680  144.4840 O   0  0  0  0  0  0  0  0  0  0  0  0
  193.5940  169.3180  142.3070 C   0  0  0  0  0  1  0  0  0  0  0  0
  194.9000  168.7400  144.3790 N   0  0  0  0  0  2  0  0  0  0  0  0
  1  4  1  0  0  0  0
  2 21  1  6  0  0  0
  2  9  1  0  0  0  0
  2  6  1  0  0  0  0
  3 33  1  0  0  0  0
  5  3  2  0  0  0  0
  5  1  1  0  0  0  0
  6 17  1  0  0  0  0
  6  1  2  0  0  0  0
  7 10  1  0  0  0  0
  8  3  1  0  0  0  0
  9  5  1  0  0  0  0
 10  9  1  0  0  0  0
 10  8  2  0  0  0  0
 11 35  1  6  0  0  0
 11  8  1  0  0  0  0
 12  7  1  0  0  0  0
 12 13  1  0  0  0  0
 13 11  1  0  0  0  0
 15 18  2  0  0  0  0
 15 17  1  0  0  0  0
 16 14  2  0  0  0  0
 17 20  2  0  0  0  0
 18 16  1  0  0  0  0
 20 14  1  0  0  0  0
 20 19  1  0  0  0  0
 21 22  1  6  0  0  0
 23 21  1  0  0  0  0
 24 23  1  0  0  0  0
 24 25  1  0  0  0  0
 26 28  2  0  0  0  0
 28 25  1  0  0  0  0
 28 27  1  0  0  0  0
 29 31  1  0  0  0  0
 31 27  1  0  0  0  0
 31 30  2  0  0  0  0
 32 31  2  0  0  0  0
 33 34  2  0  0  0  0
 35 36  1  0  0  0  0
 36 39  1  0  0  0  0
 37 41  1  0  0  0  0
 38 42  1  6  0  0  0
 38 39  1  0  0  0  0
 38 37  1  0  0  0  0
 39 40  1  0  0  0  0
 40 41  1  0  0  0  0
 41 44  1  6  0  0  0
 43 44  2  0  0  0  0
 44 45  1  0  0  0  0
 46 45  1  0  0  0  0
 47 50  1  0  0  0  0
 47 48  2  0  0  0  0
 49 47  1  0  0  0  0
 50 46  1  0  0  0  0
M  END
>  <MODEL>
8

>  <REMARK>
 VINA RESULT:      -7.1      2.939      3.861
  Name = 
  15 active torsions:
  status: ('A' for Active; 'I' for Inactive)
    1  A    between atoms: C_2  and  C_5
    2  A    between atoms: C_2  and  C_27
    3  A    between atoms: C_9  and  C_11
    4  A    between atoms: C_12  and  C_31
    5  A    between atoms: C_12  and  C_46
    6  A    between atoms: C_18  and  C_25
    7  A    between atoms: N_24  and  S_30
    8  A    between atoms: C_26  and  N_41
    9  A    between atoms: C_26  and  C_43
   10  A    between atoms: C_27  and  N_41
   11  A    between atoms: N_29  and  C_31
   12  A    between atoms: C_32  and  N_38
   13  A    between atoms: C_32  and  O_39
   14  A    between atoms: C_35  and  C_37
   15  A    between atoms: C_35  and  O_39
                            x       y       z     vdW  Elec       q    Type
                         _______ _______ _______ _____ _____    ______ ____

>  <TORSDO>
F 15

$$$$
=
 OpenBabel11042415483D

 50 54  0  0  1  0  0  0  0  0999 V2000
  193.8050  173.5120  145.0000 C   0  0  0  0  0  0  0  0  0  0  0  0
  192.2460  172.6960  143.4390 C   0  0  2  0  0  3  0  0  0  0  0  0
  192.6330  175.8770  144.9320 C   0  0  0  0  0  0  0  0  0  0  0  0
  194.9270  173.6490  145.8090 O   0  0  0  0  0  1  0  0  0  0  0  0
  192.7850  174.5050  144.7530 C   0  0  0  0  0  0  0  0  0  0  0  0
  193.5020  172.4370  144.2570 C   0  0  0  0  0  0  0  0  0  0  0  0
  190.1950  175.0490  142.3070 C   0  0  0  0  0  2  0  0  0  0  0  0
  191.5650  176.2160  144.0990 C   0  0  0  0  0  0  0  0  0  0  0  0
  191.8930  174.0330  143.8980 N   0  0  0  0  0  0  0  0  0  0  0  0
  191.1400  175.0570  143.4650 C   0  0  0  0  0  0  0  0  0  0  0  0
  190.9800  177.5700  143.8310 C   0  0  1  0  0  3  0  0  0  0  0  0
  189.3070  176.2970  142.3690 C   0  0  0  0  0  2  0  0  0  0  0  0
  190.1560  177.5710  142.5260 C   0  0  0  0  0  2  0  0  0  0  0  0
  196.0040  169.8670  143.0280 C   0  0  0  0  0  3  0  0  0  0  0  0
  194.2080  170.2350  145.1450 C   0  0  0  0  0  3  0  0  0  0  0  0
  195.8590  168.8780  144.0050 C   0  0  0  0  0  3  0  0  0  0  0  0
  194.3320  171.2230  144.1590 C   0  0  0  0  0  0  0  0  0  0  0  0
  194.9630  169.0640  145.0670 C   0  0  0  0  0  3  0  0  0  0  0  0
  195.4360  172.0220  142.1340 O   0  0  0  0  0  1  0  0  0  0  0  0
  195.2490  171.0400  143.1020 C   0  0  0  0  0  0  0  0  0  0  0  0
  191.1540  171.6770  143.7820 C   0  0  1  0  0  3  0  0  0  0  0  0
  190.2630  172.1880  144.7280 O   0  0  0  0  0  1  0  0  0  0  0  0
  190.4000  171.2590  142.5310 C   0  0  0  0  0  2  0  0  0  0  0  0
  191.1220  171.6780  141.3390 N   0  0  0  0  0  2  0  0  0  0  0  0
  190.7790  170.7480  140.2740 C   0  0  0  0  0  2  0  0  0  0  0  0
  191.5670  171.2220  138.0790 O   0  0  0  0  0  0  0  0  0  0  0  0
  189.6730  172.4170  138.7440 N   0  0  0  0  0  2  0  0  0  0  0  0
  190.7090  171.4620  138.9700 C   0  0  0  0  0  0  0  0  0  0  0  0
  189.3180  172.1530  135.9080 C   0  0  0  0  0  1  0  0  0  0  0  0
  190.7570  174.1210  137.0400 O   0  0  0  0  0  0  0  0  0  0  0  0
  189.5270  173.2890  137.2580 S   0  0  0  0  0  0  0  0  0  0  0  0
  188.3280  174.1890  137.3300 O   0  0  0  0  0  0  0  0  0  0  0  0
  193.4540  176.8260  145.7020 C   0  0  0  0  0  3  0  0  0  0  0  0
  194.6840  177.1650  145.3500 C   0  0  0  0  0  2  0  0  0  0  0  0
  190.1480  178.0170  145.0270 C   0  0  0  0  0  2  0  0  0  0  0  0
  189.7570  176.8370  145.9100 C   0  0  0  0  0  2  0  0  0  0  0  0
  187.2800  176.9580  147.6380 O   0  0  0  0  0  0  0  0  0  0  0  0
  187.7320  175.9040  146.8320 C   0  0  1  0  0  3  0  0  0  0  0  0
  188.3780  176.4370  145.6310 N   0  0  0  0  0  0  0  0  0  0  0  0
  187.6460  177.6670  145.4190 C   0  0  0  0  0  2  0  0  0  0  0  0
  186.9640  177.9840  146.7370 C   0  0  1  0  0  3  0  0  0  0  0  0
  188.5850  174.9190  147.6240 C   0  0  0  0  0  1  0  0  0  0  0  0
  184.8070  178.5130  147.5900 O   0  0  0  0  0  0  0  0  0  0  0  0
  185.4760  178.1060  146.6010 C   0  0  0  0  0  0  0  0  0  0  0  0
  184.8330  177.6990  145.4270 O   0  0  0  0  0  0  0  0  0  0  0  0
  184.1650  178.6220  144.5750 C   0  0  0  0  0  2  0  0  0  0  0  0
  185.3470  178.5010  142.3490 C   0  0  0  0  0  0  0  0  0  0  0  0
  186.2670  179.2580  142.7580 O   0  0  0  0  0  0  0  0  0  0  0  0
  185.4300  177.9190  140.9870 C   0  0  0  0  0  1  0  0  0  0  0  0
  184.2450  178.1660  143.1930 N   0  0  0  0  0  2  0  0  0  0  0  0
  1  4  1  0  0  0  0
  2 21  1  1  0  0  0
  2  9  1  0  0  0  0
  2  6  1  0  0  0  0
  3 33  1  0  0  0  0
  5  3  2  0  0  0  0
  5  1  1  0  0  0  0
  6  1  2  0  0  0  0
  7 12  1  0  0  0  0
  7 10  1  0  0  0  0
  8  3  1  0  0  0  0
  9  5  1  0  0  0  0
 10  9  1  0  0  0  0
 10  8  2  0  0  0  0
 11  8  1  0  0  0  0
 11 35  1  1  0  0  0
 12 13  1  0  0  0  0
 13 11  1  0  0  0  0
 14 20  2  0  0  0  0
 14 16  1  0  0  0  0
 16 18  2  0  0  0  0
 17  6  1  0  0  0  0
 17 15  2  0  0  0  0
 18 15  1  0  0  0  0
 19 20  1  0  0  0  0
 20 17  1  0  0  0  0
 21 22  1  1  0  0  0
 23 21  1  0  0  0  0
 24 23  1  0  0  0  0
 25 24  1  0  0  0  0
 26 28  2  0  0  0  0
 27 28  1  0  0  0  0
 28 25  1  0  0  0  0
 29 31  1  0  0  0  0
 30 31  2  0  0  0  0
 31 32  2  0  0  0  0
 31 27  1  0  0  0  0
 34 33  2  0  0  0  0
 35 36  1  0  0  0  0
 38 42  1  1  0  0  0
 38 37  1  0  0  0  0
 39 36  1  0  0  0  0
 39 38  1  0  0  0  0
 40 39  1  0  0  0  0
 40 41  1  0  0  0  0
 41 44  1  6  0  0  0
 41 37  1  0  0  0  0
 44 43  2  0  0  0  0
 45 44  1  0  0  0  0
 46 45  1  0  0  0  0
 47 48  2  0  0  0  0
 47 50  1  0  0  0  0
 49 47  1  0  0  0  0
 50 46  1  0  0  0  0
M  END
>  <MODEL>
9

>  <REMARK>
 VINA RESULT:      -6.9      3.628      8.881
  Name = 
  15 active torsions:
  status: ('A' for Active; 'I' for Inactive)
    1  A    between atoms: C_2  and  C_5
    2  A    between atoms: C_2  and  C_27
    3  A    between atoms: C_9  and  C_11
    4  A    between atoms: C_12  and  C_31
    5  A    between atoms: C_12  and  C_46
    6  A    between atoms: C_18  and  C_25
    7  A    between atoms: N_24  and  S_30
    8  A    between atoms: C_26  and  N_41
    9  A    between atoms: C_26  and  C_43
   10  A    between atoms: C_27  and  N_41
   11  A    between atoms: N_29  and  C_31
   12  A    between atoms: C_32  and  N_38
   13  A    between atoms: C_32  and  O_39
   14  A    between atoms: C_35  and  C_37
   15  A    between atoms: C_35  and  O_39
                            x       y       z     vdW  Elec       q    Type
                         _______ _______ _______ _____ _____    ______ ____

>  <TORSDO>
F 15

$$$$
