=
 OpenBabel11042414213D

 27 29  0  0  1  0  0  0  0  0999 V2000
  188.2550  177.3400  145.2260 C   0  0  0  0  0  0  0  0  0  0  0  0
  188.5710  176.4190  146.2140 C   0  0  0  0  0  0  0  0  0  0  0  0
  187.6530  176.0570  147.1460 N   0  0  0  0  0  0  0  0  0  0  0  0
  189.6210  177.6290  144.2890 S   0  0  0  0  0  0  0  0  0  0  0  0
  186.4040  176.6080  147.1280 C   0  0  0  0  0  3  0  0  0  0  0  0
  186.0510  177.5490  146.1430 C   0  0  0  0  0  3  0  0  0  0  0  0
  190.6000  176.5450  145.1370 C   0  0  0  0  0  0  0  0  0  0  0  0
  189.8870  175.9510  146.1800 C   0  0  0  0  0  3  0  0  0  0  0  0
  186.9810  177.9130  145.1590 C   0  0  0  0  0  0  0  0  0  0  0  0
  191.9740  176.3040  144.8120 N   0  0  0  0  0  2  0  0  0  0  0  0
  194.6360  176.7800  145.1590 O   0  0  0  0  0  0  0  0  0  0  0  0
  191.6400  174.6970  143.1440 O   0  0  0  0  0  0  0  0  0  0  0  0
  194.8990  175.9370  144.2610 C   0  0  0  0  0  0  0  0  0  0  0  0
  193.8530  175.2310  143.5800 N   0  0  0  0  0  2  0  0  0  0  0  0
  192.4500  175.3840  143.8200 C   0  0  0  0  0  0  0  0  0  0  0  0
  196.3260  175.6820  143.8990 C   0  0  1  0  0  3  0  0  0  0  0  0
  196.4170  174.5290  143.1210 O   0  0  0  0  0  1  0  0  0  0  0  0
  196.9080  176.8590  143.1340 C   0  0  0  0  0  2  0  0  0  0  0  0
  196.3580  176.9170  141.8530 O   0  0  0  0  0  1  0  0  0  0  0  0
  186.6240  178.8910  144.1760 N   0  0  0  0  0  2  0  0  0  0  0  0
  185.5150  178.2350  140.7590 N   0  0  0  0  0  0  0  0  0  0  0  0
  185.8460  178.6140  143.0090 C   0  0  1  0  0  3  0  0  0  0  0  0
  184.0480  178.7130  142.9760 S   0  0  0  0  0  0  0  0  0  0  0  0
  183.1730  177.9420  140.5320 C   0  0  0  0  0  0  0  0  0  0  0  0
  182.2150  177.5230  139.8720 O   0  0  0  0  0  0  0  0  0  0  0  0
  186.4240  178.4090  141.8350 C   0  0  0  0  0  3  0  0  0  0  0  0
  184.1840  178.3820  141.2270 C   0  0  0  0  0  0  0  0  0  0  0  0
  1  2  1  0  0  0  0
  2  3  2  0  0  0  0
  4  7  1  0  0  0  0
  4  1  1  0  0  0  0
  5  3  1  0  0  0  0
  6  5  2  0  0  0  0
  7  8  2  0  0  0  0
  8  2  1  0  0  0  0
  9  1  2  0  0  0  0
  9  6  1  0  0  0  0
 10  7  1  0  0  0  0
 12 15  2  0  0  0  0
 13 11  2  0  0  0  0
 14 15  1  0  0  0  0
 14 13  1  0  0  0  0
 15 10  1  0  0  0  0
 16 17  1  6  0  0  0
 16 13  1  0  0  0  0
 18 16  1  0  0  0  0
 19 18  1  0  0  0  0
 20  9  1  0  0  0  0
 21 27  1  0  0  0  0
 21 26  2  0  0  0  0
 22 20  1  6  0  0  0
 23 22  1  0  0  0  0
 24 27  2  0  0  0  0
 25 24  2  0  0  0  0
 26 22  1  0  0  0  0
 27 23  1  0  0  0  0
M  END
>  <MODEL>
1

>  <REMARK>
 VINA RESULT:      -6.7      0.000      0.000
  Name = 
  5 active torsions:
  status: ('A' for Active; 'I' for Inactive)
    1  A    between atoms: C_5  and  C_11
    2  A    between atoms: C_5  and  C_18
    3  A    between atoms: N_7  and  C_13
    4  A    between atoms: C_9  and  N_24
    5  A    between atoms: C_23  and  N_24
                            x       y       z     vdW  Elec       q    Type
                         _______ _______ _______ _____ _____    ______ ____

>  <TORSDO>
F 5

$$$$
=
 OpenBabel11042414213D

 27 29  0  0  1  0  0  0  0  0999 V2000
  186.3000  177.7980  145.2780 C   0  0  0  0  0  0  0  0  0  0  0  0
  185.4240  178.6330  145.9570 C   0  0  0  0  0  0  0  0  0  0  0  0
  185.6860  179.0260  147.2300 N   0  0  0  0  0  0  0  0  0  0  0  0
  185.6520  177.4360  143.7690 S   0  0  0  0  0  0  0  0  0  0  0  0
  186.8150  178.5940  147.8630 C   0  0  0  0  0  3  0  0  0  0  0  0
  187.7230  177.7440  147.2050 C   0  0  0  0  0  3  0  0  0  0  0  0
  184.2680  178.3780  143.9850 C   0  0  0  0  0  0  0  0  0  0  0  0
  184.2730  178.9790  145.2450 C   0  0  0  0  0  3  0  0  0  0  0  0
  187.4790  177.3490  145.8830 C   0  0  0  0  0  0  0  0  0  0  0  0
  183.2420  178.5100  142.9940 N   0  0  0  0  0  2  0  0  0  0  0  0
  180.6670  179.0390  142.2690 O   0  0  0  0  0  0  0  0  0  0  0  0
  184.5290  177.9760  141.1140 O   0  0  0  0  0  0  0  0  0  0  0  0
  180.9670  178.8250  141.0640 C   0  0  0  0  0  0  0  0  0  0  0  0
  182.3020  178.4600  140.6890 N   0  0  0  0  0  2  0  0  0  0  0  0
  183.4070  178.3020  141.5850 C   0  0  0  0  0  0  0  0  0  0  0  0
  179.9070  178.9440  140.0190 C   0  0  1  0  0  3  0  0  0  0  0  0
  179.0690  177.8300  140.0680 O   0  0  0  0  0  1  0  0  0  0  0  0
  179.0870  180.2070  140.2210 C   0  0  0  0  0  2  0  0  0  0  0  0
  179.8630  181.3310  139.9380 O   0  0  0  0  0  1  0  0  0  0  0  0
  188.3920  176.4630  145.2280 N   0  0  0  0  0  2  0  0  0  0  0  0
  191.5400  177.7690  143.9140 N   0  0  0  0  0  0  0  0  0  0  0  0
  189.7720  176.7560  144.9940 C   0  0  1  0  0  3  0  0  0  0  0  0
  191.1200  175.8180  145.7340 S   0  0  0  0  0  0  0  0  0  0  0  0
  193.4730  176.9500  145.0150 C   0  0  0  0  0  0  0  0  0  0  0  0
  194.6750  177.0690  145.2790 O   0  0  0  0  0  0  0  0  0  0  0  0
  190.1370  177.6560  144.0920 C   0  0  0  0  0  3  0  0  0  0  0  0
  192.2060  176.8260  144.7370 C   0  0  0  0  0  0  0  0  0  0  0  0
  1  9  2  0  0  0  0
  1  2  1  0  0  0  0
  2  3  2  0  0  0  0
  3  5  1  0  0  0  0
  4  7  1  0  0  0  0
  4  1  1  0  0  0  0
  6  5  2  0  0  0  0
  7  8  2  0  0  0  0
  8  2  1  0  0  0  0
  9  6  1  0  0  0  0
 10  7  1  0  0  0  0
 12 15  2  0  0  0  0
 13 11  2  0  0  0  0
 14 13  1  0  0  0  0
 14 15  1  0  0  0  0
 15 10  1  0  0  0  0
 16 17  1  1  0  0  0
 16 18  1  0  0  0  0
 16 13  1  0  0  0  0
 19 18  1  0  0  0  0
 20  9  1  0  0  0  0
 21 26  2  0  0  0  0
 21 27  1  0  0  0  0
 22 20  1  6  0  0  0
 22 23  1  0  0  0  0
 24 25  2  0  0  0  0
 26 22  1  0  0  0  0
 27 24  2  0  0  0  0
 27 23  1  0  0  0  0
M  END
>  <MODEL>
2

>  <REMARK>
 VINA RESULT:      -6.7      2.503     10.123
  Name = 
  5 active torsions:
  status: ('A' for Active; 'I' for Inactive)
    1  A    between atoms: C_5  and  C_11
    2  A    between atoms: C_5  and  C_18
    3  A    between atoms: N_7  and  C_13
    4  A    between atoms: C_9  and  N_24
    5  A    between atoms: C_23  and  N_24
                            x       y       z     vdW  Elec       q    Type
                         _______ _______ _______ _____ _____    ______ ____

>  <TORSDO>
F 5

$$$$
=
 OpenBabel11042414213D

 27 29  0  0  1  0  0  0  0  0999 V2000
  187.8870  177.2820  145.3850 C   0  0  0  0  0  0  0  0  0  0  0  0
  187.9600  176.4890  146.5210 C   0  0  0  0  0  0  0  0  0  0  0  0
  186.8840  176.3430  147.3360 N   0  0  0  0  0  0  0  0  0  0  0  0
  189.3970  177.3200  144.6450 S   0  0  0  0  0  0  0  0  0  0  0  0
  185.7150  176.9860  147.0510 C   0  0  0  0  0  3  0  0  0  0  0  0
  185.6070  177.8010  145.9090 C   0  0  0  0  0  3  0  0  0  0  0  0
  190.1250  176.2930  145.7700 C   0  0  0  0  0  0  0  0  0  0  0  0
  189.2120  175.9150  146.7560 C   0  0  0  0  0  3  0  0  0  0  0  0
  186.7020  177.9420  145.0450 C   0  0  0  0  0  0  0  0  0  0  0  0
  191.4990  175.8940  145.6990 N   0  0  0  0  0  2  0  0  0  0  0  0
  194.0930  176.0810  146.5230 O   0  0  0  0  0  0  0  0  0  0  0  0
  191.2940  174.3000  143.9990 O   0  0  0  0  0  0  0  0  0  0  0  0
  194.4170  175.1960  145.6880 C   0  0  0  0  0  0  0  0  0  0  0  0
  193.4370  174.5960  144.8290 N   0  0  0  0  0  2  0  0  0  0  0  0
  192.0410  174.9080  144.8110 C   0  0  0  0  0  0  0  0  0  0  0  0
  195.8470  174.7780  145.5900 C   0  0  1  0  0  3  0  0  0  0  0  0
  195.9480  173.3970  145.7510 O   0  0  0  0  0  1  0  0  0  0  0  0
  196.4370  175.1790  144.2480 C   0  0  0  0  0  2  0  0  0  0  0  0
  196.1750  176.5250  143.9930 O   0  0  0  0  0  1  0  0  0  0  0  0
  186.5940  178.7940  143.9000 N   0  0  0  0  0  2  0  0  0  0  0  0
  185.2920  178.1690  140.5460 N   0  0  0  0  0  0  0  0  0  0  0  0
  185.7500  178.5320  142.7760 C   0  0  1  0  0  3  0  0  0  0  0  0
  183.9540  178.6500  142.8420 S   0  0  0  0  0  0  0  0  0  0  0  0
  182.9380  177.9010  140.4460 C   0  0  0  0  0  0  0  0  0  0  0  0
  181.9400  177.4960  139.8370 O   0  0  0  0  0  0  0  0  0  0  0  0
  186.2600  178.3270  141.5700 C   0  0  0  0  0  3  0  0  0  0  0  0
  183.9900  178.3270  141.0860 C   0  0  0  0  0  0  0  0  0  0  0  0
  1  2  1  0  0  0  0
  2  8  1  0  0  0  0
  2  3  2  0  0  0  0
  4  1  1  0  0  0  0
  4  7  1  0  0  0  0
  5  3  1  0  0  0  0
  6  5  2  0  0  0  0
  7  8  2  0  0  0  0
  9  1  2  0  0  0  0
  9  6  1  0  0  0  0
 10  7  1  0  0  0  0
 12 15  2  0  0  0  0
 13 11  2  0  0  0  0
 14 13  1  0  0  0  0
 15 14  1  0  0  0  0
 15 10  1  0  0  0  0
 16 13  1  0  0  0  0
 16 17  1  6  0  0  0
 18 16  1  0  0  0  0
 19 18  1  0  0  0  0
 20  9  1  0  0  0  0
 21 27  1  0  0  0  0
 21 26  2  0  0  0  0
 22 23  1  0  0  0  0
 22 20  1  6  0  0  0
 24 27  2  0  0  0  0
 25 24  2  0  0  0  0
 26 22  1  0  0  0  0
 27 23  1  0  0  0  0
M  END
>  <MODEL>
3

>  <REMARK>
 VINA RESULT:      -6.6      1.089      1.175
  Name = 
  5 active torsions:
  status: ('A' for Active; 'I' for Inactive)
    1  A    between atoms: C_5  and  C_11
    2  A    between atoms: C_5  and  C_18
    3  A    between atoms: N_7  and  C_13
    4  A    between atoms: C_9  and  N_24
    5  A    between atoms: C_23  and  N_24
                            x       y       z     vdW  Elec       q    Type
                         _______ _______ _______ _____ _____    ______ ____

>  <TORSDO>
F 5

$$$$
=
 OpenBabel11042414213D

 27 29  0  0  1  0  0  0  0  0999 V2000
  187.5820  177.5390  145.2980 C   0  0  0  0  0  0  0  0  0  0  0  0
  187.5930  176.7910  146.4670 C   0  0  0  0  0  0  0  0  0  0  0  0
  186.4880  176.7120  147.2510 N   0  0  0  0  0  0  0  0  0  0  0  0
  189.1140  177.4980  144.6060 S   0  0  0  0  0  0  0  0  0  0  0  0
  185.3500  177.3800  146.9030 C   0  0  0  0  0  3  0  0  0  0  0  0
  185.3050  178.1500  145.7270 C   0  0  0  0  0  3  0  0  0  0  0  0
  189.7730  176.4960  145.7950 C   0  0  0  0  0  0  0  0  0  0  0  0
  188.8170  176.1880  146.7640 C   0  0  0  0  0  3  0  0  0  0  0  0
  186.4290  178.2220  144.8930 C   0  0  0  0  0  0  0  0  0  0  0  0
  191.1350  176.0520  145.7840 N   0  0  0  0  0  2  0  0  0  0  0  0
  193.7780  176.4190  146.3490 O   0  0  0  0  0  0  0  0  0  0  0  0
  190.8020  173.9880  144.7320 O   0  0  0  0  0  0  0  0  0  0  0  0
  194.0370  175.2950  145.8430 C   0  0  0  0  0  0  0  0  0  0  0  0
  192.9970  174.4740  145.2920 N   0  0  0  0  0  2  0  0  0  0  0  0
  191.6060  174.8080  145.2490 C   0  0  0  0  0  0  0  0  0  0  0  0
  195.4530  174.8220  145.8110 C   0  0  1  0  0  3  0  0  0  0  0  0
  195.4850  173.4280  145.8060 O   0  0  0  0  0  1  0  0  0  0  0  0
  196.1720  175.3520  144.5810 C   0  0  0  0  0  2  0  0  0  0  0  0
  197.4010  174.7100  144.4320 O   0  0  0  0  0  1  0  0  0  0  0  0
  186.3850  179.0290  143.7120 N   0  0  0  0  0  2  0  0  0  0  0  0
  184.9060  177.8900  140.5730 N   0  0  0  0  0  0  0  0  0  0  0  0
  186.1750  178.5170  142.3930 C   0  0  1  0  0  3  0  0  0  0  0  0
  187.4530  177.6750  141.4460 S   0  0  0  0  0  0  0  0  0  0  0  0
  186.4760  177.0800  138.9910 C   0  0  0  0  0  0  0  0  0  0  0  0
  186.7510  176.7950  137.8200 O   0  0  0  0  0  0  0  0  0  0  0  0
  184.9670  178.5080  141.8490 C   0  0  0  0  0  3  0  0  0  0  0  0
  186.1840  177.3820  140.2250 C   0  0  0  0  0  0  0  0  0  0  0  0
  1  2  1  0  0  0  0
  2  8  1  0  0  0  0
  2  3  2  0  0  0  0
  4  1  1  0  0  0  0
  4  7  1  0  0  0  0
  5  3  1  0  0  0  0
  6  5  2  0  0  0  0
  7  8  2  0  0  0  0
  9  1  2  0  0  0  0
  9  6  1  0  0  0  0
 10  7  1  0  0  0  0
 12 15  2  0  0  0  0
 13 11  2  0  0  0  0
 14 13  1  0  0  0  0
 15 14  1  0  0  0  0
 15 10  1  0  0  0  0
 16 17  1  6  0  0  0
 16 13  1  0  0  0  0
 18 16  1  0  0  0  0
 19 18  1  0  0  0  0
 20  9  1  0  0  0  0
 21 26  2  0  0  0  0
 22 20  1  1  0  0  0
 23 22  1  0  0  0  0
 24 27  2  0  0  0  0
 25 24  2  0  0  0  0
 26 22  1  0  0  0  0
 27 21  1  0  0  0  0
 27 23  1  0  0  0  0
M  END
>  <MODEL>
4

>  <REMARK>
 VINA RESULT:      -6.6      1.891      2.146
  Name = 
  5 active torsions:
  status: ('A' for Active; 'I' for Inactive)
    1  A    between atoms: C_5  and  C_11
    2  A    between atoms: C_5  and  C_18
    3  A    between atoms: N_7  and  C_13
    4  A    between atoms: C_9  and  N_24
    5  A    between atoms: C_23  and  N_24
                            x       y       z     vdW  Elec       q    Type
                         _______ _______ _______ _____ _____    ______ ____

>  <TORSDO>
F 5

$$$$
=
 OpenBabel11042414213D

 27 29  0  0  1  0  0  0  0  0999 V2000
  188.9850  176.6880  145.4050 C   0  0  0  0  0  0  0  0  0  0  0  0
  189.0270  175.8590  146.5170 C   0  0  0  0  0  0  0  0  0  0  0  0
  187.9470  175.7310  147.3290 N   0  0  0  0  0  0  0  0  0  0  0  0
  190.4940  176.6870  144.6630 S   0  0  0  0  0  0  0  0  0  0  0  0
  186.8040  176.4290  147.0660 C   0  0  0  0  0  3  0  0  0  0  0  0
  186.7280  177.2810  145.9500 C   0  0  0  0  0  3  0  0  0  0  0  0
  191.1820  175.5980  145.7550 C   0  0  0  0  0  0  0  0  0  0  0  0
  190.2550  175.2280  146.7310 C   0  0  0  0  0  3  0  0  0  0  0  0
  187.8260  177.4050  145.0880 C   0  0  0  0  0  0  0  0  0  0  0  0
  192.5390  175.1470  145.6690 N   0  0  0  0  0  2  0  0  0  0  0  0
  194.4230  173.3750  144.8060 O   0  0  0  0  0  0  0  0  0  0  0  0
  193.5320  176.8440  146.9380 O   0  0  0  0  0  0  0  0  0  0  0  0
  195.3150  174.0480  145.3860 C   0  0  0  0  0  0  0  0  0  0  0  0
  194.9870  175.2390  146.1140 N   0  0  0  0  0  2  0  0  0  0  0  0
  193.6740  175.7880  146.2670 C   0  0  0  0  0  0  0  0  0  0  0  0
  196.7340  173.5860  145.3180 C   0  0  1  0  0  3  0  0  0  0  0  0
  197.3560  173.7910  146.5480 O   0  0  0  0  0  1  0  0  0  0  0  0
  196.8060  172.1130  144.9500 C   0  0  0  0  0  2  0  0  0  0  0  0
  196.8210  171.3320  146.1050 O   0  0  0  0  0  1  0  0  0  0  0  0
  187.7520  178.2940  143.9690 N   0  0  0  0  0  2  0  0  0  0  0  0
  186.1780  177.6900  140.7290 N   0  0  0  0  0  0  0  0  0  0  0  0
  186.8190  178.1610  142.8930 C   0  0  1  0  0  3  0  0  0  0  0  0
  185.1390  178.8040  142.9590 S   0  0  0  0  0  0  0  0  0  0  0  0
  183.8450  178.1100  140.6830 C   0  0  0  0  0  0  0  0  0  0  0  0
  182.7480  177.9450  140.1370 O   0  0  0  0  0  0  0  0  0  0  0  0
  187.1950  177.6780  141.7180 C   0  0  0  0  0  3  0  0  0  0  0  0
  185.0030  178.2820  141.2570 C   0  0  0  0  0  0  0  0  0  0  0  0
  1  2  1  0  0  0  0
  2  8  1  0  0  0  0
  2  3  2  0  0  0  0
  4  1  1  0  0  0  0
  4  7  1  0  0  0  0
  5  3  1  0  0  0  0
  6  5  2  0  0  0  0
  7  8  2  0  0  0  0
  9  1  2  0  0  0  0
  9  6  1  0  0  0  0
 10  7  1  0  0  0  0
 10 15  1  0  0  0  0
 11 13  2  0  0  0  0
 13 14  1  0  0  0  0
 14 15  1  0  0  0  0
 15 12  2  0  0  0  0
 16 13  1  0  0  0  0
 16 17  1  1  0  0  0
 18 16  1  0  0  0  0
 18 19  1  0  0  0  0
 20  9  1  0  0  0  0
 21 27  1  0  0  0  0
 21 26  2  0  0  0  0
 22 23  1  0  0  0  0
 22 20  1  6  0  0  0
 24 27  2  0  0  0  0
 25 24  2  0  0  0  0
 26 22  1  0  0  0  0
 27 23  1  0  0  0  0
M  END
>  <MODEL>
5

>  <REMARK>
 VINA RESULT:      -6.4      1.968      2.493
  Name = 
  5 active torsions:
  status: ('A' for Active; 'I' for Inactive)
    1  A    between atoms: C_5  and  C_11
    2  A    between atoms: C_5  and  C_18
    3  A    between atoms: N_7  and  C_13
    4  A    between atoms: C_9  and  N_24
    5  A    between atoms: C_23  and  N_24
                            x       y       z     vdW  Elec       q    Type
                         _______ _______ _______ _____ _____    ______ ____

>  <TORSDO>
F 5

$$$$
=
 OpenBabel11042414213D

 27 29  0  0  1  0  0  0  0  0999 V2000
  189.1330  176.8950  145.1560 C   0  0  0  0  0  0  0  0  0  0  0  0
  189.5180  175.9460  146.0920 C   0  0  0  0  0  0  0  0  0  0  0  0
  188.6520  175.5200  147.0460 N   0  0  0  0  0  0  0  0  0  0  0  0
  190.4470  177.2640  144.1750 S   0  0  0  0  0  0  0  0  0  0  0  0
  187.3880  176.0310  147.1040 C   0  0  0  0  0  3  0  0  0  0  0  0
  186.9650  176.9970  146.1730 C   0  0  0  0  0  3  0  0  0  0  0  0
  191.4940  176.1800  144.9370 C   0  0  0  0  0  0  0  0  0  0  0  0
  190.8450  175.5230  145.9840 C   0  0  0  0  0  3  0  0  0  0  0  0
  187.8390  177.4290  145.1670 C   0  0  0  0  0  0  0  0  0  0  0  0
  192.8590  175.9950  144.5450 N   0  0  0  0  0  2  0  0  0  0  0  0
  194.7470  175.0730  142.8060 O   0  0  0  0  0  0  0  0  0  0  0  0
  193.8740  177.0280  146.3830 O   0  0  0  0  0  0  0  0  0  0  0  0
  195.6520  175.5110  143.5640 C   0  0  0  0  0  0  0  0  0  0  0  0
  195.3300  176.1810  144.7910 N   0  0  0  0  0  2  0  0  0  0  0  0
  194.0090  176.4260  145.2840 C   0  0  0  0  0  0  0  0  0  0  0  0
  197.0810  175.3150  143.1770 C   0  0  1  0  0  3  0  0  0  0  0  0
  197.7250  176.5490  143.1080 O   0  0  0  0  0  1  0  0  0  0  0  0
  197.7960  174.4240  144.1800 C   0  0  0  0  0  2  0  0  0  0  0  0
  197.0840  173.2370  144.3570 O   0  0  0  0  0  1  0  0  0  0  0  0
  187.4120  178.4330  144.2400 N   0  0  0  0  0  2  0  0  0  0  0  0
  183.8690  178.9710  143.5350 N   0  0  0  0  0  0  0  0  0  0  0  0
  186.1180  178.4710  143.6330 C   0  0  1  0  0  3  0  0  0  0  0  0
  185.6920  177.5310  142.1570 S   0  0  0  0  0  0  0  0  0  0  0  0
  183.1540  178.1390  141.4330 C   0  0  0  0  0  0  0  0  0  0  0  0
  182.3210  178.1410  140.5180 O   0  0  0  0  0  0  0  0  0  0  0  0
  185.1060  179.0970  144.2170 C   0  0  0  0  0  3  0  0  0  0  0  0
  184.0300  178.1390  142.3980 C   0  0  0  0  0  0  0  0  0  0  0  0
  1  9  2  0  0  0  0
  1  2  1  0  0  0  0
  2  3  2  0  0  0  0
  3  5  1  0  0  0  0
  4  7  1  0  0  0  0
  4  1  1  0  0  0  0
  6  5  2  0  0  0  0
  7  8  2  0  0  0  0
  8  2  1  0  0  0  0
  9  6  1  0  0  0  0
 10  7  1  0  0  0  0
 10 15  1  0  0  0  0
 11 13  2  0  0  0  0
 13 14  1  0  0  0  0
 14 15  1  0  0  0  0
 15 12  2  0  0  0  0
 16 17  1  1  0  0  0
 16 13  1  0  0  0  0
 16 18  1  0  0  0  0
 18 19  1  0  0  0  0
 20  9  1  0  0  0  0
 21 26  2  0  0  0  0
 22 26  1  0  0  0  0
 22 20  1  1  0  0  0
 23 27  1  0  0  0  0
 23 22  1  0  0  0  0
 24 27  2  0  0  0  0
 25 24  2  0  0  0  0
 27 21  1  0  0  0  0
M  END
>  <MODEL>
6

>  <REMARK>
 VINA RESULT:      -6.3      1.497      2.062
  Name = 
  5 active torsions:
  status: ('A' for Active; 'I' for Inactive)
    1  A    between atoms: C_5  and  C_11
    2  A    between atoms: C_5  and  C_18
    3  A    between atoms: N_7  and  C_13
    4  A    between atoms: C_9  and  N_24
    5  A    between atoms: C_23  and  N_24
                            x       y       z     vdW  Elec       q    Type
                         _______ _______ _______ _____ _____    ______ ____

>  <TORSDO>
F 5

$$$$
=
 OpenBabel11042414213D

 27 29  0  0  1  0  0  0  0  0999 V2000
  186.8310  177.9160  144.1830 C   0  0  0  0  0  0  0  0  0  0  0  0
  185.9360  178.0070  145.2390 C   0  0  0  0  0  0  0  0  0  0  0  0
  186.3510  177.8260  146.5190 N   0  0  0  0  0  0  0  0  0  0  0  0
  185.9940  178.1090  142.7370 S   0  0  0  0  0  0  0  0  0  0  0  0
  187.6600  177.5400  146.7820 C   0  0  0  0  0  3  0  0  0  0  0  0
  188.5930  177.4360  145.7350 C   0  0  0  0  0  3  0  0  0  0  0  0
  184.4940  178.3390  143.4780 C   0  0  0  0  0  0  0  0  0  0  0  0
  184.6120  178.2520  144.8660 C   0  0  0  0  0  3  0  0  0  0  0  0
  188.1850  177.6450  144.4100 C   0  0  0  0  0  0  0  0  0  0  0  0
  183.2840  178.5770  142.7490 N   0  0  0  0  0  2  0  0  0  0  0  0
  180.6920  179.4140  142.6200 O   0  0  0  0  0  0  0  0  0  0  0  0
  184.0110  177.8380  140.6510 O   0  0  0  0  0  0  0  0  0  0  0  0
  180.6680  179.1340  141.3920 C   0  0  0  0  0  0  0  0  0  0  0  0
  181.8210  178.5920  140.7350 N   0  0  0  0  0  2  0  0  0  0  0  0
  183.0810  178.3160  141.3540 C   0  0  0  0  0  0  0  0  0  0  0  0
  179.4100  179.3620  140.6190 C   0  0  1  0  0  3  0  0  0  0  0  0
  179.5550  180.4830  139.8030 O   0  0  0  0  0  1  0  0  0  0  0  0
  179.0720  178.1510  139.7670 C   0  0  0  0  0  2  0  0  0  0  0  0
  178.1030  177.3740  140.4010 O   0  0  0  0  0  1  0  0  0  0  0  0
  189.1340  177.5120  143.3470 N   0  0  0  0  0  2  0  0  0  0  0  0
  191.2620  174.7450  142.2740 N   0  0  0  0  0  0  0  0  0  0  0  0
  189.6270  176.2620  142.8590 C   0  0  1  0  0  3  0  0  0  0  0  0
  188.5910  175.0530  142.0170 S   0  0  0  0  0  0  0  0  0  0  0  0
  190.0770  172.8560  141.4700 C   0  0  0  0  0  0  0  0  0  0  0  0
  190.0610  171.6490  141.2000 O   0  0  0  0  0  0  0  0  0  0  0  0
  190.9230  175.9860  142.8710 C   0  0  0  0  0  3  0  0  0  0  0  0
  190.0960  174.1270  141.7560 C   0  0  0  0  0  0  0  0  0  0  0  0
  1  9  2  0  0  0  0
  1  2  1  0  0  0  0
  2  3  2  0  0  0  0
  3  5  1  0  0  0  0
  4  7  1  0  0  0  0
  4  1  1  0  0  0  0
  6  5  2  0  0  0  0
  7  8  2  0  0  0  0
  8  2  1  0  0  0  0
  9  6  1  0  0  0  0
 10  7  1  0  0  0  0
 12 15  2  0  0  0  0
 13 11  2  0  0  0  0
 14 15  1  0  0  0  0
 14 13  1  0  0  0  0
 15 10  1  0  0  0  0
 16 17  1  6  0  0  0
 16 13  1  0  0  0  0
 18 19  1  0  0  0  0
 18 16  1  0  0  0  0
 20  9  1  0  0  0  0
 21 26  2  0  0  0  0
 22 26  1  0  0  0  0
 22 20  1  6  0  0  0
 23 22  1  0  0  0  0
 24 27  2  0  0  0  0
 25 24  2  0  0  0  0
 27 23  1  0  0  0  0
 27 21  1  0  0  0  0
M  END
>  <MODEL>
7

>  <REMARK>
 VINA RESULT:      -6.2      3.715      9.908
  Name = 
  5 active torsions:
  status: ('A' for Active; 'I' for Inactive)
    1  A    between atoms: C_5  and  C_11
    2  A    between atoms: C_5  and  C_18
    3  A    between atoms: N_7  and  C_13
    4  A    between atoms: C_9  and  N_24
    5  A    between atoms: C_23  and  N_24
                            x       y       z     vdW  Elec       q    Type
                         _______ _______ _______ _____ _____    ______ ____

>  <TORSDO>
F 5

$$$$
=
 OpenBabel11042414213D

 27 29  0  0  1  0  0  0  0  0999 V2000
  190.4140  176.2460  145.4630 C   0  0  0  0  0  0  0  0  0  0  0  0
  189.6970  177.0800  146.3090 C   0  0  0  0  0  0  0  0  0  0  0  0
  190.1340  177.3340  147.5690 N   0  0  0  0  0  0  0  0  0  0  0  0
  189.5710  176.0750  144.0180 S   0  0  0  0  0  0  0  0  0  0  0  0
  191.2860  176.7590  148.0240 C   0  0  0  0  0  3  0  0  0  0  0  0
  192.0350  175.9050  147.1950 C   0  0  0  0  0  3  0  0  0  0  0  0
  188.3080  177.0980  144.4750 C   0  0  0  0  0  0  0  0  0  0  0  0
  188.5080  177.5780  145.7710 C   0  0  0  0  0  3  0  0  0  0  0  0
  191.6100  175.6530  145.8830 C   0  0  0  0  0  0  0  0  0  0  0  0
  187.1930  177.3990  143.6290 N   0  0  0  0  0  2  0  0  0  0  0  0
  186.1470  178.2450  141.2560 O   0  0  0  0  0  0  0  0  0  0  0  0
  185.4820  176.8750  145.1370 O   0  0  0  0  0  0  0  0  0  0  0  0
  184.9860  178.0860  141.7170 C   0  0  0  0  0  0  0  0  0  0  0  0
  184.7800  177.6140  143.0550 N   0  0  0  0  0  2  0  0  0  0  0  0
  185.8100  177.2780  143.9890 C   0  0  0  0  0  0  0  0  0  0  0  0
  183.8110  178.4080  140.8530 C   0  0  1  0  0  3  0  0  0  0  0  0
  183.7760  177.5410  139.7620 O   0  0  0  0  0  1  0  0  0  0  0  0
  182.5150  178.2930  141.6370 C   0  0  0  0  0  2  0  0  0  0  0  0
  181.4230  178.4590  140.7850 O   0  0  0  0  0  1  0  0  0  0  0  0
  192.3620  174.7620  145.0540 N   0  0  0  0  0  2  0  0  0  0  0  0
  195.8110  175.5050  144.1100 N   0  0  0  0  0  0  0  0  0  0  0  0
  193.5480  175.1290  144.3440 C   0  0  1  0  0  3  0  0  0  0  0  0
  193.5260  175.9400  142.7370 S   0  0  0  0  0  0  0  0  0  0  0  0
  196.0740  176.2370  141.8700 C   0  0  0  0  0  0  0  0  0  0  0  0
  196.8100  176.4200  140.8920 O   0  0  0  0  0  0  0  0  0  0  0  0
  194.7430  175.0200  144.9080 C   0  0  0  0  0  3  0  0  0  0  0  0
  195.3010  176.0440  142.9010 C   0  0  0  0  0  0  0  0  0  0  0  0
  1  9  2  0  0  0  0
  1  2  1  0  0  0  0
  2  3  2  0  0  0  0
  3  5  1  0  0  0  0
  4  7  1  0  0  0  0
  4  1  1  0  0  0  0
  6  5  2  0  0  0  0
  7  8  2  0  0  0  0
  8  2  1  0  0  0  0
  9  6  1  0  0  0  0
 10 15  1  0  0  0  0
 10  7  1  0  0  0  0
 11 13  2  0  0  0  0
 13 14  1  0  0  0  0
 14 15  1  0  0  0  0
 15 12  2  0  0  0  0
 16 17  1  6  0  0  0
 16 18  1  0  0  0  0
 16 13  1  0  0  0  0
 19 18  1  0  0  0  0
 20  9  1  0  0  0  0
 21 26  2  0  0  0  0
 22 26  1  0  0  0  0
 22 20  1  1  0  0  0
 23 27  1  0  0  0  0
 23 22  1  0  0  0  0
 24 27  2  0  0  0  0
 25 24  2  0  0  0  0
 27 21  1  0  0  0  0
M  END
>  <MODEL>
8

>  <REMARK>
 VINA RESULT:      -6.2      2.483      9.176
  Name = 
  5 active torsions:
  status: ('A' for Active; 'I' for Inactive)
    1  A    between atoms: C_5  and  C_11
    2  A    between atoms: C_5  and  C_18
    3  A    between atoms: N_7  and  C_13
    4  A    between atoms: C_9  and  N_24
    5  A    between atoms: C_23  and  N_24
                            x       y       z     vdW  Elec       q    Type
                         _______ _______ _______ _____ _____    ______ ____

>  <TORSDO>
F 5

$$$$
=
 OpenBabel11042414213D

 27 29  0  0  1  0  0  0  0  0999 V2000
  190.7850  176.4950  145.1950 C   0  0  0  0  0  0  0  0  0  0  0  0
  189.9230  177.0500  146.1290 C   0  0  0  0  0  0  0  0  0  0  0  0
  190.2730  177.1230  147.4390 N   0  0  0  0  0  0  0  0  0  0  0  0
  190.0290  176.4800  143.6930 S   0  0  0  0  0  0  0  0  0  0  0  0
  191.4800  176.6390  147.8550 C   0  0  0  0  0  3  0  0  0  0  0  0
  192.3760  176.0670  146.9350 C   0  0  0  0  0  3  0  0  0  0  0  0
  188.6130  177.2150  144.2460 C   0  0  0  0  0  0  0  0  0  0  0  0
  188.6940  177.4690  145.6160 C   0  0  0  0  0  3  0  0  0  0  0  0
  192.0400  176.0070  145.5750 C   0  0  0  0  0  0  0  0  0  0  0  0
  187.4960  177.5100  143.4000 N   0  0  0  0  0  2  0  0  0  0  0  0
  184.8170  177.5320  142.8900 O   0  0  0  0  0  0  0  0  0  0  0  0
  188.6800  178.4030  141.5890 O   0  0  0  0  0  0  0  0  0  0  0  0
  185.0400  178.0500  141.7640 C   0  0  0  0  0  0  0  0  0  0  0  0
  186.3780  178.3410  141.3360 N   0  0  0  0  0  2  0  0  0  0  0  0
  187.5670  178.0960  142.0930 C   0  0  0  0  0  0  0  0  0  0  0  0
  183.8890  178.3520  140.8620 C   0  0  1  0  0  3  0  0  0  0  0  0
  183.9590  177.5520  139.7230 O   0  0  0  0  0  1  0  0  0  0  0  0
  182.5670  178.1110  141.5730 C   0  0  0  0  0  2  0  0  0  0  0  0
  181.5370  178.7730  140.9050 O   0  0  0  0  0  1  0  0  0  0  0  0
  192.9450  175.3990  144.6480 N   0  0  0  0  0  2  0  0  0  0  0  0
  194.0080  171.9790  145.3610 N   0  0  0  0  0  2  0  0  0  0  0  0
  193.7100  174.2220  144.9210 C   0  0  0  0  0  0  0  0  0  0  0  0
  195.4520  174.2610  145.3740 S   0  0  0  0  0  0  0  0  0  0  0  0
  196.3500  171.7170  145.6200 C   0  0  0  0  0  0  0  0  0  0  0  0
  197.3410  170.9770  145.6320 O   0  0  0  0  0  0  0  0  0  0  0  0
  193.1310  173.0330  144.9980 C   0  0  0  0  0  3  0  0  0  0  0  0
  195.3050  172.4960  145.6060 C   0  0  0  0  0  0  0  0  0  0  0  0
  1  9  2  0  0  0  0
  1  2  1  0  0  0  0
  2  3  2  0  0  0  0
  3  5  1  0  0  0  0
  4  7  1  0  0  0  0
  4  1  1  0  0  0  0
  6  5  2  0  0  0  0
  7  8  2  0  0  0  0
  8  2  1  0  0  0  0
  9  6  1  0  0  0  0
 10  7  1  0  0  0  0
 12 15  2  0  0  0  0
 13 11  2  0  0  0  0
 14 13  1  0  0  0  0
 14 15  1  0  0  0  0
 15 10  1  0  0  0  0
 16 17  1  6  0  0  0
 16 18  1  0  0  0  0
 16 13  1  0  0  0  0
 19 18  1  0  0  0  0
 20 22  1  0  0  0  0
 20  9  1  0  0  0  0
 21 27  1  0  0  0  0
 22 26  2  0  0  0  0
 22 23  1  0  0  0  0
 23 27  1  0  0  0  0
 24 25  2  0  0  0  0
 26 21  1  0  0  0  0
 27 24  2  0  0  0  0
M  END
>  <MODEL>
9

>  <REMARK>
 VINA RESULT:      -6.2      3.131      9.624
  Name = 
  5 active torsions:
  status: ('A' for Active; 'I' for Inactive)
    1  A    between atoms: C_5  and  C_11
    2  A    between atoms: C_5  and  C_18
    3  A    between atoms: N_7  and  C_13
    4  A    between atoms: C_9  and  N_24
    5  A    between atoms: C_23  and  N_24
                            x       y       z     vdW  Elec       q    Type
                         _______ _______ _______ _____ _____    ______ ____

>  <TORSDO>
F 5

$$$$
