=
 OpenBabel11042417123D

 38 43  0  0  1  0  0  0  0  0999 V2000
  190.5090  172.3740  144.4580 C   0  0  1  0  0  3  0  0  0  0  0  0
  191.8940  172.2000  144.0350 N   0  0  0  0  0  0  0  0  0  0  0  0
  189.0620  172.7090  141.3400 C   0  0  2  0  0  3  0  0  0  0  0  0
  189.7170  174.6800  143.8500 N   0  0  0  0  0  2  0  0  0  0  0  0
  190.7970  170.9570  141.5170 C   0  0  0  0  0  2  0  0  0  0  0  0
  188.2430  176.1260  141.5880 C   0  0  0  0  0  2  0  0  0  0  0  0
  189.9150  172.4500  139.0990 N   0  0  0  0  0  0  0  0  0  0  0  0
  186.5690  177.3490  144.7050 N   0  0  0  0  0  0  0  0  0  0  0  0
  188.4330  174.7240  141.1000 C   0  0  0  0  0  0  0  0  0  0  0  0
  186.8350  176.9870  147.1290 C   0  0  0  0  0  1  0  0  0  0  0  0
  188.3540  173.6750  141.9320 N   0  0  0  0  0  0  0  0  0  0  0  0
  187.2290  176.7310  145.7180 C   0  0  0  0  0  0  0  0  0  0  0  0
  192.6410  173.1420  144.8600 C   0  0  0  0  0  2  0  0  0  0  0  0
  191.7330  174.3000  145.2330 C   0  0  2  0  0  3  0  0  0  0  0  0
  189.0540  174.4430  139.9350 N   0  0  0  0  0  2  0  0  0  0  0  0
  189.6680  171.7650  142.0710 C   0  0  1  0  0  3  0  0  0  0  0  0
  190.3200  173.8350  144.8810 C   0  0  2  0  0  3  0  0  0  0  0  0
  188.6490  175.6050  144.1150 C   0  0  0  0  0  0  0  0  0  0  0  0
  190.1860  171.0370  139.1040 C   0  0  0  0  0  3  0  0  0  0  0  0
  188.2720  175.8500  145.4400 C   0  0  0  0  0  3  0  0  0  0  0  0
  186.8970  177.1290  143.4020 C   0  0  0  0  0  3  0  0  0  0  0  0
  189.4080  173.1500  140.0740 C   0  0  0  0  0  0  0  0  0  0  0  0
  190.5160  170.3380  140.1880 C   0  0  0  0  0  3  0  0  0  0  0  0
  187.9300  176.2500  143.0640 C   0  0  0  0  0  0  0  0  0  0  0  0
  189.5230  171.8310  143.5020 N   0  0  0  0  0  2  0  0  0  0  0  0
  192.1540  175.4890  144.5020 N   0  0  0  0  0  2  0  0  0  0  0  0
  193.5880  175.4000  144.2920 C   0  0  2  0  0  3  0  0  0  0  0  0
  194.2230  176.7160  144.7020 C   0  0  0  0  0  2  0  0  0  0  0  0
  194.0070  176.4060  143.2340 C   0  0  1  0  0  3  0  0  0  0  0  0
  196.7920  175.9240  143.6690 O   0  0  0  0  0  1  0  0  0  0  0  0
  195.9530  176.8310  141.3650 O   0  0  0  0  0  0  0  0  0  0  0  0
  195.4640  174.3080  141.8650 O   0  0  0  0  0  1  0  0  0  0  0  0
  195.5810  175.8820  142.4830 P   0  0  0  0  0  0  0  0  0  0  0  0
  192.3080  170.8540  144.4330 C   0  0  0  0  0  2  0  0  0  0  0  0
  194.2910  169.7950  145.3500 N   0  0  0  0  0  1  0  0  0  0  0  0
  193.8200  170.6530  144.2830 C   0  0  1  0  0  3  0  0  0  0  0  0
  194.4220  171.0260  141.9900 O   0  0  0  0  0  1  0  0  0  0  0  0
  194.1930  170.0270  142.9460 C   0  0  0  0  0  2  0  0  0  0  0  0
  1 25  1  6  0  0  0
  1 17  1  0  0  0  0
  2 34  1  0  0  0  0
  2  1  1  0  0  0  0
  2 13  1  0  0  0  0
  3 22  1  1  0  0  0
  3 11  1  0  0  0  0
  3 16  1  0  0  0  0
  4 18  1  0  0  0  0
  6 24  1  0  0  0  0
  7 19  1  0  0  0  0
  7 22  2  0  0  0  0
  8 12  1  0  0  0  0
  9  6  1  0  0  0  0
  9 11  2  0  0  0  0
 12 10  1  0  0  0  0
 13 14  1  0  0  0  0
 14 26  1  6  0  0  0
 15 22  1  0  0  0  0
 15  9  1  0  0  0  0
 16  5  1  1  0  0  0
 16 25  1  0  0  0  0
 17  4  1  6  0  0  0
 17 14  1  0  0  0  0
 18 20  1  0  0  0  0
 19 23  2  0  0  0  0
 20 12  2  0  0  0  0
 21  8  2  0  0  0  0
 23  5  1  0  0  0  0
 24 21  1  0  0  0  0
 24 18  2  0  0  0  0
 27 26  1  1  0  0  0
 27 28  1  0  0  0  0
 29 33  1  6  0  0  0
 29 27  1  0  0  0  0
 29 28  1  0  0  0  0
 31 33  2  0  0  0  0
 32 33  1  0  0  0  0
 33 30  1  0  0  0  0
 36 34  1  0  0  0  0
 36 35  1  1  0  0  0
 37 38  1  0  0  0  0
 38 36  1  0  0  0  0
M  END
>  <MODEL>
1

>  <REMARK>
 VINA RESULT:      -6.5      0.000      0.000
  Name = 
  6 active torsions:
  status: ('A' for Active; 'I' for Inactive)
    1  A    between atoms: N_2  and  C_38
    2  A    between atoms: C_8  and  N_29
    3  A    between atoms: CA_13  and  C_17
    4  A    between atoms: CA_13  and  C_38
    5  A    between atoms: C_23  and  N_29
    6  A    between atoms: P_24  and  C_37
                            x       y       z     vdW  Elec       q    Type
                         _______ _______ _______ _____ _____    ______ ____

>  <TORSDO>
F 6

$$$$
=
 OpenBabel11042417123D

 38 43  0  0  1  0  0  0  0  0999 V2000
  191.0310  173.2810  143.6470 C   0  0  1  0  0  3  0  0  0  0  0  0
  190.6010  174.4980  144.3270 N   0  0  0  0  0  0  0  0  0  0  0  0
  194.0880  174.3990  142.4890 C   0  0  2  0  0  3  0  0  0  0  0  0
  191.1900  173.7010  141.1740 N   0  0  0  0  0  2  0  0  0  0  0  0
  193.5230  175.0710  144.8000 C   0  0  0  0  0  2  0  0  0  0  0  0
  193.2600  174.5120  139.0670 C   0  0  0  0  0  2  0  0  0  0  0  0
  195.3500  176.4170  142.8750 N   0  0  0  0  0  0  0  0  0  0  0  0
  191.5030  171.5770  137.5470 N   0  0  0  0  0  0  0  0  0  0  0  0
  193.9720  174.6170  140.3790 C   0  0  0  0  0  0  0  0  0  0  0  0
  189.6580  170.0750  138.1930 C   0  0  0  0  0  1  0  0  0  0  0  0
  193.7400  173.7490  141.3750 N   0  0  0  0  0  0  0  0  0  0  0  0
  190.5670  171.2200  138.4640 C   0  0  0  0  0  0  0  0  0  0  0  0
  189.2440  174.7190  143.8410 C   0  0  0  0  0  2  0  0  0  0  0  0
  189.1130  174.1200  142.4520 C   0  0  2  0  0  3  0  0  0  0  0  0
  194.5730  175.7560  140.7850 N   0  0  0  0  0  2  0  0  0  0  0  0
  193.4990  174.1090  143.6560 C   0  0  1  0  0  3  0  0  0  0  0  0
  190.3470  173.2360  142.2760 C   0  0  2  0  0  3  0  0  0  0  0  0
  191.3080  173.0020  139.9230 C   0  0  0  0  0  0  0  0  0  0  0  0
  195.6520  176.2510  144.2730 C   0  0  0  0  0  3  0  0  0  0  0  0
  190.4580  171.9210  139.6630 C   0  0  0  0  0  3  0  0  0  0  0  0
  192.3570  172.6140  137.7680 C   0  0  0  0  0  3  0  0  0  0  0  0
  194.6870  175.5900  142.1180 C   0  0  0  0  0  0  0  0  0  0  0  0
  194.8800  175.5940  145.1360 C   0  0  0  0  0  3  0  0  0  0  0  0
  192.2990  173.3480  138.9560 C   0  0  0  0  0  0  0  0  0  0  0  0
  192.4940  173.0790  143.6610 N   0  0  0  0  0  2  0  0  0  0  0  0
  189.0260  175.1990  141.4750 N   0  0  0  0  0  2  0  0  0  0  0  0
  187.6650  175.7040  141.4880 C   0  0  2  0  0  3  0  0  0  0  0  0
  187.4380  176.5250  140.2320 C   0  0  0  0  0  2  0  0  0  0  0  0
  187.6900  177.2220  141.5540 C   0  0  1  0  0  3  0  0  0  0  0  0
  184.9720  177.9020  140.9820 O   0  0  0  0  0  0  0  0  0  0  0  0
  186.3060  179.2160  142.8060 O   0  0  0  0  0  1  0  0  0  0  0  0
  185.5390  176.7970  143.4490 O   0  0  0  0  0  1  0  0  0  0  0  0
  186.1140  177.8290  142.2330 P   0  0  0  0  0  0  0  0  0  0  0  0
  190.5050  174.1910  145.7540 C   0  0  0  0  0  2  0  0  0  0  0  0
  188.9100  174.5180  147.5560 N   0  0  0  0  0  1  0  0  0  0  0  0
  189.6250  175.2020  146.4980 C   0  0  1  0  0  3  0  0  0  0  0  0
  191.4600  175.8300  147.9110 O   0  0  0  0  0  1  0  0  0  0  0  0
  190.4330  176.3410  147.1050 C   0  0  0  0  0  2  0  0  0  0  0  0
  1 25  1  6  0  0  0
  1  2  1  0  0  0  0
  2 34  1  0  0  0  0
  3 11  1  6  0  0  0
  3 16  1  0  0  0  0
  5 23  1  0  0  0  0
  6  9  1  0  0  0  0
  7 19  1  0  0  0  0
  8 21  2  0  0  0  0
  8 12  1  0  0  0  0
  9 15  1  0  0  0  0
  9 11  2  0  0  0  0
 10 12  1  0  0  0  0
 12 20  2  0  0  0  0
 13  2  1  0  0  0  0
 14 26  1  6  0  0  0
 14 13  1  0  0  0  0
 15 22  1  0  0  0  0
 16 25  1  0  0  0  0
 16  5  1  6  0  0  0
 17  4  1  6  0  0  0
 17 14  1  0  0  0  0
 17  1  1  0  0  0  0
 18  4  1  0  0  0  0
 19 23  2  0  0  0  0
 20 18  1  0  0  0  0
 21 24  1  0  0  0  0
 22  3  1  0  0  0  0
 22  7  2  0  0  0  0
 24  6  1  0  0  0  0
 24 18  2  0  0  0  0
 27 26  1  6  0  0  0
 27 29  1  0  0  0  0
 28 27  1  0  0  0  0
 28 29  1  0  0  0  0
 29 33  1  1  0  0  0
 30 33  2  0  0  0  0
 33 31  1  0  0  0  0
 33 32  1  0  0  0  0
 34 36  1  0  0  0  0
 36 38  1  0  0  0  0
 36 35  1  1  0  0  0
 38 37  1  0  0  0  0
M  END
>  <MODEL>
2

>  <REMARK>
 VINA RESULT:      -6.2      4.110      7.184
  Name = 
  6 active torsions:
  status: ('A' for Active; 'I' for Inactive)
    1  A    between atoms: N_2  and  C_38
    2  A    between atoms: C_8  and  N_29
    3  A    between atoms: CA_13  and  C_17
    4  A    between atoms: CA_13  and  C_38
    5  A    between atoms: C_23  and  N_29
    6  A    between atoms: P_24  and  C_37
                            x       y       z     vdW  Elec       q    Type
                         _______ _______ _______ _____ _____    ______ ____

>  <TORSDO>
F 6

$$$$
=
 OpenBabel11042417123D

 38 43  0  0  1  0  0  0  0  0999 V2000
  191.3880  173.0320  143.2370 C   0  0  1  0  0  3  0  0  0  0  0  0
  190.7550  173.9850  142.3330 N   0  0  0  0  0  0  0  0  0  0  0  0
  191.4890  175.0070  146.0700 C   0  0  2  0  0  3  0  0  0  0  0  0
  193.6560  173.8790  143.9130 N   0  0  0  0  0  2  0  0  0  0  0  0
  189.3940  175.1370  144.7640 C   0  0  0  0  0  2  0  0  0  0  0  0
  194.9780  175.4860  146.1600 C   0  0  0  0  0  2  0  0  0  0  0  0
  190.5650  177.1710  146.5950 N   0  0  0  0  0  0  0  0  0  0  0  0
  197.2110  172.5150  145.7200 N   0  0  0  0  0  0  0  0  0  0  0  0
  193.5110  175.5370  146.4520 C   0  0  0  0  0  0  0  0  0  0  0  0
  197.2770  170.5390  144.2470 C   0  0  0  0  0  1  0  0  0  0  0  0
  192.7120  174.4870  146.2130 N   0  0  0  0  0  0  0  0  0  0  0  0
  196.6470  171.8040  144.7100 C   0  0  0  0  0  0  0  0  0  0  0  0
  191.5950  173.9620  141.1420 C   0  0  0  0  0  2  0  0  0  0  0  0
  193.0100  173.5860  141.5420 C   0  0  2  0  0  3  0  0  0  0  0  0
  192.8430  176.7010  146.5960 N   0  0  0  0  0  2  0  0  0  0  0  0
  190.5780  174.3980  145.2990 C   0  0  1  0  0  3  0  0  0  0  0  0
  192.8980  173.0550  142.9720 C   0  0  2  0  0  3  0  0  0  0  0  0
  194.8750  173.4430  144.5370 C   0  0  0  0  0  0  0  0  0  0  0  0
  189.1620  176.8520  146.5560 C   0  0  0  0  0  3  0  0  0  0  0  0
  195.4730  172.2530  144.1080 C   0  0  0  0  0  3  0  0  0  0  0  0
  196.6540  173.6710  146.1740 C   0  0  0  0  0  3  0  0  0  0  0  0
  191.5570  176.3490  146.4000 C   0  0  0  0  0  0  0  0  0  0  0  0
  188.6270  175.9000  145.7940 C   0  0  0  0  0  3  0  0  0  0  0  0
  195.4730  174.1650  145.6130 C   0  0  0  0  0  0  0  0  0  0  0  0
  190.9640  173.1760  144.6450 N   0  0  0  0  0  2  0  0  0  0  0  0
  193.8660  174.7610  141.4240 N   0  0  0  0  0  2  0  0  0  0  0  0
  195.1400  174.3320  140.8780 C   0  0  2  0  0  3  0  0  0  0  0  0
  196.2410  175.1890  141.4760 C   0  0  0  0  0  2  0  0  0  0  0  0
  195.7500  175.4630  140.0680 C   0  0  1  0  0  3  0  0  0  0  0  0
  197.8100  173.5340  139.6060 O   0  0  0  0  0  1  0  0  0  0  0  0
  197.8980  175.8670  138.4300 O   0  0  0  0  0  1  0  0  0  0  0  0
  196.1340  174.1680  137.5050 O   0  0  0  0  0  0  0  0  0  0  0  0
  196.9360  174.7840  138.8650 P   0  0  0  0  0  0  0  0  0  0  0  0
  189.4530  173.4330  141.9560 C   0  0  0  0  0  2  0  0  0  0  0  0
  188.0840  173.0880  139.9810 N   0  0  0  0  0  1  0  0  0  0  0  0
  188.9240  174.0540  140.6580 C   0  0  1  0  0  3  0  0  0  0  0  0
  187.3940  175.2090  142.1020 O   0  0  0  0  0  1  0  0  0  0  0  0
  188.1160  175.3210  140.9070 C   0  0  0  0  0  2  0  0  0  0  0  0
  1 25  1  1  0  0  0
  2  1  1  0  0  0  0
  3 11  1  6  0  0  0
  3 22  1  0  0  0  0
  4 18  1  0  0  0  0
  5 23  1  0  0  0  0
  6  9  1  0  0  0  0
  8 21  1  0  0  0  0
  9 15  1  0  0  0  0
 10 12  1  0  0  0  0
 11  9  2  0  0  0  0
 12  8  2  0  0  0  0
 13 14  1  0  0  0  0
 13  2  1  0  0  0  0
 14 26  1  1  0  0  0
 14 17  1  0  0  0  0
 16  5  1  6  0  0  0
 16  3  1  0  0  0  0
 17  1  1  0  0  0  0
 17  4  1  1  0  0  0
 18 24  1  0  0  0  0
 19  7  1  0  0  0  0
 20 18  2  0  0  0  0
 20 12  1  0  0  0  0
 22  7  2  0  0  0  0
 22 15  1  0  0  0  0
 23 19  2  0  0  0  0
 24  6  1  0  0  0  0
 24 21  2  0  0  0  0
 25 16  1  0  0  0  0
 27 26  1  1  0  0  0
 27 28  1  0  0  0  0
 29 33  1  6  0  0  0
 29 27  1  0  0  0  0
 29 28  1  0  0  0  0
 31 33  1  0  0  0  0
 32 33  2  0  0  0  0
 33 30  1  0  0  0  0
 34  2  1  0  0  0  0
 36 35  1  1  0  0  0
 36 38  1  0  0  0  0
 36 34  1  0  0  0  0
 38 37  1  0  0  0  0
M  END
>  <MODEL>
3

>  <REMARK>
 VINA RESULT:      -6.2      2.927      6.858
  Name = 
  6 active torsions:
  status: ('A' for Active; 'I' for Inactive)
    1  A    between atoms: N_2  and  C_38
    2  A    between atoms: C_8  and  N_29
    3  A    between atoms: CA_13  and  C_17
    4  A    between atoms: CA_13  and  C_38
    5  A    between atoms: C_23  and  N_29
    6  A    between atoms: P_24  and  C_37
                            x       y       z     vdW  Elec       q    Type
                         _______ _______ _______ _____ _____    ______ ____

>  <TORSDO>
F 6

$$$$
=
 OpenBabel11042417123D

 38 43  0  0  1  0  0  0  0  0999 V2000
  192.0340  173.5800  141.9870 C   0  0  1  0  0  3  0  0  0  0  0  0
  192.9020  172.4950  141.5430 N   0  0  0  0  0  0  0  0  0  0  0  0
  194.4620  175.9670  142.5740 C   0  0  2  0  0  3  0  0  0  0  0  0
  192.5030  174.1100  144.3990 N   0  0  0  0  0  2  0  0  0  0  0  0
  194.7700  174.6290  140.5180 C   0  0  0  0  0  2  0  0  0  0  0  0
  194.2070  176.0150  146.0870 C   0  0  0  0  0  2  0  0  0  0  0  0
  196.8320  176.0380  142.1360 N   0  0  0  0  0  0  0  0  0  0  0  0
  190.8050  176.2070  147.6380 N   0  0  0  0  0  0  0  0  0  0  0  0
  194.6210  176.2680  144.6710 C   0  0  0  0  0  0  0  0  0  0  0  0
  188.6090  175.1560  147.2510 C   0  0  0  0  0  1  0  0  0  0  0  0
  193.7360  176.2290  143.6640 N   0  0  0  0  0  0  0  0  0  0  0  0
  190.0440  175.3490  146.9110 C   0  0  0  0  0  0  0  0  0  0  0  0
  192.4680  171.3450  142.3270 C   0  0  0  0  0  2  0  0  0  0  0  0
  191.8900  171.8350  143.6430 C   0  0  2  0  0  3  0  0  0  0  0  0
  195.9040  176.1680  144.2650 N   0  0  0  0  0  2  0  0  0  0  0  0
  193.9190  175.3180  141.5360 C   0  0  1  0  0  3  0  0  0  0  0  0
  191.6870  173.3390  143.4610 C   0  0  2  0  0  3  0  0  0  0  0  0
  191.9510  174.8270  145.5170 C   0  0  0  0  0  0  0  0  0  0  0  0
  196.8130  176.0410  140.6970 C   0  0  0  0  0  3  0  0  0  0  0  0
  190.6020  174.6520  145.8410 C   0  0  0  0  0  3  0  0  0  0  0  0
  192.1190  176.4140  147.3470 C   0  0  0  0  0  3  0  0  0  0  0  0
  195.7980  176.0260  142.9290 C   0  0  0  0  0  0  0  0  0  0  0  0
  195.8640  175.4750  139.9550 C   0  0  0  0  0  3  0  0  0  0  0  0
  192.7300  175.7480  146.2810 C   0  0  0  0  0  0  0  0  0  0  0  0
  192.5380  174.9240  141.6400 N   0  0  0  0  0  2  0  0  0  0  0  0
  192.8130  171.4990  144.7220 N   0  0  0  0  0  2  0  0  0  0  0  0
  194.0200  170.9580  144.1240 C   0  0  2  0  0  3  0  0  0  0  0  0
  194.7000  170.0510  145.1350 C   0  0  0  0  0  2  0  0  0  0  0  0
  195.2310  171.4510  144.8970 C   0  0  1  0  0  3  0  0  0  0  0  0
  196.8550  169.7950  143.2240 O   0  0  0  0  0  1  0  0  0  0  0  0
  197.9400  171.7000  144.6460 O   0  0  0  0  0  1  0  0  0  0  0  0
  196.5830  172.4570  142.5390 O   0  0  0  0  0  0  0  0  0  0  0  0
  196.7070  171.3690  143.8340 P   0  0  0  0  0  0  0  0  0  0  0  0
  192.5720  172.2150  140.1460 C   0  0  0  0  0  2  0  0  0  0  0  0
  190.9390  173.3710  138.7700 N   0  0  0  0  0  1  0  0  0  0  0  0
  191.0810  172.4250  139.8570 C   0  0  1  0  0  3  0  0  0  0  0  0
  191.3120  170.1400  139.1640 O   0  0  0  0  0  1  0  0  0  0  0  0
  190.3730  171.1300  139.4800 C   0  0  0  0  0  2  0  0  0  0  0  0
  1 25  1  1  0  0  0
  1 17  1  0  0  0  0
  2  1  1  0  0  0  0
  2 13  1  0  0  0  0
  3 22  1  1  0  0  0
  3 11  1  0  0  0  0
  4 18  1  0  0  0  0
  6 24  1  0  0  0  0
  7 22  2  0  0  0  0
  9  6  1  0  0  0  0
 11  9  2  0  0  0  0
 12 10  1  0  0  0  0
 12  8  2  0  0  0  0
 13 14  1  0  0  0  0
 14 26  1  1  0  0  0
 15  9  1  0  0  0  0
 16  5  1  1  0  0  0
 16 25  1  0  0  0  0
 16  3  1  0  0  0  0
 17 14  1  0  0  0  0
 17  4  1  1  0  0  0
 18 20  2  0  0  0  0
 18 24  1  0  0  0  0
 19  7  1  0  0  0  0
 20 12  1  0  0  0  0
 21  8  1  0  0  0  0
 22 15  1  0  0  0  0
 23  5  1  0  0  0  0
 23 19  2  0  0  0  0
 24 21  2  0  0  0  0
 27 26  1  1  0  0  0
 27 29  1  0  0  0  0
 27 28  1  0  0  0  0
 29 33  1  6  0  0  0
 29 28  1  0  0  0  0
 30 33  1  0  0  0  0
 32 33  2  0  0  0  0
 33 31  1  0  0  0  0
 34  2  1  0  0  0  0
 36 35  1  6  0  0  0
 36 34  1  0  0  0  0
 37 38  1  0  0  0  0
 38 36  1  0  0  0  0
M  END
>  <MODEL>
4

>  <REMARK>
 VINA RESULT:      -6.0      2.756      5.543
  Name = 
  6 active torsions:
  status: ('A' for Active; 'I' for Inactive)
    1  A    between atoms: N_2  and  C_38
    2  A    between atoms: C_8  and  N_29
    3  A    between atoms: CA_13  and  C_17
    4  A    between atoms: CA_13  and  C_38
    5  A    between atoms: C_23  and  N_29
    6  A    between atoms: P_24  and  C_37
                            x       y       z     vdW  Elec       q    Type
                         _______ _______ _______ _____ _____    ______ ____

>  <TORSDO>
F 6

$$$$
=
 OpenBabel11042417123D

 38 43  0  0  1  0  0  0  0  0999 V2000
  190.8900  173.0850  142.2010 C   0  0  1  0  0  3  0  0  0  0  0  0
  190.4780  173.5770  140.8910 N   0  0  0  0  0  0  0  0  0  0  0  0
  189.8690  175.7830  144.1010 C   0  0  2  0  0  3  0  0  0  0  0  0
  192.7180  174.5440  143.1200 N   0  0  0  0  0  2  0  0  0  0  0  0
  188.2980  175.0870  142.3250 C   0  0  0  0  0  2  0  0  0  0  0  0
  193.0750  176.9790  144.9430 C   0  0  0  0  0  2  0  0  0  0  0  0
  188.5980  177.7660  143.5850 N   0  0  0  0  0  0  0  0  0  0  0  0
  195.6390  174.5390  146.1600 N   0  0  0  0  0  0  0  0  0  0  0  0
  191.5940  176.8090  144.8000 C   0  0  0  0  0  0  0  0  0  0  0  0
  196.3830  172.2750  145.5300 C   0  0  0  0  0  1  0  0  0  0  0  0
  191.0310  175.5930  144.7330 N   0  0  0  0  0  0  0  0  0  0  0  0
  195.5060  173.4610  145.3440 C   0  0  0  0  0  0  0  0  0  0  0  0
  191.6510  173.3770  140.0490 C   0  0  0  0  0  2  0  0  0  0  0  0
  192.8970  173.4370  140.9140 C   0  0  2  0  0  3  0  0  0  0  0  0
  190.7940  177.7990  144.3520 N   0  0  0  0  0  2  0  0  0  0  0  0
  189.3230  174.8000  143.3740 C   0  0  1  0  0  3  0  0  0  0  0  0
  192.3930  173.3400  142.3540 C   0  0  2  0  0  3  0  0  0  0  0  0
  193.7160  174.5730  144.1560 C   0  0  0  0  0  0  0  0  0  0  0  0
  187.3230  177.1670  143.2880 C   0  0  0  0  0  3  0  0  0  0  0  0
  194.5440  173.4590  144.3370 C   0  0  0  0  0  3  0  0  0  0  0  0
  194.8450  175.6360  146.0240 C   0  0  0  0  0  3  0  0  0  0  0  0
  189.6830  177.1470  143.9560 C   0  0  0  0  0  0  0  0  0  0  0  0
  187.1660  175.9440  142.7870 C   0  0  0  0  0  3  0  0  0  0  0  0
  193.8580  175.6880  145.0360 C   0  0  0  0  0  0  0  0  0  0  0  0
  190.0260  173.5470  143.3070 N   0  0  0  0  0  2  0  0  0  0  0  0
  193.6130  174.6750  140.6310 N   0  0  0  0  0  2  0  0  0  0  0  0
  194.9340  174.3250  140.1390 C   0  0  2  0  0  3  0  0  0  0  0  0
  195.8860  175.4670  140.4430 C   0  0  0  0  0  2  0  0  0  0  0  0
  195.3380  175.2930  139.0410 C   0  0  1  0  0  3  0  0  0  0  0  0
  197.1250  175.6590  136.8390 O   0  0  0  0  0  0  0  0  0  0  0  0
  196.0090  173.3340  137.2600 O   0  0  0  0  0  1  0  0  0  0  0  0
  197.9320  174.0100  138.9010 O   0  0  0  0  0  1  0  0  0  0  0  0
  196.6030  174.5220  137.9820 P   0  0  0  0  0  0  0  0  0  0  0  0
  189.4320  172.6810  140.3960 C   0  0  0  0  0  2  0  0  0  0  0  0
  189.4930  171.0310  138.6160 N   0  0  0  0  0  1  0  0  0  0  0  0
  189.5440  172.4530  138.8840 C   0  0  1  0  0  3  0  0  0  0  0  0
  188.8910  173.5360  136.8460 O   0  0  0  0  0  1  0  0  0  0  0  0
  188.4290  173.1410  138.1080 C   0  0  0  0  0  2  0  0  0  0  0  0
  1 17  1  0  0  0  0
  1 25  1  1  0  0  0
  2  1  1  0  0  0  0
  3 22  1  6  0  0  0
  3 11  1  0  0  0  0
  4 18  1  0  0  0  0
  5 23  1  0  0  0  0
  6 24  1  0  0  0  0
  7 22  2  0  0  0  0
  9  6  1  0  0  0  0
 11  9  2  0  0  0  0
 12 10  1  0  0  0  0
 12  8  2  0  0  0  0
 13  2  1  0  0  0  0
 13 14  1  0  0  0  0
 14 26  1  1  0  0  0
 14 17  1  0  0  0  0
 15  9  1  0  0  0  0
 16  5  1  6  0  0  0
 16  3  1  0  0  0  0
 17  4  1  1  0  0  0
 18 20  2  0  0  0  0
 18 24  1  0  0  0  0
 19  7  1  0  0  0  0
 20 12  1  0  0  0  0
 21  8  1  0  0  0  0
 22 15  1  0  0  0  0
 23 19  2  0  0  0  0
 24 21  2  0  0  0  0
 25 16  1  0  0  0  0
 27 28  1  0  0  0  0
 27 26  1  1  0  0  0
 29 33  1  6  0  0  0
 29 27  1  0  0  0  0
 29 28  1  0  0  0  0
 30 33  2  0  0  0  0
 31 33  1  0  0  0  0
 33 32  1  0  0  0  0
 34  2  1  0  0  0  0
 36 35  1  1  0  0  0
 36 34  1  0  0  0  0
 37 38  1  0  0  0  0
 38 36  1  0  0  0  0
M  END
>  <MODEL>
5

>  <REMARK>
 VINA RESULT:      -5.9      2.951      6.061
  Name = 
  6 active torsions:
  status: ('A' for Active; 'I' for Inactive)
    1  A    between atoms: N_2  and  C_38
    2  A    between atoms: C_8  and  N_29
    3  A    between atoms: CA_13  and  C_17
    4  A    between atoms: CA_13  and  C_38
    5  A    between atoms: C_23  and  N_29
    6  A    between atoms: P_24  and  C_37
                            x       y       z     vdW  Elec       q    Type
                         _______ _______ _______ _____ _____    ______ ____

>  <TORSDO>
F 6

$$$$
=
 OpenBabel11042417123D

 38 43  0  0  1  0  0  0  0  0999 V2000
  193.0140  172.5420  144.4370 C   0  0  1  0  0  3  0  0  0  0  0  0
  194.1350  172.3190  143.5300 N   0  0  0  0  0  0  0  0  0  0  0  0
  190.4360  171.9710  142.2100 C   0  0  2  0  0  3  0  0  0  0  0  0
  191.7180  174.5670  143.7050 N   0  0  0  0  0  2  0  0  0  0  0  0
  192.3410  170.4040  142.0460 C   0  0  0  0  0  2  0  0  0  0  0  0
  189.2840  175.2930  141.9930 C   0  0  0  0  0  2  0  0  0  0  0  0
  190.3790  171.1590  139.9400 N   0  0  0  0  0  0  0  0  0  0  0  0
  188.7940  177.2330  145.1560 N   0  0  0  0  0  0  0  0  0  0  0  0
  189.4730  173.8210  141.8020 C   0  0  0  0  0  0  0  0  0  0  0  0
  190.0320  177.5440  147.2650 C   0  0  0  0  0  1  0  0  0  0  0  0
  189.8800  173.0300  142.8050 N   0  0  0  0  0  0  0  0  0  0  0  0
  189.8790  176.9360  145.9160 C   0  0  0  0  0  0  0  0  0  0  0  0
  194.9960  173.4770  143.7340 C   0  0  0  0  0  2  0  0  0  0  0  0
  194.1450  174.6540  144.1770 C   0  0  2  0  0  3  0  0  0  0  0  0
  189.6270  173.2650  140.5810 N   0  0  0  0  0  2  0  0  0  0  0  0
  191.4110  171.2830  142.8180 C   0  0  1  0  0  3  0  0  0  0  0  0
  192.7910  174.0540  144.5560 C   0  0  2  0  0  3  0  0  0  0  0  0
  190.7130  175.4840  144.1710 C   0  0  0  0  0  0  0  0  0  0  0  0
  190.8350  169.8110  140.1520 C   0  0  0  0  0  3  0  0  0  0  0  0
  190.8490  176.0580  145.4400 C   0  0  0  0  0  3  0  0  0  0  0  0
  188.6180  176.6870  143.9220 C   0  0  0  0  0  3  0  0  0  0  0  0
  190.1940  172.0720  140.8510 C   0  0  0  0  0  0  0  0  0  0  0  0
  191.6600  169.4410  141.1300 C   0  0  0  0  0  3  0  0  0  0  0  0
  189.5560  175.7930  143.3950 C   0  0  0  0  0  0  0  0  0  0  0  0
  191.8250  171.7230  144.1240 N   0  0  0  0  0  2  0  0  0  0  0  0
  194.0680  175.6210  143.0880 N   0  0  0  0  0  2  0  0  0  0  0  0
  195.2330  175.4350  142.2430 C   0  0  2  0  0  3  0  0  0  0  0  0
  195.6740  176.7890  141.7150 C   0  0  0  0  0  2  0  0  0  0  0  0
  194.8960  175.8460  140.8200 C   0  0  1  0  0  3  0  0  0  0  0  0
  197.5900  175.6660  139.8780 O   0  0  0  0  0  1  0  0  0  0  0  0
  195.5910  175.2840  138.2390 O   0  0  0  0  0  0  0  0  0  0  0  0
  196.0820  173.3540  139.9370 O   0  0  0  0  0  1  0  0  0  0  0  0
  196.0360  175.0260  139.6610 P   0  0  0  0  0  0  0  0  0  0  0  0
  194.8640  171.1470  144.0150 C   0  0  0  0  0  2  0  0  0  0  0  0
  194.6170  170.0140  146.1480 N   0  0  0  0  0  1  0  0  0  0  0  0
  195.1230  171.2190  145.5240 C   0  0  1  0  0  3  0  0  0  0  0  0
  196.8550  172.6190  146.4160 O   0  0  0  0  0  1  0  0  0  0  0  0
  196.6030  171.3610  145.8540 C   0  0  0  0  0  2  0  0  0  0  0  0
  1 25  1  6  0  0  0
  1 17  1  0  0  0  0
  2 13  1  0  0  0  0
  2 34  1  0  0  0  0
  2  1  1  0  0  0  0
  3 22  1  6  0  0  0
  3 11  1  0  0  0  0
  3 16  1  0  0  0  0
  4 18  1  0  0  0  0
  6 24  1  0  0  0  0
  7 19  1  0  0  0  0
  7 22  2  0  0  0  0
  8 12  1  0  0  0  0
  9  6  1  0  0  0  0
  9 11  2  0  0  0  0
 12 10  1  0  0  0  0
 13 14  1  0  0  0  0
 14 26  1  6  0  0  0
 14 17  1  0  0  0  0
 15 22  1  0  0  0  0
 15  9  1  0  0  0  0
 16  5  1  6  0  0  0
 16 25  1  0  0  0  0
 17  4  1  6  0  0  0
 18 20  1  0  0  0  0
 19 23  2  0  0  0  0
 20 12  2  0  0  0  0
 21  8  2  0  0  0  0
 23  5  1  0  0  0  0
 24 21  1  0  0  0  0
 24 18  2  0  0  0  0
 27 26  1  1  0  0  0
 28 27  1  0  0  0  0
 29 33  1  6  0  0  0
 29 28  1  0  0  0  0
 29 27  1  0  0  0  0
 31 33  2  0  0  0  0
 33 30  1  0  0  0  0
 33 32  1  0  0  0  0
 34 36  1  0  0  0  0
 36 38  1  0  0  0  0
 36 35  1  1  0  0  0
 38 37  1  0  0  0  0
M  END
>  <MODEL>
6

>  <REMARK>
 VINA RESULT:      -5.8      2.013      2.512
  Name = 
  6 active torsions:
  status: ('A' for Active; 'I' for Inactive)
    1  A    between atoms: N_2  and  C_38
    2  A    between atoms: C_8  and  N_29
    3  A    between atoms: CA_13  and  C_17
    4  A    between atoms: CA_13  and  C_38
    5  A    between atoms: C_23  and  N_29
    6  A    between atoms: P_24  and  C_37
                            x       y       z     vdW  Elec       q    Type
                         _______ _______ _______ _____ _____    ______ ____

>  <TORSDO>
F 6

$$$$
=
 OpenBabel11042417123D

 38 43  0  0  1  0  0  0  0  0999 V2000
  194.2090  174.8730  142.9610 C   0  0  1  0  0  3  0  0  0  0  0  0
  194.9560  174.1900  144.0110 N   0  0  0  0  0  0  0  0  0  0  0  0
  191.3250  175.5430  144.7420 C   0  0  2  0  0  3  0  0  0  0  0  0
  192.1860  173.5190  142.3370 N   0  0  0  0  0  2  0  0  0  0  0  0
  193.4370  175.8970  145.9770 C   0  0  0  0  0  2  0  0  0  0  0  0
  189.2120  173.2980  143.0360 C   0  0  0  0  0  2  0  0  0  0  0  0
  190.7350  175.2850  147.0650 N   0  0  0  0  0  0  0  0  0  0  0  0
  189.2820  173.2580  139.2940 N   0  0  0  0  0  0  0  0  0  0  0  0
  189.7640  174.3150  143.9850 C   0  0  0  0  0  0  0  0  0  0  0  0
  191.0160  173.3340  137.5430 C   0  0  0  0  0  1  0  0  0  0  0  0
  190.7150  175.1830  143.6090 N   0  0  0  0  0  0  0  0  0  0  0  0
  190.5980  173.3340  138.9710 C   0  0  0  0  0  0  0  0  0  0  0  0
  195.4360  172.9700  143.3730 C   0  0  0  0  0  2  0  0  0  0  0  0
  194.4750  172.5810  142.2630 C   0  0  2  0  0  3  0  0  0  0  0  0
  189.6470  174.1910  145.3240 N   0  0  0  0  0  2  0  0  0  0  0  0
  192.6110  175.9170  144.7310 C   0  0  1  0  0  3  0  0  0  0  0  0
  193.5900  173.8090  142.0470 C   0  0  2  0  0  3  0  0  0  0  0  0
  191.1760  173.4150  141.3190 C   0  0  0  0  0  0  0  0  0  0  0  0
  191.6260  176.2520  147.6510 C   0  0  0  0  0  3  0  0  0  0  0  0
  191.5620  173.4170  139.9740 C   0  0  0  0  0  3  0  0  0  0  0  0
  188.8650  173.2650  140.5900 C   0  0  0  0  0  3  0  0  0  0  0  0
  190.6080  175.0090  145.7980 C   0  0  0  0  0  0  0  0  0  0  0  0
  192.8100  176.5890  147.1420 C   0  0  0  0  0  3  0  0  0  0  0  0
  189.7860  173.3550  141.6370 C   0  0  0  0  0  0  0  0  0  0  0  0
  193.2970  175.9200  143.4660 N   0  0  0  0  0  2  0  0  0  0  0  0
  193.7330  171.3940  142.6710 N   0  0  0  0  0  2  0  0  0  0  0  0
  194.6530  170.5070  143.3580 C   0  0  2  0  0  3  0  0  0  0  0  0
  194.0430  169.1180  143.4110 C   0  0  0  0  0  2  0  0  0  0  0  0
  194.0100  170.0060  144.6400 C   0  0  1  0  0  3  0  0  0  0  0  0
  194.5660  168.9230  147.2280 O   0  0  0  0  0  1  0  0  0  0  0  0
  196.1970  170.6530  146.1430 O   0  0  0  0  0  1  0  0  0  0  0  0
  196.2450  168.2330  145.1470 O   0  0  0  0  0  0  0  0  0  0  0  0
  195.3050  169.4790  145.8070 P   0  0  0  0  0  0  0  0  0  0  0  0
  196.1290  175.0080  144.3170 C   0  0  0  0  0  2  0  0  0  0  0  0
  196.8160  177.1670  143.4440 N   0  0  0  0  0  1  0  0  0  0  0  0
  196.6280  175.7760  143.0880 C   0  0  1  0  0  3  0  0  0  0  0  0
  197.7420  174.6480  141.2870 O   0  0  0  0  0  1  0  0  0  0  0  0
  197.9400  175.2230  142.5490 C   0  0  0  0  0  2  0  0  0  0  0  0
  1 25  1  1  0  0  0
  1  2  1  0  0  0  0
  2 34  1  0  0  0  0
  3 11  1  6  0  0  0
  3 22  1  0  0  0  0
  5 23  1  0  0  0  0
  6  9  1  0  0  0  0
  7 19  1  0  0  0  0
  8 21  1  0  0  0  0
  9 15  1  0  0  0  0
 10 12  1  0  0  0  0
 11  9  2  0  0  0  0
 12  8  2  0  0  0  0
 12 20  1  0  0  0  0
 13  2  1  0  0  0  0
 14 26  1  1  0  0  0
 14 13  1  0  0  0  0
 15 22  1  0  0  0  0
 16  3  1  0  0  0  0
 16  5  1  1  0  0  0
 17 14  1  0  0  0  0
 17  4  1  1  0  0  0
 17  1  1  0  0  0  0
 18 24  1  0  0  0  0
 18  4  1  0  0  0  0
 20 18  2  0  0  0  0
 21 24  2  0  0  0  0
 22  7  2  0  0  0  0
 23 19  2  0  0  0  0
 24  6  1  0  0  0  0
 25 16  1  0  0  0  0
 27 26  1  6  0  0  0
 27 28  1  0  0  0  0
 27 29  1  0  0  0  0
 28 29  1  0  0  0  0
 29 33  1  1  0  0  0
 32 33  2  0  0  0  0
 33 31  1  0  0  0  0
 33 30  1  0  0  0  0
 36 35  1  1  0  0  0
 36 34  1  0  0  0  0
 37 38  1  0  0  0  0
 38 36  1  0  0  0  0
M  END
>  <MODEL>
7

>  <REMARK>
 VINA RESULT:      -5.8      2.835      6.339
  Name = 
  6 active torsions:
  status: ('A' for Active; 'I' for Inactive)
    1  A    between atoms: N_2  and  C_38
    2  A    between atoms: C_8  and  N_29
    3  A    between atoms: CA_13  and  C_17
    4  A    between atoms: CA_13  and  C_38
    5  A    between atoms: C_23  and  N_29
    6  A    between atoms: P_24  and  C_37
                            x       y       z     vdW  Elec       q    Type
                         _______ _______ _______ _____ _____    ______ ____

>  <TORSDO>
F 6

$$$$
=
 OpenBabel11042417123D

 38 43  0  0  1  0  0  0  0  0999 V2000
  192.9740  175.6360  141.5920 C   0  0  1  0  0  3  0  0  0  0  0  0
  193.4400  174.3670  141.0430 N   0  0  0  0  0  0  0  0  0  0  0  0
  195.1300  175.8480  144.2830 C   0  0  2  0  0  3  0  0  0  0  0  0
  191.9540  175.2570  143.8570 N   0  0  0  0  0  2  0  0  0  0  0  0
  196.1480  175.0610  142.1720 C   0  0  0  0  0  2  0  0  0  0  0  0
  192.7400  175.3180  146.8170 C   0  0  0  0  0  2  0  0  0  0  0  0
  197.0370  174.5390  144.9640 N   0  0  0  0  0  0  0  0  0  0  0  0
  189.5260  177.2310  146.6810 N   0  0  0  0  0  0  0  0  0  0  0  0
  194.0150  175.5490  146.0670 C   0  0  0  0  0  0  0  0  0  0  0  0
  187.8960  177.8550  144.9400 C   0  0  0  0  0  1  0  0  0  0  0  0
  194.0430  176.2690  144.9360 N   0  0  0  0  0  0  0  0  0  0  0  0
  189.1550  177.1920  145.3760 C   0  0  0  0  0  0  0  0  0  0  0  0
  192.2200  173.5950  140.8410 C   0  0  0  0  0  2  0  0  0  0  0  0
  191.1750  174.0510  141.8420 C   0  0  2  0  0  3  0  0  0  0  0  0
  195.1040  174.7700  146.2370 N   0  0  0  0  0  2  0  0  0  0  0  0
  195.1820  175.8990  142.9450 C   0  0  1  0  0  3  0  0  0  0  0  0
  191.7120  175.3610  142.4180 C   0  0  2  0  0  3  0  0  0  0  0  0
  191.1370  175.9120  144.8430 C   0  0  0  0  0  0  0  0  0  0  0  0
  197.9410  174.8490  143.8880 C   0  0  0  0  0  3  0  0  0  0  0  0
  189.9530  176.5390  144.4390 C   0  0  0  0  0  3  0  0  0  0  0  0
  190.6760  176.6440  147.1120 C   0  0  0  0  0  3  0  0  0  0  0  0
  195.8300  175.0010  145.1240 C   0  0  0  0  0  0  0  0  0  0  0  0
  197.5600  175.1510  142.6480 C   0  0  0  0  0  3  0  0  0  0  0  0
  191.5190  175.9800  146.2160 C   0  0  0  0  0  0  0  0  0  0  0  0
  194.0360  176.4230  142.2510 N   0  0  0  0  0  2  0  0  0  0  0  0
  190.9880  173.0090  142.8440 N   0  0  0  0  0  2  0  0  0  0  0  0
  191.6920  171.8230  142.3900 C   0  0  2  0  0  3  0  0  0  0  0  0
  190.7250  170.6530  142.3880 C   0  0  0  0  0  2  0  0  0  0  0  0
  191.7320  170.7990  143.5120 C   0  0  1  0  0  3  0  0  0  0  0  0
  192.9870  168.9930  141.6840 O   0  0  0  0  0  0  0  0  0  0  0  0
  193.0580  168.5300  144.2550 O   0  0  0  0  0  1  0  0  0  0  0  0
  194.6050  170.4520  143.3810 O   0  0  0  0  0  1  0  0  0  0  0  0
  193.1180  169.6510  143.2410 P   0  0  0  0  0  0  0  0  0  0  0  0
  194.0010  174.6430  139.7200 C   0  0  0  0  0  2  0  0  0  0  0  0
  193.2350  174.0590  137.4910 N   0  0  0  0  0  1  0  0  0  0  0  0
  193.7270  173.5020  138.7340 C   0  0  1  0  0  3  0  0  0  0  0  0
  196.0840  173.2270  139.0890 O   0  0  0  0  0  1  0  0  0  0  0  0
  194.9710  172.6720  138.4430 C   0  0  0  0  0  2  0  0  0  0  0  0
  1 25  1  1  0  0  0
  1 17  1  0  0  0  0
  2  1  1  0  0  0  0
  3 11  1  6  0  0  0
  3 22  1  0  0  0  0
  4 18  1  0  0  0  0
  5 23  1  0  0  0  0
  7 22  2  0  0  0  0
  8 21  1  0  0  0  0
  9 15  1  0  0  0  0
  9  6  1  0  0  0  0
 10 12  1  0  0  0  0
 11  9  2  0  0  0  0
 12  8  2  0  0  0  0
 13  2  1  0  0  0  0
 13 14  1  0  0  0  0
 14 17  1  0  0  0  0
 14 26  1  1  0  0  0
 16  5  1  6  0  0  0
 16  3  1  0  0  0  0
 17  4  1  1  0  0  0
 18 24  1  0  0  0  0
 19  7  1  0  0  0  0
 20 18  2  0  0  0  0
 20 12  1  0  0  0  0
 22 15  1  0  0  0  0
 23 19  2  0  0  0  0
 24  6  1  0  0  0  0
 24 21  2  0  0  0  0
 25 16  1  0  0  0  0
 27 26  1  1  0  0  0
 27 29  1  0  0  0  0
 28 27  1  0  0  0  0
 28 29  1  0  0  0  0
 29 33  1  6  0  0  0
 30 33  2  0  0  0  0
 33 32  1  0  0  0  0
 33 31  1  0  0  0  0
 34  2  1  0  0  0  0
 36 35  1  6  0  0  0
 36 34  1  0  0  0  0
 38 36  1  0  0  0  0
 38 37  1  0  0  0  0
M  END
>  <MODEL>
8

>  <REMARK>
 VINA RESULT:      -5.6      3.020      6.217
  Name = 
  6 active torsions:
  status: ('A' for Active; 'I' for Inactive)
    1  A    between atoms: N_2  and  C_38
    2  A    between atoms: C_8  and  N_29
    3  A    between atoms: CA_13  and  C_17
    4  A    between atoms: CA_13  and  C_38
    5  A    between atoms: C_23  and  N_29
    6  A    between atoms: P_24  and  C_37
                            x       y       z     vdW  Elec       q    Type
                         _______ _______ _______ _____ _____    ______ ____

>  <TORSDO>
F 6

$$$$
=
 OpenBabel11042417123D

 38 43  0  0  1  0  0  0  0  0999 V2000
  189.6090  173.3780  141.5170 C   0  0  1  0  0  3  0  0  0  0  0  0
  190.5710  173.6330  140.4510 N   0  0  0  0  0  0  0  0  0  0  0  0
  187.2810  175.7920  140.6890 C   0  0  2  0  0  3  0  0  0  0  0  0
  189.4890  175.3680  143.0470 N   0  0  0  0  0  2  0  0  0  0  0  0
  188.2320  174.5420  138.7800 C   0  0  0  0  0  2  0  0  0  0  0  0
  187.8500  177.9260  143.4340 C   0  0  0  0  0  2  0  0  0  0  0  0
  187.0560  177.2760  138.8030 N   0  0  0  0  0  0  0  0  0  0  0  0
  188.0430  176.4320  146.8600 N   0  0  0  0  0  0  0  0  0  0  0  0
  187.3420  177.3230  142.1620 C   0  0  0  0  0  0  0  0  0  0  0  0
  189.0830  174.4440  147.8810 C   0  0  0  0  0  1  0  0  0  0  0  0
  187.2360  175.9940  142.0100 N   0  0  0  0  0  0  0  0  0  0  0  0
  188.7860  175.3070  146.7070 C   0  0  0  0  0  0  0  0  0  0  0  0
  191.8530  173.7230  141.1390 C   0  0  0  0  0  2  0  0  0  0  0  0
  191.6190  174.2060  142.5590 C   0  0  2  0  0  3  0  0  0  0  0  0
  187.3270  178.0020  140.9960 N   0  0  0  0  0  2  0  0  0  0  0  0
  187.7580  174.6420  140.1950 C   0  0  1  0  0  3  0  0  0  0  0  0
  190.1130  174.0700  142.7880 C   0  0  2  0  0  3  0  0  0  0  0  0
  188.9950  175.7610  144.3390 C   0  0  0  0  0  0  0  0  0  0  0  0
  186.8040  176.3120  137.7640 C   0  0  0  0  0  3  0  0  0  0  0  0
  189.2690  174.9530  145.4490 C   0  0  0  0  0  3  0  0  0  0  0  0
  187.7440  177.2390  145.8050 C   0  0  0  0  0  3  0  0  0  0  0  0
  187.2400  177.0280  140.0680 C   0  0  0  0  0  0  0  0  0  0  0  0
  187.2650  175.0630  137.7690 C   0  0  0  0  0  3  0  0  0  0  0  0
  188.1950  176.9290  144.5190 C   0  0  0  0  0  0  0  0  0  0  0  0
  188.2090  173.6470  141.1300 N   0  0  0  0  0  2  0  0  0  0  0  0
  192.1050  175.5750  142.6830 N   0  0  0  0  0  2  0  0  0  0  0  0
  193.2570  175.5620  143.5660 C   0  0  2  0  0  3  0  0  0  0  0  0
  193.0600  174.4760  144.6080 C   0  0  0  0  0  2  0  0  0  0  0  0
  192.8190  175.9270  144.9740 C   0  0  1  0  0  3  0  0  0  0  0  0
  195.3210  175.2880  146.2020 O   0  0  0  0  0  1  0  0  0  0  0  0
  193.7740  177.1240  147.2350 O   0  0  0  0  0  1  0  0  0  0  0  0
  195.0450  177.7790  145.0430 O   0  0  0  0  0  0  0  0  0  0  0  0
  194.2430  176.5640  145.9110 P   0  0  0  0  0  0  0  0  0  0  0  0
  190.6170  172.4380  139.6070 C   0  0  0  0  0  2  0  0  0  0  0  0
  192.5530  171.6170  138.3940 N   0  0  0  0  0  1  0  0  0  0  0  0
  191.5230  172.6350  138.3870 C   0  0  1  0  0  3  0  0  0  0  0  0
  191.0360  171.3410  136.4260 O   0  0  0  0  0  1  0  0  0  0  0  0
  190.7570  172.5520  137.0730 C   0  0  0  0  0  2  0  0  0  0  0  0
  1 25  1  6  0  0  0
  1 17  1  0  0  0  0
  2 13  1  0  0  0  0
  2  1  1  0  0  0  0
  3 22  1  6  0  0  0
  3 11  1  0  0  0  0
  4 18  1  0  0  0  0
  6 24  1  0  0  0  0
  7 22  2  0  0  0  0
  9  6  1  0  0  0  0
 11  9  2  0  0  0  0
 12  8  1  0  0  0  0
 12 10  1  0  0  0  0
 13 14  1  0  0  0  0
 14 26  1  6  0  0  0
 14 17  1  0  0  0  0
 15  9  1  0  0  0  0
 16  5  1  6  0  0  0
 16  3  1  0  0  0  0
 16 25  1  0  0  0  0
 17  4  1  6  0  0  0
 18 24  2  0  0  0  0
 18 20  1  0  0  0  0
 19 23  2  0  0  0  0
 19  7  1  0  0  0  0
 20 12  2  0  0  0  0
 21  8  2  0  0  0  0
 22 15  1  0  0  0  0
 23  5  1  0  0  0  0
 24 21  1  0  0  0  0
 27 26  1  6  0  0  0
 27 28  1  0  0  0  0
 27 29  1  0  0  0  0
 28 29  1  0  0  0  0
 29 33  1  1  0  0  0
 32 33  2  0  0  0  0
 33 30  1  0  0  0  0
 33 31  1  0  0  0  0
 34  2  1  0  0  0  0
 36 35  1  6  0  0  0
 36 34  1  0  0  0  0
 37 38  1  0  0  0  0
 38 36  1  0  0  0  0
M  END
>  <MODEL>
9

>  <REMARK>
 VINA RESULT:      -5.6      2.726      4.135
  Name = 
  6 active torsions:
  status: ('A' for Active; 'I' for Inactive)
    1  A    between atoms: N_2  and  C_38
    2  A    between atoms: C_8  and  N_29
    3  A    between atoms: CA_13  and  C_17
    4  A    between atoms: CA_13  and  C_38
    5  A    between atoms: C_23  and  N_29
    6  A    between atoms: P_24  and  C_37
                            x       y       z     vdW  Elec       q    Type
                         _______ _______ _______ _____ _____    ______ ____

>  <TORSDO>
F 6

$$$$
