=
 OpenBabel11042419343D

 32 36  0  0  1  0  0  0  0  0999 V2000
  196.3750  174.6280  145.5110 N   0  0  0  0  0  0  0  0  0  0  0  0
  193.5200  176.3200  144.4450 C   0  0  0  0  0  3  0  0  0  0  0  0
  192.5250  174.3630  143.2630 C   0  0  0  0  0  0  0  0  0  0  0  0
  194.9110  175.9580  144.0540 C   0  0  0  0  0  2  0  0  0  0  0  0
  195.0810  172.2680  144.9110 C   0  0  0  0  0  3  0  0  0  0  0  0
  195.2990  174.6600  144.6780 C   0  0  0  0  0  0  0  0  0  0  0  0
  192.4500  175.6080  144.0850 C   0  0  0  0  0  0  0  0  0  0  0  0
  194.6120  173.4690  144.3720 C   0  0  0  0  0  0  0  0  0  0  0  0
  196.8220  173.4670  146.0590 C   0  0  0  0  0  3  0  0  0  0  0  0
  196.1850  172.2630  145.7640 C   0  0  0  0  0  3  0  0  0  0  0  0
  193.4530  173.4140  143.4590 C   0  0  0  0  0  3  0  0  0  0  0  0
  190.0790  176.4400  144.9080 C   0  0  0  0  0  0  0  0  0  0  0  0
  191.1650  176.0730  144.5340 C   0  0  0  0  0  0  0  0  0  0  0  0
  184.5570  178.2910  146.8820 C   0  0  0  0  0  3  0  0  0  0  0  0
  186.8910  178.0410  145.3790 C   0  0  0  0  0  0  0  0  0  0  0  0
  187.9880  176.2210  146.7030 S   0  0  0  0  0  0  0  0  0  0  0  0
  184.7650  179.1060  145.7520 C   0  0  0  0  0  3  0  0  0  0  0  0
  186.6750  177.2440  146.4920 C   0  0  0  0  0  0  0  0  0  0  0  0
  188.7780  176.8530  145.3460 C   0  0  0  0  0  0  0  0  0  0  0  0
  188.0660  177.8300  144.7340 N   0  0  0  0  0  0  0  0  0  0  0  0
  185.9410  178.9860  144.9910 C   0  0  0  0  0  3  0  0  0  0  0  0
  185.5210  177.3440  147.2640 C   0  0  0  0  0  3  0  0  0  0  0  0
  191.4970  174.0630  142.3120 N   0  0  0  0  0  2  0  0  0  0  0  0
  190.5740  172.9480  142.4540 C   0  0  0  0  0  2  0  0  0  0  0  0
  188.7370  174.3060  141.6580 C   0  0  2  0  0  3  0  0  0  0  0  0
  188.2370  172.9300  141.7800 N   0  0  0  0  0  2  0  0  0  0  0  0
  189.1870  173.4690  142.7620 C   0  0  1  0  0  3  0  0  0  0  0  0
  187.6730  175.2690  142.1460 C   0  0  0  0  0  2  0  0  0  0  0  0
  187.8440  176.6280  141.4880 C   0  0  0  0  0  2  0  0  0  0  0  0
  186.3100  177.8560  140.1370 O   0  0  0  0  0  0  0  0  0  0  0  0
  185.5050  177.1650  142.1690 O   0  0  0  0  0  1  0  0  0  0  0  0
  186.5190  177.2600  141.2260 C   0  0  0  0  0  0  0  0  0  0  0  0
  1  9  1  0  0  0  0
  3 11  2  0  0  0  0
  3  7  1  0  0  0  0
  4  2  1  0  0  0  0
  4  6  1  0  0  0  0
  5 10  1  0  0  0  0
  6  1  2  0  0  0  0
  7  2  2  0  0  0  0
  7 13  1  0  0  0  0
  8  6  1  0  0  0  0
  8  5  2  0  0  0  0
 10  9  2  0  0  0  0
 11  8  1  0  0  0  0
 12 19  1  0  0  0  0
 13 12  3  0  0  0  0
 14 22  1  0  0  0  0
 15 18  1  0  0  0  0
 17 14  2  0  0  0  0
 18 16  1  0  0  0  0
 18 22  2  0  0  0  0
 19 16  1  0  0  0  0
 20 19  2  0  0  0  0
 20 15  1  0  0  0  0
 21 15  2  0  0  0  0
 21 17  1  0  0  0  0
 23 24  1  0  0  0  0
 23  3  1  0  0  0  0
 25 26  1  0  0  0  0
 25 28  1  1  0  0  0
 25 27  1  0  0  0  0
 26 27  1  0  0  0  0
 27 24  1  6  0  0  0
 29 28  1  0  0  0  0
 30 32  2  0  0  0  0
 32 29  1  0  0  0  0
 32 31  1  0  0  0  0
M  END
>  <MODEL>
1

>  <REMARK>
 VINA RESULT:      -7.1      0.000      0.000
  Name = 
  8 active torsions:
  status: ('A' for Active; 'I' for Inactive)
    1  A    between atoms: C_7  and  C_19
    2  A    between atoms: C_7  and  C_23
    3  A    between atoms: C_8  and  C_21
    4  A    between atoms: C_9  and  N_17
    5  A    between atoms: C_13  and  C_18
    6  A    between atoms: N_17  and  C_27
    7  A    between atoms: C_23  and  C_30
    8  A    between atoms: C_27  and  C_29
                            x       y       z     vdW  Elec       q    Type
                         _______ _______ _______ _____ _____    ______ ____

>  <TORSDO>
F 8

$$$$
=
 OpenBabel11042419343D

 32 36  0  0  1  0  0  0  0  0999 V2000
  184.7860  177.8920  145.1860 N   0  0  0  0  0  0  0  0  0  0  0  0
  186.4340  177.3120  142.1700 C   0  0  0  0  0  3  0  0  0  0  0  0
  188.7250  177.3420  143.1550 C   0  0  0  0  0  0  0  0  0  0  0  0
  185.9380  178.3880  143.0730 C   0  0  0  0  0  2  0  0  0  0  0  0
  187.1250  177.2210  146.4810 C   0  0  0  0  0  3  0  0  0  0  0  0
  185.9550  177.9180  144.4890 C   0  0  0  0  0  0  0  0  0  0  0  0
  187.6850  176.8490  142.2020 C   0  0  0  0  0  0  0  0  0  0  0  0
  187.1590  177.5610  145.1260 C   0  0  0  0  0  0  0  0  0  0  0  0
  184.7400  177.5390  146.4970 C   0  0  0  0  0  3  0  0  0  0  0  0
  185.9130  177.2010  147.1720 C   0  0  0  0  0  3  0  0  0  0  0  0
  188.4710  177.5860  144.4490 C   0  0  0  0  0  3  0  0  0  0  0  0
  188.3070  174.9470  140.4730 C   0  0  0  0  0  0  0  0  0  0  0  0
  188.0280  175.8070  141.2710 C   0  0  0  0  0  0  0  0  0  0  0  0
  189.7960  170.6800  136.3030 C   0  0  0  0  0  3  0  0  0  0  0  0
  189.3350  171.9720  138.7300 C   0  0  0  0  0  0  0  0  0  0  0  0
  188.5320  174.1670  137.8300 S   0  0  0  0  0  0  0  0  0  0  0  0
  190.0450  170.0160  137.5190 C   0  0  0  0  0  3  0  0  0  0  0  0
  189.0930  172.6150  137.5250 C   0  0  0  0  0  0  0  0  0  0  0  0
  188.6260  173.9390  139.5050 C   0  0  0  0  0  0  0  0  0  0  0  0
  189.0780  172.7060  139.8400 N   0  0  0  0  0  0  0  0  0  0  0  0
  189.8160  170.6630  138.7470 C   0  0  0  0  0  3  0  0  0  0  0  0
  189.3140  171.9990  136.2980 C   0  0  0  0  0  3  0  0  0  0  0  0
  190.0940  177.4350  142.7440 N   0  0  0  0  0  2  0  0  0  0  0  0
  191.0840  176.4050  143.0160 C   0  0  0  0  0  2  0  0  0  0  0  0
  192.4710  175.6860  144.8640 C   0  0  2  0  0  3  0  0  0  0  0  0
  193.3520  176.3490  143.8930 N   0  0  0  0  0  2  0  0  0  0  0  0
  191.9950  176.8560  144.1380 C   0  0  1  0  0  3  0  0  0  0  0  0
  192.8820  176.0870  146.2670 C   0  0  0  0  0  2  0  0  0  0  0  0
  192.1110  175.2780  147.2970 C   0  0  0  0  0  2  0  0  0  0  0  0
  190.4500  176.9740  147.5270 O   0  0  0  0  0  1  0  0  0  0  0  0
  189.6550  174.8370  147.2940 O   0  0  0  0  0  0  0  0  0  0  0  0
  190.6990  175.7470  147.3900 C   0  0  0  0  0  0  0  0  0  0  0  0
  1  9  1  0  0  0  0
  2  7  2  0  0  0  0
  2  4  1  0  0  0  0
  3 11  2  0  0  0  0
  4  6  1  0  0  0  0
  5 10  1  0  0  0  0
  6  8  1  0  0  0  0
  6  1  2  0  0  0  0
  7  3  1  0  0  0  0
  8  5  2  0  0  0  0
  9 10  2  0  0  0  0
 11  8  1  0  0  0  0
 12 13  3  0  0  0  0
 13  7  1  0  0  0  0
 14 17  1  0  0  0  0
 15 21  1  0  0  0  0
 15 20  1  0  0  0  0
 16 19  1  0  0  0  0
 17 21  2  0  0  0  0
 18 16  1  0  0  0  0
 18 15  2  0  0  0  0
 19 20  2  0  0  0  0
 19 12  1  0  0  0  0
 22 14  2  0  0  0  0
 22 18  1  0  0  0  0
 23 24  1  0  0  0  0
 23  3  1  0  0  0  0
 25 28  1  1  0  0  0
 26 27  1  0  0  0  0
 26 25  1  0  0  0  0
 27 24  1  6  0  0  0
 27 25  1  0  0  0  0
 28 29  1  0  0  0  0
 29 32  1  0  0  0  0
 31 32  2  0  0  0  0
 32 30  1  0  0  0  0
M  END
>  <MODEL>
2

>  <REMARK>
 VINA RESULT:      -7.0      3.669      8.682
  Name = 
  8 active torsions:
  status: ('A' for Active; 'I' for Inactive)
    1  A    between atoms: C_7  and  C_19
    2  A    between atoms: C_7  and  C_23
    3  A    between atoms: C_8  and  C_21
    4  A    between atoms: C_9  and  N_17
    5  A    between atoms: C_13  and  C_18
    6  A    between atoms: N_17  and  C_27
    7  A    between atoms: C_23  and  C_30
    8  A    between atoms: C_27  and  C_29
                            x       y       z     vdW  Elec       q    Type
                         _______ _______ _______ _____ _____    ______ ____

>  <TORSDO>
F 8

$$$$
=
 OpenBabel11042419343D

 32 36  0  0  1  0  0  0  0  0999 V2000
  184.7250  177.9400  145.2060 N   0  0  0  0  0  0  0  0  0  0  0  0
  186.3060  177.3970  142.1470 C   0  0  0  0  0  3  0  0  0  0  0  0
  188.6190  177.4320  143.0780 C   0  0  0  0  0  0  0  0  0  0  0  0
  185.8250  178.4610  143.0710 C   0  0  0  0  0  2  0  0  0  0  0  0
  187.0980  177.2720  146.4390 C   0  0  0  0  0  3  0  0  0  0  0  0
  185.8770  177.9780  144.4820 C   0  0  0  0  0  0  0  0  0  0  0  0
  187.5600  176.9410  142.1450 C   0  0  0  0  0  0  0  0  0  0  0  0
  187.0990  177.6240  145.0870 C   0  0  0  0  0  0  0  0  0  0  0  0
  184.7130  177.5740  146.5140 C   0  0  0  0  0  3  0  0  0  0  0  0
  185.9030  177.2370  147.1580 C   0  0  0  0  0  3  0  0  0  0  0  0
  188.3940  177.6630  144.3800 C   0  0  0  0  0  3  0  0  0  0  0  0
  188.1800  175.0380  140.4170 C   0  0  0  0  0  0  0  0  0  0  0  0
  187.8870  175.9100  141.1970 C   0  0  0  0  0  0  0  0  0  0  0  0
  189.8890  170.6380  136.4760 C   0  0  0  0  0  3  0  0  0  0  0  0
  189.3320  172.0200  138.8320 C   0  0  0  0  0  0  0  0  0  0  0  0
  188.4940  174.1500  137.8170 S   0  0  0  0  0  0  0  0  0  0  0  0
  190.1240  170.0340  137.7270 C   0  0  0  0  0  3  0  0  0  0  0  0
  189.1040  172.6040  137.5950 C   0  0  0  0  0  0  0  0  0  0  0  0
  188.5500  173.9980  139.5020 C   0  0  0  0  0  0  0  0  0  0  0  0
  189.0260  172.7950  139.9030 N   0  0  0  0  0  0  0  0  0  0  0  0
  189.8460  170.7270  138.9180 C   0  0  0  0  0  3  0  0  0  0  0  0
  189.3720  171.9410  136.4010 C   0  0  0  0  0  3  0  0  0  0  0  0
  189.9770  177.5370  142.6360 N   0  0  0  0  0  2  0  0  0  0  0  0
  191.1200  177.4500  143.5310 C   0  0  0  0  0  2  0  0  0  0  0  0
  191.3890  175.3770  142.3130 C   0  0  2  0  0  3  0  0  0  0  0  0
  192.7340  175.8380  142.6850 N   0  0  0  0  0  2  0  0  0  0  0  0
  191.6010  176.0160  143.6050 C   0  0  1  0  0  3  0  0  0  0  0  0
  191.3090  173.8730  142.4940 C   0  0  0  0  0  2  0  0  0  0  0  0
  190.0870  173.5030  143.3190 C   0  0  0  0  0  2  0  0  0  0  0  0
  191.6430  172.1720  144.5410 O   0  0  0  0  0  0  0  0  0  0  0  0
  189.4540  171.9830  145.1930 O   0  0  0  0  0  1  0  0  0  0  0  0
  190.4420  172.5110  144.3740 C   0  0  0  0  0  0  0  0  0  0  0  0
  1  9  1  0  0  0  0
  2  4  1  0  0  0  0
  3 11  2  0  0  0  0
  4  6  1  0  0  0  0
  5 10  1  0  0  0  0
  6  8  1  0  0  0  0
  6  1  2  0  0  0  0
  7  2  2  0  0  0  0
  7  3  1  0  0  0  0
  8  5  2  0  0  0  0
  9 10  2  0  0  0  0
 11  8  1  0  0  0  0
 12 13  3  0  0  0  0
 13  7  1  0  0  0  0
 14 17  1  0  0  0  0
 15 21  1  0  0  0  0
 15 20  1  0  0  0  0
 16 19  1  0  0  0  0
 17 21  2  0  0  0  0
 18 16  1  0  0  0  0
 18 15  2  0  0  0  0
 19 20  2  0  0  0  0
 19 12  1  0  0  0  0
 22 14  2  0  0  0  0
 22 18  1  0  0  0  0
 23  3  1  0  0  0  0
 23 24  1  0  0  0  0
 25 28  1  1  0  0  0
 25 26  1  0  0  0  0
 25 27  1  0  0  0  0
 26 27  1  0  0  0  0
 27 24  1  6  0  0  0
 28 29  1  0  0  0  0
 29 32  1  0  0  0  0
 32 30  2  0  0  0  0
 32 31  1  0  0  0  0
M  END
>  <MODEL>
3

>  <REMARK>
 VINA RESULT:      -7.0      3.640      8.521
  Name = 
  8 active torsions:
  status: ('A' for Active; 'I' for Inactive)
    1  A    between atoms: C_7  and  C_19
    2  A    between atoms: C_7  and  C_23
    3  A    between atoms: C_8  and  C_21
    4  A    between atoms: C_9  and  N_17
    5  A    between atoms: C_13  and  C_18
    6  A    between atoms: N_17  and  C_27
    7  A    between atoms: C_23  and  C_30
    8  A    between atoms: C_27  and  C_29
                            x       y       z     vdW  Elec       q    Type
                         _______ _______ _______ _____ _____    ______ ____

>  <TORSDO>
F 8

$$$$
=
 OpenBabel11042419343D

 32 36  0  0  1  0  0  0  0  0999 V2000
  196.3910  174.5330  145.8240 N   0  0  0  0  0  0  0  0  0  0  0  0
  193.6770  176.5320  144.9380 C   0  0  0  0  0  3  0  0  0  0  0  0
  192.9090  175.0610  143.0780 C   0  0  0  0  0  0  0  0  0  0  0  0
  195.1180  176.2810  144.6580 C   0  0  0  0  0  2  0  0  0  0  0  0
  195.2550  172.5040  144.3430 C   0  0  0  0  0  3  0  0  0  0  0  0
  195.4450  174.8450  144.8970 C   0  0  0  0  0  0  0  0  0  0  0  0
  192.6870  175.9910  144.2260 C   0  0  0  0  0  0  0  0  0  0  0  0
  194.8380  173.8230  144.1410 C   0  0  0  0  0  0  0  0  0  0  0  0
  196.7840  173.2500  146.0430 C   0  0  0  0  0  3  0  0  0  0  0  0
  196.2250  172.2110  145.3010 C   0  0  0  0  0  3  0  0  0  0  0  0
  193.8230  174.0790  143.1000 C   0  0  0  0  0  3  0  0  0  0  0  0
  190.2040  176.5930  144.9060 C   0  0  0  0  0  0  0  0  0  0  0  0
  191.3400  176.3210  144.6080 C   0  0  0  0  0  0  0  0  0  0  0  0
  184.4260  178.0580  146.4180 C   0  0  0  0  0  3  0  0  0  0  0  0
  186.8970  177.9930  145.1280 C   0  0  0  0  0  0  0  0  0  0  0  0
  187.9760  176.1940  146.4940 S   0  0  0  0  0  0  0  0  0  0  0  0
  184.6860  178.9220  145.3360 C   0  0  0  0  0  3  0  0  0  0  0  0
  186.6290  177.1470  146.1940 C   0  0  0  0  0  0  0  0  0  0  0  0
  188.8460  176.9160  145.2340 C   0  0  0  0  0  0  0  0  0  0  0  0
  188.1350  177.8710  144.5880 N   0  0  0  0  0  0  0  0  0  0  0  0
  185.9300  178.8950  144.6830 C   0  0  0  0  0  3  0  0  0  0  0  0
  185.4070  177.1550  146.8590 C   0  0  0  0  0  3  0  0  0  0  0  0
  192.0350  175.0930  141.9440 N   0  0  0  0  0  2  0  0  0  0  0  0
  191.9920  174.0470  140.9350 C   0  0  0  0  0  2  0  0  0  0  0  0
  189.7670  174.0100  141.8840 C   0  0  2  0  0  3  0  0  0  0  0  0
  189.6150  173.9690  140.4230 N   0  0  0  0  0  2  0  0  0  0  0  0
  190.7140  173.2480  141.0810 C   0  0  1  0  0  3  0  0  0  0  0  0
  188.7610  173.0690  142.5170 C   0  0  0  0  0  2  0  0  0  0  0  0
  189.4730  171.9240  143.2190 C   0  0  0  0  0  2  0  0  0  0  0  0
  189.6220  173.1120  145.2810 O   0  0  0  0  0  1  0  0  0  0  0  0
  191.5510  172.0850  144.5900 O   0  0  0  0  0  0  0  0  0  0  0  0
  190.2150  172.4170  144.4150 C   0  0  0  0  0  0  0  0  0  0  0  0
  1  9  1  0  0  0  0
  3 11  2  0  0  0  0
  3  7  1  0  0  0  0
  4  6  1  0  0  0  0
  4  2  1  0  0  0  0
  5 10  1  0  0  0  0
  6  1  2  0  0  0  0
  7 13  1  0  0  0  0
  7  2  2  0  0  0  0
  8  5  2  0  0  0  0
  8  6  1  0  0  0  0
 10  9  2  0  0  0  0
 11  8  1  0  0  0  0
 12 19  1  0  0  0  0
 13 12  3  0  0  0  0
 14 22  1  0  0  0  0
 15 18  1  0  0  0  0
 17 14  2  0  0  0  0
 18 16  1  0  0  0  0
 18 22  2  0  0  0  0
 19 16  1  0  0  0  0
 20 15  1  0  0  0  0
 20 19  2  0  0  0  0
 21 15  2  0  0  0  0
 21 17  1  0  0  0  0
 23  3  1  0  0  0  0
 24 23  1  0  0  0  0
 25 28  1  1  0  0  0
 26 27  1  0  0  0  0
 26 25  1  0  0  0  0
 27 24  1  6  0  0  0
 27 25  1  0  0  0  0
 28 29  1  0  0  0  0
 29 32  1  0  0  0  0
 32 31  2  0  0  0  0
 32 30  1  0  0  0  0
M  END
>  <MODEL>
4

>  <REMARK>
 VINA RESULT:      -6.9      2.161      2.695
  Name = 
  8 active torsions:
  status: ('A' for Active; 'I' for Inactive)
    1  A    between atoms: C_7  and  C_19
    2  A    between atoms: C_7  and  C_23
    3  A    between atoms: C_8  and  C_21
    4  A    between atoms: C_9  and  N_17
    5  A    between atoms: C_13  and  C_18
    6  A    between atoms: N_17  and  C_27
    7  A    between atoms: C_23  and  C_30
    8  A    between atoms: C_27  and  C_29
                            x       y       z     vdW  Elec       q    Type
                         _______ _______ _______ _____ _____    ______ ____

>  <TORSDO>
F 8

$$$$
=
 OpenBabel11042419343D

 32 36  0  0  1  0  0  0  0  0999 V2000
  184.6300  178.2080  144.8570 N   0  0  0  0  0  0  0  0  0  0  0  0
  186.5570  177.4400  142.0560 C   0  0  0  0  0  3  0  0  0  0  0  0
  188.7360  177.4680  143.2660 C   0  0  0  0  0  0  0  0  0  0  0  0
  186.0020  178.5700  142.8510 C   0  0  0  0  0  2  0  0  0  0  0  0
  186.8070  177.5510  146.4140 C   0  0  0  0  0  3  0  0  0  0  0  0
  185.8630  178.1720  144.2820 C   0  0  0  0  0  0  0  0  0  0  0  0
  187.7850  176.9500  142.2370 C   0  0  0  0  0  0  0  0  0  0  0  0
  186.9870  177.8210  145.0550 C   0  0  0  0  0  0  0  0  0  0  0  0
  184.4430  177.9220  146.1720 C   0  0  0  0  0  3  0  0  0  0  0  0
  185.5320  177.5930  146.9780 C   0  0  0  0  0  3  0  0  0  0  0  0
  188.3610  177.7820  144.5150 C   0  0  0  0  0  3  0  0  0  0  0  0
  188.5200  174.9220  140.7080 C   0  0  0  0  0  0  0  0  0  0  0  0
  188.1910  175.8550  141.3970 C   0  0  0  0  0  0  0  0  0  0  0  0
  190.0350  170.0370  137.2940 C   0  0  0  0  0  3  0  0  0  0  0  0
  189.2480  172.6000  138.0580 C   0  0  0  0  0  0  0  0  0  0  0  0
  189.3820  172.3000  140.5400 S   0  0  0  0  0  0  0  0  0  0  0  0
  189.7160  171.0020  136.3190 C   0  0  0  0  0  3  0  0  0  0  0  0
  189.5650  171.6410  139.0080 C   0  0  0  0  0  0  0  0  0  0  0  0
  188.9020  173.7950  139.9080 C   0  0  0  0  0  0  0  0  0  0  0  0
  188.8740  173.8060  138.5530 N   0  0  0  0  0  0  0  0  0  0  0  0
  189.3170  172.2960  136.6980 C   0  0  0  0  0  3  0  0  0  0  0  0
  189.9610  170.3540  138.6600 C   0  0  0  0  0  3  0  0  0  0  0  0
  190.1420  177.5090  142.9930 N   0  0  0  0  0  2  0  0  0  0  0  0
  191.1150  178.1120  143.8890 C   0  0  0  0  0  2  0  0  0  0  0  0
  191.7480  176.4530  145.5330 C   0  0  2  0  0  3  0  0  0  0  0  0
  191.5420  175.7470  144.2620 N   0  0  0  0  0  2  0  0  0  0  0  0
  192.1530  177.0830  144.2830 C   0  0  1  0  0  3  0  0  0  0  0  0
  192.9630  175.8780  146.2330 C   0  0  0  0  0  2  0  0  0  0  0  0
  194.2000  176.7030  145.9140 C   0  0  0  0  0  2  0  0  0  0  0  0
  195.6240  174.7970  146.0650 O   0  0  0  0  0  1  0  0  0  0  0  0
  195.9630  176.1430  144.2400 O   0  0  0  0  0  0  0  0  0  0  0  0
  195.3050  175.8320  145.4220 C   0  0  0  0  0  0  0  0  0  0  0  0
  1  9  1  0  0  0  0
  2  7  2  0  0  0  0
  2  4  1  0  0  0  0
  3 11  2  0  0  0  0
  4  6  1  0  0  0  0
  5 10  1  0  0  0  0
  6  1  2  0  0  0  0
  6  8  1  0  0  0  0
  7  3  1  0  0  0  0
  8  5  2  0  0  0  0
  9 10  2  0  0  0  0
 11  8  1  0  0  0  0
 12 13  3  0  0  0  0
 13  7  1  0  0  0  0
 14 22  1  0  0  0  0
 15 20  1  0  0  0  0
 15 18  1  0  0  0  0
 17 21  1  0  0  0  0
 17 14  2  0  0  0  0
 18 16  1  0  0  0  0
 19 16  1  0  0  0  0
 19 12  1  0  0  0  0
 20 19  2  0  0  0  0
 21 15  2  0  0  0  0
 22 18  2  0  0  0  0
 23  3  1  0  0  0  0
 23 24  1  0  0  0  0
 25 28  1  1  0  0  0
 26 27  1  0  0  0  0
 26 25  1  0  0  0  0
 27 24  1  6  0  0  0
 27 25  1  0  0  0  0
 29 28  1  0  0  0  0
 31 32  2  0  0  0  0
 32 29  1  0  0  0  0
 32 30  1  0  0  0  0
M  END
>  <MODEL>
5

>  <REMARK>
 VINA RESULT:      -6.7      4.041      8.955
  Name = 
  8 active torsions:
  status: ('A' for Active; 'I' for Inactive)
    1  A    between atoms: C_7  and  C_19
    2  A    between atoms: C_7  and  C_23
    3  A    between atoms: C_8  and  C_21
    4  A    between atoms: C_9  and  N_17
    5  A    between atoms: C_13  and  C_18
    6  A    between atoms: N_17  and  C_27
    7  A    between atoms: C_23  and  C_30
    8  A    between atoms: C_27  and  C_29
                            x       y       z     vdW  Elec       q    Type
                         _______ _______ _______ _____ _____    ______ ____

>  <TORSDO>
F 8

$$$$
=
 OpenBabel11042419343D

 32 36  0  0  1  0  0  0  0  0999 V2000
  186.5050  178.0600  147.7170 N   0  0  0  0  0  0  0  0  0  0  0  0
  189.0900  176.0790  146.4750 C   0  0  0  0  0  3  0  0  0  0  0  0
  188.1950  175.9700  144.1500 C   0  0  0  0  0  0  0  0  0  0  0  0
  187.7360  176.0280  147.0910 C   0  0  0  0  0  2  0  0  0  0  0  0
  185.8220  178.6320  145.1080 C   0  0  0  0  0  3  0  0  0  0  0  0
  186.9570  177.2460  146.7240 C   0  0  0  0  0  0  0  0  0  0  0  0
  189.2970  176.0460  145.1570 C   0  0  0  0  0  0  0  0  0  0  0  0
  186.6350  177.5300  145.3820 C   0  0  0  0  0  0  0  0  0  0  0  0
  185.7350  179.1490  147.4560 C   0  0  0  0  0  3  0  0  0  0  0  0
  185.3740  179.4520  146.1440 C   0  0  0  0  0  3  0  0  0  0  0  0
  187.0640  176.6840  144.2500 C   0  0  0  0  0  3  0  0  0  0  0  0
  191.7980  176.1310  144.3030 C   0  0  0  0  0  0  0  0  0  0  0  0
  190.6590  176.1040  144.6990 C   0  0  0  0  0  0  0  0  0  0  0  0
  197.6000  176.0310  142.2690 C   0  0  0  0  0  3  0  0  0  0  0  0
  194.8140  176.0970  142.3420 C   0  0  0  0  0  0  0  0  0  0  0  0
  194.5130  176.1150  144.8270 S   0  0  0  0  0  0  0  0  0  0  0  0
  196.8590  176.0410  141.0720 C   0  0  0  0  0  3  0  0  0  0  0  0
  195.5560  176.0870  143.5140 C   0  0  0  0  0  0  0  0  0  0  0  0
  193.1490  176.1400  143.8240 C   0  0  0  0  0  0  0  0  0  0  0  0
  193.4690  176.1240  142.5080 N   0  0  0  0  0  0  0  0  0  0  0  0
  195.4530  176.0730  141.1020 C   0  0  0  0  0  3  0  0  0  0  0  0
  196.9460  176.0540  143.5120 C   0  0  0  0  0  3  0  0  0  0  0  0
  188.3740  175.2260  142.9400 N   0  0  0  0  0  2  0  0  0  0  0  0
  188.5680  175.8450  141.6390 C   0  0  0  0  0  2  0  0  0  0  0  0
  187.1750  177.4090  140.4270 C   0  0  2  0  0  3  0  0  0  0  0  0
  187.4330  176.2730  139.5310 N   0  0  0  0  0  2  0  0  0  0  0  0
  187.2270  176.0570  140.9700 C   0  0  1  0  0  3  0  0  0  0  0  0
  185.7310  177.8450  140.2790 C   0  0  0  0  0  2  0  0  0  0  0  0
  185.1970  178.3740  141.6010 C   0  0  0  0  0  2  0  0  0  0  0  0
  183.0980  178.4680  142.7280 O   0  0  0  0  0  1  0  0  0  0  0  0
  182.9940  178.0490  140.4770 O   0  0  0  0  0  0  0  0  0  0  0  0
  183.7090  178.2910  141.6420 C   0  0  0  0  0  0  0  0  0  0  0  0
  2  4  1  0  0  0  0
  3 11  2  0  0  0  0
  3  7  1  0  0  0  0
  5  8  2  0  0  0  0
  5 10  1  0  0  0  0
  6  4  1  0  0  0  0
  6  1  2  0  0  0  0
  7  2  2  0  0  0  0
  8  6  1  0  0  0  0
  9  1  1  0  0  0  0
 10  9  2  0  0  0  0
 11  8  1  0  0  0  0
 12 13  3  0  0  0  0
 13  7  1  0  0  0  0
 14 22  1  0  0  0  0
 15 20  1  0  0  0  0
 15 18  1  0  0  0  0
 17 21  1  0  0  0  0
 17 14  2  0  0  0  0
 18 16  1  0  0  0  0
 19 12  1  0  0  0  0
 19 16  1  0  0  0  0
 20 19  2  0  0  0  0
 21 15  2  0  0  0  0
 22 18  2  0  0  0  0
 23  3  1  0  0  0  0
 24 23  1  0  0  0  0
 25 28  1  6  0  0  0
 25 27  1  0  0  0  0
 26 25  1  0  0  0  0
 26 27  1  0  0  0  0
 27 24  1  1  0  0  0
 28 29  1  0  0  0  0
 29 32  1  0  0  0  0
 31 32  2  0  0  0  0
 32 30  1  0  0  0  0
M  END
>  <MODEL>
6

>  <REMARK>
 VINA RESULT:      -6.6      2.617      7.777
  Name = 
  8 active torsions:
  status: ('A' for Active; 'I' for Inactive)
    1  A    between atoms: C_7  and  C_19
    2  A    between atoms: C_7  and  C_23
    3  A    between atoms: C_8  and  C_21
    4  A    between atoms: C_9  and  N_17
    5  A    between atoms: C_13  and  C_18
    6  A    between atoms: N_17  and  C_27
    7  A    between atoms: C_23  and  C_30
    8  A    between atoms: C_27  and  C_29
                            x       y       z     vdW  Elec       q    Type
                         _______ _______ _______ _____ _____    ______ ____

>  <TORSDO>
F 8

$$$$
=
 OpenBabel11042419343D

 32 36  0  0  1  0  0  0  0  0999 V2000
  186.6380  177.9010  147.5450 N   0  0  0  0  0  0  0  0  0  0  0  0
  189.1800  175.9470  146.1770 C   0  0  0  0  0  3  0  0  0  0  0  0
  188.3050  176.0380  143.8440 C   0  0  0  0  0  0  0  0  0  0  0  0
  187.8180  175.8870  146.7770 C   0  0  0  0  0  2  0  0  0  0  0  0
  185.9970  178.6870  144.9820 C   0  0  0  0  0  3  0  0  0  0  0  0
  187.0780  177.1510  146.4970 C   0  0  0  0  0  0  0  0  0  0  0  0
  189.3980  176.0070  144.8620 C   0  0  0  0  0  0  0  0  0  0  0  0
  186.7770  177.5440  145.1780 C   0  0  0  0  0  0  0  0  0  0  0  0
  185.9010  179.0270  147.3610 C   0  0  0  0  0  3  0  0  0  0  0  0
  185.5620  179.4390  146.0730 C   0  0  0  0  0  3  0  0  0  0  0  0
  187.1940  176.7750  143.9890 C   0  0  0  0  0  3  0  0  0  0  0  0
  191.9170  176.0830  144.0600 C   0  0  0  0  0  0  0  0  0  0  0  0
  190.7670  176.0610  144.4210 C   0  0  0  0  0  0  0  0  0  0  0  0
  197.8140  175.9720  142.3200 C   0  0  0  0  0  3  0  0  0  0  0  0
  195.0290  175.8510  142.2690 C   0  0  0  0  0  0  0  0  0  0  0  0
  194.5950  176.3740  144.6790 S   0  0  0  0  0  0  0  0  0  0  0  0
  197.1380  175.6750  141.1210 C   0  0  0  0  0  3  0  0  0  0  0  0
  195.7060  176.1430  143.4440 C   0  0  0  0  0  0  0  0  0  0  0  0
  193.2890  176.0860  143.6420 C   0  0  0  0  0  0  0  0  0  0  0  0
  193.6780  175.8150  142.3730 N   0  0  0  0  0  0  0  0  0  0  0  0
  195.7340  175.6100  141.0890 C   0  0  0  0  0  3  0  0  0  0  0  0
  197.0950  176.2100  143.5020 C   0  0  0  0  0  3  0  0  0  0  0  0
  188.4760  175.3820  142.5830 N   0  0  0  0  0  2  0  0  0  0  0  0
  188.3850  173.9410  142.4100 C   0  0  0  0  0  2  0  0  0  0  0  0
  190.2210  172.5460  143.1440 C   0  0  2  0  0  3  0  0  0  0  0  0
  189.6560  171.9210  141.9400 N   0  0  0  0  0  2  0  0  0  0  0  0
  189.7460  173.3830  142.0500 C   0  0  1  0  0  3  0  0  0  0  0  0
  191.7330  172.4500  143.0940 C   0  0  0  0  0  2  0  0  0  0  0  0
  192.2880  172.0960  144.4650 C   0  0  0  0  0  2  0  0  0  0  0  0
  194.1070  172.9570  145.7430 O   0  0  0  0  0  1  0  0  0  0  0  0
  194.5330  172.6270  143.5150 O   0  0  0  0  0  0  0  0  0  0  0  0
  193.6850  172.5930  144.6140 C   0  0  0  0  0  0  0  0  0  0  0  0
  2  4  1  0  0  0  0
  3 11  2  0  0  0  0
  3  7  1  0  0  0  0
  5  8  2  0  0  0  0
  5 10  1  0  0  0  0
  6  4  1  0  0  0  0
  6  1  2  0  0  0  0
  7  2  2  0  0  0  0
  8  6  1  0  0  0  0
  9  1  1  0  0  0  0
 10  9  2  0  0  0  0
 11  8  1  0  0  0  0
 12 13  3  0  0  0  0
 13  7  1  0  0  0  0
 14 22  1  0  0  0  0
 15 20  1  0  0  0  0
 15 18  1  0  0  0  0
 17 14  2  0  0  0  0
 18 22  2  0  0  0  0
 18 16  1  0  0  0  0
 19 12  1  0  0  0  0
 19 16  1  0  0  0  0
 20 19  2  0  0  0  0
 21 17  1  0  0  0  0
 21 15  2  0  0  0  0
 23  3  1  0  0  0  0
 24 23  1  0  0  0  0
 25 28  1  6  0  0  0
 26 27  1  0  0  0  0
 26 25  1  0  0  0  0
 27 24  1  1  0  0  0
 27 25  1  0  0  0  0
 28 29  1  0  0  0  0
 29 32  1  0  0  0  0
 31 32  2  0  0  0  0
 32 30  1  0  0  0  0
M  END
>  <MODEL>
7

>  <REMARK>
 VINA RESULT:      -6.5      3.363      8.337
  Name = 
  8 active torsions:
  status: ('A' for Active; 'I' for Inactive)
    1  A    between atoms: C_7  and  C_19
    2  A    between atoms: C_7  and  C_23
    3  A    between atoms: C_8  and  C_21
    4  A    between atoms: C_9  and  N_17
    5  A    between atoms: C_13  and  C_18
    6  A    between atoms: N_17  and  C_27
    7  A    between atoms: C_23  and  C_30
    8  A    between atoms: C_27  and  C_29
                            x       y       z     vdW  Elec       q    Type
                         _______ _______ _______ _____ _____    ______ ____

>  <TORSDO>
F 8

$$$$
=
 OpenBabel11042419343D

 32 36  0  0  1  0  0  0  0  0999 V2000
  184.2880  178.9120  144.6090 N   0  0  0  0  0  0  0  0  0  0  0  0
  186.7890  177.8080  142.4470 C   0  0  0  0  0  3  0  0  0  0  0  0
  188.5130  177.5190  144.2250 C   0  0  0  0  0  0  0  0  0  0  0  0
  186.2120  179.0240  143.0850 C   0  0  0  0  0  2  0  0  0  0  0  0
  185.8070  177.9530  146.7000 C   0  0  0  0  0  3  0  0  0  0  0  0
  185.6130  178.6760  144.4060 C   0  0  0  0  0  0  0  0  0  0  0  0
  187.8250  177.1380  142.9550 C   0  0  0  0  0  0  0  0  0  0  0  0
  186.4040  178.1690  145.4550 C   0  0  0  0  0  0  0  0  0  0  0  0
  183.6940  178.6810  145.8100 C   0  0  0  0  0  3  0  0  0  0  0  0
  184.4460  178.2010  146.8810 C   0  0  0  0  0  3  0  0  0  0  0  0
  187.8520  177.9090  145.3250 C   0  0  0  0  0  3  0  0  0  0  0  0
  188.6390  174.9990  141.6300 C   0  0  0  0  0  0  0  0  0  0  0  0
  188.2800  175.9790  142.2340 C   0  0  0  0  0  0  0  0  0  0  0  0
  190.4670  170.0270  138.5070 C   0  0  0  0  0  3  0  0  0  0  0  0
  190.0750  171.8810  140.5520 C   0  0  0  0  0  0  0  0  0  0  0  0
  188.6510  173.5140  139.2970 S   0  0  0  0  0  0  0  0  0  0  0  0
  191.0430  169.8180  139.7750 C   0  0  0  0  0  3  0  0  0  0  0  0
  189.5130  172.0750  139.2990 C   0  0  0  0  0  0  0  0  0  0  0  0
  189.0420  173.8230  140.9160 C   0  0  0  0  0  0  0  0  0  0  0  0
  189.8180  172.8550  141.4600 N   0  0  0  0  0  0  0  0  0  0  0  0
  190.8500  170.7500  140.8100 C   0  0  0  0  0  3  0  0  0  0  0  0
  189.6900  171.1700  138.2580 C   0  0  0  0  0  3  0  0  0  0  0  0
  189.9270  177.3370  144.3620 N   0  0  0  0  0  2  0  0  0  0  0  0
  190.5540  176.7930  145.5560 C   0  0  0  0  0  2  0  0  0  0  0  0
  191.9880  174.9420  146.1680 C   0  0  2  0  0  3  0  0  0  0  0  0
  191.3600  174.5980  144.8840 N   0  0  0  0  0  2  0  0  0  0  0  0
  191.7710  175.9800  145.1680 C   0  0  1  0  0  3  0  0  0  0  0  0
  193.4400  174.5070  146.1450 C   0  0  0  0  0  2  0  0  0  0  0  0
  194.3550  175.7170  146.0450 C   0  0  0  0  0  2  0  0  0  0  0  0
  196.3530  174.5480  145.4710 O   0  0  0  0  0  1  0  0  0  0  0  0
  195.6530  176.1150  143.9520 O   0  0  0  0  0  0  0  0  0  0  0  0
  195.5140  175.4310  145.1510 C   0  0  0  0  0  0  0  0  0  0  0  0
  1  9  1  0  0  0  0
  2  7  2  0  0  0  0
  2  4  1  0  0  0  0
  3 23  1  0  0  0  0
  3 11  2  0  0  0  0
  4  6  1  0  0  0  0
  5 10  1  0  0  0  0
  6  1  2  0  0  0  0
  6  8  1  0  0  0  0
  7  3  1  0  0  0  0
  8  5  2  0  0  0  0
  9 10  2  0  0  0  0
 11  8  1  0  0  0  0
 12 13  3  0  0  0  0
 13  7  1  0  0  0  0
 14 17  1  0  0  0  0
 15 21  1  0  0  0  0
 15 20  1  0  0  0  0
 16 18  1  0  0  0  0
 16 19  1  0  0  0  0
 17 21  2  0  0  0  0
 18 15  2  0  0  0  0
 19 20  2  0  0  0  0
 19 12  1  0  0  0  0
 22 14  2  0  0  0  0
 22 18  1  0  0  0  0
 23 24  1  0  0  0  0
 25 28  1  6  0  0  0
 26 27  1  0  0  0  0
 26 25  1  0  0  0  0
 27 24  1  1  0  0  0
 27 25  1  0  0  0  0
 29 28  1  0  0  0  0
 31 32  2  0  0  0  0
 32 30  1  0  0  0  0
 32 29  1  0  0  0  0
M  END
>  <MODEL>
8

>  <REMARK>
 VINA RESULT:      -6.5      3.752      8.976
  Name = 
  8 active torsions:
  status: ('A' for Active; 'I' for Inactive)
    1  A    between atoms: C_7  and  C_19
    2  A    between atoms: C_7  and  C_23
    3  A    between atoms: C_8  and  C_21
    4  A    between atoms: C_9  and  N_17
    5  A    between atoms: C_13  and  C_18
    6  A    between atoms: N_17  and  C_27
    7  A    between atoms: C_23  and  C_30
    8  A    between atoms: C_27  and  C_29
                            x       y       z     vdW  Elec       q    Type
                         _______ _______ _______ _____ _____    ______ ____

>  <TORSDO>
F 8

$$$$
=
 OpenBabel11042419343D

 32 36  0  0  1  0  0  0  0  0999 V2000
  190.7580  174.0310  136.6010 N   0  0  0  0  0  0  0  0  0  0  0  0
  188.4960  173.9430  139.2520 C   0  0  0  0  0  3  0  0  0  0  0  0
  190.2070  173.4340  140.9920 C   0  0  0  0  0  0  0  0  0  0  0  0
  189.1660  173.0990  138.2230 C   0  0  0  0  0  2  0  0  0  0  0  0
  192.7820  174.2120  138.4630 C   0  0  0  0  0  3  0  0  0  0  0  0
  190.5040  173.6640  137.8870 C   0  0  0  0  0  0  0  0  0  0  0  0
  188.9590  174.0870  140.4950 C   0  0  0  0  0  0  0  0  0  0  0  0
  191.5190  173.7650  138.8590 C   0  0  0  0  0  0  0  0  0  0  0  0
  191.9770  174.4910  136.2140 C   0  0  0  0  0  3  0  0  0  0  0  0
  193.0150  174.5850  137.1390 C   0  0  0  0  0  3  0  0  0  0  0  0
  191.3340  173.3650  140.2680 C   0  0  0  0  0  3  0  0  0  0  0  0
  187.5640  175.6290  142.1280 C   0  0  0  0  0  0  0  0  0  0  0  0
  188.2110  174.9340  141.3850 C   0  0  0  0  0  0  0  0  0  0  0  0
  184.0660  179.0390  145.8630 C   0  0  0  0  0  3  0  0  0  0  0  0
  185.8980  177.1580  144.9270 C   0  0  0  0  0  0  0  0  0  0  0  0
  185.7240  177.6620  142.4810 S   0  0  0  0  0  0  0  0  0  0  0  0
  184.7350  178.1900  146.7650 C   0  0  0  0  0  3  0  0  0  0  0  0
  185.2330  178.0010  144.0490 C   0  0  0  0  0  0  0  0  0  0  0  0
  186.7740  176.4430  143.0060 C   0  0  0  0  0  0  0  0  0  0  0  0
  186.7590  176.2830  144.3510 N   0  0  0  0  0  0  0  0  0  0  0  0
  185.6590  177.2380  146.2990 C   0  0  0  0  0  3  0  0  0  0  0  0
  184.3130  178.9490  144.4840 C   0  0  0  0  0  3  0  0  0  0  0  0
  190.2910  172.9760  142.3470 N   0  0  0  0  0  2  0  0  0  0  0  0
  191.4300  173.2350  143.2120 C   0  0  0  0  0  2  0  0  0  0  0  0
  189.7360  174.0480  144.7350 C   0  0  2  0  0  3  0  0  0  0  0  0
  189.6920  172.5800  144.7820 N   0  0  0  0  0  2  0  0  0  0  0  0
  190.9750  173.2860  144.6550 C   0  0  1  0  0  3  0  0  0  0  0  0
  189.5640  174.5980  146.1370 C   0  0  0  0  0  2  0  0  0  0  0  0
  189.8340  176.0940  146.1570 C   0  0  0  0  0  2  0  0  0  0  0  0
  191.1820  176.5830  148.0630 O   0  0  0  0  0  1  0  0  0  0  0  0
  192.3070  176.4150  146.0730 O   0  0  0  0  0  0  0  0  0  0  0  0
  191.1370  176.3870  146.8200 C   0  0  0  0  0  0  0  0  0  0  0  0
  1  6  1  0  0  0  0
  2  7  2  0  0  0  0
  3 23  1  0  0  0  0
  4  2  1  0  0  0  0
  5  8  1  0  0  0  0
  6  4  1  0  0  0  0
  6  8  2  0  0  0  0
  7  3  1  0  0  0  0
  7 13  1  0  0  0  0
  8 11  1  0  0  0  0
  9  1  2  0  0  0  0
  9 10  1  0  0  0  0
 10  5  2  0  0  0  0
 11  3  2  0  0  0  0
 12 19  1  0  0  0  0
 13 12  3  0  0  0  0
 14 17  1  0  0  0  0
 15 21  1  0  0  0  0
 16 19  1  0  0  0  0
 16 18  1  0  0  0  0
 18 22  1  0  0  0  0
 18 15  2  0  0  0  0
 19 20  2  0  0  0  0
 20 15  1  0  0  0  0
 21 17  2  0  0  0  0
 22 14  2  0  0  0  0
 23 24  1  0  0  0  0
 25 26  1  0  0  0  0
 25 28  1  1  0  0  0
 27 24  1  6  0  0  0
 27 25  1  0  0  0  0
 27 26  1  0  0  0  0
 28 29  1  0  0  0  0
 29 32  1  0  0  0  0
 31 32  2  0  0  0  0
 32 30  1  0  0  0  0
M  END
>  <MODEL>
9

>  <REMARK>
 VINA RESULT:      -6.4      3.569      5.746
  Name = 
  8 active torsions:
  status: ('A' for Active; 'I' for Inactive)
    1  A    between atoms: C_7  and  C_19
    2  A    between atoms: C_7  and  C_23
    3  A    between atoms: C_8  and  C_21
    4  A    between atoms: C_9  and  N_17
    5  A    between atoms: C_13  and  C_18
    6  A    between atoms: N_17  and  C_27
    7  A    between atoms: C_23  and  C_30
    8  A    between atoms: C_27  and  C_29
                            x       y       z     vdW  Elec       q    Type
                         _______ _______ _______ _____ _____    ______ ____

>  <TORSDO>
F 8

$$$$
