=
 OpenBabel11042418143D

 53 58  0  0  1  0  0  0  0  0999 V2000
  189.9250  174.0560  141.2460 C   0  0  2  0  0  3  0  0  0  0  0  0
  190.3210  173.7010  143.3350 C   0  0  1  0  0  0  0  0  0  0  0  0
  188.4760  172.4940  142.3100 O   0  0  0  0  0  1  0  0  0  0  0  0
  191.5600  173.2740  143.7930 F   0  0  0  0  0  0  0  0  0  0  0  0
  190.4000  174.9180  142.4180 C   0  0  1  0  0  3  0  0  0  0  0  0
  189.8230  172.8480  142.1660 C   0  0  1  0  0  3  0  0  0  0  0  0
  190.9410  173.8510  140.3060 O   0  0  0  0  0  1  0  0  0  0  0  0
  189.3250  173.9250  144.4780 C   0  0  0  0  0  2  0  0  0  0  0  0
  190.0030  173.8020  145.7560 N   0  0  0  0  0  2  0  0  0  0  0  0
  189.2570  174.6040  146.7110 C   0  0  0  0  0  2  0  0  0  0  0  0
  189.6270  176.0810  146.6040 C   0  0  2  0  0  3  0  0  0  0  0  0
  190.5520  176.4720  147.5790 O   0  0  0  0  0  1  0  0  0  0  0  0
  186.2760  177.3240  147.3980 C   0  0  1  0  0  3  0  0  0  0  0  0
  186.5970  178.6630  147.6680 O   0  0  0  0  0  1  0  0  0  0  0  0
  184.2910  178.0360  146.0330 C   0  0  0  0  0  1  0  0  0  0  0  0
  185.5300  177.1600  146.0800 C   0  0  1  0  0  3  0  0  0  0  0  0
  188.4080  177.0120  146.5370 C   0  0  2  0  0  3  0  0  0  0  0  0
  187.4160  176.4960  147.4010 O   0  0  0  0  0  0  0  0  0  0  0  0
  187.8970  177.2830  145.1220 C   0  0  0  0  0  0  0  0  0  0  0  0
  188.5030  177.9820  142.8300 C   0  0  0  0  0  3  0  0  0  0  0  0
  187.4930  177.5240  142.0610 C   0  0  0  0  0  0  0  0  0  0  0  0
  186.4170  177.3990  144.8550 C   0  0  1  0  0  3  0  0  0  0  0  0
  186.0100  176.4620  143.7670 C   0  0  0  0  0  3  0  0  0  0  0  0
  188.7530  177.6370  144.2070 N   0  0  0  0  0  0  0  0  0  0  0  0
  186.4790  176.5530  142.5250 C   0  0  0  0  0  3  0  0  0  0  0  0
  187.4030  177.9190  140.7210 O   0  0  0  0  0  0  0  0  0  0  0  0
  186.4410  177.3930  139.8070 C   0  0  0  0  0  1  0  0  0  0  0  0
  191.7440  175.3670  142.2410 O   0  0  0  0  0  0  0  0  0  0  0  0
  191.9580  177.5930  142.8100 O   0  0  0  0  0  0  0  0  0  0  0  0
  192.2990  176.3940  143.0090 C   0  0  0  0  0  0  0  0  0  0  0  0
  194.3140  175.1650  143.8010 C   0  0  0  0  0  3  0  0  0  0  0  0
  195.1440  175.4780  146.0240 N   0  0  0  0  0  0  0  0  0  0  0  0
  193.2830  176.0760  144.0560 C   0  0  0  0  0  0  0  0  0  0  0  0
  194.1530  176.3700  146.2960 C   0  0  0  0  0  3  0  0  0  0  0  0
  195.2440  174.8770  144.8050 C   0  0  0  0  0  0  0  0  0  0  0  0
  193.2040  176.6840  145.3160 C   0  0  0  0  0  3  0  0  0  0  0  0
  196.5540  173.6990  144.4890 S   0  0  0  0  0  0  0  0  0  0  0  0
  195.4770  171.4330  143.4650 C   0  0  0  0  0  3  0  0  0  0  0  0
  195.3960  172.3340  144.4390 C   0  0  0  0  0  3  0  0  0  0  0  0
  194.6400  169.3100  144.6240 C   0  0  0  0  0  2  0  0  0  0  0  0
  194.5560  170.2580  143.4430 C   0  0  0  0  0  0  0  0  0  0  0  0
  193.4870  170.3070  144.5170 C   0  0  0  0  0  2  0  0  0  0  0  0
  193.1260  170.4130  141.3590 N   0  0  0  0  0  2  0  0  0  0  0  0
  194.5510  168.5960  141.7080 O   0  0  0  0  0  0  0  0  0  0  0  0
  194.0950  169.6970  142.1280 C   0  0  0  0  0  0  0  0  0  0  0  0
  193.3380  170.5630  138.8840 C   0  0  1  0  0  3  0  0  0  0  0  0
  193.8490  171.8250  139.2170 O   0  0  0  0  0  1  0  0  0  0  0  0
  191.0350  170.4960  138.3960 C   0  0  0  0  0  2  0  0  0  0  0  0
  192.6250  169.9270  140.0770 C   0  0  2  0  0  3  0  0  0  0  0  0
  192.3580  170.7150  137.8080 N   0  0  0  0  0  0  0  0  0  0  0  0
  191.1900  170.3270  139.8980 C   0  0  0  0  0  2  0  0  0  0  0  0
  191.2680  169.0050  136.4610 C   0  0  0  0  0  1  0  0  0  0  0  0
  192.5880  169.6450  136.8460 C   0  0  0  0  0  2  0  0  0  0  0  0
  1  7  1  6  0  0  0
  1  6  1  0  0  0  0
  1  5  1  0  0  0  0
  2  4  1  1  0  0  0
  2  8  1  0  0  0  0
  5 28  1  6  0  0  0
  5  2  1  0  0  0  0
  6  3  1  1  0  0  0
  6  2  1  0  0  0  0
  8  9  1  0  0  0  0
  9 10  1  0  0  0  0
 11 10  1  0  0  0  0
 11 12  1  1  0  0  0
 13 18  1  0  0  0  0
 13 14  1  6  0  0  0
 16 15  1  1  0  0  0
 16 13  1  0  0  0  0
 17 11  1  6  0  0  0
 17 18  1  0  0  0  0
 19 17  1  0  0  0  0
 20 24  1  0  0  0  0
 21 25  1  0  0  0  0
 21 20  2  0  0  0  0
 22 23  1  6  0  0  0
 22 19  1  0  0  0  0
 22 16  1  0  0  0  0
 24 19  2  0  0  0  0
 25 23  2  0  0  0  0
 26 21  1  0  0  0  0
 27 26  1  0  0  0  0
 28 30  1  0  0  0  0
 29 30  2  0  0  0  0
 30 33  1  0  0  0  0
 31 33  2  0  0  0  0
 31 35  1  0  0  0  0
 32 34  1  0  0  0  0
 33 36  1  0  0  0  0
 35 32  2  0  0  0  0
 36 34  2  0  0  0  0
 37 35  1  0  0  0  0
 38 39  2  0  0  0  0
 39 37  1  0  0  0  0
 41 38  1  0  0  0  0
 41 42  1  0  0  0  0
 41 40  1  0  0  0  0
 42 40  1  0  0  0  0
 43 45  1  0  0  0  0
 44 45  2  0  0  0  0
 45 41  1  0  0  0  0
 46 47  1  1  0  0  0
 46 49  1  0  0  0  0
 48 51  1  0  0  0  0
 49 43  1  1  0  0  0
 50 48  1  0  0  0  0
 50 46  1  0  0  0  0
 51 49  1  0  0  0  0
 52 53  1  0  0  0  0
 53 50  1  0  0  0  0
M  END
>  <MODEL>
1

>  <REMARK>
 VINA RESULT:      -7.0      0.000      0.000
  Name = 
  15 active torsions:
  status: ('A' for Active; 'I' for Inactive)
    1  A    between atoms: C_3  and  C_7
    2  A    between atoms: C_3  and  N_26
    3  A    between atoms: N_5  and  C_27
    4  A    between atoms: C_7  and  C_25
    5  A    between atoms: C_11  and  C_30
    6  A    between atoms: C_16  and  C_46
    7  A    between atoms: C_19  and  S_35
    8  A    between atoms: C_22  and  N_49
    9  A    between atoms: C_24  and  C_32
   10  A    between atoms: N_26  and  C_46
   11  A    between atoms: C_30  and  O_48
   12  A    between atoms: C_32  and  C_33
   13  A    between atoms: S_35  and  C_42
   14  A    between atoms: C_38  and  O_44
   15  A    between atoms: C_47  and  O_48
                            x       y       z     vdW  Elec       q    Type
                         _______ _______ _______ _____ _____    ______ ____

>  <TORSDO>
F 15

$$$$
=
 OpenBabel11042418143D

 53 58  0  0  1  0  0  0  0  0999 V2000
  184.4690  178.4300  145.4810 C   0  0  2  0  0  3  0  0  0  0  0  0
  185.6540  178.2260  143.6920 C   0  0  1  0  0  0  0  0  0  0  0  0
  183.3170  178.8460  143.4400 O   0  0  0  0  0  1  0  0  0  0  0  0
  186.8250  178.9450  143.4920 F   0  0  0  0  0  0  0  0  0  0  0  0
  185.6070  177.5070  145.0370 C   0  0  1  0  0  3  0  0  0  0  0  0
  184.5000  179.1300  144.1310 C   0  0  1  0  0  3  0  0  0  0  0  0
  184.8800  179.3150  146.4850 O   0  0  0  0  0  1  0  0  0  0  0  0
  185.3560  177.2680  142.5340 C   0  0  0  0  0  2  0  0  0  0  0  0
  186.5940  176.8730  141.8870 N   0  0  0  0  0  2  0  0  0  0  0  0
  186.9770  175.5890  142.4500 C   0  0  0  0  0  2  0  0  0  0  0  0
  188.4870  175.4990  142.6500 C   0  0  2  0  0  3  0  0  0  0  0  0
  189.1960  176.2560  141.7100 O   0  0  0  0  0  1  0  0  0  0  0  0
  190.5530  172.7340  143.8700 C   0  0  1  0  0  3  0  0  0  0  0  0
  189.5360  171.8100  144.1570 O   0  0  0  0  0  1  0  0  0  0  0  0
  191.9240  170.9390  142.7700 C   0  0  0  0  0  1  0  0  0  0  0  0
  191.3620  172.3430  142.6390 C   0  0  1  0  0  3  0  0  0  0  0  0
  189.0040  174.0570  142.7600 C   0  0  2  0  0  3  0  0  0  0  0  0
  190.0510  174.0410  143.7090 O   0  0  0  0  0  0  0  0  0  0  0  0
  189.3860  173.4190  141.4250 C   0  0  0  0  0  0  0  0  0  0  0  0
  188.6670  172.9380  139.1100 C   0  0  0  0  0  3  0  0  0  0  0  0
  189.8170  172.7060  138.4420 C   0  0  0  0  0  0  0  0  0  0  0  0
  190.5800  172.5010  141.3320 C   0  0  1  0  0  3  0  0  0  0  0  0
  191.5100  172.9630  140.2600 C   0  0  0  0  0  3  0  0  0  0  0  0
  188.5450  173.4950  140.4340 N   0  0  0  0  0  0  0  0  0  0  0  0
  191.1590  173.0190  138.9770 C   0  0  0  0  0  3  0  0  0  0  0  0
  189.7750  172.1970  137.1390 O   0  0  0  0  0  0  0  0  0  0  0  0
  190.9170  172.1150  136.2870 C   0  0  0  0  0  1  0  0  0  0  0  0
  186.7960  177.7200  145.7980 O   0  0  0  0  0  0  0  0  0  0  0  0
  186.5980  176.1850  147.5090 O   0  0  0  0  0  0  0  0  0  0  0  0
  187.3290  176.7460  146.6470 C   0  0  0  0  0  0  0  0  0  0  0  0
  189.5680  176.9990  145.5860 C   0  0  0  0  0  3  0  0  0  0  0  0
  191.4220  175.6720  146.3120 N   0  0  0  0  0  0  0  0  0  0  0  0
  188.7470  176.3710  146.5300 C   0  0  0  0  0  0  0  0  0  0  0  0
  190.6470  175.0480  147.2400 C   0  0  0  0  0  3  0  0  0  0  0  0
  190.9140  176.6340  145.4920 C   0  0  0  0  0  0  0  0  0  0  0  0
  189.2950  175.3860  147.3650 C   0  0  0  0  0  3  0  0  0  0  0  0
  191.9630  177.4220  144.2740 S   0  0  0  0  0  0  0  0  0  0  0  0
  193.4350  175.2350  143.6470 C   0  0  0  0  0  3  0  0  0  0  0  0
  193.2630  176.2180  144.5260 C   0  0  0  0  0  3  0  0  0  0  0  0
  195.4150  174.0050  142.5930 C   0  0  0  0  0  2  0  0  0  0  0  0
  194.5510  174.2570  143.8120 C   0  0  0  0  0  0  0  0  0  0  0  0
  195.9260  174.8900  143.7290 C   0  0  0  0  0  2  0  0  0  0  0  0
  195.2910  172.0170  144.7300 N   0  0  0  0  0  2  0  0  0  0  0  0
  193.5690  173.2230  145.7460 O   0  0  0  0  0  0  0  0  0  0  0  0
  194.4300  173.1540  144.8250 C   0  0  0  0  0  0  0  0  0  0  0  0
  196.6060  170.3440  146.0220 C   0  0  1  0  0  3  0  0  0  0  0  0
  197.5230  170.5820  144.9900 O   0  0  0  0  0  1  0  0  0  0  0  0
  195.1540  168.5210  145.6890 C   0  0  0  0  0  2  0  0  0  0  0  0
  195.2260  170.9020  145.6710 C   0  0  2  0  0  3  0  0  0  0  0  0
  196.4680  168.9000  146.2120 N   0  0  0  0  0  0  0  0  0  0  0  0
  194.5130  169.7390  145.0470 C   0  0  0  0  0  2  0  0  0  0  0  0
  195.0810  168.1660  148.0730 C   0  0  0  0  0  1  0  0  0  0  0  0
  196.4560  168.6420  147.6450 C   0  0  0  0  0  2  0  0  0  0  0  0
  1  7  1  1  0  0  0
  2  4  1  6  0  0  0
  2  6  1  0  0  0  0
  2  5  1  0  0  0  0
  5  1  1  0  0  0  0
  5 28  1  1  0  0  0
  6  3  1  6  0  0  0
  6  1  1  0  0  0  0
  8  2  1  0  0  0  0
  9 10  1  0  0  0  0
  9  8  1  0  0  0  0
 10 11  1  0  0  0  0
 11 12  1  6  0  0  0
 13 14  1  6  0  0  0
 16 15  1  1  0  0  0
 16 13  1  0  0  0  0
 17 11  1  6  0  0  0
 17 18  1  0  0  0  0
 18 13  1  0  0  0  0
 19 17  1  0  0  0  0
 20 24  1  0  0  0  0
 21 25  1  0  0  0  0
 21 20  2  0  0  0  0
 22 23  1  6  0  0  0
 22 19  1  0  0  0  0
 22 16  1  0  0  0  0
 24 19  2  0  0  0  0
 25 23  2  0  0  0  0
 26 21  1  0  0  0  0
 27 26  1  0  0  0  0
 28 30  1  0  0  0  0
 30 29  2  0  0  0  0
 31 33  1  0  0  0  0
 32 34  2  0  0  0  0
 33 30  1  0  0  0  0
 33 36  2  0  0  0  0
 34 36  1  0  0  0  0
 35 31  2  0  0  0  0
 35 32  1  0  0  0  0
 37 39  1  0  0  0  0
 37 35  1  0  0  0  0
 38 41  1  0  0  0  0
 38 39  2  0  0  0  0
 40 42  1  0  0  0  0
 40 41  1  0  0  0  0
 41 45  1  0  0  0  0
 42 41  1  0  0  0  0
 43 45  1  0  0  0  0
 45 44  2  0  0  0  0
 46 47  1  6  0  0  0
 46 50  1  0  0  0  0
 48 50  1  0  0  0  0
 49 43  1  6  0  0  0
 49 46  1  0  0  0  0
 50 53  1  0  0  0  0
 51 49  1  0  0  0  0
 51 48  1  0  0  0  0
 53 52  1  0  0  0  0
M  END
>  <MODEL>
2

>  <REMARK>
 VINA RESULT:      -6.9      2.810      6.833
  Name = 
  15 active torsions:
  status: ('A' for Active; 'I' for Inactive)
    1  A    between atoms: C_3  and  C_7
    2  A    between atoms: C_3  and  N_26
    3  A    between atoms: N_5  and  C_27
    4  A    between atoms: C_7  and  C_25
    5  A    between atoms: C_11  and  C_30
    6  A    between atoms: C_16  and  C_46
    7  A    between atoms: C_19  and  S_35
    8  A    between atoms: C_22  and  N_49
    9  A    between atoms: C_24  and  C_32
   10  A    between atoms: N_26  and  C_46
   11  A    between atoms: C_30  and  O_48
   12  A    between atoms: C_32  and  C_33
   13  A    between atoms: S_35  and  C_42
   14  A    between atoms: C_38  and  O_44
   15  A    between atoms: C_47  and  O_48
                            x       y       z     vdW  Elec       q    Type
                         _______ _______ _______ _____ _____    ______ ____

>  <TORSDO>
F 15

$$$$
=
 OpenBabel11042418143D

 53 58  0  0  1  0  0  0  0  0999 V2000
  190.0480  173.8910  141.4490 C   0  0  2  0  0  3  0  0  0  0  0  0
  190.4240  173.7170  143.5650 C   0  0  1  0  0  0  0  0  0  0  0  0
  188.6560  172.3480  142.6120 O   0  0  0  0  0  1  0  0  0  0  0  0
  191.6740  173.3860  144.0710 F   0  0  0  0  0  0  0  0  0  0  0  0
  190.4630  174.8620  142.5570 C   0  0  1  0  0  3  0  0  0  0  0  0
  189.9870  172.7540  142.4590 C   0  0  1  0  0  3  0  0  0  0  0  0
  191.0890  173.6630  140.5410 O   0  0  0  0  0  1  0  0  0  0  0  0
  189.4000  173.9810  144.6730 C   0  0  0  0  0  2  0  0  0  0  0  0
  190.0600  173.9860  145.9660 N   0  0  0  0  0  2  0  0  0  0  0  0
  189.2300  174.7710  146.8640 C   0  0  0  0  0  2  0  0  0  0  0  0
  189.5790  176.2550  146.7870 C   0  0  2  0  0  3  0  0  0  0  0  0
  190.4530  176.6500  147.8070 O   0  0  0  0  0  1  0  0  0  0  0  0
  186.2210  177.5080  147.5320 C   0  0  1  0  0  3  0  0  0  0  0  0
  186.5290  178.8640  147.7160 O   0  0  0  0  0  1  0  0  0  0  0  0
  184.2170  178.1130  146.1420 C   0  0  0  0  0  1  0  0  0  0  0  0
  185.4670  177.2550  146.2320 C   0  0  1  0  0  3  0  0  0  0  0  0
  188.3500  177.1670  146.6730 C   0  0  2  0  0  3  0  0  0  0  0  0
  187.3700  176.6930  147.5760 O   0  0  0  0  0  0  0  0  0  0  0  0
  187.8250  177.3450  145.2490 C   0  0  0  0  0  0  0  0  0  0  0  0
  188.4050  177.9090  142.9130 C   0  0  0  0  0  3  0  0  0  0  0  0
  187.3950  177.3930  142.1820 C   0  0  0  0  0  0  0  0  0  0  0  0
  186.3420  177.4280  144.9870 C   0  0  1  0  0  3  0  0  0  0  0  0
  185.9370  176.4220  143.9620 C   0  0  0  0  0  3  0  0  0  0  0  0
  188.6700  177.6510  144.3070 N   0  0  0  0  0  0  0  0  0  0  0  0
  186.3950  176.4420  142.7130 C   0  0  0  0  0  3  0  0  0  0  0  0
  187.2900  177.7040  140.8220 O   0  0  0  0  0  0  0  0  0  0  0  0
  186.0440  177.8480  140.1390 C   0  0  0  0  0  1  0  0  0  0  0  0
  191.7870  175.3590  142.3640 O   0  0  0  0  0  0  0  0  0  0  0  0
  191.9650  177.6280  142.7460 O   0  0  0  0  0  0  0  0  0  0  0  0
  192.2890  176.4530  143.0740 C   0  0  0  0  0  0  0  0  0  0  0  0
  194.3570  175.4680  144.0510 C   0  0  0  0  0  3  0  0  0  0  0  0
  194.9130  175.8220  146.3510 N   0  0  0  0  0  0  0  0  0  0  0  0
  193.1960  176.2330  144.2110 C   0  0  0  0  0  0  0  0  0  0  0  0
  193.7930  176.5730  146.5340 C   0  0  0  0  0  3  0  0  0  0  0  0
  195.2110  175.2730  145.1400 C   0  0  0  0  0  0  0  0  0  0  0  0
  192.9140  176.7910  145.4660 C   0  0  0  0  0  3  0  0  0  0  0  0
  196.6870  174.2790  144.9430 S   0  0  0  0  0  0  0  0  0  0  0  0
  196.5760  172.4210  142.9740 C   0  0  0  0  0  3  0  0  0  0  0  0
  195.8600  173.1680  143.8100 C   0  0  0  0  0  3  0  0  0  0  0  0
  195.8440  170.0080  142.5390 C   0  0  0  0  0  2  0  0  0  0  0  0
  195.9030  171.4470  142.0640 C   0  0  0  0  0  0  0  0  0  0  0  0
  194.6040  170.8970  142.6210 C   0  0  0  0  0  2  0  0  0  0  0  0
  195.8290  173.0380  140.0970 N   0  0  0  0  0  2  0  0  0  0  0  0
  195.9300  170.7270  139.7720 O   0  0  0  0  0  0  0  0  0  0  0  0
  195.8930  171.6950  140.5830 C   0  0  0  0  0  0  0  0  0  0  0  0
  196.3980  174.7330  138.3650 C   0  0  1  0  0  3  0  0  0  0  0  0
  196.2800  175.5890  139.4690 O   0  0  0  0  0  1  0  0  0  0  0  0
  194.4500  174.4780  137.0660 C   0  0  0  0  0  2  0  0  0  0  0  0
  195.8070  173.3570  138.6720 C   0  0  2  0  0  3  0  0  0  0  0  0
  195.6490  175.2990  137.2420 N   0  0  0  0  0  0  0  0  0  0  0  0
  194.3910  173.4530  138.1860 C   0  0  0  0  0  2  0  0  0  0  0  0
  197.8770  174.7470  136.4300 C   0  0  0  0  0  1  0  0  0  0  0  0
  196.4640  175.1420  136.0450 C   0  0  0  0  0  2  0  0  0  0  0  0
  1  7  1  6  0  0  0
  1  6  1  0  0  0  0
  1  5  1  0  0  0  0
  2  4  1  1  0  0  0
  2  8  1  0  0  0  0
  5 28  1  6  0  0  0
  5  2  1  0  0  0  0
  6  3  1  1  0  0  0
  6  2  1  0  0  0  0
  8  9  1  0  0  0  0
  9 10  1  0  0  0  0
 11 10  1  0  0  0  0
 11 12  1  1  0  0  0
 13 18  1  0  0  0  0
 13 14  1  6  0  0  0
 16 15  1  6  0  0  0
 16 13  1  0  0  0  0
 17 11  1  6  0  0  0
 17 18  1  0  0  0  0
 19 17  1  0  0  0  0
 20 24  1  0  0  0  0
 21 25  1  0  0  0  0
 21 20  2  0  0  0  0
 22 23  1  6  0  0  0
 22 19  1  0  0  0  0
 22 16  1  0  0  0  0
 24 19  2  0  0  0  0
 25 23  2  0  0  0  0
 26 21  1  0  0  0  0
 27 26  1  0  0  0  0
 28 30  1  0  0  0  0
 29 30  2  0  0  0  0
 30 33  1  0  0  0  0
 31 33  2  0  0  0  0
 31 35  1  0  0  0  0
 32 34  1  0  0  0  0
 33 36  1  0  0  0  0
 35 32  2  0  0  0  0
 36 34  2  0  0  0  0
 37 35  1  0  0  0  0
 38 39  2  0  0  0  0
 39 37  1  0  0  0  0
 40 42  1  0  0  0  0
 41 40  1  0  0  0  0
 41 42  1  0  0  0  0
 41 38  1  0  0  0  0
 43 45  1  0  0  0  0
 44 45  2  0  0  0  0
 45 41  1  0  0  0  0
 46 49  1  0  0  0  0
 46 47  1  1  0  0  0
 48 50  1  0  0  0  0
 48 51  1  0  0  0  0
 49 43  1  1  0  0  0
 50 46  1  0  0  0  0
 51 49  1  0  0  0  0
 53 52  1  0  0  0  0
 53 50  1  0  0  0  0
M  END
>  <MODEL>
3

>  <REMARK>
 VINA RESULT:      -6.9      2.170      2.524
  Name = 
  15 active torsions:
  status: ('A' for Active; 'I' for Inactive)
    1  A    between atoms: C_3  and  C_7
    2  A    between atoms: C_3  and  N_26
    3  A    between atoms: N_5  and  C_27
    4  A    between atoms: C_7  and  C_25
    5  A    between atoms: C_11  and  C_30
    6  A    between atoms: C_16  and  C_46
    7  A    between atoms: C_19  and  S_35
    8  A    between atoms: C_22  and  N_49
    9  A    between atoms: C_24  and  C_32
   10  A    between atoms: N_26  and  C_46
   11  A    between atoms: C_30  and  O_48
   12  A    between atoms: C_32  and  C_33
   13  A    between atoms: S_35  and  C_42
   14  A    between atoms: C_38  and  O_44
   15  A    between atoms: C_47  and  O_48
                            x       y       z     vdW  Elec       q    Type
                         _______ _______ _______ _____ _____    ______ ____

>  <TORSDO>
F 15

$$$$
=
 OpenBabel11042418143D

 53 58  0  0  1  0  0  0  0  0999 V2000
  192.7380  170.8770  143.9810 C   0  0  2  0  0  3  0  0  0  0  0  0
  192.0550  172.9200  143.9220 C   0  0  1  0  0  0  0  0  0  0  0  0
  193.9080  172.3880  145.4010 O   0  0  0  0  0  1  0  0  0  0  0  0
  191.9980  173.6500  142.7410 F   0  0  0  0  0  0  0  0  0  0  0  0
  191.3760  171.5570  143.8250 C   0  0  1  0  0  3  0  0  0  0  0  0
  193.4120  172.2360  144.1020 C   0  0  1  0  0  3  0  0  0  0  0  0
  193.1450  170.2500  142.7970 O   0  0  0  0  0  1  0  0  0  0  0  0
  191.5380  173.7190  145.1230 C   0  0  0  0  0  2  0  0  0  0  0  0
  190.6670  174.7870  144.6690 N   0  0  0  0  0  2  0  0  0  0  0  0
  189.6710  174.9930  145.7070 C   0  0  0  0  0  2  0  0  0  0  0  0
  189.8420  176.3530  146.3790 C   0  0  2  0  0  3  0  0  0  0  0  0
  190.4430  176.2530  147.6390 O   0  0  0  0  0  1  0  0  0  0  0  0
  186.4850  177.3610  147.4350 C   0  0  1  0  0  3  0  0  0  0  0  0
  186.7250  178.7250  147.6570 O   0  0  0  0  0  1  0  0  0  0  0  0
  184.3440  177.8950  146.2320 C   0  0  0  0  0  1  0  0  0  0  0  0
  185.6460  177.1140  146.1870 C   0  0  1  0  0  3  0  0  0  0  0  0
  188.5550  177.1900  146.4010 C   0  0  2  0  0  3  0  0  0  0  0  0
  187.6800  176.6190  147.3540 O   0  0  0  0  0  0  0  0  0  0  0  0
  187.9090  177.3920  145.0310 C   0  0  0  0  0  0  0  0  0  0  0  0
  188.2670  178.0840  142.6850 C   0  0  0  0  0  3  0  0  0  0  0  0
  187.2340  177.5360  142.0110 C   0  0  0  0  0  0  0  0  0  0  0  0
  186.4070  177.3920  144.8880 C   0  0  1  0  0  3  0  0  0  0  0  0
  185.9830  176.4050  143.8530 C   0  0  0  0  0  3  0  0  0  0  0  0
  188.6570  177.7880  144.0410 N   0  0  0  0  0  0  0  0  0  0  0  0
  186.3380  176.5040  142.5740 C   0  0  0  0  0  3  0  0  0  0  0  0
  187.0030  177.8950  140.6790 O   0  0  0  0  0  0  0  0  0  0  0  0
  185.7070  177.9160  140.0810 C   0  0  0  0  0  1  0  0  0  0  0  0
  190.8120  171.3320  142.5330 O   0  0  0  0  0  0  0  0  0  0  0  0
  188.6330  172.0080  142.8830 O   0  0  0  0  0  0  0  0  0  0  0  0
  189.6300  171.9500  142.1120 C   0  0  0  0  0  0  0  0  0  0  0  0
  190.3890  172.0760  139.7440 C   0  0  0  0  0  3  0  0  0  0  0  0
  189.4020  173.6390  138.2250 N   0  0  0  0  0  0  0  0  0  0  0  0
  189.5520  172.5380  140.7660 C   0  0  0  0  0  0  0  0  0  0  0  0
  188.5740  174.1040  139.1990 C   0  0  0  0  0  3  0  0  0  0  0  0
  190.2980  172.6430  138.4690 C   0  0  0  0  0  0  0  0  0  0  0  0
  188.6350  173.5620  140.4880 C   0  0  0  0  0  3  0  0  0  0  0  0
  191.3800  172.0680  137.1640 S   0  0  0  0  0  0  0  0  0  0  0  0
  194.0150  172.5380  137.5880 C   0  0  0  0  0  3  0  0  0  0  0  0
  192.8360  172.3380  138.1700 C   0  0  0  0  0  3  0  0  0  0  0  0
  196.5510  172.3340  137.8590 C   0  0  0  0  0  2  0  0  0  0  0  0
  195.2270  172.8230  138.4120 C   0  0  0  0  0  0  0  0  0  0  0  0
  196.1780  173.8120  137.7670 C   0  0  0  0  0  2  0  0  0  0  0  0
  195.1360  174.2610  140.4940 N   0  0  0  0  0  2  0  0  0  0  0  0
  194.9710  171.9350  140.6300 O   0  0  0  0  0  0  0  0  0  0  0  0
  195.0990  172.9600  139.9020 C   0  0  0  0  0  0  0  0  0  0  0  0
  194.5060  175.8650  142.2900 C   0  0  1  0  0  3  0  0  0  0  0  0
  194.8040  176.7870  141.2780 O   0  0  0  0  0  1  0  0  0  0  0  0
  196.2790  175.3610  143.7560 C   0  0  0  0  0  2  0  0  0  0  0  0
  195.0270  174.4720  141.9350 C   0  0  2  0  0  3  0  0  0  0  0  0
  195.1670  176.2860  143.5260 N   0  0  0  0  0  0  0  0  0  0  0  0
  196.3850  174.4190  142.5690 C   0  0  0  0  0  2  0  0  0  0  0  0
  194.9650  175.8250  145.9080 C   0  0  0  0  0  1  0  0  0  0  0  0
  194.2190  176.1070  144.6170 C   0  0  0  0  0  2  0  0  0  0  0  0
  1  7  1  6  0  0  0
  1  6  1  0  0  0  0
  2  4  1  6  0  0  0
  2  6  1  0  0  0  0
  2  8  1  0  0  0  0
  5 28  1  6  0  0  0
  5  2  1  0  0  0  0
  5  1  1  0  0  0  0
  6  3  1  1  0  0  0
  9  8  1  0  0  0  0
  9 10  1  0  0  0  0
 10 11  1  0  0  0  0
 11 12  1  1  0  0  0
 13 14  1  6  0  0  0
 16 15  1  1  0  0  0
 16 13  1  0  0  0  0
 17 11  1  6  0  0  0
 17 18  1  0  0  0  0
 18 13  1  0  0  0  0
 19 17  1  0  0  0  0
 20 24  1  0  0  0  0
 21 25  1  0  0  0  0
 21 20  2  0  0  0  0
 22 23  1  6  0  0  0
 22 19  1  0  0  0  0
 22 16  1  0  0  0  0
 24 19  2  0  0  0  0
 25 23  2  0  0  0  0
 26 21  1  0  0  0  0
 27 26  1  0  0  0  0
 30 28  1  0  0  0  0
 30 29  2  0  0  0  0
 31 33  1  0  0  0  0
 32 35  1  0  0  0  0
 32 34  2  0  0  0  0
 33 30  1  0  0  0  0
 34 36  1  0  0  0  0
 35 31  2  0  0  0  0
 36 33  2  0  0  0  0
 37 39  1  0  0  0  0
 37 35  1  0  0  0  0
 38 39  2  0  0  0  0
 38 41  1  0  0  0  0
 40 41  1  0  0  0  0
 41 45  1  0  0  0  0
 42 40  1  0  0  0  0
 42 41  1  0  0  0  0
 45 43  1  0  0  0  0
 45 44  2  0  0  0  0
 46 47  1  6  0  0  0
 46 50  1  0  0  0  0
 49 43  1  6  0  0  0
 49 46  1  0  0  0  0
 49 51  1  0  0  0  0
 50 48  1  0  0  0  0
 50 53  1  0  0  0  0
 51 48  1  0  0  0  0
 53 52  1  0  0  0  0
M  END
>  <MODEL>
4

>  <REMARK>
 VINA RESULT:      -6.8      2.407      5.388
  Name = 
  15 active torsions:
  status: ('A' for Active; 'I' for Inactive)
    1  A    between atoms: C_3  and  C_7
    2  A    between atoms: C_3  and  N_26
    3  A    between atoms: N_5  and  C_27
    4  A    between atoms: C_7  and  C_25
    5  A    between atoms: C_11  and  C_30
    6  A    between atoms: C_16  and  C_46
    7  A    between atoms: C_19  and  S_35
    8  A    between atoms: C_22  and  N_49
    9  A    between atoms: C_24  and  C_32
   10  A    between atoms: N_26  and  C_46
   11  A    between atoms: C_30  and  O_48
   12  A    between atoms: C_32  and  C_33
   13  A    between atoms: S_35  and  C_42
   14  A    between atoms: C_38  and  O_44
   15  A    between atoms: C_47  and  O_48
                            x       y       z     vdW  Elec       q    Type
                         _______ _______ _______ _____ _____    ______ ____

>  <TORSDO>
F 15

$$$$
=
 OpenBabel11042418143D

 53 58  0  0  1  0  0  0  0  0999 V2000
  190.1680  173.9140  143.1790 C   0  0  2  0  0  3  0  0  0  0  0  0
  188.8030  173.9230  141.5110 C   0  0  1  0  0  0  0  0  0  0  0  0
  190.1650  171.9390  141.8490 O   0  0  0  0  0  1  0  0  0  0  0  0
  187.4410  174.1440  141.6690 F   0  0  0  0  0  0  0  0  0  0  0  0
  189.6700  174.9760  142.1960 C   0  0  1  0  0  3  0  0  0  0  0  0
  189.3220  172.8600  142.4810 C   0  0  1  0  0  3  0  0  0  0  0  0
  189.6800  174.1340  144.4720 O   0  0  0  0  0  1  0  0  0  0  0  0
  189.1950  173.7440  140.0410 C   0  0  0  0  0  2  0  0  0  0  0  0
  188.2210  174.3960  139.1850 N   0  0  0  0  0  2  0  0  0  0  0  0
  188.1910  173.6560  137.9350 C   0  0  0  0  0  2  0  0  0  0  0  0
  189.2350  174.1800  136.9540 C   0  0  2  0  0  3  0  0  0  0  0  0
  188.6590  174.8420  135.8640 O   0  0  0  0  0  1  0  0  0  0  0  0
  190.5180  170.8390  136.1800 C   0  0  1  0  0  3  0  0  0  0  0  0
  191.0980  171.1110  134.9320 O   0  0  0  0  0  1  0  0  0  0  0  0
  192.5420  169.5230  136.8770 C   0  0  0  0  0  1  0  0  0  0  0  0
  191.5600  170.6130  137.2680 C   0  0  1  0  0  3  0  0  0  0  0  0
  190.2600  173.1190  136.5290 C   0  0  2  0  0  3  0  0  0  0  0  0
  189.6280  171.8560  136.5830 O   0  0  0  0  0  0  0  0  0  0  0  0
  191.5790  173.1700  137.2990 C   0  0  0  0  0  0  0  0  0  0  0  0
  193.4430  174.6000  138.0670 C   0  0  0  0  0  3  0  0  0  0  0  0
  193.9930  173.9150  139.0920 C   0  0  0  0  0  0  0  0  0  0  0  0
  192.2960  171.8950  137.6700 C   0  0  1  0  0  3  0  0  0  0  0  0
  192.5720  171.8600  139.1360 C   0  0  0  0  0  3  0  0  0  0  0  0
  192.1820  174.3170  137.4280 N   0  0  0  0  0  0  0  0  0  0  0  0
  193.3530  172.7510  139.7430 C   0  0  0  0  0  3  0  0  0  0  0  0
  195.2100  174.3360  139.6380 O   0  0  0  0  0  0  0  0  0  0  0  0
  196.2820  174.8700  138.8600 C   0  0  0  0  0  1  0  0  0  0  0  0
  188.8840  175.9760  142.8430 O   0  0  0  0  0  0  0  0  0  0  0  0
  189.5890  178.0170  142.0280 O   0  0  0  0  0  0  0  0  0  0  0  0
  188.6360  177.2260  142.2660 C   0  0  0  0  0  0  0  0  0  0  0  0
  186.3930  178.0790  142.9310 C   0  0  0  0  0  3  0  0  0  0  0  0
  184.6600  178.3610  141.3050 N   0  0  0  0  0  0  0  0  0  0  0  0
  187.2580  177.6160  141.9320 C   0  0  0  0  0  0  0  0  0  0  0  0
  185.4800  177.9170  140.3140 C   0  0  0  0  0  3  0  0  0  0  0  0
  185.0880  178.4510  142.5950 C   0  0  0  0  0  0  0  0  0  0  0  0
  186.7950  177.5360  140.6110 C   0  0  0  0  0  3  0  0  0  0  0  0
  183.9740  179.0270  143.8730 S   0  0  0  0  0  0  0  0  0  0  0  0
  185.8320  178.9120  145.8430 C   0  0  0  0  0  3  0  0  0  0  0  0
  184.9290  178.2200  145.1530 C   0  0  0  0  0  3  0  0  0  0  0  0
  186.7430  179.0730  148.2280 C   0  0  0  0  0  2  0  0  0  0  0  0
  186.5950  178.2670  146.9520 C   0  0  0  0  0  0  0  0  0  0  0  0
  185.7380  177.9240  148.1550 C   0  0  0  0  0  2  0  0  0  0  0  0
  189.0200  177.6820  146.5210 N   0  0  0  0  0  2  0  0  0  0  0  0
  187.3570  176.0430  146.4590 O   0  0  0  0  0  0  0  0  0  0  0  0
  187.6600  177.2570  146.6350 C   0  0  0  0  0  0  0  0  0  0  0  0
  191.0350  176.5120  147.3960 C   0  0  1  0  0  3  0  0  0  0  0  0
  191.0200  177.5990  148.2810 O   0  0  0  0  0  1  0  0  0  0  0  0
  192.3760  176.7820  145.4800 C   0  0  0  0  0  2  0  0  0  0  0  0
  190.1080  176.7600  146.2060 C   0  0  2  0  0  3  0  0  0  0  0  0
  192.3920  176.3410  146.8760 N   0  0  0  0  0  0  0  0  0  0  0  0
  191.0060  177.3560  145.1640 C   0  0  0  0  0  2  0  0  0  0  0  0
  193.2540  174.5040  145.5310 C   0  0  0  0  0  1  0  0  0  0  0  0
  192.6890  174.9150  146.8780 C   0  0  0  0  0  2  0  0  0  0  0  0
  1  7  1  1  0  0  0
  2  4  1  1  0  0  0
  2  5  1  0  0  0  0
  2  6  1  0  0  0  0
  5 28  1  1  0  0  0
  5  1  1  0  0  0  0
  6  3  1  6  0  0  0
  6  1  1  0  0  0  0
  8  2  1  0  0  0  0
  9  8  1  0  0  0  0
 10  9  1  0  0  0  0
 11 12  1  6  0  0  0
 11 10  1  0  0  0  0
 13 14  1  6  0  0  0
 13 18  1  0  0  0  0
 13 16  1  0  0  0  0
 16 15  1  6  0  0  0
 16 22  1  0  0  0  0
 17 18  1  0  0  0  0
 17 11  1  1  0  0  0
 17 19  1  0  0  0  0
 19 24  2  0  0  0  0
 19 22  1  0  0  0  0
 20 21  2  0  0  0  0
 21 26  1  0  0  0  0
 21 25  1  0  0  0  0
 22 23  1  1  0  0  0
 23 25  2  0  0  0  0
 24 20  1  0  0  0  0
 27 26  1  0  0  0  0
 29 30  2  0  0  0  0
 30 28  1  0  0  0  0
 32 35  2  0  0  0  0
 33 30  1  0  0  0  0
 33 31  2  0  0  0  0
 34 36  2  0  0  0  0
 34 32  1  0  0  0  0
 35 31  1  0  0  0  0
 35 37  1  0  0  0  0
 36 33  1  0  0  0  0
 37 39  1  0  0  0  0
 38 41  1  0  0  0  0
 39 38  2  0  0  0  0
 41 42  1  0  0  0  0
 41 40  1  0  0  0  0
 42 40  1  0  0  0  0
 43 45  1  0  0  0  0
 44 45  2  0  0  0  0
 45 41  1  0  0  0  0
 46 47  1  1  0  0  0
 48 50  1  0  0  0  0
 49 43  1  1  0  0  0
 49 46  1  0  0  0  0
 50 53  1  0  0  0  0
 50 46  1  0  0  0  0
 51 48  1  0  0  0  0
 51 49  1  0  0  0  0
 52 53  1  0  0  0  0
M  END
>  <MODEL>
5

>  <REMARK>
 VINA RESULT:      -6.8      3.302      9.669
  Name = 
  15 active torsions:
  status: ('A' for Active; 'I' for Inactive)
    1  A    between atoms: C_3  and  C_7
    2  A    between atoms: C_3  and  N_26
    3  A    between atoms: N_5  and  C_27
    4  A    between atoms: C_7  and  C_25
    5  A    between atoms: C_11  and  C_30
    6  A    between atoms: C_16  and  C_46
    7  A    between atoms: C_19  and  S_35
    8  A    between atoms: C_22  and  N_49
    9  A    between atoms: C_24  and  C_32
   10  A    between atoms: N_26  and  C_46
   11  A    between atoms: C_30  and  O_48
   12  A    between atoms: C_32  and  C_33
   13  A    between atoms: S_35  and  C_42
   14  A    between atoms: C_38  and  O_44
   15  A    between atoms: C_47  and  O_48
                            x       y       z     vdW  Elec       q    Type
                         _______ _______ _______ _____ _____    ______ ____

>  <TORSDO>
F 15

$$$$
=
 OpenBabel11042418143D

 53 58  0  0  1  0  0  0  0  0999 V2000
  195.3110  175.9510  144.6730 C   0  0  2  0  0  3  0  0  0  0  0  0
  193.2070  175.7970  144.2300 C   0  0  1  0  0  0  0  0  0  0  0  0
  193.8450  176.4510  146.4820 O   0  0  0  0  0  1  0  0  0  0  0  0
  192.6130  176.5090  143.1960 F   0  0  0  0  0  0  0  0  0  0  0  0
  194.4550  175.0320  143.7980 C   0  0  1  0  0  3  0  0  0  0  0  0
  194.0640  176.6980  145.1220 C   0  0  1  0  0  3  0  0  0  0  0  0
  196.1190  176.7970  143.9040 O   0  0  0  0  0  1  0  0  0  0  0  0
  192.2120  174.8820  144.9520 C   0  0  0  0  0  2  0  0  0  0  0  0
  190.8630  175.1590  144.4950 N   0  0  0  0  0  2  0  0  0  0  0  0
  190.0170  175.2110  145.6750 C   0  0  0  0  0  2  0  0  0  0  0  0
  190.0550  176.5900  146.3260 C   0  0  2  0  0  3  0  0  0  0  0  0
  190.6460  176.5660  147.5950 O   0  0  0  0  0  1  0  0  0  0  0  0
  186.5990  177.2920  147.3110 C   0  0  1  0  0  3  0  0  0  0  0  0
  186.7100  178.6730  147.5310 O   0  0  0  0  0  1  0  0  0  0  0  0
  184.4440  177.6260  146.0640 C   0  0  0  0  0  1  0  0  0  0  0  0
  185.8120  176.9660  146.0480 C   0  0  1  0  0  3  0  0  0  0  0  0
  188.6970  177.3070  146.3190 C   0  0  2  0  0  3  0  0  0  0  0  0
  187.8590  176.6620  147.2570 O   0  0  0  0  0  0  0  0  0  0  0  0
  188.0630  177.4460  144.9350 C   0  0  0  0  0  0  0  0  0  0  0  0
  188.4040  178.1620  142.5950 C   0  0  0  0  0  3  0  0  0  0  0  0
  187.4390  177.5200  141.9020 C   0  0  0  0  0  0  0  0  0  0  0  0
  186.5700  177.3090  144.7630 C   0  0  1  0  0  3  0  0  0  0  0  0
  186.2590  176.2840  143.7240 C   0  0  0  0  0  3  0  0  0  0  0  0
  188.7920  177.9060  143.9590 N   0  0  0  0  0  0  0  0  0  0  0  0
  186.6290  176.4120  142.4520 C   0  0  0  0  0  3  0  0  0  0  0  0
  187.2030  177.8530  140.5640 O   0  0  0  0  0  0  0  0  0  0  0  0
  185.9910  177.5430  139.8760 C   0  0  0  0  0  1  0  0  0  0  0  0
  194.7340  175.2050  142.4090 O   0  0  0  0  0  0  0  0  0  0  0  0
  195.0580  172.9750  141.9120 O   0  0  0  0  0  0  0  0  0  0  0  0
  195.2670  174.1840  141.6170 C   0  0  0  0  0  0  0  0  0  0  0  0
  195.7190  174.0190  139.1740 C   0  0  0  0  0  3  0  0  0  0  0  0
  197.5790  175.1620  138.1940 N   0  0  0  0  0  0  0  0  0  0  0  0
  196.0710  174.5210  140.4320 C   0  0  0  0  0  0  0  0  0  0  0  0
  197.9410  175.6670  139.4040 C   0  0  0  0  0  3  0  0  0  0  0  0
  196.4910  174.3530  138.0570 C   0  0  0  0  0  0  0  0  0  0  0  0
  197.1920  175.3550  140.5450 C   0  0  0  0  0  3  0  0  0  0  0  0
  196.0550  173.6980  136.4490 S   0  0  0  0  0  0  0  0  0  0  0  0
  193.3850  173.2380  136.3960 C   0  0  0  0  0  3  0  0  0  0  0  0
  194.3320  174.1280  136.6750 C   0  0  0  0  0  3  0  0  0  0  0  0
  191.4840  174.9400  136.2030 C   0  0  0  0  0  2  0  0  0  0  0  0
  191.9470  173.5620  136.6340 C   0  0  0  0  0  0  0  0  0  0  0  0
  191.1420  173.7130  135.3580 C   0  0  0  0  0  2  0  0  0  0  0  0
  191.8900  172.6550  138.9970 N   0  0  0  0  0  2  0  0  0  0  0  0
  190.0060  172.5470  137.6210 O   0  0  0  0  0  0  0  0  0  0  0  0
  191.2110  172.8980  137.7630 C   0  0  0  0  0  0  0  0  0  0  0  0
  190.8880  172.9890  141.2510 C   0  0  1  0  0  3  0  0  0  0  0  0
  191.7350  174.1050  141.2280 O   0  0  0  0  0  1  0  0  0  0  0  0
  191.7840  171.0550  142.2510 C   0  0  0  0  0  2  0  0  0  0  0  0
  191.2440  172.0070  140.1350 C   0  0  2  0  0  3  0  0  0  0  0  0
  191.0520  172.2930  142.5270 N   0  0  0  0  0  0  0  0  0  0  0  0
  192.1900  171.0440  140.7870 C   0  0  0  0  0  2  0  0  0  0  0  0
  188.6930  172.8880  142.4600 C   0  0  0  0  0  1  0  0  0  0  0  0
  189.7260  171.9180  143.0000 C   0  0  0  0  0  2  0  0  0  0  0  0
  1  7  1  6  0  0  0
  1  6  1  0  0  0  0
  2  4  1  6  0  0  0
  2  8  1  0  0  0  0
  2  6  1  0  0  0  0
  5 28  1  6  0  0  0
  5  2  1  0  0  0  0
  5  1  1  0  0  0  0
  6  3  1  1  0  0  0
  9  8  1  0  0  0  0
  9 10  1  0  0  0  0
 10 11  1  0  0  0  0
 11 12  1  1  0  0  0
 13 14  1  6  0  0  0
 16 15  1  1  0  0  0
 16 13  1  0  0  0  0
 17 11  1  6  0  0  0
 17 18  1  0  0  0  0
 18 13  1  0  0  0  0
 19 17  1  0  0  0  0
 20 24  1  0  0  0  0
 21 25  1  0  0  0  0
 21 20  2  0  0  0  0
 22 23  1  6  0  0  0
 22 19  1  0  0  0  0
 22 16  1  0  0  0  0
 24 19  2  0  0  0  0
 25 23  2  0  0  0  0
 26 21  1  0  0  0  0
 27 26  1  0  0  0  0
 30 29  2  0  0  0  0
 30 28  1  0  0  0  0
 31 33  1  0  0  0  0
 32 34  2  0  0  0  0
 33 36  2  0  0  0  0
 33 30  1  0  0  0  0
 34 36  1  0  0  0  0
 35 32  1  0  0  0  0
 35 31  2  0  0  0  0
 37 39  1  0  0  0  0
 37 35  1  0  0  0  0
 38 41  1  0  0  0  0
 38 39  2  0  0  0  0
 40 41  1  0  0  0  0
 41 45  1  0  0  0  0
 42 40  1  0  0  0  0
 42 41  1  0  0  0  0
 44 45  2  0  0  0  0
 45 43  1  0  0  0  0
 46 47  1  1  0  0  0
 46 50  1  0  0  0  0
 48 50  1  0  0  0  0
 49 43  1  6  0  0  0
 49 51  1  0  0  0  0
 49 46  1  0  0  0  0
 50 53  1  0  0  0  0
 51 48  1  0  0  0  0
 52 53  1  0  0  0  0
M  END
>  <MODEL>
6

>  <REMARK>
 VINA RESULT:      -6.8      2.887      5.025
  Name = 
  15 active torsions:
  status: ('A' for Active; 'I' for Inactive)
    1  A    between atoms: C_3  and  C_7
    2  A    between atoms: C_3  and  N_26
    3  A    between atoms: N_5  and  C_27
    4  A    between atoms: C_7  and  C_25
    5  A    between atoms: C_11  and  C_30
    6  A    between atoms: C_16  and  C_46
    7  A    between atoms: C_19  and  S_35
    8  A    between atoms: C_22  and  N_49
    9  A    between atoms: C_24  and  C_32
   10  A    between atoms: N_26  and  C_46
   11  A    between atoms: C_30  and  O_48
   12  A    between atoms: C_32  and  C_33
   13  A    between atoms: S_35  and  C_42
   14  A    between atoms: C_38  and  O_44
   15  A    between atoms: C_47  and  O_48
                            x       y       z     vdW  Elec       q    Type
                         _______ _______ _______ _____ _____    ______ ____

>  <TORSDO>
F 15

$$$$
=
 OpenBabel11042418143D

 53 58  0  0  1  0  0  0  0  0999 V2000
  190.8500  177.0490  144.3090 C   0  0  2  0  0  3  0  0  0  0  0  0
  192.2260  176.1770  145.7210 C   0  0  1  0  0  0  0  0  0  0  0  0
  193.0460  176.6450  143.4810 O   0  0  0  0  0  1  0  0  0  0  0  0
  192.5050  176.7670  146.9460 F   0  0  0  0  0  0  0  0  0  0  0  0
  190.7320  176.0300  145.4450 C   0  0  1  0  0  3  0  0  0  0  0  0
  192.3440  177.1770  144.5690 C   0  0  1  0  0  3  0  0  0  0  0  0
  190.2090  178.2540  144.6230 O   0  0  0  0  0  1  0  0  0  0  0  0
  192.9620  174.8460  145.5360 C   0  0  0  0  0  2  0  0  0  0  0  0
  194.0380  174.7370  146.5030 N   0  0  0  0  0  2  0  0  0  0  0  0
  195.2640  175.1160  145.8200 C   0  0  0  0  0  2  0  0  0  0  0  0
  196.0460  173.8880  145.3630 C   0  0  2  0  0  3  0  0  0  0  0  0
  197.3010  173.7960  145.9770 O   0  0  0  0  0  1  0  0  0  0  0  0
  196.2220  174.9740  141.8720 C   0  0  1  0  0  3  0  0  0  0  0  0
  197.3020  174.1840  141.4510 O   0  0  0  0  0  1  0  0  0  0  0  0
  194.9450  174.4070  139.7830 C   0  0  0  0  0  1  0  0  0  0  0  0
  194.8940  174.4950  141.2980 C   0  0  1  0  0  3  0  0  0  0  0  0
  196.1210  173.7440  143.8370 C   0  0  2  0  0  3  0  0  0  0  0  0
  196.1320  175.0420  143.2770 O   0  0  0  0  0  0  0  0  0  0  0  0
  195.0520  172.8330  143.2350 C   0  0  0  0  0  0  0  0  0  0  0  0
  193.9520  170.6220  143.3450 C   0  0  0  0  0  3  0  0  0  0  0  0
  192.7750  170.8000  142.7110 C   0  0  0  0  0  0  0  0  0  0  0  0
  194.4200  173.1730  141.9080 C   0  0  1  0  0  3  0  0  0  0  0  0
  192.9330  173.1980  142.0310 C   0  0  0  0  0  3  0  0  0  0  0  0
  194.8640  171.6580  143.7640 N   0  0  0  0  0  0  0  0  0  0  0  0
  192.2190  172.1240  142.3610 C   0  0  0  0  0  3  0  0  0  0  0  0
  191.9750  169.6940  142.4040 O   0  0  0  0  0  0  0  0  0  0  0  0
  190.8320  169.7590  141.5500 C   0  0  0  0  0  1  0  0  0  0  0  0
  189.9390  176.5230  146.5250 O   0  0  0  0  0  0  0  0  0  0  0  0
  188.6930  174.9310  147.6380 O   0  0  0  0  0  0  0  0  0  0  0  0
  188.7190  175.9430  146.8850 C   0  0  0  0  0  0  0  0  0  0  0  0
  187.2150  176.5990  145.0130 C   0  0  0  0  0  3  0  0  0  0  0  0
  185.0850  177.5990  145.4470 N   0  0  0  0  0  0  0  0  0  0  0  0
  187.4600  176.5200  146.3880 C   0  0  0  0  0  0  0  0  0  0  0  0
  185.2960  177.5310  146.7890 C   0  0  0  0  0  3  0  0  0  0  0  0
  186.0110  177.1450  144.5570 C   0  0  0  0  0  0  0  0  0  0  0  0
  186.4890  176.9900  147.2840 C   0  0  0  0  0  3  0  0  0  0  0  0
  185.7010  177.2650  142.7980 S   0  0  0  0  0  0  0  0  0  0  0  0
  187.0660  175.1130  141.8750 C   0  0  0  0  0  3  0  0  0  0  0  0
  187.1750  176.3240  142.4140 C   0  0  0  0  0  3  0  0  0  0  0  0
  189.4060  174.3010  142.5170 C   0  0  0  0  0  2  0  0  0  0  0  0
  188.2860  174.3410  141.4950 C   0  0  0  0  0  0  0  0  0  0  0  0
  188.4930  173.0900  142.3260 C   0  0  0  0  0  2  0  0  0  0  0  0
  189.8480  173.4940  139.6920 N   0  0  0  0  0  2  0  0  0  0  0  0
  187.9270  174.7040  139.1480 O   0  0  0  0  0  0  0  0  0  0  0  0
  188.6560  174.1980  140.0460 C   0  0  0  0  0  0  0  0  0  0  0  0
  189.6560  172.0910  137.6450 C   0  0  1  0  0  3  0  0  0  0  0  0
  189.3250  171.1190  138.5990 O   0  0  0  0  0  1  0  0  0  0  0  0
  191.9270  172.1750  137.0280 C   0  0  0  0  0  2  0  0  0  0  0  0
  190.2760  173.3210  138.3060 C   0  0  2  0  0  3  0  0  0  0  0  0
  190.6470  171.5330  136.7230 N   0  0  0  0  0  0  0  0  0  0  0  0
  191.7520  173.0590  138.2500 C   0  0  0  0  0  2  0  0  0  0  0  0
  191.4900  172.4390  134.6260 C   0  0  0  0  0  1  0  0  0  0  0  0
  190.2700  171.9350  135.3740 C   0  0  0  0  0  2  0  0  0  0  0  0
  1  6  1  0  0  0  0
  1  7  1  1  0  0  0
  1  5  1  0  0  0  0
  2  4  1  1  0  0  0
  5  2  1  0  0  0  0
  5 28  1  1  0  0  0
  6  3  1  6  0  0  0
  6  2  1  0  0  0  0
  8  2  1  0  0  0  0
  8  9  1  0  0  0  0
 10  9  1  0  0  0  0
 11 10  1  0  0  0  0
 11 12  1  6  0  0  0
 13 14  1  1  0  0  0
 13 18  1  0  0  0  0
 16 15  1  6  0  0  0
 16 13  1  0  0  0  0
 16 22  1  0  0  0  0
 17 11  1  1  0  0  0
 18 17  1  0  0  0  0
 19 24  2  0  0  0  0
 19 17  1  0  0  0  0
 20 24  1  0  0  0  0
 21 20  2  0  0  0  0
 22 23  1  1  0  0  0
 22 19  1  0  0  0  0
 23 25  2  0  0  0  0
 25 21  1  0  0  0  0
 26 21  1  0  0  0  0
 27 26  1  0  0  0  0
 28 30  1  0  0  0  0
 30 29  2  0  0  0  0
 31 33  1  0  0  0  0
 32 34  2  0  0  0  0
 33 30  1  0  0  0  0
 33 36  2  0  0  0  0
 34 36  1  0  0  0  0
 35 31  2  0  0  0  0
 35 32  1  0  0  0  0
 37 35  1  0  0  0  0
 38 39  2  0  0  0  0
 39 37  1  0  0  0  0
 41 38  1  0  0  0  0
 41 42  1  0  0  0  0
 41 40  1  0  0  0  0
 42 40  1  0  0  0  0
 43 45  1  0  0  0  0
 44 45  2  0  0  0  0
 45 41  1  0  0  0  0
 46 49  1  0  0  0  0
 46 47  1  1  0  0  0
 48 51  1  0  0  0  0
 49 43  1  1  0  0  0
 50 48  1  0  0  0  0
 50 46  1  0  0  0  0
 51 49  1  0  0  0  0
 52 53  1  0  0  0  0
 53 50  1  0  0  0  0
M  END
>  <MODEL>
7

>  <REMARK>
 VINA RESULT:      -6.7      3.048      7.576
  Name = 
  15 active torsions:
  status: ('A' for Active; 'I' for Inactive)
    1  A    between atoms: C_3  and  C_7
    2  A    between atoms: C_3  and  N_26
    3  A    between atoms: N_5  and  C_27
    4  A    between atoms: C_7  and  C_25
    5  A    between atoms: C_11  and  C_30
    6  A    between atoms: C_16  and  C_46
    7  A    between atoms: C_19  and  S_35
    8  A    between atoms: C_22  and  N_49
    9  A    between atoms: C_24  and  C_32
   10  A    between atoms: N_26  and  C_46
   11  A    between atoms: C_30  and  O_48
   12  A    between atoms: C_32  and  C_33
   13  A    between atoms: S_35  and  C_42
   14  A    between atoms: C_38  and  O_44
   15  A    between atoms: C_47  and  O_48
                            x       y       z     vdW  Elec       q    Type
                         _______ _______ _______ _____ _____    ______ ____

>  <TORSDO>
F 15

$$$$
=
 OpenBabel11042418143D

 53 58  0  0  1  0  0  0  0  0999 V2000
  189.5310  173.3510  140.7110 C   0  0  2  0  0  3  0  0  0  0  0  0
  189.7960  173.2670  142.8490 C   0  0  1  0  0  0  0  0  0  0  0  0
  188.5320  175.1320  141.9360 O   0  0  0  0  0  1  0  0  0  0  0  0
  189.4030  172.1680  143.6020 F   0  0  0  0  0  0  0  0  0  0  0  0
  190.6570  172.8980  141.6440 C   0  0  1  0  0  3  0  0  0  0  0  0
  188.6820  173.7400  141.9120 C   0  0  1  0  0  3  0  0  0  0  0  0
  188.9420  172.2700  140.0450 O   0  0  0  0  0  1  0  0  0  0  0  0
  190.4630  174.3480  143.7040 C   0  0  0  0  0  2  0  0  0  0  0  0
  190.2680  174.0560  145.1120 N   0  0  0  0  0  2  0  0  0  0  0  0
  189.1260  174.8390  145.5540 C   0  0  0  0  0  2  0  0  0  0  0  0
  189.5480  176.2370  145.9960 C   0  0  2  0  0  3  0  0  0  0  0  0
  190.4530  176.2080  147.0640 O   0  0  0  0  0  1  0  0  0  0  0  0
  186.4900  177.4730  147.5840 C   0  0  1  0  0  3  0  0  0  0  0  0
  186.8900  178.7950  147.8310 O   0  0  0  0  0  1  0  0  0  0  0  0
  184.2610  178.2670  146.7370 C   0  0  0  0  0  1  0  0  0  0  0  0
  185.4610  177.3780  146.4640 C   0  0  1  0  0  3  0  0  0  0  0  0
  188.3650  177.1820  146.2470 C   0  0  2  0  0  3  0  0  0  0  0  0
  187.5850  176.6350  147.2920 O   0  0  0  0  0  0  0  0  0  0  0  0
  187.5520  177.5230  144.9990 C   0  0  0  0  0  0  0  0  0  0  0  0
  187.6360  178.3220  142.6620 C   0  0  0  0  0  3  0  0  0  0  0  0
  186.4700  177.9090  142.1230 C   0  0  0  0  0  0  0  0  0  0  0  0
  186.0520  177.6650  145.0800 C   0  0  1  0  0  3  0  0  0  0  0  0
  185.3910  176.7830  144.0740 C   0  0  0  0  0  3  0  0  0  0  0  0
  188.1860  177.9110  143.9300 N   0  0  0  0  0  0  0  0  0  0  0  0
  185.5680  176.9280  142.7630 C   0  0  0  0  0  3  0  0  0  0  0  0
  186.0860  178.3670  140.8580 O   0  0  0  0  0  0  0  0  0  0  0  0
  184.7490  178.2900  140.3630 C   0  0  0  0  0  1  0  0  0  0  0  0
  190.8860  171.4910  141.5610 O   0  0  0  0  0  0  0  0  0  0  0  0
  192.9390  170.4530  141.7410 O   0  0  0  0  0  0  0  0  0  0  0  0
  192.0470  170.9520  141.0010 C   0  0  0  0  0  0  0  0  0  0  0  0
  193.1960  171.7800  138.9530 C   0  0  0  0  0  3  0  0  0  0  0  0
  192.5730  170.9740  136.7890 N   0  0  0  0  0  0  0  0  0  0  0  0
  192.2260  170.9600  139.5410 C   0  0  0  0  0  0  0  0  0  0  0  0
  191.6250  170.1640  137.3330 C   0  0  0  0  0  3  0  0  0  0  0  0
  193.3570  171.7730  137.5640 C   0  0  0  0  0  0  0  0  0  0  0  0
  191.4340  170.1440  138.7200 C   0  0  0  0  0  3  0  0  0  0  0  0
  194.5850  172.8340  136.8080 S   0  0  0  0  0  0  0  0  0  0  0  0
  195.7950  174.4290  138.6350 C   0  0  0  0  0  3  0  0  0  0  0  0
  195.3250  173.2090  138.3950 C   0  0  0  0  0  3  0  0  0  0  0  0
  197.7250  174.1970  140.2980 C   0  0  0  0  0  2  0  0  0  0  0  0
  196.3610  174.7730  139.9730 C   0  0  0  0  0  0  0  0  0  0  0  0
  197.5840  175.6660  139.9000 C   0  0  0  0  0  2  0  0  0  0  0  0
  195.2720  174.1050  142.1580 N   0  0  0  0  0  2  0  0  0  0  0  0
  194.8000  176.1620  141.1590 O   0  0  0  0  0  0  0  0  0  0  0  0
  195.4360  175.0720  141.1180 C   0  0  0  0  0  0  0  0  0  0  0  0
  195.0590  175.0860  144.4360 C   0  0  1  0  0  3  0  0  0  0  0  0
  196.4480  174.8980  144.4150 O   0  0  0  0  0  1  0  0  0  0  0  0
  193.8130  173.3300  145.3880 C   0  0  0  0  0  2  0  0  0  0  0  0
  194.3840  174.3200  143.2980 C   0  0  2  0  0  3  0  0  0  0  0  0
  194.5290  174.5690  145.6980 N   0  0  0  0  0  0  0  0  0  0  0  0
  194.0090  173.0070  143.9170 C   0  0  0  0  0  2  0  0  0  0  0  0
  194.2290  176.8430  146.5110 C   0  0  0  0  0  1  0  0  0  0  0  0
  193.5480  175.5260  146.1900 C   0  0  0  0  0  2  0  0  0  0  0  0
  1  7  1  1  0  0  0
  1  5  1  0  0  0  0
  1  6  1  0  0  0  0
  2  4  1  1  0  0  0
  2  8  1  0  0  0  0
  5 28  1  1  0  0  0
  5  2  1  0  0  0  0
  6  3  1  6  0  0  0
  6  2  1  0  0  0  0
  8  9  1  0  0  0  0
  9 10  1  0  0  0  0
 10 11  1  0  0  0  0
 11 12  1  1  0  0  0
 13 14  1  6  0  0  0
 16 15  1  1  0  0  0
 16 13  1  0  0  0  0
 17 11  1  6  0  0  0
 17 18  1  0  0  0  0
 18 13  1  0  0  0  0
 19 22  1  0  0  0  0
 19 17  1  0  0  0  0
 20 24  1  0  0  0  0
 21 20  2  0  0  0  0
 21 25  1  0  0  0  0
 22 23  1  6  0  0  0
 22 16  1  0  0  0  0
 24 19  2  0  0  0  0
 25 23  2  0  0  0  0
 26 21  1  0  0  0  0
 27 26  1  0  0  0  0
 30 28  1  0  0  0  0
 30 29  2  0  0  0  0
 31 33  1  0  0  0  0
 32 34  2  0  0  0  0
 32 35  1  0  0  0  0
 33 30  1  0  0  0  0
 34 36  1  0  0  0  0
 35 31  2  0  0  0  0
 36 33  2  0  0  0  0
 37 35  1  0  0  0  0
 37 39  1  0  0  0  0
 38 41  1  0  0  0  0
 39 38  2  0  0  0  0
 41 40  1  0  0  0  0
 41 45  1  0  0  0  0
 42 41  1  0  0  0  0
 42 40  1  0  0  0  0
 45 44  2  0  0  0  0
 45 43  1  0  0  0  0
 46 47  1  1  0  0  0
 46 50  1  0  0  0  0
 48 50  1  0  0  0  0
 49 43  1  6  0  0  0
 49 51  1  0  0  0  0
 49 46  1  0  0  0  0
 50 53  1  0  0  0  0
 51 48  1  0  0  0  0
 53 52  1  0  0  0  0
M  END
>  <MODEL>
8

>  <REMARK>
 VINA RESULT:      -6.7      2.383      5.532
  Name = 
  15 active torsions:
  status: ('A' for Active; 'I' for Inactive)
    1  A    between atoms: C_3  and  C_7
    2  A    between atoms: C_3  and  N_26
    3  A    between atoms: N_5  and  C_27
    4  A    between atoms: C_7  and  C_25
    5  A    between atoms: C_11  and  C_30
    6  A    between atoms: C_16  and  C_46
    7  A    between atoms: C_19  and  S_35
    8  A    between atoms: C_22  and  N_49
    9  A    between atoms: C_24  and  C_32
   10  A    between atoms: N_26  and  C_46
   11  A    between atoms: C_30  and  O_48
   12  A    between atoms: C_32  and  C_33
   13  A    between atoms: S_35  and  C_42
   14  A    between atoms: C_38  and  O_44
   15  A    between atoms: C_47  and  O_48
                            x       y       z     vdW  Elec       q    Type
                         _______ _______ _______ _____ _____    ______ ____

>  <TORSDO>
F 15

$$$$
=
 OpenBabel11042418143D

 53 58  0  0  1  0  0  0  0  0999 V2000
  185.7950  177.9740  146.2120 C   0  0  2  0  0  3  0  0  0  0  0  0
  186.6810  177.4490  144.3180 C   0  0  1  0  0  0  0  0  0  0  0  0
  184.3620  178.1780  144.3210 O   0  0  0  0  0  1  0  0  0  0  0  0
  187.8380  178.0570  143.8470 F   0  0  0  0  0  0  0  0  0  0  0  0
  186.8100  176.9270  145.7470 C   0  0  1  0  0  3  0  0  0  0  0  0
  185.6490  178.4780  144.7840 C   0  0  1  0  0  3  0  0  0  0  0  0
  186.3920  178.9600  147.0050 O   0  0  0  0  0  1  0  0  0  0  0  0
  186.1690  176.3620  143.3690 C   0  0  0  0  0  2  0  0  0  0  0  0
  187.0410  176.2620  142.2130 N   0  0  0  0  0  2  0  0  0  0  0  0
  187.5900  174.9170  142.2090 C   0  0  0  0  0  2  0  0  0  0  0  0
  189.1000  174.9340  141.9890 C   0  0  2  0  0  3  0  0  0  0  0  0
  189.6320  176.2270  142.0480 O   0  0  0  0  0  1  0  0  0  0  0  0
  188.7270  173.0280  138.8860 C   0  0  1  0  0  3  0  0  0  0  0  0
  189.5880  173.7720  138.0670 O   0  0  0  0  0  1  0  0  0  0  0  0
  189.6910  170.8790  138.0110 C   0  0  0  0  0  1  0  0  0  0  0  0
  189.3050  171.6660  139.2510 C   0  0  1  0  0  3  0  0  0  0  0  0
  189.5430  174.1660  140.7360 C   0  0  2  0  0  3  0  0  0  0  0  0
  188.3820  173.7240  140.0620 O   0  0  0  0  0  0  0  0  0  0  0  0
  190.5510  173.0490  141.0030 C   0  0  0  0  0  0  0  0  0  0  0  0
  192.6930  172.4430  142.0790 C   0  0  0  0  0  3  0  0  0  0  0  0
  192.6400  171.1000  142.2000 C   0  0  0  0  0  0  0  0  0  0  0  0
  190.4790  171.7550  140.2300 C   0  0  1  0  0  3  0  0  0  0  0  0
  190.4240  170.5930  141.1650 C   0  0  0  0  0  3  0  0  0  0  0  0
  191.5970  173.3140  141.7320 N   0  0  0  0  0  0  0  0  0  0  0  0
  191.4090  170.3040  142.0120 C   0  0  0  0  0  3  0  0  0  0  0  0
  193.7820  170.3900  142.5860 O   0  0  0  0  0  0  0  0  0  0  0  0
  194.1290  169.1080  142.0620 C   0  0  0  0  0  1  0  0  0  0  0  0
  188.1100  177.1660  146.2870 O   0  0  0  0  0  0  0  0  0  0  0  0
  188.4880  175.1120  147.2700 O   0  0  0  0  0  0  0  0  0  0  0  0
  188.9570  176.1290  146.6890 C   0  0  0  0  0  0  0  0  0  0  0  0
  190.8810  176.2750  145.1150 C   0  0  0  0  0  3  0  0  0  0  0  0
  193.1250  176.4120  145.9340 N   0  0  0  0  0  0  0  0  0  0  0  0
  190.4020  176.2240  146.4290 C   0  0  0  0  0  0  0  0  0  0  0  0
  192.6870  176.3680  147.2210 C   0  0  0  0  0  3  0  0  0  0  0  0
  192.2570  176.3710  144.8850 C   0  0  0  0  0  0  0  0  0  0  0  0
  191.3160  176.2730  147.4910 C   0  0  0  0  0  3  0  0  0  0  0  0
  192.8740  176.4180  143.2050 S   0  0  0  0  0  0  0  0  0  0  0  0
  195.1410  174.9350  143.1250 C   0  0  0  0  0  3  0  0  0  0  0  0
  194.5170  175.9400  143.7320 C   0  0  0  0  0  3  0  0  0  0  0  0
  197.5880  174.6650  142.4300 C   0  0  0  0  0  2  0  0  0  0  0  0
  196.5340  174.5630  143.5140 C   0  0  0  0  0  0  0  0  0  0  0  0
  197.4950  175.7360  143.5150 C   0  0  0  0  0  2  0  0  0  0  0  0
  196.2200  172.2510  144.4970 N   0  0  0  0  0  2  0  0  0  0  0  0
  197.4090  173.8980  145.6500 O   0  0  0  0  0  0  0  0  0  0  0  0
  196.7590  173.5700  144.6180 C   0  0  0  0  0  0  0  0  0  0  0  0
  197.2760  170.0740  145.0800 C   0  0  1  0  0  3  0  0  0  0  0  0
  197.2390  169.9250  143.6870 O   0  0  0  0  0  1  0  0  0  0  0  0
  195.4400  169.1700  146.2450 C   0  0  0  0  0  2  0  0  0  0  0  0
  196.3900  171.2350  145.5320 C   0  0  2  0  0  3  0  0  0  0  0  0
  196.7620  168.8530  145.7020 N   0  0  0  0  0  0  0  0  0  0  0  0
  195.0730  170.5880  145.8420 C   0  0  0  0  0  2  0  0  0  0  0  0
  196.7900  168.2050  148.0490 C   0  0  0  0  0  1  0  0  0  0  0  0
  197.6290  168.5330  146.8280 C   0  0  0  0  0  2  0  0  0  0  0  0
  1  7  1  1  0  0  0
  2  4  1  6  0  0  0
  2  6  1  0  0  0  0
  2  5  1  0  0  0  0
  5  1  1  0  0  0  0
  5 28  1  1  0  0  0
  6  3  1  6  0  0  0
  6  1  1  0  0  0  0
  8  2  1  0  0  0  0
  9  8  1  0  0  0  0
 10  9  1  0  0  0  0
 11 12  1  6  0  0  0
 11 10  1  0  0  0  0
 13 14  1  1  0  0  0
 13 16  1  0  0  0  0
 13 18  1  0  0  0  0
 16 15  1  6  0  0  0
 16 22  1  0  0  0  0
 17 19  1  0  0  0  0
 17 11  1  1  0  0  0
 18 17  1  0  0  0  0
 19 24  2  0  0  0  0
 20 21  2  0  0  0  0
 21 26  1  0  0  0  0
 22 19  1  0  0  0  0
 22 23  1  1  0  0  0
 23 25  2  0  0  0  0
 24 20  1  0  0  0  0
 25 21  1  0  0  0  0
 27 26  1  0  0  0  0
 28 30  1  0  0  0  0
 30 29  2  0  0  0  0
 31 33  1  0  0  0  0
 32 34  2  0  0  0  0
 33 30  1  0  0  0  0
 33 36  2  0  0  0  0
 34 36  1  0  0  0  0
 35 31  2  0  0  0  0
 35 32  1  0  0  0  0
 37 39  1  0  0  0  0
 37 35  1  0  0  0  0
 38 41  1  0  0  0  0
 38 39  2  0  0  0  0
 40 41  1  0  0  0  0
 40 42  1  0  0  0  0
 41 42  1  0  0  0  0
 41 45  1  0  0  0  0
 43 45  1  0  0  0  0
 45 44  2  0  0  0  0
 46 47  1  6  0  0  0
 46 49  1  0  0  0  0
 46 50  1  0  0  0  0
 49 43  1  6  0  0  0
 49 51  1  0  0  0  0
 50 48  1  0  0  0  0
 50 53  1  0  0  0  0
 51 48  1  0  0  0  0
 53 52  1  0  0  0  0
M  END
>  <MODEL>
9

>  <REMARK>
 VINA RESULT:      -6.6      2.664      7.158
  Name = 
  15 active torsions:
  status: ('A' for Active; 'I' for Inactive)
    1  A    between atoms: C_3  and  C_7
    2  A    between atoms: C_3  and  N_26
    3  A    between atoms: N_5  and  C_27
    4  A    between atoms: C_7  and  C_25
    5  A    between atoms: C_11  and  C_30
    6  A    between atoms: C_16  and  C_46
    7  A    between atoms: C_19  and  S_35
    8  A    between atoms: C_22  and  N_49
    9  A    between atoms: C_24  and  C_32
   10  A    between atoms: N_26  and  C_46
   11  A    between atoms: C_30  and  O_48
   12  A    between atoms: C_32  and  C_33
   13  A    between atoms: S_35  and  C_42
   14  A    between atoms: C_38  and  O_44
   15  A    between atoms: C_47  and  O_48
                            x       y       z     vdW  Elec       q    Type
                         _______ _______ _______ _____ _____    ______ ____

>  <TORSDO>
F 15

$$$$
