=
 OpenBabel11042415103D

 27 29  0  0  1  0  0  0  0  0999 V2000
  190.5730  173.6130  144.7900 S   0  0  0  0  0  0  0  0  0  0  0  0
  190.1040  176.1640  145.5200 C   0  0  1  0  0  3  0  0  0  0  0  0
  191.8450  174.5640  145.6030 C   0  0  2  0  0  3  0  0  0  0  0  0
  191.4980  175.8120  145.9170 C   0  0  0  0  0  2  0  0  0  0  0  0
  189.7070  175.1360  144.5670 N   0  0  0  0  0  0  0  0  0  0  0  0
  189.0810  175.4640  143.3200 C   0  0  0  0  0  0  0  0  0  0  0  0
  188.7520  174.5560  142.3280 C   0  0  0  0  0  3  0  0  0  0  0  0
  188.6930  176.7250  142.9260 C   0  0  0  0  0  3  0  0  0  0  0  0
  188.1550  175.3150  141.3350 C   0  0  0  0  0  3  0  0  0  0  0  0
  188.1230  176.6060  141.7170 N   0  0  0  0  0  0  0  0  0  0  0  0
  187.6070  177.7090  140.9260 C   0  0  0  0  0  2  0  0  0  0  0  0
  186.1360  177.4910  140.6290 C   0  0  0  0  0  2  0  0  0  0  0  0
  185.3710  177.6490  141.8510 N   0  0  0  0  0  2  0  0  0  0  0  0
  185.6820  178.9160  142.3630 N   0  0  0  0  0  2  0  0  0  0  0  0
  185.4140  180.1310  144.2330 N   0  0  0  0  0  1  0  0  0  0  0  0
  184.8250  179.1330  143.4480 N   0  0  0  0  0  2  0  0  0  0  0  0
  189.2380  176.1050  146.6910 N   0  0  0  0  0  2  0  0  0  0  0  0
  188.7890  177.4580  146.9890 C   0  0  0  0  0  2  0  0  0  0  0  0
  187.2980  177.5570  146.9330 C   0  0  0  0  0  0  0  0  0  0  0  0
  185.1900  176.7740  146.0240 C   0  0  0  0  0  3  0  0  0  0  0  0
  186.5830  176.6880  146.1010 C   0  0  0  0  0  3  0  0  0  0  0  0
  185.2180  178.6240  147.5860 C   0  0  0  0  0  3  0  0  0  0  0  0
  186.6110  178.5390  147.6610 C   0  0  0  0  0  3  0  0  0  0  0  0
  184.5080  177.7390  146.7690 C   0  0  0  0  0  3  0  0  0  0  0  0
  193.2250  174.0350  145.8100 C   0  0  0  0  0  2  0  0  0  0  0  0
  194.9440  176.0030  146.0500 N   0  0  0  0  0  0  0  0  0  0  0  0
  194.1850  175.1360  145.9480 C   0  0  0  0  0  0  0  0  0  0  0  0
  1  3  1  0  0  0  0
  2  4  1  0  0  0  0
  2 17  1  1  0  0  0
  3 25  1  6  0  0  0
  3  4  1  0  0  0  0
  5  1  1  0  0  0  0
  5  2  1  0  0  0  0
  6  5  1  0  0  0  0
  7  6  1  0  0  0  0
  8  6  2  0  0  0  0
  9 10  1  0  0  0  0
  9  7  2  0  0  0  0
 10  8  1  0  0  0  0
 11 10  1  0  0  0  0
 12 11  1  0  0  0  0
 12 13  1  0  0  0  0
 13 14  1  0  0  0  0
 14 16  1  0  0  0  0
 16 15  1  0  0  0  0
 17 18  1  0  0  0  0
 19 18  1  0  0  0  0
 19 23  1  0  0  0  0
 20 21  1  0  0  0  0
 20 24  2  0  0  0  0
 21 19  2  0  0  0  0
 22 23  2  0  0  0  0
 24 22  1  0  0  0  0
 25 27  1  0  0  0  0
 27 26  3  0  0  0  0
M  END
>  <MODEL>
1

>  <REMARK>
 VINA RESULT:      -6.0      0.000      0.000
  Name = 
  11 active torsions:
  status: ('A' for Active; 'I' for Inactive)
    1  A    between atoms: C_1  and  C_5
    2  A    between atoms: C_1  and  N_18
    3  A    between atoms: C_2  and  N_23
    4  A    between atoms: C_3  and  N_7
    5  A    between atoms: C_3  and  C_17
    6  A    between atoms: N_7  and  N_11
    7  A    between atoms: C_10  and  N_18
    8  A    between atoms: N_11  and  N_21
    9  A    between atoms: N_13  and  C_17
   10  A    between atoms: C_14  and  C_19
   11  A    between atoms: C_19  and  C_26
                            x       y       z     vdW  Elec       q    Type
                         _______ _______ _______ _____ _____    ______ ____

>  <TORSDO>
F 11

$$$$
=
 OpenBabel11042415103D

 27 29  0  0  1  0  0  0  0  0999 V2000
  185.4840  179.5300  144.5900 S   0  0  0  0  0  0  0  0  0  0  0  0
  186.2240  177.0310  143.9080 C   0  0  1  0  0  3  0  0  0  0  0  0
  185.5820  178.2510  145.8310 C   0  0  2  0  0  3  0  0  0  0  0  0
  185.9610  177.0560  145.3760 C   0  0  0  0  0  2  0  0  0  0  0  0
  185.6060  178.2430  143.3880 N   0  0  0  0  0  0  0  0  0  0  0  0
  184.7670  178.2240  142.2270 C   0  0  0  0  0  0  0  0  0  0  0  0
  185.2140  178.1980  140.9160 C   0  0  0  0  0  3  0  0  0  0  0  0
  183.3890  178.2090  142.2340 C   0  0  0  0  0  3  0  0  0  0  0  0
  184.0640  178.1630  140.1480 C   0  0  0  0  0  3  0  0  0  0  0  0
  182.9860  178.1630  140.9550 N   0  0  0  0  0  0  0  0  0  0  0  0
  181.6010  178.1690  140.5170 C   0  0  0  0  0  2  0  0  0  0  0  0
  180.7480  178.9430  141.5020 C   0  0  0  0  0  2  0  0  0  0  0  0
  179.6730  178.0950  141.9780 N   0  0  0  0  0  2  0  0  0  0  0  0
  178.8650  178.8870  142.8030 N   0  0  0  0  0  2  0  0  0  0  0  0
  178.3980  178.4400  144.9550 N   0  0  0  0  0  1  0  0  0  0  0  0
  178.1660  178.0120  143.6430 N   0  0  0  0  0  2  0  0  0  0  0  0
  187.6620  177.0770  143.6740 N   0  0  0  0  0  2  0  0  0  0  0  0
  188.2240  175.7900  144.0620 C   0  0  0  0  0  2  0  0  0  0  0  0
  189.0530  175.9140  145.3000 C   0  0  0  0  0  0  0  0  0  0  0  0
  190.2510  177.3160  146.8750 C   0  0  0  0  0  3  0  0  0  0  0  0
  189.4630  177.1810  145.7280 C   0  0  0  0  0  3  0  0  0  0  0  0
  190.2500  174.9110  147.1580 C   0  0  0  0  0  3  0  0  0  0  0  0
  189.4660  174.7760  146.0100 C   0  0  0  0  0  3  0  0  0  0  0  0
  190.6400  176.1820  147.5920 C   0  0  0  0  0  3  0  0  0  0  0  0
  185.1650  178.4790  147.2460 C   0  0  0  0  0  2  0  0  0  0  0  0
  187.2060  179.2460  148.7050 N   0  0  0  0  0  0  0  0  0  0  0  0
  186.3080  178.9070  148.0590 C   0  0  0  0  0  0  0  0  0  0  0  0
  1  3  1  0  0  0  0
  2 17  1  1  0  0  0
  2  4  1  0  0  0  0
  3 25  1  6  0  0  0
  4  3  1  0  0  0  0
  5  2  1  0  0  0  0
  5  1  1  0  0  0  0
  6  8  2  0  0  0  0
  6  5  1  0  0  0  0
  7  6  1  0  0  0  0
  9  7  2  0  0  0  0
  9 10  1  0  0  0  0
 10  8  1  0  0  0  0
 11 10  1  0  0  0  0
 11 12  1  0  0  0  0
 12 13  1  0  0  0  0
 13 14  1  0  0  0  0
 14 16  1  0  0  0  0
 16 15  1  0  0  0  0
 17 18  1  0  0  0  0
 18 19  1  0  0  0  0
 19 21  2  0  0  0  0
 19 23  1  0  0  0  0
 20 24  2  0  0  0  0
 21 20  1  0  0  0  0
 22 24  1  0  0  0  0
 23 22  2  0  0  0  0
 25 27  1  0  0  0  0
 27 26  3  0  0  0  0
M  END
>  <MODEL>
2

>  <REMARK>
 VINA RESULT:      -6.0      3.586      6.080
  Name = 
  11 active torsions:
  status: ('A' for Active; 'I' for Inactive)
    1  A    between atoms: C_1  and  C_5
    2  A    between atoms: C_1  and  N_18
    3  A    between atoms: C_2  and  N_23
    4  A    between atoms: C_3  and  N_7
    5  A    between atoms: C_3  and  C_17
    6  A    between atoms: N_7  and  N_11
    7  A    between atoms: C_10  and  N_18
    8  A    between atoms: N_11  and  N_21
    9  A    between atoms: N_13  and  C_17
   10  A    between atoms: C_14  and  C_19
   11  A    between atoms: C_19  and  C_26
                            x       y       z     vdW  Elec       q    Type
                         _______ _______ _______ _____ _____    ______ ____

>  <TORSDO>
F 11

$$$$
=
 OpenBabel11042415103D

 27 29  0  0  1  0  0  0  0  0999 V2000
  187.8280  174.3790  142.0130 S   0  0  0  0  0  0  0  0  0  0  0  0
  188.7210  176.5810  143.2840 C   0  0  1  0  0  3  0  0  0  0  0  0
  189.5770  174.7270  142.0890 C   0  0  2  0  0  3  0  0  0  0  0  0
  189.8990  175.8430  142.7440 C   0  0  0  0  0  2  0  0  0  0  0  0
  187.5700  176.0320  142.5790 N   0  0  0  0  0  0  0  0  0  0  0  0
  186.5710  176.8740  141.9930 C   0  0  0  0  0  0  0  0  0  0  0  0
  186.7060  177.5650  140.8000 C   0  0  0  0  0  3  0  0  0  0  0  0
  185.3170  177.1130  142.5120 C   0  0  0  0  0  3  0  0  0  0  0  0
  185.4970  178.2160  140.6260 C   0  0  0  0  0  3  0  0  0  0  0  0
  184.6800  177.9250  141.6560 N   0  0  0  0  0  0  0  0  0  0  0  0
  183.3390  178.4510  141.8460 C   0  0  0  0  0  2  0  0  0  0  0  0
  182.4590  178.0620  140.6740 C   0  0  0  0  0  2  0  0  0  0  0  0
  181.2860  178.9150  140.6510 N   0  0  0  0  0  2  0  0  0  0  0  0
  180.7480  178.9000  141.9440 N   0  0  0  0  0  2  0  0  0  0  0  0
  178.9610  177.5410  142.0210 N   0  0  0  0  0  1  0  0  0  0  0  0
  179.3560  178.8660  141.8010 N   0  0  0  0  0  2  0  0  0  0  0  0
  188.5940  176.3130  144.7100 N   0  0  0  0  0  2  0  0  0  0  0  0
  188.3870  177.5840  145.3920 C   0  0  0  0  0  2  0  0  0  0  0  0
  186.9370  177.8180  145.6690 C   0  0  0  0  0  0  0  0  0  0  0  0
  184.8160  176.9960  146.5130 C   0  0  0  0  0  3  0  0  0  0  0  0
  186.1770  176.8010  146.2580 C   0  0  0  0  0  3  0  0  0  0  0  0
  184.9570  179.2180  145.5600 C   0  0  0  0  0  3  0  0  0  0  0  0
  186.3160  179.0220  145.3030 C   0  0  0  0  0  3  0  0  0  0  0  0
  184.2080  178.2060  146.1670 C   0  0  0  0  0  3  0  0  0  0  0  0
  190.5870  173.8910  141.3760 C   0  0  0  0  0  2  0  0  0  0  0  0
  189.7930  173.3740  138.9290 N   0  0  0  0  0  0  0  0  0  0  0  0
  190.1460  173.6030  140.0070 C   0  0  0  0  0  0  0  0  0  0  0  0
  1  3  1  0  0  0  0
  1  5  1  0  0  0  0
  2 17  1  1  0  0  0
  3 25  1  6  0  0  0
  3  4  1  0  0  0  0
  4  2  1  0  0  0  0
  5  2  1  0  0  0  0
  6  8  2  0  0  0  0
  6  5  1  0  0  0  0
  7  6  1  0  0  0  0
  9  7  2  0  0  0  0
  9 10  1  0  0  0  0
 10 11  1  0  0  0  0
 10  8  1  0  0  0  0
 12 11  1  0  0  0  0
 13 12  1  0  0  0  0
 13 14  1  0  0  0  0
 16 14  1  0  0  0  0
 16 15  1  0  0  0  0
 17 18  1  0  0  0  0
 18 19  1  0  0  0  0
 19 21  1  0  0  0  0
 21 20  2  0  0  0  0
 22 24  2  0  0  0  0
 23 22  1  0  0  0  0
 23 19  2  0  0  0  0
 24 20  1  0  0  0  0
 26 27  3  0  0  0  0
 27 25  1  0  0  0  0
M  END
>  <MODEL>
3

>  <REMARK>
 VINA RESULT:      -5.9      2.816      4.209
  Name = 
  11 active torsions:
  status: ('A' for Active; 'I' for Inactive)
    1  A    between atoms: C_1  and  C_5
    2  A    between atoms: C_1  and  N_18
    3  A    between atoms: C_2  and  N_23
    4  A    between atoms: C_3  and  N_7
    5  A    between atoms: C_3  and  C_17
    6  A    between atoms: N_7  and  N_11
    7  A    between atoms: C_10  and  N_18
    8  A    between atoms: N_11  and  N_21
    9  A    between atoms: N_13  and  C_17
   10  A    between atoms: C_14  and  C_19
   11  A    between atoms: C_19  and  C_26
                            x       y       z     vdW  Elec       q    Type
                         _______ _______ _______ _____ _____    ______ ____

>  <TORSDO>
F 11

$$$$
=
 OpenBabel11042415103D

 27 29  0  0  1  0  0  0  0  0999 V2000
  190.4460  177.2970  143.1050 S   0  0  0  0  0  0  0  0  0  0  0  0
  189.7240  176.0110  145.3590 C   0  0  1  0  0  3  0  0  0  0  0  0
  189.1970  176.0230  143.0530 C   0  0  2  0  0  3  0  0  0  0  0  0
  188.9220  175.4590  144.2290 C   0  0  0  0  0  2  0  0  0  0  0  0
  190.8260  176.7270  144.7320 N   0  0  0  0  0  0  0  0  0  0  0  0
  192.1810  176.5570  145.1660 C   0  0  0  0  0  0  0  0  0  0  0  0
  192.5790  176.3210  146.4720 C   0  0  0  0  0  3  0  0  0  0  0  0
  193.2920  176.5840  144.3530 C   0  0  0  0  0  3  0  0  0  0  0  0
  193.9570  176.2050  146.4080 C   0  0  0  0  0  3  0  0  0  0  0  0
  194.3610  176.3570  145.1320 N   0  0  0  0  0  0  0  0  0  0  0  0
  195.7390  176.3380  144.6740 C   0  0  0  0  0  2  0  0  0  0  0  0
  195.8070  175.7980  143.2580 C   0  0  0  0  0  2  0  0  0  0  0  0
  196.5300  176.7360  142.4210 N   0  0  0  0  0  2  0  0  0  0  0  0
  195.8760  176.7630  141.1830 N   0  0  0  0  0  2  0  0  0  0  0  0
  194.6540  175.4940  139.7870 N   0  0  0  0  0  1  0  0  0  0  0  0
  195.1060  175.5960  141.1080 N   0  0  0  0  0  2  0  0  0  0  0  0
  188.9050  176.9440  146.1220 N   0  0  0  0  0  2  0  0  0  0  0  0
  187.5970  176.3370  146.3260 C   0  0  0  0  0  2  0  0  0  0  0  0
  186.4990  177.2990  146.0060 C   0  0  0  0  0  0  0  0  0  0  0  0
  184.2370  178.0850  146.3940 C   0  0  0  0  0  3  0  0  0  0  0  0
  185.2810  177.2030  146.6890 C   0  0  0  0  0  3  0  0  0  0  0  0
  185.6110  179.1460  144.7060 C   0  0  0  0  0  3  0  0  0  0  0  0
  186.6540  178.2630  144.9990 C   0  0  0  0  0  3  0  0  0  0  0  0
  184.4040  179.0580  145.4060 C   0  0  0  0  0  3  0  0  0  0  0  0
  188.5920  175.5530  141.7720 C   0  0  0  0  0  2  0  0  0  0  0  0
  186.8540  177.2990  140.8690 N   0  0  0  0  0  0  0  0  0  0  0  0
  187.6210  176.5310  141.2700 C   0  0  0  0  0  0  0  0  0  0  0  0
  1  5  1  0  0  0  0
  2 17  1  6  0  0  0
  3 25  1  6  0  0  0
  3  1  1  0  0  0  0
  3  4  1  0  0  0  0
  4  2  1  0  0  0  0
  5  6  1  0  0  0  0
  5  2  1  0  0  0  0
  6  7  1  0  0  0  0
  8 10  1  0  0  0  0
  8  6  2  0  0  0  0
  9  7  2  0  0  0  0
 10  9  1  0  0  0  0
 11 10  1  0  0  0  0
 12 11  1  0  0  0  0
 13 12  1  0  0  0  0
 14 13  1  0  0  0  0
 15 16  1  0  0  0  0
 16 14  1  0  0  0  0
 17 18  1  0  0  0  0
 19 18  1  0  0  0  0
 19 21  1  0  0  0  0
 20 21  2  0  0  0  0
 22 23  1  0  0  0  0
 22 24  2  0  0  0  0
 23 19  2  0  0  0  0
 24 20  1  0  0  0  0
 26 27  3  0  0  0  0
 27 25  1  0  0  0  0
M  END
>  <MODEL>
4

>  <REMARK>
 VINA RESULT:      -5.9      2.566      6.474
  Name = 
  11 active torsions:
  status: ('A' for Active; 'I' for Inactive)
    1  A    between atoms: C_1  and  C_5
    2  A    between atoms: C_1  and  N_18
    3  A    between atoms: C_2  and  N_23
    4  A    between atoms: C_3  and  N_7
    5  A    between atoms: C_3  and  C_17
    6  A    between atoms: N_7  and  N_11
    7  A    between atoms: C_10  and  N_18
    8  A    between atoms: N_11  and  N_21
    9  A    between atoms: N_13  and  C_17
   10  A    between atoms: C_14  and  C_19
   11  A    between atoms: C_19  and  C_26
                            x       y       z     vdW  Elec       q    Type
                         _______ _______ _______ _____ _____    ______ ____

>  <TORSDO>
F 11

$$$$
=
 OpenBabel11042415103D

 27 29  0  0  1  0  0  0  0  0999 V2000
  188.5620  178.2750  141.8470 S   0  0  0  0  0  0  0  0  0  0  0  0
  187.4800  176.8450  143.8580 C   0  0  1  0  0  3  0  0  0  0  0  0
  186.9320  177.5690  141.6730 C   0  0  2  0  0  3  0  0  0  0  0  0
  186.5020  176.8840  142.7330 C   0  0  0  0  0  2  0  0  0  0  0  0
  188.7510  177.2520  143.2740 N   0  0  0  0  0  0  0  0  0  0  0  0
  189.9600  176.5230  143.5160 C   0  0  0  0  0  0  0  0  0  0  0  0
  190.0720  175.1430  143.5390 C   0  0  0  0  0  3  0  0  0  0  0  0
  191.2000  177.0800  143.7430 C   0  0  0  0  0  3  0  0  0  0  0  0
  191.4120  174.8980  143.7830 C   0  0  0  0  0  3  0  0  0  0  0  0
  192.0690  176.0690  143.8930 N   0  0  0  0  0  0  0  0  0  0  0  0
  193.4830  176.2210  144.1850 C   0  0  0  0  0  2  0  0  0  0  0  0
  194.1910  174.8890  144.0280 C   0  0  0  0  0  2  0  0  0  0  0  0
  195.6090  175.1200  143.8310 N   0  0  0  0  0  2  0  0  0  0  0  0
  195.8180  176.4990  143.9630 N   0  0  0  0  0  2  0  0  0  0  0  0
  196.3370  176.8370  141.8030 N   0  0  0  0  0  1  0  0  0  0  0  0
  196.8680  176.8320  143.0990 N   0  0  0  0  0  2  0  0  0  0  0  0
  187.0810  177.8050  144.8790 N   0  0  0  0  0  2  0  0  0  0  0  0
  186.9490  177.0930  146.1420 C   0  0  0  0  0  2  0  0  0  0  0  0
  188.2800  176.6390  146.6480 C   0  0  0  0  0  0  0  0  0  0  0  0
  189.7280  174.8360  147.3780 C   0  0  0  0  0  3  0  0  0  0  0  0
  188.4940  175.2780  146.8920 C   0  0  0  0  0  3  0  0  0  0  0  0
  190.5340  177.1190  147.4130 C   0  0  0  0  0  3  0  0  0  0  0  0
  189.3000  177.5610  146.9290 C   0  0  0  0  0  3  0  0  0  0  0  0
  190.7480  175.7550  147.6350 C   0  0  0  0  0  3  0  0  0  0  0  0
  186.1630  177.6470  140.3970 C   0  0  0  0  0  2  0  0  0  0  0  0
  183.6980  178.4220  140.8520 N   0  0  0  0  0  0  0  0  0  0  0  0
  184.7830  178.0770  140.6510 C   0  0  0  0  0  0  0  0  0  0  0  0
  1  5  1  0  0  0  0
  2 17  1  1  0  0  0
  3 25  1  6  0  0  0
  3  1  1  0  0  0  0
  3  4  1  0  0  0  0
  4  2  1  0  0  0  0
  5  6  1  0  0  0  0
  5  2  1  0  0  0  0
  6  7  1  0  0  0  0
  6  8  2  0  0  0  0
  7  9  2  0  0  0  0
  8 10  1  0  0  0  0
  9 10  1  0  0  0  0
 10 11  1  0  0  0  0
 12 11  1  0  0  0  0
 13 14  1  0  0  0  0
 13 12  1  0  0  0  0
 15 16  1  0  0  0  0
 16 14  1  0  0  0  0
 17 18  1  0  0  0  0
 18 19  1  0  0  0  0
 19 21  2  0  0  0  0
 19 23  1  0  0  0  0
 20 24  2  0  0  0  0
 21 20  1  0  0  0  0
 22 24  1  0  0  0  0
 23 22  2  0  0  0  0
 25 27  1  0  0  0  0
 27 26  3  0  0  0  0
M  END
>  <MODEL>
5

>  <REMARK>
 VINA RESULT:      -5.9      2.376      7.042
  Name = 
  11 active torsions:
  status: ('A' for Active; 'I' for Inactive)
    1  A    between atoms: C_1  and  C_5
    2  A    between atoms: C_1  and  N_18
    3  A    between atoms: C_2  and  N_23
    4  A    between atoms: C_3  and  N_7
    5  A    between atoms: C_3  and  C_17
    6  A    between atoms: N_7  and  N_11
    7  A    between atoms: C_10  and  N_18
    8  A    between atoms: N_11  and  N_21
    9  A    between atoms: N_13  and  C_17
   10  A    between atoms: C_14  and  C_19
   11  A    between atoms: C_19  and  C_26
                            x       y       z     vdW  Elec       q    Type
                         _______ _______ _______ _____ _____    ______ ____

>  <TORSDO>
F 11

$$$$
=
 OpenBabel11042415103D

 27 29  0  0  1  0  0  0  0  0999 V2000
  190.4000  177.3490  143.0340 S   0  0  0  0  0  0  0  0  0  0  0  0
  189.7520  176.0040  145.2770 C   0  0  1  0  0  3  0  0  0  0  0  0
  189.1440  176.0810  142.9920 C   0  0  2  0  0  3  0  0  0  0  0  0
  188.9090  175.4860  144.1620 C   0  0  0  0  0  2  0  0  0  0  0  0
  190.8350  176.7330  144.6310 N   0  0  0  0  0  0  0  0  0  0  0  0
  192.2040  176.5470  145.0120 C   0  0  0  0  0  0  0  0  0  0  0  0
  192.6590  176.3990  146.3120 C   0  0  0  0  0  3  0  0  0  0  0  0
  193.2720  176.4690  144.1470 C   0  0  0  0  0  3  0  0  0  0  0  0
  194.0280  176.2270  146.1910 C   0  0  0  0  0  3  0  0  0  0  0  0
  194.3710  176.2630  144.8900 N   0  0  0  0  0  0  0  0  0  0  0  0
  195.7220  176.1560  144.3680 C   0  0  0  0  0  2  0  0  0  0  0  0
  196.3210  174.8160  144.7510 C   0  0  0  0  0  2  0  0  0  0  0  0
  195.7810  173.7840  143.8870 N   0  0  0  0  0  2  0  0  0  0  0  0
  195.2520  172.7920  144.7220 N   0  0  0  0  0  2  0  0  0  0  0  0
  193.0320  172.9390  145.0390 N   0  0  0  0  0  1  0  0  0  0  0  0
  194.0130  172.4290  144.1810 N   0  0  0  0  0  2  0  0  0  0  0  0
  188.9660  176.9180  146.0940 N   0  0  0  0  0  2  0  0  0  0  0  0
  187.6690  176.3030  146.3410 C   0  0  0  0  0  2  0  0  0  0  0  0
  186.5550  177.2600  146.0620 C   0  0  0  0  0  0  0  0  0  0  0  0
  184.2890  178.0080  146.5000 C   0  0  0  0  0  3  0  0  0  0  0  0
  185.3480  177.1310  146.7570 C   0  0  0  0  0  3  0  0  0  0  0  0
  185.6280  179.1310  144.8240 C   0  0  0  0  0  3  0  0  0  0  0  0
  186.6840  178.2530  145.0790 C   0  0  0  0  0  3  0  0  0  0  0  0
  184.4310  179.0100  145.5370 C   0  0  0  0  0  3  0  0  0  0  0  0
  188.4920  175.6490  141.7220 C   0  0  0  0  0  2  0  0  0  0  0  0
  186.6950  177.4060  140.9670 N   0  0  0  0  0  0  0  0  0  0  0  0
  187.4860  176.6290  141.2970 C   0  0  0  0  0  0  0  0  0  0  0  0
  1  5  1  0  0  0  0
  2 17  1  1  0  0  0
  3 25  1  6  0  0  0
  3  1  1  0  0  0  0
  3  4  1  0  0  0  0
  4  2  1  0  0  0  0
  5  6  1  0  0  0  0
  5  2  1  0  0  0  0
  6  7  1  0  0  0  0
  8 10  1  0  0  0  0
  8  6  2  0  0  0  0
  9  7  2  0  0  0  0
 10  9  1  0  0  0  0
 11 12  1  0  0  0  0
 11 10  1  0  0  0  0
 13 14  1  0  0  0  0
 13 12  1  0  0  0  0
 16 14  1  0  0  0  0
 16 15  1  0  0  0  0
 17 18  1  0  0  0  0
 19 18  1  0  0  0  0
 19 21  1  0  0  0  0
 20 21  2  0  0  0  0
 22 23  1  0  0  0  0
 22 24  2  0  0  0  0
 23 19  2  0  0  0  0
 24 20  1  0  0  0  0
 26 27  3  0  0  0  0
 27 25  1  0  0  0  0
M  END
>  <MODEL>
6

>  <REMARK>
 VINA RESULT:      -5.9      2.127      6.586
  Name = 
  11 active torsions:
  status: ('A' for Active; 'I' for Inactive)
    1  A    between atoms: C_1  and  C_5
    2  A    between atoms: C_1  and  N_18
    3  A    between atoms: C_2  and  N_23
    4  A    between atoms: C_3  and  N_7
    5  A    between atoms: C_3  and  C_17
    6  A    between atoms: N_7  and  N_11
    7  A    between atoms: C_10  and  N_18
    8  A    between atoms: N_11  and  N_21
    9  A    between atoms: N_13  and  C_17
   10  A    between atoms: C_14  and  C_19
   11  A    between atoms: C_19  and  C_26
                            x       y       z     vdW  Elec       q    Type
                         _______ _______ _______ _____ _____    ______ ____

>  <TORSDO>
F 11

$$$$
=
 OpenBabel11042415103D

 27 29  0  0  1  0  0  0  0  0999 V2000
  192.6280  174.6010  142.7870 S   0  0  0  0  0  0  0  0  0  0  0  0
  192.6360  176.3920  144.8000 C   0  0  1  0  0  3  0  0  0  0  0  0
  194.0950  175.5570  143.1350 C   0  0  2  0  0  3  0  0  0  0  0  0
  193.9800  176.4090  144.1540 C   0  0  0  0  0  2  0  0  0  0  0  0
  191.7630  175.7150  143.8490 N   0  0  0  0  0  0  0  0  0  0  0  0
  190.4810  176.2450  143.4910 C   0  0  0  0  0  0  0  0  0  0  0  0
  190.2410  177.5440  143.0740 C   0  0  0  0  0  3  0  0  0  0  0  0
  189.2960  175.5430  143.4890 C   0  0  0  0  0  3  0  0  0  0  0  0
  188.8810  177.5900  142.8200 C   0  0  0  0  0  3  0  0  0  0  0  0
  188.3380  176.3820  143.0670 N   0  0  0  0  0  0  0  0  0  0  0  0
  186.9290  176.0490  142.9520 C   0  0  0  0  0  2  0  0  0  0  0  0
  186.1770  177.1930  142.3010 C   0  0  0  0  0  2  0  0  0  0  0  0
  185.1080  177.6260  143.1800 N   0  0  0  0  0  2  0  0  0  0  0  0
  185.2760  179.0040  143.3730 N   0  0  0  0  0  2  0  0  0  0  0  0
  185.0570  178.7470  145.5950 N   0  0  0  0  0  1  0  0  0  0  0  0
  185.9440  179.1600  144.5930 N   0  0  0  0  0  2  0  0  0  0  0  0
  192.7030  175.6230  146.0350 N   0  0  0  0  0  2  0  0  0  0  0  0
  192.1080  176.4230  147.0980 C   0  0  0  0  0  2  0  0  0  0  0  0
  190.6150  176.3780  147.0370 C   0  0  0  0  0  0  0  0  0  0  0  0
  188.5640  175.0860  147.1180 C   0  0  0  0  0  3  0  0  0  0  0  0
  189.9590  175.1510  147.1860 C   0  0  0  0  0  3  0  0  0  0  0  0
  188.4730  177.4730  146.7190 C   0  0  0  0  0  3  0  0  0  0  0  0
  189.8670  177.5370  146.7840 C   0  0  0  0  0  3  0  0  0  0  0  0
  187.8210  176.2470  146.8890 C   0  0  0  0  0  3  0  0  0  0  0  0
  195.3150  175.4840  142.2790 C   0  0  0  0  0  2  0  0  0  0  0  0
  197.1570  177.1400  143.1430 N   0  0  0  0  0  0  0  0  0  0  0  0
  196.3430  176.4120  142.7630 C   0  0  0  0  0  0  0  0  0  0  0  0
  1  3  1  0  0  0  0
  1  5  1  0  0  0  0
  2 17  1  1  0  0  0
  3 25  1  6  0  0  0
  3  4  1  0  0  0  0
  4  2  1  0  0  0  0
  5  2  1  0  0  0  0
  6  5  1  0  0  0  0
  7  6  1  0  0  0  0
  8  6  2  0  0  0  0
  9 10  1  0  0  0  0
  9  7  2  0  0  0  0
 10  8  1  0  0  0  0
 11 10  1  0  0  0  0
 12 11  1  0  0  0  0
 12 13  1  0  0  0  0
 13 14  1  0  0  0  0
 14 16  1  0  0  0  0
 16 15  1  0  0  0  0
 17 18  1  0  0  0  0
 19 18  1  0  0  0  0
 19 21  1  0  0  0  0
 20 21  2  0  0  0  0
 22 23  1  0  0  0  0
 22 24  2  0  0  0  0
 23 19  2  0  0  0  0
 24 20  1  0  0  0  0
 25 27  1  0  0  0  0
 27 26  3  0  0  0  0
M  END
>  <MODEL>
7

>  <REMARK>
 VINA RESULT:      -5.8      2.116      3.011
  Name = 
  11 active torsions:
  status: ('A' for Active; 'I' for Inactive)
    1  A    between atoms: C_1  and  C_5
    2  A    between atoms: C_1  and  N_18
    3  A    between atoms: C_2  and  N_23
    4  A    between atoms: C_3  and  N_7
    5  A    between atoms: C_3  and  C_17
    6  A    between atoms: N_7  and  N_11
    7  A    between atoms: C_10  and  N_18
    8  A    between atoms: N_11  and  N_21
    9  A    between atoms: N_13  and  C_17
   10  A    between atoms: C_14  and  C_19
   11  A    between atoms: C_19  and  C_26
                            x       y       z     vdW  Elec       q    Type
                         _______ _______ _______ _____ _____    ______ ____

>  <TORSDO>
F 11

$$$$
=
 OpenBabel11042415103D

 27 29  0  0  1  0  0  0  0  0999 V2000
  190.0460  174.8840  145.8610 S   0  0  0  0  0  0  0  0  0  0  0  0
  188.3710  176.9770  146.1370 C   0  0  1  0  0  3  0  0  0  0  0  0
  190.4200  176.1890  147.0190 C   0  0  2  0  0  3  0  0  0  0  0  0
  189.5190  177.1700  147.0690 C   0  0  0  0  0  2  0  0  0  0  0  0
  188.8120  175.9580  145.1940 N   0  0  0  0  0  0  0  0  0  0  0  0
  188.6430  176.1130  143.7800 C   0  0  0  0  0  0  0  0  0  0  0  0
  188.6330  177.3220  143.1040 C   0  0  0  0  0  3  0  0  0  0  0  0
  188.4840  175.0880  142.8740 C   0  0  0  0  0  3  0  0  0  0  0  0
  188.4670  176.9830  141.7720 C   0  0  0  0  0  3  0  0  0  0  0  0
  188.3890  175.6440  141.6570 N   0  0  0  0  0  0  0  0  0  0  0  0
  188.1770  174.9120  140.4200 C   0  0  0  0  0  2  0  0  0  0  0  0
  188.5990  173.4660  140.5930 C   0  0  0  0  0  2  0  0  0  0  0  0
  189.9730  173.3120  140.1580 N   0  0  0  0  0  2  0  0  0  0  0  0
  190.6740  172.7310  141.2230 N   0  0  0  0  0  2  0  0  0  0  0  0
  190.4410  170.5670  141.7840 N   0  0  0  0  0  1  0  0  0  0  0  0
  189.8040  171.8130  141.8240 N   0  0  0  0  0  2  0  0  0  0  0  0
  187.2190  176.4870  146.8820 N   0  0  0  0  0  2  0  0  0  0  0  0
  186.2620  177.5780  147.0030 C   0  0  0  0  0  2  0  0  0  0  0  0
  185.8160  178.0570  145.6590 C   0  0  0  0  0  0  0  0  0  0  0  0
  184.9020  177.5630  143.4680 C   0  0  0  0  0  3  0  0  0  0  0  0
  185.3110  177.1360  144.7350 C   0  0  0  0  0  3  0  0  0  0  0  0
  185.5310  179.8330  144.0290 C   0  0  0  0  0  3  0  0  0  0  0  0
  185.9420  179.4060  145.2940 C   0  0  0  0  0  3  0  0  0  0  0  0
  185.0080  178.9110  143.1170 C   0  0  0  0  0  3  0  0  0  0  0  0
  191.6990  176.2300  147.7870 C   0  0  0  0  0  2  0  0  0  0  0  0
  193.7420  176.4960  146.1620 N   0  0  0  0  0  0  0  0  0  0  0  0
  192.8420  176.3760  146.8800 C   0  0  0  0  0  0  0  0  0  0  0  0
  1  3  1  0  0  0  0
  2 17  1  1  0  0  0
  2  4  1  0  0  0  0
  3  4  1  0  0  0  0
  3 25  1  6  0  0  0
  5  1  1  0  0  0  0
  5  2  1  0  0  0  0
  6  5  1  0  0  0  0
  7  6  1  0  0  0  0
  8  6  2  0  0  0  0
  9  7  2  0  0  0  0
 10  9  1  0  0  0  0
 10  8  1  0  0  0  0
 11 12  1  0  0  0  0
 11 10  1  0  0  0  0
 13 12  1  0  0  0  0
 13 14  1  0  0  0  0
 14 16  1  0  0  0  0
 15 16  1  0  0  0  0
 17 18  1  0  0  0  0
 19 18  1  0  0  0  0
 20 21  1  0  0  0  0
 21 19  2  0  0  0  0
 22 23  2  0  0  0  0
 23 19  1  0  0  0  0
 24 20  2  0  0  0  0
 24 22  1  0  0  0  0
 26 27  3  0  0  0  0
 27 25  1  0  0  0  0
M  END
>  <MODEL>
8

>  <REMARK>
 VINA RESULT:      -5.7      2.393      4.123
  Name = 
  11 active torsions:
  status: ('A' for Active; 'I' for Inactive)
    1  A    between atoms: C_1  and  C_5
    2  A    between atoms: C_1  and  N_18
    3  A    between atoms: C_2  and  N_23
    4  A    between atoms: C_3  and  N_7
    5  A    between atoms: C_3  and  C_17
    6  A    between atoms: N_7  and  N_11
    7  A    between atoms: C_10  and  N_18
    8  A    between atoms: N_11  and  N_21
    9  A    between atoms: N_13  and  C_17
   10  A    between atoms: C_14  and  C_19
   11  A    between atoms: C_19  and  C_26
                            x       y       z     vdW  Elec       q    Type
                         _______ _______ _______ _____ _____    ______ ____

>  <TORSDO>
F 11

$$$$
=
 OpenBabel11042415103D

 27 29  0  0  1  0  0  0  0  0999 V2000
  185.4400  179.3700  144.6700 S   0  0  0  0  0  0  0  0  0  0  0  0
  186.3840  177.0210  143.7480 C   0  0  1  0  0  3  0  0  0  0  0  0
  185.7190  178.0100  145.7920 C   0  0  2  0  0  3  0  0  0  0  0  0
  186.1870  176.9000  145.2210 C   0  0  0  0  0  2  0  0  0  0  0  0
  185.6290  178.2040  143.3570 N   0  0  0  0  0  0  0  0  0  0  0  0
  184.7420  178.1960  142.2320 C   0  0  0  0  0  0  0  0  0  0  0  0
  185.1340  178.1360  140.9050 C   0  0  0  0  0  3  0  0  0  0  0  0
  183.3660  178.2280  142.2960 C   0  0  0  0  0  3  0  0  0  0  0  0
  183.9520  178.1300  140.1850 C   0  0  0  0  0  3  0  0  0  0  0  0
  182.9090  178.1770  141.0360 N   0  0  0  0  0  0  0  0  0  0  0  0
  181.5080  178.2230  140.6540 C   0  0  0  0  0  2  0  0  0  0  0  0
  180.7440  179.1330  141.5960 C   0  0  0  0  0  2  0  0  0  0  0  0
  179.4290  179.3990  141.0450 N   0  0  0  0  0  2  0  0  0  0  0  0
  178.5030  179.1490  142.0660 N   0  0  0  0  0  2  0  0  0  0  0  0
  178.3290  178.5620  144.2280 N   0  0  0  0  0  1  0  0  0  0  0  0
  179.2400  178.9590  143.2410 N   0  0  0  0  0  2  0  0  0  0  0  0
  187.7980  177.2270  143.4640 N   0  0  0  0  0  2  0  0  0  0  0  0
  188.1400  176.4470  142.2830 C   0  0  0  0  0  2  0  0  0  0  0  0
  188.5750  175.0650  142.6550 C   0  0  0  0  0  0  0  0  0  0  0  0
  188.4400  172.6700  142.2990 C   0  0  0  0  0  3  0  0  0  0  0  0
  188.0560  173.9700  141.9560 C   0  0  0  0  0  3  0  0  0  0  0  0
  189.8420  173.5500  144.0660 C   0  0  0  0  0  3  0  0  0  0  0  0
  189.4560  174.8490  143.7250 C   0  0  0  0  0  3  0  0  0  0  0  0
  189.3360  172.4610  143.3500 C   0  0  0  0  0  3  0  0  0  0  0  0
  185.3480  178.0800  147.2350 C   0  0  0  0  0  2  0  0  0  0  0  0
  187.2680  179.1990  148.6300 N   0  0  0  0  0  0  0  0  0  0  0  0
  186.4200  178.7080  148.0150 C   0  0  0  0  0  0  0  0  0  0  0  0
  1  3  1  0  0  0  0
  2 17  1  1  0  0  0
  2  4  1  0  0  0  0
  3 25  1  6  0  0  0
  4  3  1  0  0  0  0
  5  2  1  0  0  0  0
  5  1  1  0  0  0  0
  6  8  2  0  0  0  0
  6  5  1  0  0  0  0
  7  6  1  0  0  0  0
  9  7  2  0  0  0  0
  9 10  1  0  0  0  0
 10  8  1  0  0  0  0
 11 10  1  0  0  0  0
 11 12  1  0  0  0  0
 13 12  1  0  0  0  0
 13 14  1  0  0  0  0
 14 16  1  0  0  0  0
 16 15  1  0  0  0  0
 18 19  1  0  0  0  0
 18 17  1  0  0  0  0
 19 23  1  0  0  0  0
 20 24  2  0  0  0  0
 21 20  1  0  0  0  0
 21 19  2  0  0  0  0
 23 22  2  0  0  0  0
 24 22  1  0  0  0  0
 25 27  1  0  0  0  0
 27 26  3  0  0  0  0
M  END
>  <MODEL>
9

>  <REMARK>
 VINA RESULT:      -5.6      3.568      6.374
  Name = 
  11 active torsions:
  status: ('A' for Active; 'I' for Inactive)
    1  A    between atoms: C_1  and  C_5
    2  A    between atoms: C_1  and  N_18
    3  A    between atoms: C_2  and  N_23
    4  A    between atoms: C_3  and  N_7
    5  A    between atoms: C_3  and  C_17
    6  A    between atoms: N_7  and  N_11
    7  A    between atoms: C_10  and  N_18
    8  A    between atoms: N_11  and  N_21
    9  A    between atoms: N_13  and  C_17
   10  A    between atoms: C_14  and  C_19
   11  A    between atoms: C_19  and  C_26
                            x       y       z     vdW  Elec       q    Type
                         _______ _______ _______ _____ _____    ______ ____

>  <TORSDO>
F 11

$$$$
