=
 OpenBabel11042418593D

 41 46  0  0  1  0  0  0  0  0999 V2000
  190.7460  175.9970  144.0380 C   0  0  1  0  0  0  0  0  0  0  0  0
  190.4820  174.7650  144.8730 C   0  0  0  0  0  2  0  0  0  0  0  0
  191.6310  176.4050  146.2310 N   0  0  0  0  0  0  0  0  0  0  0  0
  191.1080  175.0390  146.2410 C   0  0  0  0  0  2  0  0  0  0  0  0
  191.7830  176.7740  144.8320 C   0  0  0  0  0  2  0  0  0  0  0  0
  192.2350  174.5900  142.7520 O   0  0  0  0  0  1  0  0  0  0  0  0
  191.2710  175.5980  142.6570 C   0  0  0  0  0  2  0  0  0  0  0  0
  192.9700  176.3480  146.7990 C   0  0  0  0  0  2  0  0  0  0  0  0
  193.7920  175.2520  146.1210 C   0  0  0  0  0  2  0  0  0  0  0  0
  195.1750  175.6870  145.9540 N   0  0  0  0  0  2  0  0  0  0  0  0
  195.8820  174.6620  145.1870 C   0  0  1  0  0  3  0  0  0  0  0  0
  195.4100  176.2100  142.5160 C   0  0  1  0  0  3  0  0  0  0  0  0
  197.0840  175.7340  140.9770 C   0  0  0  0  0  3  0  0  0  0  0  0
  196.6090  175.2640  144.0640 N   0  0  0  0  0  0  0  0  0  0  0  0
  196.0650  176.6040  143.8260 C   0  0  0  0  0  2  0  0  0  0  0  0
  196.9820  174.5820  141.7990 N   0  0  0  0  0  2  0  0  0  0  0  0
  196.2260  176.6700  141.3460 C   0  0  0  0  0  3  0  0  0  0  0  0
  195.9710  174.8240  142.8210 C   0  0  2  0  0  3  0  0  0  0  0  0
  196.7980  173.9070  146.0560 N   0  0  0  0  0  2  0  0  0  0  0  0
  196.5030  172.4780  145.9760 C   0  0  0  0  0  2  0  0  0  0  0  0
  197.3470  171.8360  144.8880 C   0  0  0  0  0  2  0  0  0  0  0  0
  197.6110  170.3770  145.2160 C   0  0  0  0  0  1  0  0  0  0  0  0
  189.4920  176.7500  143.9170 N   0  0  0  0  0  2  0  0  0  0  0  0
  188.3370  175.8550  143.8960 C   0  0  0  0  0  2  0  0  0  0  0  0
  186.9240  176.6800  145.8520 C   0  0  1  0  0  0  0  0  0  0  0  0
  186.0450  177.3680  146.9010 C   0  0  2  0  0  3  0  0  0  0  0  0
  187.4340  177.8290  145.0340 N   0  0  0  0  0  2  0  0  0  0  0  0
  187.1000  176.6020  144.3620 C   0  0  1  0  0  0  0  0  0  0  0  0
  185.5050  176.5280  145.9540 O   0  0  0  0  0  0  0  0  0  0  0  0
  185.5170  178.8040  146.6880 C   0  0  0  0  0  0  0  0  0  0  0  0
  185.6880  179.5390  147.8520 F   0  0  0  0  0  0  0  0  0  0  0  0
  186.1500  179.4610  145.6370 F   0  0  0  0  0  0  0  0  0  0  0  0
  184.1660  178.7290  146.4140 F   0  0  0  0  0  0  0  0  0  0  0  0
  185.9340  176.7970  143.3740 C   0  0  0  0  0  2  0  0  0  0  0  0
  183.7570  178.1810  141.4420 C   0  0  0  0  0  0  0  0  0  0  0  0
  186.1290  178.4730  141.4820 C   0  0  1  0  0  3  0  0  0  0  0  0
  184.0050  178.7410  143.1190 S   0  0  0  0  0  0  0  0  0  0  0  0
  185.7530  178.2590  142.9530 C   0  0  1  0  0  3  0  0  0  0  0  0
  187.3000  177.7920  141.1340 O   0  0  0  0  0  1  0  0  0  0  0  0
  182.6540  177.8650  141.0250 O   0  0  0  0  0  0  0  0  0  0  0  0
  184.9710  178.0360  140.6030 C   0  0  0  0  0  2  0  0  0  0  0  0
  1  7  1  6  0  0  0
  1  5  1  0  0  0  0
  1  2  1  0  0  0  0
  2  4  1  0  0  0  0
  3  4  1  0  0  0  0
  3  8  1  0  0  0  0
  5  3  1  0  0  0  0
  7  6  1  0  0  0  0
  9  8  1  0  0  0  0
 10  9  1  0  0  0  0
 11 10  1  1  0  0  0
 11 19  1  0  0  0  0
 12 17  1  6  0  0  0
 12 18  1  0  0  0  0
 12 15  1  0  0  0  0
 13 17  2  0  0  0  0
 13 16  1  0  0  0  0
 14 11  1  0  0  0  0
 15 14  1  0  0  0  0
 18 16  1  6  0  0  0
 18 14  1  0  0  0  0
 20 19  1  0  0  0  0
 21 22  1  0  0  0  0
 21 20  1  0  0  0  0
 23  1  1  0  0  0  0
 24 23  1  0  0  0  0
 24 28  1  0  0  0  0
 25 27  1  6  0  0  0
 25 29  1  0  0  0  0
 25 26  1  0  0  0  0
 26 30  1  6  0  0  0
 28 34  1  6  0  0  0
 28 27  1  0  0  0  0
 28 25  1  0  0  0  0
 29 26  1  0  0  0  0
 30 31  1  0  0  0  0
 32 30  1  0  0  0  0
 33 30  1  0  0  0  0
 35 37  1  0  0  0  0
 36 39  1  6  0  0  0
 36 38  1  0  0  0  0
 38 37  1  0  0  0  0
 38 34  1  6  0  0  0
 40 35  2  0  0  0  0
 41 35  1  0  0  0  0
 41 36  1  0  0  0  0
M  END
>  <MODEL>
1

>  <REMARK>
 VINA RESULT:      -7.2      0.000      0.000
  Name = 
  15 active torsions:
  status: ('A' for Active; 'I' for Inactive)
    1  A    between atoms: C_2  and  N_26
    2  A    between atoms: C_2  and  C_30
    3  A    between atoms: C_5  and  C_32
    4  A    between atoms: C_6  and  C_7
    5  A    between atoms: N_11  and  C_31
    6  A    between atoms: C_12  and  C_19
    7  A    between atoms: C_12  and  N_21
    8  A    between atoms: C_15  and  N_21
    9  A    between atoms: C_15  and  C_39
   10  A    between atoms: C_19  and  C_41
   11  A    between atoms: C_23  and  C_41
   12  A    between atoms: C_30  and  N_34
   13  A    between atoms: C_31  and  N_34
   14  A    between atoms: C_31  and  N_40
   15  A    between atoms: C_32  and  N_40
                            x       y       z     vdW  Elec       q    Type
                         _______ _______ _______ _____ _____    ______ ____

>  <TORSDO>
F 15

$$$$
=
 OpenBabel11042418593D

 41 46  0  0  1  0  0  0  0  0999 V2000
  190.6430  172.1890  142.4920 C   0  0  1  0  0  0  0  0  0  0  0  0
  191.0550  173.0330  141.3080 C   0  0  0  0  0  2  0  0  0  0  0  0
  189.3440  174.2060  142.5520 N   0  0  0  0  0  0  0  0  0  0  0  0
  190.1700  174.2790  141.3470 C   0  0  0  0  0  2  0  0  0  0  0  0
  189.3360  172.8080  142.9580 C   0  0  0  0  0  2  0  0  0  0  0  0
  190.8320  170.5420  140.7300 O   0  0  0  0  0  1  0  0  0  0  0  0
  190.4580  170.7320  142.0630 C   0  0  0  0  0  2  0  0  0  0  0  0
  187.9840  174.5360  142.1530 C   0  0  0  0  0  2  0  0  0  0  0  0
  187.9880  175.6970  141.1570 C   0  0  0  0  0  2  0  0  0  0  0  0
  187.8610  176.9680  141.8620 N   0  0  0  0  0  2  0  0  0  0  0  0
  187.0010  176.7560  143.0260 C   0  0  1  0  0  3  0  0  0  0  0  0
  189.2690  176.6460  145.1720 C   0  0  1  0  0  3  0  0  0  0  0  0
  188.5640  177.6020  147.1690 C   0  0  0  0  0  3  0  0  0  0  0  0
  187.5170  177.4830  144.1920 N   0  0  0  0  0  0  0  0  0  0  0  0
  188.9690  177.6190  144.0470 C   0  0  0  0  0  2  0  0  0  0  0  0
  187.3900  177.0980  146.5510 N   0  0  0  0  0  2  0  0  0  0  0  0
  189.6370  177.3750  146.4290 C   0  0  0  0  0  3  0  0  0  0  0  0
  187.7520  176.5140  145.2650 C   0  0  2  0  0  3  0  0  0  0  0  0
  185.6190  177.1620  142.7280 N   0  0  0  0  0  2  0  0  0  0  0  0
  185.4270  178.5720  143.0610 C   0  0  0  0  0  2  0  0  0  0  0  0
  184.0800  178.7640  143.7390 C   0  0  0  0  0  2  0  0  0  0  0  0
  184.2540  178.8370  145.2460 C   0  0  0  0  0  1  0  0  0  0  0  0
  191.6840  172.2980  143.5210 N   0  0  0  0  0  2  0  0  0  0  0  0
  192.9210  172.8430  142.9670 C   0  0  0  0  0  2  0  0  0  0  0  0
  193.9410  175.0300  143.7930 C   0  0  1  0  0  0  0  0  0  0  0  0
  194.4790  176.2790  144.5000 C   0  0  2  0  0  3  0  0  0  0  0  0
  192.8780  174.5420  144.7330 N   0  0  0  0  0  2  0  0  0  0  0  0
  193.6930  173.5710  144.0530 C   0  0  1  0  0  0  0  0  0  0  0  0
  195.2660  175.1650  144.3180 O   0  0  0  0  0  0  0  0  0  0  0  0
  194.2420  176.5110  146.0090 C   0  0  0  0  0  0  0  0  0  0  0  0
  192.8810  176.6120  146.2550 F   0  0  0  0  0  0  0  0  0  0  0  0
  194.7760  175.4990  146.8000 F   0  0  0  0  0  0  0  0  0  0  0  0
  194.8380  177.7060  146.3580 F   0  0  0  0  0  0  0  0  0  0  0  0
  194.5360  172.7460  145.0450 C   0  0  0  0  0  2  0  0  0  0  0  0
  195.4170  169.8740  146.2130 C   0  0  0  0  0  0  0  0  0  0  0  0
  196.6870  171.4120  144.8950 C   0  0  1  0  0  3  0  0  0  0  0  0
  194.3870  170.0140  144.7620 S   0  0  0  0  0  0  0  0  0  0  0  0
  195.2530  171.5690  144.3760 C   0  0  1  0  0  3  0  0  0  0  0  0
  197.3400  172.6430  145.0150 O   0  0  0  0  0  1  0  0  0  0  0  0
  195.0860  169.2000  147.1750 O   0  0  0  0  0  0  0  0  0  0  0  0
  196.6570  170.6860  146.2280 C   0  0  0  0  0  2  0  0  0  0  0  0
  1  7  1  6  0  0  0
  1  5  1  0  0  0  0
  1 23  1  0  0  0  0
  2  4  1  0  0  0  0
  2  1  1  0  0  0  0
  3  5  1  0  0  0  0
  4  3  1  0  0  0  0
  6  7  1  0  0  0  0
  8  3  1  0  0  0  0
  9 10  1  0  0  0  0
  9  8  1  0  0  0  0
 11 10  1  6  0  0  0
 11 14  1  0  0  0  0
 12 15  1  6  0  0  0
 12 18  1  0  0  0  0
 12 17  1  0  0  0  0
 14 18  1  0  0  0  0
 15 14  1  0  0  0  0
 16 13  1  0  0  0  0
 17 13  2  0  0  0  0
 18 16  1  1  0  0  0
 19 11  1  0  0  0  0
 19 20  1  0  0  0  0
 20 21  1  0  0  0  0
 21 22  1  0  0  0  0
 24 23  1  0  0  0  0
 25 28  1  0  0  0  0
 25 29  1  1  0  0  0
 25 26  1  0  0  0  0
 25 27  1  0  0  0  0
 26 30  1  1  0  0  0
 28 24  1  6  0  0  0
 28 27  1  0  0  0  0
 28 34  1  0  0  0  0
 29 26  1  0  0  0  0
 30 31  1  0  0  0  0
 30 33  1  0  0  0  0
 30 32  1  0  0  0  0
 35 41  1  0  0  0  0
 35 40  2  0  0  0  0
 36 39  1  1  0  0  0
 36 41  1  0  0  0  0
 37 35  1  0  0  0  0
 38 37  1  0  0  0  0
 38 36  1  0  0  0  0
 38 34  1  1  0  0  0
M  END
>  <MODEL>
2

>  <REMARK>
 VINA RESULT:      -7.1      4.603      9.830
  Name = 
  15 active torsions:
  status: ('A' for Active; 'I' for Inactive)
    1  A    between atoms: C_2  and  N_26
    2  A    between atoms: C_2  and  C_30
    3  A    between atoms: C_5  and  C_32
    4  A    between atoms: C_6  and  C_7
    5  A    between atoms: N_11  and  C_31
    6  A    between atoms: C_12  and  C_19
    7  A    between atoms: C_12  and  N_21
    8  A    between atoms: C_15  and  N_21
    9  A    between atoms: C_15  and  C_39
   10  A    between atoms: C_19  and  C_41
   11  A    between atoms: C_23  and  C_41
   12  A    between atoms: C_30  and  N_34
   13  A    between atoms: C_31  and  N_34
   14  A    between atoms: C_31  and  N_40
   15  A    between atoms: C_32  and  N_40
                            x       y       z     vdW  Elec       q    Type
                         _______ _______ _______ _____ _____    ______ ____

>  <TORSDO>
F 15

$$$$
=
 OpenBabel11042418593D

 41 46  0  0  1  0  0  0  0  0999 V2000
  189.6710  174.0140  141.7980 C   0  0  1  0  0  0  0  0  0  0  0  0
  188.8780  172.9180  142.4730 C   0  0  0  0  0  2  0  0  0  0  0  0
  191.1860  172.7680  143.1800 N   0  0  0  0  0  0  0  0  0  0  0  0
  189.8830  172.1140  143.2970 C   0  0  0  0  0  2  0  0  0  0  0  0
  191.1200  173.6000  141.9880 C   0  0  0  0  0  2  0  0  0  0  0  0
  190.1660  173.3470  139.5260 O   0  0  0  0  0  1  0  0  0  0  0  0
  189.2960  174.1030  140.3170 C   0  0  0  0  0  2  0  0  0  0  0  0
  192.1620  171.7220  142.9100 C   0  0  0  0  0  2  0  0  0  0  0  0
  193.1000  171.5470  144.1050 C   0  0  0  0  0  2  0  0  0  0  0  0
  194.4490  171.2330  143.6460 N   0  0  0  0  0  2  0  0  0  0  0  0
  195.3790  172.1380  144.3200 C   0  0  1  0  0  3  0  0  0  0  0  0
  196.3490  175.0870  143.9750 C   0  0  1  0  0  3  0  0  0  0  0  0
  194.9870  176.5490  145.1600 C   0  0  0  0  0  3  0  0  0  0  0  0
  194.8780  173.5170  144.2870 N   0  0  0  0  0  0  0  0  0  0  0  0
  195.4640  174.1940  143.1270 C   0  0  0  0  0  2  0  0  0  0  0  0
  194.9280  175.3180  145.8630 N   0  0  0  0  0  2  0  0  0  0  0  0
  195.7670  176.4630  144.0960 C   0  0  0  0  0  3  0  0  0  0  0  0
  195.7330  174.3340  145.1510 C   0  0  2  0  0  3  0  0  0  0  0  0
  195.6120  171.7020  145.7060 N   0  0  0  0  0  2  0  0  0  0  0  0
  196.7570  170.7960  145.7620 C   0  0  0  0  0  2  0  0  0  0  0  0
  196.5190  169.7260  146.8140 C   0  0  0  0  0  2  0  0  0  0  0  0
  195.0530  169.3330  146.8430 C   0  0  0  0  0  1  0  0  0  0  0  0
  189.3830  175.2800  142.4820 N   0  0  0  0  0  2  0  0  0  0  0  0
  188.2540  175.1410  143.3990 C   0  0  0  0  0  2  0  0  0  0  0  0
  189.3540  174.9950  145.6950 C   0  0  1  0  0  0  0  0  0  0  0  0
  190.0810  175.1270  147.0370 C   0  0  2  0  0  3  0  0  0  0  0  0
  189.9830  176.0740  144.8630 N   0  0  0  0  0  2  0  0  0  0  0  0
  188.5740  175.8250  144.7160 C   0  0  1  0  0  0  0  0  0  0  0  0
  188.7360  175.3930  146.9230 O   0  0  0  0  0  0  0  0  0  0  0  0
  190.8390  176.4200  147.4150 C   0  0  0  0  0  0  0  0  0  0  0  0
  191.9220  176.5880  146.5660 F   0  0  0  0  0  0  0  0  0  0  0  0
  190.0330  177.5530  147.3590 F   0  0  0  0  0  0  0  0  0  0  0  0
  191.3120  176.2780  148.7050 F   0  0  0  0  0  0  0  0  0  0  0  0
  187.7370  177.0470  145.1410 C   0  0  0  0  0  2  0  0  0  0  0  0
  185.4860  179.2650  144.5050 C   0  0  0  0  0  0  0  0  0  0  0  0
  185.3520  177.3600  145.9430 C   0  0  1  0  0  3  0  0  0  0  0  0
  185.8440  177.9450  143.3590 S   0  0  0  0  0  0  0  0  0  0  0  0
  186.2520  176.8980  144.7920 C   0  0  1  0  0  3  0  0  0  0  0  0
  185.8190  176.9190  147.1850 O   0  0  0  0  0  1  0  0  0  0  0  0
  185.5070  180.4370  144.1650 O   0  0  0  0  0  0  0  0  0  0  0  0
  185.2460  178.8740  145.9150 C   0  0  0  0  0  2  0  0  0  0  0  0
  1  7  1  6  0  0  0
  1  5  1  0  0  0  0
  1  2  1  0  0  0  0
  1 23  1  0  0  0  0
  2  4  1  0  0  0  0
  3  4  1  0  0  0  0
  5  3  1  0  0  0  0
  6  7  1  0  0  0  0
  8  3  1  0  0  0  0
  8  9  1  0  0  0  0
 10  9  1  0  0  0  0
 11 10  1  1  0  0  0
 11 19  1  0  0  0  0
 12 15  1  6  0  0  0
 12 17  1  0  0  0  0
 12 18  1  0  0  0  0
 13 16  1  0  0  0  0
 14 11  1  0  0  0  0
 14 18  1  0  0  0  0
 15 14  1  0  0  0  0
 17 13  2  0  0  0  0
 18 16  1  1  0  0  0
 19 20  1  0  0  0  0
 20 21  1  0  0  0  0
 21 22  1  0  0  0  0
 23 24  1  0  0  0  0
 25 27  1  1  0  0  0
 25 29  1  0  0  0  0
 25 26  1  0  0  0  0
 26 30  1  6  0  0  0
 28 24  1  6  0  0  0
 28 27  1  0  0  0  0
 28 34  1  0  0  0  0
 28 25  1  0  0  0  0
 29 26  1  0  0  0  0
 30 33  1  0  0  0  0
 31 30  1  0  0  0  0
 32 30  1  0  0  0  0
 35 41  1  0  0  0  0
 36 39  1  1  0  0  0
 37 35  1  0  0  0  0
 37 38  1  0  0  0  0
 38 34  1  1  0  0  0
 38 36  1  0  0  0  0
 40 35  2  0  0  0  0
 41 36  1  0  0  0  0
M  END
>  <MODEL>
3

>  <REMARK>
 VINA RESULT:      -7.1      2.849      4.053
  Name = 
  15 active torsions:
  status: ('A' for Active; 'I' for Inactive)
    1  A    between atoms: C_2  and  N_26
    2  A    between atoms: C_2  and  C_30
    3  A    between atoms: C_5  and  C_32
    4  A    between atoms: C_6  and  C_7
    5  A    between atoms: N_11  and  C_31
    6  A    between atoms: C_12  and  C_19
    7  A    between atoms: C_12  and  N_21
    8  A    between atoms: C_15  and  N_21
    9  A    between atoms: C_15  and  C_39
   10  A    between atoms: C_19  and  C_41
   11  A    between atoms: C_23  and  C_41
   12  A    between atoms: C_30  and  N_34
   13  A    between atoms: C_31  and  N_34
   14  A    between atoms: C_31  and  N_40
   15  A    between atoms: C_32  and  N_40
                            x       y       z     vdW  Elec       q    Type
                         _______ _______ _______ _____ _____    ______ ____

>  <TORSDO>
F 15

$$$$
=
 OpenBabel11042418593D

 41 46  0  0  1  0  0  0  0  0999 V2000
  189.1260  173.5990  141.1910 C   0  0  1  0  0  0  0  0  0  0  0  0
  188.1900  172.7280  141.9980 C   0  0  0  0  0  2  0  0  0  0  0  0
  190.3810  172.6850  143.0210 N   0  0  0  0  0  0  0  0  0  0  0  0
  189.0360  172.1200  143.1170 C   0  0  0  0  0  2  0  0  0  0  0  0
  190.5130  173.1990  141.6670 C   0  0  0  0  0  2  0  0  0  0  0  0
  189.1850  171.9920  139.3850 O   0  0  0  0  0  1  0  0  0  0  0  0
  188.9410  173.3320  139.6960 C   0  0  0  0  0  2  0  0  0  0  0  0
  191.3150  171.5750  143.1430 C   0  0  0  0  0  2  0  0  0  0  0  0
  192.3890  171.8930  144.1850 C   0  0  0  0  0  2  0  0  0  0  0  0
  193.7010  171.4750  143.7030 N   0  0  0  0  0  2  0  0  0  0  0  0
  194.7100  172.3050  144.3600 C   0  0  1  0  0  3  0  0  0  0  0  0
  195.8740  175.2040  144.3890 C   0  0  1  0  0  3  0  0  0  0  0  0
  194.4510  176.6540  145.5150 C   0  0  0  0  0  3  0  0  0  0  0  0
  194.2920  173.7110  144.3810 N   0  0  0  0  0  0  0  0  0  0  0  0
  195.0590  174.4370  143.3640 C   0  0  0  0  0  2  0  0  0  0  0  0
  194.2350  175.3780  146.0980 N   0  0  0  0  0  2  0  0  0  0  0  0
  195.3560  176.6000  144.5530 C   0  0  0  0  0  3  0  0  0  0  0  0
  195.0720  174.4030  145.4100 C   0  0  2  0  0  3  0  0  0  0  0  0
  194.9710  171.8180  145.7230 N   0  0  0  0  0  2  0  0  0  0  0  0
  195.4810  170.4490  145.6780 C   0  0  0  0  0  2  0  0  0  0  0  0
  196.9310  170.4220  146.1330 C   0  0  0  0  0  2  0  0  0  0  0  0
  197.5990  169.1340  145.6890 C   0  0  0  0  0  1  0  0  0  0  0  0
  188.8370  175.0030  141.5070 N   0  0  0  0  0  2  0  0  0  0  0  0
  187.4990  175.1520  142.0750 C   0  0  0  0  0  2  0  0  0  0  0  0
  186.4140  177.4510  142.2890 C   0  0  1  0  0  0  0  0  0  0  0  0
  185.7660  178.7920  142.6470 C   0  0  2  0  0  3  0  0  0  0  0  0
  186.1400  176.6100  143.5010 N   0  0  0  0  0  2  0  0  0  0  0  0
  187.4060  176.4640  142.8340 C   0  0  1  0  0  0  0  0  0  0  0  0
  187.1290  178.6740  142.4890 O   0  0  0  0  0  0  0  0  0  0  0  0
  185.4400  179.1600  144.1120 C   0  0  0  0  0  0  0  0  0  0  0  0
  184.3370  178.4350  144.5380 F   0  0  0  0  0  0  0  0  0  0  0  0
  186.5040  178.9240  144.9770 F   0  0  0  0  0  0  0  0  0  0  0  0
  185.1230  180.5030  144.1560 F   0  0  0  0  0  0  0  0  0  0  0  0
  188.5780  176.8770  143.7470 C   0  0  0  0  0  2  0  0  0  0  0  0
  189.6090  177.1270  146.7900 C   0  0  0  0  0  0  0  0  0  0  0  0
  190.4460  175.7420  145.0300 C   0  0  1  0  0  3  0  0  0  0  0  0
  188.1520  176.1830  146.3740 S   0  0  0  0  0  0  0  0  0  0  0  0
  188.9360  175.8000  144.7750 C   0  0  1  0  0  3  0  0  0  0  0  0
  191.1830  175.8410  143.8460 O   0  0  0  0  0  1  0  0  0  0  0  0
  189.5860  178.0070  147.6350 O   0  0  0  0  0  0  0  0  0  0  0  0
  190.8300  176.8480  145.9980 C   0  0  0  0  0  2  0  0  0  0  0  0
  1  7  1  6  0  0  0
  1 23  1  0  0  0  0
  1  5  1  0  0  0  0
  1  2  1  0  0  0  0
  2  4  1  0  0  0  0
  3  4  1  0  0  0  0
  3  8  1  0  0  0  0
  5  3  1  0  0  0  0
  6  7  1  0  0  0  0
  8  9  1  0  0  0  0
 10  9  1  0  0  0  0
 11 10  1  1  0  0  0
 11 14  1  0  0  0  0
 11 19  1  0  0  0  0
 12 15  1  6  0  0  0
 12 17  1  0  0  0  0
 12 18  1  0  0  0  0
 13 16  1  0  0  0  0
 14 18  1  0  0  0  0
 15 14  1  0  0  0  0
 17 13  2  0  0  0  0
 18 16  1  1  0  0  0
 20 19  1  0  0  0  0
 20 21  1  0  0  0  0
 22 21  1  0  0  0  0
 23 24  1  0  0  0  0
 25 29  1  1  0  0  0
 25 26  1  0  0  0  0
 25 28  1  0  0  0  0
 25 27  1  0  0  0  0
 26 30  1  1  0  0  0
 28 24  1  6  0  0  0
 28 27  1  0  0  0  0
 28 34  1  0  0  0  0
 29 26  1  0  0  0  0
 30 33  1  0  0  0  0
 30 31  1  0  0  0  0
 30 32  1  0  0  0  0
 35 40  2  0  0  0  0
 36 39  1  6  0  0  0
 36 41  1  0  0  0  0
 37 35  1  0  0  0  0
 38 34  1  6  0  0  0
 38 36  1  0  0  0  0
 38 37  1  0  0  0  0
 41 35  1  0  0  0  0
M  END
>  <MODEL>
4

>  <REMARK>
 VINA RESULT:      -7.1      2.713      4.431
  Name = 
  15 active torsions:
  status: ('A' for Active; 'I' for Inactive)
    1  A    between atoms: C_2  and  N_26
    2  A    between atoms: C_2  and  C_30
    3  A    between atoms: C_5  and  C_32
    4  A    between atoms: C_6  and  C_7
    5  A    between atoms: N_11  and  C_31
    6  A    between atoms: C_12  and  C_19
    7  A    between atoms: C_12  and  N_21
    8  A    between atoms: C_15  and  N_21
    9  A    between atoms: C_15  and  C_39
   10  A    between atoms: C_19  and  C_41
   11  A    between atoms: C_23  and  C_41
   12  A    between atoms: C_30  and  N_34
   13  A    between atoms: C_31  and  N_34
   14  A    between atoms: C_31  and  N_40
   15  A    between atoms: C_32  and  N_40
                            x       y       z     vdW  Elec       q    Type
                         _______ _______ _______ _____ _____    ______ ____

>  <TORSDO>
F 15

$$$$
=
 OpenBabel11042418593D

 41 46  0  0  1  0  0  0  0  0999 V2000
  188.9990  173.5070  141.2190 C   0  0  1  0  0  0  0  0  0  0  0  0
  188.3930  172.6280  142.2890 C   0  0  0  0  0  2  0  0  0  0  0  0
  190.7750  172.8080  142.6750 N   0  0  0  0  0  0  0  0  0  0  0  0
  189.5580  172.1570  143.1600 C   0  0  0  0  0  2  0  0  0  0  0  0
  190.4920  173.2390  141.3140 C   0  0  0  0  0  2  0  0  0  0  0  0
  188.4690  174.2160  138.9680 O   0  0  0  0  0  1  0  0  0  0  0  0
  188.4420  173.1290  139.8460 C   0  0  0  0  0  2  0  0  0  0  0  0
  191.7990  171.7770  142.5860 C   0  0  0  0  0  2  0  0  0  0  0  0
  192.4540  171.5580  143.9500 C   0  0  0  0  0  2  0  0  0  0  0  0
  192.7960  172.8390  144.5590 N   0  0  0  0  0  2  0  0  0  0  0  0
  193.9610  172.6350  145.4190 C   0  0  1  0  0  3  0  0  0  0  0  0
  196.3970  170.8380  146.1870 C   0  0  1  0  0  3  0  0  0  0  0  0
  197.6600  170.3090  144.3100 C   0  0  0  0  0  3  0  0  0  0  0  0
  194.8240  171.5780  144.8810 N   0  0  0  0  0  0  0  0  0  0  0  0
  194.9440  170.5210  145.8890 C   0  0  0  0  0  2  0  0  0  0  0  0
  197.0610  171.5640  144.0270 N   0  0  0  0  0  2  0  0  0  0  0  0
  197.3110  169.8650  145.5060 C   0  0  0  0  0  3  0  0  0  0  0  0
  196.2170  171.9440  145.1530 C   0  0  2  0  0  3  0  0  0  0  0  0
  194.7120  173.8910  145.5780 N   0  0  0  0  0  2  0  0  0  0  0  0
  194.3860  174.8110  144.4900 C   0  0  0  0  0  2  0  0  0  0  0  0
  194.6840  176.2400  144.9170 C   0  0  0  0  0  2  0  0  0  0  0  0
  194.4800  176.3970  146.4130 C   0  0  0  0  0  1  0  0  0  0  0  0
  188.6860  174.9050  141.5390 N   0  0  0  0  0  2  0  0  0  0  0  0
  187.4340  175.0090  142.2840 C   0  0  0  0  0  2  0  0  0  0  0  0
  186.3580  177.3200  142.3630 C   0  0  1  0  0  0  0  0  0  0  0  0
  185.7170  178.6840  142.6420 C   0  0  2  0  0  3  0  0  0  0  0  0
  186.0900  176.5570  143.6270 N   0  0  0  0  0  2  0  0  0  0  0  0
  187.3510  176.3650  142.9620 C   0  0  1  0  0  0  0  0  0  0  0  0
  187.0770  178.5510  142.4820 O   0  0  0  0  0  0  0  0  0  0  0  0
  185.4010  179.1420  144.0830 C   0  0  0  0  0  0  0  0  0  0  0  0
  184.2560  178.5030  144.5340 F   0  0  0  0  0  0  0  0  0  0  0  0
  186.4440  178.8910  144.9690 F   0  0  0  0  0  0  0  0  0  0  0  0
  185.1610  180.5020  144.0580 F   0  0  0  0  0  0  0  0  0  0  0  0
  188.5290  176.8300  143.8390 C   0  0  0  0  0  2  0  0  0  0  0  0
  189.8050  177.0390  146.7920 C   0  0  0  0  0  0  0  0  0  0  0  0
  190.5460  175.7430  144.9250 C   0  0  1  0  0  3  0  0  0  0  0  0
  188.3580  176.0440  146.4700 S   0  0  0  0  0  0  0  0  0  0  0  0
  189.0190  175.7410  144.7990 C   0  0  1  0  0  3  0  0  0  0  0  0
  191.1750  175.9080  143.6860 O   0  0  0  0  0  1  0  0  0  0  0  0
  189.8180  177.8930  147.6630 O   0  0  0  0  0  0  0  0  0  0  0  0
  190.9650  176.8370  145.8910 C   0  0  0  0  0  2  0  0  0  0  0  0
  1  7  1  6  0  0  0
  1  5  1  0  0  0  0
  1 23  1  0  0  0  0
  1  2  1  0  0  0  0
  2  4  1  0  0  0  0
  3  4  1  0  0  0  0
  5  3  1  0  0  0  0
  6  7  1  0  0  0  0
  8  3  1  0  0  0  0
  8  9  1  0  0  0  0
  9 10  1  0  0  0  0
 11 10  1  6  0  0  0
 11 19  1  0  0  0  0
 12 17  1  6  0  0  0
 13 17  2  0  0  0  0
 14 18  1  0  0  0  0
 14 11  1  0  0  0  0
 14 15  1  0  0  0  0
 15 12  1  0  0  0  0
 16 13  1  0  0  0  0
 18 16  1  6  0  0  0
 18 12  1  0  0  0  0
 20 21  1  0  0  0  0
 20 19  1  0  0  0  0
 21 22  1  0  0  0  0
 23 24  1  0  0  0  0
 25 29  1  1  0  0  0
 25 26  1  0  0  0  0
 25 28  1  0  0  0  0
 25 27  1  0  0  0  0
 26 30  1  1  0  0  0
 28 24  1  6  0  0  0
 28 27  1  0  0  0  0
 28 34  1  0  0  0  0
 29 26  1  0  0  0  0
 30 31  1  0  0  0  0
 30 32  1  0  0  0  0
 33 30  1  0  0  0  0
 35 40  2  0  0  0  0
 36 39  1  6  0  0  0
 36 41  1  0  0  0  0
 37 35  1  0  0  0  0
 38 34  1  6  0  0  0
 38 36  1  0  0  0  0
 38 37  1  0  0  0  0
 41 35  1  0  0  0  0
M  END
>  <MODEL>
5

>  <REMARK>
 VINA RESULT:      -7.0      2.752      5.007
  Name = 
  15 active torsions:
  status: ('A' for Active; 'I' for Inactive)
    1  A    between atoms: C_2  and  N_26
    2  A    between atoms: C_2  and  C_30
    3  A    between atoms: C_5  and  C_32
    4  A    between atoms: C_6  and  C_7
    5  A    between atoms: N_11  and  C_31
    6  A    between atoms: C_12  and  C_19
    7  A    between atoms: C_12  and  N_21
    8  A    between atoms: C_15  and  N_21
    9  A    between atoms: C_15  and  C_39
   10  A    between atoms: C_19  and  C_41
   11  A    between atoms: C_23  and  C_41
   12  A    between atoms: C_30  and  N_34
   13  A    between atoms: C_31  and  N_34
   14  A    between atoms: C_31  and  N_40
   15  A    between atoms: C_32  and  N_40
                            x       y       z     vdW  Elec       q    Type
                         _______ _______ _______ _____ _____    ______ ____

>  <TORSDO>
F 15

$$$$
=
 OpenBabel11042418593D

 41 46  0  0  1  0  0  0  0  0999 V2000
  188.4870  174.2560  141.4270 C   0  0  1  0  0  0  0  0  0  0  0  0
  188.3680  172.7500  141.3970 C   0  0  0  0  0  2  0  0  0  0  0  0
  190.3650  173.3570  142.6200 N   0  0  0  0  0  0  0  0  0  0  0  0
  189.6070  172.2130  142.1150 C   0  0  0  0  0  2  0  0  0  0  0  0
  189.9230  174.5110  141.8510 C   0  0  0  0  0  2  0  0  0  0  0  0
  188.6610  173.9960  139.0280 O   0  0  0  0  0  1  0  0  0  0  0  0
  188.1930  174.8370  140.0420 C   0  0  0  0  0  2  0  0  0  0  0  0
  191.7590  173.1280  142.2710 C   0  0  0  0  0  2  0  0  0  0  0  0
  192.6690  173.4850  143.4470 C   0  0  0  0  0  2  0  0  0  0  0  0
  193.4790  174.6540  143.1230 N   0  0  0  0  0  2  0  0  0  0  0  0
  193.4270  175.5710  144.2620 C   0  0  1  0  0  3  0  0  0  0  0  0
  191.4330  177.1130  146.1060 C   0  0  1  0  0  3  0  0  0  0  0  0
  190.4440  175.6760  147.6390 C   0  0  0  0  0  3  0  0  0  0  0  0
  192.1850  175.3860  145.0200 N   0  0  0  0  0  0  0  0  0  0  0  0
  191.2890  176.5060  144.7230 C   0  0  0  0  0  2  0  0  0  0  0  0
  191.7140  175.1120  147.3520 N   0  0  0  0  0  2  0  0  0  0  0  0
  190.2440  176.7930  146.9600 C   0  0  0  0  0  3  0  0  0  0  0  0
  192.3820  175.9460  146.3600 C   0  0  2  0  0  3  0  0  0  0  0  0
  194.6010  175.3840  145.1290 N   0  0  0  0  0  2  0  0  0  0  0  0
  195.8070  175.2370  144.3170 C   0  0  0  0  0  2  0  0  0  0  0  0
  196.2700  176.6000  143.8300 C   0  0  0  0  0  2  0  0  0  0  0  0
  197.4440  176.4490  142.8780 C   0  0  0  0  0  1  0  0  0  0  0  0
  187.5360  174.7750  142.4180 N   0  0  0  0  0  2  0  0  0  0  0  0
  188.0400  175.9930  143.0470 C   0  0  0  0  0  2  0  0  0  0  0  0
  187.0410  176.7230  145.2770 C   0  0  1  0  0  0  0  0  0  0  0  0
  186.3830  177.3580  146.5070 C   0  0  2  0  0  3  0  0  0  0  0  0
  187.3570  177.9090  144.4140 N   0  0  0  0  0  2  0  0  0  0  0  0
  186.9120  176.6970  143.7810 C   0  0  1  0  0  0  0  0  0  0  0  0
  185.6750  176.5370  145.6590 O   0  0  0  0  0  0  0  0  0  0  0  0
  185.8020  178.7880  146.4570 C   0  0  0  0  0  0  0  0  0  0  0  0
  186.0910  179.4490  147.6410 F   0  0  0  0  0  0  0  0  0  0  0  0
  186.2910  179.5320  145.3870 F   0  0  0  0  0  0  0  0  0  0  0  0
  184.4300  178.6900  146.3360 F   0  0  0  0  0  0  0  0  0  0  0  0
  185.5660  176.8970  143.0570 C   0  0  0  0  0  2  0  0  0  0  0  0
  183.0600  178.2900  141.5850 C   0  0  0  0  0  0  0  0  0  0  0  0
  185.3900  178.4840  141.0880 C   0  0  1  0  0  3  0  0  0  0  0  0
  183.6910  178.9080  143.1360 S   0  0  0  0  0  0  0  0  0  0  0  0
  185.3440  178.3470  142.6140 C   0  0  1  0  0  3  0  0  0  0  0  0
  186.4330  177.7410  140.5250 O   0  0  0  0  0  1  0  0  0  0  0  0
  181.8830  178.0030  141.4370 O   0  0  0  0  0  0  0  0  0  0  0  0
  184.0530  178.0600  140.5080 C   0  0  0  0  0  2  0  0  0  0  0  0
  1  7  1  6  0  0  0
  1  5  1  0  0  0  0
  1 23  1  0  0  0  0
  2  1  1  0  0  0  0
  2  4  1  0  0  0  0
  4  3  1  0  0  0  0
  5  3  1  0  0  0  0
  6  7  1  0  0  0  0
  8  3  1  0  0  0  0
  8  9  1  0  0  0  0
 10  9  1  0  0  0  0
 11 10  1  6  0  0  0
 11 14  1  0  0  0  0
 11 19  1  0  0  0  0
 12 15  1  6  0  0  0
 12 18  1  0  0  0  0
 12 17  1  0  0  0  0
 14 18  1  0  0  0  0
 15 14  1  0  0  0  0
 16 13  1  0  0  0  0
 17 13  2  0  0  0  0
 18 16  1  1  0  0  0
 20 19  1  0  0  0  0
 21 20  1  0  0  0  0
 22 21  1  0  0  0  0
 23 24  1  0  0  0  0
 25 27  1  6  0  0  0
 25 29  1  0  0  0  0
 25 26  1  0  0  0  0
 26 30  1  6  0  0  0
 28 24  1  6  0  0  0
 28 27  1  0  0  0  0
 28 25  1  0  0  0  0
 29 26  1  0  0  0  0
 30 31  1  0  0  0  0
 32 30  1  0  0  0  0
 33 30  1  0  0  0  0
 34 28  1  0  0  0  0
 35 37  1  0  0  0  0
 36 39  1  6  0  0  0
 36 38  1  0  0  0  0
 38 34  1  6  0  0  0
 38 37  1  0  0  0  0
 40 35  2  0  0  0  0
 41 36  1  0  0  0  0
 41 35  1  0  0  0  0
M  END
>  <MODEL>
6

>  <REMARK>
 VINA RESULT:      -7.0      1.974      3.920
  Name = 
  15 active torsions:
  status: ('A' for Active; 'I' for Inactive)
    1  A    between atoms: C_2  and  N_26
    2  A    between atoms: C_2  and  C_30
    3  A    between atoms: C_5  and  C_32
    4  A    between atoms: C_6  and  C_7
    5  A    between atoms: N_11  and  C_31
    6  A    between atoms: C_12  and  C_19
    7  A    between atoms: C_12  and  N_21
    8  A    between atoms: C_15  and  N_21
    9  A    between atoms: C_15  and  C_39
   10  A    between atoms: C_19  and  C_41
   11  A    between atoms: C_23  and  C_41
   12  A    between atoms: C_30  and  N_34
   13  A    between atoms: C_31  and  N_34
   14  A    between atoms: C_31  and  N_40
   15  A    between atoms: C_32  and  N_40
                            x       y       z     vdW  Elec       q    Type
                         _______ _______ _______ _____ _____    ______ ____

>  <TORSDO>
F 15

$$$$
=
 OpenBabel11042418593D

 41 46  0  0  1  0  0  0  0  0999 V2000
  190.6070  172.4350  142.7930 C   0  0  1  0  0  0  0  0  0  0  0  0
  191.0270  173.2830  141.6150 C   0  0  0  0  0  2  0  0  0  0  0  0
  189.7090  174.6360  143.1260 N   0  0  0  0  0  0  0  0  0  0  0  0
  190.3920  174.6560  141.8330 C   0  0  0  0  0  2  0  0  0  0  0  0
  189.4950  173.2340  143.4530 C   0  0  0  0  0  2  0  0  0  0  0  0
  191.1530  170.3220  141.7510 O   0  0  0  0  0  1  0  0  0  0  0  0
  190.1140  171.0690  142.3130 C   0  0  0  0  0  2  0  0  0  0  0  0
  188.3950  175.2260  142.9190 C   0  0  0  0  0  2  0  0  0  0  0  0
  188.4950  176.4400  141.9940 C   0  0  0  0  0  2  0  0  0  0  0  0
  187.8840  177.6060  142.6230 N   0  0  0  0  0  2  0  0  0  0  0  0
  186.7050  177.1560  143.3620 C   0  0  1  0  0  3  0  0  0  0  0  0
  186.0720  176.7960  146.4000 C   0  0  1  0  0  3  0  0  0  0  0  0
  184.9820  178.6660  147.2440 C   0  0  0  0  0  3  0  0  0  0  0  0
  186.5440  177.9240  144.6020 N   0  0  0  0  0  0  0  0  0  0  0  0
  187.3110  177.2610  145.6600 C   0  0  0  0  0  2  0  0  0  0  0  0
  184.6320  178.6080  145.8700 N   0  0  0  0  0  2  0  0  0  0  0  0
  185.7890  177.6740  147.5810 C   0  0  0  0  0  3  0  0  0  0  0  0
  185.3160  177.4740  145.2610 C   0  0  2  0  0  3  0  0  0  0  0  0
  185.5000  177.2590  142.5250 N   0  0  0  0  0  2  0  0  0  0  0  0
  185.6070  178.4100  141.6310 C   0  0  0  0  0  2  0  0  0  0  0  0
  184.5850  178.2910  140.5120 C   0  0  0  0  0  2  0  0  0  0  0  0
  183.1780  178.2910  141.0810 C   0  0  0  0  0  1  0  0  0  0  0  0
  191.7600  172.2840  143.6890 N   0  0  0  0  0  2  0  0  0  0  0  0
  192.9570  172.8980  143.1180 C   0  0  0  0  0  2  0  0  0  0  0  0
  193.9490  175.0830  143.9820 C   0  0  1  0  0  0  0  0  0  0  0  0
  194.4750  176.3240  144.7110 C   0  0  2  0  0  3  0  0  0  0  0  0
  192.9160  174.5480  144.9300 N   0  0  0  0  0  2  0  0  0  0  0  0
  193.7370  173.6130  144.2070 C   0  0  1  0  0  0  0  0  0  0  0  0
  195.2810  175.2320  144.4820 O   0  0  0  0  0  0  0  0  0  0  0  0
  194.2660  176.5100  146.2300 C   0  0  0  0  0  0  0  0  0  0  0  0
  194.8080  177.7230  146.6280 F   0  0  0  0  0  0  0  0  0  0  0  0
  192.9250  176.4660  146.6000 F   0  0  0  0  0  0  0  0  0  0  0  0
  194.9380  175.4960  146.8830 F   0  0  0  0  0  0  0  0  0  0  0  0
  194.6170  172.7800  145.1590 C   0  0  0  0  0  2  0  0  0  0  0  0
  195.5820  169.9150  146.2770 C   0  0  0  0  0  0  0  0  0  0  0  0
  196.7680  171.4640  144.8950 C   0  0  1  0  0  3  0  0  0  0  0  0
  194.4760  170.0470  144.8820 S   0  0  0  0  0  0  0  0  0  0  0  0
  195.3080  171.6090  144.4520 C   0  0  1  0  0  3  0  0  0  0  0  0
  197.4160  172.7000  144.9820 O   0  0  0  0  0  1  0  0  0  0  0  0
  195.3070  169.2380  147.2540 O   0  0  0  0  0  0  0  0  0  0  0  0
  196.8140  170.7380  146.2280 C   0  0  0  0  0  2  0  0  0  0  0  0
  1  7  1  6  0  0  0
  1  5  1  0  0  0  0
  1 23  1  0  0  0  0
  2  4  1  0  0  0  0
  2  1  1  0  0  0  0
  3  5  1  0  0  0  0
  4  3  1  0  0  0  0
  6  7  1  0  0  0  0
  8  3  1  0  0  0  0
  9 10  1  0  0  0  0
  9  8  1  0  0  0  0
 10 11  1  0  0  0  0
 11 19  1  6  0  0  0
 11 14  1  0  0  0  0
 12 15  1  6  0  0  0
 12 17  1  0  0  0  0
 13 17  2  0  0  0  0
 14 18  1  0  0  0  0
 14 15  1  0  0  0  0
 16 13  1  0  0  0  0
 18 16  1  1  0  0  0
 18 12  1  0  0  0  0
 20 19  1  0  0  0  0
 21 22  1  0  0  0  0
 21 20  1  0  0  0  0
 24 23  1  0  0  0  0
 25 28  1  0  0  0  0
 25 29  1  1  0  0  0
 25 26  1  0  0  0  0
 25 27  1  0  0  0  0
 26 30  1  1  0  0  0
 28 24  1  6  0  0  0
 28 27  1  0  0  0  0
 28 34  1  0  0  0  0
 29 26  1  0  0  0  0
 30 32  1  0  0  0  0
 30 31  1  0  0  0  0
 30 33  1  0  0  0  0
 35 40  2  0  0  0  0
 36 39  1  1  0  0  0
 36 41  1  0  0  0  0
 37 35  1  0  0  0  0
 38 37  1  0  0  0  0
 38 36  1  0  0  0  0
 38 34  1  1  0  0  0
 41 35  1  0  0  0  0
M  END
>  <MODEL>
7

>  <REMARK>
 VINA RESULT:      -6.9      4.614     10.307
  Name = 
  15 active torsions:
  status: ('A' for Active; 'I' for Inactive)
    1  A    between atoms: C_2  and  N_26
    2  A    between atoms: C_2  and  C_30
    3  A    between atoms: C_5  and  C_32
    4  A    between atoms: C_6  and  C_7
    5  A    between atoms: N_11  and  C_31
    6  A    between atoms: C_12  and  C_19
    7  A    between atoms: C_12  and  N_21
    8  A    between atoms: C_15  and  N_21
    9  A    between atoms: C_15  and  C_39
   10  A    between atoms: C_19  and  C_41
   11  A    between atoms: C_23  and  C_41
   12  A    between atoms: C_30  and  N_34
   13  A    between atoms: C_31  and  N_34
   14  A    between atoms: C_31  and  N_40
   15  A    between atoms: C_32  and  N_40
                            x       y       z     vdW  Elec       q    Type
                         _______ _______ _______ _____ _____    ______ ____

>  <TORSDO>
F 15

$$$$
=
 OpenBabel11042418593D

 41 46  0  0  1  0  0  0  0  0999 V2000
  190.6830  172.2780  141.6240 C   0  0  1  0  0  0  0  0  0  0  0  0
  190.5370  172.4490  140.1290 C   0  0  0  0  0  2  0  0  0  0  0  0
  189.3860  174.2610  141.2440 N   0  0  0  0  0  0  0  0  0  0  0  0
  189.6600  173.6850  139.9270 C   0  0  0  0  0  2  0  0  0  0  0  0
  189.6300  173.2030  142.2120 C   0  0  0  0  0  2  0  0  0  0  0  0
  190.8860  169.9440  141.0220 O   0  0  0  0  0  1  0  0  0  0  0  0
  190.4390  170.8200  142.0160 C   0  0  0  0  0  2  0  0  0  0  0  0
  187.9600  174.5520  141.2890 C   0  0  0  0  0  2  0  0  0  0  0  0
  187.7160  175.9260  141.9150 C   0  0  0  0  0  2  0  0  0  0  0  0
  186.9430  175.7910  143.1450 N   0  0  0  0  0  2  0  0  0  0  0  0
  186.0530  176.9460  143.2510 C   0  0  1  0  0  3  0  0  0  0  0  0
  185.8180  176.8340  146.3630 C   0  0  1  0  0  3  0  0  0  0  0  0
  185.5680  178.9660  147.2510 C   0  0  0  0  0  3  0  0  0  0  0  0
  186.3570  177.7270  144.4550 N   0  0  0  0  0  0  0  0  0  0  0  0
  187.0110  176.8450  145.4260 C   0  0  0  0  0  2  0  0  0  0  0  0
  185.0100  179.0270  145.9480 N   0  0  0  0  0  2  0  0  0  0  0  0
  186.0360  177.7590  147.5220 C   0  0  0  0  0  3  0  0  0  0  0  0
  185.1670  177.7260  145.3100 C   0  0  2  0  0  3  0  0  0  0  0  0
  186.1530  177.7860  142.0470 N   0  0  0  0  0  2  0  0  0  0  0  0
  184.9300  178.5680  141.8780 C   0  0  0  0  0  2  0  0  0  0  0  0
  184.3230  178.2900  140.5120 C   0  0  0  0  0  2  0  0  0  0  0  0
  182.8080  178.2910  140.5990 C   0  0  0  0  0  1  0  0  0  0  0  0
  192.0360  172.6980  142.0060 N   0  0  0  0  0  2  0  0  0  0  0  0
  192.3210  172.3650  143.4000 C   0  0  0  0  0  2  0  0  0  0  0  0
  194.4180  173.7550  143.8140 C   0  0  1  0  0  0  0  0  0  0  0  0
  195.5360  174.7750  144.0530 C   0  0  2  0  0  3  0  0  0  0  0  0
  193.3470  174.5770  143.1590 N   0  0  0  0  0  2  0  0  0  0  0  0
  192.9560  173.5560  144.0940 C   0  0  1  0  0  0  0  0  0  0  0  0
  194.8730  174.1810  145.1020 O   0  0  0  0  0  0  0  0  0  0  0  0
  195.2510  176.2940  144.0480 C   0  0  0  0  0  0  0  0  0  0  0  0
  196.4410  176.9880  143.8880 F   0  0  0  0  0  0  0  0  0  0  0  0
  194.3630  176.6720  143.0460 F   0  0  0  0  0  0  0  0  0  0  0  0
  194.7090  176.6330  145.2720 F   0  0  0  0  0  0  0  0  0  0  0  0
  192.2540  174.1570  145.3280 C   0  0  0  0  0  2  0  0  0  0  0  0
  190.5830  176.3260  147.0290 C   0  0  0  0  0  0  0  0  0  0  0  0
  189.7720  174.4960  145.7210 C   0  0  1  0  0  3  0  0  0  0  0  0
  191.2640  176.7210  145.4260 S   0  0  0  0  0  0  0  0  0  0  0  0
  191.0130  174.9780  144.9610 C   0  0  1  0  0  3  0  0  0  0  0  0
  189.6910  173.1010  145.7630 O   0  0  0  0  0  1  0  0  0  0  0  0
  190.8150  177.0090  148.0130 O   0  0  0  0  0  0  0  0  0  0  0  0
  189.7900  175.0770  147.1230 C   0  0  0  0  0  2  0  0  0  0  0  0
  1 23  1  0  0  0  0
  1  7  1  1  0  0  0
  1  5  1  0  0  0  0
  2  1  1  0  0  0  0
  3  8  1  0  0  0  0
  3  5  1  0  0  0  0
  4  2  1  0  0  0  0
  4  3  1  0  0  0  0
  6  7  1  0  0  0  0
  8  9  1  0  0  0  0
  9 10  1  0  0  0  0
 10 11  1  0  0  0  0
 11 19  1  6  0  0  0
 11 14  1  0  0  0  0
 12 15  1  6  0  0  0
 12 17  1  0  0  0  0
 13 17  2  0  0  0  0
 14 18  1  0  0  0  0
 14 15  1  0  0  0  0
 16 13  1  0  0  0  0
 18 16  1  1  0  0  0
 18 12  1  0  0  0  0
 20 19  1  0  0  0  0
 21 22  1  0  0  0  0
 21 20  1  0  0  0  0
 23 24  1  0  0  0  0
 25 27  1  1  0  0  0
 25 26  1  0  0  0  0
 25 28  1  0  0  0  0
 25 29  1  0  0  0  0
 26 30  1  6  0  0  0
 26 29  1  0  0  0  0
 27 28  1  0  0  0  0
 28 24  1  6  0  0  0
 28 34  1  0  0  0  0
 30 33  1  0  0  0  0
 31 30  1  0  0  0  0
 32 30  1  0  0  0  0
 35 41  1  0  0  0  0
 35 40  2  0  0  0  0
 36 39  1  1  0  0  0
 36 41  1  0  0  0  0
 37 35  1  0  0  0  0
 38 34  1  1  0  0  0
 38 37  1  0  0  0  0
 38 36  1  0  0  0  0
M  END
>  <MODEL>
8

>  <REMARK>
 VINA RESULT:      -6.9      4.239      9.480
  Name = 
  15 active torsions:
  status: ('A' for Active; 'I' for Inactive)
    1  A    between atoms: C_2  and  N_26
    2  A    between atoms: C_2  and  C_30
    3  A    between atoms: C_5  and  C_32
    4  A    between atoms: C_6  and  C_7
    5  A    between atoms: N_11  and  C_31
    6  A    between atoms: C_12  and  C_19
    7  A    between atoms: C_12  and  N_21
    8  A    between atoms: C_15  and  N_21
    9  A    between atoms: C_15  and  C_39
   10  A    between atoms: C_19  and  C_41
   11  A    between atoms: C_23  and  C_41
   12  A    between atoms: C_30  and  N_34
   13  A    between atoms: C_31  and  N_34
   14  A    between atoms: C_31  and  N_40
   15  A    between atoms: C_32  and  N_40
                            x       y       z     vdW  Elec       q    Type
                         _______ _______ _______ _____ _____    ______ ____

>  <TORSDO>
F 15

$$$$
=
 OpenBabel11042418593D

 41 46  0  0  1  0  0  0  0  0999 V2000
  191.2060  176.0790  146.0200 C   0  0  1  0  0  0  0  0  0  0  0  0
  192.5210  176.6830  145.5850 C   0  0  0  0  0  2  0  0  0  0  0  0
  192.3290  174.4610  144.6500 N   0  0  0  0  0  0  0  0  0  0  0  0
  193.2310  175.6060  144.7650 C   0  0  0  0  0  2  0  0  0  0  0  0
  191.3580  174.5960  145.7250 C   0  0  0  0  0  2  0  0  0  0  0  0
  191.9980  177.1140  148.0580 O   0  0  0  0  0  1  0  0  0  0  0  0
  190.9720  176.3400  147.5100 C   0  0  0  0  0  2  0  0  0  0  0  0
  193.1160  173.2720  144.9420 C   0  0  0  0  0  2  0  0  0  0  0  0
  193.4430  172.5180  143.6520 C   0  0  0  0  0  2  0  0  0  0  0  0
  192.2260  172.2870  142.8810 N   0  0  0  0  0  2  0  0  0  0  0  0
  192.4870  172.6770  141.4950 C   0  0  1  0  0  3  0  0  0  0  0  0
  189.4480  172.4030  140.8280 C   0  0  1  0  0  3  0  0  0  0  0  0
  188.8740  173.7480  139.0230 C   0  0  0  0  0  3  0  0  0  0  0  0
  191.3580  173.4370  140.9480 N   0  0  0  0  0  0  0  0  0  0  0  0
  190.2040  173.2520  141.8330 C   0  0  0  0  0  2  0  0  0  0  0  0
  190.2400  173.4150  138.8310 N   0  0  0  0  0  2  0  0  0  0  0  0
  188.3940  173.2060  140.1300 C   0  0  0  0  0  3  0  0  0  0  0  0
  190.6840  172.5980  139.9540 C   0  0  2  0  0  3  0  0  0  0  0  0
  193.7320  173.4560  141.4040 N   0  0  0  0  0  2  0  0  0  0  0  0
  193.4480  174.8000  140.9070 C   0  0  0  0  0  2  0  0  0  0  0  0
  194.4930  175.2020  139.8790 C   0  0  0  0  0  2  0  0  0  0  0  0
  194.1420  174.6280  138.5180 C   0  0  0  0  0  1  0  0  0  0  0  0
  190.1350  176.6780  145.2150 N   0  0  0  0  0  2  0  0  0  0  0  0
  189.0100  175.7580  145.0630 C   0  0  0  0  0  2  0  0  0  0  0  0
  187.1560  176.5320  146.6340 C   0  0  1  0  0  0  0  0  0  0  0  0
  186.0470  177.1950  147.4570 C   0  0  2  0  0  3  0  0  0  0  0  0
  187.8690  177.7020  146.0240 N   0  0  0  0  0  2  0  0  0  0  0  0
  187.7030  176.5110  145.2350 C   0  0  1  0  0  0  0  0  0  0  0  0
  185.7550  176.4080  146.3660 O   0  0  0  0  0  0  0  0  0  0  0  0
  185.6060  178.6510  147.1830 C   0  0  0  0  0  0  0  0  0  0  0  0
  186.4170  179.5230  147.8940 F   0  0  0  0  0  0  0  0  0  0  0  0
  185.6510  178.9830  145.8320 F   0  0  0  0  0  0  0  0  0  0  0  0
  184.3080  178.7980  147.6310 F   0  0  0  0  0  0  0  0  0  0  0  0
  186.8270  176.7720  143.9940 C   0  0  0  0  0  2  0  0  0  0  0  0
  185.6110  178.1340  141.3380 C   0  0  0  0  0  0  0  0  0  0  0  0
  187.8720  177.5170  141.8070 C   0  0  1  0  0  3  0  0  0  0  0  0
  185.9270  179.0880  142.8130 S   0  0  0  0  0  0  0  0  0  0  0  0
  187.3170  177.9630  143.1640 C   0  0  1  0  0  3  0  0  0  0  0  0
  188.6710  176.3750  141.9170 O   0  0  0  0  0  1  0  0  0  0  0  0
  184.5180  178.1320  140.7950 O   0  0  0  0  0  0  0  0  0  0  0  0
  186.7170  177.2760  140.8520 C   0  0  0  0  0  2  0  0  0  0  0  0
  1  7  1  1  0  0  0
  2  1  1  0  0  0  0
  3  4  1  0  0  0  0
  3  8  1  0  0  0  0
  3  5  1  0  0  0  0
  4  2  1  0  0  0  0
  5  1  1  0  0  0  0
  7  6  1  0  0  0  0
  9  8  1  0  0  0  0
 10  9  1  0  0  0  0
 11 19  1  1  0  0  0
 11 10  1  0  0  0  0
 12 17  1  6  0  0  0
 12 15  1  0  0  0  0
 13 17  2  0  0  0  0
 14 11  1  0  0  0  0
 14 15  1  0  0  0  0
 16 13  1  0  0  0  0
 18 16  1  6  0  0  0
 18 12  1  0  0  0  0
 18 14  1  0  0  0  0
 20 19  1  0  0  0  0
 21 20  1  0  0  0  0
 22 21  1  0  0  0  0
 23  1  1  0  0  0  0
 24 23  1  0  0  0  0
 24 28  1  0  0  0  0
 25 27  1  6  0  0  0
 25 26  1  0  0  0  0
 26 30  1  6  0  0  0
 28 34  1  6  0  0  0
 28 27  1  0  0  0  0
 28 25  1  0  0  0  0
 29 25  1  0  0  0  0
 29 26  1  0  0  0  0
 30 33  1  0  0  0  0
 30 31  1  0  0  0  0
 32 30  1  0  0  0  0
 35 37  1  0  0  0  0
 36 39  1  1  0  0  0
 36 38  1  0  0  0  0
 37 38  1  0  0  0  0
 38 34  1  6  0  0  0
 40 35  2  0  0  0  0
 41 35  1  0  0  0  0
 41 36  1  0  0  0  0
M  END
>  <MODEL>
9

>  <REMARK>
 VINA RESULT:      -6.9      2.826      4.402
  Name = 
  15 active torsions:
  status: ('A' for Active; 'I' for Inactive)
    1  A    between atoms: C_2  and  N_26
    2  A    between atoms: C_2  and  C_30
    3  A    between atoms: C_5  and  C_32
    4  A    between atoms: C_6  and  C_7
    5  A    between atoms: N_11  and  C_31
    6  A    between atoms: C_12  and  C_19
    7  A    between atoms: C_12  and  N_21
    8  A    between atoms: C_15  and  N_21
    9  A    between atoms: C_15  and  C_39
   10  A    between atoms: C_19  and  C_41
   11  A    between atoms: C_23  and  C_41
   12  A    between atoms: C_30  and  N_34
   13  A    between atoms: C_31  and  N_34
   14  A    between atoms: C_31  and  N_40
   15  A    between atoms: C_32  and  N_40
                            x       y       z     vdW  Elec       q    Type
                         _______ _______ _______ _____ _____    ______ ____

>  <TORSDO>
F 15

$$$$
