=
 OpenBabel11042413453D

 30 32  0  0  0  0  0  0  0  0999 V2000
  189.6330  175.2890  144.4740 C   0  0  0  0  0  0  0  0  0  0  0  0
  189.2310  174.1450  144.1280 O   0  0  0  0  0  0  0  0  0  0  0  0
  188.5840  176.4150  142.4820 C   0  0  0  0  0  0  0  0  0  0  0  0
  188.6710  175.3570  141.8030 O   0  0  0  0  0  0  0  0  0  0  0  0
  189.1010  176.4660  143.8290 N   0  0  0  0  0  0  0  0  0  0  0  0
  193.7420  176.4700  143.8260 C   0  0  0  0  0  3  0  0  0  0  0  0
  192.4360  175.6100  147.6770 N   0  0  0  0  0  0  0  0  0  0  0  0
  190.2370  175.0910  146.8970 C   0  0  0  0  0  0  0  0  0  0  0  0
  188.9040  174.6950  147.2050 N   0  0  0  0  0  1  0  0  0  0  0  0
  191.1640  175.2120  147.9340 C   0  0  0  0  0  3  0  0  0  0  0  0
  192.4180  176.0790  144.0350 C   0  0  0  0  0  3  0  0  0  0  0  0
  194.6190  176.5810  144.9070 C   0  0  0  0  0  3  0  0  0  0  0  0
  191.9530  175.7990  145.3310 C   0  0  0  0  0  0  0  0  0  0  0  0
  192.8520  175.9030  146.4180 C   0  0  0  0  0  0  0  0  0  0  0  0
  194.1750  176.2960  146.2010 C   0  0  0  0  0  3  0  0  0  0  0  0
  190.6210  175.3970  145.5760 C   0  0  0  0  0  0  0  0  0  0  0  0
  189.0670  177.7370  144.5550 C   0  0  0  0  0  2  0  0  0  0  0  0
  188.0160  177.7110  145.6210 C   0  0  0  0  0  0  0  0  0  0  0  0
  188.3500  177.7520  146.7960 O   0  0  0  0  0  0  0  0  0  0  0  0
  185.7650  176.9010  146.3080 C   0  0  0  0  0  2  0  0  0  0  0  0
  184.4500  177.6510  146.4370 C   0  0  0  0  0  2  0  0  0  0  0  0
  186.5690  177.6200  145.2430 C   0  0  0  0  0  3  0  0  0  0  0  0
  185.9470  178.9880  145.0910 C   0  0  0  0  0  2  0  0  0  0  0  0
  184.4900  178.7910  145.4380 C   0  0  0  0  0  2  0  0  0  0  0  0
  187.9340  177.6080  141.8550 C   0  0  0  0  0  2  0  0  0  0  0  0
  185.6960  178.3380  141.2780 N   0  0  0  0  0  0  0  0  0  0  0  0
  186.4740  177.3740  141.6590 C   0  0  0  0  0  3  0  0  0  0  0  0
  184.2920  178.1570  141.0690 C   0  0  0  0  0  0  0  0  0  0  0  0
  183.8720  177.8880  139.9150 O   0  0  0  0  0  0  0  0  0  0  0  0
  183.3120  178.2790  142.1890 C   0  0  0  0  0  1  0  0  0  0  0  0
  1 16  1  0  0  0  0
  2  1  2  0  0  0  0
  3  5  1  0  0  0  0
  4  3  2  0  0  0  0
  5  1  1  0  0  0  0
  5 17  1  0  0  0  0
  6 11  2  0  0  0  0
  6 12  1  0  0  0  0
  7 10  1  0  0  0  0
  8  9  1  0  0  0  0
  8 10  2  0  0  0  0
 11 13  1  0  0  0  0
 12 15  2  0  0  0  0
 13 16  2  0  0  0  0
 13 14  1  0  0  0  0
 14  7  2  0  0  0  0
 15 14  1  0  0  0  0
 16  8  1  0  0  0  0
 17 18  1  0  0  0  0
 18 19  2  0  0  0  0
 20 21  1  0  0  0  0
 22 18  1  0  0  0  0
 22 20  1  0  0  0  0
 23 22  1  0  0  0  0
 23 24  1  0  0  0  0
 24 21  1  0  0  0  0
 25  3  1  0  0  0  0
 26 27  2  0  0  0  0
 27 25  1  0  0  0  0
 28 26  1  0  0  0  0
 28 30  1  0  0  0  0
 29 28  2  0  0  0  0
M  END
>  <MODEL>
1

>  <REMARK>
 VINA RESULT:      -7.4      0.000      0.000
  Name = 
  7 active torsions:
  status: ('A' for Active; 'I' for Inactive)
    1  A    between atoms: C_1  and  N_6
    2  A    between atoms: C_5  and  C_29
    3  A    between atoms: C_8  and  C_15
    4  A    between atoms: C_13  and  C_19
    5  A    between atoms: C_13  and  N_30
    6  A    between atoms: C_15  and  C_23
    7  A    between atoms: C_19  and  C_20
                            x       y       z     vdW  Elec       q    Type
                         _______ _______ _______ _____ _____    ______ ____

>  <TORSDO>
F 7

$$$$
=
 OpenBabel11042413453D

 30 32  0  0  0  0  0  0  0  0999 V2000
  189.6700  174.9960  143.0860 C   0  0  0  0  0  0  0  0  0  0  0  0
  189.0670  173.8900  143.0300 O   0  0  0  0  0  0  0  0  0  0  0  0
  188.1660  176.0640  141.3740 C   0  0  0  0  0  0  0  0  0  0  0  0
  187.9290  174.9450  140.8440 O   0  0  0  0  0  0  0  0  0  0  0  0
  189.0820  176.1690  142.4840 N   0  0  0  0  0  0  0  0  0  0  0  0
  189.9140  175.1120  147.4020 C   0  0  0  0  0  3  0  0  0  0  0  0
  193.4040  175.1850  145.1460 N   0  0  0  0  0  0  0  0  0  0  0  0
  192.1720  175.1240  143.0990 C   0  0  0  0  0  0  0  0  0  0  0  0
  192.1890  175.0890  141.6750 N   0  0  0  0  0  1  0  0  0  0  0  0
  193.3840  175.1750  143.7890 C   0  0  0  0  0  3  0  0  0  0  0  0
  189.8360  175.0840  146.0080 C   0  0  0  0  0  3  0  0  0  0  0  0
  191.1590  175.1530  148.0340 C   0  0  0  0  0  3  0  0  0  0  0  0
  191.0040  175.0920  145.2280 C   0  0  0  0  0  0  0  0  0  0  0  0
  192.2600  175.1470  145.8770 C   0  0  0  0  0  0  0  0  0  0  0  0
  192.3300  175.1720  147.2720 C   0  0  0  0  0  3  0  0  0  0  0  0
  190.9600  175.0710  143.8160 C   0  0  0  0  0  0  0  0  0  0  0  0
  189.4060  177.4950  143.0150 C   0  0  0  0  0  2  0  0  0  0  0  0
  188.6900  177.7390  144.3060 C   0  0  0  0  0  0  0  0  0  0  0  0
  189.3140  178.1530  145.2710 O   0  0  0  0  0  0  0  0  0  0  0  0
  186.9050  176.6140  145.6270 C   0  0  0  0  0  2  0  0  0  0  0  0
  185.6260  177.1740  146.2240 C   0  0  0  0  0  2  0  0  0  0  0  0
  187.2210  177.4610  144.4110 C   0  0  0  0  0  3  0  0  0  0  0  0
  186.4230  178.7350  144.5590 C   0  0  0  0  0  2  0  0  0  0  0  0
  185.1970  178.3340  145.3450 C   0  0  0  0  0  2  0  0  0  0  0  0
  187.4740  177.2710  140.8220 C   0  0  0  0  0  2  0  0  0  0  0  0
  185.2480  178.2270  140.8290 N   0  0  0  0  0  0  0  0  0  0  0  0
  186.0090  177.2120  141.0910 C   0  0  0  0  0  3  0  0  0  0  0  0
  183.8370  178.2120  141.0640 C   0  0  0  0  0  0  0  0  0  0  0  0
  183.0550  177.9910  140.1030 O   0  0  0  0  0  0  0  0  0  0  0  0
  183.2660  178.4520  142.4230 C   0  0  0  0  0  1  0  0  0  0  0  0
  1 16  1  0  0  0  0
  2  1  2  0  0  0  0
  3  5  1  0  0  0  0
  4  3  2  0  0  0  0
  5 17  1  0  0  0  0
  5  1  1  0  0  0  0
  6 12  1  0  0  0  0
  7 14  1  0  0  0  0
  8 10  1  0  0  0  0
  8 16  2  0  0  0  0
  9  8  1  0  0  0  0
 10  7  2  0  0  0  0
 11  6  2  0  0  0  0
 13 14  2  0  0  0  0
 13 11  1  0  0  0  0
 14 15  1  0  0  0  0
 15 12  2  0  0  0  0
 16 13  1  0  0  0  0
 17 18  1  0  0  0  0
 18 22  1  0  0  0  0
 18 19  2  0  0  0  0
 20 21  1  0  0  0  0
 22 23  1  0  0  0  0
 22 20  1  0  0  0  0
 23 24  1  0  0  0  0
 24 21  1  0  0  0  0
 25 27  1  0  0  0  0
 25  3  1  0  0  0  0
 26 28  1  0  0  0  0
 26 27  2  0  0  0  0
 28 30  1  0  0  0  0
 29 28  2  0  0  0  0
M  END
>  <MODEL>
2

>  <REMARK>
 VINA RESULT:      -7.1      1.527      2.527
  Name = 
  7 active torsions:
  status: ('A' for Active; 'I' for Inactive)
    1  A    between atoms: C_1  and  N_6
    2  A    between atoms: C_5  and  C_29
    3  A    between atoms: C_8  and  C_15
    4  A    between atoms: C_13  and  C_19
    5  A    between atoms: C_13  and  N_30
    6  A    between atoms: C_15  and  C_23
    7  A    between atoms: C_19  and  C_20
                            x       y       z     vdW  Elec       q    Type
                         _______ _______ _______ _____ _____    ______ ____

>  <TORSDO>
F 7

$$$$
=
 OpenBabel11042413453D

 30 32  0  0  0  0  0  0  0  0999 V2000
  189.7970  177.4800  143.7630 C   0  0  0  0  0  0  0  0  0  0  0  0
  190.4940  178.4630  143.3910 O   0  0  0  0  0  0  0  0  0  0  0  0
  191.5250  176.7010  145.4180 C   0  0  0  0  0  0  0  0  0  0  0  0
  192.4510  177.2240  144.7400 O   0  0  0  0  0  0  0  0  0  0  0  0
  190.1600  176.7480  144.9540 N   0  0  0  0  0  0  0  0  0  0  0  0
  186.0430  179.5860  144.1810 C   0  0  0  0  0  3  0  0  0  0  0  0
  186.3440  176.4430  141.4770 N   0  0  0  0  0  0  0  0  0  0  0  0
  188.6260  176.0510  142.0700 C   0  0  0  0  0  0  0  0  0  0  0  0
  189.8200  175.3020  141.8650 N   0  0  0  0  0  1  0  0  0  0  0  0
  187.4910  175.7330  141.3230 C   0  0  0  0  0  3  0  0  0  0  0  0
  187.2530  178.8990  144.0520 C   0  0  0  0  0  3  0  0  0  0  0  0
  184.9450  179.2250  143.3980 C   0  0  0  0  0  3  0  0  0  0  0  0
  187.3790  177.8440  143.1330 C   0  0  0  0  0  0  0  0  0  0  0  0
  186.2570  177.4780  142.3520 C   0  0  0  0  0  0  0  0  0  0  0  0
  185.0520  178.1710  142.4860 C   0  0  0  0  0  3  0  0  0  0  0  0
  188.5860  177.1250  142.9820 C   0  0  0  0  0  0  0  0  0  0  0  0
  189.1240  176.0510  145.7190 C   0  0  0  0  0  2  0  0  0  0  0  0
  188.5060  176.9640  146.7300 C   0  0  0  0  0  0  0  0  0  0  0  0
  189.1730  177.8690  147.2110 O   0  0  0  0  0  0  0  0  0  0  0  0
  186.4980  178.0180  147.7590 C   0  0  0  0  0  2  0  0  0  0  0  0
  185.0730  178.1190  147.2440 C   0  0  0  0  0  2  0  0  0  0  0  0
  187.0850  176.7560  147.1580 C   0  0  0  0  0  3  0  0  0  0  0  0
  186.2010  176.3890  145.9890 C   0  0  0  0  0  2  0  0  0  0  0  0
  184.8330  176.9100  146.3610 C   0  0  0  0  0  2  0  0  0  0  0  0
  191.8830  176.0350  146.7100 C   0  0  0  0  0  2  0  0  0  0  0  0
  193.0100  174.0980  145.7890 N   0  0  0  0  0  0  0  0  0  0  0  0
  193.0720  175.1510  146.5400 C   0  0  0  0  0  3  0  0  0  0  0  0
  194.1270  173.2270  145.5910 C   0  0  0  0  0  0  0  0  0  0  0  0
  195.2930  173.6930  145.6680 O   0  0  0  0  0  0  0  0  0  0  0  0
  193.9460  171.7740  145.2960 C   0  0  0  0  0  1  0  0  0  0  0  0
  1  5  1  0  0  0  0
  2  1  2  0  0  0  0
  3 25  1  0  0  0  0
  4  3  2  0  0  0  0
  5  3  1  0  0  0  0
  5 17  1  0  0  0  0
  7 14  1  0  0  0  0
  8 16  2  0  0  0  0
  9  8  1  0  0  0  0
 10  7  2  0  0  0  0
 10  8  1  0  0  0  0
 11  6  1  0  0  0  0
 12  6  2  0  0  0  0
 13 11  2  0  0  0  0
 14 15  2  0  0  0  0
 14 13  1  0  0  0  0
 15 12  1  0  0  0  0
 16 13  1  0  0  0  0
 16  1  1  0  0  0  0
 17 18  1  0  0  0  0
 18 22  1  0  0  0  0
 18 19  2  0  0  0  0
 21 20  1  0  0  0  0
 22 20  1  0  0  0  0
 23 24  1  0  0  0  0
 23 22  1  0  0  0  0
 24 21  1  0  0  0  0
 26 27  2  0  0  0  0
 27 25  1  0  0  0  0
 28 29  2  0  0  0  0
 28 26  1  0  0  0  0
 30 28  1  0  0  0  0
M  END
>  <MODEL>
3

>  <REMARK>
 VINA RESULT:      -7.0      2.380      6.828
  Name = 
  7 active torsions:
  status: ('A' for Active; 'I' for Inactive)
    1  A    between atoms: C_1  and  N_6
    2  A    between atoms: C_5  and  C_29
    3  A    between atoms: C_8  and  C_15
    4  A    between atoms: C_13  and  C_19
    5  A    between atoms: C_13  and  N_30
    6  A    between atoms: C_15  and  C_23
    7  A    between atoms: C_19  and  C_20
                            x       y       z     vdW  Elec       q    Type
                         _______ _______ _______ _____ _____    ______ ____

>  <TORSDO>
F 7

$$$$
=
 OpenBabel11042413453D

 30 32  0  0  0  0  0  0  0  0999 V2000
  192.8010  175.3420  143.4190 C   0  0  0  0  0  0  0  0  0  0  0  0
  193.3320  176.1430  142.6020 O   0  0  0  0  0  0  0  0  0  0  0  0
  194.9470  174.9930  144.6880 C   0  0  0  0  0  0  0  0  0  0  0  0
  195.6290  175.2550  143.6610 O   0  0  0  0  0  0  0  0  0  0  0  0
  193.5050  174.9680  144.6230 N   0  0  0  0  0  0  0  0  0  0  0  0
  189.2770  177.8320  143.6980 C   0  0  0  0  0  3  0  0  0  0  0  0
  188.8920  173.8470  142.5770 N   0  0  0  0  0  0  0  0  0  0  0  0
  191.2460  173.4850  142.7790 C   0  0  0  0  0  0  0  0  0  0  0  0
  192.3490  172.5910  142.6610 N   0  0  0  0  0  1  0  0  0  0  0  0
  189.9620  173.0160  142.4970 C   0  0  0  0  0  3  0  0  0  0  0  0
  190.4140  177.0240  143.6170 C   0  0  0  0  0  3  0  0  0  0  0  0
  188.0200  177.3050  143.3930 C   0  0  0  0  0  3  0  0  0  0  0  0
  190.3060  175.6790  143.2250 C   0  0  0  0  0  0  0  0  0  0  0  0
  189.0270  175.1520  142.9300 C   0  0  0  0  0  0  0  0  0  0  0  0
  187.8950  175.9670  143.0120 C   0  0  0  0  0  3  0  0  0  0  0  0
  191.4350  174.8350  143.1380 C   0  0  0  0  0  0  0  0  0  0  0  0
  192.7470  174.5700  145.8110 C   0  0  0  0  0  2  0  0  0  0  0  0
  192.2530  175.7720  146.5530 C   0  0  0  0  0  0  0  0  0  0  0  0
  192.9370  176.7840  146.5830 O   0  0  0  0  0  0  0  0  0  0  0  0
  190.2480  177.0740  147.2490 C   0  0  0  0  0  2  0  0  0  0  0  0
  188.7730  176.8050  147.0070 C   0  0  0  0  0  2  0  0  0  0  0  0
  190.9350  175.7220  147.2640 C   0  0  0  0  0  3  0  0  0  0  0  0
  189.9830  174.7520  146.6050 C   0  0  0  0  0  2  0  0  0  0  0  0
  188.6060  175.3020  146.8980 C   0  0  0  0  0  2  0  0  0  0  0  0
  195.6710  174.7110  145.9670 C   0  0  0  0  0  2  0  0  0  0  0  0
  196.1530  172.3420  145.8150 N   0  0  0  0  0  0  0  0  0  0  0  0
  196.6010  173.5570  145.8070 C   0  0  0  0  0  3  0  0  0  0  0  0
  197.0070  171.2050  145.6570 C   0  0  0  0  0  0  0  0  0  0  0  0
  197.9410  171.2490  144.8160 O   0  0  0  0  0  0  0  0  0  0  0  0
  196.8200  169.9650  146.4690 C   0  0  0  0  0  1  0  0  0  0  0  0
  1  5  1  0  0  0  0
  2  1  2  0  0  0  0
  3 25  1  0  0  0  0
  4  3  2  0  0  0  0
  5  3  1  0  0  0  0
  5 17  1  0  0  0  0
  7 14  1  0  0  0  0
  8 16  2  0  0  0  0
  9  8  1  0  0  0  0
 10  7  2  0  0  0  0
 10  8  1  0  0  0  0
 11  6  1  0  0  0  0
 12  6  2  0  0  0  0
 13 11  2  0  0  0  0
 14 15  2  0  0  0  0
 14 13  1  0  0  0  0
 15 12  1  0  0  0  0
 16 13  1  0  0  0  0
 16  1  1  0  0  0  0
 17 18  1  0  0  0  0
 18 19  2  0  0  0  0
 18 22  1  0  0  0  0
 20 22  1  0  0  0  0
 21 20  1  0  0  0  0
 23 24  1  0  0  0  0
 23 22  1  0  0  0  0
 24 21  1  0  0  0  0
 27 26  2  0  0  0  0
 27 25  1  0  0  0  0
 28 26  1  0  0  0  0
 28 30  1  0  0  0  0
 29 28  2  0  0  0  0
M  END
>  <MODEL>
4

>  <REMARK>
 VINA RESULT:      -6.9      3.632      7.773
  Name = 
  7 active torsions:
  status: ('A' for Active; 'I' for Inactive)
    1  A    between atoms: C_1  and  N_6
    2  A    between atoms: C_5  and  C_29
    3  A    between atoms: C_8  and  C_15
    4  A    between atoms: C_13  and  C_19
    5  A    between atoms: C_13  and  N_30
    6  A    between atoms: C_15  and  C_23
    7  A    between atoms: C_19  and  C_20
                            x       y       z     vdW  Elec       q    Type
                         _______ _______ _______ _____ _____    ______ ____

>  <TORSDO>
F 7

$$$$
=
 OpenBabel11042413453D

 30 32  0  0  0  0  0  0  0  0999 V2000
  190.4800  175.2870  142.6930 C   0  0  0  0  0  0  0  0  0  0  0  0
  190.6940  175.0170  141.4800 O   0  0  0  0  0  0  0  0  0  0  0  0
  188.0200  175.6640  142.3230 C   0  0  0  0  0  0  0  0  0  0  0  0
  188.2220  175.9910  141.1220 O   0  0  0  0  0  0  0  0  0  0  0  0
  189.1270  175.3440  143.1920 N   0  0  0  0  0  0  0  0  0  0  0  0
  192.6080  172.0250  144.5720 C   0  0  0  0  0  3  0  0  0  0  0  0
  193.8320  175.9380  145.2560 N   0  0  0  0  0  0  0  0  0  0  0  0
  192.0810  176.8060  143.8790 C   0  0  0  0  0  0  0  0  0  0  0  0
  191.4420  177.9420  143.3030 N   0  0  0  0  0  1  0  0  0  0  0  0
  193.1850  177.0000  144.7100 C   0  0  0  0  0  3  0  0  0  0  0  0
  191.9150  173.0800  143.9730 C   0  0  0  0  0  3  0  0  0  0  0  0
  193.7120  172.2850  145.3880 C   0  0  0  0  0  3  0  0  0  0  0  0
  192.3230  174.4090  144.1800 C   0  0  0  0  0  0  0  0  0  0  0  0
  193.4350  174.6620  145.0170 C   0  0  0  0  0  0  0  0  0  0  0  0
  194.1230  173.6010  145.6110 C   0  0  0  0  0  3  0  0  0  0  0  0
  191.6410  175.4980  143.5930 C   0  0  0  0  0  0  0  0  0  0  0  0
  188.8630  175.0580  144.6030 C   0  0  0  0  0  2  0  0  0  0  0  0
  189.0020  176.2970  145.4310 C   0  0  0  0  0  0  0  0  0  0  0  0
  188.7370  177.3830  144.9380 O   0  0  0  0  0  0  0  0  0  0  0  0
  190.2520  174.9180  147.0850 C   0  0  0  0  0  2  0  0  0  0  0  0
  191.4290  175.2820  147.9740 C   0  0  0  0  0  2  0  0  0  0  0  0
  189.4780  176.2000  146.8490 C   0  0  0  0  0  3  0  0  0  0  0  0
  190.4130  177.3340  147.2000 C   0  0  0  0  0  2  0  0  0  0  0  0
  191.3250  176.7670  148.2620 C   0  0  0  0  0  2  0  0  0  0  0  0
  186.6080  175.6150  142.8160 C   0  0  0  0  0  2  0  0  0  0  0  0
  185.2120  177.1420  144.0780 N   0  0  0  0  0  0  0  0  0  0  0  0
  186.1230  176.9800  143.1720 C   0  0  0  0  0  3  0  0  0  0  0  0
  184.7230  178.4320  144.4570 C   0  0  0  0  0  0  0  0  0  0  0  0
  184.8300  179.3920  143.6510 O   0  0  0  0  0  0  0  0  0  0  0  0
  184.0860  178.6690  145.7870 C   0  0  0  0  0  1  0  0  0  0  0  0
  1  5  1  0  0  0  0
  1 16  1  0  0  0  0
  2  1  2  0  0  0  0
  3 25  1  0  0  0  0
  3  5  1  0  0  0  0
  4  3  2  0  0  0  0
  5 17  1  0  0  0  0
  6 12  1  0  0  0  0
  8 10  1  0  0  0  0
  9  8  1  0  0  0  0
 10  7  2  0  0  0  0
 11 13  1  0  0  0  0
 11  6  2  0  0  0  0
 12 15  2  0  0  0  0
 13 14  2  0  0  0  0
 14  7  1  0  0  0  0
 14 15  1  0  0  0  0
 16  8  2  0  0  0  0
 16 13  1  0  0  0  0
 17 18  1  0  0  0  0
 18 22  1  0  0  0  0
 19 18  2  0  0  0  0
 20 21  1  0  0  0  0
 21 24  1  0  0  0  0
 22 20  1  0  0  0  0
 22 23  1  0  0  0  0
 23 24  1  0  0  0  0
 25 27  1  0  0  0  0
 26 28  1  0  0  0  0
 27 26  2  0  0  0  0
 28 30  1  0  0  0  0
 29 28  2  0  0  0  0
M  END
>  <MODEL>
5

>  <REMARK>
 VINA RESULT:      -6.8      2.127      3.726
  Name = 
  7 active torsions:
  status: ('A' for Active; 'I' for Inactive)
    1  A    between atoms: C_1  and  N_6
    2  A    between atoms: C_5  and  C_29
    3  A    between atoms: C_8  and  C_15
    4  A    between atoms: C_13  and  C_19
    5  A    between atoms: C_13  and  N_30
    6  A    between atoms: C_15  and  C_23
    7  A    between atoms: C_19  and  C_20
                            x       y       z     vdW  Elec       q    Type
                         _______ _______ _______ _____ _____    ______ ____

>  <TORSDO>
F 7

$$$$
=
 OpenBabel11042413453D

 30 32  0  0  0  0  0  0  0  0999 V2000
  190.3750  176.9760  143.4450 C   0  0  0  0  0  0  0  0  0  0  0  0
  190.8780  177.9110  142.7650 O   0  0  0  0  0  0  0  0  0  0  0  0
  188.1030  177.2430  142.3970 C   0  0  0  0  0  0  0  0  0  0  0  0
  188.3240  178.4620  142.1620 O   0  0  0  0  0  0  0  0  0  0  0  0
  189.0810  176.4410  143.0930 N   0  0  0  0  0  0  0  0  0  0  0  0
  193.9020  174.5400  142.8720 C   0  0  0  0  0  3  0  0  0  0  0  0
  192.6080  175.4030  146.7270 N   0  0  0  0  0  0  0  0  0  0  0  0
  190.7460  176.6550  145.9030 C   0  0  0  0  0  0  0  0  0  0  0  0
  189.5970  177.4480  146.1870 N   0  0  0  0  0  1  0  0  0  0  0  0
  191.4940  176.1420  146.9630 C   0  0  0  0  0  3  0  0  0  0  0  0
  192.7570  175.3190  143.0580 C   0  0  0  0  0  3  0  0  0  0  0  0
  194.6130  174.0640  143.9760 C   0  0  0  0  0  3  0  0  0  0  0  0
  192.3130  175.6340  144.3530 C   0  0  0  0  0  0  0  0  0  0  0  0
  193.0330  175.1370  145.4650 C   0  0  0  0  0  0  0  0  0  0  0  0
  194.1780  174.3600  145.2700 C   0  0  0  0  0  3  0  0  0  0  0  0
  191.1560  176.4150  144.5760 C   0  0  0  0  0  0  0  0  0  0  0  0
  188.7530  175.0550  143.4310 C   0  0  0  0  0  2  0  0  0  0  0  0
  189.3580  174.1100  142.4410 C   0  0  0  0  0  0  0  0  0  0  0  0
  189.4640  174.4500  141.2720 O   0  0  0  0  0  0  0  0  0  0  0  0
  190.9310  172.2310  142.0030 C   0  0  0  0  0  2  0  0  0  0  0  0
  191.9260  171.5500  142.9260 C   0  0  0  0  0  2  0  0  0  0  0  0
  189.8130  172.7530  142.8830 C   0  0  0  0  0  3  0  0  0  0  0  0
  190.3570  172.7810  144.2930 C   0  0  0  0  0  2  0  0  0  0  0  0
  191.3760  171.6660  144.3350 C   0  0  0  0  0  2  0  0  0  0  0  0
  186.8060  176.6560  141.9360 C   0  0  0  0  0  2  0  0  0  0  0  0
  185.5840  177.5890  143.8090 N   0  0  0  0  0  0  0  0  0  0  0  0
  185.6510  177.3890  142.5320 C   0  0  0  0  0  3  0  0  0  0  0  0
  184.5000  178.2930  144.4230 C   0  0  0  0  0  0  0  0  0  0  0  0
  183.6610  178.8840  143.6960 O   0  0  0  0  0  0  0  0  0  0  0  0
  184.3370  178.3410  145.9070 C   0  0  0  0  0  1  0  0  0  0  0  0
  1 16  1  0  0  0  0
  2  1  2  0  0  0  0
  3  5  1  0  0  0  0
  4  3  2  0  0  0  0
  5 17  1  0  0  0  0
  5  1  1  0  0  0  0
  6 11  2  0  0  0  0
  6 12  1  0  0  0  0
  7 10  1  0  0  0  0
  8  9  1  0  0  0  0
  8 10  2  0  0  0  0
 11 13  1  0  0  0  0
 12 15  2  0  0  0  0
 13 16  2  0  0  0  0
 13 14  1  0  0  0  0
 14  7  2  0  0  0  0
 15 14  1  0  0  0  0
 16  8  1  0  0  0  0
 18 22  1  0  0  0  0
 18 17  1  0  0  0  0
 19 18  2  0  0  0  0
 20 22  1  0  0  0  0
 20 21  1  0  0  0  0
 21 24  1  0  0  0  0
 22 23  1  0  0  0  0
 23 24  1  0  0  0  0
 25  3  1  0  0  0  0
 25 27  1  0  0  0  0
 26 28  1  0  0  0  0
 27 26  2  0  0  0  0
 28 30  1  0  0  0  0
 29 28  2  0  0  0  0
M  END
>  <MODEL>
6

>  <REMARK>
 VINA RESULT:      -6.8      2.346      4.366
  Name = 
  7 active torsions:
  status: ('A' for Active; 'I' for Inactive)
    1  A    between atoms: C_1  and  N_6
    2  A    between atoms: C_5  and  C_29
    3  A    between atoms: C_8  and  C_15
    4  A    between atoms: C_13  and  C_19
    5  A    between atoms: C_13  and  N_30
    6  A    between atoms: C_15  and  C_23
    7  A    between atoms: C_19  and  C_20
                            x       y       z     vdW  Elec       q    Type
                         _______ _______ _______ _____ _____    ______ ____

>  <TORSDO>
F 7

$$$$
=
 OpenBabel11042413453D

 30 32  0  0  0  0  0  0  0  0999 V2000
  187.6740  175.7880  142.7880 C   0  0  0  0  0  0  0  0  0  0  0  0
  186.9170  174.8710  142.3660 O   0  0  0  0  0  0  0  0  0  0  0  0
  189.7250  174.3330  142.6900 C   0  0  0  0  0  0  0  0  0  0  0  0
  189.0300  173.2940  142.8510 O   0  0  0  0  0  0  0  0  0  0  0  0
  189.1080  175.6370  142.7000 N   0  0  0  0  0  0  0  0  0  0  0  0
  187.0410  176.4340  147.0170 C   0  0  0  0  0  3  0  0  0  0  0  0
  185.9350  179.3810  144.3010 N   0  0  0  0  0  0  0  0  0  0  0  0
  186.6460  178.0470  142.4490 C   0  0  0  0  0  0  0  0  0  0  0  0
  186.8160  177.9220  141.0400 N   0  0  0  0  0  1  0  0  0  0  0  0
  186.0890  179.2190  142.9620 C   0  0  0  0  0  3  0  0  0  0  0  0
  187.2370  176.2220  145.6500 C   0  0  0  0  0  3  0  0  0  0  0  0
  186.4870  177.6340  147.4680 C   0  0  0  0  0  3  0  0  0  0  0  0
  186.8840  177.2130  144.7180 C   0  0  0  0  0  0  0  0  0  0  0  0
  186.3110  178.4190  145.1840 C   0  0  0  0  0  0  0  0  0  0  0  0
  186.1220  178.6240  146.5520 C   0  0  0  0  0  3  0  0  0  0  0  0
  187.0630  177.0280  143.3280 C   0  0  0  0  0  0  0  0  0  0  0  0
  189.9560  176.8270  142.6030 C   0  0  0  0  0  2  0  0  0  0  0  0
  190.3710  177.2950  143.9630 C   0  0  0  0  0  0  0  0  0  0  0  0
  190.1210  178.4410  144.3070 O   0  0  0  0  0  0  0  0  0  0  0  0
  192.5960  176.6060  144.8420 C   0  0  0  0  0  2  0  0  0  0  0  0
  193.0920  176.4940  146.2730 C   0  0  0  0  0  2  0  0  0  0  0  0
  191.1000  176.3650  144.8840 C   0  0  0  0  0  3  0  0  0  0  0  0
  190.6760  176.5610  146.3210 C   0  0  0  0  0  2  0  0  0  0  0  0
  191.8880  176.1740  147.1370 C   0  0  0  0  0  2  0  0  0  0  0  0
  191.2000  174.1750  142.4890 C   0  0  0  0  0  2  0  0  0  0  0  0
  192.7560  173.0100  143.9360 N   0  0  0  0  0  0  0  0  0  0  0  0
  191.7030  172.9550  143.1840 C   0  0  0  0  0  3  0  0  0  0  0  0
  193.2690  171.8670  144.6270 C   0  0  0  0  0  0  0  0  0  0  0  0
  192.8960  170.7180  144.2760 O   0  0  0  0  0  0  0  0  0  0  0  0
  194.2380  172.0030  145.7550 C   0  0  0  0  0  1  0  0  0  0  0  0
  1 16  1  0  0  0  0
  2  1  2  0  0  0  0
  3  5  1  0  0  0  0
  3  4  2  0  0  0  0
  5  1  1  0  0  0  0
  6 12  1  0  0  0  0
  7 14  1  0  0  0  0
  8 10  1  0  0  0  0
  8 16  2  0  0  0  0
  9  8  1  0  0  0  0
 10  7  2  0  0  0  0
 11  6  2  0  0  0  0
 13 14  2  0  0  0  0
 13 11  1  0  0  0  0
 14 15  1  0  0  0  0
 15 12  2  0  0  0  0
 16 13  1  0  0  0  0
 17  5  1  0  0  0  0
 17 18  1  0  0  0  0
 18 19  2  0  0  0  0
 18 22  1  0  0  0  0
 20 22  1  0  0  0  0
 20 21  1  0  0  0  0
 21 24  1  0  0  0  0
 22 23  1  0  0  0  0
 23 24  1  0  0  0  0
 25  3  1  0  0  0  0
 25 27  1  0  0  0  0
 26 28  1  0  0  0  0
 27 26  2  0  0  0  0
 28 30  1  0  0  0  0
 29 28  2  0  0  0  0
M  END
>  <MODEL>
7

>  <REMARK>
 VINA RESULT:      -6.7      2.344      6.986
  Name = 
  7 active torsions:
  status: ('A' for Active; 'I' for Inactive)
    1  A    between atoms: C_1  and  N_6
    2  A    between atoms: C_5  and  C_29
    3  A    between atoms: C_8  and  C_15
    4  A    between atoms: C_13  and  C_19
    5  A    between atoms: C_13  and  N_30
    6  A    between atoms: C_15  and  C_23
    7  A    between atoms: C_19  and  C_20
                            x       y       z     vdW  Elec       q    Type
                         _______ _______ _______ _____ _____    ______ ____

>  <TORSDO>
F 7

$$$$
=
 OpenBabel11042413453D

 30 32  0  0  0  0  0  0  0  0999 V2000
  189.4570  176.9110  145.7450 C   0  0  0  0  0  0  0  0  0  0  0  0
  189.9750  177.9440  146.2500 O   0  0  0  0  0  0  0  0  0  0  0  0
  191.6450  175.6700  145.6890 C   0  0  0  0  0  0  0  0  0  0  0  0
  192.2890  176.7510  145.6100 O   0  0  0  0  0  0  0  0  0  0  0  0
  190.2020  175.6750  145.7080 N   0  0  0  0  0  0  0  0  0  0  0  0
  188.5110  177.8900  141.6400 C   0  0  0  0  0  3  0  0  0  0  0  0
  185.4370  177.0870  144.3200 N   0  0  0  0  0  0  0  0  0  0  0  0
  186.9830  176.7470  146.1100 C   0  0  0  0  0  0  0  0  0  0  0  0
  187.2000  176.4160  147.4790 N   0  0  0  0  0  1  0  0  0  0  0  0
  185.6760  176.7980  145.6250 C   0  0  0  0  0  3  0  0  0  0  0  0
  188.8150  177.5830  142.9690 C   0  0  0  0  0  3  0  0  0  0  0  0
  187.1820  177.9160  141.2140 C   0  0  0  0  0  3  0  0  0  0  0  0
  187.7910  177.2930  143.8860 C   0  0  0  0  0  0  0  0  0  0  0  0
  186.4470  177.3340  143.4470 C   0  0  0  0  0  0  0  0  0  0  0  0
  186.1510  177.6400  142.1160 C   0  0  0  0  0  3  0  0  0  0  0  0
  188.0640  176.9850  145.2370 C   0  0  0  0  0  0  0  0  0  0  0  0
  189.4870  174.3970  145.7070 C   0  0  0  0  0  2  0  0  0  0  0  0
  189.6880  173.6780  144.4100 C   0  0  0  0  0  0  0  0  0  0  0  0
  190.0110  172.5000  144.4190 O   0  0  0  0  0  0  0  0  0  0  0  0
  190.6690  174.1560  142.1720 C   0  0  0  0  0  2  0  0  0  0  0  0
  190.0730  173.9920  140.7850 C   0  0  0  0  0  2  0  0  0  0  0  0
  189.5080  174.4080  143.1140 C   0  0  0  0  0  3  0  0  0  0  0  0
  188.2630  173.9540  142.3880 C   0  0  0  0  0  2  0  0  0  0  0  0
  188.5720  174.1640  140.9230 C   0  0  0  0  0  2  0  0  0  0  0  0
  192.4170  174.3900  145.7610 C   0  0  0  0  0  2  0  0  0  0  0  0
  194.7180  174.2370  145.0170 N   0  0  0  0  0  0  0  0  0  0  0  0
  193.8770  174.6580  145.9080 C   0  0  0  0  0  3  0  0  0  0  0  0
  196.1260  174.4780  145.1130 C   0  0  0  0  0  0  0  0  0  0  0  0
  196.6660  175.2900  144.3190 O   0  0  0  0  0  0  0  0  0  0  0  0
  196.9700  173.7910  146.1350 C   0  0  0  0  0  1  0  0  0  0  0  0
  1  2  2  0  0  0  0
  3  5  1  0  0  0  0
  3 25  1  0  0  0  0
  4  3  2  0  0  0  0
  5  1  1  0  0  0  0
  6 11  1  0  0  0  0
  7 10  2  0  0  0  0
  8  9  1  0  0  0  0
 10  8  1  0  0  0  0
 11 13  2  0  0  0  0
 12  6  2  0  0  0  0
 12 15  1  0  0  0  0
 13 16  1  0  0  0  0
 14 13  1  0  0  0  0
 14  7  1  0  0  0  0
 15 14  2  0  0  0  0
 16  1  1  0  0  0  0
 16  8  2  0  0  0  0
 17  5  1  0  0  0  0
 18 19  2  0  0  0  0
 18 17  1  0  0  0  0
 20 22  1  0  0  0  0
 21 24  1  0  0  0  0
 21 20  1  0  0  0  0
 22 18  1  0  0  0  0
 23 22  1  0  0  0  0
 24 23  1  0  0  0  0
 25 27  1  0  0  0  0
 26 28  1  0  0  0  0
 26 27  2  0  0  0  0
 28 30  1  0  0  0  0
 29 28  2  0  0  0  0
M  END
>  <MODEL>
8

>  <REMARK>
 VINA RESULT:      -6.7      2.566      7.351
  Name = 
  7 active torsions:
  status: ('A' for Active; 'I' for Inactive)
    1  A    between atoms: C_1  and  N_6
    2  A    between atoms: C_5  and  C_29
    3  A    between atoms: C_8  and  C_15
    4  A    between atoms: C_13  and  C_19
    5  A    between atoms: C_13  and  N_30
    6  A    between atoms: C_15  and  C_23
    7  A    between atoms: C_19  and  C_20
                            x       y       z     vdW  Elec       q    Type
                         _______ _______ _______ _____ _____    ______ ____

>  <TORSDO>
F 7

$$$$
=
 OpenBabel11042413453D

 30 32  0  0  0  0  0  0  0  0999 V2000
  189.3350  177.4100  143.7690 C   0  0  0  0  0  0  0  0  0  0  0  0
  190.0170  178.3020  144.3430 O   0  0  0  0  0  0  0  0  0  0  0  0
  191.3610  176.3060  142.7660 C   0  0  0  0  0  0  0  0  0  0  0  0
  191.9950  177.3950  142.7770 O   0  0  0  0  0  0  0  0  0  0  0  0
  189.9880  176.2520  143.2070 N   0  0  0  0  0  0  0  0  0  0  0  0
  186.8420  177.0240  147.2810 C   0  0  0  0  0  3  0  0  0  0  0  0
  185.0930  177.8650  143.6050 N   0  0  0  0  0  0  0  0  0  0  0  0
  187.2120  177.8170  142.5010 C   0  0  0  0  0  0  0  0  0  0  0  0
  187.9530  177.9620  141.2930 N   0  0  0  0  0  1  0  0  0  0  0  0
  185.8260  177.9730  142.4680 C   0  0  0  0  0  3  0  0  0  0  0  0
  187.6450  177.1390  146.1450 C   0  0  0  0  0  3  0  0  0  0  0  0
  185.4600  177.2010  147.1840 C   0  0  0  0  0  3  0  0  0  0  0  0
  187.0750  177.4390  144.8960 C   0  0  0  0  0  0  0  0  0  0  0  0
  185.6730  177.6040  144.8050 C   0  0  0  0  0  0  0  0  0  0  0  0
  184.8760  177.4890  145.9470 C   0  0  0  0  0  3  0  0  0  0  0  0
  187.8580  177.5570  143.7260 C   0  0  0  0  0  0  0  0  0  0  0  0
  189.2540  174.9900  143.0940 C   0  0  0  0  0  2  0  0  0  0  0  0
  189.6030  174.0700  144.2220 C   0  0  0  0  0  0  0  0  0  0  0  0
  189.7970  174.5320  145.3360 O   0  0  0  0  0  0  0  0  0  0  0  0
  189.4300  172.2530  142.5290 C   0  0  0  0  0  2  0  0  0  0  0  0
  190.4400  171.1940  142.1210 C   0  0  0  0  0  2  0  0  0  0  0  0
  189.7270  172.5980  143.9750 C   0  0  0  0  0  3  0  0  0  0  0  0
  191.1280  172.1040  144.2520 C   0  0  0  0  0  2  0  0  0  0  0  0
  191.3080  170.9180  143.3330 C   0  0  0  0  0  2  0  0  0  0  0  0
  192.0700  175.0780  142.2850 C   0  0  0  0  0  2  0  0  0  0  0  0
  193.1910  175.0160  144.4320 N   0  0  0  0  0  0  0  0  0  0  0  0
  193.2320  174.7580  143.1640 C   0  0  0  0  0  3  0  0  0  0  0  0
  194.2790  174.7200  145.3140 C   0  0  0  0  0  0  0  0  0  0  0  0
  194.7430  175.6310  146.0460 O   0  0  0  0  0  0  0  0  0  0  0  0
  194.8770  173.3530  145.3880 C   0  0  0  0  0  1  0  0  0  0  0  0
  1  2  2  0  0  0  0
  3  4  2  0  0  0  0
  3  5  1  0  0  0  0
  5  1  1  0  0  0  0
  7 14  1  0  0  0  0
  8 16  2  0  0  0  0
  9  8  1  0  0  0  0
 10  8  1  0  0  0  0
 10  7  2  0  0  0  0
 11  6  2  0  0  0  0
 12  6  1  0  0  0  0
 13 11  1  0  0  0  0
 14 13  2  0  0  0  0
 14 15  1  0  0  0  0
 15 12  2  0  0  0  0
 16  1  1  0  0  0  0
 16 13  1  0  0  0  0
 17  5  1  0  0  0  0
 17 18  1  0  0  0  0
 18 19  2  0  0  0  0
 20 22  1  0  0  0  0
 21 20  1  0  0  0  0
 21 24  1  0  0  0  0
 22 18  1  0  0  0  0
 22 23  1  0  0  0  0
 24 23  1  0  0  0  0
 25  3  1  0  0  0  0
 25 27  1  0  0  0  0
 26 28  1  0  0  0  0
 27 26  2  0  0  0  0
 28 30  1  0  0  0  0
 28 29  2  0  0  0  0
M  END
>  <MODEL>
9

>  <REMARK>
 VINA RESULT:      -6.7      2.611      7.447
  Name = 
  7 active torsions:
  status: ('A' for Active; 'I' for Inactive)
    1  A    between atoms: C_1  and  N_6
    2  A    between atoms: C_5  and  C_29
    3  A    between atoms: C_8  and  C_15
    4  A    between atoms: C_13  and  C_19
    5  A    between atoms: C_13  and  N_30
    6  A    between atoms: C_15  and  C_23
    7  A    between atoms: C_19  and  C_20
                            x       y       z     vdW  Elec       q    Type
                         _______ _______ _______ _____ _____    ______ ____

>  <TORSDO>
F 7

$$$$
