=
 OpenBabel11042415023D

 33 35  0  0  1  0  0  0  0  0999 V2000
  191.0000  174.7480  145.7750 C   0  0  0  0  0  0  0  0  0  0  0  0
  192.9720  174.4930  144.2840 C   0  0  0  0  0  3  0  0  0  0  0  0
  190.9970  172.7680  141.7400 O   0  0  0  0  0  0  0  0  0  0  0  0
  189.9490  173.2550  138.3160 C   0  0  0  0  0  2  0  0  0  0  0  0
  186.8400  178.5160  143.9490 C   0  0  0  0  0  2  0  0  0  0  0  0
  187.9100  177.7820  144.7520 C   0  0  0  0  0  2  0  0  0  0  0  0
  190.1740  173.3170  143.8960 C   0  0  0  0  0  3  0  0  0  0  0  0
  189.7060  172.6770  141.1390 C   0  0  2  0  0  3  0  0  0  0  0  0
  186.3490  177.7270  142.7340 C   0  0  2  0  0  3  0  0  0  0  0  0
  189.7650  176.3200  142.4940 C   0  0  0  0  0  2  0  0  0  0  0  0
  190.1730  173.8280  145.2770 C   0  0  0  0  0  3  0  0  0  0  0  0
  188.1830  174.7770  141.3860 C   0  0  2  0  0  3  0  0  0  0  0  0
  187.3160  177.1470  146.0050 C   0  0  2  0  0  3  0  0  0  0  0  0
  189.8620  171.8320  138.7950 C   0  0  0  0  0  0  0  0  0  0  0  0
  192.0120  175.4490  144.9100 C   0  0  2  0  0  3  0  0  0  0  0  0
  188.6140  176.1420  141.8460 C   0  0  0  0  0  0  0  0  0  0  0  0
  189.7200  171.5790  140.1020 C   0  0  0  0  0  3  0  0  0  0  0  0
  185.7280  176.3930  143.1120 C   0  0  0  0  0  1  0  0  0  0  0  0
  186.8600  177.1740  140.1990 O   0  0  0  0  0  0  0  0  0  0  0  0
  186.9860  178.2020  147.0490 C   0  0  0  0  0  1  0  0  0  0  0  0
  188.9480  174.0980  139.0930 C   0  0  0  0  0  2  0  0  0  0  0  0
  188.2400  176.0760  146.5810 C   0  0  0  0  0  2  0  0  0  0  0  0
  192.7200  176.4090  145.6340 O   0  0  0  0  0  1  0  0  0  0  0  0
  189.6050  176.6280  146.9800 C   0  0  0  0  0  2  0  0  0  0  0  0
  191.2090  173.2340  143.0440 C   0  0  0  0  0  0  0  0  0  0  0  0
  187.7240  174.0170  142.4650 O   0  0  0  0  0  1  0  0  0  0  0  0
  187.6250  177.5720  141.4550 S   0  0  1  0  0  0  0  0  0  0  0  0
  189.2880  174.0700  140.5850 C   0  0  2  0  0  3  0  0  0  0  0  0
  190.7220  175.2730  147.4700 S   0  0  0  0  0  0  0  0  0  0  0  0
  192.6000  173.5410  143.4290 C   0  0  0  0  0  3  0  0  0  0  0  0
  189.8230  170.6930  137.8240 C   0  0  0  0  0  3  0  0  0  0  0  0
  189.7930  171.2030  136.3950 C   0  0  0  0  0  1  0  0  0  0  0  0
  191.0150  169.7740  138.0210 C   0  0  0  0  0  1  0  0  0  0  0  0
  1 29  1  0  0  0  0
  2 15  1  0  0  0  0
  3 25  1  0  0  0  0
  4 14  1  0  0  0  0
  4 21  1  0  0  0  0
  5  6  1  0  0  0  0
  6 13  1  0  0  0  0
  7 11  1  0  0  0  0
  8 17  1  6  0  0  0
  8  3  1  0  0  0  0
  9 18  1  1  0  0  0
  9  5  1  0  0  0  0
 11  1  2  0  0  0  0
 12 16  1  0  0  0  0
 12 26  1  1  0  0  0
 13 22  1  0  0  0  0
 13 20  1  1  0  0  0
 14 17  2  0  0  0  0
 15 23  1  1  0  0  0
 15  1  1  0  0  0  0
 16 10  2  0  0  0  0
 22 24  1  0  0  0  0
 24 29  1  0  0  0  0
 25 30  1  0  0  0  0
 25  7  2  0  0  0  0
 27 19  2  6  0  0  0
 27 16  1  0  0  0  0
 27  9  1  0  0  0  0
 28 21  1  6  0  0  0
 28  8  1  0  0  0  0
 28 12  1  0  0  0  0
 30  2  2  0  0  0  0
 31 33  1  0  0  0  0
 31 14  1  0  0  0  0
 32 31  1  0  0  0  0
M  END
>  <MODEL>
1

>  <REMARK>
 VINA RESULT:      -8.6      0.000      0.000
  Name = 
  1 active torsions:
  status: ('A' for Active; 'I' for Inactive)
    1  A    between atoms: C_1  and  C_17
                            x       y       z     vdW  Elec       q    Type
                         _______ _______ _______ _____ _____    ______ ____

>  <TORSDO>
F 1

$$$$
=
 OpenBabel11042415023D

 33 35  0  0  1  0  0  0  0  0999 V2000
  193.4850  175.3890  144.5370 C   0  0  0  0  0  0  0  0  0  0  0  0
  192.4970  175.4840  146.8150 C   0  0  0  0  0  3  0  0  0  0  0  0
  189.5230  177.2230  145.6010 O   0  0  0  0  0  0  0  0  0  0  0  0
  185.9590  176.6740  145.3590 C   0  0  0  0  0  2  0  0  0  0  0  0
  190.8090  171.7910  140.6990 C   0  0  0  0  0  2  0  0  0  0  0  0
  191.8260  172.4930  141.5940 C   0  0  0  0  0  2  0  0  0  0  0  0
  191.4340  176.7960  144.2640 C   0  0  0  0  0  3  0  0  0  0  0  0
  188.6320  177.3630  144.4950 C   0  0  2  0  0  3  0  0  0  0  0  0
  189.4960  172.5610  140.5560 C   0  0  2  0  0  3  0  0  0  0  0  0
  190.0400  173.7720  144.0130 C   0  0  0  0  0  2  0  0  0  0  0  0
  192.7860  176.3340  143.9070 C   0  0  0  0  0  3  0  0  0  0  0  0
  188.5570  175.3590  142.8320 C   0  0  2  0  0  3  0  0  0  0  0  0
  192.8880  173.2030  140.7620 C   0  0  2  0  0  3  0  0  0  0  0  0
  186.3730  178.1160  145.2480 C   0  0  0  0  0  0  0  0  0  0  0  0
  192.8980  174.6040  145.6780 C   0  0  2  0  0  3  0  0  0  0  0  0
  189.1340  173.9890  143.0590 C   0  0  0  0  0  0  0  0  0  0  0  0
  187.6040  178.4220  144.8190 C   0  0  0  0  0  3  0  0  0  0  0  0
  189.6880  173.9410  139.9470 C   0  0  0  0  0  1  0  0  0  0  0  0
  187.1410  172.9970  141.6800 O   0  0  0  0  0  0  0  0  0  0  0  0
  193.8480  172.2040  140.1330 C   0  0  0  0  0  1  0  0  0  0  0  0
  186.4950  175.9140  144.1540 C   0  0  0  0  0  2  0  0  0  0  0  0
  193.6440  174.2410  141.5890 C   0  0  0  0  0  2  0  0  0  0  0  0
  193.7890  173.6320  146.1380 O   0  0  0  0  0  1  0  0  0  0  0  0
  194.3660  173.6310  142.7860 C   0  0  0  0  0  2  0  0  0  0  0  0
  190.8500  176.7930  145.4720 C   0  0  0  0  0  0  0  0  0  0  0  0
  189.4800  176.1800  142.1800 O   0  0  0  0  0  1  0  0  0  0  0  0
  188.5510  172.6030  142.1040 S   0  0  1  0  0  0  0  0  0  0  0  0
  188.0240  175.9760  144.1350 C   0  0  2  0  0  3  0  0  0  0  0  0
  195.0770  174.9390  143.8370 S   0  0  0  0  0  0  0  0  0  0  0  0
  191.5580  176.4230  146.7130 C   0  0  0  0  0  3  0  0  0  0  0  0
  185.3970  179.2210  145.5080 C   0  0  0  0  0  3  0  0  0  0  0  0
  185.1920  180.0630  144.2630 C   0  0  0  0  0  1  0  0  0  0  0  0
  184.0660  178.6660  145.9830 C   0  0  0  0  0  1  0  0  0  0  0  0
  1 15  1  0  0  0  0
  5  6  1  0  0  0  0
  7 25  2  0  0  0  0
  8 17  1  1  0  0  0
  8  3  1  0  0  0  0
  9 18  1  1  0  0  0
  9  5  1  0  0  0  0
  9 27  1  0  0  0  0
 11  7  1  0  0  0  0
 11  1  2  0  0  0  0
 12 26  1  1  0  0  0
 12 16  1  0  0  0  0
 12 28  1  0  0  0  0
 13 20  1  1  0  0  0
 13 22  1  0  0  0  0
 13  6  1  0  0  0  0
 14  4  1  0  0  0  0
 14 31  1  0  0  0  0
 15 23  1  1  0  0  0
 15  2  1  0  0  0  0
 16 10  2  0  0  0  0
 17 14  2  0  0  0  0
 21  4  1  0  0  0  0
 22 24  1  0  0  0  0
 24 29  1  0  0  0  0
 25  3  1  0  0  0  0
 25 30  1  0  0  0  0
 27 19  2  6  0  0  0
 27 16  1  0  0  0  0
 28 21  1  6  0  0  0
 28  8  1  0  0  0  0
 29  1  1  0  0  0  0
 30  2  2  0  0  0  0
 31 33  1  0  0  0  0
 32 31  1  0  0  0  0
M  END
>  <MODEL>
2

>  <REMARK>
 VINA RESULT:      -8.4      2.420      6.919
  Name = 
  1 active torsions:
  status: ('A' for Active; 'I' for Inactive)
    1  A    between atoms: C_1  and  C_17
                            x       y       z     vdW  Elec       q    Type
                         _______ _______ _______ _____ _____    ______ ____

>  <TORSDO>
F 1

$$$$
=
 OpenBabel11042415023D

 33 35  0  0  1  0  0  0  0  0999 V2000
  190.4450  171.0620  141.6260 C   0  0  0  0  0  0  0  0  0  0  0  0
  189.6420  172.2490  139.5950 C   0  0  0  0  0  3  0  0  0  0  0  0
  188.0350  174.8550  141.5890 O   0  0  0  0  0  0  0  0  0  0  0  0
  188.3000  178.4180  142.1320 C   0  0  0  0  0  2  0  0  0  0  0  0
  194.6920  173.7700  144.7020 C   0  0  0  0  0  2  0  0  0  0  0  0
  193.8690  172.7670  143.8990 C   0  0  0  0  0  2  0  0  0  0  0  0
  188.9840  172.8880  142.5150 C   0  0  0  0  0  3  0  0  0  0  0  0
  188.1210  175.6090  142.7970 C   0  0  2  0  0  3  0  0  0  0  0  0
  193.8730  174.9580  145.2070 C   0  0  2  0  0  3  0  0  0  0  0  0
  191.8210  174.6110  142.1450 C   0  0  0  0  0  2  0  0  0  0  0  0
  189.6470  171.5750  142.5630 C   0  0  0  0  0  3  0  0  0  0  0  0
  190.4860  175.7660  143.8770 C   0  0  2  0  0  3  0  0  0  0  0  0
  193.5140  171.5490  144.7450 C   0  0  2  0  0  3  0  0  0  0  0  0
  186.9870  177.8210  142.5600 C   0  0  0  0  0  0  0  0  0  0  0  0
  190.8320  171.8500  140.4030 C   0  0  2  0  0  3  0  0  0  0  0  0
  191.7900  175.3850  143.2300 C   0  0  0  0  0  0  0  0  0  0  0  0
  186.9240  176.5260  142.8940 C   0  0  0  0  0  3  0  0  0  0  0  0
  192.7360  174.5400  146.1250 C   0  0  0  0  0  1  0  0  0  0  0  0
  192.9330  177.3400  144.5440 O   0  0  0  0  0  0  0  0  0  0  0  0
  194.7290  170.6620  144.9650 C   0  0  0  0  0  1  0  0  0  0  0  0
  189.4050  177.8640  143.0190 C   0  0  0  0  0  2  0  0  0  0  0  0
  192.3630  170.7570  144.1280 C   0  0  0  0  0  2  0  0  0  0  0  0
  191.7180  171.1330  139.5980 O   0  0  0  0  0  1  0  0  0  0  0  0
  192.6870  170.2360  142.7310 C   0  0  0  0  0  2  0  0  0  0  0  0
  188.6040  173.5850  141.4310 C   0  0  0  0  0  0  0  0  0  0  0  0
  189.9630  174.6890  144.5970 O   0  0  0  0  0  1  0  0  0  0  0  0
  193.3250  176.0380  143.8570 S   0  0  1  0  0  0  0  0  0  0  0  0
  189.4910  176.3440  142.8580 C   0  0  2  0  0  3  0  0  0  0  0  0
  191.2120  169.4760  141.9760 S   0  0  0  0  0  0  0  0  0  0  0  0
  188.6840  173.0520  140.0580 C   0  0  0  0  0  3  0  0  0  0  0  0
  185.7680  178.6760  142.7230 C   0  0  0  0  0  3  0  0  0  0  0  0
  184.5080  177.8760  142.4500 C   0  0  0  0  0  1  0  0  0  0  0  0
  185.7110  179.2750  144.1170 C   0  0  0  0  0  1  0  0  0  0  0  0
  1 29  1  0  0  0  0
  1 11  2  0  0  0  0
  2 30  2  0  0  0  0
  2 15  1  0  0  0  0
  3  8  1  0  0  0  0
  4 14  1  0  0  0  0
  4 21  1  0  0  0  0
  5  9  1  0  0  0  0
  6  5  1  0  0  0  0
  6 13  1  0  0  0  0
  7 11  1  0  0  0  0
  8 28  1  0  0  0  0
  8 17  1  6  0  0  0
  9 18  1  6  0  0  0
 10 16  2  0  0  0  0
 12 26  1  6  0  0  0
 13 20  1  6  0  0  0
 14 31  1  0  0  0  0
 14 17  2  0  0  0  0
 15 23  1  6  0  0  0
 15  1  1  0  0  0  0
 16 27  1  0  0  0  0
 16 12  1  0  0  0  0
 22 13  1  0  0  0  0
 24 22  1  0  0  0  0
 25  3  1  0  0  0  0
 25  7  2  0  0  0  0
 27 19  2  1  0  0  0
 27  9  1  0  0  0  0
 28 21  1  1  0  0  0
 28 12  1  0  0  0  0
 29 24  1  0  0  0  0
 30 25  1  0  0  0  0
 31 33  1  0  0  0  0
 32 31  1  0  0  0  0
M  END
>  <MODEL>
3

>  <REMARK>
 VINA RESULT:      -8.4      2.452      6.949
  Name = 
  1 active torsions:
  status: ('A' for Active; 'I' for Inactive)
    1  A    between atoms: C_1  and  C_17
                            x       y       z     vdW  Elec       q    Type
                         _______ _______ _______ _____ _____    ______ ____

>  <TORSDO>
F 1

$$$$
=
 OpenBabel11042415023D

 33 35  0  0  1  0  0  0  0  0999 V2000
  191.8660  170.9660  142.9690 C   0  0  0  0  0  0  0  0  0  0  0  0
  190.2660  171.9440  141.3380 C   0  0  0  0  0  3  0  0  0  0  0  0
  189.0230  174.3470  143.7930 O   0  0  0  0  0  0  0  0  0  0  0  0
  188.8980  177.9260  144.2750 C   0  0  0  0  0  2  0  0  0  0  0  0
  196.4170  174.3930  144.5110 C   0  0  0  0  0  2  0  0  0  0  0  0
  195.5410  173.2490  144.0090 C   0  0  0  0  0  2  0  0  0  0  0  0
  190.5150  172.5810  144.3200 C   0  0  0  0  0  3  0  0  0  0  0  0
  189.3840  175.1490  144.9170 C   0  0  2  0  0  3  0  0  0  0  0  0
  195.6360  175.4610  145.2780 C   0  0  2  0  0  3  0  0  0  0  0  0
  192.7700  174.6990  143.0610 C   0  0  0  0  0  2  0  0  0  0  0  0
  191.3520  171.3850  144.1250 C   0  0  0  0  0  3  0  0  0  0  0  0
  191.9190  175.7000  145.1560 C   0  0  2  0  0  3  0  0  0  0  0  0
  195.6760  172.0230  144.9050 C   0  0  2  0  0  3  0  0  0  0  0  0
  187.9080  177.1540  145.1040 C   0  0  0  0  0  0  0  0  0  0  0  0
  191.7020  171.7580  141.7000 C   0  0  2  0  0  3  0  0  0  0  0  0
  192.9790  175.4980  144.1080 C   0  0  0  0  0  0  0  0  0  0  0  0
  188.1600  175.8770  145.4190 C   0  0  0  0  0  3  0  0  0  0  0  0
  194.9440  174.9090  146.5130 C   0  0  0  0  0  1  0  0  0  0  0  0
  194.1740  177.6480  145.0020 O   0  0  0  0  0  0  0  0  0  0  0  0
  197.0180  171.3380  144.6960 C   0  0  0  0  0  1  0  0  0  0  0  0
  190.3050  177.5780  144.7380 C   0  0  0  0  0  2  0  0  0  0  0  0
  194.5230  171.0440  144.6910 C   0  0  0  0  0  2  0  0  0  0  0  0
  192.3730  171.1560  140.6350 O   0  0  0  0  0  1  0  0  0  0  0  0
  194.4460  170.5280  143.2570 C   0  0  0  0  0  2  0  0  0  0  0  0
  189.6970  173.1720  143.4350 C   0  0  0  0  0  0  0  0  0  0  0  0
  191.8350  174.5830  145.9910 O   0  0  0  0  0  1  0  0  0  0  0  0
  194.5140  176.3960  144.2030 S   0  0  1  0  0  0  0  0  0  0  0  0
  190.5670  176.0840  144.5330 C   0  0  2  0  0  3  0  0  0  0  0  0
  192.9410  169.5280  143.0190 S   0  0  0  0  0  0  0  0  0  0  0  0
  189.4020  172.6090  142.1040 C   0  0  0  0  0  3  0  0  0  0  0  0
  186.6940  177.8200  145.6750 C   0  0  0  0  0  3  0  0  0  0  0  0
  186.0600  178.7480  144.6560 C   0  0  0  0  0  1  0  0  0  0  0  0
  185.6810  176.7910  146.1410 C   0  0  0  0  0  1  0  0  0  0  0  0
  1 29  1  0  0  0  0
  1 11  2  0  0  0  0
  2 15  1  0  0  0  0
  2 30  2  0  0  0  0
  3  8  1  0  0  0  0
  4 21  1  0  0  0  0
  4 14  1  0  0  0  0
  5  9  1  0  0  0  0
  6  5  1  0  0  0  0
  6 13  1  0  0  0  0
  8 17  1  6  0  0  0
  9 18  1  1  0  0  0
 10 16  2  0  0  0  0
 11  7  1  0  0  0  0
 12 26  1  6  0  0  0
 13 20  1  6  0  0  0
 14 17  2  0  0  0  0
 14 31  1  0  0  0  0
 15 23  1  6  0  0  0
 15  1  1  0  0  0  0
 16 27  1  0  0  0  0
 16 12  1  0  0  0  0
 22 13  1  0  0  0  0
 24 22  1  0  0  0  0
 25  3  1  0  0  0  0
 25  7  2  0  0  0  0
 27 19  2  1  0  0  0
 27  9  1  0  0  0  0
 28 21  1  1  0  0  0
 28  8  1  0  0  0  0
 28 12  1  0  0  0  0
 29 24  1  0  0  0  0
 30 25  1  0  0  0  0
 31 33  1  0  0  0  0
 32 31  1  0  0  0  0
M  END
>  <MODEL>
4

>  <REMARK>
 VINA RESULT:      -7.8      2.853      7.576
  Name = 
  1 active torsions:
  status: ('A' for Active; 'I' for Inactive)
    1  A    between atoms: C_1  and  C_17
                            x       y       z     vdW  Elec       q    Type
                         _______ _______ _______ _____ _____    ______ ____

>  <TORSDO>
F 1

$$$$
=
 OpenBabel11042415023D

 33 35  0  0  1  0  0  0  0  0999 V2000
  192.6070  176.4950  146.1640 C   0  0  0  0  0  0  0  0  0  0  0  0
  190.6240  176.8170  147.6260 C   0  0  0  0  0  3  0  0  0  0  0  0
  188.5000  177.6870  144.7830 O   0  0  0  0  0  0  0  0  0  0  0  0
  185.5730  176.4190  143.0850 C   0  0  0  0  0  2  0  0  0  0  0  0
  192.4620  171.7960  142.5960 C   0  0  0  0  0  2  0  0  0  0  0  0
  192.8480  172.8370  143.6430 C   0  0  0  0  0  2  0  0  0  0  0  0
  190.8490  177.4000  144.6300 C   0  0  0  0  0  3  0  0  0  0  0  0
  188.2590  177.4430  143.3980 C   0  0  2  0  0  3  0  0  0  0  0  0
  191.3320  172.2560  141.6740 C   0  0  2  0  0  3  0  0  0  0  0  0
  190.0080  174.1690  144.5540 C   0  0  0  0  0  2  0  0  0  0  0  0
  192.2340  177.1530  145.0650 C   0  0  0  0  0  3  0  0  0  0  0  0
  189.1730  175.1900  142.4630 C   0  0  2  0  0  3  0  0  0  0  0  0
  194.1210  173.5730  143.2390 C   0  0  2  0  0  3  0  0  0  0  0  0
  185.8700  177.8680  142.8110 C   0  0  0  0  0  0  0  0  0  0  0  0
  191.6010  175.8370  147.0680 C   0  0  2  0  0  3  0  0  0  0  0  0
  189.6740  174.0250  143.2720 C   0  0  0  0  0  0  0  0  0  0  0  0
  187.1240  178.3220  142.9310 C   0  0  0  0  0  3  0  0  0  0  0  0
  191.6860  173.5080  140.8900 C   0  0  0  0  0  1  0  0  0  0  0  0
  188.7020  172.4260  141.4410 O   0  0  0  0  0  0  0  0  0  0  0  0
  195.3430  172.6820  143.4000 C   0  0  0  0  0  1  0  0  0  0  0  0
  186.6910  175.5680  142.5010 C   0  0  0  0  0  2  0  0  0  0  0  0
  194.2860  174.8740  144.0220 C   0  0  0  0  0  2  0  0  0  0  0  0
  192.2270  175.1600  148.1160 O   0  0  0  0  0  1  0  0  0  0  0  0
  194.3730  174.6490  145.5290 C   0  0  0  0  0  2  0  0  0  0  0  0
  189.7490  177.5080  145.3920 C   0  0  0  0  0  0  0  0  0  0  0  0
  190.2280  176.0390  142.1200 O   0  0  0  0  0  1  0  0  0  0  0  0
  189.7490  172.3990  142.5480 S   0  0  1  0  0  0  0  0  0  0  0  0
  188.0210  175.9230  143.1700 C   0  0  2  0  0  3  0  0  0  0  0  0
  194.3680  176.2430  146.4130 S   0  0  0  0  0  0  0  0  0  0  0  0
  189.7840  177.5200  146.8670 C   0  0  0  0  0  3  0  0  0  0  0  0
  184.8060  178.7900  142.3010 C   0  0  0  0  0  3  0  0  0  0  0  0
  184.2600  178.3010  140.9720 C   0  0  0  0  0  1  0  0  0  0  0  0
  183.6780  178.9220  143.3080 C   0  0  0  0  0  1  0  0  0  0  0  0
  1 29  1  0  0  0  0
  1 15  1  0  0  0  0
  3 25  1  0  0  0  0
  5  6  1  0  0  0  0
  7 11  1  0  0  0  0
  7 25  2  0  0  0  0
  8 17  1  1  0  0  0
  8  3  1  0  0  0  0
  9 18  1  1  0  0  0
  9 27  1  0  0  0  0
  9  5  1  0  0  0  0
 11  1  2  0  0  0  0
 12 26  1  1  0  0  0
 12 28  1  0  0  0  0
 12 16  1  0  0  0  0
 13 20  1  1  0  0  0
 13  6  1  0  0  0  0
 13 22  1  0  0  0  0
 14 17  2  0  0  0  0
 14  4  1  0  0  0  0
 15  2  1  0  0  0  0
 15 23  1  1  0  0  0
 16 10  2  0  0  0  0
 21  4  1  0  0  0  0
 22 24  1  0  0  0  0
 24 29  1  0  0  0  0
 25 30  1  0  0  0  0
 27 19  2  6  0  0  0
 27 16  1  0  0  0  0
 28 21  1  6  0  0  0
 28  8  1  0  0  0  0
 30  2  2  0  0  0  0
 31 14  1  0  0  0  0
 31 33  1  0  0  0  0
 32 31  1  0  0  0  0
M  END
>  <MODEL>
5

>  <REMARK>
 VINA RESULT:      -7.6      2.681      6.481
  Name = 
  1 active torsions:
  status: ('A' for Active; 'I' for Inactive)
    1  A    between atoms: C_1  and  C_17
                            x       y       z     vdW  Elec       q    Type
                         _______ _______ _______ _____ _____    ______ ____

>  <TORSDO>
F 1

$$$$
=
 OpenBabel11042415023D

 33 35  0  0  1  0  0  0  0  0999 V2000
  195.4350  175.5340  144.2300 C   0  0  0  0  0  0  0  0  0  0  0  0
  194.5660  176.0160  146.5080 C   0  0  0  0  0  3  0  0  0  0  0  0
  191.3250  177.0750  145.1950 O   0  0  0  0  0  0  0  0  0  0  0  0
  187.8590  176.0670  145.3670 C   0  0  0  0  0  2  0  0  0  0  0  0
  193.0630  170.8790  141.4830 C   0  0  0  0  0  2  0  0  0  0  0  0
  194.0230  171.8790  142.1200 C   0  0  0  0  0  2  0  0  0  0  0  0
  193.2030  176.5910  143.8290 C   0  0  0  0  0  3  0  0  0  0  0  0
  190.3660  176.8580  144.1620 C   0  0  2  0  0  3  0  0  0  0  0  0
  191.6530  171.4370  141.2850 C   0  0  2  0  0  3  0  0  0  0  0  0
  192.2140  173.4430  144.3460 C   0  0  0  0  0  2  0  0  0  0  0  0
  194.5830  176.2250  143.4710 C   0  0  0  0  0  3  0  0  0  0  0  0
  190.4710  174.5400  142.9780 C   0  0  2  0  0  3  0  0  0  0  0  0
  194.9350  172.5060  141.0720 C   0  0  2  0  0  3  0  0  0  0  0  0
  188.0710  177.4870  144.9170 C   0  0  0  0  0  0  0  0  0  0  0  0
  195.0200  174.9590  145.5570 C   0  0  2  0  0  3  0  0  0  0  0  0
  191.2380  173.3330  143.4450 C   0  0  0  0  0  0  0  0  0  0  0  0
  189.2250  177.8330  144.3330 C   0  0  0  0  0  3  0  0  0  0  0  0
  191.6260  172.6590  140.3810 C   0  0  0  0  0  1  0  0  0  0  0  0
  189.3250  171.8300  142.4780 O   0  0  0  0  0  0  0  0  0  0  0  0
  195.9840  171.5140  140.5950 C   0  0  0  0  0  1  0  0  0  0  0  0
  188.4270  175.1270  144.3130 C   0  0  0  0  0  2  0  0  0  0  0  0
  195.5880  173.7850  141.5930 C   0  0  0  0  0  2  0  0  0  0  0  0
  196.0560  174.2270  146.1390 O   0  0  0  0  0  1  0  0  0  0  0  0
  196.4480  173.5470  142.8300 C   0  0  0  0  0  2  0  0  0  0  0  0
  192.6890  176.7880  145.0540 C   0  0  0  0  0  0  0  0  0  0  0  0
  191.2400  175.2990  142.0920 O   0  0  0  0  0  1  0  0  0  0  0  0
  190.7950  171.7100  142.8590 S   0  0  1  0  0  0  0  0  0  0  0  0
  189.9310  175.3640  144.1580 C   0  0  2  0  0  3  0  0  0  0  0  0
  197.0330  175.1320  143.5150 S   0  0  0  0  0  0  0  0  0  0  0  0
  193.5060  176.7910  146.2830 C   0  0  0  0  0  3  0  0  0  0  0  0
  186.9700  178.4980  145.0130 C   0  0  0  0  0  3  0  0  0  0  0  0
  186.2740  178.6660  143.6750 C   0  0  0  0  0  1  0  0  0  0  0  0
  185.9620  178.1000  146.0750 C   0  0  0  0  0  1  0  0  0  0  0  0
  1 15  1  0  0  0  0
  5  6  1  0  0  0  0
  7 25  2  0  0  0  0
  8 17  1  1  0  0  0
  8  3  1  0  0  0  0
  9 18  1  1  0  0  0
  9  5  1  0  0  0  0
  9 27  1  0  0  0  0
 11  7  1  0  0  0  0
 11  1  2  0  0  0  0
 12 26  1  1  0  0  0
 12 16  1  0  0  0  0
 12 28  1  0  0  0  0
 13 20  1  1  0  0  0
 13 22  1  0  0  0  0
 13  6  1  0  0  0  0
 14 31  1  0  0  0  0
 14  4  1  0  0  0  0
 15 23  1  1  0  0  0
 15  2  1  0  0  0  0
 16 10  2  0  0  0  0
 17 14  2  0  0  0  0
 21  4  1  0  0  0  0
 22 24  1  0  0  0  0
 24 29  1  0  0  0  0
 25  3  1  0  0  0  0
 25 30  1  0  0  0  0
 27 19  2  6  0  0  0
 27 16  1  0  0  0  0
 28  8  1  0  0  0  0
 28 21  1  6  0  0  0
 29  1  1  0  0  0  0
 30  2  2  0  0  0  0
 31 33  1  0  0  0  0
 32 31  1  0  0  0  0
M  END
>  <MODEL>
6

>  <REMARK>
 VINA RESULT:      -7.6      2.879      7.335
  Name = 
  1 active torsions:
  status: ('A' for Active; 'I' for Inactive)
    1  A    between atoms: C_1  and  C_17
                            x       y       z     vdW  Elec       q    Type
                         _______ _______ _______ _____ _____    ______ ____

>  <TORSDO>
F 1

$$$$
=
 OpenBabel11042415023D

 33 35  0  0  1  0  0  0  0  0999 V2000
  194.5840  174.4500  144.3180 C   0  0  0  0  0  0  0  0  0  0  0  0
  195.3460  174.6320  141.9600 C   0  0  0  0  0  3  0  0  0  0  0  0
  192.5010  172.6860  140.7480 O   0  0  0  0  0  0  0  0  0  0  0  0
  189.6170  173.1230  138.6150 C   0  0  0  0  0  2  0  0  0  0  0  0
  189.7000  177.4590  145.7050 C   0  0  0  0  0  2  0  0  0  0  0  0
  191.1190  176.9010  145.6530 C   0  0  0  0  0  2  0  0  0  0  0  0
  193.0130  172.9760  143.0460 C   0  0  0  0  0  3  0  0  0  0  0  0
  191.1240  172.3840  140.9700 C   0  0  2  0  0  3  0  0  0  0  0  0
  188.7020  176.6480  144.8770 C   0  0  2  0  0  3  0  0  0  0  0  0
  191.4960  175.9110  142.5620 C   0  0  0  0  0  2  0  0  0  0  0  0
  193.7450  173.4160  144.2450 C   0  0  0  0  0  3  0  0  0  0  0  0
  189.7740  174.1520  142.3260 C   0  0  2  0  0  3  0  0  0  0  0  0
  191.4430  176.1120  146.9170 C   0  0  2  0  0  3  0  0  0  0  0  0
  190.0030  171.6880  138.8500 C   0  0  0  0  0  0  0  0  0  0  0  0
  194.8120  175.3640  143.1460 C   0  0  2  0  0  3  0  0  0  0  0  0
  190.2150  175.5520  142.6550 C   0  0  0  0  0  0  0  0  0  0  0  0
  190.6750  171.3560  139.9600 C   0  0  0  0  0  3  0  0  0  0  0  0
  188.5870  175.2060  145.3420 C   0  0  0  0  0  1  0  0  0  0  0  0
  187.7190  176.3130  142.4440 O   0  0  0  0  0  0  0  0  0  0  0  0
  191.6470  177.0400  148.1040 C   0  0  0  0  0  1  0  0  0  0  0  0
  189.1520  173.7310  139.9300 C   0  0  0  0  0  2  0  0  0  0  0  0
  192.6560  175.2060  146.7150 C   0  0  0  0  0  2  0  0  0  0  0  0
  195.6810  176.4060  143.4750 O   0  0  0  0  0  1  0  0  0  0  0  0
  193.9180  175.9830  146.3530 C   0  0  0  0  0  2  0  0  0  0  0  0
  193.3670  173.1240  141.7590 C   0  0  0  0  0  0  0  0  0  0  0  0
  190.1230  173.2730  143.3550 O   0  0  0  0  0  1  0  0  0  0  0  0
  189.0110  176.7890  143.0960 S   0  0  1  0  0  0  0  0  0  0  0  0
  190.2920  173.6990  140.9510 C   0  0  2  0  0  3  0  0  0  0  0  0
  195.2730  174.8380  145.9310 S   0  0  0  0  0  0  0  0  0  0  0  0
  194.6720  173.6670  141.3350 C   0  0  0  0  0  3  0  0  0  0  0  0
  189.5540  170.6060  137.9170 C   0  0  0  0  0  3  0  0  0  0  0  0
  189.7340  171.0330  136.4720 C   0  0  0  0  0  1  0  0  0  0  0  0
  190.3150  169.3190  138.1770 C   0  0  0  0  0  1  0  0  0  0  0  0
  1 29  1  0  0  0  0
  2 15  1  0  0  0  0
  3  8  1  0  0  0  0
  3 25  1  0  0  0  0
  4 14  1  0  0  0  0
  4 21  1  0  0  0  0
  6  5  1  0  0  0  0
  6 13  1  0  0  0  0
  7 11  1  0  0  0  0
  8 17  1  6  0  0  0
  9 18  1  1  0  0  0
  9  5  1  0  0  0  0
 10 16  2  0  0  0  0
 11  1  2  0  0  0  0
 12 16  1  0  0  0  0
 12 26  1  1  0  0  0
 13 20  1  1  0  0  0
 14 17  2  0  0  0  0
 15 23  1  1  0  0  0
 15  1  1  0  0  0  0
 16 27  1  0  0  0  0
 22 13  1  0  0  0  0
 24 22  1  0  0  0  0
 25  7  2  0  0  0  0
 27 19  2  6  0  0  0
 27  9  1  0  0  0  0
 28 21  1  6  0  0  0
 28  8  1  0  0  0  0
 28 12  1  0  0  0  0
 29 24  1  0  0  0  0
 30 25  1  0  0  0  0
 30  2  2  0  0  0  0
 31 33  1  0  0  0  0
 31 14  1  0  0  0  0
 32 31  1  0  0  0  0
M  END
>  <MODEL>
7

>  <REMARK>
 VINA RESULT:      -7.4      2.070      2.932
  Name = 
  1 active torsions:
  status: ('A' for Active; 'I' for Inactive)
    1  A    between atoms: C_1  and  C_17
                            x       y       z     vdW  Elec       q    Type
                         _______ _______ _______ _____ _____    ______ ____

>  <TORSDO>
F 1

$$$$
=
 OpenBabel11042415023D

 33 35  0  0  1  0  0  0  0  0999 V2000
  188.8280  174.6610  141.3290 C   0  0  0  0  0  0  0  0  0  0  0  0
  189.5520  172.2850  141.2310 C   0  0  0  0  0  3  0  0  0  0  0  0
  192.8160  173.0800  142.6670 O   0  0  0  0  0  0  0  0  0  0  0  0
  194.7440  172.3170  145.6260 C   0  0  0  0  0  2  0  0  0  0  0  0
  187.8700  176.8570  146.7230 C   0  0  0  0  0  2  0  0  0  0  0  0
  187.7310  176.4120  145.2700 C   0  0  0  0  0  2  0  0  0  0  0  0
  191.2360  174.7200  142.0060 C   0  0  0  0  0  3  0  0  0  0  0  0
  193.5050  173.9370  143.5760 C   0  0  2  0  0  3  0  0  0  0  0  0
  189.3130  176.8370  147.2270 C   0  0  2  0  0  3  0  0  0  0  0  0
  189.8730  173.9640  144.9600 C   0  0  0  0  0  2  0  0  0  0  0  0
  189.9980  175.2890  141.4460 C   0  0  0  0  0  3  0  0  0  0  0  0
  192.0420  175.0590  145.4160 C   0  0  2  0  0  3  0  0  0  0  0  0
  187.5660  177.6120  144.3440 C   0  0  2  0  0  3  0  0  0  0  0  0
  195.5590  172.8340  144.4720 C   0  0  0  0  0  0  0  0  0  0  0  0
  188.6230  173.2690  141.8620 C   0  0  2  0  0  3  0  0  0  0  0  0
  190.6300  174.6910  145.7810 C   0  0  0  0  0  0  0  0  0  0  0  0
  194.9790  173.6070  143.5450 C   0  0  0  0  0  3  0  0  0  0  0  0
  190.2250  177.7570  146.4330 C   0  0  0  0  0  1  0  0  0  0  0  0
  191.1910  175.2910  148.2670 O   0  0  0  0  0  0  0  0  0  0  0  0
  186.1830  178.2260  144.4860 C   0  0  0  0  0  1  0  0  0  0  0  0
  193.8180  173.4240  146.1100 C   0  0  0  0  0  2  0  0  0  0  0  0
  187.8540  177.2390  142.8910 C   0  0  0  0  0  2  0  0  0  0  0  0
  187.3060  172.8440  141.6810 O   0  0  0  0  0  1  0  0  0  0  0  0
  186.9210  176.1530  142.3650 C   0  0  0  0  0  2  0  0  0  0  0  0
  191.6190  173.4340  142.0300 C   0  0  0  0  0  0  0  0  0  0  0  0
  192.0530  176.0780  144.4610 O   0  0  0  0  0  1  0  0  0  0  0  0
  189.9670  175.1510  147.3700 S   0  0  1  0  0  0  0  0  0  0  0  0
  192.8590  173.8290  144.9870 C   0  0  2  0  0  3  0  0  0  0  0  0
  187.4410  175.6150  140.7020 S   0  0  0  0  0  0  0  0  0  0  0  0
  190.8770  172.3550  141.3500 C   0  0  0  0  0  3  0  0  0  0  0  0
  197.0340  172.5870  144.3970 C   0  0  0  0  0  3  0  0  0  0  0  0
  197.8070  173.7800  144.9260 C   0  0  0  0  0  1  0  0  0  0  0  0
  197.4130  171.3390  145.1720 C   0  0  0  0  0  1  0  0  0  0  0  0
  1 11  2  0  0  0  0
  1 15  1  0  0  0  0
  2 30  2  0  0  0  0
  2 15  1  0  0  0  0
  3  8  1  0  0  0  0
  4 21  1  0  0  0  0
  5  9  1  0  0  0  0
  6  5  1  0  0  0  0
  7 25  2  0  0  0  0
  8 17  1  1  0  0  0
  8 28  1  0  0  0  0
  9 18  1  6  0  0  0
  9 27  1  0  0  0  0
 10 16  2  0  0  0  0
 11  7  1  0  0  0  0
 12 26  1  6  0  0  0
 12 16  1  0  0  0  0
 13 20  1  6  0  0  0
 13  6  1  0  0  0  0
 14  4  1  0  0  0  0
 15 23  1  6  0  0  0
 16 27  1  0  0  0  0
 17 14  2  0  0  0  0
 22 13  1  0  0  0  0
 24 22  1  0  0  0  0
 25  3  1  0  0  0  0
 27 19  2  1  0  0  0
 28 12  1  0  0  0  0
 28 21  1  1  0  0  0
 29  1  1  0  0  0  0
 29 24  1  0  0  0  0
 30 25  1  0  0  0  0
 31 14  1  0  0  0  0
 31 32  1  0  0  0  0
 31 33  1  0  0  0  0
M  END
>  <MODEL>
8

>  <REMARK>
 VINA RESULT:      -7.4      2.146      6.117
  Name = 
  1 active torsions:
  status: ('A' for Active; 'I' for Inactive)
    1  A    between atoms: C_1  and  C_17
                            x       y       z     vdW  Elec       q    Type
                         _______ _______ _______ _____ _____    ______ ____

>  <TORSDO>
F 1

$$$$
=
 OpenBabel11042415023D

 33 35  0  0  1  0  0  0  0  0999 V2000
  191.4770  176.3830  145.5170 C   0  0  0  0  0  0  0  0  0  0  0  0
  193.9010  176.9320  145.5000 C   0  0  0  0  0  3  0  0  0  0  0  0
  194.8400  173.4090  145.7240 O   0  0  0  0  0  0  0  0  0  0  0  0
  196.5910  170.9300  143.7630 C   0  0  0  0  0  2  0  0  0  0  0  0
  189.3910  173.7130  140.6840 C   0  0  0  0  0  2  0  0  0  0  0  0
  189.6350  174.6730  141.8450 C   0  0  0  0  0  2  0  0  0  0  0  0
  192.6110  174.1910  145.9330 C   0  0  0  0  0  3  0  0  0  0  0  0
  194.4670  172.0830  145.3510 C   0  0  2  0  0  3  0  0  0  0  0  0
  190.1240  172.3800  140.8370 C   0  0  2  0  0  3  0  0  0  0  0  0
  192.7870  174.2550  142.5990 C   0  0  0  0  0  2  0  0  0  0  0  0
  191.4910  175.1450  146.0110 C   0  0  0  0  0  3  0  0  0  0  0  0
  192.8860  171.8830  143.2890 C   0  0  2  0  0  3  0  0  0  0  0  0
  188.4530  174.6790  142.8080 C   0  0  2  0  0  3  0  0  0  0  0  0
  196.4620  170.5880  145.2230 C   0  0  0  0  0  0  0  0  0  0  0  0
  192.6300  176.9250  144.7170 C   0  0  2  0  0  3  0  0  0  0  0  0
  192.5560  172.9750  142.3090 C   0  0  0  0  0  0  0  0  0  0  0  0
  195.4570  171.1060  145.9390 C   0  0  0  0  0  3  0  0  0  0  0  0
  189.7090  171.6200  142.0850 C   0  0  0  0  0  1  0  0  0  0  0  0
  192.4330  171.1550  140.4310 O   0  0  0  0  0  0  0  0  0  0  0  0
  187.2620  175.4090  142.2070 C   0  0  0  0  0  1  0  0  0  0  0  0
  195.2050  170.9320  143.1340 C   0  0  0  0  0  2  0  0  0  0  0  0
  188.8370  175.2780  144.1600 C   0  0  0  0  0  2  0  0  0  0  0  0
  192.3650  178.2150  144.2530 O   0  0  0  0  0  1  0  0  0  0  0  0
  189.3160  176.7220  144.0510 C   0  0  0  0  0  2  0  0  0  0  0  0
  193.9240  174.4610  145.8510 C   0  0  0  0  0  0  0  0  0  0  0  0
  191.9440  171.8480  144.3200 O   0  0  0  0  0  1  0  0  0  0  0  0
  191.9230  172.5660  140.6940 S   0  0  1  0  0  0  0  0  0  0  0  0
  194.3310  171.9960  143.8030 C   0  0  2  0  0  3  0  0  0  0  0  0
  189.9440  177.3080  145.6590 S   0  0  0  0  0  0  0  0  0  0  0  0
  194.4780  175.8240  145.9610 C   0  0  0  0  0  3  0  0  0  0  0  0
  197.3780  169.5930  145.8650 C   0  0  0  0  0  3  0  0  0  0  0  0
  196.8370  169.1550  147.2140 C   0  0  0  0  0  1  0  0  0  0  0  0
  197.5770  168.3840  144.9690 C   0  0  0  0  0  1  0  0  0  0  0  0
  1 29  1  0  0  0  0
  1 11  2  0  0  0  0
  2 30  2  0  0  0  0
  3 25  1  0  0  0  0
  4 14  1  0  0  0  0
  5  9  1  0  0  0  0
  5  6  1  0  0  0  0
  6 13  1  0  0  0  0
  7 11  1  0  0  0  0
  8  3  1  0  0  0  0
  8 17  1  6  0  0  0
  9 18  1  1  0  0  0
 12 28  1  0  0  0  0
 12 26  1  1  0  0  0
 13 20  1  6  0  0  0
 13 22  1  0  0  0  0
 14 31  1  0  0  0  0
 14 17  2  0  0  0  0
 15 23  1  1  0  0  0
 15  2  1  0  0  0  0
 15  1  1  0  0  0  0
 16 10  2  0  0  0  0
 16 12  1  0  0  0  0
 21  4  1  0  0  0  0
 24 22  1  0  0  0  0
 24 29  1  0  0  0  0
 25  7  2  0  0  0  0
 25 30  1  0  0  0  0
 27 19  2  1  0  0  0
 27  9  1  0  0  0  0
 27 16  1  0  0  0  0
 28 21  1  1  0  0  0
 28  8  1  0  0  0  0
 31 32  1  0  0  0  0
 33 31  1  0  0  0  0
M  END
>  <MODEL>
9

>  <REMARK>
 VINA RESULT:      -7.1      3.391      6.262
  Name = 
  1 active torsions:
  status: ('A' for Active; 'I' for Inactive)
    1  A    between atoms: C_1  and  C_17
                            x       y       z     vdW  Elec       q    Type
                         _______ _______ _______ _____ _____    ______ ____

>  <TORSDO>
F 1

$$$$
