=
 OpenBabel11042416453D

 48 54  0  0  1  0  0  0  0  0999 V2000
  190.6680  173.0610  141.5590 C   0  0  0  0  0  3  0  0  0  0  0  0
  188.8960  174.6800  141.0920 C   0  0  0  0  0  0  0  0  0  0  0  0
  187.2380  177.1590  143.3110 C   0  0  0  0  0  0  0  0  0  0  0  0
  188.0440  175.7050  141.5450 C   0  0  0  0  0  0  0  0  0  0  0  0
  189.8130  174.0850  141.9860 C   0  0  0  0  0  0  0  0  0  0  0  0
  185.4700  178.7400  142.7620 C   0  0  0  0  0  3  0  0  0  0  0  0
  191.5730  172.4770  142.4390 C   0  0  0  0  0  3  0  0  0  0  0  0
  184.6320  180.1970  144.4510 F   0  0  0  0  0  0  0  0  0  0  0  0
  188.1030  176.1350  142.8870 C   0  0  0  0  0  0  0  0  0  0  0  0
  186.3440  177.7190  142.3760 C   0  0  0  0  0  0  0  0  0  0  0  0
  189.8740  174.5180  143.3350 C   0  0  0  0  0  0  0  0  0  0  0  0
  190.7920  173.9250  144.2340 C   0  0  0  0  0  0  0  0  0  0  0  0
  191.6520  172.9010  143.7680 C   0  0  0  0  0  0  0  0  0  0  0  0
  185.4800  179.2090  144.0780 C   0  0  0  0  0  0  0  0  0  0  0  0
  186.3330  177.2640  141.0980 N   0  0  0  0  0  0  0  0  0  0  0  0
  187.1530  176.2920  140.6980 N   0  0  0  0  0  0  0  0  0  0  0  0
  187.2400  177.6390  144.6310 C   0  0  0  0  0  3  0  0  0  0  0  0
  189.0150  175.5390  143.7640 C   0  0  0  0  0  3  0  0  0  0  0  0
  186.3640  178.6600  145.0120 C   0  0  0  0  0  3  0  0  0  0  0  0
  189.5520  175.2340  147.2660 N   0  0  0  0  0  2  0  0  0  0  0  0
  190.8160  174.3910  145.6730 C   0  0  1  0  0  3  0  0  0  0  0  0
  191.3100  175.8040  145.8080 C   0  0  0  0  0  2  0  0  0  0  0  0
  190.3680  176.3560  146.8270 C   0  0  0  0  0  2  0  0  0  0  0  0
  189.5450  174.3140  146.2600 O   0  0  0  0  0  0  0  0  0  0  0  0
  188.7640  173.9010  138.6080 N   0  0  0  0  0  0  0  0  0  0  0  0
  188.8220  174.2480  139.7110 C   0  0  0  0  0  0  0  0  0  0  0  0
  192.6460  172.2270  144.6680 C   0  0  0  0  0  2  0  0  0  0  0  0
  196.1040  173.3520  145.7490 C   0  0  0  0  0  0  0  0  0  0  0  0
  195.2530  174.9230  144.1120 C   0  0  0  0  0  0  0  0  0  0  0  0
  197.0860  172.9540  146.5920 F   0  0  0  0  0  0  0  0  0  0  0  0
  194.0760  174.1740  144.0070 C   0  0  0  0  0  3  0  0  0  0  0  0
  194.9260  172.6050  145.6440 C   0  0  0  0  0  3  0  0  0  0  0  0
  193.9110  173.0130  144.7710 C   0  0  0  0  0  0  0  0  0  0  0  0
  196.2680  174.5090  144.9820 C   0  0  0  0  0  3  0  0  0  0  0  0
  195.4360  176.1510  143.2860 C   0  0  0  0  0  2  0  0  0  0  0  0
  195.4400  175.6810  140.7930 C   0  0  0  0  0  0  0  0  0  0  0  0
  194.1840  175.7680  140.7430 O   0  0  0  0  0  0  0  0  0  0  0  0
  196.8060  175.3000  137.3860 C   0  0  0  0  0  0  0  0  0  0  0  0
  197.9410  175.3570  138.0820 C   0  0  0  0  0  3  0  0  0  0  0  0
  197.6410  175.4400  139.5410 C   0  0  0  0  0  2  0  0  0  0  0  0
  196.1220  175.8310  142.0420 N   0  0  0  0  0  2  0  0  0  0  0  0
  196.1870  175.4270  139.5980 N   0  0  0  0  0  0  0  0  0  0  0  0
  195.6050  175.3140  138.2690 C   0  0  2  0  0  3  0  0  0  0  0  0
  193.4990  174.0450  137.7720 O   0  0  0  0  0  0  0  0  0  0  0  0
  195.4110  172.9380  138.3790 O   0  0  0  0  0  1  0  0  0  0  0  0
  194.8390  174.0330  138.1400 C   0  0  0  0  0  0  0  0  0  0  0  0
  196.5390  176.5800  135.2850 C   0  0  0  0  0  1  0  0  0  0  0  0
  196.7520  175.2070  135.8950 C   0  0  0  0  0  2  0  0  0  0  0  0
  1  5  2  0  0  0  0
  1  7  1  0  0  0  0
  2  4  2  0  0  0  0
  2  5  1  0  0  0  0
  3 17  1  0  0  0  0
  4  9  1  0  0  0  0
  5 11  1  0  0  0  0
  6 14  2  0  0  0  0
  7 13  2  0  0  0  0
  9  3  1  0  0  0  0
  9 18  2  0  0  0  0
 10  6  1  0  0  0  0
 10  3  2  0  0  0  0
 11 18  1  0  0  0  0
 11 12  2  0  0  0  0
 13 12  1  0  0  0  0
 13 27  1  0  0  0  0
 14  8  1  0  0  0  0
 14 19  1  0  0  0  0
 15 10  1  0  0  0  0
 16 15  2  0  0  0  0
 16  4  1  0  0  0  0
 17 19  2  0  0  0  0
 21 12  1  6  0  0  0
 21 22  1  0  0  0  0
 21 24  1  0  0  0  0
 22 23  1  0  0  0  0
 23 20  1  0  0  0  0
 24 20  1  0  0  0  0
 25 26  3  0  0  0  0
 26  2  1  0  0  0  0
 27 33  1  0  0  0  0
 28 30  1  0  0  0  0
 29 34  1  0  0  0  0
 31 29  2  0  0  0  0
 31 33  1  0  0  0  0
 32 28  1  0  0  0  0
 33 32  2  0  0  0  0
 34 28  2  0  0  0  0
 35 29  1  0  0  0  0
 36 41  1  0  0  0  0
 37 36  2  0  0  0  0
 38 39  2  0  0  0  0
 38 43  1  0  0  0  0
 39 40  1  0  0  0  0
 40 42  1  0  0  0  0
 41 35  1  0  0  0  0
 42 36  1  0  0  0  0
 43 46  1  1  0  0  0
 43 42  1  0  0  0  0
 44 46  2  0  0  0  0
 46 45  1  0  0  0  0
 47 48  1  0  0  0  0
 48 38  1  0  0  0  0
M  END
>  <MODEL>
1

>  <REMARK>
 VINA RESULT:      -8.7      0.000      0.000
  Name = 
  8 active torsions:
  status: ('A' for Active; 'I' for Inactive)
    1  A    between atoms: C_4  and  C_27
    2  A    between atoms: C_5  and  C_43
    3  A    between atoms: C_9  and  C_11
    4  A    between atoms: C_9  and  N_42
    5  A    between atoms: C_26  and  C_37
    6  A    between atoms: C_28  and  C_48
    7  A    between atoms: C_30  and  C_37
    8  A    between atoms: C_36  and  C_47
                            x       y       z     vdW  Elec       q    Type
                         _______ _______ _______ _____ _____    ______ ____

>  <TORSDO>
F 8

$$$$
=
 OpenBabel11042416453D

 48 54  0  0  1  0  0  0  0  0999 V2000
  190.9660  174.2430  141.9790 C   0  0  0  0  0  3  0  0  0  0  0  0
  188.7550  175.2430  142.2820 C   0  0  0  0  0  0  0  0  0  0  0  0
  187.1530  176.6990  145.3030 C   0  0  0  0  0  0  0  0  0  0  0  0
  187.8110  175.8570  143.1270 C   0  0  0  0  0  0  0  0  0  0  0  0
  190.0120  174.8590  142.7990 C   0  0  0  0  0  0  0  0  0  0  0  0
  184.9330  177.6750  145.5200 C   0  0  0  0  0  3  0  0  0  0  0  0
  192.2050  173.8680  142.4870 C   0  0  0  0  0  3  0  0  0  0  0  0
  184.2230  178.5210  147.6320 F   0  0  0  0  0  0  0  0  0  0  0  0
  188.1160  176.0860  144.4850 C   0  0  0  0  0  0  0  0  0  0  0  0
  185.9150  177.0630  144.7350 C   0  0  0  0  0  0  0  0  0  0  0  0
  190.3210  175.0900  144.1640 C   0  0  0  0  0  0  0  0  0  0  0  0
  191.5790  174.7080  144.6860 C   0  0  0  0  0  0  0  0  0  0  0  0
  192.5270  174.0990  143.8270 C   0  0  0  0  0  0  0  0  0  0  0  0
  185.1760  177.9280  146.8730 C   0  0  0  0  0  0  0  0  0  0  0  0
  185.6780  176.8170  143.4220 N   0  0  0  0  0  0  0  0  0  0  0  0
  186.5940  176.2350  142.6470 N   0  0  0  0  0  0  0  0  0  0  0  0
  187.3860  176.9590  146.6650 C   0  0  0  0  0  3  0  0  0  0  0  0
  189.3650  175.7010  144.9860 C   0  0  0  0  0  3  0  0  0  0  0  0
  186.4010  177.5710  147.4450 C   0  0  0  0  0  3  0  0  0  0  0  0
  190.9160  175.4490  148.0700 N   0  0  0  0  0  2  0  0  0  0  0  0
  191.8690  174.9440  146.1510 C   0  0  1  0  0  3  0  0  0  0  0  0
  192.3360  176.3470  146.4210 C   0  0  0  0  0  2  0  0  0  0  0  0
  191.5950  176.6740  147.6770 C   0  0  0  0  0  2  0  0  0  0  0  0
  190.7410  174.6980  146.9460 O   0  0  0  0  0  0  0  0  0  0  0  0
  188.1630  174.8270  139.7780 N   0  0  0  0  0  0  0  0  0  0  0  0
  188.4260  175.0120  140.8900 C   0  0  0  0  0  0  0  0  0  0  0  0
  193.8790  173.6650  144.3150 C   0  0  0  0  0  2  0  0  0  0  0  0
  194.7260  170.3050  145.8560 C   0  0  0  0  0  0  0  0  0  0  0  0
  193.2760  169.9400  143.9500 C   0  0  0  0  0  0  0  0  0  0  0  0
  195.4530  169.8130  146.8870 F   0  0  0  0  0  0  0  0  0  0  0  0
  193.2250  171.3200  143.7270 C   0  0  0  0  0  3  0  0  0  0  0  0
  194.6760  171.6840  145.6310 C   0  0  0  0  0  3  0  0  0  0  0  0
  193.9230  172.1940  144.5680 C   0  0  0  0  0  0  0  0  0  0  0  0
  194.0250  169.4340  145.0170 C   0  0  0  0  0  3  0  0  0  0  0  0
  192.5190  169.0100  143.0630 C   0  0  0  0  0  2  0  0  0  0  0  0
  191.9700  169.4240  140.6220 C   0  0  0  0  0  0  0  0  0  0  0  0
  192.7410  168.4940  140.2590 O   0  0  0  0  0  0  0  0  0  0  0  0
  190.1350  170.7390  137.7030 C   0  0  0  0  0  0  0  0  0  0  0  0
  189.5720  171.4610  138.6710 C   0  0  0  0  0  3  0  0  0  0  0  0
  190.2200  171.1530  139.9790 C   0  0  0  0  0  2  0  0  0  0  0  0
  191.8410  169.7500  142.0090 N   0  0  0  0  0  2  0  0  0  0  0  0
  191.2250  170.1570  139.6430 N   0  0  0  0  0  0  0  0  0  0  0  0
  191.2360  169.8740  138.2150 C   0  0  2  0  0  3  0  0  0  0  0  0
  192.9880  171.5900  137.6890 O   0  0  0  0  0  1  0  0  0  0  0  0
  193.2480  169.4150  137.0170 O   0  0  0  0  0  0  0  0  0  0  0  0
  192.5470  170.2740  137.6110 C   0  0  0  0  0  0  0  0  0  0  0  0
  189.7450  172.2460  135.7790 C   0  0  0  0  0  1  0  0  0  0  0  0
  189.7210  170.8100  136.2680 C   0  0  0  0  0  2  0  0  0  0  0  0
  1  7  2  0  0  0  0
  1  5  1  0  0  0  0
  2  5  2  0  0  0  0
  2  4  1  0  0  0  0
  3 17  1  0  0  0  0
  4  9  1  0  0  0  0
  5 11  1  0  0  0  0
  6 14  2  0  0  0  0
  7 13  1  0  0  0  0
  9 18  1  0  0  0  0
  9  3  2  0  0  0  0
 10  3  1  0  0  0  0
 10  6  1  0  0  0  0
 11 12  1  0  0  0  0
 11 18  2  0  0  0  0
 13 27  1  0  0  0  0
 13 12  2  0  0  0  0
 14 19  1  0  0  0  0
 14  8  1  0  0  0  0
 15 10  2  0  0  0  0
 16  4  2  0  0  0  0
 16 15  1  0  0  0  0
 17 19  2  0  0  0  0
 21 12  1  6  0  0  0
 21 22  1  0  0  0  0
 21 24  1  0  0  0  0
 22 23  1  0  0  0  0
 23 20  1  0  0  0  0
 24 20  1  0  0  0  0
 25 26  3  0  0  0  0
 26  2  1  0  0  0  0
 27 33  1  0  0  0  0
 28 30  1  0  0  0  0
 29 34  1  0  0  0  0
 31 29  2  0  0  0  0
 31 33  1  0  0  0  0
 32 28  1  0  0  0  0
 33 32  2  0  0  0  0
 34 28  2  0  0  0  0
 35 29  1  0  0  0  0
 36 41  1  0  0  0  0
 37 36  2  0  0  0  0
 38 43  1  0  0  0  0
 38 39  2  0  0  0  0
 39 40  1  0  0  0  0
 41 35  1  0  0  0  0
 42 40  1  0  0  0  0
 42 36  1  0  0  0  0
 43 46  1  6  0  0  0
 43 42  1  0  0  0  0
 45 46  2  0  0  0  0
 46 44  1  0  0  0  0
 47 48  1  0  0  0  0
 48 38  1  0  0  0  0
M  END
>  <MODEL>
2

>  <REMARK>
 VINA RESULT:      -8.4      3.461      4.381
  Name = 
  8 active torsions:
  status: ('A' for Active; 'I' for Inactive)
    1  A    between atoms: C_4  and  C_27
    2  A    between atoms: C_5  and  C_43
    3  A    between atoms: C_9  and  C_11
    4  A    between atoms: C_9  and  N_42
    5  A    between atoms: C_26  and  C_37
    6  A    between atoms: C_28  and  C_48
    7  A    between atoms: C_30  and  C_37
    8  A    between atoms: C_36  and  C_47
                            x       y       z     vdW  Elec       q    Type
                         _______ _______ _______ _____ _____    ______ ____

>  <TORSDO>
F 8

$$$$
=
 OpenBabel11042416453D

 48 54  0  0  1  0  0  0  0  0999 V2000
  188.1930  176.0650  143.3080 C   0  0  0  0  0  3  0  0  0  0  0  0
  188.0760  175.4600  140.9420 C   0  0  0  0  0  0  0  0  0  0  0  0
  189.4950  172.5490  139.1180 C   0  0  0  0  0  0  0  0  0  0  0  0
  188.4100  174.5700  139.9040 C   0  0  0  0  0  0  0  0  0  0  0  0
  188.5100  175.1930  142.2590 C   0  0  0  0  0  0  0  0  0  0  0  0
  189.3340  172.0210  136.7460 C   0  0  0  0  0  3  0  0  0  0  0  0
  188.6170  175.8010  144.6060 C   0  0  0  0  0  3  0  0  0  0  0  0
  190.3780  170.0500  135.9080 F   0  0  0  0  0  0  0  0  0  0  0  0
  189.1770  173.4170  140.1750 C   0  0  0  0  0  0  0  0  0  0  0  0
  189.0360  172.8620  137.8220 C   0  0  0  0  0  0  0  0  0  0  0  0
  189.2790  174.0330  142.5340 C   0  0  0  0  0  0  0  0  0  0  0  0
  189.7140  173.7610  143.8520 C   0  0  0  0  0  0  0  0  0  0  0  0
  189.3670  174.6570  144.8940 C   0  0  0  0  0  0  0  0  0  0  0  0
  190.0900  170.8640  136.9510 C   0  0  0  0  0  0  0  0  0  0  0  0
  188.3020  173.9860  137.6220 N   0  0  0  0  0  0  0  0  0  0  0  0
  188.0010  174.8100  138.6260 N   0  0  0  0  0  0  0  0  0  0  0  0
  190.2540  171.3820  139.3120 C   0  0  0  0  0  3  0  0  0  0  0  0
  189.6000  173.1630  141.4840 C   0  0  0  0  0  3  0  0  0  0  0  0
  190.5490  170.5440  138.2330 C   0  0  0  0  0  3  0  0  0  0  0  0
  192.4480  171.5510  143.5590 N   0  0  0  0  0  2  0  0  0  0  0  0
  190.5550  172.5300  144.1090 C   0  0  1  0  0  3  0  0  0  0  0  0
  190.1190  171.3570  143.2760 C   0  0  0  0  0  2  0  0  0  0  0  0
  191.4320  170.7840  142.8540 C   0  0  0  0  0  2  0  0  0  0  0  0
  191.9120  172.7700  143.8510 O   0  0  0  0  0  0  0  0  0  0  0  0
  186.6640  177.5840  140.4090 N   0  0  0  0  0  0  0  0  0  0  0  0
  187.2900  176.6410  140.6460 C   0  0  0  0  0  0  0  0  0  0  0  0
  189.7980  174.4320  146.3130 C   0  0  0  0  0  2  0  0  0  0  0  0
  191.9340  176.9680  148.1550 C   0  0  0  0  0  0  0  0  0  0  0  0
  193.1590  176.1840  146.2170 C   0  0  0  0  0  0  0  0  0  0  0  0
  191.8590  177.7540  149.2560 F   0  0  0  0  0  0  0  0  0  0  0  0
  192.0900  175.3460  145.8830 C   0  0  0  0  0  3  0  0  0  0  0  0
  190.8660  176.1310  147.8190 C   0  0  0  0  0  3  0  0  0  0  0  0
  190.9420  175.3160  146.6840 C   0  0  0  0  0  0  0  0  0  0  0  0
  193.0800  176.9930  147.3560 C   0  0  0  0  0  3  0  0  0  0  0  0
  194.3880  176.2040  145.3720 C   0  0  0  0  0  2  0  0  0  0  0  0
  194.6550  174.6990  143.3480 C   0  0  0  0  0  0  0  0  0  0  0  0
  195.5320  174.0110  143.9370 O   0  0  0  0  0  0  0  0  0  0  0  0
  193.8340  173.1640  140.0940 C   0  0  0  0  0  0  0  0  0  0  0  0
  192.9630  174.1720  140.0970 C   0  0  0  0  0  3  0  0  0  0  0  0
  193.1560  175.0100  141.3170 C   0  0  0  0  0  2  0  0  0  0  0  0
  194.0690  175.8290  144.0020 N   0  0  0  0  0  2  0  0  0  0  0  0
  194.2480  174.3530  142.0190 N   0  0  0  0  0  0  0  0  0  0  0  0
  194.7350  173.1960  141.2820 C   0  0  2  0  0  3  0  0  0  0  0  0
  196.5720  174.6250  140.3480 O   0  0  0  0  0  0  0  0  0  0  0  0
  196.9800  172.4560  140.9620 O   0  0  0  0  0  1  0  0  0  0  0  0
  196.1570  173.4020  140.8620 C   0  0  0  0  0  0  0  0  0  0  0  0
  193.4370  172.7200  137.6920 C   0  0  0  0  0  1  0  0  0  0  0  0
  193.9110  172.1370  139.0100 C   0  0  0  0  0  2  0  0  0  0  0  0
  1  7  1  0  0  0  0
  2  5  1  0  0  0  0
  3 17  1  0  0  0  0
  3  9  1  0  0  0  0
  4  9  1  0  0  0  0
  4  2  2  0  0  0  0
  5 11  1  0  0  0  0
  5  1  2  0  0  0  0
  6 14  2  0  0  0  0
  6 10  1  0  0  0  0
  7 13  2  0  0  0  0
  8 14  1  0  0  0  0
  9 18  2  0  0  0  0
 10  3  2  0  0  0  0
 11 12  2  0  0  0  0
 12 13  1  0  0  0  0
 13 27  1  0  0  0  0
 14 19  1  0  0  0  0
 15 10  1  0  0  0  0
 15 16  2  0  0  0  0
 16  4  1  0  0  0  0
 18 11  1  0  0  0  0
 19 17  2  0  0  0  0
 20 24  1  0  0  0  0
 21 12  1  6  0  0  0
 22 21  1  0  0  0  0
 23 22  1  0  0  0  0
 23 20  1  0  0  0  0
 24 21  1  0  0  0  0
 25 26  3  0  0  0  0
 26  2  1  0  0  0  0
 27 33  1  0  0  0  0
 28 30  1  0  0  0  0
 29 34  1  0  0  0  0
 31 29  2  0  0  0  0
 31 33  1  0  0  0  0
 32 28  1  0  0  0  0
 33 32  2  0  0  0  0
 34 28  2  0  0  0  0
 35 29  1  0  0  0  0
 36 37  2  0  0  0  0
 36 41  1  0  0  0  0
 38 39  2  0  0  0  0
 38 43  1  0  0  0  0
 39 40  1  0  0  0  0
 40 42  1  0  0  0  0
 41 35  1  0  0  0  0
 42 36  1  0  0  0  0
 43 46  1  6  0  0  0
 43 42  1  0  0  0  0
 44 46  2  0  0  0  0
 46 45  1  0  0  0  0
 47 48  1  0  0  0  0
 48 38  1  0  0  0  0
M  END
>  <MODEL>
3

>  <REMARK>
 VINA RESULT:      -8.3      3.149      5.524
  Name = 
  8 active torsions:
  status: ('A' for Active; 'I' for Inactive)
    1  A    between atoms: C_4  and  C_27
    2  A    between atoms: C_5  and  C_43
    3  A    between atoms: C_9  and  C_11
    4  A    between atoms: C_9  and  N_42
    5  A    between atoms: C_26  and  C_37
    6  A    between atoms: C_28  and  C_48
    7  A    between atoms: C_30  and  C_37
    8  A    between atoms: C_36  and  C_47
                            x       y       z     vdW  Elec       q    Type
                         _______ _______ _______ _____ _____    ______ ____

>  <TORSDO>
F 8

$$$$
=
 OpenBabel11042416453D

 48 54  0  0  1  0  0  0  0  0999 V2000
  190.9730  174.3160  141.9250 C   0  0  0  0  0  3  0  0  0  0  0  0
  188.7510  175.2790  142.2600 C   0  0  0  0  0  0  0  0  0  0  0  0
  187.1980  176.7830  145.2830 C   0  0  0  0  0  0  0  0  0  0  0  0
  187.8170  175.8970  143.1130 C   0  0  0  0  0  0  0  0  0  0  0  0
  190.0280  174.9340  142.7540 C   0  0  0  0  0  0  0  0  0  0  0  0
  184.9640  177.7210  145.5320 C   0  0  0  0  0  3  0  0  0  0  0  0
  192.2330  173.9790  142.4100 C   0  0  0  0  0  3  0  0  0  0  0  0
  184.2920  178.6090  147.6390 F   0  0  0  0  0  0  0  0  0  0  0  0
  188.1520  176.1680  144.4560 C   0  0  0  0  0  0  0  0  0  0  0  0
  185.9380  177.1080  144.7380 C   0  0  0  0  0  0  0  0  0  0  0  0
  190.3670  175.2090  144.1030 C   0  0  0  0  0  0  0  0  0  0  0  0
  191.6470  174.8660  144.6020 C   0  0  0  0  0  0  0  0  0  0  0  0
  192.5850  174.2530  143.7350 C   0  0  0  0  0  0  0  0  0  0  0  0
  185.2360  178.0150  146.8710 C   0  0  0  0  0  0  0  0  0  0  0  0
  185.6730  176.8220  143.4390 N   0  0  0  0  0  0  0  0  0  0  0  0
  186.5790  176.2370  142.6550 N   0  0  0  0  0  0  0  0  0  0  0  0
  187.4600  177.0840  146.6310 C   0  0  0  0  0  3  0  0  0  0  0  0
  189.4200  175.8220  144.9340 C   0  0  0  0  0  3  0  0  0  0  0  0
  186.4830  177.6980  147.4200 C   0  0  0  0  0  3  0  0  0  0  0  0
  191.0470  175.5250  148.0150 N   0  0  0  0  0  2  0  0  0  0  0  0
  191.9690  175.1470  146.0520 C   0  0  1  0  0  3  0  0  0  0  0  0
  192.2500  176.6020  146.3020 C   0  0  0  0  0  2  0  0  0  0  0  0
  191.5300  176.8300  147.5920 C   0  0  0  0  0  2  0  0  0  0  0  0
  190.9240  174.7520  146.8990 O   0  0  0  0  0  0  0  0  0  0  0  0
  188.1050  174.7860  139.7840 N   0  0  0  0  0  0  0  0  0  0  0  0
  188.3910  175.0050  140.8840 C   0  0  0  0  0  0  0  0  0  0  0  0
  193.9570  173.8600  144.1980 C   0  0  0  0  0  2  0  0  0  0  0  0
  196.6080  176.3270  143.0690 C   0  0  0  0  0  0  0  0  0  0  0  0
  196.3850  174.6020  141.3820 C   0  0  0  0  0  0  0  0  0  0  0  0
  197.1920  177.4660  143.5120 F   0  0  0  0  0  0  0  0  0  0  0  0
  195.4010  173.9760  142.1550 C   0  0  0  0  0  3  0  0  0  0  0  0
  195.6230  175.7010  143.8400 C   0  0  0  0  0  3  0  0  0  0  0  0
  195.0190  174.5230  143.3850 C   0  0  0  0  0  0  0  0  0  0  0  0
  196.9890  175.7770  141.8420 C   0  0  0  0  0  3  0  0  0  0  0  0
  196.8020  174.0110  140.0780 C   0  0  0  0  0  2  0  0  0  0  0  0
  194.8560  173.5270  138.5250 C   0  0  0  0  0  0  0  0  0  0  0  0
  194.8990  174.6970  138.0570 O   0  0  0  0  0  0  0  0  0  0  0  0
  192.3910  171.5190  136.6530 C   0  0  0  0  0  0  0  0  0  0  0  0
  192.8710  170.5850  137.4730 C   0  0  0  0  0  3  0  0  0  0  0  0
  193.8630  171.1890  138.4090 C   0  0  0  0  0  2  0  0  0  0  0  0
  195.7620  173.1340  139.5610 N   0  0  0  0  0  2  0  0  0  0  0  0
  193.8970  172.5910  138.0210 N   0  0  0  0  0  0  0  0  0  0  0  0
  192.9690  172.8640  136.9340 C   0  0  2  0  0  3  0  0  0  0  0  0
  191.5630  174.9150  136.6030 O   0  0  0  0  0  0  0  0  0  0  0  0
  191.3160  173.6220  138.4790 O   0  0  0  0  0  1  0  0  0  0  0  0
  191.9020  173.8140  137.3820 C   0  0  0  0  0  0  0  0  0  0  0  0
  190.0660  170.7920  136.2130 C   0  0  0  0  0  1  0  0  0  0  0  0
  191.3730  171.2470  135.5910 C   0  0  0  0  0  2  0  0  0  0  0  0
  1  7  2  0  0  0  0
  1  5  1  0  0  0  0
  2  5  2  0  0  0  0
  2  4  1  0  0  0  0
  3 17  1  0  0  0  0
  4  9  1  0  0  0  0
  5 11  1  0  0  0  0
  6 14  2  0  0  0  0
  7 13  1  0  0  0  0
  9 18  1  0  0  0  0
  9  3  2  0  0  0  0
 10  3  1  0  0  0  0
 10  6  1  0  0  0  0
 11 12  1  0  0  0  0
 11 18  2  0  0  0  0
 13 27  1  0  0  0  0
 13 12  2  0  0  0  0
 14 19  1  0  0  0  0
 14  8  1  0  0  0  0
 15 10  2  0  0  0  0
 16  4  2  0  0  0  0
 16 15  1  0  0  0  0
 17 19  2  0  0  0  0
 21 12  1  6  0  0  0
 21 22  1  0  0  0  0
 21 24  1  0  0  0  0
 22 23  1  0  0  0  0
 23 20  1  0  0  0  0
 24 20  1  0  0  0  0
 25 26  3  0  0  0  0
 26  2  1  0  0  0  0
 28 30  1  0  0  0  0
 28 32  1  0  0  0  0
 29 34  1  0  0  0  0
 29 31  2  0  0  0  0
 31 33  1  0  0  0  0
 33 32  2  0  0  0  0
 33 27  1  0  0  0  0
 34 28  2  0  0  0  0
 35 29  1  0  0  0  0
 36 41  1  0  0  0  0
 37 36  2  0  0  0  0
 38 43  1  0  0  0  0
 38 39  2  0  0  0  0
 39 40  1  0  0  0  0
 41 35  1  0  0  0  0
 42 40  1  0  0  0  0
 42 36  1  0  0  0  0
 43 46  1  1  0  0  0
 43 42  1  0  0  0  0
 44 46  2  0  0  0  0
 46 45  1  0  0  0  0
 48 47  1  0  0  0  0
 48 38  1  0  0  0  0
M  END
>  <MODEL>
4

>  <REMARK>
 VINA RESULT:      -8.3      2.336      3.367
  Name = 
  8 active torsions:
  status: ('A' for Active; 'I' for Inactive)
    1  A    between atoms: C_4  and  C_27
    2  A    between atoms: C_5  and  C_43
    3  A    between atoms: C_9  and  C_11
    4  A    between atoms: C_9  and  N_42
    5  A    between atoms: C_26  and  C_37
    6  A    between atoms: C_28  and  C_48
    7  A    between atoms: C_30  and  C_37
    8  A    between atoms: C_36  and  C_47
                            x       y       z     vdW  Elec       q    Type
                         _______ _______ _______ _____ _____    ______ ____

>  <TORSDO>
F 8

$$$$
=
 OpenBabel11042416453D

 48 54  0  0  1  0  0  0  0  0999 V2000
  190.6790  172.0150  144.1870 C   0  0  0  0  0  3  0  0  0  0  0  0
  190.8860  171.1270  141.9180 C   0  0  0  0  0  0  0  0  0  0  0  0
  189.9850  172.6290  138.6400 C   0  0  0  0  0  0  0  0  0  0  0  0
  190.7070  171.2960  140.5320 C   0  0  0  0  0  0  0  0  0  0  0  0
  190.5120  172.1620  142.8040 C   0  0  0  0  0  0  0  0  0  0  0  0
  190.2230  171.6680  136.4160 C   0  0  0  0  0  3  0  0  0  0  0  0
  190.3130  173.0360  145.0590 C   0  0  0  0  0  3  0  0  0  0  0  0
  189.5330  172.9260  134.5130 F   0  0  0  0  0  0  0  0  0  0  0  0
  190.1530  172.4910  140.0280 C   0  0  0  0  0  0  0  0  0  0  0  0
  190.3760  171.5650  137.8020 C   0  0  0  0  0  0  0  0  0  0  0  0
  189.9580  173.3650  142.2980 C   0  0  0  0  0  0  0  0  0  0  0  0
  189.5830  174.4050  143.1810 C   0  0  0  0  0  0  0  0  0  0  0  0
  189.7750  174.2320  144.5740 C   0  0  0  0  0  0  0  0  0  0  0  0
  189.6810  172.8280  135.8560 C   0  0  0  0  0  0  0  0  0  0  0  0
  190.9030  170.4390  138.3450 N   0  0  0  0  0  0  0  0  0  0  0  0
  191.0620  170.3090  139.6620 N   0  0  0  0  0  0  0  0  0  0  0  0
  189.4410  173.7910  138.0660 C   0  0  0  0  0  3  0  0  0  0  0  0
  189.7870  173.5090  140.9150 C   0  0  0  0  0  3  0  0  0  0  0  0
  189.2900  173.8880  136.6800 C   0  0  0  0  0  3  0  0  0  0  0  0
  188.9810  177.8600  142.7970 N   0  0  0  0  0  2  0  0  0  0  0  0
  188.9700  175.6660  142.6140 C   0  0  1  0  0  3  0  0  0  0  0  0
  187.6340  175.9770  143.2280 C   0  0  0  0  0  2  0  0  0  0  0  0
  187.7270  177.4570  143.4160 C   0  0  0  0  0  2  0  0  0  0  0  0
  189.8070  176.7750  142.8010 O   0  0  0  0  0  0  0  0  0  0  0  0
  191.9060  168.9060  142.8230 N   0  0  0  0  0  0  0  0  0  0  0  0
  191.4540  169.8920  142.4210 C   0  0  0  0  0  0  0  0  0  0  0  0
  189.3970  175.2910  145.5670 C   0  0  0  0  0  2  0  0  0  0  0  0
  191.6250  176.8950  148.1850 C   0  0  0  0  0  0  0  0  0  0  0  0
  192.9520  176.4420  146.2090 C   0  0  0  0  0  0  0  0  0  0  0  0
  191.5280  177.3760  149.4470 F   0  0  0  0  0  0  0  0  0  0  0  0
  191.8260  175.9010  145.5790 C   0  0  0  0  0  3  0  0  0  0  0  0
  190.5000  176.3550  147.5540 C   0  0  0  0  0  3  0  0  0  0  0  0
  190.5990  175.8550  146.2500 C   0  0  0  0  0  0  0  0  0  0  0  0
  192.8500  176.9370  147.5130 C   0  0  0  0  0  3  0  0  0  0  0  0
  194.2630  176.4780  145.4990 C   0  0  0  0  0  2  0  0  0  0  0  0
  194.5710  174.8380  143.5880 C   0  0  0  0  0  0  0  0  0  0  0  0
  195.2120  174.0460  144.3300 O   0  0  0  0  0  0  0  0  0  0  0  0
  194.0040  173.2830  140.2900 C   0  0  0  0  0  0  0  0  0  0  0  0
  193.3330  174.4220  140.1230 C   0  0  0  0  0  3  0  0  0  0  0  0
  193.4800  175.2820  141.3340 C   0  0  0  0  0  2  0  0  0  0  0  0
  194.0980  176.0850  144.1060 N   0  0  0  0  0  2  0  0  0  0  0  0
  194.3190  174.4910  142.2210 N   0  0  0  0  0  0  0  0  0  0  0  0
  194.7030  173.2300  141.6060 C   0  0  2  0  0  3  0  0  0  0  0  0
  196.8370  174.1150  140.6310 O   0  0  0  0  0  0  0  0  0  0  0  0
  196.8490  172.2460  141.9570 O   0  0  0  0  0  1  0  0  0  0  0  0
  196.1870  173.1690  141.4150 C   0  0  0  0  0  0  0  0  0  0  0  0
  193.7910  172.7600  137.8800 C   0  0  0  0  0  1  0  0  0  0  0  0
  194.0660  172.1980  139.2620 C   0  0  0  0  0  2  0  0  0  0  0  0
  1  7  1  0  0  0  0
  2 26  1  0  0  0  0
  2  5  1  0  0  0  0
  3  9  1  0  0  0  0
  4  2  2  0  0  0  0
  5  1  2  0  0  0  0
  6 10  1  0  0  0  0
  8 14  1  0  0  0  0
  9  4  1  0  0  0  0
  9 18  2  0  0  0  0
 10 15  1  0  0  0  0
 10  3  2  0  0  0  0
 11  5  1  0  0  0  0
 11 12  2  0  0  0  0
 12 13  1  0  0  0  0
 13  7  2  0  0  0  0
 13 27  1  0  0  0  0
 14  6  2  0  0  0  0
 14 19  1  0  0  0  0
 15 16  2  0  0  0  0
 16  4  1  0  0  0  0
 17  3  1  0  0  0  0
 18 11  1  0  0  0  0
 19 17  2  0  0  0  0
 20 24  1  0  0  0  0
 20 23  1  0  0  0  0
 21 24  1  0  0  0  0
 21 12  1  1  0  0  0
 21 22  1  0  0  0  0
 22 23  1  0  0  0  0
 26 25  3  0  0  0  0
 27 33  1  0  0  0  0
 28 30  1  0  0  0  0
 29 34  1  0  0  0  0
 31 29  2  0  0  0  0
 31 33  1  0  0  0  0
 32 28  1  0  0  0  0
 33 32  2  0  0  0  0
 34 28  2  0  0  0  0
 35 29  1  0  0  0  0
 36 41  1  0  0  0  0
 36 37  2  0  0  0  0
 38 43  1  0  0  0  0
 39 38  2  0  0  0  0
 39 40  1  0  0  0  0
 40 42  1  0  0  0  0
 41 35  1  0  0  0  0
 42 36  1  0  0  0  0
 43 46  1  6  0  0  0
 43 42  1  0  0  0  0
 44 46  2  0  0  0  0
 46 45  1  0  0  0  0
 47 48  1  0  0  0  0
 48 38  1  0  0  0  0
M  END
>  <MODEL>
5

>  <REMARK>
 VINA RESULT:      -8.3      3.424      5.764
  Name = 
  8 active torsions:
  status: ('A' for Active; 'I' for Inactive)
    1  A    between atoms: C_4  and  C_27
    2  A    between atoms: C_5  and  C_43
    3  A    between atoms: C_9  and  C_11
    4  A    between atoms: C_9  and  N_42
    5  A    between atoms: C_26  and  C_37
    6  A    between atoms: C_28  and  C_48
    7  A    between atoms: C_30  and  C_37
    8  A    between atoms: C_36  and  C_47
                            x       y       z     vdW  Elec       q    Type
                         _______ _______ _______ _____ _____    ______ ____

>  <TORSDO>
F 8

$$$$
=
 OpenBabel11042416453D

 48 54  0  0  1  0  0  0  0  0999 V2000
  188.2450  174.5330  139.9710 C   0  0  0  0  0  3  0  0  0  0  0  0
  188.2700  176.0010  141.9260 C   0  0  0  0  0  0  0  0  0  0  0  0
  190.1010  175.7080  145.1480 C   0  0  0  0  0  0  0  0  0  0  0  0
  188.7440  176.2820  143.2220 C   0  0  0  0  0  0  0  0  0  0  0  0
  188.7050  174.8350  141.2590 C   0  0  0  0  0  0  0  0  0  0  0  0
  190.0660  177.2220  147.0540 C   0  0  0  0  0  3  0  0  0  0  0  0
  188.6760  173.3860  139.3130 C   0  0  0  0  0  3  0  0  0  0  0  0
  191.3770  176.7180  148.9790 F   0  0  0  0  0  0  0  0  0  0  0  0
  189.6480  175.4020  143.8540 C   0  0  0  0  0  0  0  0  0  0  0  0
  189.6360  176.8860  145.7670 C   0  0  0  0  0  0  0  0  0  0  0  0
  189.6150  173.9500  141.8930 C   0  0  0  0  0  0  0  0  0  0  0  0
  190.0540  172.7810  141.2270 C   0  0  0  0  0  0  0  0  0  0  0  0
  189.5800  172.5100  139.9200 C   0  0  0  0  0  0  0  0  0  0  0  0
  190.9610  176.3910  147.7320 C   0  0  0  0  0  0  0  0  0  0  0  0
  188.7670  177.6940  145.1090 N   0  0  0  0  0  0  0  0  0  0  0  0
  188.3360  177.4020  143.8810 N   0  0  0  0  0  0  0  0  0  0  0  0
  191.0010  174.8800  145.8390 C   0  0  0  0  0  3  0  0  0  0  0  0
  190.0720  174.2500  143.1830 C   0  0  0  0  0  3  0  0  0  0  0  0
  191.4290  175.2200  147.1260 C   0  0  0  0  0  3  0  0  0  0  0  0
  192.8880  170.7320  141.6910 N   0  0  0  0  0  2  0  0  0  0  0  0
  191.0040  171.8440  141.9390 C   0  0  1  0  0  3  0  0  0  0  0  0
  190.5620  170.4100  141.8550 C   0  0  0  0  0  2  0  0  0  0  0  0
  191.8560  169.7100  141.5960 C   0  0  0  0  0  2  0  0  0  0  0  0
  192.3030  171.9320  141.4170 O   0  0  0  0  0  0  0  0  0  0  0  0
  186.5970  177.6410  140.7850 N   0  0  0  0  0  0  0  0  0  0  0  0
  187.3410  176.9130  141.2910 C   0  0  0  0  0  0  0  0  0  0  0  0
  190.0020  171.2880  139.1590 C   0  0  0  0  0  2  0  0  0  0  0  0
  192.4270  171.1050  136.2480 C   0  0  0  0  0  0  0  0  0  0  0  0
  193.1760  172.8320  137.7750 C   0  0  0  0  0  0  0  0  0  0  0  0
  192.5950  170.3970  135.1060 F   0  0  0  0  0  0  0  0  0  0  0  0
  192.0820  172.5680  138.6060 C   0  0  0  0  0  3  0  0  0  0  0  0
  191.3350  170.8430  137.0810 C   0  0  0  0  0  3  0  0  0  0  0  0
  191.1590  171.5750  138.2600 C   0  0  0  0  0  0  0  0  0  0  0  0
  193.3460  172.1000  136.5940 C   0  0  0  0  0  3  0  0  0  0  0  0
  194.1510  173.9010  138.1360 C   0  0  0  0  0  2  0  0  0  0  0  0
  194.6930  174.1600  140.6010 C   0  0  0  0  0  0  0  0  0  0  0  0
  195.6930  173.3990  140.4920 O   0  0  0  0  0  0  0  0  0  0  0  0
  194.5790  175.6020  143.9950 C   0  0  0  0  0  0  0  0  0  0  0  0
  193.5420  176.2320  143.4450 C   0  0  0  0  0  3  0  0  0  0  0  0
  193.3320  175.7460  142.0500 C   0  0  0  0  0  2  0  0  0  0  0  0
  193.8650  174.4230  139.4640 N   0  0  0  0  0  2  0  0  0  0  0  0
  194.3840  174.7580  141.8650 N   0  0  0  0  0  0  0  0  0  0  0  0
  195.1880  174.6050  143.0680 C   0  0  2  0  0  3  0  0  0  0  0  0
  193.8470  172.7940  144.1690 O   0  0  0  0  0  1  0  0  0  0  0  0
  196.0360  172.4380  143.5940 O   0  0  0  0  0  0  0  0  0  0  0  0
  195.0500  173.2190  143.6180 C   0  0  0  0  0  0  0  0  0  0  0  0
  194.3450  177.0520  145.9870 C   0  0  0  0  0  1  0  0  0  0  0  0
  195.0560  175.8530  145.3900 C   0  0  0  0  0  2  0  0  0  0  0  0
  1  5  1  0  0  0  0
  2  4  1  0  0  0  0
  3 10  2  0  0  0  0
  3 17  1  0  0  0  0
  4  9  2  0  0  0  0
  4 16  1  0  0  0  0
  5 11  1  0  0  0  0
  5  2  2  0  0  0  0
  6 14  2  0  0  0  0
  7 13  1  0  0  0  0
  7  1  2  0  0  0  0
  9  3  1  0  0  0  0
 10  6  1  0  0  0  0
 11 18  2  0  0  0  0
 12 11  1  0  0  0  0
 13 12  2  0  0  0  0
 14  8  1  0  0  0  0
 15 10  1  0  0  0  0
 16 15  2  0  0  0  0
 17 19  2  0  0  0  0
 18  9  1  0  0  0  0
 19 14  1  0  0  0  0
 21 12  1  6  0  0  0
 22 21  1  0  0  0  0
 23 20  1  0  0  0  0
 23 22  1  0  0  0  0
 24 20  1  0  0  0  0
 24 21  1  0  0  0  0
 25 26  3  0  0  0  0
 26  2  1  0  0  0  0
 27 13  1  0  0  0  0
 28 34  2  0  0  0  0
 28 32  1  0  0  0  0
 29 35  1  0  0  0  0
 29 31  2  0  0  0  0
 30 28  1  0  0  0  0
 32 33  2  0  0  0  0
 33 31  1  0  0  0  0
 33 27  1  0  0  0  0
 34 29  1  0  0  0  0
 35 41  1  0  0  0  0
 36 42  1  0  0  0  0
 37 36  2  0  0  0  0
 38 48  1  0  0  0  0
 39 38  2  0  0  0  0
 40 39  1  0  0  0  0
 41 36  1  0  0  0  0
 42 40  1  0  0  0  0
 42 43  1  0  0  0  0
 43 46  1  1  0  0  0
 43 38  1  0  0  0  0
 45 46  2  0  0  0  0
 46 44  1  0  0  0  0
 48 47  1  0  0  0  0
M  END
>  <MODEL>
6

>  <REMARK>
 VINA RESULT:      -8.3      3.216      6.130
  Name = 
  8 active torsions:
  status: ('A' for Active; 'I' for Inactive)
    1  A    between atoms: C_4  and  C_27
    2  A    between atoms: C_5  and  C_43
    3  A    between atoms: C_9  and  C_11
    4  A    between atoms: C_9  and  N_42
    5  A    between atoms: C_26  and  C_37
    6  A    between atoms: C_28  and  C_48
    7  A    between atoms: C_30  and  C_37
    8  A    between atoms: C_36  and  C_47
                            x       y       z     vdW  Elec       q    Type
                         _______ _______ _______ _____ _____    ______ ____

>  <TORSDO>
F 8

$$$$
=
 OpenBabel11042416453D

 48 54  0  0  1  0  0  0  0  0999 V2000
  191.8970  173.5520  143.7450 C   0  0  0  0  0  3  0  0  0  0  0  0
  190.7180  175.1650  145.1530 C   0  0  0  0  0  0  0  0  0  0  0  0
  187.3770  176.7430  144.7490 C   0  0  0  0  0  0  0  0  0  0  0  0
  189.5800  175.9580  145.3910 C   0  0  0  0  0  0  0  0  0  0  0  0
  190.7730  174.3470  144.0040 C   0  0  0  0  0  0  0  0  0  0  0  0
  186.2750  178.3530  146.2050 C   0  0  0  0  0  3  0  0  0  0  0  0
  191.9500  172.7420  142.6140 C   0  0  0  0  0  3  0  0  0  0  0  0
  184.1090  179.1650  145.6320 F   0  0  0  0  0  0  0  0  0  0  0  0
  188.4990  175.9390  144.4850 C   0  0  0  0  0  0  0  0  0  0  0  0
  187.3740  177.5410  145.9120 C   0  0  0  0  0  0  0  0  0  0  0  0
  189.6860  174.3240  143.0940 C   0  0  0  0  0  0  0  0  0  0  0  0
  189.7370  173.5050  141.9410 C   0  0  0  0  0  0  0  0  0  0  0  0
  190.8820  172.7020  141.7130 C   0  0  0  0  0  0  0  0  0  0  0  0
  185.1730  178.3770  145.3460 C   0  0  0  0  0  0  0  0  0  0  0  0
  188.4440  177.5180  146.7460 N   0  0  0  0  0  0  0  0  0  0  0  0
  189.5080  176.7550  146.4940 N   0  0  0  0  0  0  0  0  0  0  0  0
  186.2640  176.7750  143.8920 C   0  0  0  0  0  3  0  0  0  0  0  0
  188.5640  175.1240  143.3500 C   0  0  0  0  0  3  0  0  0  0  0  0
  185.1670  177.5890  144.1910 C   0  0  0  0  0  3  0  0  0  0  0  0
  187.8160  172.6090  139.1210 N   0  0  0  0  0  2  0  0  0  0  0  0
  188.5730  173.5220  140.9760 C   0  0  1  0  0  3  0  0  0  0  0  0
  188.6880  174.6270  139.9630 C   0  0  0  0  0  2  0  0  0  0  0  0
  188.2540  173.9350  138.7120 C   0  0  0  0  0  2  0  0  0  0  0  0
  188.4570  172.3070  140.2860 O   0  0  0  0  0  0  0  0  0  0  0  0
  192.7030  175.2260  146.8410 N   0  0  0  0  0  0  0  0  0  0  0  0
  191.8220  175.1980  146.0920 C   0  0  0  0  0  0  0  0  0  0  0  0
  191.0030  171.8130  140.5110 C   0  0  0  0  0  2  0  0  0  0  0  0
  191.9860  172.8150  136.9870 C   0  0  0  0  0  0  0  0  0  0  0  0
  193.2120  174.1950  138.5560 C   0  0  0  0  0  0  0  0  0  0  0  0
  191.6960  172.4640  135.7110 F   0  0  0  0  0  0  0  0  0  0  0  0
  192.5850  173.5390  139.6210 C   0  0  0  0  0  3  0  0  0  0  0  0
  191.3610  172.1590  138.0520 C   0  0  0  0  0  3  0  0  0  0  0  0
  191.6580  172.5210  139.3710 C   0  0  0  0  0  0  0  0  0  0  0  0
  192.9100  173.8340  137.2390 C   0  0  0  0  0  3  0  0  0  0  0  0
  194.1890  175.2910  138.8230 C   0  0  0  0  0  2  0  0  0  0  0  0
  194.8460  175.2010  141.2710 C   0  0  0  0  0  0  0  0  0  0  0  0
  193.8250  175.8630  141.6010 O   0  0  0  0  0  0  0  0  0  0  0  0
  196.6390  174.0730  144.2930 C   0  0  0  0  0  0  0  0  0  0  0  0
  197.3820  173.4870  143.3550 C   0  0  0  0  0  3  0  0  0  0  0  0
  196.8850  173.8660  142.0000 C   0  0  0  0  0  2  0  0  0  0  0  0
  195.1000  174.9110  139.8930 N   0  0  0  0  0  2  0  0  0  0  0  0
  195.7570  174.7430  142.2770 N   0  0  0  0  0  0  0  0  0  0  0  0
  195.5690  174.9310  143.7070 C   0  0  2  0  0  3  0  0  0  0  0  0
  196.8170  177.0980  143.5130 O   0  0  0  0  0  0  0  0  0  0  0  0
  195.0200  176.9100  144.9230 O   0  0  0  0  0  1  0  0  0  0  0  0
  195.7800  176.3660  144.0800 C   0  0  0  0  0  0  0  0  0  0  0  0
  196.8160  172.4370  146.1410 C   0  0  0  0  0  1  0  0  0  0  0  0
  196.8710  173.9040  145.7600 C   0  0  0  0  0  2  0  0  0  0  0  0
  1  5  1  0  0  0  0
  2  4  1  0  0  0  0
  2 26  1  0  0  0  0
  3 10  1  0  0  0  0
  4 16  1  0  0  0  0
  5  2  2  0  0  0  0
  7  1  2  0  0  0  0
  9  3  1  0  0  0  0
  9  4  2  0  0  0  0
 10  6  2  0  0  0  0
 10 15  1  0  0  0  0
 11 18  2  0  0  0  0
 11  5  1  0  0  0  0
 12 11  1  0  0  0  0
 13 12  2  0  0  0  0
 13  7  1  0  0  0  0
 14  8  1  0  0  0  0
 14  6  1  0  0  0  0
 16 15  2  0  0  0  0
 17 19  1  0  0  0  0
 17  3  2  0  0  0  0
 18  9  1  0  0  0  0
 19 14  2  0  0  0  0
 20 24  1  0  0  0  0
 21 12  1  1  0  0  0
 22 21  1  0  0  0  0
 23 20  1  0  0  0  0
 23 22  1  0  0  0  0
 24 21  1  0  0  0  0
 26 25  3  0  0  0  0
 27 13  1  0  0  0  0
 28 34  2  0  0  0  0
 28 32  1  0  0  0  0
 29 35  1  0  0  0  0
 29 31  2  0  0  0  0
 30 28  1  0  0  0  0
 32 33  2  0  0  0  0
 33 31  1  0  0  0  0
 33 27  1  0  0  0  0
 34 29  1  0  0  0  0
 35 41  1  0  0  0  0
 36 37  2  0  0  0  0
 36 42  1  0  0  0  0
 38 48  1  0  0  0  0
 39 38  2  0  0  0  0
 40 42  1  0  0  0  0
 40 39  1  0  0  0  0
 41 36  1  0  0  0  0
 42 43  1  0  0  0  0
 43 46  1  6  0  0  0
 43 38  1  0  0  0  0
 44 46  2  0  0  0  0
 46 45  1  0  0  0  0
 48 47  1  0  0  0  0
M  END
>  <MODEL>
7

>  <REMARK>
 VINA RESULT:      -8.3      2.886      5.809
  Name = 
  8 active torsions:
  status: ('A' for Active; 'I' for Inactive)
    1  A    between atoms: C_4  and  C_27
    2  A    between atoms: C_5  and  C_43
    3  A    between atoms: C_9  and  C_11
    4  A    between atoms: C_9  and  N_42
    5  A    between atoms: C_26  and  C_37
    6  A    between atoms: C_28  and  C_48
    7  A    between atoms: C_30  and  C_37
    8  A    between atoms: C_36  and  C_47
                            x       y       z     vdW  Elec       q    Type
                         _______ _______ _______ _____ _____    ______ ____

>  <TORSDO>
F 8

$$$$
=
 OpenBabel11042416453D

 48 54  0  0  1  0  0  0  0  0999 V2000
  188.2900  174.5400  139.3300 C   0  0  0  0  0  3  0  0  0  0  0  0
  187.3490  176.2660  140.7830 C   0  0  0  0  0  0  0  0  0  0  0  0
  187.5100  176.6720  144.4750 C   0  0  0  0  0  0  0  0  0  0  0  0
  187.1630  176.7880  142.0780 C   0  0  0  0  0  0  0  0  0  0  0  0
  188.0940  175.0790  140.6080 C   0  0  0  0  0  0  0  0  0  0  0  0
  186.5350  178.4290  145.8500 C   0  0  0  0  0  3  0  0  0  0  0  0
  189.0270  173.3720  139.1570 C   0  0  0  0  0  3  0  0  0  0  0  0
  186.8380  178.3760  148.2130 F   0  0  0  0  0  0  0  0  0  0  0  0
  187.7150  176.1280  143.1960 C   0  0  0  0  0  0  0  0  0  0  0  0
  186.7590  177.8600  144.5930 C   0  0  0  0  0  0  0  0  0  0  0  0
  188.6520  174.4170  141.7310 C   0  0  0  0  0  0  0  0  0  0  0  0
  189.4000  173.2280  141.5590 C   0  0  0  0  0  0  0  0  0  0  0  0
  189.5910  172.7140  140.2530 C   0  0  0  0  0  0  0  0  0  0  0  0
  187.0560  177.8220  146.9950 C   0  0  0  0  0  0  0  0  0  0  0  0
  186.2520  178.4500  143.4810 N   0  0  0  0  0  0  0  0  0  0  0  0
  186.4470  177.9320  142.2670 N   0  0  0  0  0  0  0  0  0  0  0  0
  188.0290  176.0710  145.6340 C   0  0  0  0  0  3  0  0  0  0  0  0
  188.4510  174.9540  143.0090 C   0  0  0  0  0  3  0  0  0  0  0  0
  187.8020  176.6450  146.8880 C   0  0  0  0  0  3  0  0  0  0  0  0
  189.4620  171.9170  144.8340 N   0  0  0  0  0  2  0  0  0  0  0  0
  189.9590  172.5290  142.7790 C   0  0  1  0  0  3  0  0  0  0  0  0
  190.7870  173.4490  143.6330 C   0  0  0  0  0  2  0  0  0  0  0  0
  190.3470  173.0580  145.0070 C   0  0  0  0  0  2  0  0  0  0  0  0
  188.9400  171.9900  143.5760 O   0  0  0  0  0  0  0  0  0  0  0  0
  186.3160  177.5030  138.7350 N   0  0  0  0  0  0  0  0  0  0  0  0
  186.7740  176.9540  139.6450 C   0  0  0  0  0  0  0  0  0  0  0  0
  190.3700  171.4570  139.9990 C   0  0  0  0  0  2  0  0  0  0  0  0
  193.1900  171.3040  137.4670 C   0  0  0  0  0  0  0  0  0  0  0  0
  193.7460  172.9570  139.1480 C   0  0  0  0  0  0  0  0  0  0  0  0
  193.5070  170.6290  136.3360 F   0  0  0  0  0  0  0  0  0  0  0  0
  192.5370  172.6970  139.8020 C   0  0  0  0  0  3  0  0  0  0  0  0
  191.9820  171.0440  138.1220 C   0  0  0  0  0  3  0  0  0  0  0  0
  191.6520  171.7420  139.2890 C   0  0  0  0  0  0  0  0  0  0  0  0
  194.0710  172.2610  137.9790 C   0  0  0  0  0  3  0  0  0  0  0  0
  194.6820  173.9870  139.6860 C   0  0  0  0  0  2  0  0  0  0  0  0
  194.8240  174.6990  142.1160 C   0  0  0  0  0  0  0  0  0  0  0  0
  195.9600  174.1660  142.2380 O   0  0  0  0  0  0  0  0  0  0  0  0
  193.9660  176.5400  145.1970 C   0  0  0  0  0  0  0  0  0  0  0  0
  192.9090  176.8460  144.4470 C   0  0  0  0  0  3  0  0  0  0  0  0
  192.9910  176.1360  143.1370 C   0  0  0  0  0  2  0  0  0  0  0  0
  194.1200  174.6140  140.8730 N   0  0  0  0  0  2  0  0  0  0  0  0
  194.2330  175.3860  143.2260 N   0  0  0  0  0  0  0  0  0  0  0  0
  194.8810  175.5810  144.5150 C   0  0  2  0  0  3  0  0  0  0  0  0
  193.7940  173.5620  145.5320 O   0  0  0  0  0  0  0  0  0  0  0  0
  196.0610  173.8630  145.6780 O   0  0  0  0  0  1  0  0  0  0  0  0
  194.9490  174.2880  145.2680 C   0  0  0  0  0  0  0  0  0  0  0  0
  192.9930  176.7970  147.4580 C   0  0  0  0  0  1  0  0  0  0  0  0
  194.1920  177.0810  146.5730 C   0  0  0  0  0  2  0  0  0  0  0  0
  1  5  1  0  0  0  0
  2  4  1  0  0  0  0
  3 10  1  0  0  0  0
  3 17  1  0  0  0  0
  4 16  2  0  0  0  0
  4  9  1  0  0  0  0
  5  2  2  0  0  0  0
  5 11  1  0  0  0  0
  6 14  2  0  0  0  0
  7  1  2  0  0  0  0
  7 13  1  0  0  0  0
  9  3  2  0  0  0  0
 10  6  1  0  0  0  0
 11 18  2  0  0  0  0
 12 11  1  0  0  0  0
 13 12  2  0  0  0  0
 14  8  1  0  0  0  0
 15 10  2  0  0  0  0
 16 15  1  0  0  0  0
 17 19  2  0  0  0  0
 18  9  1  0  0  0  0
 19 14  1  0  0  0  0
 20 23  1  0  0  0  0
 21 12  1  6  0  0  0
 21 24  1  0  0  0  0
 21 22  1  0  0  0  0
 22 23  1  0  0  0  0
 24 20  1  0  0  0  0
 25 26  3  0  0  0  0
 26  2  1  0  0  0  0
 27 13  1  0  0  0  0
 28 34  2  0  0  0  0
 28 32  1  0  0  0  0
 29 35  1  0  0  0  0
 29 31  2  0  0  0  0
 30 28  1  0  0  0  0
 32 33  2  0  0  0  0
 33 31  1  0  0  0  0
 33 27  1  0  0  0  0
 34 29  1  0  0  0  0
 35 41  1  0  0  0  0
 36 37  2  0  0  0  0
 36 42  1  0  0  0  0
 38 48  1  0  0  0  0
 39 38  2  0  0  0  0
 40 42  1  0  0  0  0
 40 39  1  0  0  0  0
 41 36  1  0  0  0  0
 42 43  1  0  0  0  0
 43 38  1  0  0  0  0
 43 46  1  1  0  0  0
 46 44  2  0  0  0  0
 46 45  1  0  0  0  0
 48 47  1  0  0  0  0
M  END
>  <MODEL>
8

>  <REMARK>
 VINA RESULT:      -8.2      2.973      5.437
  Name = 
  8 active torsions:
  status: ('A' for Active; 'I' for Inactive)
    1  A    between atoms: C_4  and  C_27
    2  A    between atoms: C_5  and  C_43
    3  A    between atoms: C_9  and  C_11
    4  A    between atoms: C_9  and  N_42
    5  A    between atoms: C_26  and  C_37
    6  A    between atoms: C_28  and  C_48
    7  A    between atoms: C_30  and  C_37
    8  A    between atoms: C_36  and  C_47
                            x       y       z     vdW  Elec       q    Type
                         _______ _______ _______ _____ _____    ______ ____

>  <TORSDO>
F 8

$$$$
=
 OpenBabel11042416453D

 48 54  0  0  1  0  0  0  0  0999 V2000
  191.9530  176.9850  142.6970 C   0  0  0  0  0  3  0  0  0  0  0  0
  193.3230  175.1550  141.8310 C   0  0  0  0  0  0  0  0  0  0  0  0
  192.3410  171.9100  140.3060 C   0  0  0  0  0  0  0  0  0  0  0  0
  193.4040  173.8830  141.2310 C   0  0  0  0  0  0  0  0  0  0  0  0
  192.0580  175.7230  142.0990 C   0  0  0  0  0  0  0  0  0  0  0  0
  193.7780  170.1330  139.4680 C   0  0  0  0  0  3  0  0  0  0  0  0
  190.7070  177.5460  142.9580 C   0  0  0  0  0  3  0  0  0  0  0  0
  192.7990  168.1660  138.5460 F   0  0  0  0  0  0  0  0  0  0  0  0
  192.2280  173.1770  140.9020 C   0  0  0  0  0  0  0  0  0  0  0  0
  193.6290  171.3900  140.0600 C   0  0  0  0  0  0  0  0  0  0  0  0
  190.8750  175.0150  141.7650 C   0  0  0  0  0  0  0  0  0  0  0  0
  189.6060  175.5810  142.0310 C   0  0  0  0  0  0  0  0  0  0  0  0
  189.5330  176.8650  142.6260 C   0  0  0  0  0  0  0  0  0  0  0  0
  192.6510  169.3840  139.1190 C   0  0  0  0  0  0  0  0  0  0  0  0
  194.7240  172.1160  140.3990 N   0  0  0  0  0  0  0  0  0  0  0  0
  194.6150  173.3180  140.9650 N   0  0  0  0  0  0  0  0  0  0  0  0
  191.2150  171.1490  139.9500 C   0  0  0  0  0  3  0  0  0  0  0  0
  190.9810  173.7510  141.1710 C   0  0  0  0  0  3  0  0  0  0  0  0
  191.3710  169.8920  139.3590 C   0  0  0  0  0  3  0  0  0  0  0  0
  187.5140  172.7600  141.7030 N   0  0  0  0  0  2  0  0  0  0  0  0
  188.3630  174.7910  141.6890 C   0  0  1  0  0  3  0  0  0  0  0  0
  188.3060  174.4200  140.2330 C   0  0  0  0  0  2  0  0  0  0  0  0
  187.8140  173.0100  140.3020 C   0  0  0  0  0  2  0  0  0  0  0  0
  188.2760  173.6140  142.4440 O   0  0  0  0  0  0  0  0  0  0  0  0
  195.5130  176.4340  142.4320 N   0  0  0  0  0  0  0  0  0  0  0  0
  194.5400  175.8660  142.1660 C   0  0  0  0  0  0  0  0  0  0  0  0
  188.2210  177.5230  142.9390 C   0  0  0  0  0  2  0  0  0  0  0  0
  186.1230  177.4010  146.0970 C   0  0  0  0  0  0  0  0  0  0  0  0
  188.0970  176.0350  146.4240 C   0  0  0  0  0  0  0  0  0  0  0  0
  184.9590  177.9120  146.5660 F   0  0  0  0  0  0  0  0  0  0  0  0
  188.5240  176.3460  145.1280 C   0  0  0  0  0  3  0  0  0  0  0  0
  186.5520  177.7110  144.8020 C   0  0  0  0  0  3  0  0  0  0  0  0
  187.7520  177.1820  144.3150 C   0  0  0  0  0  0  0  0  0  0  0  0
  186.8940  176.5620  146.9060 C   0  0  0  0  0  3  0  0  0  0  0  0
  188.9130  175.1310  147.2850 C   0  0  0  0  0  2  0  0  0  0  0  0
  191.4230  175.3250  146.9720 C   0  0  0  0  0  0  0  0  0  0  0  0
  191.4970  176.2090  147.8670 O   0  0  0  0  0  0  0  0  0  0  0  0
  194.8110  174.3960  145.8420 C   0  0  0  0  0  0  0  0  0  0  0  0
  194.0880  173.5380  145.1250 C   0  0  0  0  0  3  0  0  0  0  0  0
  192.6330  173.7740  145.3600 C   0  0  0  0  0  2  0  0  0  0  0  0
  190.1530  174.7710  146.6130 N   0  0  0  0  0  2  0  0  0  0  0  0
  192.6100  174.8770  146.3080 N   0  0  0  0  0  0  0  0  0  0  0  0
  193.9560  175.3290  146.6310 C   0  0  2  0  0  3  0  0  0  0  0  0
  193.6410  177.1730  144.9600 O   0  0  0  0  0  0  0  0  0  0  0  0
  194.8100  177.5410  146.8960 O   0  0  0  0  0  1  0  0  0  0  0  0
  194.1570  176.7420  146.1760 C   0  0  0  0  0  0  0  0  0  0  0  0
  196.8700  173.0510  146.1190 C   0  0  0  0  0  1  0  0  0  0  0  0
  196.3060  174.4310  145.8350 C   0  0  0  0  0  2  0  0  0  0  0  0
  1  7  1  0  0  0  0
  2  5  1  0  0  0  0
  2 26  1  0  0  0  0
  3  9  1  0  0  0  0
  4  2  2  0  0  0  0
  5  1  2  0  0  0  0
  6 10  2  0  0  0  0
  8 14  1  0  0  0  0
  9 18  2  0  0  0  0
  9  4  1  0  0  0  0
 10  3  1  0  0  0  0
 10 15  1  0  0  0  0
 11 12  2  0  0  0  0
 11  5  1  0  0  0  0
 12 13  1  0  0  0  0
 13 27  1  0  0  0  0
 13  7  2  0  0  0  0
 14 19  2  0  0  0  0
 14  6  1  0  0  0  0
 15 16  2  0  0  0  0
 16  4  1  0  0  0  0
 17  3  2  0  0  0  0
 18 11  1  0  0  0  0
 19 17  1  0  0  0  0
 20 24  1  0  0  0  0
 21 12  1  6  0  0  0
 21 24  1  0  0  0  0
 22 23  1  0  0  0  0
 22 21  1  0  0  0  0
 23 20  1  0  0  0  0
 26 25  3  0  0  0  0
 27 33  1  0  0  0  0
 28 30  1  0  0  0  0
 28 34  1  0  0  0  0
 29 34  2  0  0  0  0
 29 35  1  0  0  0  0
 31 29  1  0  0  0  0
 32 28  2  0  0  0  0
 33 32  1  0  0  0  0
 33 31  2  0  0  0  0
 36 37  2  0  0  0  0
 38 43  1  0  0  0  0
 39 40  1  0  0  0  0
 39 38  2  0  0  0  0
 40 42  1  0  0  0  0
 41 36  1  0  0  0  0
 41 35  1  0  0  0  0
 42 43  1  0  0  0  0
 42 36  1  0  0  0  0
 43 46  1  6  0  0  0
 44 46  2  0  0  0  0
 46 45  1  0  0  0  0
 48 38  1  0  0  0  0
 48 47  1  0  0  0  0
M  END
>  <MODEL>
9

>  <REMARK>
 VINA RESULT:      -8.2      3.469      8.276
  Name = 
  8 active torsions:
  status: ('A' for Active; 'I' for Inactive)
    1  A    between atoms: C_4  and  C_27
    2  A    between atoms: C_5  and  C_43
    3  A    between atoms: C_9  and  C_11
    4  A    between atoms: C_9  and  N_42
    5  A    between atoms: C_26  and  C_37
    6  A    between atoms: C_28  and  C_48
    7  A    between atoms: C_30  and  C_37
    8  A    between atoms: C_36  and  C_47
                            x       y       z     vdW  Elec       q    Type
                         _______ _______ _______ _____ _____    ______ ____

>  <TORSDO>
F 8

$$$$
