=
 OpenBabel11042419113D

 59 67  0  0  1  0  0  0  0  0999 V2000
  185.7330  178.1510  145.9140 C   0  0  0  0  0  0  0  0  0  0  0  0
  186.5100  177.5400  141.9370 C   0  0  0  0  0  0  0  0  0  0  0  0
  188.9030  175.5390  143.8460 C   0  0  2  0  0  3  0  0  0  0  0  0
  187.2830  176.9150  142.9060 C   0  0  0  0  0  0  0  0  0  0  0  0
  186.2010  177.5660  147.1920 C   0  0  0  0  0  1  0  0  0  0  0  0
  189.1610  174.3430  140.8540 C   0  0  2  0  0  3  0  0  0  0  0  0
  185.5470  178.8550  143.7350 C   0  0  0  0  0  0  0  0  0  0  0  0
  188.2700  175.4930  141.2740 C   0  0  0  0  0  0  0  0  0  0  0  0
  188.2790  173.1690  140.4440 C   0  0  0  0  0  1  0  0  0  0  0  0
  190.9990  175.0760  142.4300 C   0  0  0  0  0  2  0  0  0  0  0  0
  186.6360  177.1080  140.6500 N   0  0  0  0  0  0  0  0  0  0  0  0
  187.3240  177.2150  144.1840 C   0  0  0  0  0  0  0  0  0  0  0  0
  190.4100  175.7750  143.6780 C   0  0  2  0  0  3  0  0  0  0  0  0
  187.4870  176.1180  140.3310 N   0  0  0  0  0  0  0  0  0  0  0  0
  190.1620  173.8930  141.9310 C   0  0  2  0  0  3  0  0  0  0  0  0
  186.6040  178.4210  144.7240 C   0  0  0  0  0  0  0  0  0  0  0  0
  184.3950  178.9480  144.3790 C   0  0  0  0  0  0  0  0  0  0  0  0
  188.1450  175.9190  142.6000 C   0  0  0  0  0  0  0  0  0  0  0  0
  188.3370  176.4560  144.8490 N   0  0  0  0  0  2  0  0  0  0  0  0
  184.5010  178.4960  145.7220 N   0  0  0  0  0  2  0  0  0  0  0  0
  183.1370  179.0700  143.7190 N   0  0  0  0  0  1  0  0  0  0  0  0
  185.6380  178.5000  142.2890 C   0  0  0  0  0  3  0  0  0  0  0  0
  191.0240  172.8630  141.4070 N   0  0  0  0  0  0  0  0  0  0  0  0
  191.7420  173.0870  140.3660 C   0  0  0  0  0  3  0  0  0  0  0  0
  192.6470  172.0300  139.8330 C   0  0  0  0  0  2  0  0  0  0  0  0
  192.7620  172.1600  138.4260 O   0  0  0  0  0  0  0  0  0  0  0  0
  192.1020  173.8840  137.0370 N   0  0  0  0  0  0  0  0  0  0  0  0
  189.8740  170.9510  138.0610 C   0  0  0  0  0  2  0  0  0  0  0  0
  189.3310  176.1710  134.7980 C   0  0  0  0  0  3  0  0  0  0  0  0
  190.4580  170.8040  136.6630 C   0  0  0  0  0  2  0  0  0  0  0  0
  190.6700  176.5760  134.8870 C   0  0  0  0  0  3  0  0  0  0  0  0
  189.8470  174.2040  136.1140 C   0  0  0  0  0  0  0  0  0  0  0  0
  191.5900  175.8170  135.6130 C   0  0  0  0  0  3  0  0  0  0  0  0
  191.1790  174.6310  136.2310 C   0  0  0  0  0  0  0  0  0  0  0  0
  191.8000  172.7510  137.5980 C   0  0  0  0  0  0  0  0  0  0  0  0
  190.4190  172.1590  137.3300 C   0  0  0  0  0  0  0  0  0  0  0  0
  188.9190  174.9830  135.4130 C   0  0  0  0  0  3  0  0  0  0  0  0
  189.4520  173.0120  136.7220 O   0  0  0  0  0  0  0  0  0  0  0  0
  191.0570  175.3600  144.8690 O   0  0  0  0  0  0  0  0  0  0  0  0
  191.5390  176.3090  146.9620 O   0  0  0  0  0  0  0  0  0  0  0  0
  192.7950  176.0910  146.3540 C   0  0  2  0  0  3  0  0  0  0  0  0
  191.5930  176.4740  145.5590 C   0  0  1  0  0  3  0  0  0  0  0  0
  193.0570  174.7140  146.3310 O   0  0  0  0  0  0  0  0  0  0  0  0
  194.4030  174.6280  145.9760 C   0  0  0  0  0  2  0  0  0  0  0  0
  194.5400  174.5580  144.4650 C   0  0  0  0  0  2  0  0  0  0  0  0
  195.1200  173.2070  144.0430 C   0  0  2  0  0  3  0  0  0  0  0  0
  196.2280  172.0680  142.0540 C   0  0  0  0  0  1  0  0  0  0  0  0
  195.0670  172.9310  142.5320 C   0  0  2  0  0  3  0  0  0  0  0  0
  194.8480  174.1030  141.7470 O   0  0  0  0  0  0  0  0  0  0  0  0
  196.6240  175.6000  141.2900 C   0  0  0  0  0  2  0  0  0  0  0  0
  195.8290  174.6130  140.8950 C   0  0  0  0  0  3  0  0  0  0  0  0
  194.5540  172.0290  144.8540 C   0  0  2  0  0  3  0  0  0  0  0  0
  196.8410  171.6770  145.8960 C   0  0  0  0  0  1  0  0  0  0  0  0
  195.6030  170.9940  145.3350 C   0  0  0  0  0  3  0  0  0  0  0  0
  195.0510  169.9850  146.3310 C   0  0  0  0  0  1  0  0  0  0  0  0
  193.3010  171.4660  144.2370 C   0  0  0  0  0  0  0  0  0  0  0  0
  192.2020  172.0510  144.4440 O   0  0  0  0  0  0  0  0  0  0  0  0
  193.3490  170.3370  143.4180 O   0  0  0  0  0  0  0  0  0  0  0  0
  192.1740  169.7950  142.8300 C   0  0  0  0  0  1  0  0  0  0  0  0
  1  5  1  0  0  0  0
  2 22  2  0  0  0  0
  2  4  1  0  0  0  0
  3 18  1  6  0  0  0
  3 19  1  0  0  0  0
  4 12  2  0  0  0  0
  6  9  1  1  0  0  0
  6  8  1  0  0  0  0
  6 15  1  0  0  0  0
  7 17  2  0  0  0  0
  7 16  1  0  0  0  0
  8 18  2  0  0  0  0
 10 13  1  0  0  0  0
 11  2  1  0  0  0  0
 12 16  1  0  0  0  0
 12 19  1  0  0  0  0
 13  3  1  0  0  0  0
 13 39  1  1  0  0  0
 14 11  2  0  0  0  0
 14  8  1  0  0  0  0
 15 23  1  6  0  0  0
 15 10  1  0  0  0  0
 16  1  2  0  0  0  0
 17 20  1  0  0  0  0
 18  4  1  0  0  0  0
 20  1  1  0  0  0  0
 21 17  1  0  0  0  0
 22  7  1  0  0  0  0
 24 23  2  0  0  0  0
 25 24  1  0  0  0  0
 26 25  1  0  0  0  0
 27 35  2  0  0  0  0
 29 31  2  0  0  0  0
 29 37  1  0  0  0  0
 30 36  1  0  0  0  0
 30 28  1  0  0  0  0
 31 33  1  0  0  0  0
 32 34  1  0  0  0  0
 32 38  1  0  0  0  0
 33 34  2  0  0  0  0
 34 27  1  0  0  0  0
 35 26  1  0  0  0  0
 36 35  1  0  0  0  0
 36 28  1  0  0  0  0
 37 32  2  0  0  0  0
 38 36  1  0  0  0  0
 41 43  1  6  0  0  0
 41 40  1  0  0  0  0
 42 39  1  6  0  0  0
 42 41  1  0  0  0  0
 42 40  1  0  0  0  0
 44 43  1  0  0  0  0
 45 44  1  0  0  0  0
 46 45  1  6  0  0  0
 46 52  1  0  0  0  0
 48 47  1  6  0  0  0
 48 46  1  0  0  0  0
 49 48  1  0  0  0  0
 51 50  2  0  0  0  0
 51 49  1  0  0  0  0
 52 56  1  6  0  0  0
 52 54  1  0  0  0  0
 54 53  1  0  0  0  0
 54 55  1  0  0  0  0
 56 57  2  0  0  0  0
 58 56  1  0  0  0  0
 59 58  1  0  0  0  0
M  END
>  <MODEL>
1

>  <REMARK>
 VINA RESULT:      -7.2      0.000      0.000
  Name = 
  17 active torsions:
  status: ('A' for Active; 'I' for Inactive)
    1  A    between atoms: O_3  and  C_44
    2  A    between atoms: C_4  and  O_26
    3  A    between atoms: C_4  and  C_35
    4  A    between atoms: O_7  and  C_13
    5  A    between atoms: O_7  and  C_57
    6  A    between atoms: C_13  and  C_27
    7  A    between atoms: C_14  and  C_27
    8  A    between atoms: C_14  and  C_44
    9  A    between atoms: C_14  and  C_53
   10  A    between atoms: C_16  and  O_26
   11  A    between atoms: C_18  and  O_50
   12  A    between atoms: C_27  and  C_35
   13  A    between atoms: O_31  and  C_38
   14  A    between atoms: O_31  and  C_51
   15  A    between atoms: C_36  and  O_50
   16  A    between atoms: N_42  and  C_43
   17  A    between atoms: C_51  and  C_54
                            x       y       z     vdW  Elec       q    Type
                         _______ _______ _______ _____ _____    ______ ____

>  <TORSDO>
F 17

$$$$
=
 OpenBabel11042419113D

 59 67  0  0  1  0  0  0  0  0999 V2000
  185.6440  178.1860  146.3200 C   0  0  0  0  0  0  0  0  0  0  0  0
  186.4240  177.7900  142.3170 C   0  0  0  0  0  0  0  0  0  0  0  0
  188.8710  175.7580  144.1200 C   0  0  2  0  0  3  0  0  0  0  0  0
  187.2140  177.1380  143.2520 C   0  0  0  0  0  0  0  0  0  0  0  0
  186.1300  177.5500  147.5670 C   0  0  0  0  0  1  0  0  0  0  0  0
  189.1490  174.7160  141.0730 C   0  0  2  0  0  3  0  0  0  0  0  0
  185.4340  178.9910  144.1780 C   0  0  0  0  0  0  0  0  0  0  0  0
  188.2310  175.8220  141.5500 C   0  0  0  0  0  0  0  0  0  0  0  0
  188.2950  173.5430  140.6080 C   0  0  0  0  0  1  0  0  0  0  0  0
  190.9740  175.4170  142.6800 C   0  0  0  0  0  2  0  0  0  0  0  0
  186.5560  177.4250  141.0100 N   0  0  0  0  0  0  0  0  0  0  0  0
  187.2520  177.3750  144.5430 C   0  0  0  0  0  0  0  0  0  0  0  0
  190.3710  176.0390  143.9620 C   0  0  2  0  0  3  0  0  0  0  0  0
  187.4310  176.4730  140.6410 N   0  0  0  0  0  0  0  0  0  0  0  0
  190.1640  174.2400  142.1250 C   0  0  2  0  0  3  0  0  0  0  0  0
  186.5040  178.5350  145.1430 C   0  0  0  0  0  0  0  0  0  0  0  0
  184.2820  179.0240  144.8280 C   0  0  0  0  0  0  0  0  0  0  0  0
  188.1000  176.1790  142.8960 C   0  0  0  0  0  0  0  0  0  0  0  0
  188.2850  176.6100  145.1680 N   0  0  0  0  0  2  0  0  0  0  0  0
  184.4030  178.5090  146.1470 N   0  0  0  0  0  2  0  0  0  0  0  0
  183.0200  179.1470  144.1770 N   0  0  0  0  0  1  0  0  0  0  0  0
  185.5290  178.7090  142.7170 C   0  0  0  0  0  3  0  0  0  0  0  0
  191.0500  173.2580  141.5500 N   0  0  0  0  0  0  0  0  0  0  0  0
  191.9380  173.6110  140.6920 C   0  0  0  0  0  3  0  0  0  0  0  0
  192.8660  172.6010  140.1090 C   0  0  0  0  0  2  0  0  0  0  0  0
  192.6830  172.5330  138.7040 O   0  0  0  0  0  0  0  0  0  0  0  0
  194.5270  173.6790  137.9140 N   0  0  0  0  0  0  0  0  0  0  0  0
  190.9950  174.0100  136.4900 C   0  0  0  0  0  2  0  0  0  0  0  0
  196.5410  176.5790  135.5800 C   0  0  0  0  0  3  0  0  0  0  0  0
  191.8990  173.1150  135.6540 C   0  0  0  0  0  2  0  0  0  0  0  0
  197.2560  175.7850  136.4870 C   0  0  0  0  0  3  0  0  0  0  0  0
  194.5090  175.3900  136.1510 C   0  0  0  0  0  0  0  0  0  0  0  0
  196.5970  174.8180  137.2490 C   0  0  0  0  0  3  0  0  0  0  0  0
  195.2220  174.6210  137.0850 C   0  0  0  0  0  0  0  0  0  0  0  0
  193.2620  173.4120  137.7800 C   0  0  0  0  0  0  0  0  0  0  0  0
  192.4980  174.0860  136.6440 C   0  0  0  0  0  0  0  0  0  0  0  0
  195.1650  176.3810  135.4110 C   0  0  0  0  0  3  0  0  0  0  0  0
  193.1410  175.1730  135.9840 O   0  0  0  0  0  0  0  0  0  0  0  0
  191.0310  175.5820  145.1300 O   0  0  0  0  0  0  0  0  0  0  0  0
  191.7900  176.4090  147.1920 O   0  0  0  0  0  0  0  0  0  0  0  0
  192.9510  176.2540  146.4040 C   0  0  2  0  0  3  0  0  0  0  0  0
  191.6460  176.6620  145.8090 C   0  0  1  0  0  3  0  0  0  0  0  0
  193.2230  174.8860  146.2570 O   0  0  0  0  0  0  0  0  0  0  0  0
  194.6080  174.8270  146.1050 C   0  0  0  0  0  2  0  0  0  0  0  0
  194.9760  174.9430  144.6370 C   0  0  0  0  0  2  0  0  0  0  0  0
  195.4400  173.5890  144.0950 C   0  0  2  0  0  3  0  0  0  0  0  0
  196.6530  172.8200  141.9920 C   0  0  0  0  0  1  0  0  0  0  0  0
  195.3960  173.4650  142.5630 C   0  0  2  0  0  3  0  0  0  0  0  0
  195.0050  174.6700  141.9050 O   0  0  0  0  0  0  0  0  0  0  0  0
  196.1820  176.5980  141.1960 C   0  0  0  0  0  2  0  0  0  0  0  0
  195.8510  175.3260  141.0080 C   0  0  0  0  0  3  0  0  0  0  0  0
  194.7520  172.3980  144.7810 C   0  0  2  0  0  3  0  0  0  0  0  0
  196.9610  171.8190  145.8870 C   0  0  0  0  0  1  0  0  0  0  0  0
  195.7010  171.2620  145.2410 C   0  0  0  0  0  3  0  0  0  0  0  0
  195.0350  170.2450  146.1570 C   0  0  0  0  0  1  0  0  0  0  0  0
  193.5060  171.9670  144.0520 C   0  0  0  0  0  0  0  0  0  0  0  0
  192.4170  172.5530  144.3030 O   0  0  0  0  0  0  0  0  0  0  0  0
  193.5520  170.9590  143.0870 O   0  0  0  0  0  0  0  0  0  0  0  0
  192.4680  170.0570  142.9030 C   0  0  0  0  0  1  0  0  0  0  0  0
  1  5  1  0  0  0  0
  2 22  2  0  0  0  0
  2  4  1  0  0  0  0
  3 18  1  6  0  0  0
  3 19  1  0  0  0  0
  4 12  2  0  0  0  0
  6  9  1  1  0  0  0
  6  8  1  0  0  0  0
  6 15  1  0  0  0  0
  7 17  2  0  0  0  0
  7 16  1  0  0  0  0
  8 18  2  0  0  0  0
 10 13  1  0  0  0  0
 11  2  1  0  0  0  0
 12 16  1  0  0  0  0
 12 19  1  0  0  0  0
 13  3  1  0  0  0  0
 13 39  1  1  0  0  0
 14 11  2  0  0  0  0
 14  8  1  0  0  0  0
 15 23  1  6  0  0  0
 15 10  1  0  0  0  0
 16  1  2  0  0  0  0
 17 20  1  0  0  0  0
 18  4  1  0  0  0  0
 20  1  1  0  0  0  0
 21 17  1  0  0  0  0
 22  7  1  0  0  0  0
 24 23  2  0  0  0  0
 25 24  1  0  0  0  0
 26 25  1  0  0  0  0
 28 36  1  0  0  0  0
 29 31  1  0  0  0  0
 30 28  1  0  0  0  0
 30 36  1  0  0  0  0
 31 33  2  0  0  0  0
 32 34  2  0  0  0  0
 34 33  1  0  0  0  0
 34 27  1  0  0  0  0
 35 27  2  0  0  0  0
 35 26  1  0  0  0  0
 36 35  1  0  0  0  0
 37 29  2  0  0  0  0
 37 32  1  0  0  0  0
 38 32  1  0  0  0  0
 38 36  1  0  0  0  0
 41 43  1  6  0  0  0
 41 40  1  0  0  0  0
 42 39  1  6  0  0  0
 42 41  1  0  0  0  0
 42 40  1  0  0  0  0
 44 43  1  0  0  0  0
 45 44  1  0  0  0  0
 46 45  1  6  0  0  0
 46 52  1  0  0  0  0
 48 47  1  6  0  0  0
 48 46  1  0  0  0  0
 49 48  1  0  0  0  0
 51 50  2  0  0  0  0
 51 49  1  0  0  0  0
 52 56  1  6  0  0  0
 52 54  1  0  0  0  0
 54 53  1  0  0  0  0
 54 55  1  0  0  0  0
 56 57  2  0  0  0  0
 58 56  1  0  0  0  0
 59 58  1  0  0  0  0
M  END
>  <MODEL>
2

>  <REMARK>
 VINA RESULT:      -7.1      1.544      2.174
  Name = 
  17 active torsions:
  status: ('A' for Active; 'I' for Inactive)
    1  A    between atoms: O_3  and  C_44
    2  A    between atoms: C_4  and  O_26
    3  A    between atoms: C_4  and  C_35
    4  A    between atoms: O_7  and  C_13
    5  A    between atoms: O_7  and  C_57
    6  A    between atoms: C_13  and  C_27
    7  A    between atoms: C_14  and  C_27
    8  A    between atoms: C_14  and  C_44
    9  A    between atoms: C_14  and  C_53
   10  A    between atoms: C_16  and  O_26
   11  A    between atoms: C_18  and  O_50
   12  A    between atoms: C_27  and  C_35
   13  A    between atoms: O_31  and  C_38
   14  A    between atoms: O_31  and  C_51
   15  A    between atoms: C_36  and  O_50
   16  A    between atoms: N_42  and  C_43
   17  A    between atoms: C_51  and  C_54
                            x       y       z     vdW  Elec       q    Type
                         _______ _______ _______ _____ _____    ______ ____

>  <TORSDO>
F 17

$$$$
=
 OpenBabel11042419113D

 59 67  0  0  1  0  0  0  0  0999 V2000
  187.0880  176.9350  142.6900 C   0  0  0  0  0  0  0  0  0  0  0  0
  188.9460  177.1110  146.3380 C   0  0  0  0  0  0  0  0  0  0  0  0
  191.1300  175.2380  144.0800 C   0  0  2  0  0  3  0  0  0  0  0  0
  189.5410  176.4380  145.2810 C   0  0  0  0  0  0  0  0  0  0  0  0
  187.4550  176.4780  141.3300 C   0  0  0  0  0  1  0  0  0  0  0  0
  193.0630  175.9210  146.5790 C   0  0  2  0  0  3  0  0  0  0  0  0
  186.9520  177.2490  144.9620 C   0  0  0  0  0  0  0  0  0  0  0  0
  191.5970  176.2860  146.4680 C   0  0  0  0  0  0  0  0  0  0  0  0
  193.8870  177.2030  146.5530 C   0  0  0  0  0  1  0  0  0  0  0  0
  192.6880  173.6990  145.4280 C   0  0  0  0  0  2  0  0  0  0  0  0
  189.7100  177.3630  147.4390 N   0  0  0  0  0  0  0  0  0  0  0  0
  188.9610  176.0780  144.1590 C   0  0  0  0  0  0  0  0  0  0  0  0
  191.5230  173.7930  144.4130 C   0  0  2  0  0  3  0  0  0  0  0  0
  190.9920  176.9640  147.5000 N   0  0  0  0  0  0  0  0  0  0  0  0
  193.5590  174.9580  145.4880 C   0  0  2  0  0  3  0  0  0  0  0  0
  187.4780  176.2450  143.9620 C   0  0  2  0  0  3  0  0  0  0  0  0
  186.2740  178.1720  144.3000 C   0  0  0  0  0  0  0  0  0  0  0  0
  190.8300  176.0280  145.3280 C   0  0  0  0  0  0  0  0  0  0  0  0
  189.8430  175.2800  143.3660 N   0  0  0  0  0  2  0  0  0  0  0  0
  186.3710  177.9930  142.8940 N   0  0  0  0  0  0  0  0  0  0  0  0
  185.8670  179.4090  144.8790 N   0  0  0  0  0  1  0  0  0  0  0  0
  187.6750  177.5350  146.2350 C   0  0  0  0  0  3  0  0  0  0  0  0
  194.9340  174.5970  145.7310 N   0  0  0  0  0  0  0  0  0  0  0  0
  195.7680  174.5310  144.7570 C   0  0  0  0  0  3  0  0  0  0  0  0
  197.1930  174.1750  145.0080 C   0  0  0  0  0  2  0  0  0  0  0  0
  197.5970  173.1490  144.1170 O   0  0  0  0  0  0  0  0  0  0  0  0
  196.3550  172.1520  142.4420 N   0  0  0  0  0  0  0  0  0  0  0  0
  196.5760  170.8660  146.0350 C   0  0  0  0  0  2  0  0  0  0  0  0
  193.5400  169.4210  140.8510 C   0  0  0  0  0  3  0  0  0  0  0  0
  197.4570  170.0930  145.0650 C   0  0  0  0  0  2  0  0  0  0  0  0
  194.1420  170.3760  140.0200 C   0  0  0  0  0  3  0  0  0  0  0  0
  194.8700  170.2130  142.7140 C   0  0  0  0  0  0  0  0  0  0  0  0
  195.0810  171.2690  140.5390 C   0  0  0  0  0  3  0  0  0  0  0  0
  195.4440  171.1930  141.8870 C   0  0  0  0  0  0  0  0  0  0  0  0
  196.7710  172.1080  143.6720 C   0  0  0  0  0  0  0  0  0  0  0  0
  196.3190  170.9410  144.5470 C   0  0  0  0  0  0  0  0  0  0  0  0
  193.9050  169.3390  142.2000 C   0  0  0  0  0  3  0  0  0  0  0  0
  195.2520  170.1350  144.0530 O   0  0  0  0  0  0  0  0  0  0  0  0
  191.8270  173.1270  143.2000 O   0  0  0  0  0  0  0  0  0  0  0  0
  190.0750  171.6130  143.5890 O   0  0  0  0  0  0  0  0  0  0  0  0
  190.4230  171.4390  142.2310 C   0  0  2  0  0  3  0  0  0  0  0  0
  191.4430  171.7660  143.2680 C   0  0  1  0  0  3  0  0  0  0  0  0
  189.9950  172.5590  141.5030 O   0  0  0  0  0  0  0  0  0  0  0  0
  189.7390  172.0600  140.2270 C   0  0  0  0  0  2  0  0  0  0  0  0
  190.1820  173.0630  139.1770 C   0  0  0  0  0  2  0  0  0  0  0  0
  191.5580  172.6860  138.6260 C   0  0  2  0  0  3  0  0  0  0  0  0
  193.8390  173.5520  137.8950 C   0  0  0  0  0  1  0  0  0  0  0  0
  192.6380  173.7650  138.8090 C   0  0  2  0  0  3  0  0  0  0  0  0
  192.9780  174.0040  140.1750 O   0  0  0  0  0  0  0  0  0  0  0  0
  193.8970  175.5960  141.6670 C   0  0  0  0  0  2  0  0  0  0  0  0
  193.9820  174.9040  140.5370 C   0  0  0  0  0  3  0  0  0  0  0  0
  191.5080  172.1750  137.1760 C   0  0  2  0  0  3  0  0  0  0  0  0
  190.8310  173.5890  135.1810 C   0  0  0  0  0  1  0  0  0  0  0  0
  190.3320  172.7190  136.3250 C   0  0  0  0  0  3  0  0  0  0  0  0
  189.4030  171.6310  135.8050 C   0  0  0  0  0  1  0  0  0  0  0  0
  191.7590  170.6930  137.0900 C   0  0  0  0  0  0  0  0  0  0  0  0
  192.4730  170.2480  136.1480 O   0  0  0  0  0  0  0  0  0  0  0  0
  191.2440  169.8200  138.0490 O   0  0  0  0  0  0  0  0  0  0  0  0
  190.7400  168.5390  137.6930 C   0  0  0  0  0  1  0  0  0  0  0  0
  1 20  2  0  0  0  0
  2 11  1  0  0  0  0
  3 19  1  6  0  0  0
  3 13  1  0  0  0  0
  3 18  1  0  0  0  0
  4 18  1  0  0  0  0
  4  2  1  0  0  0  0
  5  1  1  0  0  0  0
  6  9  1  6  0  0  0
  7 22  1  0  0  0  0
  8  6  1  0  0  0  0
  8 14  1  0  0  0  0
 10 15  1  0  0  0  0
 11 14  2  0  0  0  0
 12  4  2  0  0  0  0
 13 39  1  6  0  0  0
 13 10  1  0  0  0  0
 15 23  1  1  0  0  0
 15  6  1  0  0  0  0
 16  1  1  6  0  0  0
 16 12  1  0  0  0  0
 16  7  1  0  0  0  0
 17 21  1  0  0  0  0
 17  7  2  0  0  0  0
 18  8  2  0  0  0  0
 19 12  1  0  0  0  0
 20 17  1  0  0  0  0
 22  2  2  0  0  0  0
 24 25  1  0  0  0  0
 24 23  2  0  0  0  0
 26 25  1  0  0  0  0
 27 35  2  0  0  0  0
 29 37  1  0  0  0  0
 30 28  1  0  0  0  0
 31 33  1  0  0  0  0
 31 29  2  0  0  0  0
 32 38  1  0  0  0  0
 33 34  2  0  0  0  0
 34 27  1  0  0  0  0
 34 32  1  0  0  0  0
 35 26  1  0  0  0  0
 35 36  1  0  0  0  0
 36 30  1  0  0  0  0
 36 28  1  0  0  0  0
 37 32  2  0  0  0  0
 38 36  1  0  0  0  0
 41 43  1  6  0  0  0
 41 42  1  0  0  0  0
 41 40  1  0  0  0  0
 42 39  1  6  0  0  0
 42 40  1  0  0  0  0
 44 43  1  0  0  0  0
 45 44  1  0  0  0  0
 46 48  1  0  0  0  0
 46 45  1  6  0  0  0
 48 47  1  6  0  0  0
 48 49  1  0  0  0  0
 49 51  1  0  0  0  0
 51 50  2  0  0  0  0
 52 54  1  1  0  0  0
 52 46  1  0  0  0  0
 53 54  1  0  0  0  0
 55 54  1  0  0  0  0
 56 52  1  0  0  0  0
 56 58  1  0  0  0  0
 57 56  2  0  0  0  0
 59 58  1  0  0  0  0
M  END
>  <MODEL>
3

>  <REMARK>
 VINA RESULT:      -6.9      2.273      6.819
  Name = 
  17 active torsions:
  status: ('A' for Active; 'I' for Inactive)
    1  A    between atoms: O_3  and  C_44
    2  A    between atoms: C_4  and  O_26
    3  A    between atoms: C_4  and  C_35
    4  A    between atoms: O_7  and  C_13
    5  A    between atoms: O_7  and  C_57
    6  A    between atoms: C_13  and  C_27
    7  A    between atoms: C_14  and  C_27
    8  A    between atoms: C_14  and  C_44
    9  A    between atoms: C_14  and  C_53
   10  A    between atoms: C_16  and  O_26
   11  A    between atoms: C_18  and  O_50
   12  A    between atoms: C_27  and  C_35
   13  A    between atoms: O_31  and  C_38
   14  A    between atoms: O_31  and  C_51
   15  A    between atoms: C_36  and  O_50
   16  A    between atoms: N_42  and  C_43
   17  A    between atoms: C_51  and  C_54
                            x       y       z     vdW  Elec       q    Type
                         _______ _______ _______ _____ _____    ______ ____

>  <TORSDO>
F 17

$$$$
=
 OpenBabel11042419113D

 59 67  0  0  1  0  0  0  0  0999 V2000
  186.9800  177.1090  143.0850 C   0  0  0  0  0  0  0  0  0  0  0  0
  189.1200  176.9890  146.5780 C   0  0  0  0  0  0  0  0  0  0  0  0
  191.0280  175.1540  144.0550 C   0  0  2  0  0  3  0  0  0  0  0  0
  189.5980  176.3530  145.4410 C   0  0  0  0  0  0  0  0  0  0  0  0
  187.2180  176.7150  141.6770 C   0  0  0  0  0  1  0  0  0  0  0  0
  193.1800  175.6030  146.4250 C   0  0  2  0  0  3  0  0  0  0  0  0
  187.0350  177.2960  145.3750 C   0  0  0  0  0  0  0  0  0  0  0  0
  191.7300  176.0390  146.4510 C   0  0  0  0  0  0  0  0  0  0  0  0
  194.0610  176.8460  146.4030 C   0  0  0  0  0  1  0  0  0  0  0  0
  192.6080  173.4710  145.1890 C   0  0  0  0  0  2  0  0  0  0  0  0
  189.9780  177.1420  147.6260 N   0  0  0  0  0  0  0  0  0  0  0  0
  188.9160  176.0840  144.3520 C   0  0  0  0  0  0  0  0  0  0  0  0
  191.3750  173.6750  144.2760 C   0  0  2  0  0  3  0  0  0  0  0  0
  191.2400  176.6830  147.5630 N   0  0  0  0  0  0  0  0  0  0  0  0
  193.5420  174.6840  145.2470 C   0  0  2  0  0  3  0  0  0  0  0  0
  187.4320  176.3290  144.2830 C   0  0  2  0  0  3  0  0  0  0  0  0
  186.3550  178.2860  144.8200 C   0  0  0  0  0  0  0  0  0  0  0  0
  190.8650  175.8830  145.3640 C   0  0  0  0  0  0  0  0  0  0  0  0
  189.6940  175.2950  143.4490 N   0  0  0  0  0  2  0  0  0  0  0  0
  186.3350  178.1850  143.4020 N   0  0  0  0  0  0  0  0  0  0  0  0
  186.0550  179.5040  145.4950 N   0  0  0  0  0  1  0  0  0  0  0  0
  187.8680  177.4750  146.5990 C   0  0  0  0  0  3  0  0  0  0  0  0
  194.9120  174.2480  145.3600 N   0  0  0  0  0  0  0  0  0  0  0  0
  195.1800  173.0270  145.6530 C   0  0  0  0  0  3  0  0  0  0  0  0
  196.5950  172.5700  145.7550 C   0  0  0  0  0  2  0  0  0  0  0  0
  196.6480  171.1540  145.7020 O   0  0  0  0  0  0  0  0  0  0  0  0
  195.5430  170.5320  143.7700 N   0  0  0  0  0  0  0  0  0  0  0  0
  194.8360  169.0800  147.2350 C   0  0  0  0  0  2  0  0  0  0  0  0
  192.5400  168.5730  141.5200 C   0  0  0  0  0  3  0  0  0  0  0  0
  195.6900  168.1710  146.3640 C   0  0  0  0  0  2  0  0  0  0  0  0
  193.4720  169.4020  140.8800 C   0  0  0  0  0  3  0  0  0  0  0  0
  193.6530  168.9670  143.6350 C   0  0  0  0  0  0  0  0  0  0  0  0
  194.4720  170.0390  141.6170 C   0  0  0  0  0  3  0  0  0  0  0  0
  194.5620  169.8270  142.9970 C   0  0  0  0  0  0  0  0  0  0  0  0
  195.7120  170.3440  145.0450 C   0  0  0  0  0  0  0  0  0  0  0  0
  194.8720  169.2730  145.7350 C   0  0  0  0  0  0  0  0  0  0  0  0
  192.6310  168.3550  142.9000 C   0  0  0  0  0  3  0  0  0  0  0  0
  193.7630  168.7490  145.0090 O   0  0  0  0  0  0  0  0  0  0  0  0
  191.5510  173.0690  143.0080 O   0  0  0  0  0  0  0  0  0  0  0  0
  189.6860  171.6550  143.1980 O   0  0  0  0  0  0  0  0  0  0  0  0
  190.1670  171.4610  141.8850 C   0  0  2  0  0  3  0  0  0  0  0  0
  191.0870  171.7310  143.0270 C   0  0  1  0  0  3  0  0  0  0  0  0
  189.8820  172.6030  141.1220 O   0  0  0  0  0  0  0  0  0  0  0  0
  189.5730  172.1020  139.8580 C   0  0  0  0  0  2  0  0  0  0  0  0
  190.6350  171.1110  139.4160 C   0  0  0  0  0  2  0  0  0  0  0  0
  190.9500  171.2940  137.9300 C   0  0  2  0  0  3  0  0  0  0  0  0
  190.4240  168.8050  137.8280 C   0  0  0  0  0  1  0  0  0  0  0  0
  191.1040  169.9830  137.1420 C   0  0  2  0  0  3  0  0  0  0  0  0
  192.4450  169.7230  136.7260 O   0  0  0  0  0  0  0  0  0  0  0  0
  194.4820  168.7150  137.3870 C   0  0  0  0  0  2  0  0  0  0  0  0
  193.1690  168.6340  137.2140 C   0  0  0  0  0  3  0  0  0  0  0  0
  192.1280  172.2490  137.6780 C   0  0  2  0  0  3  0  0  0  0  0  0
  194.4870  172.2850  138.6130 C   0  0  0  0  0  1  0  0  0  0  0  0
  193.0180  172.5420  138.9140 C   0  0  0  0  0  3  0  0  0  0  0  0
  192.8250  173.9390  139.4860 C   0  0  0  0  0  1  0  0  0  0  0  0
  191.7230  173.4440  136.8560 C   0  0  0  0  0  0  0  0  0  0  0  0
  192.4470  173.7890  135.8810 O   0  0  0  0  0  0  0  0  0  0  0  0
  190.5480  174.1440  137.1370 O   0  0  0  0  0  0  0  0  0  0  0  0
  189.5090  174.2690  136.1740 C   0  0  0  0  0  1  0  0  0  0  0  0
  1 20  2  0  0  0  0
  2 22  2  0  0  0  0
  2 11  1  0  0  0  0
  3 19  1  1  0  0  0
  3 13  1  0  0  0  0
  3 18  1  0  0  0  0
  4  2  1  0  0  0  0
  5  1  1  0  0  0  0
  6  9  1  6  0  0  0
  6  8  1  0  0  0  0
  7 22  1  0  0  0  0
  8 14  1  0  0  0  0
 10 15  1  0  0  0  0
 12  4  2  0  0  0  0
 13 39  1  6  0  0  0
 13 10  1  0  0  0  0
 14 11  2  0  0  0  0
 15 23  1  1  0  0  0
 15  6  1  0  0  0  0
 16  1  1  6  0  0  0
 16 12  1  0  0  0  0
 16  7  1  0  0  0  0
 17  7  2  0  0  0  0
 17 21  1  0  0  0  0
 18  4  1  0  0  0  0
 18  8  2  0  0  0  0
 19 12  1  0  0  0  0
 20 17  1  0  0  0  0
 23 24  2  0  0  0  0
 24 25  1  0  0  0  0
 26 25  1  0  0  0  0
 27 35  2  0  0  0  0
 29 37  1  0  0  0  0
 30 28  1  0  0  0  0
 31 29  2  0  0  0  0
 31 33  1  0  0  0  0
 32 38  1  0  0  0  0
 33 34  2  0  0  0  0
 34 32  1  0  0  0  0
 34 27  1  0  0  0  0
 35 26  1  0  0  0  0
 35 36  1  0  0  0  0
 36 30  1  0  0  0  0
 36 28  1  0  0  0  0
 37 32  2  0  0  0  0
 38 36  1  0  0  0  0
 41 43  1  6  0  0  0
 41 42  1  0  0  0  0
 41 40  1  0  0  0  0
 42 39  1  6  0  0  0
 42 40  1  0  0  0  0
 44 43  1  0  0  0  0
 45 44  1  0  0  0  0
 46 45  1  1  0  0  0
 48 47  1  1  0  0  0
 48 46  1  0  0  0  0
 49 48  1  0  0  0  0
 49 51  1  0  0  0  0
 51 50  2  0  0  0  0
 52 56  1  1  0  0  0
 52 46  1  0  0  0  0
 52 54  1  0  0  0  0
 53 54  1  0  0  0  0
 54 55  1  0  0  0  0
 56 58  1  0  0  0  0
 57 56  2  0  0  0  0
 59 58  1  0  0  0  0
M  END
>  <MODEL>
4

>  <REMARK>
 VINA RESULT:      -6.9      2.374      7.147
  Name = 
  17 active torsions:
  status: ('A' for Active; 'I' for Inactive)
    1  A    between atoms: O_3  and  C_44
    2  A    between atoms: C_4  and  O_26
    3  A    between atoms: C_4  and  C_35
    4  A    between atoms: O_7  and  C_13
    5  A    between atoms: O_7  and  C_57
    6  A    between atoms: C_13  and  C_27
    7  A    between atoms: C_14  and  C_27
    8  A    between atoms: C_14  and  C_44
    9  A    between atoms: C_14  and  C_53
   10  A    between atoms: C_16  and  O_26
   11  A    between atoms: C_18  and  O_50
   12  A    between atoms: C_27  and  C_35
   13  A    between atoms: O_31  and  C_38
   14  A    between atoms: O_31  and  C_51
   15  A    between atoms: C_36  and  O_50
   16  A    between atoms: N_42  and  C_43
   17  A    between atoms: C_51  and  C_54
                            x       y       z     vdW  Elec       q    Type
                         _______ _______ _______ _____ _____    ______ ____

>  <TORSDO>
F 17

$$$$
=
 OpenBabel11042419113D

 59 67  0  0  1  0  0  0  0  0999 V2000
  186.2860  177.6440  141.8030 C   0  0  0  0  0  0  0  0  0  0  0  0
  187.0990  176.5630  145.6710 C   0  0  0  0  0  0  0  0  0  0  0  0
  189.9120  175.4660  143.6080 C   0  0  2  0  0  3  0  0  0  0  0  0
  187.9930  176.2550  144.6550 C   0  0  0  0  0  0  0  0  0  0  0  0
  187.0270  177.6460  140.5210 C   0  0  0  0  0  1  0  0  0  0  0  0
  191.0700  175.2360  146.6170 C   0  0  2  0  0  3  0  0  0  0  0  0
  185.5350  177.2020  143.9300 C   0  0  0  0  0  0  0  0  0  0  0  0
  189.6660  175.6610  146.2390 C   0  0  0  0  0  0  0  0  0  0  0  0
  191.7920  176.4310  147.2290 C   0  0  0  0  0  1  0  0  0  0  0  0
  191.1480  173.5240  144.7550 C   0  0  0  0  0  2  0  0  0  0  0  0
  187.5270  176.4180  146.9570 N   0  0  0  0  0  0  0  0  0  0  0  0
  187.7520  176.2980  143.3650 C   0  0  0  0  0  0  0  0  0  0  0  0
  190.2900  173.9800  143.5500 C   0  0  2  0  0  3  0  0  0  0  0  0
  188.7690  175.9820  147.2300 N   0  0  0  0  0  0  0  0  0  0  0  0
  191.8950  174.6680  145.4500 C   0  0  2  0  0  3  0  0  0  0  0  0
  186.3670  176.5650  142.8400 C   0  0  2  0  0  3  0  0  0  0  0  0
  185.0020  178.3120  143.4440 C   0  0  0  0  0  0  0  0  0  0  0  0
  189.2450  175.8130  144.9140 C   0  0  0  0  0  0  0  0  0  0  0  0
  188.8590  175.7770  142.6260 N   0  0  0  0  0  2  0  0  0  0  0  0
  185.4780  178.5990  142.1360 N   0  0  0  0  0  0  0  0  0  0  0  0
  184.3820  179.3030  144.2580 N   0  0  0  0  0  1  0  0  0  0  0  0
  185.8770  177.0350  145.3720 C   0  0  0  0  0  3  0  0  0  0  0  0
  193.1750  174.2060  145.9260 N   0  0  0  0  0  0  0  0  0  0  0  0
  194.2440  174.4710  145.2650 C   0  0  0  0  0  3  0  0  0  0  0  0
  195.5710  174.0090  145.7630 C   0  0  0  0  0  2  0  0  0  0  0  0
  196.5950  174.4610  144.8930 O   0  0  0  0  0  0  0  0  0  0  0  0
  196.5370  173.0150  143.0920 N   0  0  0  0  0  0  0  0  0  0  0  0
  197.0520  176.7930  142.8220 C   0  0  0  0  0  2  0  0  0  0  0  0
  196.9780  171.9150  139.0280 C   0  0  0  0  0  3  0  0  0  0  0  0
  195.6310  176.3550  142.4970 C   0  0  0  0  0  2  0  0  0  0  0  0
  196.6350  170.9500  139.9860 C   0  0  0  0  0  3  0  0  0  0  0  0
  196.9380  173.6230  140.7450 C   0  0  0  0  0  0  0  0  0  0  0  0
  196.4760  171.3120  141.3250 C   0  0  0  0  0  3  0  0  0  0  0  0
  196.6300  172.6480  141.7080 C   0  0  0  0  0  0  0  0  0  0  0  0
  196.6210  174.2420  143.5090 C   0  0  0  0  0  0  0  0  0  0  0  0
  196.7600  175.3510  142.4700 C   0  0  0  0  0  0  0  0  0  0  0  0
  197.1300  173.2540  139.4090 C   0  0  0  0  0  3  0  0  0  0  0  0
  197.0740  174.9560  141.1360 O   0  0  0  0  0  0  0  0  0  0  0  0
  190.9440  173.7380  142.3170 O   0  0  0  0  0  0  0  0  0  0  0  0
  193.2740  173.7750  142.0300 O   0  0  0  0  0  0  0  0  0  0  0  0
  192.7470  174.3770  140.8660 C   0  0  2  0  0  3  0  0  0  0  0  0
  192.1020  174.5460  142.2000 C   0  0  1  0  0  3  0  0  0  0  0  0
  192.1380  173.3900  140.0780 O   0  0  0  0  0  0  0  0  0  0  0  0
  193.2010  172.6040  139.6340 C   0  0  0  0  0  2  0  0  0  0  0  0
  192.6860  171.2660  139.1350 C   0  0  0  0  0  2  0  0  0  0  0  0
  191.5260  171.4710  138.1580 C   0  0  2  0  0  3  0  0  0  0  0  0
  189.6960  169.8230  137.5130 C   0  0  0  0  0  1  0  0  0  0  0  0
  190.2130  170.7880  138.5730 C   0  0  2  0  0  3  0  0  0  0  0  0
  189.2290  171.6970  139.0650 O   0  0  0  0  0  0  0  0  0  0  0  0
  188.4060  173.9040  139.3060 C   0  0  0  0  0  2  0  0  0  0  0  0
  189.2450  173.0530  138.7300 C   0  0  0  0  0  3  0  0  0  0  0  0
  191.9000  171.1470  136.7030 C   0  0  2  0  0  3  0  0  0  0  0  0
  192.8580  168.9860  135.7790 C   0  0  0  0  0  1  0  0  0  0  0  0
  193.1690  170.2750  136.5250 C   0  0  0  0  0  3  0  0  0  0  0  0
  194.3250  171.0110  135.8620 C   0  0  0  0  0  1  0  0  0  0  0  0
  191.7940  172.3540  135.8080 C   0  0  0  0  0  0  0  0  0  0  0  0
  191.6770  172.1830  134.5630 O   0  0  0  0  0  0  0  0  0  0  0  0
  191.7880  173.6440  136.3410 O   0  0  0  0  0  0  0  0  0  0  0  0
  190.9480  174.6620  135.8130 C   0  0  0  0  0  1  0  0  0  0  0  0
  1 20  2  0  0  0  0
  2 11  1  0  0  0  0
  3 19  1  6  0  0  0
  3 18  1  0  0  0  0
  4 18  1  0  0  0  0
  4  2  1  0  0  0  0
  5  1  1  0  0  0  0
  6  9  1  6  0  0  0
  7 22  1  0  0  0  0
  8  6  1  0  0  0  0
  8 14  1  0  0  0  0
 10 15  1  0  0  0  0
 11 14  2  0  0  0  0
 12  4  2  0  0  0  0
 13 39  1  6  0  0  0
 13  3  1  0  0  0  0
 13 10  1  0  0  0  0
 15 23  1  1  0  0  0
 15  6  1  0  0  0  0
 16  1  1  6  0  0  0
 16 12  1  0  0  0  0
 16  7  1  0  0  0  0
 17  7  2  0  0  0  0
 17 21  1  0  0  0  0
 18  8  2  0  0  0  0
 19 12  1  0  0  0  0
 20 17  1  0  0  0  0
 22  2  2  0  0  0  0
 24 25  1  0  0  0  0
 24 23  2  0  0  0  0
 26 25  1  0  0  0  0
 27 35  2  0  0  0  0
 29 37  2  0  0  0  0
 29 31  1  0  0  0  0
 30 28  1  0  0  0  0
 31 33  2  0  0  0  0
 32 38  1  0  0  0  0
 32 34  2  0  0  0  0
 33 34  1  0  0  0  0
 34 27  1  0  0  0  0
 35 26  1  0  0  0  0
 36 30  1  0  0  0  0
 36 28  1  0  0  0  0
 36 35  1  0  0  0  0
 37 32  1  0  0  0  0
 38 36  1  0  0  0  0
 40 42  1  0  0  0  0
 41 43  1  6  0  0  0
 41 40  1  0  0  0  0
 41 42  1  0  0  0  0
 42 39  1  6  0  0  0
 44 43  1  0  0  0  0
 45 44  1  0  0  0  0
 46 48  1  0  0  0  0
 46 45  1  1  0  0  0
 48 47  1  6  0  0  0
 48 49  1  0  0  0  0
 51 49  1  0  0  0  0
 51 50  2  0  0  0  0
 52 56  1  6  0  0  0
 52 46  1  0  0  0  0
 53 54  1  0  0  0  0
 54 52  1  0  0  0  0
 55 54  1  0  0  0  0
 56 58  1  0  0  0  0
 57 56  2  0  0  0  0
 59 58  1  0  0  0  0
M  END
>  <MODEL>
5

>  <REMARK>
 VINA RESULT:      -6.8      2.302      6.859
  Name = 
  17 active torsions:
  status: ('A' for Active; 'I' for Inactive)
    1  A    between atoms: O_3  and  C_44
    2  A    between atoms: C_4  and  O_26
    3  A    between atoms: C_4  and  C_35
    4  A    between atoms: O_7  and  C_13
    5  A    between atoms: O_7  and  C_57
    6  A    between atoms: C_13  and  C_27
    7  A    between atoms: C_14  and  C_27
    8  A    between atoms: C_14  and  C_44
    9  A    between atoms: C_14  and  C_53
   10  A    between atoms: C_16  and  O_26
   11  A    between atoms: C_18  and  O_50
   12  A    between atoms: C_27  and  C_35
   13  A    between atoms: O_31  and  C_38
   14  A    between atoms: O_31  and  C_51
   15  A    between atoms: C_36  and  O_50
   16  A    between atoms: N_42  and  C_43
   17  A    between atoms: C_51  and  C_54
                            x       y       z     vdW  Elec       q    Type
                         _______ _______ _______ _____ _____    ______ ____

>  <TORSDO>
F 17

$$$$
=
 OpenBabel11042419113D

 59 67  0  0  1  0  0  0  0  0999 V2000
  195.0700  170.9690  142.4690 C   0  0  0  0  0  0  0  0  0  0  0  0
  195.6300  174.0540  145.1070 C   0  0  0  0  0  0  0  0  0  0  0  0
  192.2360  174.3460  143.7770 C   0  0  2  0  0  3  0  0  0  0  0  0
  194.4270  173.9220  144.4290 C   0  0  0  0  0  0  0  0  0  0  0  0
  193.9270  170.4130  141.7090 C   0  0  0  0  0  1  0  0  0  0  0  0
  192.2000  176.3260  146.3320 C   0  0  2  0  0  3  0  0  0  0  0  0
  196.5040  172.3370  143.6330 C   0  0  0  0  0  0  0  0  0  0  0  0
  193.3960  175.5360  145.8410 C   0  0  0  0  0  0  0  0  0  0  0  0
  191.7810  175.7780  147.6910 C   0  0  0  0  0  1  0  0  0  0  0  0
  191.4150  176.7760  143.9690 C   0  0  0  0  0  2  0  0  0  0  0  0
  195.6750  174.9280  146.1530 N   0  0  0  0  0  0  0  0  0  0  0  0
  194.2000  173.1620  143.3830 C   0  0  0  0  0  0  0  0  0  0  0  0
  191.8110  175.6150  143.0250 C   0  0  2  0  0  3  0  0  0  0  0  0
  194.5940  175.6430  146.5060 N   0  0  0  0  0  0  0  0  0  0  0  0
  191.0000  176.3180  145.3720 C   0  0  2  0  0  3  0  0  0  0  0  0
  195.3220  172.4290  142.6960 C   0  0  0  0  0  0  0  0  0  0  0  0
  196.8710  171.0670  143.7080 C   0  0  0  0  0  0  0  0  0  0  0  0
  193.3310  174.6370  144.7720 C   0  0  0  0  0  0  0  0  0  0  0  0
  192.8870  173.3900  142.8660 N   0  0  0  0  0  2  0  0  0  0  0  0
  195.9760  170.2160  143.0050 N   0  0  0  0  0  2  0  0  0  0  0  0
  197.7700  170.5700  144.6940 N   0  0  0  0  0  1  0  0  0  0  0  0
  196.6840  173.2970  144.7590 C   0  0  0  0  0  3  0  0  0  0  0  0
  189.9530  177.1700  145.8800 N   0  0  0  0  0  0  0  0  0  0  0  0
  188.8570  176.6590  146.3120 C   0  0  0  0  0  3  0  0  0  0  0  0
  187.7800  177.5350  146.8540 C   0  0  0  0  0  2  0  0  0  0  0  0
  187.4270  178.5150  145.8910 O   0  0  0  0  0  0  0  0  0  0  0  0
  186.8270  178.2130  143.6800 N   0  0  0  0  0  0  0  0  0  0  0  0
  184.3510  178.6860  146.5540 C   0  0  0  0  0  2  0  0  0  0  0  0
  184.1480  178.0990  140.4050 C   0  0  0  0  0  3  0  0  0  0  0  0
  184.5020  177.2340  146.1220 C   0  0  0  0  0  2  0  0  0  0  0  0
  185.5190  177.8900  140.2010 C   0  0  0  0  0  3  0  0  0  0  0  0
  184.5390  178.2920  142.7880 C   0  0  0  0  0  0  0  0  0  0  0  0
  186.4030  177.9130  141.2810 C   0  0  0  0  0  3  0  0  0  0  0  0
  185.9160  178.1180  142.5760 C   0  0  0  0  0  0  0  0  0  0  0  0
  186.4380  178.3530  144.9120 C   0  0  0  0  0  0  0  0  0  0  0  0
  184.9400  178.3490  145.2020 C   0  0  0  0  0  0  0  0  0  0  0  0
  183.6570  178.3000  141.7020 C   0  0  0  0  0  3  0  0  0  0  0  0
  184.0620  178.4790  144.0860 O   0  0  0  0  0  0  0  0  0  0  0  0
  190.7580  175.2720  142.1420 O   0  0  0  0  0  0  0  0  0  0  0  0
  188.5260  174.6940  142.5880 O   0  0  0  0  0  0  0  0  0  0  0  0
  189.0090  173.6780  141.7340 C   0  0  2  0  0  3  0  0  0  0  0  0
  189.8840  174.3360  142.7470 C   0  0  1  0  0  3  0  0  0  0  0  0
  189.1650  174.2050  140.4440 O   0  0  0  0  0  0  0  0  0  0  0  0
  188.1120  173.6490  139.7180 C   0  0  0  0  0  2  0  0  0  0  0  0
  188.6520  172.7960  138.5840 C   0  0  0  0  0  2  0  0  0  0  0  0
  189.7860  173.5260  137.8620 C   0  0  2  0  0  3  0  0  0  0  0  0
  190.5780  174.6110  135.6990 C   0  0  0  0  0  1  0  0  0  0  0  0
  189.3770  174.1910  136.5370 C   0  0  2  0  0  3  0  0  0  0  0  0
  188.3870  175.2080  136.6920 O   0  0  0  0  0  0  0  0  0  0  0  0
  187.8150  177.1210  135.4210 C   0  0  0  0  0  2  0  0  0  0  0  0
  187.7680  175.8060  135.5930 C   0  0  0  0  0  3  0  0  0  0  0  0
  191.0480  172.6640  137.6980 C   0  0  2  0  0  3  0  0  0  0  0  0
  190.6630  170.5930  136.2830 C   0  0  0  0  0  1  0  0  0  0  0  0
  190.8070  171.1320  137.6980 C   0  0  0  0  0  3  0  0  0  0  0  0
  191.8640  170.3500  138.4640 C   0  0  0  0  0  1  0  0  0  0  0  0
  192.1850  173.1560  138.5540 C   0  0  0  0  0  0  0  0  0  0  0  0
  191.9450  173.5190  139.7390 O   0  0  0  0  0  0  0  0  0  0  0  0
  193.4930  173.1810  138.0660 O   0  0  0  0  0  0  0  0  0  0  0  0
  194.5860  172.7160  138.8470 C   0  0  0  0  0  1  0  0  0  0  0  0
  1 16  2  0  0  0  0
  1 20  1  0  0  0  0
  2 11  1  0  0  0  0
  3 19  1  6  0  0  0
  3 18  1  0  0  0  0
  4 18  1  0  0  0  0
  4  2  1  0  0  0  0
  5  1  1  0  0  0  0
  6  9  1  1  0  0  0
  7 17  2  0  0  0  0
  7 22  1  0  0  0  0
  8  6  1  0  0  0  0
  8 14  1  0  0  0  0
 10 15  1  0  0  0  0
 11 14  2  0  0  0  0
 12  4  2  0  0  0  0
 13 39  1  6  0  0  0
 13  3  1  0  0  0  0
 13 10  1  0  0  0  0
 15 23  1  1  0  0  0
 15  6  1  0  0  0  0
 16 12  1  0  0  0  0
 16  7  1  0  0  0  0
 17 21  1  0  0  0  0
 18  8  2  0  0  0  0
 19 12  1  0  0  0  0
 20 17  1  0  0  0  0
 22  2  2  0  0  0  0
 23 24  2  0  0  0  0
 24 25  1  0  0  0  0
 26 25  1  0  0  0  0
 27 35  2  0  0  0  0
 29 37  1  0  0  0  0
 30 28  1  0  0  0  0
 31 29  2  0  0  0  0
 31 33  1  0  0  0  0
 32 38  1  0  0  0  0
 33 34  2  0  0  0  0
 34 32  1  0  0  0  0
 34 27  1  0  0  0  0
 35 36  1  0  0  0  0
 35 26  1  0  0  0  0
 36 30  1  0  0  0  0
 36 28  1  0  0  0  0
 37 32  2  0  0  0  0
 38 36  1  0  0  0  0
 40 42  1  0  0  0  0
 41 43  1  6  0  0  0
 41 40  1  0  0  0  0
 41 42  1  0  0  0  0
 42 39  1  6  0  0  0
 44 43  1  0  0  0  0
 45 44  1  0  0  0  0
 46 45  1  6  0  0  0
 48 47  1  1  0  0  0
 48 49  1  0  0  0  0
 48 46  1  0  0  0  0
 50 51  2  0  0  0  0
 51 49  1  0  0  0  0
 52 54  1  1  0  0  0
 52 46  1  0  0  0  0
 52 56  1  0  0  0  0
 53 54  1  0  0  0  0
 54 55  1  0  0  0  0
 56 57  2  0  0  0  0
 58 56  1  0  0  0  0
 58 59  1  0  0  0  0
M  END
>  <MODEL>
6

>  <REMARK>
 VINA RESULT:      -6.7      2.695      9.152
  Name = 
  17 active torsions:
  status: ('A' for Active; 'I' for Inactive)
    1  A    between atoms: O_3  and  C_44
    2  A    between atoms: C_4  and  O_26
    3  A    between atoms: C_4  and  C_35
    4  A    between atoms: O_7  and  C_13
    5  A    between atoms: O_7  and  C_57
    6  A    between atoms: C_13  and  C_27
    7  A    between atoms: C_14  and  C_27
    8  A    between atoms: C_14  and  C_44
    9  A    between atoms: C_14  and  C_53
   10  A    between atoms: C_16  and  O_26
   11  A    between atoms: C_18  and  O_50
   12  A    between atoms: C_27  and  C_35
   13  A    between atoms: O_31  and  C_38
   14  A    between atoms: O_31  and  C_51
   15  A    between atoms: C_36  and  O_50
   16  A    between atoms: N_42  and  C_43
   17  A    between atoms: C_51  and  C_54
                            x       y       z     vdW  Elec       q    Type
                         _______ _______ _______ _____ _____    ______ ____

>  <TORSDO>
F 17

$$$$
=
 OpenBabel11042419113D

 59 67  0  0  1  0  0  0  0  0999 V2000
  186.1830  177.7410  146.3810 C   0  0  0  0  0  0  0  0  0  0  0  0
  186.7320  177.5810  142.3220 C   0  0  0  0  0  0  0  0  0  0  0  0
  189.0710  175.2180  143.8430 C   0  0  2  0  0  3  0  0  0  0  0  0
  187.5050  176.7950  143.1650 C   0  0  0  0  0  0  0  0  0  0  0  0
  186.6690  176.9750  147.5510 C   0  0  0  0  0  1  0  0  0  0  0  0
  189.1100  174.3870  140.7190 C   0  0  2  0  0  3  0  0  0  0  0  0
  185.9430  178.7190  144.3150 C   0  0  0  0  0  0  0  0  0  0  0  0
  188.3170  175.5290  141.3230 C   0  0  0  0  0  0  0  0  0  0  0  0
  188.1330  173.3290  140.2200 C   0  0  0  0  0  1  0  0  0  0  0  0
  191.0640  174.8070  142.2700 C   0  0  0  0  0  2  0  0  0  0  0  0
  186.7680  177.3040  140.9880 N   0  0  0  0  0  0  0  0  0  0  0  0
  187.6250  176.9310  144.4660 C   0  0  0  0  0  0  0  0  0  0  0  0
  190.5820  175.3810  143.6240 C   0  0  2  0  0  3  0  0  0  0  0  0
  187.5350  176.3110  140.5060 N   0  0  0  0  0  0  0  0  0  0  0  0
  190.1270  173.7480  141.6780 C   0  0  2  0  0  3  0  0  0  0  0  0
  187.0130  178.1030  145.1860 C   0  0  0  0  0  0  0  0  0  0  0  0
  184.8300  178.8020  145.0270 C   0  0  0  0  0  0  0  0  0  0  0  0
  188.2830  175.7940  142.6950 C   0  0  0  0  0  0  0  0  0  0  0  0
  188.6150  176.0360  144.9790 N   0  0  0  0  0  2  0  0  0  0  0  0
  184.9680  178.1810  146.2980 N   0  0  0  0  0  2  0  0  0  0  0  0
  183.5550  179.0800  144.4560 N   0  0  0  0  0  1  0  0  0  0  0  0
  185.9420  178.5400  142.8340 C   0  0  0  0  0  3  0  0  0  0  0  0
  190.8940  172.7400  140.9890 N   0  0  0  0  0  0  0  0  0  0  0  0
  191.4270  172.9990  139.8500 C   0  0  0  0  0  3  0  0  0  0  0  0
  192.2340  171.9650  139.1430 C   0  0  0  0  0  2  0  0  0  0  0  0
  192.0400  172.0770  137.7430 O   0  0  0  0  0  0  0  0  0  0  0  0
  193.3430  173.7480  136.8190 N   0  0  0  0  0  0  0  0  0  0  0  0
  189.5200  173.7020  136.7710 C   0  0  0  0  0  2  0  0  0  0  0  0
  194.0610  177.5130  135.0240 C   0  0  0  0  0  3  0  0  0  0  0  0
  190.1440  173.2670  135.4530 C   0  0  0  0  0  2  0  0  0  0  0  0
  195.1340  176.6740  135.3540 C   0  0  0  0  0  3  0  0  0  0  0  0
  192.5100  175.8210  135.7970 C   0  0  0  0  0  0  0  0  0  0  0  0
  194.9000  175.4260  135.9340 C   0  0  0  0  0  3  0  0  0  0  0  0
  193.5880  174.9980  136.1600 C   0  0  0  0  0  0  0  0  0  0  0  0
  192.1500  173.2690  137.0150 C   0  0  0  0  0  0  0  0  0  0  0  0
  190.9600  174.0450  136.4570 C   0  0  0  0  0  0  0  0  0  0  0  0
  192.7460  177.0850  135.2450 C   0  0  0  0  0  3  0  0  0  0  0  0
  191.2040  175.3770  136.0110 O   0  0  0  0  0  0  0  0  0  0  0  0
  191.2540  174.7840  144.7190 O   0  0  0  0  0  0  0  0  0  0  0  0
  192.6630  175.2160  146.5470 O   0  0  0  0  0  0  0  0  0  0  0  0
  193.5120  175.1960  145.4190 C   0  0  2  0  0  3  0  0  0  0  0  0
  192.1170  175.7160  145.3430 C   0  0  1  0  0  3  0  0  0  0  0  0
  193.6350  173.8750  144.9650 O   0  0  0  0  0  0  0  0  0  0  0  0
  194.7810  173.3990  145.6020 C   0  0  0  0  0  2  0  0  0  0  0  0
  195.7700  172.8790  144.5750 C   0  0  0  0  0  2  0  0  0  0  0  0
  195.0350  172.3940  143.3240 C   0  0  2  0  0  3  0  0  0  0  0  0
  194.0370  170.4430  142.0280 C   0  0  0  0  0  1  0  0  0  0  0  0
  194.6500  170.9060  143.3440 C   0  0  2  0  0  3  0  0  0  0  0  0
  193.9060  170.5260  144.5020 O   0  0  0  0  0  0  0  0  0  0  0  0
  195.0200  169.6430  146.3950 C   0  0  0  0  0  2  0  0  0  0  0  0
  194.2910  169.4490  145.3030 C   0  0  0  0  0  3  0  0  0  0  0  0
  195.7520  172.7770  142.0180 C   0  0  2  0  0  3  0  0  0  0  0  0
  197.9350  171.6070  141.4670 C   0  0  0  0  0  1  0  0  0  0  0  0
  197.2990  172.8320  142.1060 C   0  0  0  0  0  3  0  0  0  0  0  0
  197.8960  174.1080  141.5290 C   0  0  0  0  0  1  0  0  0  0  0  0
  195.0850  173.9360  141.3250 C   0  0  0  0  0  0  0  0  0  0  0  0
  194.8920  173.8720  140.0790 O   0  0  0  0  0  0  0  0  0  0  0  0
  194.6540  175.0510  142.0440 O   0  0  0  0  0  0  0  0  0  0  0  0
  194.6770  176.3550  141.4780 C   0  0  0  0  0  1  0  0  0  0  0  0
  1  5  1  0  0  0  0
  2 22  2  0  0  0  0
  2  4  1  0  0  0  0
  3 18  1  6  0  0  0
  3 19  1  0  0  0  0
  4 12  2  0  0  0  0
  6  9  1  1  0  0  0
  6  8  1  0  0  0  0
  6 15  1  0  0  0  0
  7 17  2  0  0  0  0
  7 16  1  0  0  0  0
  8 18  2  0  0  0  0
 10 13  1  0  0  0  0
 11  2  1  0  0  0  0
 12 19  1  0  0  0  0
 12 16  1  0  0  0  0
 13  3  1  0  0  0  0
 13 39  1  1  0  0  0
 14 11  2  0  0  0  0
 14  8  1  0  0  0  0
 15 23  1  6  0  0  0
 15 10  1  0  0  0  0
 16  1  2  0  0  0  0
 17 20  1  0  0  0  0
 18  4  1  0  0  0  0
 20  1  1  0  0  0  0
 21 17  1  0  0  0  0
 22  7  1  0  0  0  0
 24 23  2  0  0  0  0
 25 24  1  0  0  0  0
 26 25  1  0  0  0  0
 27 35  2  0  0  0  0
 29 37  2  0  0  0  0
 29 31  1  0  0  0  0
 30 36  1  0  0  0  0
 30 28  1  0  0  0  0
 31 33  2  0  0  0  0
 32 38  1  0  0  0  0
 32 34  2  0  0  0  0
 33 34  1  0  0  0  0
 34 27  1  0  0  0  0
 35 26  1  0  0  0  0
 36 28  1  0  0  0  0
 36 35  1  0  0  0  0
 37 32  1  0  0  0  0
 38 36  1  0  0  0  0
 41 43  1  6  0  0  0
 41 40  1  0  0  0  0
 42 39  1  6  0  0  0
 42 41  1  0  0  0  0
 42 40  1  0  0  0  0
 43 44  1  0  0  0  0
 45 44  1  0  0  0  0
 46 48  1  0  0  0  0
 46 45  1  1  0  0  0
 48 47  1  6  0  0  0
 48 49  1  0  0  0  0
 49 51  1  0  0  0  0
 51 50  2  0  0  0  0
 52 56  1  1  0  0  0
 52 54  1  0  0  0  0
 52 46  1  0  0  0  0
 53 54  1  0  0  0  0
 55 54  1  0  0  0  0
 56 58  1  0  0  0  0
 57 56  2  0  0  0  0
 59 58  1  0  0  0  0
M  END
>  <MODEL>
7

>  <REMARK>
 VINA RESULT:      -6.6      1.338      2.954
  Name = 
  17 active torsions:
  status: ('A' for Active; 'I' for Inactive)
    1  A    between atoms: O_3  and  C_44
    2  A    between atoms: C_4  and  O_26
    3  A    between atoms: C_4  and  C_35
    4  A    between atoms: O_7  and  C_13
    5  A    between atoms: O_7  and  C_57
    6  A    between atoms: C_13  and  C_27
    7  A    between atoms: C_14  and  C_27
    8  A    between atoms: C_14  and  C_44
    9  A    between atoms: C_14  and  C_53
   10  A    between atoms: C_16  and  O_26
   11  A    between atoms: C_18  and  O_50
   12  A    between atoms: C_27  and  C_35
   13  A    between atoms: O_31  and  C_38
   14  A    between atoms: O_31  and  C_51
   15  A    between atoms: C_36  and  O_50
   16  A    between atoms: N_42  and  C_43
   17  A    between atoms: C_51  and  C_54
                            x       y       z     vdW  Elec       q    Type
                         _______ _______ _______ _____ _____    ______ ____

>  <TORSDO>
F 17

$$$$
=
 OpenBabel11042419113D

 59 67  0  0  1  0  0  0  0  0999 V2000
  195.2310  170.8980  142.5310 C   0  0  0  0  0  0  0  0  0  0  0  0
  195.6940  174.0290  145.1340 C   0  0  0  0  0  0  0  0  0  0  0  0
  192.2960  174.2050  143.7960 C   0  0  2  0  0  3  0  0  0  0  0  0
  194.4970  173.8540  144.4560 C   0  0  0  0  0  0  0  0  0  0  0  0
  194.1060  170.3000  141.7760 C   0  0  0  0  0  1  0  0  0  0  0  0
  192.1960  176.2130  146.3270 C   0  0  2  0  0  3  0  0  0  0  0  0
  196.6210  172.3210  143.6810 C   0  0  0  0  0  0  0  0  0  0  0  0
  193.4150  175.4520  145.8470 C   0  0  0  0  0  0  0  0  0  0  0  0
  191.7910  175.6680  147.6920 C   0  0  0  0  0  1  0  0  0  0  0  0
  191.4030  176.6110  143.9580 C   0  0  0  0  0  2  0  0  0  0  0  0
  195.7120  174.9150  146.1700 N   0  0  0  0  0  0  0  0  0  0  0  0
  194.2950  173.0750  143.4180 C   0  0  0  0  0  0  0  0  0  0  0  0
  191.8340  175.4510  143.0290 C   0  0  2  0  0  3  0  0  0  0  0  0
  194.6090  175.6030  146.5130 N   0  0  0  0  0  0  0  0  0  0  0  0
  190.9980  176.1580  145.3650 C   0  0  2  0  0  3  0  0  0  0  0  0
  195.4380  172.3680  142.7410 C   0  0  0  0  0  0  0  0  0  0  0  0
  197.0250  171.0640  143.7710 C   0  0  0  0  0  0  0  0  0  0  0  0
  193.3790  174.5400  144.7880 C   0  0  0  0  0  0  0  0  0  0  0  0
  192.9760  173.2580  142.8970 N   0  0  0  0  0  2  0  0  0  0  0  0
  196.1570  170.1780  143.0770 N   0  0  0  0  0  2  0  0  0  0  0  0
  197.9380  170.6050  144.7650 N   0  0  0  0  0  1  0  0  0  0  0  0
  196.7710  173.3000  144.7970 C   0  0  0  0  0  3  0  0  0  0  0  0
  189.9250  176.9840  145.8620 N   0  0  0  0  0  0  0  0  0  0  0  0
  188.8860  176.4450  146.3900 C   0  0  0  0  0  3  0  0  0  0  0  0
  187.7830  177.2970  146.9190 C   0  0  0  0  0  2  0  0  0  0  0  0
  187.4760  178.3200  145.9870 O   0  0  0  0  0  0  0  0  0  0  0  0
  186.8910  178.0960  143.7630 N   0  0  0  0  0  0  0  0  0  0  0  0
  184.4020  178.6130  146.6180 C   0  0  0  0  0  2  0  0  0  0  0  0
  184.2500  178.1780  140.4550 C   0  0  0  0  0  3  0  0  0  0  0  0
  184.4930  177.1670  146.1540 C   0  0  0  0  0  2  0  0  0  0  0  0
  185.6130  177.9120  140.2620 C   0  0  0  0  0  3  0  0  0  0  0  0
  184.6200  178.2980  142.8460 C   0  0  0  0  0  0  0  0  0  0  0  0
  186.4840  177.8710  141.3530 C   0  0  0  0  0  3  0  0  0  0  0  0
  185.9900  178.0670  142.6460 C   0  0  0  0  0  0  0  0  0  0  0  0
  186.4930  178.2250  144.9930 C   0  0  0  0  0  0  0  0  0  0  0  0
  184.9920  178.2810  145.2650 C   0  0  0  0  0  0  0  0  0  0  0  0
  183.7530  178.3710  141.7500 C   0  0  0  0  0  3  0  0  0  0  0  0
  184.1350  178.4760  144.1420 O   0  0  0  0  0  0  0  0  0  0  0  0
  190.7930  175.0670  142.1480 O   0  0  0  0  0  0  0  0  0  0  0  0
  188.5810  174.3650  142.5000 O   0  0  0  0  0  0  0  0  0  0  0  0
  189.1830  173.3330  141.7470 C   0  0  2  0  0  3  0  0  0  0  0  0
  189.9460  174.1130  142.7620 C   0  0  1  0  0  3  0  0  0  0  0  0
  189.3850  173.7860  140.4350 O   0  0  0  0  0  0  0  0  0  0  0  0
  189.6190  172.6210  139.7040 C   0  0  0  0  0  2  0  0  0  0  0  0
  190.9880  172.0590  140.0430 C   0  0  0  0  0  2  0  0  0  0  0  0
  191.8270  171.8950  138.7750 C   0  0  2  0  0  3  0  0  0  0  0  0
  194.3600  172.0720  138.5820 C   0  0  0  0  0  1  0  0  0  0  0  0
  193.0430  172.8310  138.6860 C   0  0  2  0  0  3  0  0  0  0  0  0
  193.0400  173.8640  139.6720 O   0  0  0  0  0  0  0  0  0  0  0  0
  194.6760  175.3200  140.5710 C   0  0  0  0  0  2  0  0  0  0  0  0
  193.8720  174.9810  139.5710 C   0  0  0  0  0  3  0  0  0  0  0  0
  190.9870  171.9340  137.4880 C   0  0  2  0  0  3  0  0  0  0  0  0
  189.8810  169.6510  137.5190 C   0  0  0  0  0  1  0  0  0  0  0  0
  190.8250  170.5730  136.7640 C   0  0  0  0  0  3  0  0  0  0  0  0
  190.3960  170.7040  135.3100 C   0  0  0  0  0  1  0  0  0  0  0  0
  191.3390  173.1110  136.6160 C   0  0  0  0  0  0  0  0  0  0  0  0
  190.8440  174.2400  136.8860 O   0  0  0  0  0  0  0  0  0  0  0  0
  192.2260  172.9720  135.5470 O   0  0  0  0  0  0  0  0  0  0  0  0
  193.3180  173.8650  135.3670 C   0  0  0  0  0  1  0  0  0  0  0  0
  1 16  2  0  0  0  0
  1 20  1  0  0  0  0
  2 11  1  0  0  0  0
  3 19  1  6  0  0  0
  3 18  1  0  0  0  0
  4 18  1  0  0  0  0
  4  2  1  0  0  0  0
  5  1  1  0  0  0  0
  6  9  1  1  0  0  0
  7 17  2  0  0  0  0
  7 22  1  0  0  0  0
  8  6  1  0  0  0  0
  8 14  1  0  0  0  0
 10 15  1  0  0  0  0
 11 14  2  0  0  0  0
 12  4  2  0  0  0  0
 13 39  1  6  0  0  0
 13  3  1  0  0  0  0
 13 10  1  0  0  0  0
 15 23  1  1  0  0  0
 15  6  1  0  0  0  0
 16 12  1  0  0  0  0
 16  7  1  0  0  0  0
 17 21  1  0  0  0  0
 18  8  2  0  0  0  0
 19 12  1  0  0  0  0
 20 17  1  0  0  0  0
 22  2  2  0  0  0  0
 23 24  2  0  0  0  0
 24 25  1  0  0  0  0
 26 25  1  0  0  0  0
 27 35  2  0  0  0  0
 29 37  1  0  0  0  0
 30 28  1  0  0  0  0
 31 29  2  0  0  0  0
 31 33  1  0  0  0  0
 32 38  1  0  0  0  0
 33 34  2  0  0  0  0
 34 32  1  0  0  0  0
 34 27  1  0  0  0  0
 35 36  1  0  0  0  0
 35 26  1  0  0  0  0
 36 30  1  0  0  0  0
 36 28  1  0  0  0  0
 37 32  2  0  0  0  0
 38 36  1  0  0  0  0
 40 42  1  0  0  0  0
 41 43  1  6  0  0  0
 41 40  1  0  0  0  0
 41 42  1  0  0  0  0
 42 39  1  6  0  0  0
 44 45  1  0  0  0  0
 44 43  1  0  0  0  0
 46 45  1  1  0  0  0
 48 47  1  1  0  0  0
 48 46  1  0  0  0  0
 48 49  1  0  0  0  0
 51 49  1  0  0  0  0
 51 50  2  0  0  0  0
 52 56  1  6  0  0  0
 52 46  1  0  0  0  0
 54 52  1  0  0  0  0
 54 53  1  0  0  0  0
 55 54  1  0  0  0  0
 56 57  2  0  0  0  0
 58 56  1  0  0  0  0
 59 58  1  0  0  0  0
M  END
>  <MODEL>
8

>  <REMARK>
 VINA RESULT:      -6.5      2.735      8.969
  Name = 
  17 active torsions:
  status: ('A' for Active; 'I' for Inactive)
    1  A    between atoms: O_3  and  C_44
    2  A    between atoms: C_4  and  O_26
    3  A    between atoms: C_4  and  C_35
    4  A    between atoms: O_7  and  C_13
    5  A    between atoms: O_7  and  C_57
    6  A    between atoms: C_13  and  C_27
    7  A    between atoms: C_14  and  C_27
    8  A    between atoms: C_14  and  C_44
    9  A    between atoms: C_14  and  C_53
   10  A    between atoms: C_16  and  O_26
   11  A    between atoms: C_18  and  O_50
   12  A    between atoms: C_27  and  C_35
   13  A    between atoms: O_31  and  C_38
   14  A    between atoms: O_31  and  C_51
   15  A    between atoms: C_36  and  O_50
   16  A    between atoms: N_42  and  C_43
   17  A    between atoms: C_51  and  C_54
                            x       y       z     vdW  Elec       q    Type
                         _______ _______ _______ _____ _____    ______ ____

>  <TORSDO>
F 17

$$$$
=
 OpenBabel11042419113D

 59 67  0  0  1  0  0  0  0  0999 V2000
  189.8100  175.6420  146.9110 C   0  0  0  0  0  0  0  0  0  0  0  0
  193.7790  175.9510  145.9380 C   0  0  0  0  0  0  0  0  0  0  0  0
  192.0440  174.5380  143.0460 C   0  0  2  0  0  3  0  0  0  0  0  0
  192.8740  175.4240  145.0280 C   0  0  0  0  0  0  0  0  0  0  0  0
  188.5610  175.3050  146.1900 C   0  0  0  0  0  1  0  0  0  0  0  0
  194.9120  175.4060  141.8330 C   0  0  2  0  0  3  0  0  0  0  0  0
  191.9990  175.8350  147.5830 C   0  0  0  0  0  0  0  0  0  0  0  0
  194.4840  175.5440  143.2800 C   0  0  0  0  0  0  0  0  0  0  0  0
  195.0760  176.8010  141.2410 C   0  0  0  0  0  1  0  0  0  0  0  0
  193.6910  173.2040  141.5890 C   0  0  0  0  0  2  0  0  0  0  0  0
  195.0220  176.2730  145.4810 N   0  0  0  0  0  0  0  0  0  0  0  0
  191.6500  175.0260  145.2870 C   0  0  0  0  0  0  0  0  0  0  0  0
  192.4450  173.1580  142.5060 C   0  0  2  0  0  3  0  0  0  0  0  0
  195.3610  176.0750  144.1950 N   0  0  0  0  0  0  0  0  0  0  0  0
  193.9490  174.5800  140.9650 C   0  0  2  0  0  3  0  0  0  0  0  0
  191.1320  174.9680  146.6990 C   0  0  0  0  0  0  0  0  0  0  0  0
  191.2100  176.6690  148.2410 C   0  0  0  0  0  0  0  0  0  0  0  0
  193.2010  175.2180  143.7320 C   0  0  0  0  0  0  0  0  0  0  0  0
  191.0640  174.4090  144.1380 N   0  0  0  0  0  2  0  0  0  0  0  0
  189.8590  176.5670  147.8150 N   0  0  0  0  0  2  0  0  0  0  0  0
  191.6940  177.8030  148.9570 N   0  0  0  0  0  1  0  0  0  0  0  0
  193.4020  176.1760  147.2080 C   0  0  0  0  0  3  0  0  0  0  0  0
  194.4870  174.4270  139.6360 N   0  0  0  0  0  0  0  0  0  0  0  0
  194.2750  173.3480  138.9720 C   0  0  0  0  0  3  0  0  0  0  0  0
  194.8150  173.1940  137.5920 C   0  0  0  0  0  2  0  0  0  0  0  0
  193.8130  173.5220  136.6440 O   0  0  0  0  0  0  0  0  0  0  0  0
  194.6620  175.4930  135.7860 N   0  0  0  0  0  0  0  0  0  0  0  0
  190.9490  174.8140  136.3910 C   0  0  0  0  0  2  0  0  0  0  0  0
  194.4810  179.5260  134.5140 C   0  0  0  0  0  3  0  0  0  0  0  0
  191.3590  174.6640  134.9330 C   0  0  0  0  0  2  0  0  0  0  0  0
  195.7050  178.8430  134.5170 C   0  0  0  0  0  3  0  0  0  0  0  0
  193.3630  177.5120  135.2640 C   0  0  0  0  0  0  0  0  0  0  0  0
  195.7660  177.5080  134.9240 C   0  0  0  0  0  3  0  0  0  0  0  0
  194.5960  176.8410  135.3010 C   0  0  0  0  0  0  0  0  0  0  0  0
  193.6100  174.8000  136.1060 C   0  0  0  0  0  0  0  0  0  0  0  0
  192.2370  175.4310  135.8920 C   0  0  0  0  0  0  0  0  0  0  0  0
  193.3070  178.8590  134.8880 C   0  0  0  0  0  3  0  0  0  0  0  0
  192.2000  176.8320  135.6270 O   0  0  0  0  0  0  0  0  0  0  0  0
  191.3240  172.6000  141.8440 O   0  0  0  0  0  0  0  0  0  0  0  0
  190.1770  172.4960  139.7980 O   0  0  0  0  0  0  0  0  0  0  0  0
  189.8690  173.7660  140.3340 C   0  0  2  0  0  3  0  0  0  0  0  0
  191.2020  173.1300  140.5370 C   0  0  1  0  0  3  0  0  0  0  0  0
  189.0050  173.6020  141.4260 O   0  0  0  0  0  0  0  0  0  0  0  0
  187.9620  174.4940  141.1750 C   0  0  0  0  0  2  0  0  0  0  0  0
  187.7570  175.4060  142.3710 C   0  0  0  0  0  2  0  0  0  0  0  0
  187.5740  176.8540  141.9130 C   0  0  2  0  0  3  0  0  0  0  0  0
  188.9900  178.9660  141.7770 C   0  0  0  0  0  1  0  0  0  0  0  0
  188.4220  177.8800  142.6820 C   0  0  2  0  0  3  0  0  0  0  0  0
  189.3810  177.2860  143.5570 O   0  0  0  0  0  0  0  0  0  0  0  0
  191.4370  178.4220  143.8480 C   0  0  0  0  0  2  0  0  0  0  0  0
  190.2540  178.0580  144.3260 C   0  0  0  0  0  3  0  0  0  0  0  0
  186.0990  177.2800  141.8370 C   0  0  2  0  0  3  0  0  0  0  0  0
  186.3520  177.3900  139.3140 C   0  0  0  0  0  1  0  0  0  0  0  0
  185.6900  178.0140  140.5340 C   0  0  0  0  0  3  0  0  0  0  0  0
  184.1850  178.1090  140.3350 C   0  0  0  0  0  1  0  0  0  0  0  0
  185.6210  177.8990  143.1240 C   0  0  0  0  0  0  0  0  0  0  0  0
  185.2980  179.1190  143.1320 O   0  0  0  0  0  0  0  0  0  0  0  0
  185.4990  177.1350  144.2860 O   0  0  0  0  0  0  0  0  0  0  0  0
  186.1250  177.5260  145.5010 C   0  0  0  0  0  1  0  0  0  0  0  0
  1 20  1  0  0  0  0
  2 22  2  0  0  0  0
  3 18  1  1  0  0  0
  3 19  1  0  0  0  0
  4 12  2  0  0  0  0
  4  2  1  0  0  0  0
  5  1  1  0  0  0  0
  6  9  1  6  0  0  0
  6  8  1  0  0  0  0
  7 17  2  0  0  0  0
  8 18  2  0  0  0  0
  8 14  1  0  0  0  0
 10 13  1  0  0  0  0
 11  2  1  0  0  0  0
 12 16  1  0  0  0  0
 13 39  1  6  0  0  0
 13  3  1  0  0  0  0
 14 11  2  0  0  0  0
 15 23  1  6  0  0  0
 15 10  1  0  0  0  0
 15  6  1  0  0  0  0
 16  1  2  0  0  0  0
 16  7  1  0  0  0  0
 17 21  1  0  0  0  0
 18  4  1  0  0  0  0
 19 12  1  0  0  0  0
 20 17  1  0  0  0  0
 22  7  1  0  0  0  0
 24 23  2  0  0  0  0
 25 24  1  0  0  0  0
 26 25  1  0  0  0  0
 27 35  2  0  0  0  0
 29 31  2  0  0  0  0
 29 37  1  0  0  0  0
 30 36  1  0  0  0  0
 30 28  1  0  0  0  0
 31 33  1  0  0  0  0
 32 34  1  0  0  0  0
 32 38  1  0  0  0  0
 33 34  2  0  0  0  0
 34 27  1  0  0  0  0
 35 26  1  0  0  0  0
 36 35  1  0  0  0  0
 36 28  1  0  0  0  0
 37 32  2  0  0  0  0
 38 36  1  0  0  0  0
 40 41  1  0  0  0  0
 40 42  1  0  0  0  0
 41 42  1  0  0  0  0
 41 43  1  1  0  0  0
 42 39  1  1  0  0  0
 44 43  1  0  0  0  0
 44 45  1  0  0  0  0
 46 45  1  1  0  0  0
 46 48  1  0  0  0  0
 48 47  1  6  0  0  0
 48 49  1  0  0  0  0
 49 51  1  0  0  0  0
 50 51  2  0  0  0  0
 52 54  1  6  0  0  0
 52 46  1  0  0  0  0
 52 56  1  0  0  0  0
 53 54  1  0  0  0  0
 55 54  1  0  0  0  0
 56 57  2  0  0  0  0
 56 58  1  0  0  0  0
 58 59  1  0  0  0  0
M  END
>  <MODEL>
9

>  <REMARK>
 VINA RESULT:      -6.5      3.055      7.228
  Name = 
  17 active torsions:
  status: ('A' for Active; 'I' for Inactive)
    1  A    between atoms: O_3  and  C_44
    2  A    between atoms: C_4  and  O_26
    3  A    between atoms: C_4  and  C_35
    4  A    between atoms: O_7  and  C_13
    5  A    between atoms: O_7  and  C_57
    6  A    between atoms: C_13  and  C_27
    7  A    between atoms: C_14  and  C_27
    8  A    between atoms: C_14  and  C_44
    9  A    between atoms: C_14  and  C_53
   10  A    between atoms: C_16  and  O_26
   11  A    between atoms: C_18  and  O_50
   12  A    between atoms: C_27  and  C_35
   13  A    between atoms: O_31  and  C_38
   14  A    between atoms: O_31  and  C_51
   15  A    between atoms: C_36  and  O_50
   16  A    between atoms: N_42  and  C_43
   17  A    between atoms: C_51  and  C_54
                            x       y       z     vdW  Elec       q    Type
                         _______ _______ _______ _____ _____    ______ ____

>  <TORSDO>
F 17

$$$$
