=
 OpenBabel11042415113D

 27 32  0  0  1  0  0  0  0  0999 V2000
  192.6360  173.0130  143.2300 C   0  0  0  0  0  0  0  0  0  0  0  0
  190.0000  176.6570  144.6370 C   0  0  1  0  0  0  0  0  0  0  0  0
  189.8800  176.2400  146.0980 C   0  0  0  0  0  2  0  0  0  0  0  0
  190.3280  177.9650  144.3610 C   0  0  0  0  0  2  0  0  0  0  0  0
  190.0630  173.3000  145.1110 C   0  0  0  0  0  1  0  0  0  0  0  0
  191.5390  174.9400  143.8570 N   0  0  1  0  0  0  0  0  0  0  0  0
  190.2780  175.6140  143.5650 C   0  0  0  0  0  2  0  0  0  0  0  0
  191.4550  173.9270  144.9450 C   0  0  1  0  0  0  0  0  0  0  0  0
  191.9190  174.5430  146.2650 C   0  0  0  0  0  2  0  0  0  0  0  0
  192.0120  174.2240  142.6710 C   0  0  0  0  0  2  0  0  0  0  0  0
  192.3400  172.8880  144.5670 O   0  0  0  0  0  0  0  0  0  0  0  0
  191.2030  175.8110  146.6740 C   0  0  0  0  0  0  0  0  0  0  0  0
  188.8910  177.5620  144.2380 N   0  0  0  0  0  0  0  0  0  0  0  0
  191.7290  176.5410  147.6520 C   0  0  0  0  0  2  0  0  0  0  0  0
  193.3770  172.1510  142.5530 C   0  0  0  0  0  2  0  0  0  0  0  0
  185.1500  178.4880  146.9200 C   0  0  0  0  0  3  0  0  0  0  0  0
  185.3370  178.2860  144.1250 C   0  0  1  0  0  3  0  0  0  0  0  0
  186.4950  178.0910  144.8700 C   0  0  0  0  0  0  0  0  0  0  0  0
  187.5210  177.8270  143.9570 C   0  0  0  0  0  0  0  0  0  0  0  0
  187.3430  177.7200  141.4630 N   0  0  0  0  0  0  0  0  0  0  0  0
  185.1050  178.1880  141.6010 C   0  0  0  0  0  3  0  0  0  0  0  0
  186.5290  178.1720  146.3670 C   0  0  0  0  0  3  0  0  0  0  0  0
  186.1920  177.9160  140.7510 C   0  0  0  0  0  3  0  0  0  0  0  0
  184.0660  178.6660  146.1380 C   0  0  0  0  0  3  0  0  0  0  0  0
  186.9140  177.8800  142.7220 C   0  0  0  0  0  0  0  0  0  0  0  0
  184.1520  178.5620  144.6620 C   0  0  0  0  0  3  0  0  0  0  0  0
  185.6380  178.1490  142.8250 N   0  0  0  0  0  0  0  0  0  0  0  0
  1 11  1  0  0  0  0
  2  7  1  6  0  0  0
  2  3  1  0  0  0  0
  3 12  1  0  0  0  0
  4  2  1  0  0  0  0
  6 10  1  6  0  0  0
  6  8  1  0  0  0  0
  7  6  1  0  0  0  0
  8  5  1  1  0  0  0
  8  9  1  0  0  0  0
  9 12  1  0  0  0  0
 10  1  1  0  0  0  0
 11  8  1  0  0  0  0
 12 14  2  0  0  0  0
 13  4  1  0  0  0  0
 13  2  1  0  0  0  0
 15  1  2  0  0  0  0
 17 26  1  6  0  0  0
 17 18  1  0  0  0  0
 18 22  1  0  0  0  0
 19 13  1  0  0  0  0
 19 18  2  0  0  0  0
 20 25  2  0  0  0  0
 21 27  1  0  0  0  0
 22 16  2  0  0  0  0
 23 20  1  0  0  0  0
 23 21  2  0  0  0  0
 24 16  1  0  0  0  0
 25 27  1  0  0  0  0
 25 19  1  0  0  0  0
 26 24  2  0  0  0  0
 27 17  1  0  0  0  0
M  END
>  <MODEL>
1

>  <REMARK>
 VINA RESULT:      -8.8      0.000      0.000
  Name = 
  1 active torsions:
  status: ('A' for Active; 'I' for Inactive)
    1  A    between atoms: C_5  and  N_23
                            x       y       z     vdW  Elec       q    Type
                         _______ _______ _______ _____ _____    ______ ____

>  <TORSDO>
F 1

$$$$
=
 OpenBabel11042415113D

 27 32  0  0  1  0  0  0  0  0999 V2000
  194.4170  176.0070  144.2000 C   0  0  0  0  0  0  0  0  0  0  0  0
  189.7760  175.3510  144.6870 C   0  0  1  0  0  0  0  0  0  0  0  0
  189.6660  174.1400  143.7680 C   0  0  0  0  0  2  0  0  0  0  0  0
  189.1560  175.2910  145.9160 C   0  0  0  0  0  2  0  0  0  0  0  0
  192.0400  175.3410  142.1630 C   0  0  0  0  0  1  0  0  0  0  0  0
  192.1930  175.6430  144.6790 N   0  0  1  0  0  0  0  0  0  0  0  0
  190.9200  176.3390  144.5170 C   0  0  0  0  0  2  0  0  0  0  0  0
  192.6010  174.8320  143.4980 C   0  0  1  0  0  0  0  0  0  0  0  0
  192.2100  173.3680  143.7130 C   0  0  0  0  0  2  0  0  0  0  0  0
  193.2690  176.6090  144.8990 C   0  0  0  0  0  2  0  0  0  0  0  0
  194.0110  174.9420  143.4310 O   0  0  0  0  0  0  0  0  0  0  0  0
  190.7500  173.1300  144.0330 C   0  0  0  0  0  0  0  0  0  0  0  0
  188.4710  176.0500  144.8220 N   0  0  0  0  0  0  0  0  0  0  0  0
  190.3980  171.9350  144.4940 C   0  0  0  0  0  2  0  0  0  0  0  0
  195.6700  176.4230  144.2840 C   0  0  0  0  0  2  0  0  0  0  0  0
  184.6910  178.0690  146.7420 C   0  0  0  0  0  3  0  0  0  0  0  0
  185.5500  178.0660  144.0680 C   0  0  2  0  0  3  0  0  0  0  0  0
  186.3230  177.3820  145.0000 C   0  0  0  0  0  0  0  0  0  0  0  0
  187.4050  176.8350  144.3010 C   0  0  0  0  0  0  0  0  0  0  0  0
  187.8850  177.0300  141.8530 N   0  0  0  0  0  0  0  0  0  0  0  0
  185.9920  178.2920  141.5810 C   0  0  0  0  0  3  0  0  0  0  0  0
  185.9740  177.3080  146.4560 C   0  0  0  0  0  3  0  0  0  0  0  0
  187.1090  177.7090  140.9550 C   0  0  0  0  0  3  0  0  0  0  0  0
  183.9890  178.7110  145.7870 C   0  0  0  0  0  3  0  0  0  0  0  0
  187.2110  177.2250  142.9940 C   0  0  0  0  0  0  0  0  0  0  0  0
  184.4310  178.7180  144.3740 C   0  0  0  0  0  3  0  0  0  0  0  0
  186.1260  177.9440  142.8630 N   0  0  0  0  0  0  0  0  0  0  0  0
  1 15  2  0  0  0  0
  1 10  1  0  0  0  0
  2  3  1  6  0  0  0
  2 13  1  0  0  0  0
  2  4  1  0  0  0  0
  3 12  1  0  0  0  0
  6  7  1  6  0  0  0
  6 10  1  0  0  0  0
  7  2  1  0  0  0  0
  8  5  1  6  0  0  0
  8  9  1  0  0  0  0
  8  6  1  0  0  0  0
  9 12  1  0  0  0  0
 11  8  1  0  0  0  0
 11  1  1  0  0  0  0
 12 14  2  0  0  0  0
 13  4  1  0  0  0  0
 17 26  1  6  0  0  0
 17 18  1  0  0  0  0
 18 22  1  0  0  0  0
 19 13  1  0  0  0  0
 19 18  2  0  0  0  0
 20 25  2  0  0  0  0
 21 27  1  0  0  0  0
 22 16  2  0  0  0  0
 23 21  2  0  0  0  0
 23 20  1  0  0  0  0
 24 16  1  0  0  0  0
 25 19  1  0  0  0  0
 26 24  2  0  0  0  0
 27 25  1  0  0  0  0
 27 17  1  0  0  0  0
M  END
>  <MODEL>
2

>  <REMARK>
 VINA RESULT:      -8.4      1.654      2.526
  Name = 
  1 active torsions:
  status: ('A' for Active; 'I' for Inactive)
    1  A    between atoms: C_5  and  N_23
                            x       y       z     vdW  Elec       q    Type
                         _______ _______ _______ _____ _____    ______ ____

>  <TORSDO>
F 1

$$$$
=
 OpenBabel11042415113D

 27 32  0  0  1  0  0  0  0  0999 V2000
  192.1220  173.0030  143.1410 C   0  0  0  0  0  0  0  0  0  0  0  0
  189.6910  176.6490  144.8730 C   0  0  1  0  0  0  0  0  0  0  0  0
  189.7580  176.2330  146.3380 C   0  0  0  0  0  2  0  0  0  0  0  0
  189.9830  177.9570  144.5570 C   0  0  0  0  0  2  0  0  0  0  0  0
  189.8110  173.2920  145.3360 C   0  0  0  0  0  1  0  0  0  0  0  0
  191.1160  174.9310  143.9020 N   0  0  1  0  0  0  0  0  0  0  0  0
  189.8290  175.6060  143.7740 C   0  0  0  0  0  2  0  0  0  0  0  0
  191.1700  173.9170  144.9920 C   0  0  1  0  0  0  0  0  0  0  0  0
  191.8000  174.5330  146.2430 C   0  0  0  0  0  2  0  0  0  0  0  0
  191.4330  174.2140  142.6660 C   0  0  0  0  0  2  0  0  0  0  0  0
  191.9990  172.8780  144.5050 O   0  0  0  0  0  0  0  0  0  0  0  0
  191.1430  175.8020  146.7390 C   0  0  0  0  0  0  0  0  0  0  0  0
  188.5410  177.5560  144.6190 N   0  0  0  0  0  0  0  0  0  0  0  0
  191.7910  176.5310  147.6420 C   0  0  0  0  0  2  0  0  0  0  0  0
  192.7700  172.1400  142.3750 C   0  0  0  0  0  2  0  0  0  0  0  0
  185.5880  178.0260  140.9990 C   0  0  0  0  0  3  0  0  0  0  0  0
  185.0760  178.2000  143.7550 C   0  0  0  0  0  0  0  0  0  0  0  0
  186.3810  177.9380  143.3510 C   0  0  0  0  0  0  0  0  0  0  0  0
  187.1470  177.8220  144.5150 C   0  0  0  0  0  0  0  0  0  0  0  0
  186.3560  178.0370  146.8800 N   0  0  0  0  0  0  0  0  0  0  0  0
  184.2260  178.4270  146.1330 C   0  0  0  0  0  3  0  0  0  0  0  0
  186.7850  177.8210  141.9110 C   0  0  0  0  0  2  0  0  0  0  0  0
  185.0660  178.2950  147.2530 C   0  0  0  0  0  3  0  0  0  0  0  0
  184.3460  178.2770  141.4590 C   0  0  0  0  0  3  0  0  0  0  0  0
  186.2530  178.0220  145.5450 C   0  0  0  0  0  0  0  0  0  0  0  0
  184.0630  178.3710  142.9100 C   0  0  0  0  0  3  0  0  0  0  0  0
  185.0450  178.2420  145.0950 N   0  0  0  0  0  0  0  0  0  0  0  0
  1 11  1  0  0  0  0
  2  7  1  6  0  0  0
  2  3  1  0  0  0  0
  3 12  1  0  0  0  0
  4 13  1  0  0  0  0
  4  2  1  0  0  0  0
  6 10  1  6  0  0  0
  6  8  1  0  0  0  0
  7  6  1  0  0  0  0
  8  5  1  1  0  0  0
  8  9  1  0  0  0  0
  9 12  1  0  0  0  0
 10  1  1  0  0  0  0
 11  8  1  0  0  0  0
 12 14  2  0  0  0  0
 13  2  1  0  0  0  0
 15  1  2  0  0  0  0
 16 24  2  0  0  0  0
 16 22  1  0  0  0  0
 17 27  1  0  0  0  0
 18 17  1  0  0  0  0
 18 19  2  0  0  0  0
 19 13  1  0  0  0  0
 19 25  1  0  0  0  0
 20 23  1  0  0  0  0
 21 23  2  0  0  0  0
 22 18  1  0  0  0  0
 24 26  1  0  0  0  0
 25 20  2  0  0  0  0
 26 17  2  0  0  0  0
 27 25  1  0  0  0  0
 27 21  1  0  0  0  0
M  END
>  <MODEL>
3

>  <REMARK>
 VINA RESULT:      -8.4      1.022      2.691
  Name = 
  1 active torsions:
  status: ('A' for Active; 'I' for Inactive)
    1  A    between atoms: C_5  and  N_23
                            x       y       z     vdW  Elec       q    Type
                         _______ _______ _______ _____ _____    ______ ____

>  <TORSDO>
F 1

$$$$
=
 OpenBabel11042415113D

 27 32  0  0  1  0  0  0  0  0999 V2000
  189.4930  172.5180  139.5180 C   0  0  0  0  0  0  0  0  0  0  0  0
  188.6740  175.9990  142.5860 C   0  0  1  0  0  0  0  0  0  0  0  0
  189.1510  175.2600  143.8310 C   0  0  0  0  0  2  0  0  0  0  0  0
  189.1190  177.2870  142.3880 C   0  0  0  0  0  2  0  0  0  0  0  0
  188.2070  172.6440  142.4460 C   0  0  0  0  0  1  0  0  0  0  0  0
  189.2620  174.3520  140.8930 N   0  0  1  0  0  0  0  0  0  0  0  0
  188.1910  175.2200  141.3720 C   0  0  0  0  0  2  0  0  0  0  0  0
  189.4650  173.1240  141.7100 C   0  0  1  0  0  0  0  0  0  0  0  0
  190.6080  173.3440  142.7030 C   0  0  0  0  0  2  0  0  0  0  0  0
  188.9660  173.8930  139.5350 C   0  0  0  0  0  2  0  0  0  0  0  0
  189.8250  172.1100  140.7880 O   0  0  0  0  0  0  0  0  0  0  0  0
  190.4590  174.5520  143.6010 C   0  0  0  0  0  0  0  0  0  0  0  0
  187.7370  177.0990  142.9340 N   0  0  0  0  0  0  0  0  0  0  0  0
  191.5220  174.9560  144.2880 C   0  0  0  0  0  2  0  0  0  0  0  0
  189.6290  171.7630  138.4400 C   0  0  0  0  0  2  0  0  0  0  0  0
  186.0870  178.1480  147.2030 C   0  0  0  0  0  3  0  0  0  0  0  0
  184.8110  178.3080  144.7060 C   0  0  2  0  0  3  0  0  0  0  0  0
  186.1260  177.8570  144.7360 C   0  0  0  0  0  0  0  0  0  0  0  0
  186.4880  177.5830  143.4140 C   0  0  0  0  0  0  0  0  0  0  0  0
  185.0700  177.8440  141.3680 N   0  0  0  0  0  0  0  0  0  0  0  0
  183.3340  178.5890  142.6640 C   0  0  0  0  0  3  0  0  0  0  0  0
  186.9180  177.7260  146.0030 C   0  0  0  0  0  3  0  0  0  0  0  0
  183.7780  178.2910  141.3630 C   0  0  0  0  0  3  0  0  0  0  0  0
  184.8130  178.5760  147.1020 C   0  0  0  0  0  3  0  0  0  0  0  0
  185.3660  177.8870  142.6730 C   0  0  0  0  0  0  0  0  0  0  0  0
  184.1290  178.6660  145.7910 C   0  0  0  0  0  3  0  0  0  0  0  0
  184.3890  178.3100  143.4330 N   0  0  0  0  0  0  0  0  0  0  0  0
  1 10  1  0  0  0  0
  1 11  1  0  0  0  0
  2  7  1  6  0  0  0
  2 13  1  0  0  0  0
  2  3  1  0  0  0  0
  4  2  1  0  0  0  0
  4 13  1  0  0  0  0
  6 10  1  6  0  0  0
  6  7  1  0  0  0  0
  6  8  1  0  0  0  0
  8  5  1  1  0  0  0
  8  9  1  0  0  0  0
  9 12  1  0  0  0  0
 11  8  1  0  0  0  0
 12  3  1  0  0  0  0
 12 14  2  0  0  0  0
 13 19  1  0  0  0  0
 15  1  2  0  0  0  0
 17 18  1  0  0  0  0
 17 26  1  1  0  0  0
 18 22  1  0  0  0  0
 19 18  2  0  0  0  0
 20 25  2  0  0  0  0
 21 27  1  0  0  0  0
 22 16  2  0  0  0  0
 23 20  1  0  0  0  0
 23 21  2  0  0  0  0
 24 16  1  0  0  0  0
 25 19  1  0  0  0  0
 25 27  1  0  0  0  0
 26 24  2  0  0  0  0
 27 17  1  0  0  0  0
M  END
>  <MODEL>
4

>  <REMARK>
 VINA RESULT:      -8.4      2.481      2.953
  Name = 
  1 active torsions:
  status: ('A' for Active; 'I' for Inactive)
    1  A    between atoms: C_5  and  N_23
                            x       y       z     vdW  Elec       q    Type
                         _______ _______ _______ _____ _____    ______ ____

>  <TORSDO>
F 1

$$$$
=
 OpenBabel11042415113D

 27 32  0  0  1  0  0  0  0  0999 V2000
  194.0720  176.3050  144.5740 C   0  0  0  0  0  0  0  0  0  0  0  0
  189.4840  175.4520  145.2260 C   0  0  1  0  0  0  0  0  0  0  0  0
  189.3570  174.3400  144.1890 C   0  0  0  0  0  2  0  0  0  0  0  0
  188.9340  175.2420  146.4710 C   0  0  0  0  0  2  0  0  0  0  0  0
  191.6070  175.7800  142.6020 C   0  0  0  0  0  1  0  0  0  0  0  0
  191.8880  175.8210  145.1240 N   0  0  1  0  0  0  0  0  0  0  0  0
  190.5900  176.4880  145.1030 C   0  0  0  0  0  2  0  0  0  0  0  0
  192.2530  175.1520  143.8450 C   0  0  1  0  0  0  0  0  0  0  0  0
  191.9140  173.6620  143.9220 C   0  0  0  0  0  2  0  0  0  0  0  0
  192.9490  176.7930  145.3910 C   0  0  0  0  0  2  0  0  0  0  0  0
  193.6540  175.3140  143.7170 O   0  0  0  0  0  0  0  0  0  0  0  0
  190.4810  173.3440  144.2890 C   0  0  0  0  0  0  0  0  0  0  0  0
  188.1700  176.0900  145.5000 N   0  0  0  0  0  0  0  0  0  0  0  0
  190.1860  172.0970  144.6380 C   0  0  0  0  0  2  0  0  0  0  0  0
  195.3160  176.7510  144.6380 C   0  0  0  0  0  2  0  0  0  0  0  0
  186.4700  177.5390  141.3700 C   0  0  0  0  0  3  0  0  0  0  0  0
  185.5190  178.0340  143.9660 C   0  0  0  0  0  0  0  0  0  0  0  0
  186.6590  177.2490  143.8300 C   0  0  0  0  0  0  0  0  0  0  0  0
  187.0560  176.8900  145.1220 C   0  0  0  0  0  0  0  0  0  0  0  0
  185.9530  177.5170  147.2790 N   0  0  0  0  0  0  0  0  0  0  0  0
  184.3640  178.6980  146.1240 C   0  0  0  0  0  3  0  0  0  0  0  0
  187.2670  176.9120  142.5020 C   0  0  0  0  0  2  0  0  0  0  0  0
  184.8300  178.2910  147.3880 C   0  0  0  0  0  3  0  0  0  0  0  0
  185.3700  178.2910  141.5740 C   0  0  0  0  0  3  0  0  0  0  0  0
  186.1290  177.4820  145.9520 C   0  0  0  0  0  0  0  0  0  0  0  0
  184.8580  178.5590  142.9380 C   0  0  0  0  0  3  0  0  0  0  0  0
  185.2330  178.1490  145.2710 N   0  0  0  0  0  0  0  0  0  0  0  0
  1 15  2  0  0  0  0
  1 10  1  0  0  0  0
  2  3  1  6  0  0  0
  2 13  1  0  0  0  0
  2  4  1  0  0  0  0
  3 12  1  0  0  0  0
  6  7  1  6  0  0  0
  6 10  1  0  0  0  0
  7  2  1  0  0  0  0
  8  5  1  6  0  0  0
  8  9  1  0  0  0  0
  8  6  1  0  0  0  0
  9 12  1  0  0  0  0
 11  8  1  0  0  0  0
 11  1  1  0  0  0  0
 12 14  2  0  0  0  0
 13  4  1  0  0  0  0
 16 24  2  0  0  0  0
 16 22  1  0  0  0  0
 17 27  1  0  0  0  0
 18 17  1  0  0  0  0
 18 19  2  0  0  0  0
 19 13  1  0  0  0  0
 19 25  1  0  0  0  0
 20 23  1  0  0  0  0
 21 23  2  0  0  0  0
 22 18  1  0  0  0  0
 24 26  1  0  0  0  0
 25 20  2  0  0  0  0
 26 17  2  0  0  0  0
 27 25  1  0  0  0  0
 27 21  1  0  0  0  0
M  END
>  <MODEL>
5

>  <REMARK>
 VINA RESULT:      -8.2      1.902      3.702
  Name = 
  1 active torsions:
  status: ('A' for Active; 'I' for Inactive)
    1  A    between atoms: C_5  and  N_23
                            x       y       z     vdW  Elec       q    Type
                         _______ _______ _______ _____ _____    ______ ____

>  <TORSDO>
F 1

$$$$
=
 OpenBabel11042415113D

 27 32  0  0  1  0  0  0  0  0999 V2000
  188.0980  177.3180  142.6750 C   0  0  0  0  0  0  0  0  0  0  0  0
  191.1110  174.4480  144.8870 C   0  0  1  0  0  0  0  0  0  0  0  0
  190.9020  175.0110  146.2880 C   0  0  0  0  0  2  0  0  0  0  0  0
  191.0900  173.0800  144.7280 C   0  0  0  0  0  2  0  0  0  0  0  0
  190.3260  177.7460  144.9320 C   0  0  0  0  0  1  0  0  0  0  0  0
  189.4230  175.7270  143.6860 N   0  0  1  0  0  0  0  0  0  0  0  0
  190.8210  175.3080  143.6660 C   0  0  0  0  0  2  0  0  0  0  0  0
  189.1290  176.8300  144.6420 C   0  0  1  0  0  0  0  0  0  0  0  0
  188.5770  176.2530  145.9470 C   0  0  0  0  0  2  0  0  0  0  0  0
  189.0270  176.2180  142.3660 C   0  0  0  0  0  2  0  0  0  0  0  0
  188.1360  177.6220  144.0160 O   0  0  0  0  0  0  0  0  0  0  0  0
  189.4440  175.2040  146.6080 C   0  0  0  0  0  0  0  0  0  0  0  0
  192.4240  173.7610  144.7680 N   0  0  0  0  0  0  0  0  0  0  0  0
  188.9120  174.4730  147.5810 C   0  0  0  0  0  2  0  0  0  0  0  0
  187.3290  177.9410  141.7970 C   0  0  0  0  0  2  0  0  0  0  0  0
  195.7130  170.6330  145.9700 C   0  0  0  0  0  3  0  0  0  0  0  0
  196.0070  173.2090  144.8890 C   0  0  1  0  0  3  0  0  0  0  0  0
  194.7170  172.7450  145.1220 C   0  0  0  0  0  0  0  0  0  0  0  0
  193.8460  173.7640  144.7240 C   0  0  0  0  0  0  0  0  0  0  0  0
  194.4560  175.9970  143.7730 N   0  0  0  0  0  0  0  0  0  0  0  0
  196.6770  175.4590  143.9300 C   0  0  0  0  0  3  0  0  0  0  0  0
  194.4250  171.3910  145.6950 C   0  0  0  0  0  3  0  0  0  0  0  0
  195.7330  176.4310  143.5520 C   0  0  0  0  0  3  0  0  0  0  0  0
  196.9350  171.1450  145.7200 C   0  0  0  0  0  3  0  0  0  0  0  0
  194.6690  174.7750  144.2770 C   0  0  0  0  0  0  0  0  0  0  0  0
  197.1030  172.5010  145.1500 C   0  0  0  0  0  3  0  0  0  0  0  0
  195.9310  174.4460  144.3760 N   0  0  0  0  0  0  0  0  0  0  0  0
  1 11  1  0  0  0  0
  2  7  1  6  0  0  0
  2  3  1  0  0  0  0
  3 12  1  0  0  0  0
  4 13  1  0  0  0  0
  4  2  1  0  0  0  0
  6 10  1  6  0  0  0
  6  8  1  0  0  0  0
  7  6  1  0  0  0  0
  8  5  1  1  0  0  0
  8  9  1  0  0  0  0
  9 12  1  0  0  0  0
 10  1  1  0  0  0  0
 11  8  1  0  0  0  0
 12 14  2  0  0  0  0
 13  2  1  0  0  0  0
 15  1  2  0  0  0  0
 17 18  1  0  0  0  0
 17 26  1  6  0  0  0
 18 22  1  0  0  0  0
 19 13  1  0  0  0  0
 19 18  2  0  0  0  0
 20 25  2  0  0  0  0
 21 27  1  0  0  0  0
 22 16  2  0  0  0  0
 23 20  1  0  0  0  0
 23 21  2  0  0  0  0
 24 16  1  0  0  0  0
 25 27  1  0  0  0  0
 25 19  1  0  0  0  0
 26 24  2  0  0  0  0
 27 17  1  0  0  0  0
M  END
>  <MODEL>
6

>  <REMARK>
 VINA RESULT:      -7.7      3.030      8.160
  Name = 
  1 active torsions:
  status: ('A' for Active; 'I' for Inactive)
    1  A    between atoms: C_5  and  N_23
                            x       y       z     vdW  Elec       q    Type
                         _______ _______ _______ _____ _____    ______ ____

>  <TORSDO>
F 1

$$$$
=
 OpenBabel11042415113D

 27 32  0  0  1  0  0  0  0  0999 V2000
  189.8510  172.3700  139.8600 C   0  0  0  0  0  0  0  0  0  0  0  0
  189.3730  175.6010  143.2570 C   0  0  1  0  0  0  0  0  0  0  0  0
  189.7500  174.6940  144.4230 C   0  0  0  0  0  2  0  0  0  0  0  0
  189.9570  176.8460  143.1890 C   0  0  0  0  0  2  0  0  0  0  0  0
  188.5470  172.3470  142.7820 C   0  0  0  0  0  1  0  0  0  0  0  0
  189.8020  174.0740  141.4090 N   0  0  1  0  0  0  0  0  0  0  0  0
  188.8250  175.0030  141.9700 C   0  0  0  0  0  2  0  0  0  0  0  0
  189.8600  172.7560  142.1010 C   0  0  1  0  0  0  0  0  0  0  0  0
  191.0060  172.7520  143.1140 C   0  0  0  0  0  2  0  0  0  0  0  0
  189.4760  173.7860  140.0120 C   0  0  0  0  0  2  0  0  0  0  0  0
  190.1200  171.8060  141.0840 O   0  0  0  0  0  0  0  0  0  0  0  0
  190.9760  173.8740  144.1280 C   0  0  0  0  0  0  0  0  0  0  0  0
  188.5560  176.7570  143.7100 N   0  0  0  0  0  0  0  0  0  0  0  0
  192.0680  174.0900  144.8540 C   0  0  0  0  0  2  0  0  0  0  0  0
  189.9190  171.7150  138.7120 C   0  0  0  0  0  2  0  0  0  0  0  0
  184.4660  178.0400  141.7920 C   0  0  0  0  0  3  0  0  0  0  0  0
  185.3070  178.1820  144.4680 C   0  0  0  0  0  0  0  0  0  0  0  0
  186.1970  177.6630  143.5340 C   0  0  0  0  0  0  0  0  0  0  0  0
  187.3610  177.3250  144.2320 C   0  0  0  0  0  0  0  0  0  0  0  0
  187.7910  177.5870  146.6830 N   0  0  0  0  0  0  0  0  0  0  0  0
  185.6940  178.4690  146.9580 C   0  0  0  0  0  3  0  0  0  0  0  0
  185.8700  177.5340  142.0760 C   0  0  0  0  0  2  0  0  0  0  0  0
  186.8990  178.1010  147.5840 C   0  0  0  0  0  3  0  0  0  0  0  0
  183.6540  178.5320  142.7490 C   0  0  0  0  0  3  0  0  0  0  0  0
  187.0950  177.6620  145.5410 C   0  0  0  0  0  0  0  0  0  0  0  0
  184.0850  178.6120  144.1640 C   0  0  0  0  0  3  0  0  0  0  0  0
  185.8940  178.1630  145.6740 N   0  0  0  0  0  0  0  0  0  0  0  0
  1 10  1  0  0  0  0
  1 11  1  0  0  0  0
  2  7  1  6  0  0  0
  2 13  1  0  0  0  0
  2  3  1  0  0  0  0
  4  2  1  0  0  0  0
  4 13  1  0  0  0  0
  6 10  1  6  0  0  0
  6  7  1  0  0  0  0
  6  8  1  0  0  0  0
  8  5  1  1  0  0  0
  8  9  1  0  0  0  0
  9 12  1  0  0  0  0
 11  8  1  0  0  0  0
 12  3  1  0  0  0  0
 12 14  2  0  0  0  0
 13 19  1  0  0  0  0
 15  1  2  0  0  0  0
 16 22  1  0  0  0  0
 16 24  2  0  0  0  0
 17 27  1  0  0  0  0
 18 19  2  0  0  0  0
 18 17  1  0  0  0  0
 19 25  1  0  0  0  0
 20 23  1  0  0  0  0
 21 23  2  0  0  0  0
 22 18  1  0  0  0  0
 24 26  1  0  0  0  0
 25 27  1  0  0  0  0
 25 20  2  0  0  0  0
 26 17  2  0  0  0  0
 27 21  1  0  0  0  0
M  END
>  <MODEL>
7

>  <REMARK>
 VINA RESULT:      -7.5      2.277      3.575
  Name = 
  1 active torsions:
  status: ('A' for Active; 'I' for Inactive)
    1  A    between atoms: C_5  and  N_23
                            x       y       z     vdW  Elec       q    Type
                         _______ _______ _______ _____ _____    ______ ____

>  <TORSDO>
F 1

$$$$
=
 OpenBabel11042415113D

 27 32  0  0  1  0  0  0  0  0999 V2000
  195.2840  175.7600  143.6280 C   0  0  0  0  0  0  0  0  0  0  0  0
  190.7580  175.2310  144.8300 C   0  0  1  0  0  0  0  0  0  0  0  0
  190.4450  174.0960  143.8620 C   0  0  0  0  0  2  0  0  0  0  0  0
  190.3440  175.1010  146.1370 C   0  0  0  0  0  2  0  0  0  0  0  0
  192.5790  175.3310  141.9720 C   0  0  0  0  0  1  0  0  0  0  0  0
  193.1530  175.4390  144.4420 N   0  0  1  0  0  0  0  0  0  0  0  0
  191.9040  176.1880  144.5410 C   0  0  0  0  0  2  0  0  0  0  0  0
  193.3250  174.7040  143.1580 C   0  0  1  0  0  0  0  0  0  0  0  0
  192.9070  173.2430  143.3350 C   0  0  0  0  0  2  0  0  0  0  0  0
  194.2940  176.3480  144.5470 C   0  0  0  0  0  2  0  0  0  0  0  0
  194.7090  174.7700  142.8660 O   0  0  0  0  0  0  0  0  0  0  0  0
  191.5100  173.0330  143.8750 C   0  0  0  0  0  0  0  0  0  0  0  0
  189.5260  175.9630  145.2250 N   0  0  0  0  0  0  0  0  0  0  0  0
  191.1810  171.8190  144.3060 C   0  0  0  0  0  2  0  0  0  0  0  0
  196.5520  176.1260  143.5320 C   0  0  0  0  0  2  0  0  0  0  0  0
  187.6130  177.5840  141.2560 C   0  0  0  0  0  3  0  0  0  0  0  0
  186.8680  178.0600  143.9220 C   0  0  0  0  0  0  0  0  0  0  0  0
  187.9580  177.2280  143.6900 C   0  0  0  0  0  0  0  0  0  0  0  0
  188.4270  176.8210  144.9430 C   0  0  0  0  0  0  0  0  0  0  0  0
  187.5060  177.4460  147.1840 N   0  0  0  0  0  0  0  0  0  0  0  0
  185.8980  178.7230  146.1690 C   0  0  0  0  0  3  0  0  0  0  0  0
  188.4560  176.8960  142.3150 C   0  0  0  0  0  2  0  0  0  0  0  0
  186.4310  178.2660  147.3880 C   0  0  0  0  0  3  0  0  0  0  0  0
  186.5660  178.3800  141.5520 C   0  0  0  0  0  3  0  0  0  0  0  0
  187.5880  177.4340  145.8480 C   0  0  0  0  0  0  0  0  0  0  0  0
  186.1620  178.6380  142.9540 C   0  0  0  0  0  3  0  0  0  0  0  0
  186.6790  178.1570  145.2460 N   0  0  0  0  0  0  0  0  0  0  0  0
  1 10  1  0  0  0  0
  2  3  1  6  0  0  0
  2 13  1  0  0  0  0
  2  4  1  0  0  0  0
  3 12  1  0  0  0  0
  6  7  1  6  0  0  0
  6 10  1  0  0  0  0
  7  2  1  0  0  0  0
  8  5  1  6  0  0  0
  8  9  1  0  0  0  0
  8  6  1  0  0  0  0
  9 12  1  0  0  0  0
 11  8  1  0  0  0  0
 11  1  1  0  0  0  0
 12 14  2  0  0  0  0
 13  4  1  0  0  0  0
 15  1  2  0  0  0  0
 16 24  2  0  0  0  0
 16 22  1  0  0  0  0
 17 27  1  0  0  0  0
 18 17  1  0  0  0  0
 18 19  2  0  0  0  0
 19 13  1  0  0  0  0
 19 25  1  0  0  0  0
 20 23  1  0  0  0  0
 21 23  2  0  0  0  0
 22 18  1  0  0  0  0
 24 26  1  0  0  0  0
 25 20  2  0  0  0  0
 26 17  2  0  0  0  0
 27 25  1  0  0  0  0
 27 21  1  0  0  0  0
M  END
>  <MODEL>
8

>  <REMARK>
 VINA RESULT:      -7.5      2.127      3.901
  Name = 
  1 active torsions:
  status: ('A' for Active; 'I' for Inactive)
    1  A    between atoms: C_5  and  N_23
                            x       y       z     vdW  Elec       q    Type
                         _______ _______ _______ _____ _____    ______ ____

>  <TORSDO>
F 1

$$$$
=
 OpenBabel11042415113D

 27 32  0  0  1  0  0  0  0  0999 V2000
  186.6840  176.7150  146.0330 C   0  0  0  0  0  0  0  0  0  0  0  0
  191.2830  176.0290  145.2660 C   0  0  1  0  0  0  0  0  0  0  0  0
  191.3240  176.6250  143.8630 C   0  0  0  0  0  2  0  0  0  0  0  0
  192.2540  176.4150  146.1620 C   0  0  0  0  0  2  0  0  0  0  0  0
  188.3890  175.6590  143.5380 C   0  0  0  0  0  1  0  0  0  0  0  0
  188.9740  176.5340  145.8480 N   0  0  1  0  0  0  0  0  0  0  0  0
  189.9800  175.4770  145.8240 C   0  0  0  0  0  2  0  0  0  0  0  0
  188.3770  176.8400  144.5190 C   0  0  1  0  0  0  0  0  0  0  0  0
  189.0800  178.0500  143.9000 C   0  0  0  0  0  2  0  0  0  0  0  0
  187.8600  176.1470  146.7140 C   0  0  0  0  0  2  0  0  0  0  0  0
  187.0210  177.1590  144.7750 O   0  0  0  0  0  0  0  0  0  0  0  0
  190.5840  177.9330  143.7840 C   0  0  0  0  0  0  0  0  0  0  0  0
  192.4110  175.0870  145.4880 N   0  0  0  0  0  0  0  0  0  0  0  0
  191.2780  179.0330  143.5140 C   0  0  0  0  0  2  0  0  0  0  0  0
  185.4660  176.7900  146.5420 C   0  0  0  0  0  2  0  0  0  0  0  0
  196.8380  173.6620  146.1410 C   0  0  0  0  0  3  0  0  0  0  0  0
  194.6460  172.2570  145.0880 C   0  0  1  0  0  3  0  0  0  0  0  0
  194.4420  173.5720  145.4890 C   0  0  0  0  0  0  0  0  0  0  0  0
  193.0970  173.8650  145.2430 C   0  0  0  0  0  0  0  0  0  0  0  0
  191.3660  172.3400  144.2710 N   0  0  0  0  0  0  0  0  0  0  0  0
  192.9290  170.6730  144.0990 C   0  0  0  0  0  3  0  0  0  0  0  0
  195.5280  174.4300  146.0660 C   0  0  0  0  0  3  0  0  0  0  0  0
  191.5900  171.0480  143.8830 C   0  0  0  0  0  3  0  0  0  0  0  0
  196.9650  172.3840  145.7320 C   0  0  0  0  0  3  0  0  0  0  0  0
  192.5780  172.7050  144.7080 C   0  0  0  0  0  0  0  0  0  0  0  0
  195.8170  171.6320  145.1760 C   0  0  0  0  0  3  0  0  0  0  0  0
  193.4870  171.7690  144.6200 N   0  0  0  0  0  0  0  0  0  0  0  0
  1 15  2  0  0  0  0
  1 10  1  0  0  0  0
  2  3  1  6  0  0  0
  2 13  1  0  0  0  0
  2  7  1  0  0  0  0
  2  4  1  0  0  0  0
  6  7  1  6  0  0  0
  6 10  1  0  0  0  0
  8  5  1  6  0  0  0
  8 11  1  0  0  0  0
  8  6  1  0  0  0  0
  9  8  1  0  0  0  0
 11  1  1  0  0  0  0
 12  3  1  0  0  0  0
 12  9  1  0  0  0  0
 13  4  1  0  0  0  0
 14 12  2  0  0  0  0
 17 26  1  1  0  0  0
 17 18  1  0  0  0  0
 18 22  1  0  0  0  0
 19 13  1  0  0  0  0
 19 18  2  0  0  0  0
 20 25  2  0  0  0  0
 21 27  1  0  0  0  0
 22 16  2  0  0  0  0
 23 21  2  0  0  0  0
 23 20  1  0  0  0  0
 24 16  1  0  0  0  0
 25 19  1  0  0  0  0
 26 24  2  0  0  0  0
 27 25  1  0  0  0  0
 27 17  1  0  0  0  0
M  END
>  <MODEL>
9

>  <REMARK>
 VINA RESULT:      -7.4      2.801      7.990
  Name = 
  1 active torsions:
  status: ('A' for Active; 'I' for Inactive)
    1  A    between atoms: C_5  and  N_23
                            x       y       z     vdW  Elec       q    Type
                         _______ _______ _______ _____ _____    ______ ____

>  <TORSDO>
F 1

$$$$
