=
 OpenBabel11042417533D

 55 58  0  0  1  0  0  0  0  0999 V2000
  187.4830  174.5240  141.9970 C   0  0  0  0  0  2  0  0  0  0  0  0
  188.4550  173.3690  142.2970 C   0  0  2  0  0  3  0  0  0  0  0  0
  188.0210  172.6730  140.0060 O   0  0  0  0  0  1  0  0  0  0  0  0
  190.8440  173.9160  141.9530 C   0  0  2  0  0  3  0  0  0  0  0  0
  189.7200  173.8790  142.9910 C   0  0  0  0  0  2  0  0  0  0  0  0
  190.1440  173.6310  140.6290 C   0  0  2  0  0  3  0  0  0  0  0  0
  188.9810  172.7390  141.0160 C   0  0  1  0  0  3  0  0  0  0  0  0
  193.2840  174.2040  143.7130 O   0  0  0  0  0  1  0  0  0  0  0  0
  193.0030  173.0110  143.0490 C   0  0  0  0  0  0  0  0  0  0  0  0
  191.8360  172.8740  142.2310 N   0  0  0  0  0  2  0  0  0  0  0  0
  193.7720  172.0260  143.1970 O   0  0  0  0  0  0  0  0  0  0  0  0
  191.0860  173.0830  139.5270 C   0  0  1  0  0  3  0  0  0  0  0  0
  190.5340  172.9330  138.1380 C   0  0  0  0  0  0  0  0  0  0  0  0
  190.4140  174.0480  137.3210 O   0  0  0  0  0  0  0  0  0  0  0  0
  190.1910  171.8020  137.7010 O   0  0  0  0  0  1  0  0  0  0  0  0
  192.3980  173.6040  139.5660 O   0  0  0  0  0  0  0  0  0  0  0  0
  193.2760  172.6430  139.0410 C   0  0  0  0  0  2  0  0  0  0  0  0
  194.5480  172.7170  139.7390 N   0  0  0  0  0  2  0  0  0  0  0  0
  196.5220  175.2770  140.8050 C   0  0  2  0  0  0  0  0  0  0  0  0
  194.9610  174.1100  139.7290 C   0  0  2  0  0  3  0  0  0  0  0  0
  197.7100  174.6910  141.5330 C   0  0  0  0  0  2  0  0  0  0  0  0
  196.3540  176.6680  141.3970 C   0  0  2  0  0  3  0  0  0  0  0  0
  195.9830  174.2960  138.7830 O   0  0  0  0  0  0  0  0  0  0  0  0
  196.7910  176.5500  142.8450 C   0  0  0  0  0  2  0  0  0  0  0  0
  195.3960  174.4780  141.0160 O   0  0  0  0  0  0  0  0  0  0  0  0
  196.7590  175.3150  139.3300 C   0  0  0  0  0  2  0  0  0  0  0  0
  197.6840  175.3150  142.9260 C   0  0  0  0  0  2  0  0  0  0  0  0
  195.0330  177.1090  141.3190 O   0  0  0  0  0  1  0  0  0  0  0  0
  187.6500  175.7140  142.9380 C   0  0  0  0  0  2  0  0  0  0  0  0
  186.4010  176.5780  143.0060 C   0  0  1  0  0  3  0  0  0  0  0  0
  185.8520  176.5380  144.4260 C   0  0  0  0  0  2  0  0  0  0  0  0
  185.1290  179.3820  145.1790 O   0  0  0  0  0  0  0  0  0  0  0  0
  186.1710  179.7360  147.9120 N   0  0  0  0  0  1  0  0  0  0  0  0
  185.7260  178.5560  145.8580 C   0  0  0  0  0  0  0  0  0  0  0  0
  185.6730  178.4960  147.3430 C   0  0  1  0  0  3  0  0  0  0  0  0
  186.6260  177.5190  145.3020 C   0  0  1  0  0  3  0  0  0  0  0  0
  186.5970  177.4160  147.6490 N   0  0  0  0  0  0  0  0  0  0  0  0
  187.0620  176.8620  146.5690 C   0  0  0  0  0  0  0  0  0  0  0  0
  188.0920  175.8590  146.5930 N   0  0  0  0  0  0  0  0  0  0  0  0
  189.3300  176.0100  146.2210 C   0  0  0  0  0  3  0  0  0  0  0  0
  189.8910  177.3000  145.7120 C   0  0  0  0  0  2  0  0  0  0  0  0
  192.0960  177.1770  144.8120 O   0  0  0  0  0  1  0  0  0  0  0  0
  190.7450  177.0580  144.4820 C   0  0  2  0  0  3  0  0  0  0  0  0
  190.3910  178.0750  143.4280 C   0  0  0  0  0  1  0  0  0  0  0  0
  186.7350  178.0040  142.6200 C   0  0  0  0  0  2  0  0  0  0  0  0
  186.0200  178.3770  141.3350 C   0  0  0  0  0  2  0  0  0  0  0  0
  184.5240  178.2830  141.5400 C   0  0  0  0  0  2  0  0  0  0  0  0
  183.8060  178.1100  140.2090 C   0  0  0  0  0  2  0  0  0  0  0  0
  182.4240  177.7220  140.4480 N   0  0  0  0  0  2  0  0  0  0  0  0
  181.8010  178.8210  141.1620 C   0  0  0  0  0  2  0  0  0  0  0  0
  180.4260  178.4080  141.6490 C   0  0  0  0  0  2  0  0  0  0  0  0
  179.1570  179.2480  140.7210 S   0  0  0  0  0  0  0  0  0  0  0  0
  179.7490  180.8460  140.2210 C   0  0  0  0  0  1  0  0  0  0  0  0
  177.9460  179.4180  141.5950 O   0  0  0  0  0  0  0  0  0  0  0  0
  178.7800  178.4510  139.5040 O   0  0  0  0  0  0  0  0  0  0  0  0
  1 29  1  0  0  0  0
  2  1  1  6  0  0  0
  2  5  1  0  0  0  0
  4 10  1  1  0  0  0
  4  5  1  0  0  0  0
  6 12  1  6  0  0  0
  6  7  1  0  0  0  0
  6  4  1  0  0  0  0
  7  3  1  6  0  0  0
  7  2  1  0  0  0  0
  9 11  2  0  0  0  0
  9  8  1  0  0  0  0
 10  9  1  0  0  0  0
 12 13  1  6  0  0  0
 12 16  1  0  0  0  0
 14 13  2  0  0  0  0
 15 13  1  0  0  0  0
 17 16  1  0  0  0  0
 17 18  1  0  0  0  0
 19 26  1  6  0  0  0
 19 25  1  0  0  0  0
 19 22  1  0  0  0  0
 19 21  1  0  0  0  0
 20 18  1  1  0  0  0
 20 25  1  0  0  0  0
 21 27  1  0  0  0  0
 22 28  1  1  0  0  0
 22 24  1  0  0  0  0
 23 26  1  0  0  0  0
 23 20  1  0  0  0  0
 24 27  1  0  0  0  0
 29 30  1  0  0  0  0
 30 45  1  1  0  0  0
 30 31  1  0  0  0  0
 32 34  2  0  0  0  0
 34 35  1  0  0  0  0
 35 37  1  0  0  0  0
 35 33  1  1  0  0  0
 36 31  1  6  0  0  0
 36 34  1  0  0  0  0
 36 38  1  0  0  0  0
 38 39  1  0  0  0  0
 38 37  2  0  0  0  0
 40 39  2  0  0  0  0
 41 40  1  0  0  0  0
 43 44  1  6  0  0  0
 43 42  1  0  0  0  0
 43 41  1  0  0  0  0
 46 47  1  0  0  0  0
 46 45  1  0  0  0  0
 48 49  1  0  0  0  0
 48 47  1  0  0  0  0
 49 50  1  0  0  0  0
 50 51  1  0  0  0  0
 52 54  2  0  0  0  0
 52 51  1  0  0  0  0
 53 52  1  0  0  0  0
 55 52  2  0  0  0  0
M  END
>  <MODEL>
1

>  <REMARK>
 VINA RESULT:      -6.5      0.000      0.000
  Name = 
  23 active torsions:
  status: ('A' for Active; 'I' for Inactive)
    1  A    between atoms: C_1  and  C_23
    2  A    between atoms: C_1  and  C_47
    3  A    between atoms: C_2  and  C_29
    4  A    between atoms: S_5  and  C_31
    5  A    between atoms: C_7  and  C_20
    6  A    between atoms: C_8  and  N_45
    7  A    between atoms: N_9  and  C_26
    8  A    between atoms: N_9  and  C_47
    9  A    between atoms: N_12  and  C_49
   10  A    between atoms: C_15  and  C_16
   11  A    between atoms: C_15  and  C_23
   12  A    between atoms: C_16  and  C_40
   13  A    between atoms: C_16  and  C_55
   14  A    between atoms: C_19  and  C_43
   15  A    between atoms: C_20  and  O_38
   16  A    between atoms: C_20  and  C_46
   17  A    between atoms: C_21  and  O_38
   18  A    between atoms: C_21  and  N_45
   19  A    between atoms: C_25  and  C_40
   20  A    between atoms: C_26  and  C_31
   21  A    between atoms: C_29  and  C_55
   22  A    between atoms: C_30  and  N_42
   23  A    between atoms: C_41  and  C_43
                            x       y       z     vdW  Elec       q    Type
                         _______ _______ _______ _____ _____    ______ ____

>  <TORSDO>
F 23

$$$$
=
 OpenBabel11042417533D

 55 58  0  0  1  0  0  0  0  0999 V2000
  188.6820  174.6150  142.3860 C   0  0  0  0  0  2  0  0  0  0  0  0
  189.7580  174.6140  141.2860 C   0  0  2  0  0  3  0  0  0  0  0  0
  191.2810  173.9270  143.0550 O   0  0  0  0  0  1  0  0  0  0  0  0
  189.9050  172.5130  139.9860 C   0  0  2  0  0  3  0  0  0  0  0  0
  189.2600  173.9000  140.0270 C   0  0  0  0  0  2  0  0  0  0  0  0
  190.5920  172.3770  141.3410 C   0  0  2  0  0  3  0  0  0  0  0  0
  190.9750  173.8010  141.7000 C   0  0  1  0  0  3  0  0  0  0  0  0
  189.3340  171.9120  137.0800 O   0  0  0  0  0  1  0  0  0  0  0  0
  190.6330  172.1350  137.5360 C   0  0  0  0  0  0  0  0  0  0  0  0
  190.8960  172.4370  138.9100 N   0  0  0  0  0  2  0  0  0  0  0  0
  191.5880  172.1010  136.7170 O   0  0  0  0  0  0  0  0  0  0  0  0
  191.7420  171.3390  141.3590 C   0  0  1  0  0  3  0  0  0  0  0  0
  191.4130  169.9160  141.0050 C   0  0  0  0  0  0  0  0  0  0  0  0
  191.8630  169.3830  139.8050 O   0  0  0  0  0  0  0  0  0  0  0  0
  190.7430  169.1950  141.7920 O   0  0  0  0  0  1  0  0  0  0  0  0
  192.9550  171.7980  140.8010 O   0  0  0  0  0  0  0  0  0  0  0  0
  194.0160  171.3410  141.5980 C   0  0  0  0  0  2  0  0  0  0  0  0
  193.9330  171.9530  142.9130 N   0  0  0  0  0  2  0  0  0  0  0  0
  195.4500  174.5890  144.4410 C   0  0  2  0  0  0  0  0  0  0  0  0
  194.8710  173.0630  142.9270 C   0  0  2  0  0  3  0  0  0  0  0  0
  195.1730  174.5030  145.9240 C   0  0  0  0  0  2  0  0  0  0  0  0
  195.6900  176.0680  144.1780 C   0  0  2  0  0  3  0  0  0  0  0  0
  196.1140  172.6270  143.4150 O   0  0  0  0  0  0  0  0  0  0  0  0
  194.8020  176.8060  145.1620 C   0  0  0  0  0  2  0  0  0  0  0  0
  194.3550  174.1000  143.7260 O   0  0  0  0  0  0  0  0  0  0  0  0
  196.6270  173.7490  144.0630 C   0  0  0  0  0  2  0  0  0  0  0  0
  194.5040  175.8250  146.2920 C   0  0  0  0  0  2  0  0  0  0  0  0
  195.3670  176.4210  142.8680 O   0  0  0  0  0  1  0  0  0  0  0  0
  187.3130  175.0790  141.8920 C   0  0  0  0  0  2  0  0  0  0  0  0
  186.7860  176.2660  142.6810 C   0  0  1  0  0  3  0  0  0  0  0  0
  187.2110  176.1180  144.1360 C   0  0  0  0  0  2  0  0  0  0  0  0
  184.8100  177.6400  145.1830 O   0  0  0  0  0  0  0  0  0  0  0  0
  185.7930  179.0780  147.5590 N   0  0  0  0  0  1  0  0  0  0  0  0
  185.9450  177.6240  145.6420 C   0  0  0  0  0  0  0  0  0  0  0  0
  186.2670  177.7890  147.0850 C   0  0  1  0  0  3  0  0  0  0  0  0
  187.1700  177.4810  144.8220 C   0  0  1  0  0  3  0  0  0  0  0  0
  187.7210  177.7760  147.0870 N   0  0  0  0  0  0  0  0  0  0  0  0
  188.2010  177.5600  145.8980 C   0  0  0  0  0  0  0  0  0  0  0  0
  189.6070  177.6290  145.6050 N   0  0  0  0  0  0  0  0  0  0  0  0
  190.4340  176.6270  145.5310 C   0  0  0  0  0  3  0  0  0  0  0  0
  190.0280  175.2010  145.7290 C   0  0  0  0  0  2  0  0  0  0  0  0
  189.0390  174.5960  147.8130 O   0  0  0  0  0  1  0  0  0  0  0  0
  190.2630  174.7770  147.1660 C   0  0  2  0  0  3  0  0  0  0  0  0
  191.0550  175.8460  147.8740 C   0  0  0  0  0  1  0  0  0  0  0  0
  187.3370  177.5550  142.1100 C   0  0  0  0  0  2  0  0  0  0  0  0
  186.2080  178.4110  141.5680 C   0  0  0  0  0  2  0  0  0  0  0  0
  184.8960  177.6730  141.7140 C   0  0  0  0  0  2  0  0  0  0  0  0
  183.8140  178.3200  140.8620 C   0  0  0  0  0  2  0  0  0  0  0  0
  182.5660  178.3650  141.6100 N   0  0  0  0  0  2  0  0  0  0  0  0
  181.4940  178.2440  140.6400 C   0  0  0  0  0  2  0  0  0  0  0  0
  180.5830  179.4530  140.7230 C   0  0  0  0  0  2  0  0  0  0  0  0
  179.0230  179.0100  141.4610 S   0  0  0  0  0  0  0  0  0  0  0  0
  178.4740  177.4560  140.7970 C   0  0  0  0  0  1  0  0  0  0  0  0
  178.0110  180.0730  141.1380 O   0  0  0  0  0  0  0  0  0  0  0  0
  179.1600  178.8960  142.9530 O   0  0  0  0  0  0  0  0  0  0  0  0
  2  7  1  0  0  0  0
  2  1  1  1  0  0  0
  4 10  1  6  0  0  0
  4  5  1  0  0  0  0
  4  6  1  0  0  0  0
  5  2  1  0  0  0  0
  6 12  1  6  0  0  0
  6  7  1  0  0  0  0
  7  3  1  1  0  0  0
  8  9  1  0  0  0  0
  9 10  1  0  0  0  0
 11  9  2  0  0  0  0
 12 16  1  6  0  0  0
 13 12  1  0  0  0  0
 13 15  1  0  0  0  0
 14 13  2  0  0  0  0
 16 17  1  0  0  0  0
 17 18  1  0  0  0  0
 19 26  1  6  0  0  0
 19 21  1  0  0  0  0
 20 18  1  1  0  0  0
 20 23  1  0  0  0  0
 20 25  1  0  0  0  0
 21 27  1  0  0  0  0
 22 28  1  6  0  0  0
 22 19  1  0  0  0  0
 22 24  1  0  0  0  0
 23 26  1  0  0  0  0
 24 27  1  0  0  0  0
 25 19  1  0  0  0  0
 29  1  1  0  0  0  0
 30 29  1  6  0  0  0
 30 31  1  0  0  0  0
 32 34  2  0  0  0  0
 34 35  1  0  0  0  0
 35 37  1  0  0  0  0
 35 33  1  6  0  0  0
 36 31  1  1  0  0  0
 36 34  1  0  0  0  0
 36 38  1  0  0  0  0
 38 37  2  0  0  0  0
 39 38  1  0  0  0  0
 40 39  2  0  0  0  0
 40 41  1  0  0  0  0
 41 43  1  0  0  0  0
 43 42  1  0  0  0  0
 43 44  1  1  0  0  0
 45 30  1  0  0  0  0
 46 47  1  0  0  0  0
 46 45  1  0  0  0  0
 48 49  1  0  0  0  0
 48 47  1  0  0  0  0
 50 51  1  0  0  0  0
 50 49  1  0  0  0  0
 51 52  1  0  0  0  0
 52 55  2  0  0  0  0
 53 52  1  0  0  0  0
 54 52  2  0  0  0  0
M  END
>  <MODEL>
2

>  <REMARK>
 VINA RESULT:      -6.3      2.096      3.277
  Name = 
  23 active torsions:
  status: ('A' for Active; 'I' for Inactive)
    1  A    between atoms: C_1  and  C_23
    2  A    between atoms: C_1  and  C_47
    3  A    between atoms: C_2  and  C_29
    4  A    between atoms: S_5  and  C_31
    5  A    between atoms: C_7  and  C_20
    6  A    between atoms: C_8  and  N_45
    7  A    between atoms: N_9  and  C_26
    8  A    between atoms: N_9  and  C_47
    9  A    between atoms: N_12  and  C_49
   10  A    between atoms: C_15  and  C_16
   11  A    between atoms: C_15  and  C_23
   12  A    between atoms: C_16  and  C_40
   13  A    between atoms: C_16  and  C_55
   14  A    between atoms: C_19  and  C_43
   15  A    between atoms: C_20  and  O_38
   16  A    between atoms: C_20  and  C_46
   17  A    between atoms: C_21  and  O_38
   18  A    between atoms: C_21  and  N_45
   19  A    between atoms: C_25  and  C_40
   20  A    between atoms: C_26  and  C_31
   21  A    between atoms: C_29  and  C_55
   22  A    between atoms: C_30  and  N_42
   23  A    between atoms: C_41  and  C_43
                            x       y       z     vdW  Elec       q    Type
                         _______ _______ _______ _____ _____    ______ ____

>  <TORSDO>
F 23

$$$$
=
 OpenBabel11042417533D

 55 58  0  0  1  0  0  0  0  0999 V2000
  192.1480  174.2020  141.3950 C   0  0  0  0  0  2  0  0  0  0  0  0
  193.5550  173.5820  141.3340 C   0  0  2  0  0  3  0  0  0  0  0  0
  194.3500  175.8820  141.3270 O   0  0  0  0  0  1  0  0  0  0  0  0
  194.5160  172.9820  143.5340 C   0  0  2  0  0  3  0  0  0  0  0  0
  193.7040  172.4490  142.3510 C   0  0  0  0  0  2  0  0  0  0  0  0
  194.6300  174.4790  143.2680 C   0  0  2  0  0  3  0  0  0  0  0  0
  194.6210  174.5820  141.7550 C   0  0  1  0  0  3  0  0  0  0  0  0
  195.6690  171.3220  145.7810 O   0  0  0  0  0  1  0  0  0  0  0  0
  196.4050  171.6010  144.6300 C   0  0  0  0  0  0  0  0  0  0  0  0
  195.8480  172.3720  143.5610 N   0  0  0  0  0  2  0  0  0  0  0  0
  197.5700  171.1380  144.5150 O   0  0  0  0  0  0  0  0  0  0  0  0
  195.8250  175.1530  143.9890 C   0  0  1  0  0  3  0  0  0  0  0  0
  196.9960  175.5910  143.1560 C   0  0  0  0  0  0  0  0  0  0  0  0
  197.1070  176.9180  142.7670 O   0  0  0  0  0  0  0  0  0  0  0  0
  197.8880  174.7670  142.8170 O   0  0  0  0  0  1  0  0  0  0  0  0
  195.4570  176.0820  144.9880 O   0  0  0  0  0  0  0  0  0  0  0  0
  194.9650  175.3760  146.0960 C   0  0  0  0  0  2  0  0  0  0  0  0
  194.1520  176.2610  146.9130 N   0  0  0  0  0  2  0  0  0  0  0  0
  191.3350  176.2310  145.0030 C   0  0  2  0  0  0  0  0  0  0  0  0
  192.7640  175.9030  146.6790 C   0  0  2  0  0  3  0  0  0  0  0  0
  191.7100  176.6250  143.5940 C   0  0  0  0  0  2  0  0  0  0  0  0
  189.8700  176.6200  145.1360 C   0  0  2  0  0  3  0  0  0  0  0  0
  192.6970  174.6640  146.0180 O   0  0  0  0  0  0  0  0  0  0  0  0
  189.6970  177.8540  144.2710 C   0  0  0  0  0  2  0  0  0  0  0  0
  192.1430  176.9100  145.9170 O   0  0  0  0  0  0  0  0  0  0  0  0
  191.5540  174.7700  145.2310 C   0  0  0  0  0  2  0  0  0  0  0  0
  190.8450  177.8390  143.2650 C   0  0  0  0  0  2  0  0  0  0  0  0
  189.5260  176.8990  146.4590 O   0  0  0  0  0  1  0  0  0  0  0  0
  191.0340  173.2040  141.0900 C   0  0  0  0  0  2  0  0  0  0  0  0
  189.7910  173.8770  140.5310 C   0  0  1  0  0  3  0  0  0  0  0  0
  188.6870  172.8360  140.3930 C   0  0  0  0  0  2  0  0  0  0  0  0
  187.8740  174.6150  138.0790 O   0  0  0  0  0  0  0  0  0  0  0  0
  189.3480  173.5650  135.7540 N   0  0  0  0  0  1  0  0  0  0  0  0
  188.6450  173.6640  138.0580 C   0  0  0  0  0  0  0  0  0  0  0  0
  189.8040  173.5460  137.1330 C   0  0  1  0  0  3  0  0  0  0  0  0
  188.5130  172.4680  138.9220 C   0  0  1  0  0  3  0  0  0  0  0  0
  190.3300  172.2290  137.4520 N   0  0  0  0  0  0  0  0  0  0  0  0
  189.6810  171.6780  138.4350 C   0  0  0  0  0  0  0  0  0  0  0  0
  189.9160  170.3240  138.8580 N   0  0  0  0  0  0  0  0  0  0  0  0
  191.0500  169.8190  139.2480 C   0  0  0  0  0  3  0  0  0  0  0  0
  192.3200  170.6040  139.3350 C   0  0  0  0  0  2  0  0  0  0  0  0
  192.7050  169.3300  137.3560 O   0  0  0  0  0  1  0  0  0  0  0  0
  193.3450  170.0660  138.3540 C   0  0  2  0  0  3  0  0  0  0  0  0
  194.3170  169.1810  139.0910 C   0  0  0  0  0  1  0  0  0  0  0  0
  189.3410  174.9880  141.4570 C   0  0  0  0  0  2  0  0  0  0  0  0
  187.8280  175.0830  141.4600 C   0  0  0  0  0  2  0  0  0  0  0  0
  187.4010  176.4160  140.8860 C   0  0  0  0  0  2  0  0  0  0  0  0
  187.0010  177.3790  141.9940 C   0  0  0  0  0  2  0  0  0  0  0  0
  186.0720  178.3690  141.4670 N   0  0  0  0  0  2  0  0  0  0  0  0
  184.8570  178.2590  142.2520 C   0  0  0  0  0  2  0  0  0  0  0  0
  185.1480  177.5440  143.5570 C   0  0  0  0  0  2  0  0  0  0  0  0
  185.3700  178.7200  144.8770 S   0  0  0  0  0  0  0  0  0  0  0  0
  183.9230  178.7350  145.9070 C   0  0  0  0  0  1  0  0  0  0  0  0
  185.5720  180.0860  144.2850 O   0  0  0  0  0  0  0  0  0  0  0  0
  186.5700  178.3600  145.7070 O   0  0  0  0  0  0  0  0  0  0  0  0
  2  1  1  1  0  0  0
  2  7  1  0  0  0  0
  2  5  1  0  0  0  0
  4 10  1  6  0  0  0
  5  4  1  0  0  0  0
  6  4  1  0  0  0  0
  6 12  1  6  0  0  0
  7  3  1  1  0  0  0
  7  6  1  0  0  0  0
  9  8  1  0  0  0  0
 10  9  1  0  0  0  0
 11  9  2  0  0  0  0
 12 13  1  6  0  0  0
 12 16  1  0  0  0  0
 14 13  2  0  0  0  0
 15 13  1  0  0  0  0
 16 17  1  0  0  0  0
 17 18  1  0  0  0  0
 19 21  1  6  0  0  0
 19 22  1  0  0  0  0
 19 26  1  0  0  0  0
 19 25  1  0  0  0  0
 20 18  1  6  0  0  0
 22 28  1  1  0  0  0
 23 20  1  0  0  0  0
 24 22  1  0  0  0  0
 25 20  1  0  0  0  0
 26 23  1  0  0  0  0
 27 21  1  0  0  0  0
 27 24  1  0  0  0  0
 29  1  1  0  0  0  0
 30 31  1  1  0  0  0
 30 29  1  0  0  0  0
 30 45  1  0  0  0  0
 34 32  2  0  0  0  0
 34 36  1  0  0  0  0
 35 33  1  6  0  0  0
 35 37  1  0  0  0  0
 35 34  1  0  0  0  0
 36 31  1  1  0  0  0
 37 38  2  0  0  0  0
 38 39  1  0  0  0  0
 38 36  1  0  0  0  0
 39 40  2  0  0  0  0
 40 41  1  0  0  0  0
 42 43  1  0  0  0  0
 43 44  1  1  0  0  0
 43 41  1  0  0  0  0
 45 46  1  0  0  0  0
 47 46  1  0  0  0  0
 47 48  1  0  0  0  0
 49 48  1  0  0  0  0
 49 50  1  0  0  0  0
 50 51  1  0  0  0  0
 51 52  1  0  0  0  0
 52 55  2  0  0  0  0
 52 53  1  0  0  0  0
 54 52  2  0  0  0  0
M  END
>  <MODEL>
3

>  <REMARK>
 VINA RESULT:      -6.0      3.307      7.588
  Name = 
  23 active torsions:
  status: ('A' for Active; 'I' for Inactive)
    1  A    between atoms: C_1  and  C_23
    2  A    between atoms: C_1  and  C_47
    3  A    between atoms: C_2  and  C_29
    4  A    between atoms: S_5  and  C_31
    5  A    between atoms: C_7  and  C_20
    6  A    between atoms: C_8  and  N_45
    7  A    between atoms: N_9  and  C_26
    8  A    between atoms: N_9  and  C_47
    9  A    between atoms: N_12  and  C_49
   10  A    between atoms: C_15  and  C_16
   11  A    between atoms: C_15  and  C_23
   12  A    between atoms: C_16  and  C_40
   13  A    between atoms: C_16  and  C_55
   14  A    between atoms: C_19  and  C_43
   15  A    between atoms: C_20  and  O_38
   16  A    between atoms: C_20  and  C_46
   17  A    between atoms: C_21  and  O_38
   18  A    between atoms: C_21  and  N_45
   19  A    between atoms: C_25  and  C_40
   20  A    between atoms: C_26  and  C_31
   21  A    between atoms: C_29  and  C_55
   22  A    between atoms: C_30  and  N_42
   23  A    between atoms: C_41  and  C_43
                            x       y       z     vdW  Elec       q    Type
                         _______ _______ _______ _____ _____    ______ ____

>  <TORSDO>
F 23

$$$$
=
 OpenBabel11042417533D

 55 58  0  0  1  0  0  0  0  0999 V2000
  190.7000  175.3890  142.2580 C   0  0  0  0  0  2  0  0  0  0  0  0
  192.1750  175.2000  142.6570 C   0  0  2  0  0  3  0  0  0  0  0  0
  191.7870  177.0450  144.1960 O   0  0  0  0  0  1  0  0  0  0  0  0
  192.5610  173.4860  144.3990 C   0  0  2  0  0  3  0  0  0  0  0  0
  192.4980  173.7230  142.8890 C   0  0  0  0  0  2  0  0  0  0  0  0
  192.0550  174.7900  145.0060 C   0  0  2  0  0  3  0  0  0  0  0  0
  192.4740  175.8460  144.0010 C   0  0  1  0  0  3  0  0  0  0  0  0
  193.7610  170.7890  145.0470 O   0  0  0  0  0  0  0  0  0  0  0  0
  194.5080  171.9620  145.1500 C   0  0  0  0  0  0  0  0  0  0  0  0
  193.9400  173.2350  144.8250 N   0  0  0  0  0  2  0  0  0  0  0  0
  195.7140  171.8970  145.5050 O   0  0  0  0  0  1  0  0  0  0  0  0
  192.5160  175.0210  146.4680 C   0  0  1  0  0  3  0  0  0  0  0  0
  193.6480  175.9790  146.7070 C   0  0  0  0  0  0  0  0  0  0  0  0
  193.3860  177.2410  147.2200 O   0  0  0  0  0  1  0  0  0  0  0  0
  194.8380  175.6430  146.4610 O   0  0  0  0  0  0  0  0  0  0  0  0
  191.4640  175.1380  147.4020 O   0  0  0  0  0  0  0  0  0  0  0  0
  190.2890  174.6410  146.8170 C   0  0  0  0  0  2  0  0  0  0  0  0
  189.1350  175.2710  147.4360 N   0  0  0  0  0  2  0  0  0  0  0  0
  186.8820  177.5670  146.3250 C   0  0  2  0  0  0  0  0  0  0  0  0
  188.3880  175.9290  146.3770 C   0  0  2  0  0  3  0  0  0  0  0  0
  186.6200  178.5560  147.4380 C   0  0  0  0  0  2  0  0  0  0  0  0
  185.6200  177.6000  145.4750 C   0  0  2  0  0  3  0  0  0  0  0  0
  189.0980  177.0530  145.9220 O   0  0  0  0  0  0  0  0  0  0  0  0
  184.4840  177.8690  146.4440 C   0  0  0  0  0  2  0  0  0  0  0  0
  187.1200  176.3010  146.8620 O   0  0  0  0  0  0  0  0  0  0  0  0
  188.0990  177.9450  145.5430 C   0  0  0  0  0  2  0  0  0  0  0  0
  185.1130  178.5120  147.6770 C   0  0  0  0  0  2  0  0  0  0  0  0
  185.4150  176.3940  144.8050 O   0  0  0  0  0  1  0  0  0  0  0  0
  190.1320  174.2130  141.4670 C   0  0  0  0  0  2  0  0  0  0  0  0
  188.8390  174.5680  140.7520 C   0  0  1  0  0  3  0  0  0  0  0  0
  188.0460  173.2910  140.5060 C   0  0  0  0  0  2  0  0  0  0  0  0
  187.5330  174.7980  137.9290 O   0  0  0  0  0  0  0  0  0  0  0  0
  189.6250  173.8700  136.0720 N   0  0  0  0  0  1  0  0  0  0  0  0
  188.4150  173.9790  138.1550 C   0  0  0  0  0  0  0  0  0  0  0  0
  189.7570  173.9940  137.5140 C   0  0  1  0  0  3  0  0  0  0  0  0
  188.2600  172.8230  139.0690 C   0  0  1  0  0  3  0  0  0  0  0  0
  190.3760  172.7930  138.0500 N   0  0  0  0  0  0  0  0  0  0  0  0
  189.6070  172.2000  138.9140 C   0  0  0  0  0  0  0  0  0  0  0  0
  189.9280  170.9230  139.4910 N   0  0  0  0  0  0  0  0  0  0  0  0
  191.0770  170.5600  139.9810 C   0  0  0  0  0  3  0  0  0  0  0  0
  192.2740  171.4550  140.0360 C   0  0  0  0  0  2  0  0  0  0  0  0
  193.1400  170.9190  137.8800 O   0  0  0  0  0  1  0  0  0  0  0  0
  193.4220  170.8560  139.2460 C   0  0  2  0  0  3  0  0  0  0  0  0
  193.6090  169.4200  139.6590 C   0  0  0  0  0  1  0  0  0  0  0  0
  188.0260  175.5280  141.5940 C   0  0  0  0  0  2  0  0  0  0  0  0
  187.4340  176.6170  140.7200 C   0  0  0  0  0  2  0  0  0  0  0  0
  186.8330  177.6970  141.5910 C   0  0  0  0  0  2  0  0  0  0  0  0
  185.3140  177.5960  141.6080 C   0  0  0  0  0  2  0  0  0  0  0  0
  184.7520  178.5420  140.6550 N   0  0  0  0  0  2  0  0  0  0  0  0
  183.4260  178.0580  140.3210 C   0  0  0  0  0  2  0  0  0  0  0  0
  182.4840  178.2840  141.4870 C   0  0  0  0  0  2  0  0  0  0  0  0
  180.7990  178.3880  140.9170 S   0  0  0  0  0  0  0  0  0  0  0  0
  180.3320  180.0940  140.7550 C   0  0  0  0  0  1  0  0  0  0  0  0
  179.9020  177.7210  141.9210 O   0  0  0  0  0  0  0  0  0  0  0  0
  180.6500  177.7010  139.5880 O   0  0  0  0  0  0  0  0  0  0  0  0
  2  1  1  1  0  0  0
  2  5  1  0  0  0  0
  2  7  1  0  0  0  0
  4 10  1  1  0  0  0
  4  6  1  0  0  0  0
  5  4  1  0  0  0  0
  6 12  1  1  0  0  0
  7  3  1  1  0  0  0
  7  6  1  0  0  0  0
  8  9  2  0  0  0  0
  9 11  1  0  0  0  0
 10  9  1  0  0  0  0
 12 13  1  6  0  0  0
 12 16  1  0  0  0  0
 13 14  1  0  0  0  0
 15 13  2  0  0  0  0
 17 16  1  0  0  0  0
 17 18  1  0  0  0  0
 19 26  1  6  0  0  0
 19 25  1  0  0  0  0
 19 21  1  0  0  0  0
 20 25  1  0  0  0  0
 20 18  1  1  0  0  0
 21 27  1  0  0  0  0
 22 28  1  1  0  0  0
 22 19  1  0  0  0  0
 22 24  1  0  0  0  0
 23 20  1  0  0  0  0
 24 27  1  0  0  0  0
 26 23  1  0  0  0  0
 29  1  1  0  0  0  0
 30 31  1  1  0  0  0
 30 29  1  0  0  0  0
 30 45  1  0  0  0  0
 32 34  2  0  0  0  0
 34 36  1  0  0  0  0
 35 33  1  6  0  0  0
 35 37  1  0  0  0  0
 35 34  1  0  0  0  0
 36 31  1  1  0  0  0
 37 38  2  0  0  0  0
 38 36  1  0  0  0  0
 38 39  1  0  0  0  0
 39 40  2  0  0  0  0
 40 41  1  0  0  0  0
 42 43  1  0  0  0  0
 43 44  1  1  0  0  0
 43 41  1  0  0  0  0
 46 47  1  0  0  0  0
 46 45  1  0  0  0  0
 47 48  1  0  0  0  0
 49 48  1  0  0  0  0
 50 49  1  0  0  0  0
 50 51  1  0  0  0  0
 52 51  1  0  0  0  0
 52 54  2  0  0  0  0
 53 52  1  0  0  0  0
 55 52  2  0  0  0  0
M  END
>  <MODEL>
4

>  <REMARK>
 VINA RESULT:      -5.9      2.849      7.955
  Name = 
  23 active torsions:
  status: ('A' for Active; 'I' for Inactive)
    1  A    between atoms: C_1  and  C_23
    2  A    between atoms: C_1  and  C_47
    3  A    between atoms: C_2  and  C_29
    4  A    between atoms: S_5  and  C_31
    5  A    between atoms: C_7  and  C_20
    6  A    between atoms: C_8  and  N_45
    7  A    between atoms: N_9  and  C_26
    8  A    between atoms: N_9  and  C_47
    9  A    between atoms: N_12  and  C_49
   10  A    between atoms: C_15  and  C_16
   11  A    between atoms: C_15  and  C_23
   12  A    between atoms: C_16  and  C_40
   13  A    between atoms: C_16  and  C_55
   14  A    between atoms: C_19  and  C_43
   15  A    between atoms: C_20  and  O_38
   16  A    between atoms: C_20  and  C_46
   17  A    between atoms: C_21  and  O_38
   18  A    between atoms: C_21  and  N_45
   19  A    between atoms: C_25  and  C_40
   20  A    between atoms: C_26  and  C_31
   21  A    between atoms: C_29  and  C_55
   22  A    between atoms: C_30  and  N_42
   23  A    between atoms: C_41  and  C_43
                            x       y       z     vdW  Elec       q    Type
                         _______ _______ _______ _____ _____    ______ ____

>  <TORSDO>
F 23

$$$$
=
 OpenBabel11042417533D

 55 58  0  0  1  0  0  0  0  0999 V2000
  191.9050  174.4940  144.3110 C   0  0  0  0  0  2  0  0  0  0  0  0
  190.9110  173.4280  143.8180 C   0  0  2  0  0  3  0  0  0  0  0  0
  190.3320  175.0500  142.0990 O   0  0  0  0  0  1  0  0  0  0  0  0
  191.8770  171.7500  142.2770 C   0  0  2  0  0  3  0  0  0  0  0  0
  191.5720  172.0490  143.7460 C   0  0  0  0  0  2  0  0  0  0  0  0
  191.5830  173.0610  141.5560 C   0  0  2  0  0  3  0  0  0  0  0  0
  190.4790  173.6920  142.3840 C   0  0  1  0  0  3  0  0  0  0  0  0
  192.7100  168.9320  141.5740 O   0  0  0  0  0  1  0  0  0  0  0  0
  191.3920  169.3610  141.4220 C   0  0  0  0  0  0  0  0  0  0  0  0
  190.9990  170.6910  141.7730 N   0  0  0  0  0  2  0  0  0  0  0  0
  190.5250  168.5520  140.9980 O   0  0  0  0  0  0  0  0  0  0  0  0
  191.2870  172.8920  140.0440 C   0  0  1  0  0  3  0  0  0  0  0  0
  189.8660  173.0420  139.5820 C   0  0  0  0  0  0  0  0  0  0  0  0
  188.9740  171.9920  139.7470 O   0  0  0  0  0  1  0  0  0  0  0  0
  189.4700  174.1180  139.0570 O   0  0  0  0  0  0  0  0  0  0  0  0
  192.2310  173.5050  139.1910 O   0  0  0  0  0  0  0  0  0  0  0  0
  193.1690  174.1900  139.9800 C   0  0  0  0  0  2  0  0  0  0  0  0
  194.0650  174.9450  139.1210 N   0  0  0  0  0  2  0  0  0  0  0  0
  196.9460  173.2630  138.4430 C   0  0  2  0  0  0  0  0  0  0  0  0
  195.4190  174.5330  139.4500 C   0  0  2  0  0  3  0  0  0  0  0  0
  196.9320  172.8620  136.9870 C   0  0  0  0  0  2  0  0  0  0  0  0
  197.8470  172.2400  139.1170 C   0  0  2  0  0  3  0  0  0  0  0  0
  196.3380  175.4450  138.9030 O   0  0  0  0  0  0  0  0  0  0  0  0
  197.6430  170.9480  138.3480 C   0  0  0  0  0  2  0  0  0  0  0  0
  195.6470  173.2360  138.9550 O   0  0  0  0  0  0  0  0  0  0  0  0
  197.4510  174.6600  138.6130 C   0  0  0  0  0  2  0  0  0  0  0  0
  197.0970  171.3440  136.9790 C   0  0  0  0  0  2  0  0  0  0  0  0
  197.5190  172.0650  140.4620 O   0  0  0  0  0  1  0  0  0  0  0  0
  193.0080  173.9280  145.2020 C   0  0  0  0  0  2  0  0  0  0  0  0
  193.4250  174.8990  146.2940 C   0  0  1  0  0  3  0  0  0  0  0  0
  194.7610  175.5240  145.9130 C   0  0  0  0  0  2  0  0  0  0  0  0
  195.1340  176.2110  142.9860 O   0  0  0  0  0  0  0  0  0  0  0  0
  197.6960  174.9690  142.2300 N   0  0  0  0  0  1  0  0  0  0  0  0
  195.8810  175.5580  143.7030 C   0  0  0  0  0  0  0  0  0  0  0  0
  197.3590  175.4980  143.5400 C   0  0  1  0  0  3  0  0  0  0  0  0
  195.4200  174.6940  144.8150 C   0  0  1  0  0  3  0  0  0  0  0  0
  197.7510  174.5450  144.5660 N   0  0  0  0  0  0  0  0  0  0  0  0
  196.7330  174.1580  145.2760 C   0  0  0  0  0  0  0  0  0  0  0  0
  196.8290  173.1210  146.2670 N   0  0  0  0  0  0  0  0  0  0  0  0
  196.8090  171.8380  146.0510 C   0  0  0  0  0  3  0  0  0  0  0  0
  196.7000  171.2280  144.6900 C   0  0  0  0  0  2  0  0  0  0  0  0
  194.7540  170.5580  143.4850 O   0  0  0  0  0  1  0  0  0  0  0  0
  195.5140  170.2840  144.6240 C   0  0  2  0  0  3  0  0  0  0  0  0
  194.6660  170.4700  145.8550 C   0  0  0  0  0  1  0  0  0  0  0  0
  192.3770  175.9790  146.4570 C   0  0  0  0  0  2  0  0  0  0  0  0
  191.5010  175.6800  147.6580 C   0  0  0  0  0  2  0  0  0  0  0  0
  190.0450  175.7200  147.2490 C   0  0  0  0  0  2  0  0  0  0  0  0
  189.5910  177.1510  147.0030 C   0  0  0  0  0  2  0  0  0  0  0  0
  189.5570  177.4120  145.5710 N   0  0  0  0  0  2  0  0  0  0  0  0
  188.7620  176.3560  144.9740 C   0  0  0  0  0  2  0  0  0  0  0  0
  187.3120  176.7900  144.8840 C   0  0  0  0  0  2  0  0  0  0  0  0
  186.7580  176.7680  143.1910 S   0  0  0  0  0  0  0  0  0  0  0  0
  187.6270  178.0110  142.2670 C   0  0  0  0  0  1  0  0  0  0  0  0
  185.2850  177.0620  143.1550 O   0  0  0  0  0  0  0  0  0  0  0  0
  187.0060  175.4210  142.5730 O   0  0  0  0  0  0  0  0  0  0  0  0
  1 29  1  0  0  0  0
  2  1  1  6  0  0  0
  4 10  1  6  0  0  0
  4  5  1  0  0  0  0
  5  2  1  0  0  0  0
  6 12  1  6  0  0  0
  6  4  1  0  0  0  0
  6  7  1  0  0  0  0
  7  3  1  1  0  0  0
  7  2  1  0  0  0  0
  9  8  1  0  0  0  0
  9 10  1  0  0  0  0
 11  9  2  0  0  0  0
 12 16  1  6  0  0  0
 13 14  1  0  0  0  0
 13 12  1  0  0  0  0
 15 13  2  0  0  0  0
 16 17  1  0  0  0  0
 18 17  1  0  0  0  0
 19 21  1  6  0  0  0
 19 26  1  0  0  0  0
 19 25  1  0  0  0  0
 19 22  1  0  0  0  0
 20 18  1  6  0  0  0
 22 28  1  1  0  0  0
 23 20  1  0  0  0  0
 24 22  1  0  0  0  0
 25 20  1  0  0  0  0
 26 23  1  0  0  0  0
 27 21  1  0  0  0  0
 27 24  1  0  0  0  0
 30 29  1  6  0  0  0
 30 45  1  0  0  0  0
 31 30  1  0  0  0  0
 32 34  2  0  0  0  0
 34 36  1  0  0  0  0
 35 33  1  6  0  0  0
 35 34  1  0  0  0  0
 35 37  1  0  0  0  0
 36 38  1  0  0  0  0
 36 31  1  1  0  0  0
 37 38  2  0  0  0  0
 38 39  1  0  0  0  0
 40 39  2  0  0  0  0
 41 40  1  0  0  0  0
 42 43  1  0  0  0  0
 43 41  1  0  0  0  0
 43 44  1  1  0  0  0
 45 46  1  0  0  0  0
 47 46  1  0  0  0  0
 48 47  1  0  0  0  0
 49 48  1  0  0  0  0
 50 49  1  0  0  0  0
 51 50  1  0  0  0  0
 52 51  1  0  0  0  0
 53 52  1  0  0  0  0
 54 52  2  0  0  0  0
 55 52  2  0  0  0  0
M  END
>  <MODEL>
5

>  <REMARK>
 VINA RESULT:      -5.9      3.490      7.017
  Name = 
  23 active torsions:
  status: ('A' for Active; 'I' for Inactive)
    1  A    between atoms: C_1  and  C_23
    2  A    between atoms: C_1  and  C_47
    3  A    between atoms: C_2  and  C_29
    4  A    between atoms: S_5  and  C_31
    5  A    between atoms: C_7  and  C_20
    6  A    between atoms: C_8  and  N_45
    7  A    between atoms: N_9  and  C_26
    8  A    between atoms: N_9  and  C_47
    9  A    between atoms: N_12  and  C_49
   10  A    between atoms: C_15  and  C_16
   11  A    between atoms: C_15  and  C_23
   12  A    between atoms: C_16  and  C_40
   13  A    between atoms: C_16  and  C_55
   14  A    between atoms: C_19  and  C_43
   15  A    between atoms: C_20  and  O_38
   16  A    between atoms: C_20  and  C_46
   17  A    between atoms: C_21  and  O_38
   18  A    between atoms: C_21  and  N_45
   19  A    between atoms: C_25  and  C_40
   20  A    between atoms: C_26  and  C_31
   21  A    between atoms: C_29  and  C_55
   22  A    between atoms: C_30  and  N_42
   23  A    between atoms: C_41  and  C_43
                            x       y       z     vdW  Elec       q    Type
                         _______ _______ _______ _____ _____    ______ ____

>  <TORSDO>
F 23

$$$$
=
 OpenBabel11042417533D

 55 58  0  0  1  0  0  0  0  0999 V2000
  191.5360  173.0580  142.3380 C   0  0  0  0  0  2  0  0  0  0  0  0
  192.8200  172.2120  142.4050 C   0  0  2  0  0  3  0  0  0  0  0  0
  193.5030  173.4550  140.4270 O   0  0  0  0  0  1  0  0  0  0  0  0
  194.5750  173.1160  143.8970 C   0  0  2  0  0  3  0  0  0  0  0  0
  193.3770  172.1660  143.8290 C   0  0  0  0  0  2  0  0  0  0  0  0
  194.5470  173.8540  142.5640 C   0  0  2  0  0  3  0  0  0  0  0  0
  193.9460  172.8470  141.6020 C   0  0  1  0  0  3  0  0  0  0  0  0
  196.5530  173.3270  146.1720 O   0  0  0  0  0  1  0  0  0  0  0  0
  196.7730  172.4700  145.0940 C   0  0  0  0  0  0  0  0  0  0  0  0
  195.8240  172.3610  144.0280 N   0  0  0  0  0  2  0  0  0  0  0  0
  197.8090  171.7570  145.0730 O   0  0  0  0  0  0  0  0  0  0  0  0
  195.9140  174.4570  142.1520 C   0  0  1  0  0  3  0  0  0  0  0  0
  196.5400  175.4730  143.0640 C   0  0  0  0  0  0  0  0  0  0  0  0
  197.8790  175.3550  143.4100 O   0  0  0  0  0  0  0  0  0  0  0  0
  195.8660  176.4410  143.5080 O   0  0  0  0  0  1  0  0  0  0  0  0
  196.8310  173.5210  141.6260 O   0  0  0  0  0  0  0  0  0  0  0  0
  197.2170  173.9440  140.3450 C   0  0  0  0  0  2  0  0  0  0  0  0
  196.7480  172.9870  139.3570 N   0  0  0  0  0  2  0  0  0  0  0  0
  195.6860  174.6640  136.5920 C   0  0  2  0  0  0  0  0  0  0  0  0
  196.9730  173.5780  138.0490 C   0  0  2  0  0  3  0  0  0  0  0  0
  194.3480  175.2950  136.9020 C   0  0  0  0  0  2  0  0  0  0  0  0
  195.6840  174.4760  135.0820 C   0  0  2  0  0  3  0  0  0  0  0  0
  197.3310  174.9290  138.1930 O   0  0  0  0  0  0  0  0  0  0  0  0
  194.2390  174.1990  134.7090 C   0  0  0  0  0  2  0  0  0  0  0  0
  195.8060  173.4500  137.2720 O   0  0  0  0  0  0  0  0  0  0  0  0
  196.8120  175.5330  137.0510 C   0  0  0  0  0  2  0  0  0  0  0  0
  193.3870  174.7540  135.8470 C   0  0  0  0  0  2  0  0  0  0  0  0
  196.5010  173.4150  134.6910 O   0  0  0  0  0  1  0  0  0  0  0  0
  191.0820  173.5760  143.7000 C   0  0  0  0  0  2  0  0  0  0  0  0
  191.1310  175.0930  143.7880 C   0  0  1  0  0  3  0  0  0  0  0  0
  190.5780  175.6790  142.4950 C   0  0  0  0  0  2  0  0  0  0  0  0
  189.2700  178.3730  142.9550 O   0  0  0  0  0  0  0  0  0  0  0  0
  186.6720  178.2050  141.5740 N   0  0  0  0  0  1  0  0  0  0  0  0
  188.8210  177.4180  142.3330 C   0  0  0  0  0  0  0  0  0  0  0  0
  187.8960  177.5330  141.1740 C   0  0  1  0  0  3  0  0  0  0  0  0
  189.0970  176.0020  142.6720 C   0  0  1  0  0  3  0  0  0  0  0  0
  187.6070  176.1430  140.8620 N   0  0  0  0  0  0  0  0  0  0  0  0
  188.2820  175.3300  141.6190 C   0  0  0  0  0  0  0  0  0  0  0  0
  188.0800  173.9070  141.6030 N   0  0  0  0  0  0  0  0  0  0  0  0
  188.3460  173.0960  140.6210 C   0  0  0  0  0  3  0  0  0  0  0  0
  188.9400  173.5370  139.3200 C   0  0  0  0  0  2  0  0  0  0  0  0
  190.9420  173.3930  138.0320 O   0  0  0  0  0  1  0  0  0  0  0  0
  190.1900  172.7360  139.0080 C   0  0  2  0  0  3  0  0  0  0  0  0
  189.7900  171.3730  138.5070 C   0  0  0  0  0  1  0  0  0  0  0  0
  190.3080  175.5710  144.9660 C   0  0  0  0  0  2  0  0  0  0  0  0
  190.1010  174.4370  145.9520 C   0  0  0  0  0  2  0  0  0  0  0  0
  189.0610  174.8370  146.9750 C   0  0  0  0  0  2  0  0  0  0  0  0
  188.6350  176.2840  146.7760 C   0  0  0  0  0  2  0  0  0  0  0  0
  187.1840  176.3560  146.6830 N   0  0  0  0  0  2  0  0  0  0  0  0
  186.8760  177.5170  145.8690 C   0  0  0  0  0  2  0  0  0  0  0  0
  185.8060  177.1670  144.8530 C   0  0  0  0  0  2  0  0  0  0  0  0
  184.6650  178.5220  144.6580 S   0  0  0  0  0  0  0  0  0  0  0  0
  185.5720  180.0330  144.4340 C   0  0  0  0  0  1  0  0  0  0  0  0
  183.8200  178.6290  145.8960 O   0  0  0  0  0  0  0  0  0  0  0  0
  183.7740  178.2930  143.4700 O   0  0  0  0  0  0  0  0  0  0  0  0
  1 29  1  0  0  0  0
  2  1  1  1  0  0  0
  2  5  1  0  0  0  0
  4 10  1  6  0  0  0
  5  4  1  0  0  0  0
  6 12  1  6  0  0  0
  6  4  1  0  0  0  0
  7  3  1  6  0  0  0
  7  2  1  0  0  0  0
  7  6  1  0  0  0  0
  9  8  1  0  0  0  0
 10  9  1  0  0  0  0
 11  9  2  0  0  0  0
 12 16  1  1  0  0  0
 12 13  1  0  0  0  0
 13 14  2  0  0  0  0
 13 15  1  0  0  0  0
 17 16  1  0  0  0  0
 18 17  1  0  0  0  0
 19 21  1  1  0  0  0
 19 26  1  0  0  0  0
 19 25  1  0  0  0  0
 20 23  1  0  0  0  0
 20 18  1  1  0  0  0
 22 28  1  1  0  0  0
 22 19  1  0  0  0  0
 24 22  1  0  0  0  0
 24 27  1  0  0  0  0
 25 20  1  0  0  0  0
 26 23  1  0  0  0  0
 27 21  1  0  0  0  0
 29 30  1  0  0  0  0
 30 31  1  6  0  0  0
 30 45  1  0  0  0  0
 34 36  1  0  0  0  0
 34 32  2  0  0  0  0
 35 33  1  1  0  0  0
 35 34  1  0  0  0  0
 36 31  1  6  0  0  0
 37 35  1  0  0  0  0
 37 38  2  0  0  0  0
 38 36  1  0  0  0  0
 39 38  1  0  0  0  0
 40 39  2  0  0  0  0
 41 40  1  0  0  0  0
 42 43  1  0  0  0  0
 43 44  1  6  0  0  0
 43 41  1  0  0  0  0
 45 46  1  0  0  0  0
 46 47  1  0  0  0  0
 48 47  1  0  0  0  0
 49 48  1  0  0  0  0
 50 49  1  0  0  0  0
 51 50  1  0  0  0  0
 52 51  1  0  0  0  0
 52 54  2  0  0  0  0
 53 52  1  0  0  0  0
 55 52  2  0  0  0  0
M  END
>  <MODEL>
6

>  <REMARK>
 VINA RESULT:      -5.7      2.936      6.102
  Name = 
  23 active torsions:
  status: ('A' for Active; 'I' for Inactive)
    1  A    between atoms: C_1  and  C_23
    2  A    between atoms: C_1  and  C_47
    3  A    between atoms: C_2  and  C_29
    4  A    between atoms: S_5  and  C_31
    5  A    between atoms: C_7  and  C_20
    6  A    between atoms: C_8  and  N_45
    7  A    between atoms: N_9  and  C_26
    8  A    between atoms: N_9  and  C_47
    9  A    between atoms: N_12  and  C_49
   10  A    between atoms: C_15  and  C_16
   11  A    between atoms: C_15  and  C_23
   12  A    between atoms: C_16  and  C_40
   13  A    between atoms: C_16  and  C_55
   14  A    between atoms: C_19  and  C_43
   15  A    between atoms: C_20  and  O_38
   16  A    between atoms: C_20  and  C_46
   17  A    between atoms: C_21  and  O_38
   18  A    between atoms: C_21  and  N_45
   19  A    between atoms: C_25  and  C_40
   20  A    between atoms: C_26  and  C_31
   21  A    between atoms: C_29  and  C_55
   22  A    between atoms: C_30  and  N_42
   23  A    between atoms: C_41  and  C_43
                            x       y       z     vdW  Elec       q    Type
                         _______ _______ _______ _____ _____    ______ ____

>  <TORSDO>
F 23

$$$$
=
 OpenBabel11042417533D

 55 58  0  0  1  0  0  0  0  0999 V2000
  188.5770  176.5220  143.1010 C   0  0  0  0  0  2  0  0  0  0  0  0
  189.6210  176.0170  142.0900 C   0  0  2  0  0  3  0  0  0  0  0  0
  191.2100  177.3430  143.3710 O   0  0  0  0  0  1  0  0  0  0  0  0
  190.6140  173.8190  142.6400 C   0  0  2  0  0  3  0  0  0  0  0  0
  189.4890  174.5090  141.8660 C   0  0  0  0  0  2  0  0  0  0  0  0
  191.2400  174.9340  143.4710 C   0  0  2  0  0  3  0  0  0  0  0  0
  191.0360  176.1760  142.6260 C   0  0  1  0  0  3  0  0  0  0  0  0
  190.5060  171.0900  141.3460 O   0  0  0  0  0  1  0  0  0  0  0  0
  191.5700  171.9630  141.1170 C   0  0  0  0  0  0  0  0  0  0  0  0
  191.6070  173.2600  141.7190 N   0  0  0  0  0  2  0  0  0  0  0  0
  192.4980  171.6140  140.3420 O   0  0  0  0  0  0  0  0  0  0  0  0
  192.6960  174.6430  143.9140 C   0  0  1  0  0  3  0  0  0  0  0  0
  193.8020  175.4170  143.2550 C   0  0  0  0  0  0  0  0  0  0  0  0
  194.0910  175.1990  141.9150 O   0  0  0  0  0  0  0  0  0  0  0  0
  194.4620  176.2740  143.9020 O   0  0  0  0  0  1  0  0  0  0  0  0
  192.8630  174.4850  145.3080 O   0  0  0  0  0  0  0  0  0  0  0  0
  193.7460  173.4180  145.5340 C   0  0  0  0  0  2  0  0  0  0  0  0
  193.3090  172.2580  144.7750 N   0  0  0  0  0  2  0  0  0  0  0  0
  196.2240  170.9520  143.6010 C   0  0  2  0  0  0  0  0  0  0  0  0
  194.3890  171.2880  144.8160 C   0  0  2  0  0  3  0  0  0  0  0  0
  196.8560  171.9590  142.6690 C   0  0  0  0  0  2  0  0  0  0  0  0
  196.7570  169.6060  143.1340 C   0  0  2  0  0  3  0  0  0  0  0  0
  195.4390  171.7790  145.6110 O   0  0  0  0  0  0  0  0  0  0  0  0
  196.9320  169.7370  141.6330 C   0  0  0  0  0  2  0  0  0  0  0  0
  194.8330  171.0270  143.5060 O   0  0  0  0  0  0  0  0  0  0  0  0
  196.5800  171.2380  145.0250 C   0  0  0  0  0  2  0  0  0  0  0  0
  197.0340  171.2310  141.3390 C   0  0  0  0  0  2  0  0  0  0  0  0
  195.8770  168.5670  143.4350 O   0  0  0  0  0  1  0  0  0  0  0  0
  187.2380  175.7950  143.0010 C   0  0  0  0  0  2  0  0  0  0  0  0
  186.0610  176.7550  142.9670 C   0  0  1  0  0  3  0  0  0  0  0  0
  185.4500  176.8350  144.3600 C   0  0  0  0  0  2  0  0  0  0  0  0
  185.0400  179.7130  145.2150 O   0  0  0  0  0  0  0  0  0  0  0  0
  186.1410  179.8630  147.9440 N   0  0  0  0  0  1  0  0  0  0  0  0
  185.5530  178.8060  145.8580 C   0  0  0  0  0  0  0  0  0  0  0  0
  185.5080  178.7020  147.3420 C   0  0  1  0  0  3  0  0  0  0  0  0
  186.3320  177.6990  145.2570 C   0  0  1  0  0  3  0  0  0  0  0  0
  186.3150  177.5200  147.6000 N   0  0  0  0  0  0  0  0  0  0  0  0
  186.7090  176.9570  146.4960 C   0  0  0  0  0  0  0  0  0  0  0  0
  187.6270  175.8510  146.4740 N   0  0  0  0  0  0  0  0  0  0  0  0
  188.8900  175.8850  146.7850 C   0  0  0  0  0  3  0  0  0  0  0  0
  189.5970  177.1200  147.2460 C   0  0  0  0  0  2  0  0  0  0  0  0
  191.8250  176.9950  146.4070 O   0  0  0  0  0  1  0  0  0  0  0  0
  191.0500  176.8160  147.5550 C   0  0  2  0  0  3  0  0  0  0  0  0
  191.1680  175.3900  148.0270 C   0  0  0  0  0  1  0  0  0  0  0  0
  186.5220  178.1280  142.5250 C   0  0  0  0  0  2  0  0  0  0  0  0
  186.3290  178.2880  141.0300 C   0  0  0  0  0  2  0  0  0  0  0  0
  184.9850  177.7210  140.6270 C   0  0  0  0  0  2  0  0  0  0  0  0
  183.8530  178.4940  141.2880 C   0  0  0  0  0  2  0  0  0  0  0  0
  182.6090  178.2410  140.5740 N   0  0  0  0  0  2  0  0  0  0  0  0
  181.5310  178.5390  141.4980 C   0  0  0  0  0  2  0  0  0  0  0  0
  180.4610  179.3540  140.7980 C   0  0  0  0  0  2  0  0  0  0  0  0
  178.8560  178.6250  141.0520 S   0  0  0  0  0  0  0  0  0  0  0  0
  178.5310  177.4420  139.7670 C   0  0  0  0  0  1  0  0  0  0  0  0
  177.8150  179.7080  141.0050 O   0  0  0  0  0  0  0  0  0  0  0  0
  178.7940  177.9400  142.3880 O   0  0  0  0  0  0  0  0  0  0  0  0
  2  7  1  0  0  0  0
  2  1  1  1  0  0  0
  4 10  1  6  0  0  0
  4  6  1  0  0  0  0
  5  2  1  0  0  0  0
  5  4  1  0  0  0  0
  6 12  1  6  0  0  0
  7  3  1  1  0  0  0
  7  6  1  0  0  0  0
  9  8  1  0  0  0  0
  9 10  1  0  0  0  0
 11  9  2  0  0  0  0
 12 13  1  1  0  0  0
 12 16  1  0  0  0  0
 13 15  1  0  0  0  0
 14 13  2  0  0  0  0
 16 17  1  0  0  0  0
 18 17  1  0  0  0  0
 19 21  1  6  0  0  0
 19 26  1  0  0  0  0
 20 18  1  6  0  0  0
 20 23  1  0  0  0  0
 22 28  1  6  0  0  0
 22 19  1  0  0  0  0
 24 22  1  0  0  0  0
 25 19  1  0  0  0  0
 25 20  1  0  0  0  0
 26 23  1  0  0  0  0
 27 24  1  0  0  0  0
 27 21  1  0  0  0  0
 29  1  1  0  0  0  0
 30 45  1  1  0  0  0
 30 29  1  0  0  0  0
 30 31  1  0  0  0  0
 32 34  2  0  0  0  0
 34 35  1  0  0  0  0
 35 37  1  0  0  0  0
 35 33  1  1  0  0  0
 36 31  1  6  0  0  0
 36 34  1  0  0  0  0
 36 38  1  0  0  0  0
 38 37  2  0  0  0  0
 39 38  1  0  0  0  0
 39 40  2  0  0  0  0
 40 41  1  0  0  0  0
 41 43  1  0  0  0  0
 42 43  1  0  0  0  0
 43 44  1  6  0  0  0
 46 45  1  0  0  0  0
 47 46  1  0  0  0  0
 47 48  1  0  0  0  0
 49 48  1  0  0  0  0
 49 50  1  0  0  0  0
 51 52  1  0  0  0  0
 51 50  1  0  0  0  0
 52 55  2  0  0  0  0
 53 52  1  0  0  0  0
 54 52  2  0  0  0  0
M  END
>  <MODEL>
7

>  <REMARK>
 VINA RESULT:      -5.7      2.154      3.995
  Name = 
  23 active torsions:
  status: ('A' for Active; 'I' for Inactive)
    1  A    between atoms: C_1  and  C_23
    2  A    between atoms: C_1  and  C_47
    3  A    between atoms: C_2  and  C_29
    4  A    between atoms: S_5  and  C_31
    5  A    between atoms: C_7  and  C_20
    6  A    between atoms: C_8  and  N_45
    7  A    between atoms: N_9  and  C_26
    8  A    between atoms: N_9  and  C_47
    9  A    between atoms: N_12  and  C_49
   10  A    between atoms: C_15  and  C_16
   11  A    between atoms: C_15  and  C_23
   12  A    between atoms: C_16  and  C_40
   13  A    between atoms: C_16  and  C_55
   14  A    between atoms: C_19  and  C_43
   15  A    between atoms: C_20  and  O_38
   16  A    between atoms: C_20  and  C_46
   17  A    between atoms: C_21  and  O_38
   18  A    between atoms: C_21  and  N_45
   19  A    between atoms: C_25  and  C_40
   20  A    between atoms: C_26  and  C_31
   21  A    between atoms: C_29  and  C_55
   22  A    between atoms: C_30  and  N_42
   23  A    between atoms: C_41  and  C_43
                            x       y       z     vdW  Elec       q    Type
                         _______ _______ _______ _____ _____    ______ ____

>  <TORSDO>
F 23

$$$$
=
 OpenBabel11042417533D

 55 58  0  0  1  0  0  0  0  0999 V2000
  188.3200  175.6240  142.8850 C   0  0  0  0  0  2  0  0  0  0  0  0
  188.8810  174.9530  141.6190 C   0  0  2  0  0  3  0  0  0  0  0  0
  191.0380  175.7920  142.3720 O   0  0  0  0  0  1  0  0  0  0  0  0
  189.4300  172.5540  141.8800 C   0  0  2  0  0  3  0  0  0  0  0  0
  188.3320  173.5330  141.4580 C   0  0  0  0  0  2  0  0  0  0  0  0
  190.5150  173.4400  142.4830 C   0  0  2  0  0  3  0  0  0  0  0  0
  190.3840  174.7450  141.7210 C   0  0  1  0  0  3  0  0  0  0  0  0
  188.2140  172.5150  139.1140 O   0  0  0  0  0  1  0  0  0  0  0  0
  189.3750  171.8010  139.4090 C   0  0  0  0  0  0  0  0  0  0  0  0
  189.9560  171.8370  140.7150 N   0  0  0  0  0  2  0  0  0  0  0  0
  189.9390  171.1380  138.5000 O   0  0  0  0  0  0  0  0  0  0  0  0
  191.9220  172.7930  142.4880 C   0  0  1  0  0  3  0  0  0  0  0  0
  192.0730  171.4380  143.1200 C   0  0  0  0  0  0  0  0  0  0  0  0
  192.8010  170.4520  142.4690 O   0  0  0  0  0  0  0  0  0  0  0  0
  191.5570  171.1910  144.2420 O   0  0  0  0  0  1  0  0  0  0  0  0
  192.6390  172.9410  141.2800 O   0  0  0  0  0  0  0  0  0  0  0  0
  193.8390  173.6160  141.5520 C   0  0  0  0  0  2  0  0  0  0  0  0
  193.7770  174.1960  142.8830 N   0  0  0  0  0  2  0  0  0  0  0  0
  196.3690  172.3700  144.1210 C   0  0  2  0  0  0  0  0  0  0  0  0
  195.1050  174.0800  143.4620 C   0  0  2  0  0  3  0  0  0  0  0  0
  196.1590  170.9240  143.7380 C   0  0  0  0  0  2  0  0  0  0  0  0
  197.2180  172.3160  145.3830 C   0  0  2  0  0  3  0  0  0  0  0  0
  196.0570  173.9250  142.4400 O   0  0  0  0  0  0  0  0  0  0  0  0
  196.7930  171.0510  146.1050 C   0  0  0  0  0  2  0  0  0  0  0  0
  195.1360  172.9850  144.3450 O   0  0  0  0  0  0  0  0  0  0  0  0
  197.0400  173.1280  143.0210 C   0  0  0  0  0  2  0  0  0  0  0  0
  196.1540  170.1490  145.0530 C   0  0  0  0  0  2  0  0  0  0  0  0
  197.0140  173.4330  146.1930 O   0  0  0  0  0  1  0  0  0  0  0  0
  186.8440  175.3180  143.1280 C   0  0  0  0  0  2  0  0  0  0  0  0
  186.0040  176.5790  143.2490 C   0  0  1  0  0  3  0  0  0  0  0  0
  185.4780  176.6850  144.6750 C   0  0  0  0  0  2  0  0  0  0  0  0
  185.1640  179.6260  145.3300 O   0  0  0  0  0  0  0  0  0  0  0  0
  186.3160  179.9360  148.0240 N   0  0  0  0  0  1  0  0  0  0  0  0
  185.6630  178.7520  146.0280 C   0  0  0  0  0  0  0  0  0  0  0  0
  185.6410  178.7540  147.5160 C   0  0  1  0  0  3  0  0  0  0  0  0
  186.4000  177.5830  145.4950 C   0  0  1  0  0  3  0  0  0  0  0  0
  186.4190  177.5710  147.8440 N   0  0  0  0  0  0  0  0  0  0  0  0
  186.7770  176.9200  146.7770 C   0  0  0  0  0  0  0  0  0  0  0  0
  187.6640  175.7890  146.8190 N   0  0  0  0  0  0  0  0  0  0  0  0
  188.9260  175.7800  146.5020 C   0  0  0  0  0  3  0  0  0  0  0  0
  189.6740  176.9930  146.0480 C   0  0  0  0  0  2  0  0  0  0  0  0
  191.8120  177.2840  145.0330 O   0  0  0  0  0  1  0  0  0  0  0  0
  191.1700  176.7670  146.1590 C   0  0  2  0  0  3  0  0  0  0  0  0
  191.4400  175.2880  146.2610 C   0  0  0  0  0  1  0  0  0  0  0  0
  186.8420  177.7950  142.9150 C   0  0  0  0  0  2  0  0  0  0  0  0
  186.1000  178.6870  141.9380 C   0  0  0  0  0  2  0  0  0  0  0  0
  184.9720  177.9110  141.2960 C   0  0  0  0  0  2  0  0  0  0  0  0
  183.6360  178.5990  141.5380 C   0  0  0  0  0  2  0  0  0  0  0  0
  182.7060  178.2450  140.4750 N   0  0  0  0  0  2  0  0  0  0  0  0
  181.4470  177.9170  141.1160 C   0  0  0  0  0  2  0  0  0  0  0  0
  180.4650  179.0590  140.9400 C   0  0  0  0  0  2  0  0  0  0  0  0
  178.8070  178.5180  141.3050 S   0  0  0  0  0  0  0  0  0  0  0  0
  178.0820  177.8060  139.8480 C   0  0  0  0  0  1  0  0  0  0  0  0
  177.9910  179.7030  141.7370 O   0  0  0  0  0  0  0  0  0  0  0  0
  178.8170  177.4970  142.4070 O   0  0  0  0  0  0  0  0  0  0  0  0
  1 29  1  0  0  0  0
  2  7  1  0  0  0  0
  2  1  1  1  0  0  0
  4 10  1  6  0  0  0
  4  6  1  0  0  0  0
  5  2  1  0  0  0  0
  5  4  1  0  0  0  0
  6 12  1  6  0  0  0
  7  3  1  1  0  0  0
  7  6  1  0  0  0  0
  8  9  1  0  0  0  0
  9 10  1  0  0  0  0
 11  9  2  0  0  0  0
 12 16  1  6  0  0  0
 12 13  1  0  0  0  0
 13 15  1  0  0  0  0
 14 13  2  0  0  0  0
 16 17  1  0  0  0  0
 17 18  1  0  0  0  0
 19 26  1  6  0  0  0
 19 25  1  0  0  0  0
 19 22  1  0  0  0  0
 20 18  1  6  0  0  0
 20 25  1  0  0  0  0
 21 19  1  0  0  0  0
 21 27  1  0  0  0  0
 22 24  1  0  0  0  0
 22 28  1  1  0  0  0
 23 26  1  0  0  0  0
 23 20  1  0  0  0  0
 27 24  1  0  0  0  0
 29 30  1  0  0  0  0
 30 45  1  1  0  0  0
 30 31  1  0  0  0  0
 32 34  2  0  0  0  0
 34 35  1  0  0  0  0
 35 37  1  0  0  0  0
 35 33  1  1  0  0  0
 36 31  1  6  0  0  0
 36 34  1  0  0  0  0
 36 38  1  0  0  0  0
 38 39  1  0  0  0  0
 38 37  2  0  0  0  0
 40 39  2  0  0  0  0
 41 43  1  0  0  0  0
 41 40  1  0  0  0  0
 42 43  1  0  0  0  0
 43 44  1  6  0  0  0
 46 45  1  0  0  0  0
 47 48  1  0  0  0  0
 47 46  1  0  0  0  0
 49 50  1  0  0  0  0
 49 48  1  0  0  0  0
 51 50  1  0  0  0  0
 51 52  1  0  0  0  0
 52 54  2  0  0  0  0
 52 55  2  0  0  0  0
 53 52  1  0  0  0  0
M  END
>  <MODEL>
8

>  <REMARK>
 VINA RESULT:      -5.7      1.977      3.373
  Name = 
  23 active torsions:
  status: ('A' for Active; 'I' for Inactive)
    1  A    between atoms: C_1  and  C_23
    2  A    between atoms: C_1  and  C_47
    3  A    between atoms: C_2  and  C_29
    4  A    between atoms: S_5  and  C_31
    5  A    between atoms: C_7  and  C_20
    6  A    between atoms: C_8  and  N_45
    7  A    between atoms: N_9  and  C_26
    8  A    between atoms: N_9  and  C_47
    9  A    between atoms: N_12  and  C_49
   10  A    between atoms: C_15  and  C_16
   11  A    between atoms: C_15  and  C_23
   12  A    between atoms: C_16  and  C_40
   13  A    between atoms: C_16  and  C_55
   14  A    between atoms: C_19  and  C_43
   15  A    between atoms: C_20  and  O_38
   16  A    between atoms: C_20  and  C_46
   17  A    between atoms: C_21  and  O_38
   18  A    between atoms: C_21  and  N_45
   19  A    between atoms: C_25  and  C_40
   20  A    between atoms: C_26  and  C_31
   21  A    between atoms: C_29  and  C_55
   22  A    between atoms: C_30  and  N_42
   23  A    between atoms: C_41  and  C_43
                            x       y       z     vdW  Elec       q    Type
                         _______ _______ _______ _____ _____    ______ ____

>  <TORSDO>
F 23

$$$$
=
 OpenBabel11042417533D

 55 58  0  0  1  0  0  0  0  0999 V2000
  188.7080  174.1730  141.1220 C   0  0  0  0  0  2  0  0  0  0  0  0
  188.8920  172.8830  140.3040 C   0  0  2  0  0  3  0  0  0  0  0  0
  188.1270  174.2100  138.4130 O   0  0  0  0  0  1  0  0  0  0  0  0
  191.1870  172.5200  139.4530 C   0  0  2  0  0  3  0  0  0  0  0  0
  190.2360  172.2200  140.6140 C   0  0  0  0  0  2  0  0  0  0  0  0
  190.4340  173.5340  138.6000 C   0  0  2  0  0  3  0  0  0  0  0  0
  188.9750  173.1780  138.8140 C   0  0  1  0  0  3  0  0  0  0  0  0
  193.7720  170.9530  139.4170 O   0  0  0  0  0  1  0  0  0  0  0  0
  192.6770  170.5700  138.6420 C   0  0  0  0  0  0  0  0  0  0  0  0
  191.4500  171.3050  138.6760 N   0  0  0  0  0  2  0  0  0  0  0  0
  192.7600  169.5410  137.9230 O   0  0  0  0  0  0  0  0  0  0  0  0
  190.9110  173.5920  137.1280 C   0  0  1  0  0  3  0  0  0  0  0  0
  189.9530  173.1520  136.0570 C   0  0  0  0  0  0  0  0  0  0  0  0
  189.2320  174.1010  135.3470 O   0  0  0  0  0  0  0  0  0  0  0  0
  189.8070  171.9300  135.7880 O   0  0  0  0  0  1  0  0  0  0  0  0
  191.6440  174.7530  136.7950 O   0  0  0  0  0  0  0  0  0  0  0  0
  193.0100  174.4330  136.7870 C   0  0  0  0  0  2  0  0  0  0  0  0
  193.6220  174.8920  138.0230 N   0  0  0  0  0  2  0  0  0  0  0  0
  196.8120  174.8300  136.8390 C   0  0  2  0  0  0  0  0  0  0  0  0
  194.9860  174.3930  138.0350 C   0  0  2  0  0  3  0  0  0  0  0  0
  197.0220  176.0480  135.9690 C   0  0  0  0  0  2  0  0  0  0  0  0
  197.8080  173.8060  136.3150 C   0  0  2  0  0  3  0  0  0  0  0  0
  195.7780  175.1980  138.8730 O   0  0  0  0  0  0  0  0  0  0  0  0
  197.9200  174.0720  134.8260 C   0  0  0  0  0  2  0  0  0  0  0  0
  195.4940  174.3860  136.7230 O   0  0  0  0  0  0  0  0  0  0  0  0
  197.0380  175.1520  138.2810 C   0  0  0  0  0  2  0  0  0  0  0  0
  197.4560  175.5090  134.6090 C   0  0  0  0  0  2  0  0  0  0  0  0
  197.3790  172.5000  136.5480 O   0  0  0  0  0  1  0  0  0  0  0  0
  188.8540  173.9610  142.6270 C   0  0  0  0  0  2  0  0  0  0  0  0
  189.2290  175.2400  143.3580 C   0  0  1  0  0  3  0  0  0  0  0  0
  190.2060  174.9000  144.4770 C   0  0  0  0  0  2  0  0  0  0  0  0
  188.8260  176.2020  146.8380 O   0  0  0  0  0  0  0  0  0  0  0  0
  191.0000  177.3960  148.4290 N   0  0  0  0  0  1  0  0  0  0  0  0
  190.0250  176.1760  146.5920 C   0  0  0  0  0  0  0  0  0  0  0  0
  191.0940  176.1890  147.6270 C   0  0  1  0  0  3  0  0  0  0  0  0
  190.5930  176.1730  145.2240 C   0  0  1  0  0  3  0  0  0  0  0  0
  192.3070  176.2290  146.8280 N   0  0  0  0  0  0  0  0  0  0  0  0
  192.0470  176.1670  145.5560 C   0  0  0  0  0  0  0  0  0  0  0  0
  193.0600  176.3220  144.5480 N   0  0  0  0  0  0  0  0  0  0  0  0
  194.3020  175.9430  144.6330 C   0  0  0  0  0  3  0  0  0  0  0  0
  194.8780  175.2490  145.8270 C   0  0  0  0  0  2  0  0  0  0  0  0
  196.7070  175.0710  144.3070 O   0  0  0  0  0  1  0  0  0  0  0  0
  196.1400  174.4990  145.4480 C   0  0  2  0  0  3  0  0  0  0  0  0
  195.7950  173.0580  145.1730 C   0  0  0  0  0  1  0  0  0  0  0  0
  189.8670  176.2200  142.3960 C   0  0  0  0  0  2  0  0  0  0  0  0
  189.1850  177.5710  142.4990 C   0  0  0  0  0  2  0  0  0  0  0  0
  187.9150  177.5640  141.6760 C   0  0  0  0  0  2  0  0  0  0  0  0
  186.9590  178.6490  142.1480 C   0  0  0  0  0  2  0  0  0  0  0  0
  185.6200  178.0930  142.2860 N   0  0  0  0  0  2  0  0  0  0  0  0
  185.5540  177.4880  143.6030 C   0  0  0  0  0  2  0  0  0  0  0  0
  185.9500  178.5020  144.6580 C   0  0  0  0  0  2  0  0  0  0  0  0
  185.1010  178.1730  146.1890 S   0  0  0  0  0  0  0  0  0  0  0  0
  185.9390  178.9970  147.5210 C   0  0  0  0  0  1  0  0  0  0  0  0
  185.1060  176.6910  146.4410 O   0  0  0  0  0  0  0  0  0  0  0  0
  183.6800  178.6560  146.1180 O   0  0  0  0  0  0  0  0  0  0  0  0
  1 29  1  0  0  0  0
  2  5  1  0  0  0  0
  2  1  1  1  0  0  0
  4 10  1  6  0  0  0
  4  5  1  0  0  0  0
  6 12  1  6  0  0  0
  6  7  1  0  0  0  0
  6  4  1  0  0  0  0
  7  3  1  1  0  0  0
  7  2  1  0  0  0  0
  9 10  1  0  0  0  0
  9  8  1  0  0  0  0
 11  9  2  0  0  0  0
 12 13  1  6  0  0  0
 14 13  2  0  0  0  0
 15 13  1  0  0  0  0
 16 12  1  0  0  0  0
 17 16  1  0  0  0  0
 17 18  1  0  0  0  0
 19 21  1  6  0  0  0
 19 26  1  0  0  0  0
 20 18  1  6  0  0  0
 20 23  1  0  0  0  0
 22 28  1  6  0  0  0
 22 19  1  0  0  0  0
 24 22  1  0  0  0  0
 25 19  1  0  0  0  0
 25 20  1  0  0  0  0
 26 23  1  0  0  0  0
 27 24  1  0  0  0  0
 27 21  1  0  0  0  0
 29 30  1  0  0  0  0
 30 45  1  6  0  0  0
 30 31  1  0  0  0  0
 34 32  2  0  0  0  0
 34 35  1  0  0  0  0
 35 33  1  1  0  0  0
 36 31  1  1  0  0  0
 36 38  1  0  0  0  0
 36 34  1  0  0  0  0
 37 35  1  0  0  0  0
 38 37  2  0  0  0  0
 39 40  2  0  0  0  0
 39 38  1  0  0  0  0
 40 41  1  0  0  0  0
 42 43  1  0  0  0  0
 43 44  1  6  0  0  0
 43 41  1  0  0  0  0
 45 46  1  0  0  0  0
 47 48  1  0  0  0  0
 47 46  1  0  0  0  0
 48 49  1  0  0  0  0
 49 50  1  0  0  0  0
 50 51  1  0  0  0  0
 51 52  1  0  0  0  0
 52 54  2  0  0  0  0
 52 53  1  0  0  0  0
 55 52  2  0  0  0  0
M  END
>  <MODEL>
9

>  <REMARK>
 VINA RESULT:      -5.6      3.330      4.975
  Name = 
  23 active torsions:
  status: ('A' for Active; 'I' for Inactive)
    1  A    between atoms: C_1  and  C_23
    2  A    between atoms: C_1  and  C_47
    3  A    between atoms: C_2  and  C_29
    4  A    between atoms: S_5  and  C_31
    5  A    between atoms: C_7  and  C_20
    6  A    between atoms: C_8  and  N_45
    7  A    between atoms: N_9  and  C_26
    8  A    between atoms: N_9  and  C_47
    9  A    between atoms: N_12  and  C_49
   10  A    between atoms: C_15  and  C_16
   11  A    between atoms: C_15  and  C_23
   12  A    between atoms: C_16  and  C_40
   13  A    between atoms: C_16  and  C_55
   14  A    between atoms: C_19  and  C_43
   15  A    between atoms: C_20  and  O_38
   16  A    between atoms: C_20  and  C_46
   17  A    between atoms: C_21  and  O_38
   18  A    between atoms: C_21  and  N_45
   19  A    between atoms: C_25  and  C_40
   20  A    between atoms: C_26  and  C_31
   21  A    between atoms: C_29  and  C_55
   22  A    between atoms: C_30  and  N_42
   23  A    between atoms: C_41  and  C_43
                            x       y       z     vdW  Elec       q    Type
                         _______ _______ _______ _____ _____    ______ ____

>  <TORSDO>
F 23

$$$$
