=
 OpenBabel11042414283D

 52 56  0  0  1  0  0  0  0  0999 V2000
  190.8610  174.9680  143.5480 C   0  0  1  0  0  3  0  0  0  0  0  0
  189.7240  177.9570  144.5280 C   0  0  0  0  0  2  0  0  0  0  0  0
  189.4160  174.7760  143.2730 N   0  0  0  0  0  0  0  0  0  0  0  0
  191.6640  175.6340  142.4110 C   0  0  0  0  0  1  0  0  0  0  0  0
  190.9670  175.7380  144.8700 C   0  0  2  0  0  3  0  0  0  0  0  0
  187.3790  176.2500  143.8020 C   0  0  0  0  0  3  0  0  0  0  0  0
  189.6630  176.5030  145.0220 C   0  0  2  0  0  3  0  0  0  0  0  0
  188.6890  175.6300  144.2380 C   0  0  2  0  0  3  0  0  0  0  0  0
  188.3240  178.1740  142.4180 C   0  0  0  0  0  2  0  0  0  0  0  0
  187.2090  177.3230  143.0180 C   0  0  0  0  0  0  0  0  0  0  0  0
  189.7310  178.0470  143.0100 C   0  0  0  0  0  2  0  0  0  0  0  0
  185.4490  178.5900  145.0880 C   0  0  0  0  0  1  0  0  0  0  0  0
  183.2240  178.4250  142.1050 C   0  0  0  0  0  0  0  0  0  0  0  0
  183.7080  178.6340  143.3600 N   0  0  0  0  0  0  0  0  0  0  0  0
  184.0630  177.8670  141.1330 C   0  0  0  0  0  3  0  0  0  0  0  0
  185.3380  177.5330  141.4610 N   0  0  0  0  0  0  0  0  0  0  0  0
  181.8700  178.7880  141.7930 N   0  0  0  0  0  0  0  0  0  0  0  0
  185.8220  177.7220  142.7220 C   0  0  0  0  0  0  0  0  0  0  0  0
  184.9780  178.2980  143.6990 C   0  0  0  0  0  0  0  0  0  0  0  0
  181.1140  179.4140  142.7240 O   0  0  0  0  0  1  0  0  0  0  0  0
  181.2300  178.3770  140.5500 C   0  0  0  0  0  2  0  0  0  0  0  0
  179.7940  178.8630  140.4790 C   0  0  0  0  0  2  0  0  0  0  0  0
  178.8180  177.7040  140.5850 C   0  0  0  0  0  2  0  0  0  0  0  0
  178.6890  177.2940  141.9150 O   0  0  0  0  0  1  0  0  0  0  0  0
  189.0150  175.0030  141.8750 C   0  0  0  0  0  2  0  0  0  0  0  0
  188.2100  174.6200  139.1330 O   0  0  0  0  0  0  0  0  0  0  0  0
  188.6860  173.6350  139.7620 C   0  0  0  0  0  0  0  0  0  0  0  0
  189.1750  173.7830  141.0960 N   0  0  0  0  0  2  0  0  0  0  0  0
  188.7090  172.2930  139.1090 C   0  0  0  0  0  2  0  0  0  0  0  0
  189.5870  172.2630  137.8880 C   0  0  0  0  0  0  0  0  0  0  0  0
  189.1170  172.3150  136.7620 O   0  0  0  0  0  0  0  0  0  0  0  0
  191.6930  171.7980  136.8970 O   0  0  0  0  0  1  0  0  0  0  0  0
  191.0730  172.2320  138.0760 C   0  0  2  0  0  3  0  0  0  0  0  0
  192.3010  172.0600  140.2370 C   0  0  0  0  0  2  0  0  0  0  0  0
  192.9550  171.1070  139.2470 C   0  0  0  0  0  2  0  0  0  0  0  0
  191.4450  171.3030  139.2280 C   0  0  0  0  0  3  0  0  0  0  0  0
  192.2500  176.5320  145.1110 C   0  0  0  0  0  2  0  0  0  0  0  0
  192.8700  176.1090  146.4240 C   0  0  0  0  0  2  0  0  0  0  0  0
  195.8410  175.6330  144.6140 C   0  0  2  0  0  3  0  0  0  0  0  0
  195.1890  176.0890  145.7890 O   0  0  0  0  0  0  0  0  0  0  0  0
  195.1190  176.0190  143.4810 O   0  0  0  0  0  1  0  0  0  0  0  0
  194.9380  173.4000  145.2830 C   0  0  2  0  0  3  0  0  0  0  0  0
  193.8070  174.2270  145.2690 O   0  0  0  0  0  0  0  0  0  0  0  0
  196.0970  174.1160  144.5960 C   0  0  2  0  0  3  0  0  0  0  0  0
  194.1000  175.2570  146.1850 C   0  0  2  0  0  3  0  0  0  0  0  0
  197.3920  173.7900  145.3200 C   0  0  0  0  0  2  0  0  0  0  0  0
  197.1310  173.4830  146.6530 O   0  0  0  0  0  1  0  0  0  0  0  0
  194.6360  172.0800  144.5930 C   0  0  0  0  0  2  0  0  0  0  0  0
  192.4670  170.9710  143.9170 C   0  0  0  0  0  0  0  0  0  0  0  0
  192.9470  169.7150  144.2950 O   0  0  0  0  0  1  0  0  0  0  0  0
  193.3060  172.1210  143.9940 N   0  0  0  0  0  2  0  0  0  0  0  0
  191.2970  171.0890  143.4720 O   0  0  0  0  0  0  0  0  0  0  0  0
  1  4  1  6  0  0  0
  1  5  1  0  0  0  0
  3  1  1  0  0  0  0
  3  8  1  0  0  0  0
  5  7  1  0  0  0  0
  5 37  1  6  0  0  0
  7  2  1  6  0  0  0
  8  6  1  6  0  0  0
  8  7  1  0  0  0  0
  9 11  1  0  0  0  0
  9 10  1  0  0  0  0
 10  6  2  0  0  0  0
 11  2  1  0  0  0  0
 13 14  1  0  0  0  0
 14 19  2  0  0  0  0
 15 16  1  0  0  0  0
 15 13  2  0  0  0  0
 16 18  2  0  0  0  0
 17 13  1  0  0  0  0
 17 20  1  0  0  0  0
 18 10  1  0  0  0  0
 18 19  1  0  0  0  0
 19 12  1  0  0  0  0
 21 17  1  0  0  0  0
 22 21  1  0  0  0  0
 22 23  1  0  0  0  0
 23 24  1  0  0  0  0
 25  3  1  0  0  0  0
 26 27  2  0  0  0  0
 27 28  1  0  0  0  0
 28 25  1  0  0  0  0
 29 27  1  0  0  0  0
 30 33  1  0  0  0  0
 30 29  1  0  0  0  0
 31 30  2  0  0  0  0
 33 32  1  6  0  0  0
 33 36  1  0  0  0  0
 35 34  1  0  0  0  0
 36 35  1  0  0  0  0
 36 34  1  0  0  0  0
 37 38  1  0  0  0  0
 39 41  1  6  0  0  0
 39 40  1  0  0  0  0
 40 45  1  0  0  0  0
 42 48  1  6  0  0  0
 43 42  1  0  0  0  0
 43 45  1  0  0  0  0
 44 39  1  0  0  0  0
 44 42  1  0  0  0  0
 44 46  1  1  0  0  0
 45 38  1  6  0  0  0
 46 47  1  0  0  0  0
 49 51  1  0  0  0  0
 49 50  1  0  0  0  0
 51 48  1  0  0  0  0
 52 49  2  0  0  0  0
M  END
>  <MODEL>
1

>  <REMARK>
 VINA RESULT:      -7.3      0.000      0.000
  Name = 
  16 active torsions:
  status: ('A' for Active; 'I' for Inactive)
    1  A    between atoms: C_1  and  C_24
    2  A    between atoms: C_1  and  C_47
    3  A    between atoms: C_10  and  C_17
    4  A    between atoms: N_12  and  C_32
    5  A    between atoms: C_13  and  C_24
    6  A    between atoms: C_13  and  C_42
    7  A    between atoms: C_15  and  C_43
    8  A    between atoms: C_17  and  C_29
    9  A    between atoms: C_21  and  C_48
   10  A    between atoms: C_22  and  C_49
   11  A    between atoms: C_29  and  N_36
   12  A    between atoms: C_32  and  N_51
   13  A    between atoms: C_34  and  C_44
   14  A    between atoms: C_34  and  C_49
   15  A    between atoms: C_37  and  C_39
   16  A    between atoms: N_38  and  C_48
                            x       y       z     vdW  Elec       q    Type
                         _______ _______ _______ _____ _____    ______ ____

>  <TORSDO>
F 16

$$$$
=
 OpenBabel11042414283D

 52 56  0  0  1  0  0  0  0  0999 V2000
  190.8740  174.9030  143.3900 C   0  0  1  0  0  3  0  0  0  0  0  0
  189.6600  177.7190  144.7270 C   0  0  0  0  0  2  0  0  0  0  0  0
  189.4410  174.7360  143.0400 N   0  0  0  0  0  0  0  0  0  0  0  0
  191.7040  175.7260  142.3830 C   0  0  0  0  0  1  0  0  0  0  0  0
  190.9240  175.4860  144.8070 C   0  0  2  0  0  3  0  0  0  0  0  0
  187.3670  176.1040  143.6920 C   0  0  0  0  0  3  0  0  0  0  0  0
  189.6030  176.2110  145.0150 C   0  0  2  0  0  3  0  0  0  0  0  0
  188.6700  175.4430  144.0860 C   0  0  2  0  0  3  0  0  0  0  0  0
  188.3290  178.2080  142.6170 C   0  0  0  0  0  2  0  0  0  0  0  0
  187.2070  177.2720  143.0550 C   0  0  0  0  0  0  0  0  0  0  0  0
  189.7170  178.0150  143.2360 C   0  0  0  0  0  2  0  0  0  0  0  0
  185.4620  178.5190  145.1510 C   0  0  0  0  0  1  0  0  0  0  0  0
  183.2360  178.4410  142.1640 C   0  0  0  0  0  0  0  0  0  0  0  0
  183.7220  178.6190  143.4240 N   0  0  0  0  0  0  0  0  0  0  0  0
  184.0690  177.8920  141.1820 C   0  0  0  0  0  3  0  0  0  0  0  0
  185.3390  177.5360  141.5040 N   0  0  0  0  0  0  0  0  0  0  0  0
  181.8870  178.8260  141.8600 N   0  0  0  0  0  0  0  0  0  0  0  0
  185.8250  177.6940  142.7680 C   0  0  0  0  0  0  0  0  0  0  0  0
  184.9880  178.2600  143.7560 C   0  0  0  0  0  0  0  0  0  0  0  0
  181.1380  179.4430  142.8030 O   0  0  0  0  0  1  0  0  0  0  0  0
  181.2420  178.4480  140.6090 C   0  0  0  0  0  2  0  0  0  0  0  0
  179.7650  178.1630  140.8110 C   0  0  0  0  0  2  0  0  0  0  0  0
  178.9140  178.9790  139.8530 C   0  0  0  0  0  2  0  0  0  0  0  0
  178.8420  180.3090  140.2750 O   0  0  0  0  0  1  0  0  0  0  0  0
  189.0850  175.1480  141.6720 C   0  0  0  0  0  2  0  0  0  0  0  0
  190.6340  173.4970  139.8870 O   0  0  0  0  0  0  0  0  0  0  0  0
  189.3950  173.2770  139.9840 C   0  0  0  0  0  0  0  0  0  0  0  0
  188.5910  174.0090  140.9110 N   0  0  0  0  0  2  0  0  0  0  0  0
  188.7620  172.2580  139.0970 C   0  0  0  0  0  2  0  0  0  0  0  0
  189.4140  172.1870  137.7440 C   0  0  0  0  0  0  0  0  0  0  0  0
  189.2000  173.0330  136.8880 O   0  0  0  0  0  0  0  0  0  0  0  0
  190.8420  171.1570  136.1520 O   0  0  0  0  0  1  0  0  0  0  0  0
  190.3930  171.0850  137.4770 C   0  0  2  0  0  3  0  0  0  0  0  0
  190.5340  168.9840  138.8080 C   0  0  0  0  0  2  0  0  0  0  0  0
  190.7250  168.6270  137.3400 C   0  0  0  0  0  2  0  0  0  0  0  0
  189.7480  169.7270  137.7330 C   0  0  0  0  0  3  0  0  0  0  0  0
  192.1850  176.2530  145.2000 C   0  0  0  0  0  2  0  0  0  0  0  0
  193.0130  175.4170  146.1500 C   0  0  0  0  0  2  0  0  0  0  0  0
  195.1420  174.6810  143.4570 C   0  0  2  0  0  3  0  0  0  0  0  0
  194.4890  175.6470  144.2660 O   0  0  0  0  0  0  0  0  0  0  0  0
  194.2690  173.6340  143.1550 O   0  0  0  0  0  1  0  0  0  0  0  0
  196.2830  174.0380  145.5870 C   0  0  2  0  0  3  0  0  0  0  0  0
  194.9210  173.9840  145.9090 O   0  0  0  0  0  0  0  0  0  0  0  0
  196.4420  174.1350  144.0720 C   0  0  2  0  0  3  0  0  0  0  0  0
  194.4340  175.2800  145.6440 C   0  0  2  0  0  3  0  0  0  0  0  0
  197.6090  175.0510  143.7440 C   0  0  0  0  0  2  0  0  0  0  0  0
  197.5540  175.4350  142.4060 O   0  0  0  0  0  1  0  0  0  0  0  0
  197.0030  172.8140  146.1270 C   0  0  0  0  0  2  0  0  0  0  0  0
  196.1670  170.7010  145.0190 C   0  0  0  0  0  0  0  0  0  0  0  0
  195.2200  170.5030  146.0270 O   0  0  0  0  0  1  0  0  0  0  0  0
  197.0870  171.7870  145.0940 N   0  0  0  0  0  2  0  0  0  0  0  0
  196.2360  169.8990  144.0540 O   0  0  0  0  0  0  0  0  0  0  0  0
  1  4  1  6  0  0  0
  1  5  1  0  0  0  0
  3  1  1  0  0  0  0
  3  8  1  0  0  0  0
  5  7  1  0  0  0  0
  5 37  1  6  0  0  0
  7  2  1  6  0  0  0
  8  6  1  6  0  0  0
  8  7  1  0  0  0  0
  9 10  1  0  0  0  0
  9 11  1  0  0  0  0
 10  6  2  0  0  0  0
 11  2  1  0  0  0  0
 13 14  1  0  0  0  0
 14 19  2  0  0  0  0
 15 16  1  0  0  0  0
 15 13  2  0  0  0  0
 16 18  2  0  0  0  0
 17 13  1  0  0  0  0
 17 20  1  0  0  0  0
 18 10  1  0  0  0  0
 18 19  1  0  0  0  0
 19 12  1  0  0  0  0
 21 22  1  0  0  0  0
 21 17  1  0  0  0  0
 23 24  1  0  0  0  0
 23 22  1  0  0  0  0
 25  3  1  0  0  0  0
 26 27  2  0  0  0  0
 27 28  1  0  0  0  0
 28 25  1  0  0  0  0
 29 27  1  0  0  0  0
 30 29  1  0  0  0  0
 31 30  2  0  0  0  0
 33 32  1  6  0  0  0
 33 36  1  0  0  0  0
 33 30  1  0  0  0  0
 35 36  1  0  0  0  0
 35 34  1  0  0  0  0
 36 34  1  0  0  0  0
 37 38  1  0  0  0  0
 39 41  1  1  0  0  0
 39 44  1  0  0  0  0
 39 40  1  0  0  0  0
 40 45  1  0  0  0  0
 42 43  1  0  0  0  0
 42 48  1  6  0  0  0
 44 46  1  1  0  0  0
 44 42  1  0  0  0  0
 45 43  1  0  0  0  0
 45 38  1  6  0  0  0
 47 46  1  0  0  0  0
 49 51  1  0  0  0  0
 49 50  1  0  0  0  0
 51 48  1  0  0  0  0
 52 49  2  0  0  0  0
M  END
>  <MODEL>
2

>  <REMARK>
 VINA RESULT:      -6.9      1.579      1.878
  Name = 
  16 active torsions:
  status: ('A' for Active; 'I' for Inactive)
    1  A    between atoms: C_1  and  C_24
    2  A    between atoms: C_1  and  C_47
    3  A    between atoms: C_10  and  C_17
    4  A    between atoms: N_12  and  C_32
    5  A    between atoms: C_13  and  C_24
    6  A    between atoms: C_13  and  C_42
    7  A    between atoms: C_15  and  C_43
    8  A    between atoms: C_17  and  C_29
    9  A    between atoms: C_21  and  C_48
   10  A    between atoms: C_22  and  C_49
   11  A    between atoms: C_29  and  N_36
   12  A    between atoms: C_32  and  N_51
   13  A    between atoms: C_34  and  C_44
   14  A    between atoms: C_34  and  C_49
   15  A    between atoms: C_37  and  C_39
   16  A    between atoms: N_38  and  C_48
                            x       y       z     vdW  Elec       q    Type
                         _______ _______ _______ _____ _____    ______ ____

>  <TORSDO>
F 16

$$$$
=
 OpenBabel11042414283D

 52 56  0  0  1  0  0  0  0  0999 V2000
  191.1910  174.9730  143.4130 C   0  0  1  0  0  3  0  0  0  0  0  0
  189.9760  177.8190  144.6820 C   0  0  0  0  0  2  0  0  0  0  0  0
  189.7530  174.7770  143.1070 N   0  0  0  0  0  0  0  0  0  0  0  0
  191.9850  175.7700  142.3570 C   0  0  0  0  0  1  0  0  0  0  0  0
  191.2700  175.6060  144.8070 C   0  0  2  0  0  3  0  0  0  0  0  0
  187.6780  176.1420  143.7640 C   0  0  0  0  0  3  0  0  0  0  0  0
  189.9460  176.3220  145.0240 C   0  0  2  0  0  3  0  0  0  0  0  0
  188.9990  175.5110  144.1470 C   0  0  2  0  0  3  0  0  0  0  0  0
  188.5860  178.2180  142.5920 C   0  0  0  0  0  2  0  0  0  0  0  0
  187.4870  177.2850  143.0920 C   0  0  0  0  0  0  0  0  0  0  0  0
  189.9920  178.0640  143.1810 C   0  0  0  0  0  2  0  0  0  0  0  0
  185.8060  178.6570  145.1610 C   0  0  0  0  0  1  0  0  0  0  0  0
  183.4790  178.3720  142.2660 C   0  0  0  0  0  0  0  0  0  0  0  0
  184.0070  178.6350  143.4930 N   0  0  0  0  0  0  0  0  0  0  0  0
  184.2820  177.7650  141.2920 C   0  0  0  0  0  3  0  0  0  0  0  0
  185.5650  177.4370  141.5920 N   0  0  0  0  0  0  0  0  0  0  0  0
  182.1180  178.7300  141.9840 N   0  0  0  0  0  0  0  0  0  0  0  0
  186.0930  177.6800  142.8260 C   0  0  0  0  0  0  0  0  0  0  0  0
  185.2860  178.3050  143.8030 C   0  0  0  0  0  0  0  0  0  0  0  0
  181.3970  179.4030  142.9100 O   0  0  0  0  0  1  0  0  0  0  0  0
  181.4330  178.2680  140.7830 C   0  0  0  0  0  2  0  0  0  0  0  0
  179.9260  178.3350  140.9440 C   0  0  0  0  0  2  0  0  0  0  0  0
  179.3160  179.3360  139.9780 C   0  0  0  0  0  2  0  0  0  0  0  0
  179.1830  180.5860  140.5890 O   0  0  0  0  0  1  0  0  0  0  0  0
  189.3560  175.1350  141.7350 C   0  0  0  0  0  2  0  0  0  0  0  0
  188.3980  172.4170  141.6840 O   0  0  0  0  0  0  0  0  0  0  0  0
  189.3080  172.7470  140.8750 C   0  0  0  0  0  0  0  0  0  0  0  0
  189.7670  174.0980  140.7990 N   0  0  0  0  0  2  0  0  0  0  0  0
  189.9290  171.7040  140.0080 C   0  0  0  0  0  2  0  0  0  0  0  0
  190.8870  170.8230  140.7620 C   0  0  0  0  0  0  0  0  0  0  0  0
  190.9760  169.6280  140.5260 O   0  0  0  0  0  0  0  0  0  0  0  0
  193.1020  171.4930  141.2880 O   0  0  0  0  0  1  0  0  0  0  0  0
  191.7900  171.4540  141.7780 C   0  0  2  0  0  3  0  0  0  0  0  0
  191.4370  171.6190  144.2380 C   0  0  0  0  0  2  0  0  0  0  0  0
  192.8670  171.1580  143.9970 C   0  0  0  0  0  2  0  0  0  0  0  0
  191.7490  170.6700  143.0860 C   0  0  0  0  0  3  0  0  0  0  0  0
  192.5310  176.4010  145.1400 C   0  0  0  0  0  2  0  0  0  0  0  0
  193.3560  175.6430  146.1560 C   0  0  0  0  0  2  0  0  0  0  0  0
  195.4570  174.9330  143.4340 C   0  0  2  0  0  3  0  0  0  0  0  0
  194.8660  175.8880  144.3020 O   0  0  0  0  0  0  0  0  0  0  0  0
  194.5120  173.9760  143.0560 O   0  0  0  0  0  1  0  0  0  0  0  0
  196.5230  174.0670  145.5230 C   0  0  2  0  0  3  0  0  0  0  0  0
  195.1560  174.0930  145.8310 O   0  0  0  0  0  0  0  0  0  0  0  0
  196.7060  174.2520  144.0190 C   0  0  2  0  0  3  0  0  0  0  0  0
  194.7690  175.4350  145.6510 C   0  0  2  0  0  3  0  0  0  0  0  0
  197.9400  175.1000  143.7610 C   0  0  0  0  0  2  0  0  0  0  0  0
  197.6850  176.0200  142.7470 O   0  0  0  0  0  1  0  0  0  0  0  0
  197.1450  172.7600  145.9840 C   0  0  0  0  0  2  0  0  0  0  0  0
  196.4570  170.4160  145.3320 C   0  0  0  0  0  0  0  0  0  0  0  0
  196.3320  170.0400  146.6720 O   0  0  0  0  0  1  0  0  0  0  0  0
  196.9190  171.7190  144.9860 N   0  0  0  0  0  2  0  0  0  0  0  0
  196.1940  169.5910  144.4210 O   0  0  0  0  0  0  0  0  0  0  0  0
  1  4  1  6  0  0  0
  1  5  1  0  0  0  0
  3  1  1  0  0  0  0
  3  8  1  0  0  0  0
  5  7  1  0  0  0  0
  5 37  1  6  0  0  0
  7  2  1  6  0  0  0
  8  6  1  6  0  0  0
  8  7  1  0  0  0  0
  9 10  1  0  0  0  0
  9 11  1  0  0  0  0
 10  6  2  0  0  0  0
 11  2  1  0  0  0  0
 13 14  1  0  0  0  0
 14 19  2  0  0  0  0
 15 16  1  0  0  0  0
 15 13  2  0  0  0  0
 16 18  2  0  0  0  0
 17 13  1  0  0  0  0
 17 20  1  0  0  0  0
 18 10  1  0  0  0  0
 18 19  1  0  0  0  0
 19 12  1  0  0  0  0
 21 22  1  0  0  0  0
 21 17  1  0  0  0  0
 23 24  1  0  0  0  0
 23 22  1  0  0  0  0
 25  3  1  0  0  0  0
 27 26  2  0  0  0  0
 28 27  1  0  0  0  0
 28 25  1  0  0  0  0
 29 30  1  0  0  0  0
 29 27  1  0  0  0  0
 30 33  1  0  0  0  0
 31 30  2  0  0  0  0
 33 32  1  6  0  0  0
 33 36  1  0  0  0  0
 35 34  1  0  0  0  0
 36 35  1  0  0  0  0
 36 34  1  0  0  0  0
 37 38  1  0  0  0  0
 39 41  1  1  0  0  0
 39 44  1  0  0  0  0
 39 40  1  0  0  0  0
 40 45  1  0  0  0  0
 42 43  1  0  0  0  0
 42 48  1  6  0  0  0
 44 46  1  1  0  0  0
 44 42  1  0  0  0  0
 45 43  1  0  0  0  0
 45 38  1  6  0  0  0
 47 46  1  0  0  0  0
 49 50  1  0  0  0  0
 51 49  1  0  0  0  0
 51 48  1  0  0  0  0
 52 49  2  0  0  0  0
M  END
>  <MODEL>
3

>  <REMARK>
 VINA RESULT:      -6.9      1.732      2.371
  Name = 
  16 active torsions:
  status: ('A' for Active; 'I' for Inactive)
    1  A    between atoms: C_1  and  C_24
    2  A    between atoms: C_1  and  C_47
    3  A    between atoms: C_10  and  C_17
    4  A    between atoms: N_12  and  C_32
    5  A    between atoms: C_13  and  C_24
    6  A    between atoms: C_13  and  C_42
    7  A    between atoms: C_15  and  C_43
    8  A    between atoms: C_17  and  C_29
    9  A    between atoms: C_21  and  C_48
   10  A    between atoms: C_22  and  C_49
   11  A    between atoms: C_29  and  N_36
   12  A    between atoms: C_32  and  N_51
   13  A    between atoms: C_34  and  C_44
   14  A    between atoms: C_34  and  C_49
   15  A    between atoms: C_37  and  C_39
   16  A    between atoms: N_38  and  C_48
                            x       y       z     vdW  Elec       q    Type
                         _______ _______ _______ _____ _____    ______ ____

>  <TORSDO>
F 16

$$$$
=
 OpenBabel11042414283D

 52 56  0  0  1  0  0  0  0  0999 V2000
  191.8700  175.4100  146.3520 C   0  0  1  0  0  3  0  0  0  0  0  0
  189.9640  175.6000  143.6100 C   0  0  0  0  0  2  0  0  0  0  0  0
  192.1690  174.0820  145.7610 N   0  0  0  0  0  0  0  0  0  0  0  0
  192.7470  176.5710  145.8370 C   0  0  0  0  0  1  0  0  0  0  0  0
  190.3730  175.6670  146.1430 C   0  0  2  0  0  3  0  0  0  0  0  0
  191.1610  172.8630  143.7370 C   0  0  0  0  0  3  0  0  0  0  0  0
  189.9620  174.8320  144.9410 C   0  0  2  0  0  3  0  0  0  0  0  0
  190.9690  173.6880  144.9910 C   0  0  2  0  0  3  0  0  0  0  0  0
  191.8690  174.7420  142.1630 C   0  0  0  0  0  2  0  0  0  0  0  0
  191.5560  173.2960  142.5320 C   0  0  0  0  0  0  0  0  0  0  0  0
  191.3720  175.8520  143.0960 C   0  0  0  0  0  2  0  0  0  0  0  0
  194.0980  171.7650  142.0990 C   0  0  0  0  0  1  0  0  0  0  0  0
  191.8640  170.4190  139.4400 C   0  0  0  0  0  0  0  0  0  0  0  0
  192.9390  170.6640  140.2390 N   0  0  0  0  0  0  0  0  0  0  0  0
  190.6690  171.1110  139.6710 C   0  0  0  0  0  3  0  0  0  0  0  0
  190.6060  172.0210  140.6770 N   0  0  0  0  0  0  0  0  0  0  0  0
  191.9660  169.4510  138.3840 N   0  0  0  0  0  0  0  0  0  0  0  0
  191.6850  172.2850  141.4680 C   0  0  0  0  0  0  0  0  0  0  0  0
  192.8870  171.5760  141.2420 C   0  0  0  0  0  0  0  0  0  0  0  0
  193.1020  168.7290  138.2460 O   0  0  0  0  0  1  0  0  0  0  0  0
  190.9370  169.3180  137.3600 C   0  0  0  0  0  2  0  0  0  0  0  0
  191.1780  170.2740  136.2060 C   0  0  0  0  0  2  0  0  0  0  0  0
  191.3460  169.5210  134.8970 C   0  0  0  0  0  2  0  0  0  0  0  0
  192.3420  168.5490  135.0170 O   0  0  0  0  0  1  0  0  0  0  0  0
  193.4130  174.0180  144.9780 C   0  0  0  0  0  2  0  0  0  0  0  0
  196.2890  174.2270  144.9560 O   0  0  0  0  0  0  0  0  0  0  0  0
  195.7660  173.2010  145.4710 C   0  0  0  0  0  0  0  0  0  0  0  0
  194.3470  173.0780  145.5830 N   0  0  0  0  0  2  0  0  0  0  0  0
  196.6450  172.0910  145.9430 C   0  0  0  0  0  2  0  0  0  0  0  0
  196.7610  170.9800  144.9360 C   0  0  0  0  0  0  0  0  0  0  0  0
  197.2740  171.1610  143.8420 O   0  0  0  0  0  0  0  0  0  0  0  0
  195.8440  168.9230  144.1880 O   0  0  0  0  0  1  0  0  0  0  0  0
  196.2900  169.6120  145.3240 C   0  0  2  0  0  3  0  0  0  0  0  0
  195.4160  168.7180  147.4780 C   0  0  0  0  0  2  0  0  0  0  0  0
  194.4090  168.3850  146.3870 C   0  0  0  0  0  2  0  0  0  0  0  0
  195.1620  169.7070  146.3460 C   0  0  0  0  0  3  0  0  0  0  0  0
  189.9110  177.1230  146.1450 C   0  0  0  0  0  2  0  0  0  0  0  0
  188.5650  177.2280  146.8270 C   0  0  0  0  0  2  0  0  0  0  0  0
  185.1820  177.9650  146.2490 C   0  0  2  0  0  3  0  0  0  0  0  0
  186.4850  178.4100  146.5910 O   0  0  0  0  0  0  0  0  0  0  0  0
  184.8900  176.7700  146.9110 O   0  0  0  0  0  1  0  0  0  0  0  0
  186.2470  177.3130  144.0830 C   0  0  2  0  0  3  0  0  0  0  0  0
  187.0480  176.6910  145.0490 O   0  0  0  0  0  0  0  0  0  0  0  0
  184.9590  177.8070  144.7350 C   0  0  2  0  0  3  0  0  0  0  0  0
  187.5150  177.7420  145.8640 C   0  0  2  0  0  3  0  0  0  0  0  0
  184.5580  179.1360  144.1180 C   0  0  0  0  0  2  0  0  0  0  0  0
  185.6880  179.8180  143.6720 O   0  0  0  0  0  1  0  0  0  0  0  0
  185.9410  176.3490  142.9490 C   0  0  0  0  0  2  0  0  0  0  0  0
  186.2850  177.4710  140.7100 C   0  0  0  0  0  0  0  0  0  0  0  0
  184.9490  177.8760  140.6650 O   0  0  0  0  0  1  0  0  0  0  0  0
  186.7630  176.6680  141.7860 N   0  0  0  0  0  2  0  0  0  0  0  0
  187.0690  177.7860  139.7790 O   0  0  0  0  0  0  0  0  0  0  0  0
  1  4  1  6  0  0  0
  3  1  1  0  0  0  0
  5 37  1  6  0  0  0
  5  1  1  0  0  0  0
  7  2  1  6  0  0  0
  7  8  1  0  0  0  0
  7  5  1  0  0  0  0
  8  6  1  6  0  0  0
  8  3  1  0  0  0  0
  9 10  1  0  0  0  0
  9 11  1  0  0  0  0
 10  6  2  0  0  0  0
 11  2  1  0  0  0  0
 13 15  2  0  0  0  0
 13 14  1  0  0  0  0
 14 19  2  0  0  0  0
 15 16  1  0  0  0  0
 16 18  2  0  0  0  0
 17 13  1  0  0  0  0
 18 10  1  0  0  0  0
 19 18  1  0  0  0  0
 19 12  1  0  0  0  0
 20 17  1  0  0  0  0
 21 17  1  0  0  0  0
 22 21  1  0  0  0  0
 23 24  1  0  0  0  0
 23 22  1  0  0  0  0
 25 28  1  0  0  0  0
 25  3  1  0  0  0  0
 26 27  2  0  0  0  0
 27 28  1  0  0  0  0
 27 29  1  0  0  0  0
 30 33  1  0  0  0  0
 30 29  1  0  0  0  0
 31 30  2  0  0  0  0
 33 32  1  6  0  0  0
 33 36  1  0  0  0  0
 35 34  1  0  0  0  0
 36 35  1  0  0  0  0
 36 34  1  0  0  0  0
 37 38  1  0  0  0  0
 39 40  1  0  0  0  0
 39 41  1  1  0  0  0
 42 48  1  6  0  0  0
 42 44  1  0  0  0  0
 42 43  1  0  0  0  0
 43 45  1  0  0  0  0
 44 46  1  6  0  0  0
 44 39  1  0  0  0  0
 45 40  1  0  0  0  0
 45 38  1  1  0  0  0
 47 46  1  0  0  0  0
 49 51  1  0  0  0  0
 50 49  1  0  0  0  0
 51 48  1  0  0  0  0
 52 49  2  0  0  0  0
M  END
>  <MODEL>
4

>  <REMARK>
 VINA RESULT:      -6.9      2.985      9.662
  Name = 
  16 active torsions:
  status: ('A' for Active; 'I' for Inactive)
    1  A    between atoms: C_1  and  C_24
    2  A    between atoms: C_1  and  C_47
    3  A    between atoms: C_10  and  C_17
    4  A    between atoms: N_12  and  C_32
    5  A    between atoms: C_13  and  C_24
    6  A    between atoms: C_13  and  C_42
    7  A    between atoms: C_15  and  C_43
    8  A    between atoms: C_17  and  C_29
    9  A    between atoms: C_21  and  C_48
   10  A    between atoms: C_22  and  C_49
   11  A    between atoms: C_29  and  N_36
   12  A    between atoms: C_32  and  N_51
   13  A    between atoms: C_34  and  C_44
   14  A    between atoms: C_34  and  C_49
   15  A    between atoms: C_37  and  C_39
   16  A    between atoms: N_38  and  C_48
                            x       y       z     vdW  Elec       q    Type
                         _______ _______ _______ _____ _____    ______ ____

>  <TORSDO>
F 16

$$$$
=
 OpenBabel11042414283D

 52 56  0  0  1  0  0  0  0  0999 V2000
  191.7560  175.5490  147.3820 C   0  0  1  0  0  3  0  0  0  0  0  0
  190.2840  176.4480  144.5170 C   0  0  0  0  0  2  0  0  0  0  0  0
  192.6390  174.8360  146.4260 N   0  0  0  0  0  0  0  0  0  0  0  0
  192.1390  177.0180  147.6590 C   0  0  0  0  0  1  0  0  0  0  0  0
  190.3220  175.4040  146.8620 C   0  0  2  0  0  3  0  0  0  0  0  0
  192.4680  174.5060  143.8840 C   0  0  0  0  0  3  0  0  0  0  0  0
  190.4350  175.1740  145.3630 C   0  0  2  0  0  3  0  0  0  0  0  0
  191.8060  174.5180  145.2450 C   0  0  2  0  0  3  0  0  0  0  0  0
  192.5330  177.0240  143.4820 C   0  0  0  0  0  2  0  0  0  0  0  0
  192.7940  175.5640  143.1290 C   0  0  0  0  0  0  0  0  0  0  0  0
  191.5180  177.3320  144.5880 C   0  0  0  0  0  2  0  0  0  0  0  0
  191.4800  173.9070  141.0040 C   0  0  0  0  0  1  0  0  0  0  0  0
  194.7500  174.7920  139.4540 C   0  0  0  0  0  0  0  0  0  0  0  0
  193.5140  174.2680  139.6800 N   0  0  0  0  0  0  0  0  0  0  0  0
  195.3420  175.5950  140.4360 C   0  0  0  0  0  3  0  0  0  0  0  0
  194.6810  175.8260  141.6000 N   0  0  0  0  0  0  0  0  0  0  0  0
  195.4210  174.5250  138.2130 N   0  0  0  0  0  0  0  0  0  0  0  0
  193.4510  175.2870  141.8400 C   0  0  0  0  0  0  0  0  0  0  0  0
  192.8490  174.4880  140.8420 C   0  0  0  0  0  0  0  0  0  0  0  0
  194.7850  173.8270  137.2450 O   0  0  0  0  0  1  0  0  0  0  0  0
  196.8250  174.8580  138.0110 C   0  0  0  0  0  2  0  0  0  0  0  0
  197.7370  173.8550  138.6940 C   0  0  0  0  0  2  0  0  0  0  0  0
  197.4800  172.4460  138.1860 C   0  0  0  0  0  2  0  0  0  0  0  0
  196.9960  171.6360  139.2170 O   0  0  0  0  0  1  0  0  0  0  0  0
  193.8860  175.5410  146.0890 C   0  0  0  0  0  2  0  0  0  0  0  0
  196.2580  174.9900  144.5470 O   0  0  0  0  0  0  0  0  0  0  0  0
  196.1550  174.4730  145.6930 C   0  0  0  0  0  0  0  0  0  0  0  0
  195.0410  174.7740  146.5350 N   0  0  0  0  0  2  0  0  0  0  0  0
  197.1990  173.5150  146.1590 C   0  0  0  0  0  2  0  0  0  0  0  0
  197.0900  172.1730  145.4900 C   0  0  0  0  0  0  0  0  0  0  0  0
  197.9410  171.7790  144.7060 O   0  0  0  0  0  0  0  0  0  0  0  0
  196.4030  170.1660  146.5540 O   0  0  0  0  0  1  0  0  0  0  0  0
  195.9390  171.2850  145.8510 C   0  0  2  0  0  3  0  0  0  0  0  0
  193.7320  171.2400  144.6960 C   0  0  0  0  0  2  0  0  0  0  0  0
  194.1470  169.8020  144.9750 C   0  0  0  0  0  2  0  0  0  0  0  0
  195.1990  170.8360  144.5950 C   0  0  0  0  0  3  0  0  0  0  0  0
  189.3090  176.4570  147.3090 C   0  0  0  0  0  2  0  0  0  0  0  0
  187.9150  176.0190  146.9220 C   0  0  0  0  0  2  0  0  0  0  0  0
  185.0860  178.0490  146.4720 C   0  0  2  0  0  3  0  0  0  0  0  0
  186.4140  177.8970  146.9500 O   0  0  0  0  0  0  0  0  0  0  0  0
  184.3250  176.9240  146.7960 O   0  0  0  0  0  1  0  0  0  0  0  0
  186.1040  177.5780  144.2380 C   0  0  2  0  0  3  0  0  0  0  0  0
  186.5230  176.5000  145.0300 O   0  0  0  0  0  0  0  0  0  0  0  0
  185.0000  178.3400  144.9640 C   0  0  2  0  0  3  0  0  0  0  0  0
  187.2260  177.0890  146.0990 C   0  0  2  0  0  3  0  0  0  0  0  0
  185.1580  179.8280  144.7030 C   0  0  0  0  0  2  0  0  0  0  0  0
  185.8500  180.0340  143.5120 O   0  0  0  0  0  1  0  0  0  0  0  0
  185.6180  177.0830  142.8860 C   0  0  0  0  0  2  0  0  0  0  0  0
  187.4400  176.3130  141.3130 C   0  0  0  0  0  0  0  0  0  0  0  0
  187.4130  177.5290  140.6250 O   0  0  0  0  0  0  0  0  0  0  0  0
  186.5220  176.0600  142.3730 N   0  0  0  0  0  2  0  0  0  0  0  0
  188.2560  175.4180  140.9750 O   0  0  0  0  0  1  0  0  0  0  0  0
  1  4  1  6  0  0  0
  2 11  1  0  0  0  0
  3  1  1  0  0  0  0
  5 37  1  6  0  0  0
  5  1  1  0  0  0  0
  7  2  1  6  0  0  0
  7  5  1  0  0  0  0
  8  6  1  6  0  0  0
  8  7  1  0  0  0  0
  8  3  1  0  0  0  0
  9 11  1  0  0  0  0
 10  9  1  0  0  0  0
 10  6  2  0  0  0  0
 13 14  2  0  0  0  0
 13 15  1  0  0  0  0
 14 19  1  0  0  0  0
 15 16  2  0  0  0  0
 16 18  1  0  0  0  0
 17 13  1  0  0  0  0
 18 10  1  0  0  0  0
 19 12  1  0  0  0  0
 19 18  2  0  0  0  0
 20 17  1  0  0  0  0
 21 17  1  0  0  0  0
 21 22  1  0  0  0  0
 23 22  1  0  0  0  0
 23 24  1  0  0  0  0
 25  3  1  0  0  0  0
 25 28  1  0  0  0  0
 26 27  2  0  0  0  0
 27 29  1  0  0  0  0
 27 28  1  0  0  0  0
 30 33  1  0  0  0  0
 30 29  1  0  0  0  0
 31 30  2  0  0  0  0
 33 32  1  6  0  0  0
 34 35  1  0  0  0  0
 36 34  1  0  0  0  0
 36 35  1  0  0  0  0
 36 33  1  0  0  0  0
 38 37  1  0  0  0  0
 39 41  1  6  0  0  0
 39 40  1  0  0  0  0
 42 48  1  6  0  0  0
 42 44  1  0  0  0  0
 42 43  1  0  0  0  0
 43 45  1  0  0  0  0
 44 46  1  1  0  0  0
 44 39  1  0  0  0  0
 45 38  1  1  0  0  0
 45 40  1  0  0  0  0
 47 46  1  0  0  0  0
 49 51  1  0  0  0  0
 50 49  2  0  0  0  0
 51 48  1  0  0  0  0
 52 49  1  0  0  0  0
M  END
>  <MODEL>
5

>  <REMARK>
 VINA RESULT:      -6.7      3.255      9.974
  Name = 
  16 active torsions:
  status: ('A' for Active; 'I' for Inactive)
    1  A    between atoms: C_1  and  C_24
    2  A    between atoms: C_1  and  C_47
    3  A    between atoms: C_10  and  C_17
    4  A    between atoms: N_12  and  C_32
    5  A    between atoms: C_13  and  C_24
    6  A    between atoms: C_13  and  C_42
    7  A    between atoms: C_15  and  C_43
    8  A    between atoms: C_17  and  C_29
    9  A    between atoms: C_21  and  C_48
   10  A    between atoms: C_22  and  C_49
   11  A    between atoms: C_29  and  N_36
   12  A    between atoms: C_32  and  N_51
   13  A    between atoms: C_34  and  C_44
   14  A    between atoms: C_34  and  C_49
   15  A    between atoms: C_37  and  C_39
   16  A    between atoms: N_38  and  C_48
                            x       y       z     vdW  Elec       q    Type
                         _______ _______ _______ _____ _____    ______ ____

>  <TORSDO>
F 16

$$$$
=
 OpenBabel11042414283D

 52 56  0  0  1  0  0  0  0  0999 V2000
  191.9180  174.9210  143.6090 C   0  0  1  0  0  3  0  0  0  0  0  0
  190.4590  177.7420  144.6600 C   0  0  0  0  0  2  0  0  0  0  0  0
  190.5240  174.6410  143.1870 N   0  0  0  0  0  0  0  0  0  0  0  0
  192.7630  175.7220  142.5960 C   0  0  0  0  0  1  0  0  0  0  0  0
  191.8430  175.6040  144.9800 C   0  0  2  0  0  3  0  0  0  0  0  0
  188.3350  175.9180  143.6110 C   0  0  0  0  0  3  0  0  0  0  0  0
  190.4720  176.2570  145.0550 C   0  0  2  0  0  3  0  0  0  0  0  0
  189.6470  175.3690  144.1300 C   0  0  2  0  0  3  0  0  0  0  0  0
  189.2410  177.9980  142.4440 C   0  0  0  0  0  2  0  0  0  0  0  0
  188.1490  177.0270  142.8820 C   0  0  0  0  0  0  0  0  0  0  0  0
  190.5950  177.9360  143.1580 C   0  0  0  0  0  2  0  0  0  0  0  0
  187.2150  176.7350  140.0480 C   0  0  0  0  0  1  0  0  0  0  0  0
  184.1650  177.9650  141.7980 C   0  0  0  0  0  0  0  0  0  0  0  0
  185.0380  177.5400  140.8440 N   0  0  0  0  0  0  0  0  0  0  0  0
  184.5990  178.0630  143.1260 C   0  0  0  0  0  3  0  0  0  0  0  0
  185.8820  177.7470  143.4360 N   0  0  0  0  0  0  0  0  0  0  0  0
  182.8150  178.2940  141.4340 N   0  0  0  0  0  0  0  0  0  0  0  0
  186.7660  177.3400  142.4820 C   0  0  0  0  0  0  0  0  0  0  0  0
  186.3250  177.2280  141.1440 C   0  0  0  0  0  0  0  0  0  0  0  0
  182.3990  178.0960  140.1620 O   0  0  0  0  0  1  0  0  0  0  0  0
  181.9130  178.9700  142.3560 C   0  0  0  0  0  2  0  0  0  0  0  0
  180.4620  178.7700  141.9590 C   0  0  0  0  0  2  0  0  0  0  0  0
  179.9390  179.9610  141.1740 C   0  0  0  0  0  2  0  0  0  0  0  0
  179.2830  179.5340  140.0170 O   0  0  0  0  0  1  0  0  0  0  0  0
  190.2330  174.9320  141.7740 C   0  0  0  0  0  2  0  0  0  0  0  0
  188.2090  173.3250  140.4960 O   0  0  0  0  0  0  0  0  0  0  0  0
  189.4130  172.9560  140.4090 C   0  0  0  0  0  0  0  0  0  0  0  0
  190.4660  173.7530  140.9530 N   0  0  0  0  0  2  0  0  0  0  0  0
  189.7310  171.6540  139.7520 C   0  0  0  0  0  2  0  0  0  0  0  0
  190.7230  170.8410  140.5360 C   0  0  0  0  0  0  0  0  0  0  0  0
  190.4580  170.4090  141.6480 O   0  0  0  0  0  0  0  0  0  0  0  0
  192.3230  169.1480  140.0810 O   0  0  0  0  0  1  0  0  0  0  0  0
  192.0380  170.5070  139.8990 C   0  0  2  0  0  3  0  0  0  0  0  0
  193.5870  172.4170  139.4990 C   0  0  0  0  0  2  0  0  0  0  0  0
  194.4260  171.1620  139.6920 C   0  0  0  0  0  2  0  0  0  0  0  0
  193.1520  171.3550  140.5040 C   0  0  0  0  0  3  0  0  0  0  0  0
  193.0300  176.4740  145.3900 C   0  0  0  0  0  2  0  0  0  0  0  0
  194.0320  175.6380  146.1530 C   0  0  0  0  0  2  0  0  0  0  0  0
  196.5030  173.1740  145.7600 C   0  0  2  0  0  3  0  0  0  0  0  0
  195.1290  173.5320  145.7740 O   0  0  0  0  0  0  0  0  0  0  0  0
  197.1730  173.7890  146.8190 O   0  0  0  0  0  1  0  0  0  0  0  0
  196.6380  174.7660  143.8370 C   0  0  2  0  0  3  0  0  0  0  0  0
  196.0460  175.5240  144.8570 O   0  0  0  0  0  0  0  0  0  0  0  0
  197.2090  173.4800  144.4280 C   0  0  2  0  0  3  0  0  0  0  0  0
  194.8790  174.8150  145.2030 C   0  0  2  0  0  3  0  0  0  0  0  0
  197.0040  172.3390  143.4460 C   0  0  0  0  0  2  0  0  0  0  0  0
  195.9300  172.6190  142.6040 O   0  0  0  0  0  1  0  0  0  0  0  0
  197.7260  175.5700  143.1440 C   0  0  0  0  0  2  0  0  0  0  0  0
  196.8510  175.9380  140.8010 C   0  0  0  0  0  0  0  0  0  0  0  0
  195.8520  176.7950  141.2680 O   0  0  0  0  0  1  0  0  0  0  0  0
  197.7270  175.2810  141.7140 N   0  0  0  0  0  2  0  0  0  0  0  0
  196.9610  175.7130  139.5690 O   0  0  0  0  0  0  0  0  0  0  0  0
  1  4  1  6  0  0  0
  1  5  1  0  0  0  0
  3  1  1  0  0  0  0
  3  8  1  0  0  0  0
  5  7  1  0  0  0  0
  5 37  1  6  0  0  0
  7  2  1  6  0  0  0
  8  6  1  6  0  0  0
  8  7  1  0  0  0  0
  9 10  1  0  0  0  0
  9 11  1  0  0  0  0
 10  6  2  0  0  0  0
 11  2  1  0  0  0  0
 12 19  1  0  0  0  0
 13 15  1  0  0  0  0
 14 19  1  0  0  0  0
 14 13  2  0  0  0  0
 15 16  2  0  0  0  0
 17 13  1  0  0  0  0
 17 21  1  0  0  0  0
 18 10  1  0  0  0  0
 18 16  1  0  0  0  0
 19 18  2  0  0  0  0
 20 17  1  0  0  0  0
 22 21  1  0  0  0  0
 23 22  1  0  0  0  0
 24 23  1  0  0  0  0
 25  3  1  0  0  0  0
 27 26  2  0  0  0  0
 27 28  1  0  0  0  0
 28 25  1  0  0  0  0
 29 27  1  0  0  0  0
 29 30  1  0  0  0  0
 30 31  2  0  0  0  0
 33 32  1  1  0  0  0
 33 36  1  0  0  0  0
 33 30  1  0  0  0  0
 34 35  1  0  0  0  0
 34 36  1  0  0  0  0
 35 36  1  0  0  0  0
 37 38  1  0  0  0  0
 39 40  1  0  0  0  0
 39 41  1  1  0  0  0
 42 48  1  1  0  0  0
 42 44  1  0  0  0  0
 42 43  1  0  0  0  0
 43 45  1  0  0  0  0
 44 46  1  6  0  0  0
 44 39  1  0  0  0  0
 45 40  1  0  0  0  0
 45 38  1  1  0  0  0
 47 46  1  0  0  0  0
 49 50  1  0  0  0  0
 49 51  1  0  0  0  0
 51 48  1  0  0  0  0
 52 49  2  0  0  0  0
M  END
>  <MODEL>
6

>  <REMARK>
 VINA RESULT:      -6.5      1.984      3.151
  Name = 
  16 active torsions:
  status: ('A' for Active; 'I' for Inactive)
    1  A    between atoms: C_1  and  C_24
    2  A    between atoms: C_1  and  C_47
    3  A    between atoms: C_10  and  C_17
    4  A    between atoms: N_12  and  C_32
    5  A    between atoms: C_13  and  C_24
    6  A    between atoms: C_13  and  C_42
    7  A    between atoms: C_15  and  C_43
    8  A    between atoms: C_17  and  C_29
    9  A    between atoms: C_21  and  C_48
   10  A    between atoms: C_22  and  C_49
   11  A    between atoms: C_29  and  N_36
   12  A    between atoms: C_32  and  N_51
   13  A    between atoms: C_34  and  C_44
   14  A    between atoms: C_34  and  C_49
   15  A    between atoms: C_37  and  C_39
   16  A    between atoms: N_38  and  C_48
                            x       y       z     vdW  Elec       q    Type
                         _______ _______ _______ _____ _____    ______ ____

>  <TORSDO>
F 16

$$$$
=
 OpenBabel11042414283D

 52 56  0  0  1  0  0  0  0  0999 V2000
  191.9430  175.2600  146.7740 C   0  0  1  0  0  3  0  0  0  0  0  0
  190.9220  176.6290  143.8980 C   0  0  0  0  0  2  0  0  0  0  0  0
  192.4980  174.2640  145.8250 N   0  0  0  0  0  0  0  0  0  0  0  0
  192.8450  176.4820  147.0480 C   0  0  0  0  0  1  0  0  0  0  0  0
  190.5590  175.6590  146.2470 C   0  0  2  0  0  3  0  0  0  0  0  0
  192.2250  174.0090  143.2840 C   0  0  0  0  0  3  0  0  0  0  0  0
  190.5840  175.3960  144.7500 C   0  0  2  0  0  3  0  0  0  0  0  0
  191.6110  174.2740  144.6410 C   0  0  2  0  0  3  0  0  0  0  0  0
  193.2270  176.3180  142.8730 C   0  0  0  0  0  2  0  0  0  0  0  0
  192.9260  174.8640  142.5270 C   0  0  0  0  0  0  0  0  0  0  0  0
  192.3970  176.9890  143.9730 C   0  0  0  0  0  2  0  0  0  0  0  0
  195.8350  174.2790  142.0980 C   0  0  0  0  0  1  0  0  0  0  0  0
  194.3270  173.4250  138.7990 C   0  0  0  0  0  0  0  0  0  0  0  0
  195.2120  173.6400  139.8120 N   0  0  0  0  0  0  0  0  0  0  0  0
  192.9650  173.6650  139.0190 C   0  0  0  0  0  3  0  0  0  0  0  0
  192.5530  174.1190  140.2300 N   0  0  0  0  0  0  0  0  0  0  0  0
  194.7990  172.9460  137.5300 N   0  0  0  0  0  0  0  0  0  0  0  0
  193.4360  174.3560  141.2420 C   0  0  0  0  0  0  0  0  0  0  0  0
  194.8090  174.1000  141.0230 C   0  0  0  0  0  0  0  0  0  0  0  0
  196.1060  172.6300  137.3780 O   0  0  0  0  0  1  0  0  0  0  0  0
  193.9430  172.9220  136.3510 C   0  0  0  0  0  2  0  0  0  0  0  0
  193.9410  174.2630  135.6410 C   0  0  0  0  0  2  0  0  0  0  0  0
  192.5270  174.7030  135.3050 C   0  0  0  0  0  2  0  0  0  0  0  0
  192.1810  175.8400  136.0410 O   0  0  0  0  0  1  0  0  0  0  0  0
  193.9200  174.4510  145.4920 C   0  0  0  0  0  2  0  0  0  0  0  0
  196.7770  174.2010  145.7860 O   0  0  0  0  0  0  0  0  0  0  0  0
  196.0820  173.1480  145.7580 C   0  0  0  0  0  0  0  0  0  0  0  0
  194.6570  173.2110  145.6940 N   0  0  0  0  0  2  0  0  0  0  0  0
  196.7660  171.8220  145.7620 C   0  0  0  0  0  2  0  0  0  0  0  0
  195.8640  170.7070  145.3100 C   0  0  0  0  0  0  0  0  0  0  0  0
  195.0990  170.1510  146.0840 O   0  0  0  0  0  0  0  0  0  0  0  0
  197.0400  170.7950  143.2500 O   0  0  0  0  0  1  0  0  0  0  0  0
  195.8700  170.3240  143.8620 C   0  0  2  0  0  3  0  0  0  0  0  0
  193.7630  169.7620  142.6570 C   0  0  0  0  0  2  0  0  0  0  0  0
  194.6800  170.4940  141.6870 C   0  0  0  0  0  2  0  0  0  0  0  0
  194.6480  170.9010  143.1540 C   0  0  0  0  0  3  0  0  0  0  0  0
  190.0120  177.0160  146.6860 C   0  0  0  0  0  2  0  0  0  0  0  0
  188.5560  176.8770  147.0680 C   0  0  0  0  0  2  0  0  0  0  0  0
  185.2950  177.6800  146.0430 C   0  0  2  0  0  3  0  0  0  0  0  0
  186.5200  178.0810  146.6370 O   0  0  0  0  0  0  0  0  0  0  0  0
  184.9220  176.4180  146.5130 O   0  0  0  0  0  1  0  0  0  0  0  0
  186.7010  177.2770  144.0160 C   0  0  2  0  0  3  0  0  0  0  0  0
  187.3490  176.5480  145.0220 O   0  0  0  0  0  0  0  0  0  0  0  0
  185.3180  177.6950  144.5050 C   0  0  2  0  0  3  0  0  0  0  0  0
  187.6630  177.4980  146.0130 C   0  0  2  0  0  3  0  0  0  0  0  0
  184.9980  179.0860  143.9850 C   0  0  0  0  0  2  0  0  0  0  0  0
  183.7700  179.0800  143.3270 O   0  0  0  0  0  1  0  0  0  0  0  0
  186.5950  176.4480  142.7470 C   0  0  0  0  0  2  0  0  0  0  0  0
  188.2030  174.7710  141.7510 C   0  0  0  0  0  0  0  0  0  0  0  0
  188.0590  175.3300  140.4790 O   0  0  0  0  0  0  0  0  0  0  0  0
  187.4420  175.2640  142.8500 N   0  0  0  0  0  2  0  0  0  0  0  0
  188.9840  173.8010  141.9260 O   0  0  0  0  0  1  0  0  0  0  0  0
  1  4  1  6  0  0  0
  2 11  1  0  0  0  0
  3  1  1  0  0  0  0
  5 37  1  6  0  0  0
  5  1  1  0  0  0  0
  7  2  1  6  0  0  0
  7  5  1  0  0  0  0
  8  6  1  6  0  0  0
  8  7  1  0  0  0  0
  8  3  1  0  0  0  0
  9 11  1  0  0  0  0
 10  9  1  0  0  0  0
 10  6  2  0  0  0  0
 13 15  2  0  0  0  0
 13 14  1  0  0  0  0
 14 19  2  0  0  0  0
 15 16  1  0  0  0  0
 16 18  2  0  0  0  0
 17 13  1  0  0  0  0
 18 10  1  0  0  0  0
 19 18  1  0  0  0  0
 19 12  1  0  0  0  0
 20 17  1  0  0  0  0
 21 17  1  0  0  0  0
 22 21  1  0  0  0  0
 23 22  1  0  0  0  0
 23 24  1  0  0  0  0
 25 28  1  0  0  0  0
 25  3  1  0  0  0  0
 27 29  1  0  0  0  0
 27 26  2  0  0  0  0
 28 27  1  0  0  0  0
 30 29  1  0  0  0  0
 30 31  2  0  0  0  0
 33 32  1  6  0  0  0
 33 30  1  0  0  0  0
 34 36  1  0  0  0  0
 35 34  1  0  0  0  0
 35 36  1  0  0  0  0
 36 33  1  0  0  0  0
 37 38  1  0  0  0  0
 39 41  1  6  0  0  0
 39 40  1  0  0  0  0
 42 48  1  6  0  0  0
 42 44  1  0  0  0  0
 42 43  1  0  0  0  0
 43 45  1  0  0  0  0
 44 46  1  1  0  0  0
 44 39  1  0  0  0  0
 45 40  1  0  0  0  0
 45 38  1  1  0  0  0
 47 46  1  0  0  0  0
 48 51  1  0  0  0  0
 49 52  1  0  0  0  0
 49 51  1  0  0  0  0
 50 49  2  0  0  0  0
M  END
>  <MODEL>
7

>  <REMARK>
 VINA RESULT:      -6.4      3.042      9.332
  Name = 
  16 active torsions:
  status: ('A' for Active; 'I' for Inactive)
    1  A    between atoms: C_1  and  C_24
    2  A    between atoms: C_1  and  C_47
    3  A    between atoms: C_10  and  C_17
    4  A    between atoms: N_12  and  C_32
    5  A    between atoms: C_13  and  C_24
    6  A    between atoms: C_13  and  C_42
    7  A    between atoms: C_15  and  C_43
    8  A    between atoms: C_17  and  C_29
    9  A    between atoms: C_21  and  C_48
   10  A    between atoms: C_22  and  C_49
   11  A    between atoms: C_29  and  N_36
   12  A    between atoms: C_32  and  N_51
   13  A    between atoms: C_34  and  C_44
   14  A    between atoms: C_34  and  C_49
   15  A    between atoms: C_37  and  C_39
   16  A    between atoms: N_38  and  C_48
                            x       y       z     vdW  Elec       q    Type
                         _______ _______ _______ _____ _____    ______ ____

>  <TORSDO>
F 16

$$$$
=
 OpenBabel11042414283D

 52 56  0  0  1  0  0  0  0  0999 V2000
  192.3680  172.6400  141.8740 C   0  0  1  0  0  3  0  0  0  0  0  0
  189.6840  173.2490  139.9720 C   0  0  0  0  0  2  0  0  0  0  0  0
  191.7870  173.7730  142.6360 N   0  0  0  0  0  0  0  0  0  0  0  0
  191.8090  171.2480  142.2360 C   0  0  0  0  0  1  0  0  0  0  0  0
  192.2020  172.9700  140.3850 C   0  0  2  0  0  3  0  0  0  0  0  0
  189.8120  175.3300  142.1140 C   0  0  0  0  0  3  0  0  0  0  0  0
  191.0250  173.9280  140.2910 C   0  0  2  0  0  3  0  0  0  0  0  0
  191.0590  174.6080  141.6550 C   0  0  2  0  0  3  0  0  0  0  0  0
  188.1910  173.3620  142.0260 C   0  0  0  0  0  2  0  0  0  0  0  0
  188.5890  174.8110  142.2890 C   0  0  0  0  0  0  0  0  0  0  0  0
  189.1230  172.4990  141.1700 C   0  0  0  0  0  2  0  0  0  0  0  0
  187.0670  176.5860  140.4130 C   0  0  0  0  0  1  0  0  0  0  0  0
  185.5890  177.4300  143.7270 C   0  0  0  0  0  0  0  0  0  0  0  0
  185.8770  177.4050  142.3970 N   0  0  0  0  0  0  0  0  0  0  0  0
  186.2780  176.5720  144.5920 C   0  0  0  0  0  3  0  0  0  0  0  0
  187.2280  175.7400  144.0930 N   0  0  0  0  0  0  0  0  0  0  0  0
  184.5790  178.3230  144.2210 N   0  0  0  0  0  0  0  0  0  0  0  0
  187.5360  175.7250  142.7640 C   0  0  0  0  0  0  0  0  0  0  0  0
  186.8300  176.5820  141.8900 C   0  0  0  0  0  0  0  0  0  0  0  0
  183.8620  179.0700  143.3490 O   0  0  0  0  0  1  0  0  0  0  0  0
  184.3930  178.5620  145.6460 C   0  0  0  0  0  2  0  0  0  0  0  0
  185.5760  179.3020  146.2430 C   0  0  0  0  0  2  0  0  0  0  0  0
  185.9240  178.7610  147.6190 C   0  0  0  0  0  2  0  0  0  0  0  0
  187.2390  178.2890  147.6400 O   0  0  0  0  0  1  0  0  0  0  0  0
  190.9660  173.3840  143.7950 C   0  0  0  0  0  2  0  0  0  0  0  0
  190.9910  175.9520  145.1040 O   0  0  0  0  0  0  0  0  0  0  0  0
  191.6880  175.0220  145.5940 C   0  0  0  0  0  0  0  0  0  0  0  0
  191.6540  173.7070  145.0370 N   0  0  0  0  0  2  0  0  0  0  0  0
  192.5800  175.3120  146.7560 C   0  0  0  0  0  2  0  0  0  0  0  0
  193.8400  176.0260  146.3510 C   0  0  0  0  0  0  0  0  0  0  0  0
  194.1850  177.0660  146.8910 O   0  0  0  0  0  0  0  0  0  0  0  0
  195.8840  174.9110  145.8920 O   0  0  0  0  0  1  0  0  0  0  0  0
  194.7110  175.4020  145.3040 C   0  0  2  0  0  3  0  0  0  0  0  0
  194.8370  175.8060  142.8490 C   0  0  0  0  0  2  0  0  0  0  0  0
  196.2450  175.9110  143.4170 C   0  0  0  0  0  2  0  0  0  0  0  0
  195.0610  176.4230  144.2260 C   0  0  0  0  0  3  0  0  0  0  0  0
  192.1980  171.7950  139.4090 C   0  0  0  0  0  2  0  0  0  0  0  0
  193.6040  171.5410  138.9140 C   0  0  0  0  0  2  0  0  0  0  0  0
  194.8030  174.6100  137.7020 C   0  0  2  0  0  3  0  0  0  0  0  0
  195.0350  173.2420  137.9990 O   0  0  0  0  0  0  0  0  0  0  0  0
  194.0760  175.2110  138.7330 O   0  0  0  0  0  1  0  0  0  0  0  0
  193.1110  173.7130  136.0950 C   0  0  2  0  0  3  0  0  0  0  0  0
  192.7630  173.1150  137.3130 O   0  0  0  0  0  0  0  0  0  0  0  0
  194.1060  174.8410  136.3500 C   0  0  2  0  0  3  0  0  0  0  0  0
  193.9140  172.4070  137.7110 C   0  0  2  0  0  3  0  0  0  0  0  0
  195.1290  174.8760  135.2280 C   0  0  0  0  0  2  0  0  0  0  0  0
  195.5640  173.5850  134.9370 O   0  0  0  0  0  1  0  0  0  0  0  0
  191.8710  174.2380  135.3900 C   0  0  0  0  0  2  0  0  0  0  0  0
  189.4270  174.4110  136.0120 C   0  0  0  0  0  0  0  0  0  0  0  0
  189.0380  174.2500  134.6800 O   0  0  0  0  0  0  0  0  0  0  0  0
  190.8070  174.4760  136.3600 N   0  0  0  0  0  2  0  0  0  0  0  0
  188.5560  174.5360  136.9100 O   0  0  0  0  0  1  0  0  0  0  0  0
  1  4  1  6  0  0  0
  1  3  1  0  0  0  0
  2 11  1  0  0  0  0
  3 25  1  0  0  0  0
  5 37  1  6  0  0  0
  5  1  1  0  0  0  0
  6 10  2  0  0  0  0
  7  2  1  1  0  0  0
  7  5  1  0  0  0  0
  7  8  1  0  0  0  0
  8  6  1  1  0  0  0
  8  3  1  0  0  0  0
  9 10  1  0  0  0  0
 10 18  1  0  0  0  0
 11  9  1  0  0  0  0
 12 19  1  0  0  0  0
 13 17  1  0  0  0  0
 13 15  1  0  0  0  0
 14 13  2  0  0  0  0
 16 15  2  0  0  0  0
 17 21  1  0  0  0  0
 18 16  1  0  0  0  0
 19 14  1  0  0  0  0
 19 18  2  0  0  0  0
 20 17  1  0  0  0  0
 21 22  1  0  0  0  0
 22 23  1  0  0  0  0
 23 24  1  0  0  0  0
 25 28  1  0  0  0  0
 26 27  2  0  0  0  0
 27 29  1  0  0  0  0
 28 27  1  0  0  0  0
 30 29  1  0  0  0  0
 30 31  2  0  0  0  0
 33 32  1  1  0  0  0
 33 30  1  0  0  0  0
 34 35  1  0  0  0  0
 34 36  1  0  0  0  0
 35 36  1  0  0  0  0
 36 33  1  0  0  0  0
 38 37  1  0  0  0  0
 39 40  1  0  0  0  0
 39 41  1  1  0  0  0
 42 48  1  1  0  0  0
 42 44  1  0  0  0  0
 42 43  1  0  0  0  0
 43 45  1  0  0  0  0
 44 46  1  6  0  0  0
 44 39  1  0  0  0  0
 45 40  1  0  0  0  0
 45 38  1  1  0  0  0
 47 46  1  0  0  0  0
 48 51  1  0  0  0  0
 49 51  1  0  0  0  0
 49 52  1  0  0  0  0
 50 49  2  0  0  0  0
M  END
>  <MODEL>
8

>  <REMARK>
 VINA RESULT:      -6.1      2.869      7.222
  Name = 
  16 active torsions:
  status: ('A' for Active; 'I' for Inactive)
    1  A    between atoms: C_1  and  C_24
    2  A    between atoms: C_1  and  C_47
    3  A    between atoms: C_10  and  C_17
    4  A    between atoms: N_12  and  C_32
    5  A    between atoms: C_13  and  C_24
    6  A    between atoms: C_13  and  C_42
    7  A    between atoms: C_15  and  C_43
    8  A    between atoms: C_17  and  C_29
    9  A    between atoms: C_21  and  C_48
   10  A    between atoms: C_22  and  C_49
   11  A    between atoms: C_29  and  N_36
   12  A    between atoms: C_32  and  N_51
   13  A    between atoms: C_34  and  C_44
   14  A    between atoms: C_34  and  C_49
   15  A    between atoms: C_37  and  C_39
   16  A    between atoms: N_38  and  C_48
                            x       y       z     vdW  Elec       q    Type
                         _______ _______ _______ _____ _____    ______ ____

>  <TORSDO>
F 16

$$$$
=
 OpenBabel11042414283D

 52 56  0  0  1  0  0  0  0  0999 V2000
  193.3720  173.5030  143.5970 C   0  0  1  0  0  3  0  0  0  0  0  0
  192.5030  175.7130  145.9530 C   0  0  0  0  0  2  0  0  0  0  0  0
  191.9200  173.6010  143.3090 N   0  0  0  0  0  0  0  0  0  0  0  0
  194.2520  174.5670  142.9070 C   0  0  0  0  0  1  0  0  0  0  0  0
  193.5280  173.5110  145.1220 C   0  0  2  0  0  3  0  0  0  0  0  0
  190.0220  174.8000  144.5570 C   0  0  0  0  0  3  0  0  0  0  0  0
  192.2980  174.2160  145.6710 C   0  0  2  0  0  3  0  0  0  0  0  0
  191.2610  173.9320  144.5910 C   0  0  2  0  0  3  0  0  0  0  0  0
  191.1640  177.0620  144.2660 C   0  0  0  0  0  2  0  0  0  0  0  0
  189.9650  176.1300  144.4060 C   0  0  0  0  0  0  0  0  0  0  0  0
  192.5440  176.5360  144.6750 C   0  0  0  0  0  2  0  0  0  0  0  0
  188.6910  177.2270  146.8890 C   0  0  0  0  0  1  0  0  0  0  0  0
  186.1040  177.8640  144.2850 C   0  0  0  0  0  0  0  0  0  0  0  0
  186.7700  177.7890  145.4700 N   0  0  0  0  0  0  0  0  0  0  0  0
  186.7210  177.3840  143.1230 C   0  0  0  0  0  3  0  0  0  0  0  0
  187.9630  176.8410  143.2000 N   0  0  0  0  0  0  0  0  0  0  0  0
  184.7910  178.4430  144.2400 N   0  0  0  0  0  0  0  0  0  0  0  0
  188.6260  176.7450  144.3880 C   0  0  0  0  0  0  0  0  0  0  0  0
  188.0090  177.2420  145.5580 C   0  0  0  0  0  0  0  0  0  0  0  0
  184.2610  178.9860  145.3610 O   0  0  0  0  0  1  0  0  0  0  0  0
  183.9430  178.3380  143.0600 C   0  0  0  0  0  2  0  0  0  0  0  0
  184.7350  178.5760  141.7870 C   0  0  0  0  0  2  0  0  0  0  0  0
  183.9020  178.2610  140.5560 C   0  0  0  0  0  2  0  0  0  0  0  0
  182.5810  177.9850  140.9180 O   0  0  0  0  0  1  0  0  0  0  0  0
  191.5660  174.5200  142.2150 C   0  0  0  0  0  2  0  0  0  0  0  0
  191.6920  172.6220  140.0490 O   0  0  0  0  0  0  0  0  0  0  0  0
  190.5710  173.1180  140.3470 C   0  0  0  0  0  0  0  0  0  0  0  0
  190.4330  174.0010  141.4610 N   0  0  0  0  0  2  0  0  0  0  0  0
  189.3820  172.7940  139.5050 C   0  0  0  0  0  2  0  0  0  0  0  0
  189.6970  171.8030  138.4200 C   0  0  0  0  0  0  0  0  0  0  0  0
  189.7800  170.6060  138.6530 O   0  0  0  0  0  0  0  0  0  0  0  0
  188.9670  173.3700  136.7940 O   0  0  0  0  0  1  0  0  0  0  0  0
  189.8470  172.3030  137.0160 C   0  0  2  0  0  3  0  0  0  0  0  0
  190.8810  170.6570  135.4570 C   0  0  0  0  0  2  0  0  0  0  0  0
  190.0310  171.6140  134.6350 C   0  0  0  0  0  2  0  0  0  0  0  0
  189.5650  171.1830  136.0190 C   0  0  0  0  0  3  0  0  0  0  0  0
  194.8750  173.9660  145.6820 C   0  0  0  0  0  2  0  0  0  0  0  0
  195.9520  172.9870  145.2720 C   0  0  0  0  0  2  0  0  0  0  0  0
  197.1350  169.7840  146.0890 C   0  0  2  0  0  3  0  0  0  0  0  0
  196.7440  171.0830  146.5080 O   0  0  0  0  0  0  0  0  0  0  0  0
  197.9160  169.8640  144.9340 O   0  0  0  0  0  1  0  0  0  0  0  0
  194.7670  169.5950  145.3130 C   0  0  2  0  0  3  0  0  0  0  0  0
  195.2230  170.7730  144.7080 O   0  0  0  0  0  0  0  0  0  0  0  0
  195.9560  168.8210  145.8740 C   0  0  2  0  0  3  0  0  0  0  0  0
  195.6310  171.5950  145.7770 C   0  0  2  0  0  3  0  0  0  0  0  0
  195.5590  168.1680  147.1880 C   0  0  0  0  0  2  0  0  0  0  0  0
  194.4170  168.7800  147.7000 O   0  0  0  0  0  1  0  0  0  0  0  0
  193.9980  168.7490  144.3110 C   0  0  0  0  0  2  0  0  0  0  0  0
  192.4030  170.0400  142.8330 C   0  0  0  0  0  0  0  0  0  0  0  0
  193.4110  170.2880  141.8990 O   0  0  0  0  0  0  0  0  0  0  0  0
  192.6940  169.3490  144.0460 N   0  0  0  0  0  2  0  0  0  0  0  0
  191.2360  170.4560  142.6250 O   0  0  0  0  0  1  0  0  0  0  0  0
  1  4  1  6  0  0  0
  1  5  1  0  0  0  0
  3  1  1  0  0  0  0
  3  8  1  0  0  0  0
  5  7  1  0  0  0  0
  5 37  1  6  0  0  0
  7  2  1  6  0  0  0
  8  6  1  6  0  0  0
  8  7  1  0  0  0  0
  9 10  1  0  0  0  0
  9 11  1  0  0  0  0
 10  6  2  0  0  0  0
 11  2  1  0  0  0  0
 13 14  1  0  0  0  0
 14 19  2  0  0  0  0
 15 16  1  0  0  0  0
 15 13  2  0  0  0  0
 16 18  2  0  0  0  0
 17 13  1  0  0  0  0
 17 20  1  0  0  0  0
 18 10  1  0  0  0  0
 18 19  1  0  0  0  0
 19 12  1  0  0  0  0
 21 17  1  0  0  0  0
 22 21  1  0  0  0  0
 23 24  1  0  0  0  0
 23 22  1  0  0  0  0
 25  3  1  0  0  0  0
 26 27  2  0  0  0  0
 27 28  1  0  0  0  0
 28 25  1  0  0  0  0
 29 27  1  0  0  0  0
 30 31  2  0  0  0  0
 30 29  1  0  0  0  0
 33 32  1  6  0  0  0
 33 30  1  0  0  0  0
 34 36  1  0  0  0  0
 35 34  1  0  0  0  0
 35 36  1  0  0  0  0
 36 33  1  0  0  0  0
 38 37  1  0  0  0  0
 39 41  1  6  0  0  0
 39 40  1  0  0  0  0
 42 48  1  6  0  0  0
 42 44  1  0  0  0  0
 43 42  1  0  0  0  0
 43 45  1  0  0  0  0
 44 39  1  0  0  0  0
 44 46  1  1  0  0  0
 45 38  1  6  0  0  0
 45 40  1  0  0  0  0
 46 47  1  0  0  0  0
 49 51  1  0  0  0  0
 50 49  2  0  0  0  0
 51 48  1  0  0  0  0
 52 49  1  0  0  0  0
M  END
>  <MODEL>
9

>  <REMARK>
 VINA RESULT:      -6.1      2.350      3.838
  Name = 
  16 active torsions:
  status: ('A' for Active; 'I' for Inactive)
    1  A    between atoms: C_1  and  C_24
    2  A    between atoms: C_1  and  C_47
    3  A    between atoms: C_10  and  C_17
    4  A    between atoms: N_12  and  C_32
    5  A    between atoms: C_13  and  C_24
    6  A    between atoms: C_13  and  C_42
    7  A    between atoms: C_15  and  C_43
    8  A    between atoms: C_17  and  C_29
    9  A    between atoms: C_21  and  C_48
   10  A    between atoms: C_22  and  C_49
   11  A    between atoms: C_29  and  N_36
   12  A    between atoms: C_32  and  N_51
   13  A    between atoms: C_34  and  C_44
   14  A    between atoms: C_34  and  C_49
   15  A    between atoms: C_37  and  C_39
   16  A    between atoms: N_38  and  C_48
                            x       y       z     vdW  Elec       q    Type
                         _______ _______ _______ _____ _____    ______ ____

>  <TORSDO>
F 16

$$$$
