=
 OpenBabel11042419153D

 43 49  0  0  1  0  0  0  0  0999 V2000
  190.9830  175.5900  147.7220 C   0  0  0  0  0  0  0  0  0  0  0  0
  189.0480  177.5130  142.8170 C   0  0  0  0  0  0  0  0  0  0  0  0
  186.3300  177.5350  141.4710 C   0  0  0  0  0  0  0  0  0  0  0  0
  190.4720  177.5200  146.1470 C   0  0  0  0  0  3  0  0  0  0  0  0
  190.0230  174.4490  145.6740 C   0  0  0  0  0  3  0  0  0  0  0  0
  189.9620  177.0020  145.0330 C   0  0  0  0  0  0  0  0  0  0  0  0
  189.6130  177.9170  144.0300 O   0  0  0  0  0  0  0  0  0  0  0  0
  189.7290  175.5610  144.7700 C   0  0  0  0  0  0  0  0  0  0  0  0
  190.5430  174.4620  146.8970 C   0  0  0  0  0  3  0  0  0  0  0  0
  187.1960  178.6080  141.7680 O   0  0  0  0  0  0  0  0  0  0  0  0
  188.8390  176.2150  142.5640 C   0  0  0  0  0  0  0  0  0  0  0  0
  188.6200  178.5420  141.8230 C   0  0  0  0  0  2  0  0  0  0  0  0
  190.9400  176.8750  147.3780 C   0  0  0  0  0  3  0  0  0  0  0  0
  191.5060  175.2770  149.0060 N   0  0  0  0  0  1  0  0  0  0  0  0
  189.1920  175.2190  143.5960 C   0  0  0  0  0  3  0  0  0  0  0  0
  186.7450  176.2780  141.2430 C   0  0  0  0  0  3  0  0  0  0  0  0
  188.1730  175.8140  141.2720 C   0  0  2  0  0  3  0  0  0  0  0  0
  184.2240  177.7340  140.2600 N   0  0  0  0  0  0  0  0  0  0  0  0
  182.9100  178.0530  140.1680 C   0  0  0  0  0  3  0  0  0  0  0  0
  184.1660  178.1990  142.6030 C   0  0  0  0  0  0  0  0  0  0  0  0
  184.8830  177.8050  141.4470 C   0  0  0  0  0  0  0  0  0  0  0  0
  182.8530  178.5260  142.4570 N   0  0  0  0  0  0  0  0  0  0  0  0
  182.2400  178.4570  141.2770 N   0  0  0  0  0  0  0  0  0  0  0  0
  185.9480  178.2210  146.5060 C   0  0  0  0  0  0  0  0  0  0  0  0
  186.5740  178.2260  147.8550 C   0  0  0  0  0  1  0  0  0  0  0  0
  185.8540  177.0280  145.7810 C   0  0  0  0  0  3  0  0  0  0  0  0
  184.7520  178.2110  143.9640 C   0  0  0  0  0  0  0  0  0  0  0  0
  185.4630  179.4120  145.9580 C   0  0  0  0  0  3  0  0  0  0  0  0
  184.8740  179.4070  144.6900 C   0  0  0  0  0  3  0  0  0  0  0  0
  185.2640  177.0250  144.5130 C   0  0  0  0  0  3  0  0  0  0  0  0
  188.2300  174.3750  141.0660 N   0  0  0  0  0  2  0  0  0  0  0  0
  189.0880  174.1490  139.9810 N   0  0  0  0  0  2  0  0  0  0  0  0
  189.8850  172.9800  140.3120 C   0  0  0  0  0  2  0  0  0  0  0  0
  191.8240  174.2070  141.8490 C   0  0  0  0  0  0  0  0  0  0  0  0
  190.8640  173.3260  141.3260 N   0  0  0  0  0  0  0  0  0  0  0  0
  191.6300  172.9850  142.4540 C   0  0  0  0  0  0  0  0  0  0  0  0
  194.0790  173.1360  145.2220 C   0  0  0  0  0  1  0  0  0  0  0  0
  193.4450  174.7540  143.3720 C   0  0  0  0  0  3  0  0  0  0  0  0
  193.2500  173.4600  144.0280 C   0  0  0  0  0  0  0  0  0  0  0  0
  192.7060  175.1840  142.2110 C   0  0  0  0  0  3  0  0  0  0  0  0
  192.2880  172.5030  143.5480 C   0  0  0  0  0  0  0  0  0  0  0  0
  192.0710  171.2520  144.1330 O   0  0  0  0  0  0  0  0  0  0  0  0
  192.3990  170.0420  143.4670 C   0  0  0  0  0  1  0  0  0  0  0  0
  1 14  1  0  0  0  0
  2  7  1  0  0  0  0
  3 10  1  0  0  0  0
  4 13  1  0  0  0  0
  5  9  2  0  0  0  0
  6  4  2  0  0  0  0
  7  6  1  0  0  0  0
  8  6  1  0  0  0  0
  8  5  1  0  0  0  0
  9  1  1  0  0  0  0
 10 12  1  0  0  0  0
 11  2  2  0  0  0  0
 11 15  1  0  0  0  0
 12  2  1  0  0  0  0
 13  1  2  0  0  0  0
 15  8  2  0  0  0  0
 16 17  1  0  0  0  0
 16  3  2  0  0  0  0
 17 31  1  1  0  0  0
 17 11  1  0  0  0  0
 18 21  1  0  0  0  0
 19 18  2  0  0  0  0
 19 23  1  0  0  0  0
 20 27  1  0  0  0  0
 21  3  1  0  0  0  0
 21 20  2  0  0  0  0
 22 20  1  0  0  0  0
 23 22  2  0  0  0  0
 24 25  1  0  0  0  0
 26 24  2  0  0  0  0
 27 30  2  0  0  0  0
 27 29  1  0  0  0  0
 28 24  1  0  0  0  0
 29 28  2  0  0  0  0
 30 26  1  0  0  0  0
 32 33  1  0  0  0  0
 32 31  1  0  0  0  0
 33 35  1  0  0  0  0
 34 40  2  0  0  0  0
 34 36  1  0  0  0  0
 35 34  1  0  0  0  0
 35 36  1  0  0  0  0
 36 41  2  0  0  0  0
 38 39  2  0  0  0  0
 39 37  1  0  0  0  0
 40 38  1  0  0  0  0
 41 39  1  0  0  0  0
 41 42  1  0  0  0  0
 43 42  1  0  0  0  0
M  END
>  <MODEL>
1

>  <REMARK>
 VINA RESULT:      -8.1      0.000      0.000
  Name = 
  7 active torsions:
  status: ('A' for Active; 'I' for Inactive)
    1  A    between atoms: N_4  and  N_32
    2  A    between atoms: N_4  and  C_42
    3  A    between atoms: C_6  and  C_21
    4  A    between atoms: C_7  and  C_15
    5  A    between atoms: N_10  and  C_29
    6  A    between atoms: O_26  and  C_43
    7  A    between atoms: C_29  and  N_32
                            x       y       z     vdW  Elec       q    Type
                         _______ _______ _______ _____ _____    ______ ____

>  <TORSDO>
F 7

$$$$
=
 OpenBabel11042419153D

 43 49  0  0  1  0  0  0  0  0999 V2000
  194.8450  174.1780  144.3310 C   0  0  0  0  0  0  0  0  0  0  0  0
  190.2610  176.9610  142.6750 C   0  0  0  0  0  0  0  0  0  0  0  0
  187.4420  177.2380  143.7580 C   0  0  0  0  0  0  0  0  0  0  0  0
  193.6250  176.3630  143.8750 C   0  0  0  0  0  3  0  0  0  0  0  0
  192.5660  173.4290  143.5190 C   0  0  0  0  0  3  0  0  0  0  0  0
  192.4070  176.0560  143.4370 C   0  0  0  0  0  0  0  0  0  0  0  0
  191.5720  177.1370  143.1260 O   0  0  0  0  0  0  0  0  0  0  0  0
  191.8660  174.6870  143.2590 C   0  0  0  0  0  0  0  0  0  0  0  0
  193.8010  173.2190  143.9630 C   0  0  0  0  0  3  0  0  0  0  0  0
  188.3910  178.2350  143.4530 O   0  0  0  0  0  0  0  0  0  0  0  0
  189.7630  175.7310  142.5030 C   0  0  0  0  0  0  0  0  0  0  0  0
  189.3940  178.1540  142.4420 C   0  0  0  0  0  2  0  0  0  0  0  0
  194.7420  175.5050  144.2850 C   0  0  0  0  0  3  0  0  0  0  0  0
  196.0820  173.6380  144.7760 N   0  0  0  0  0  1  0  0  0  0  0  0
  190.6100  174.5630  142.8210 C   0  0  0  0  0  3  0  0  0  0  0  0
  187.3920  176.0410  143.1510 C   0  0  0  0  0  3  0  0  0  0  0  0
  188.3250  175.5720  142.0730 C   0  0  2  0  0  3  0  0  0  0  0  0
  185.2320  177.9580  144.4940 N   0  0  0  0  0  0  0  0  0  0  0  0
  184.3300  178.3060  145.4430 C   0  0  0  0  0  3  0  0  0  0  0  0
  186.8060  177.3990  146.2020 C   0  0  0  0  0  0  0  0  0  0  0  0
  186.4720  177.5150  144.8310 C   0  0  0  0  0  0  0  0  0  0  0  0
  185.8730  177.7760  147.1180 N   0  0  0  0  0  0  0  0  0  0  0  0
  184.6710  178.2180  146.7540 N   0  0  0  0  0  0  0  0  0  0  0  0
  190.5260  175.7170  147.5210 C   0  0  0  0  0  0  0  0  0  0  0  0
  191.8160  175.1280  147.9690 C   0  0  0  0  0  1  0  0  0  0  0  0
  189.4220  174.8900  147.2880 C   0  0  0  0  0  3  0  0  0  0  0  0
  188.0850  176.8310  146.6870 C   0  0  0  0  0  0  0  0  0  0  0  0
  190.4210  177.0960  147.3210 C   0  0  0  0  0  3  0  0  0  0  0  0
  189.2070  177.6490  146.9000 C   0  0  0  0  0  3  0  0  0  0  0  0
  188.2090  175.4440  146.8670 C   0  0  0  0  0  3  0  0  0  0  0  0
  188.0230  174.1930  141.7200 N   0  0  0  0  0  2  0  0  0  0  0  0
  188.1710  174.0810  140.3320 N   0  0  0  0  0  2  0  0  0  0  0  0
  188.3520  172.6700  140.0390 C   0  0  0  0  0  2  0  0  0  0  0  0
  191.1080  172.5040  139.9740 C   0  0  0  0  0  0  0  0  0  0  0  0
  189.7430  172.3040  140.2340 N   0  0  0  0  0  0  0  0  0  0  0  0
  190.7180  171.4260  140.7370 C   0  0  0  0  0  0  0  0  0  0  0  0
  193.9750  169.8510  141.5070 C   0  0  0  0  0  1  0  0  0  0  0  0
  193.3100  171.9070  140.1750 C   0  0  0  0  0  3  0  0  0  0  0  0
  192.9130  170.7580  140.9900 C   0  0  0  0  0  0  0  0  0  0  0  0
  192.3780  172.8550  139.6170 C   0  0  0  0  0  3  0  0  0  0  0  0
  191.5330  170.4840  141.2960 C   0  0  0  0  0  0  0  0  0  0  0  0
  191.1030  169.3960  142.0600 O   0  0  0  0  0  0  0  0  0  0  0  0
  190.7160  168.1660  141.4680 C   0  0  0  0  0  1  0  0  0  0  0  0
  1 14  1  0  0  0  0
  2  7  1  0  0  0  0
  3 21  1  0  0  0  0
  4 13  1  0  0  0  0
  5  9  2  0  0  0  0
  6  4  2  0  0  0  0
  7  6  1  0  0  0  0
  8  6  1  0  0  0  0
  8  5  1  0  0  0  0
  9  1  1  0  0  0  0
 10  3  1  0  0  0  0
 11  2  2  0  0  0  0
 11 15  1  0  0  0  0
 12  2  1  0  0  0  0
 12 10  1  0  0  0  0
 13  1  2  0  0  0  0
 15  8  2  0  0  0  0
 16  3  2  0  0  0  0
 17 31  1  1  0  0  0
 17 11  1  0  0  0  0
 17 16  1  0  0  0  0
 18 21  2  0  0  0  0
 18 19  1  0  0  0  0
 19 23  2  0  0  0  0
 20 27  1  0  0  0  0
 20 22  2  0  0  0  0
 21 20  1  0  0  0  0
 23 22  1  0  0  0  0
 24 25  1  0  0  0  0
 26 24  2  0  0  0  0
 27 30  2  0  0  0  0
 27 29  1  0  0  0  0
 28 24  1  0  0  0  0
 29 28  2  0  0  0  0
 30 26  1  0  0  0  0
 32 31  1  0  0  0  0
 33 35  1  0  0  0  0
 33 32  1  0  0  0  0
 34 35  1  0  0  0  0
 34 36  1  0  0  0  0
 35 36  1  0  0  0  0
 36 41  2  0  0  0  0
 38 39  2  0  0  0  0
 39 41  1  0  0  0  0
 39 37  1  0  0  0  0
 40 34  2  0  0  0  0
 40 38  1  0  0  0  0
 41 42  1  0  0  0  0
 43 42  1  0  0  0  0
M  END
>  <MODEL>
2

>  <REMARK>
 VINA RESULT:      -8.0      2.296      3.867
  Name = 
  7 active torsions:
  status: ('A' for Active; 'I' for Inactive)
    1  A    between atoms: N_4  and  N_32
    2  A    between atoms: N_4  and  C_42
    3  A    between atoms: C_6  and  C_21
    4  A    between atoms: C_7  and  C_15
    5  A    between atoms: N_10  and  C_29
    6  A    between atoms: O_26  and  C_43
    7  A    between atoms: C_29  and  N_32
                            x       y       z     vdW  Elec       q    Type
                         _______ _______ _______ _____ _____    ______ ____

>  <TORSDO>
F 7

$$$$
=
 OpenBabel11042419153D

 43 49  0  0  1  0  0  0  0  0999 V2000
  191.0990  171.9670  140.6740 C   0  0  0  0  0  0  0  0  0  0  0  0
  189.9260  174.0990  145.7310 C   0  0  0  0  0  0  0  0  0  0  0  0
  188.6480  176.6710  146.7040 C   0  0  0  0  0  0  0  0  0  0  0  0
  189.8200  171.8810  142.8700 C   0  0  0  0  0  3  0  0  0  0  0  0
  191.9530  173.9880  141.9390 C   0  0  0  0  0  3  0  0  0  0  0  0
  190.2160  172.9180  143.6030 C   0  0  0  0  0  0  0  0  0  0  0  0
  189.6190  173.0450  144.8650 O   0  0  0  0  0  0  0  0  0  0  0  0
  191.2150  173.9370  143.2010 C   0  0  0  0  0  0  0  0  0  0  0  0
  191.9050  173.1700  140.8930 C   0  0  0  0  0  3  0  0  0  0  0  0
  188.2960  175.3330  146.9740 O   0  0  0  0  0  0  0  0  0  0  0  0
  190.8320  175.0210  145.3840 C   0  0  0  0  0  0  0  0  0  0  0  0
  189.1940  174.2260  147.0270 C   0  0  0  0  0  2  0  0  0  0  0  0
  190.2230  171.4450  141.5300 C   0  0  0  0  0  3  0  0  0  0  0  0
  191.2750  171.2960  139.4330 N   0  0  0  0  0  1  0  0  0  0  0  0
  191.4830  174.9230  144.0610 C   0  0  0  0  0  3  0  0  0  0  0  0
  189.8960  177.0720  146.4090 C   0  0  0  0  0  3  0  0  0  0  0  0
  191.0980  176.1780  146.3140 C   0  0  2  0  0  3  0  0  0  0  0  0
  187.3010  178.3370  147.8680 N   0  0  0  0  0  0  0  0  0  0  0  0
  186.2710  179.2140  147.9480 C   0  0  0  0  0  3  0  0  0  0  0  0
  186.7780  177.9440  145.5700 C   0  0  0  0  0  0  0  0  0  0  0  0
  187.5760  177.6800  146.7090 C   0  0  0  0  0  0  0  0  0  0  0  0
  185.7460  178.8200  145.7040 N   0  0  0  0  0  0  0  0  0  0  0  0
  185.4950  179.4380  146.8580 N   0  0  0  0  0  0  0  0  0  0  0  0
  187.6440  176.2480  141.7250 C   0  0  0  0  0  0  0  0  0  0  0  0
  187.9540  175.6580  140.3960 C   0  0  0  0  0  1  0  0  0  0  0  0
  188.3300  177.3860  142.1640 C   0  0  0  0  0  3  0  0  0  0  0  0
  187.0490  177.3690  144.2310 C   0  0  0  0  0  0  0  0  0  0  0  0
  186.6740  175.6580  142.5410 C   0  0  0  0  0  3  0  0  0  0  0  0
  186.3840  176.2130  143.7910 C   0  0  0  0  0  3  0  0  0  0  0  0
  188.0370  177.9400  143.4150 C   0  0  0  0  0  3  0  0  0  0  0  0
  192.2560  176.9500  145.8880 N   0  0  0  0  0  2  0  0  0  0  0  0
  193.2370  176.7980  146.8760 N   0  0  0  0  0  2  0  0  0  0  0  0
  194.5240  176.8600  146.2060 C   0  0  0  0  0  2  0  0  0  0  0  0
  194.7030  174.2920  145.2050 C   0  0  0  0  0  0  0  0  0  0  0  0
  194.6990  175.6860  145.3700 N   0  0  0  0  0  0  0  0  0  0  0  0
  195.0880  175.0960  144.1560 C   0  0  0  0  0  0  0  0  0  0  0  0
  195.8720  172.5850  141.5550 C   0  0  0  0  0  1  0  0  0  0  0  0
  195.0590  172.4080  143.9530 C   0  0  0  0  0  3  0  0  0  0  0  0
  195.4690  173.2480  142.8260 C   0  0  0  0  0  0  0  0  0  0  0  0
  194.6470  172.9280  145.2330 C   0  0  0  0  0  3  0  0  0  0  0  0
  195.4940  174.6840  142.9190 C   0  0  0  0  0  0  0  0  0  0  0  0
  195.8860  175.5280  141.8770 O   0  0  0  0  0  0  0  0  0  0  0  0
  194.9730  176.4020  141.2310 C   0  0  0  0  0  1  0  0  0  0  0  0
  1  9  1  0  0  0  0
  1 13  2  0  0  0  0
  2 12  1  0  0  0  0
  3 21  1  0  0  0  0
  3 10  1  0  0  0  0
  4  6  2  0  0  0  0
  5  8  1  0  0  0  0
  6  7  1  0  0  0  0
  7  2  1  0  0  0  0
  8  6  1  0  0  0  0
  8 15  2  0  0  0  0
  9  5  2  0  0  0  0
 10 12  1  0  0  0  0
 11  2  2  0  0  0  0
 11 17  1  0  0  0  0
 13  4  1  0  0  0  0
 14  1  1  0  0  0  0
 15 11  1  0  0  0  0
 16  3  2  0  0  0  0
 17 31  1  6  0  0  0
 17 16  1  0  0  0  0
 18 19  1  0  0  0  0
 20 22  2  0  0  0  0
 20 21  1  0  0  0  0
 21 18  2  0  0  0  0
 22 23  1  0  0  0  0
 23 19  2  0  0  0  0
 24 26  2  0  0  0  0
 24 28  1  0  0  0  0
 25 24  1  0  0  0  0
 26 30  1  0  0  0  0
 27 20  1  0  0  0  0
 28 29  2  0  0  0  0
 29 27  1  0  0  0  0
 30 27  2  0  0  0  0
 31 32  1  0  0  0  0
 33 32  1  0  0  0  0
 34 40  1  0  0  0  0
 34 35  1  0  0  0  0
 35 33  1  0  0  0  0
 36 34  2  0  0  0  0
 36 35  1  0  0  0  0
 37 39  1  0  0  0  0
 38 40  2  0  0  0  0
 39 41  2  0  0  0  0
 39 38  1  0  0  0  0
 41 36  1  0  0  0  0
 42 41  1  0  0  0  0
 43 42  1  0  0  0  0
M  END
>  <MODEL>
3

>  <REMARK>
 VINA RESULT:      -8.0      2.743      5.823
  Name = 
  7 active torsions:
  status: ('A' for Active; 'I' for Inactive)
    1  A    between atoms: N_4  and  N_32
    2  A    between atoms: N_4  and  C_42
    3  A    between atoms: C_6  and  C_21
    4  A    between atoms: C_7  and  C_15
    5  A    between atoms: N_10  and  C_29
    6  A    between atoms: O_26  and  C_43
    7  A    between atoms: C_29  and  N_32
                            x       y       z     vdW  Elec       q    Type
                         _______ _______ _______ _____ _____    ______ ____

>  <TORSDO>
F 7

$$$$
=
 OpenBabel11042419153D

 43 49  0  0  1  0  0  0  0  0999 V2000
  195.3450  174.0150  140.0910 C   0  0  0  0  0  0  0  0  0  0  0  0
  190.3350  174.2780  142.6060 C   0  0  0  0  0  0  0  0  0  0  0  0
  187.9630  176.1580  142.4150 C   0  0  0  0  0  0  0  0  0  0  0  0
  193.0400  173.0400  140.5410 C   0  0  0  0  0  3  0  0  0  0  0  0
  194.2920  175.6860  141.6770 C   0  0  0  0  0  3  0  0  0  0  0  0
  192.4140  173.8640  141.3770 C   0  0  0  0  0  0  0  0  0  0  0  0
  191.1150  173.4950  141.7500 O   0  0  0  0  0  0  0  0  0  0  0  0
  192.9650  175.1240  141.9320 C   0  0  0  0  0  0  0  0  0  0  0  0
  195.2780  175.2250  140.9140 C   0  0  0  0  0  3  0  0  0  0  0  0
  188.0180  174.7590  142.2470 O   0  0  0  0  0  0  0  0  0  0  0  0
  190.8230  175.4130  143.1200 C   0  0  0  0  0  0  0  0  0  0  0  0
  188.9270  173.8740  142.8980 C   0  0  0  0  0  2  0  0  0  0  0  0
  194.3810  173.1080  139.9520 C   0  0  0  0  0  3  0  0  0  0  0  0
  196.5560  173.7920  139.3810 N   0  0  0  0  0  1  0  0  0  0  0  0
  192.1880  175.8390  142.7510 C   0  0  0  0  0  3  0  0  0  0  0  0
  188.8090  176.8530  143.1940 C   0  0  0  0  0  3  0  0  0  0  0  0
  189.9360  176.2670  143.9930 C   0  0  2  0  0  3  0  0  0  0  0  0
  186.9240  176.8060  140.3070 N   0  0  0  0  0  0  0  0  0  0  0  0
  186.0570  177.5350  139.5630 C   0  0  0  0  0  3  0  0  0  0  0  0
  186.0120  177.7650  142.2960 C   0  0  0  0  0  0  0  0  0  0  0  0
  186.9380  176.9030  141.6630 C   0  0  0  0  0  0  0  0  0  0  0  0
  185.1720  178.4880  141.5050 N   0  0  0  0  0  0  0  0  0  0  0  0
  185.1930  178.3800  140.1780 N   0  0  0  0  0  0  0  0  0  0  0  0
  185.5050  178.1130  146.5420 C   0  0  0  0  0  0  0  0  0  0  0  0
  185.3210  178.2400  148.0120 C   0  0  0  0  0  1  0  0  0  0  0  0
  185.7770  179.2480  145.7700 C   0  0  0  0  0  3  0  0  0  0  0  0
  185.8650  177.8710  143.7660 C   0  0  0  0  0  0  0  0  0  0  0  0
  185.3950  176.8610  145.9310 C   0  0  0  0  0  3  0  0  0  0  0  0
  185.5680  176.7430  144.5480 C   0  0  0  0  0  3  0  0  0  0  0  0
  185.9500  179.1270  144.3870 C   0  0  0  0  0  3  0  0  0  0  0  0
  190.6900  177.3310  144.6390 N   0  0  0  0  0  2  0  0  0  0  0  0
  190.1110  177.5380  145.8990 N   0  0  0  0  0  2  0  0  0  0  0  0
  190.6200  176.4950  146.7720 C   0  0  0  0  0  2  0  0  0  0  0  0
  193.2860  176.5860  146.0540 C   0  0  0  0  0  0  0  0  0  0  0  0
  191.9900  176.1790  146.4120 N   0  0  0  0  0  0  0  0  0  0  0  0
  192.9790  175.2440  146.0610 C   0  0  0  0  0  0  0  0  0  0  0  0
  196.1970  173.7480  145.0200 C   0  0  0  0  0  1  0  0  0  0  0  0
  195.4320  176.1390  145.3900 C   0  0  0  0  0  3  0  0  0  0  0  0
  195.1230  174.7080  145.3950 C   0  0  0  0  0  0  0  0  0  0  0  0
  194.4790  177.1660  145.7330 C   0  0  0  0  0  3  0  0  0  0  0  0
  193.8180  174.2140  145.7460 C   0  0  0  0  0  0  0  0  0  0  0  0
  193.4710  172.8600  145.7570 O   0  0  0  0  0  0  0  0  0  0  0  0
  192.8750  172.2270  144.6360 C   0  0  0  0  0  1  0  0  0  0  0  0
  1  9  1  0  0  0  0
  2 12  1  0  0  0  0
  2 11  2  0  0  0  0
  3 16  2  0  0  0  0
  4  6  2  0  0  0  0
  5  8  1  0  0  0  0
  6  7  1  0  0  0  0
  6  8  1  0  0  0  0
  7  2  1  0  0  0  0
  8 15  2  0  0  0  0
  9  5  2  0  0  0  0
 10  3  1  0  0  0  0
 10 12  1  0  0  0  0
 11 17  1  0  0  0  0
 13  1  2  0  0  0  0
 13  4  1  0  0  0  0
 14  1  1  0  0  0  0
 15 11  1  0  0  0  0
 16 17  1  0  0  0  0
 17 31  1  6  0  0  0
 18 21  1  0  0  0  0
 19 23  1  0  0  0  0
 19 18  2  0  0  0  0
 20 27  1  0  0  0  0
 21 20  2  0  0  0  0
 21  3  1  0  0  0  0
 22 20  1  0  0  0  0
 23 22  2  0  0  0  0
 24 25  1  0  0  0  0
 26 24  2  0  0  0  0
 27 30  2  0  0  0  0
 27 29  1  0  0  0  0
 28 24  1  0  0  0  0
 29 28  2  0  0  0  0
 30 26  1  0  0  0  0
 31 32  1  0  0  0  0
 32 33  1  0  0  0  0
 34 36  1  0  0  0  0
 34 35  1  0  0  0  0
 35 33  1  0  0  0  0
 36 35  1  0  0  0  0
 37 39  1  0  0  0  0
 38 39  2  0  0  0  0
 38 40  1  0  0  0  0
 39 41  1  0  0  0  0
 40 34  2  0  0  0  0
 41 42  1  0  0  0  0
 41 36  2  0  0  0  0
 43 42  1  0  0  0  0
M  END
>  <MODEL>
4

>  <REMARK>
 VINA RESULT:      -7.7      2.377      4.689
  Name = 
  7 active torsions:
  status: ('A' for Active; 'I' for Inactive)
    1  A    between atoms: N_4  and  N_32
    2  A    between atoms: N_4  and  C_42
    3  A    between atoms: C_6  and  C_21
    4  A    between atoms: C_7  and  C_15
    5  A    between atoms: N_10  and  C_29
    6  A    between atoms: O_26  and  C_43
    7  A    between atoms: C_29  and  N_32
                            x       y       z     vdW  Elec       q    Type
                         _______ _______ _______ _____ _____    ______ ____

>  <TORSDO>
F 7

$$$$
=
 OpenBabel11042419153D

 43 49  0  0  1  0  0  0  0  0999 V2000
  195.0980  174.4010  145.1740 C   0  0  0  0  0  0  0  0  0  0  0  0
  190.5690  176.6580  142.7450 C   0  0  0  0  0  0  0  0  0  0  0  0
  187.6670  176.9880  143.5620 C   0  0  0  0  0  0  0  0  0  0  0  0
  193.8480  176.4210  144.2650 C   0  0  0  0  0  3  0  0  0  0  0  0
  192.9140  173.4250  144.3430 C   0  0  0  0  0  3  0  0  0  0  0  0
  192.6780  175.9910  143.8010 C   0  0  0  0  0  0  0  0  0  0  0  0
  191.8350  176.9660  143.2510 O   0  0  0  0  0  0  0  0  0  0  0  0
  192.1960  174.5880  143.8220 C   0  0  0  0  0  0  0  0  0  0  0  0
  194.1160  173.3480  144.9020 C   0  0  0  0  0  3  0  0  0  0  0  0
  188.6050  177.9600  143.1580 O   0  0  0  0  0  0  0  0  0  0  0  0
  190.1250  175.3950  142.7510 C   0  0  0  0  0  0  0  0  0  0  0  0
  189.6850  177.7550  142.2500 C   0  0  0  0  0  2  0  0  0  0  0  0
  194.9560  175.6950  144.8930 C   0  0  0  0  0  3  0  0  0  0  0  0
  196.3140  173.9990  145.7910 N   0  0  0  0  0  1  0  0  0  0  0  0
  190.9820  174.3370  143.3240 C   0  0  0  0  0  3  0  0  0  0  0  0
  187.7030  175.7040  143.1670 C   0  0  0  0  0  3  0  0  0  0  0  0
  188.7310  175.1020  142.2540 C   0  0  2  0  0  3  0  0  0  0  0  0
  185.4190  177.8230  143.9990 N   0  0  0  0  0  0  0  0  0  0  0  0
  184.4430  178.2890  144.8150 C   0  0  0  0  0  3  0  0  0  0  0  0
  186.8090  177.4270  145.9010 C   0  0  0  0  0  0  0  0  0  0  0  0
  186.6090  177.3980  144.5000 C   0  0  0  0  0  0  0  0  0  0  0  0
  185.8060  177.9190  146.6770 N   0  0  0  0  0  0  0  0  0  0  0  0
  184.6550  178.3400  146.1530 N   0  0  0  0  0  0  0  0  0  0  0  0
  190.3430  175.8380  147.7440 C   0  0  0  0  0  0  0  0  0  0  0  0
  191.5700  175.2820  148.3750 C   0  0  0  0  0  1  0  0  0  0  0  0
  189.2780  174.9920  147.4160 C   0  0  0  0  0  3  0  0  0  0  0  0
  188.0210  176.8920  146.5660 C   0  0  0  0  0  0  0  0  0  0  0  0
  190.2590  177.2060  147.4700 C   0  0  0  0  0  3  0  0  0  0  0  0
  189.1050  177.7290  146.8780 C   0  0  0  0  0  3  0  0  0  0  0  0
  188.1250  175.5170  146.8230 C   0  0  0  0  0  3  0  0  0  0  0  0
  188.5010  173.6710  142.1230 N   0  0  0  0  0  2  0  0  0  0  0  0
  187.8030  173.4750  140.9240 N   0  0  0  0  0  2  0  0  0  0  0  0
  188.5890  174.0980  139.8730 C   0  0  0  0  0  2  0  0  0  0  0  0
  189.3450  171.7870  138.5630 C   0  0  0  0  0  0  0  0  0  0  0  0
  188.9720  173.1000  138.8910 N   0  0  0  0  0  0  0  0  0  0  0  0
  189.3450  172.7520  137.5820 C   0  0  0  0  0  0  0  0  0  0  0  0
  190.4460  170.8060  134.6350 C   0  0  0  0  0  1  0  0  0  0  0  0
  190.0430  170.2000  137.0670 C   0  0  0  0  0  3  0  0  0  0  0  0
  190.0470  171.2140  136.0110 C   0  0  0  0  0  0  0  0  0  0  0  0
  189.6780  170.4690  138.4350 C   0  0  0  0  0  3  0  0  0  0  0  0
  189.6810  172.5810  136.2690 C   0  0  0  0  0  0  0  0  0  0  0  0
  189.6770  173.5860  135.2990 O   0  0  0  0  0  0  0  0  0  0  0  0
  189.5540  174.9600  135.6370 C   0  0  0  0  0  1  0  0  0  0  0  0
  1 14  1  0  0  0  0
  2 11  2  0  0  0  0
  2  7  1  0  0  0  0
  3 21  1  0  0  0  0
  4 13  1  0  0  0  0
  5  9  2  0  0  0  0
  6  8  1  0  0  0  0
  6  4  2  0  0  0  0
  7  6  1  0  0  0  0
  8  5  1  0  0  0  0
  9  1  1  0  0  0  0
 10  3  1  0  0  0  0
 11 15  1  0  0  0  0
 12  2  1  0  0  0  0
 12 10  1  0  0  0  0
 13  1  2  0  0  0  0
 15  8  2  0  0  0  0
 16  3  2  0  0  0  0
 17 31  1  1  0  0  0
 17 11  1  0  0  0  0
 17 16  1  0  0  0  0
 18 21  2  0  0  0  0
 18 19  1  0  0  0  0
 19 23  2  0  0  0  0
 20 27  1  0  0  0  0
 20 22  2  0  0  0  0
 21 20  1  0  0  0  0
 23 22  1  0  0  0  0
 24 25  1  0  0  0  0
 26 24  2  0  0  0  0
 27 30  2  0  0  0  0
 27 29  1  0  0  0  0
 28 24  1  0  0  0  0
 29 28  2  0  0  0  0
 30 26  1  0  0  0  0
 32 31  1  0  0  0  0
 33 32  1  0  0  0  0
 34 35  1  0  0  0  0
 35 33  1  0  0  0  0
 36 34  2  0  0  0  0
 36 35  1  0  0  0  0
 37 39  1  0  0  0  0
 38 40  2  0  0  0  0
 39 41  2  0  0  0  0
 39 38  1  0  0  0  0
 40 34  1  0  0  0  0
 41 36  1  0  0  0  0
 42 43  1  0  0  0  0
 42 41  1  0  0  0  0
M  END
>  <MODEL>
5

>  <REMARK>
 VINA RESULT:      -7.5      2.943      5.100
  Name = 
  7 active torsions:
  status: ('A' for Active; 'I' for Inactive)
    1  A    between atoms: N_4  and  N_32
    2  A    between atoms: N_4  and  C_42
    3  A    between atoms: C_6  and  C_21
    4  A    between atoms: C_7  and  C_15
    5  A    between atoms: N_10  and  C_29
    6  A    between atoms: O_26  and  C_43
    7  A    between atoms: C_29  and  N_32
                            x       y       z     vdW  Elec       q    Type
                         _______ _______ _______ _____ _____    ______ ____

>  <TORSDO>
F 7

$$$$
=
 OpenBabel11042419153D

 43 49  0  0  1  0  0  0  0  0999 V2000
  193.6460  176.4200  145.8870 C   0  0  0  0  0  0  0  0  0  0  0  0
  190.2060  172.9350  143.1440 C   0  0  0  0  0  0  0  0  0  0  0  0
  190.0520  171.9170  140.2920 C   0  0  0  0  0  0  0  0  0  0  0  0
  192.6770  174.0970  145.5240 C   0  0  0  0  0  3  0  0  0  0  0  0
  192.0050  176.7510  143.9860 C   0  0  0  0  0  3  0  0  0  0  0  0
  191.7930  174.1830  144.5330 C   0  0  0  0  0  0  0  0  0  0  0  0
  191.1420  172.9940  144.1800 O   0  0  0  0  0  0  0  0  0  0  0  0
  191.4500  175.4130  143.7780 C   0  0  0  0  0  0  0  0  0  0  0  0
  192.9140  177.1670  144.8610 C   0  0  0  0  0  3  0  0  0  0  0  0
  190.1280  171.1970  141.5020 O   0  0  0  0  0  0  0  0  0  0  0  0
  189.8820  174.0390  142.4600 C   0  0  0  0  0  0  0  0  0  0  0  0
  189.6100  171.6210  142.7610 C   0  0  0  0  0  2  0  0  0  0  0  0
  193.5250  175.1190  146.1450 C   0  0  0  0  0  3  0  0  0  0  0  0
  194.5660  177.1570  146.6810 N   0  0  0  0  0  1  0  0  0  0  0  0
  190.5460  175.3130  142.8000 C   0  0  0  0  0  3  0  0  0  0  0  0
  189.5100  173.1410  140.1820 C   0  0  0  0  0  3  0  0  0  0  0  0
  188.9130  173.9330  141.3090 C   0  0  2  0  0  3  0  0  0  0  0  0
  189.9200  170.3560  138.4240 N   0  0  0  0  0  0  0  0  0  0  0  0
  190.4440  169.7010  137.3590 C   0  0  0  0  0  3  0  0  0  0  0  0
  191.9390  171.6170  138.6320 C   0  0  0  0  0  0  0  0  0  0  0  0
  190.6350  171.3040  139.0870 C   0  0  0  0  0  0  0  0  0  0  0  0
  192.4270  170.9210  137.5700 N   0  0  0  0  0  0  0  0  0  0  0  0
  191.7050  169.9890  136.9500 N   0  0  0  0  0  0  0  0  0  0  0  0
  194.2610  174.8130  140.3050 C   0  0  0  0  0  0  0  0  0  0  0  0
  195.0580  175.9280  140.8840 C   0  0  0  0  0  1  0  0  0  0  0  0
  193.8160  174.8840  138.9800 C   0  0  0  0  0  3  0  0  0  0  0  0
  192.7670  172.7020  139.2090 C   0  0  0  0  0  0  0  0  0  0  0  0
  193.9470  173.7000  141.0900 C   0  0  0  0  0  3  0  0  0  0  0  0
  193.1980  172.6530  140.5450 C   0  0  0  0  0  3  0  0  0  0  0  0
  193.0670  173.8350  138.4370 C   0  0  0  0  0  3  0  0  0  0  0  0
  188.5070  175.2460  140.8310 N   0  0  0  0  0  2  0  0  0  0  0  0
  187.3210  175.5790  141.4990 N   0  0  0  0  0  2  0  0  0  0  0  0
  187.4200  176.9820  141.8590 C   0  0  0  0  0  2  0  0  0  0  0  0
  187.8330  176.7010  144.5760 C   0  0  0  0  0  0  0  0  0  0  0  0
  187.4090  177.1190  143.3040 N   0  0  0  0  0  0  0  0  0  0  0  0
  186.8900  177.6990  144.4740 C   0  0  0  0  0  0  0  0  0  0  0  0
  186.2500  178.4710  148.0340 C   0  0  0  0  0  1  0  0  0  0  0  0
  187.7760  176.8160  146.8620 C   0  0  0  0  0  3  0  0  0  0  0  0
  186.7740  177.8800  146.7720 C   0  0  0  0  0  0  0  0  0  0  0  0
  188.3590  176.1650  145.7150 C   0  0  0  0  0  3  0  0  0  0  0  0
  186.2870  178.3600  145.5060 C   0  0  0  0  0  0  0  0  0  0  0  0
  185.3270  179.3650  145.3680 O   0  0  0  0  0  0  0  0  0  0  0  0
  184.4410  179.4140  144.2590 C   0  0  0  0  0  1  0  0  0  0  0  0
  1 13  2  0  0  0  0
  1 14  1  0  0  0  0
  2  7  1  0  0  0  0
  3 10  1  0  0  0  0
  4 13  1  0  0  0  0
  5  9  2  0  0  0  0
  6  4  2  0  0  0  0
  7  6  1  0  0  0  0
  8  5  1  0  0  0  0
  8  6  1  0  0  0  0
  9  1  1  0  0  0  0
 10 12  1  0  0  0  0
 11 15  1  0  0  0  0
 11  2  2  0  0  0  0
 12  2  1  0  0  0  0
 15  8  2  0  0  0  0
 16  3  2  0  0  0  0
 16 17  1  0  0  0  0
 17 31  1  6  0  0  0
 17 11  1  0  0  0  0
 18 21  1  0  0  0  0
 19 18  2  0  0  0  0
 20 21  2  0  0  0  0
 20 27  1  0  0  0  0
 21  3  1  0  0  0  0
 22 20  1  0  0  0  0
 23 19  1  0  0  0  0
 23 22  2  0  0  0  0
 24 25  1  0  0  0  0
 24 28  1  0  0  0  0
 26 24  2  0  0  0  0
 27 29  1  0  0  0  0
 29 28  2  0  0  0  0
 30 26  1  0  0  0  0
 30 27  2  0  0  0  0
 31 32  1  0  0  0  0
 32 33  1  0  0  0  0
 33 35  1  0  0  0  0
 34 40  1  0  0  0  0
 35 36  1  0  0  0  0
 35 34  1  0  0  0  0
 36 34  2  0  0  0  0
 36 41  1  0  0  0  0
 39 38  1  0  0  0  0
 39 37  1  0  0  0  0
 40 38  2  0  0  0  0
 41 39  2  0  0  0  0
 42 41  1  0  0  0  0
 43 42  1  0  0  0  0
M  END
>  <MODEL>
6

>  <REMARK>
 VINA RESULT:      -7.5      2.665      7.914
  Name = 
  7 active torsions:
  status: ('A' for Active; 'I' for Inactive)
    1  A    between atoms: N_4  and  N_32
    2  A    between atoms: N_4  and  C_42
    3  A    between atoms: C_6  and  C_21
    4  A    between atoms: C_7  and  C_15
    5  A    between atoms: N_10  and  C_29
    6  A    between atoms: O_26  and  C_43
    7  A    between atoms: C_29  and  N_32
                            x       y       z     vdW  Elec       q    Type
                         _______ _______ _______ _____ _____    ______ ____

>  <TORSDO>
F 7

$$$$
=
 OpenBabel11042419153D

 43 49  0  0  1  0  0  0  0  0999 V2000
  191.2470  177.1560  148.3780 C   0  0  0  0  0  0  0  0  0  0  0  0
  190.5030  173.4620  144.2190 C   0  0  0  0  0  0  0  0  0  0  0  0
  190.9590  173.5240  141.2210 C   0  0  0  0  0  0  0  0  0  0  0  0
  191.8310  174.9590  147.2370 C   0  0  0  0  0  3  0  0  0  0  0  0
  189.7140  177.1060  146.3640 C   0  0  0  0  0  3  0  0  0  0  0  0
  191.0600  174.8520  146.1590 C   0  0  0  0  0  0  0  0  0  0  0  0
  191.2330  173.6950  145.3890 O   0  0  0  0  0  0  0  0  0  0  0  0
  190.0520  175.8430  145.7080 C   0  0  0  0  0  0  0  0  0  0  0  0
  190.2090  177.6490  147.4700 C   0  0  0  0  0  3  0  0  0  0  0  0
  191.4540  172.6250  142.1890 O   0  0  0  0  0  0  0  0  0  0  0  0
  189.5860  174.3440  143.8050 C   0  0  0  0  0  0  0  0  0  0  0  0
  190.7940  172.2500  143.3970 C   0  0  0  0  0  2  0  0  0  0  0  0
  191.9180  176.0120  148.2540 C   0  0  0  0  0  3  0  0  0  0  0  0
  191.5620  177.9760  149.4960 N   0  0  0  0  0  1  0  0  0  0  0  0
  189.3740  175.5780  144.5880 C   0  0  0  0  0  3  0  0  0  0  0  0
  189.7990  174.1900  141.3420 C   0  0  0  0  0  3  0  0  0  0  0  0
  188.8580  174.0950  142.5070 C   0  0  2  0  0  3  0  0  0  0  0  0
  191.3250  173.3530  138.8170 N   0  0  0  0  0  0  0  0  0  0  0  0
  192.0800  173.4830  137.6990 C   0  0  0  0  0  3  0  0  0  0  0  0
  193.0630  174.3730  140.1000 C   0  0  0  0  0  0  0  0  0  0  0  0
  191.7830  173.7730  140.0270 C   0  0  0  0  0  0  0  0  0  0  0  0
  193.7900  174.4660  138.9540 N   0  0  0  0  0  0  0  0  0  0  0  0
  193.3170  174.0330  137.7860 N   0  0  0  0  0  0  0  0  0  0  0  0
  194.6160  176.0220  143.7440 C   0  0  0  0  0  0  0  0  0  0  0  0
  195.1470  176.5890  145.0130 C   0  0  0  0  0  1  0  0  0  0  0  0
  193.3420  176.3850  143.2930 C   0  0  0  0  0  3  0  0  0  0  0  0
  193.6200  174.9600  141.3420 C   0  0  0  0  0  0  0  0  0  0  0  0
  195.3870  175.1170  143.0090 C   0  0  0  0  0  3  0  0  0  0  0  0
  194.8870  174.5840  141.8170 C   0  0  0  0  0  3  0  0  0  0  0  0
  192.8450  175.8520  142.1000 C   0  0  0  0  0  3  0  0  0  0  0  0
  187.7520  175.0250  142.3290 N   0  0  0  0  0  2  0  0  0  0  0  0
  188.0920  175.8660  141.2610 N   0  0  0  0  0  2  0  0  0  0  0  0
  188.2230  177.2060  141.8060 C   0  0  0  0  0  2  0  0  0  0  0  0
  185.6710  177.9960  142.5100 C   0  0  0  0  0  0  0  0  0  0  0  0
  187.0080  177.5680  142.5150 N   0  0  0  0  0  0  0  0  0  0  0  0
  186.3270  177.8500  143.7110 C   0  0  0  0  0  0  0  0  0  0  0  0
  183.6880  178.8200  146.1140 C   0  0  0  0  0  1  0  0  0  0  0  0
  183.7610  178.6660  143.5810 C   0  0  0  0  0  3  0  0  0  0  0  0
  184.4440  178.5140  144.8680 C   0  0  0  0  0  0  0  0  0  0  0  0
  184.3830  178.4020  142.3080 C   0  0  0  0  0  3  0  0  0  0  0  0
  185.8140  178.0840  144.9540 C   0  0  0  0  0  0  0  0  0  0  0  0
  186.5110  177.9330  146.1560 O   0  0  0  0  0  0  0  0  0  0  0  0
  186.3460  176.7910  146.9840 C   0  0  0  0  0  1  0  0  0  0  0  0
  1 14  1  0  0  0  0
  2  7  1  0  0  0  0
  3 16  2  0  0  0  0
  3 10  1  0  0  0  0
  4 13  1  0  0  0  0
  5  9  2  0  0  0  0
  6  4  2  0  0  0  0
  7  6  1  0  0  0  0
  8  6  1  0  0  0  0
  8  5  1  0  0  0  0
  9  1  1  0  0  0  0
 10 12  1  0  0  0  0
 11  2  2  0  0  0  0
 11 15  1  0  0  0  0
 12  2  1  0  0  0  0
 13  1  2  0  0  0  0
 15  8  2  0  0  0  0
 16 17  1  0  0  0  0
 17 31  1  6  0  0  0
 17 11  1  0  0  0  0
 18 21  1  0  0  0  0
 19 23  1  0  0  0  0
 19 18  2  0  0  0  0
 20 27  1  0  0  0  0
 21 20  2  0  0  0  0
 21  3  1  0  0  0  0
 22 20  1  0  0  0  0
 23 22  2  0  0  0  0
 24 25  1  0  0  0  0
 26 24  1  0  0  0  0
 27 29  2  0  0  0  0
 27 30  1  0  0  0  0
 28 24  2  0  0  0  0
 29 28  1  0  0  0  0
 30 26  2  0  0  0  0
 32 33  1  0  0  0  0
 32 31  1  0  0  0  0
 33 35  1  0  0  0  0
 34 35  1  0  0  0  0
 34 36  1  0  0  0  0
 35 36  1  0  0  0  0
 36 41  2  0  0  0  0
 38 39  2  0  0  0  0
 39 41  1  0  0  0  0
 39 37  1  0  0  0  0
 40 34  2  0  0  0  0
 40 38  1  0  0  0  0
 41 42  1  0  0  0  0
 42 43  1  0  0  0  0
M  END
>  <MODEL>
7

>  <REMARK>
 VINA RESULT:      -7.3      2.151      7.492
  Name = 
  7 active torsions:
  status: ('A' for Active; 'I' for Inactive)
    1  A    between atoms: N_4  and  N_32
    2  A    between atoms: N_4  and  C_42
    3  A    between atoms: C_6  and  C_21
    4  A    between atoms: C_7  and  C_15
    5  A    between atoms: N_10  and  C_29
    6  A    between atoms: O_26  and  C_43
    7  A    between atoms: C_29  and  N_32
                            x       y       z     vdW  Elec       q    Type
                         _______ _______ _______ _____ _____    ______ ____

>  <TORSDO>
F 7

$$$$
=
 OpenBabel11042419153D

 43 49  0  0  1  0  0  0  0  0999 V2000
  190.3520  171.6450  140.4500 C   0  0  0  0  0  0  0  0  0  0  0  0
  189.2800  176.7990  142.3940 C   0  0  0  0  0  0  0  0  0  0  0  0
  187.1300  177.9910  144.1700 C   0  0  0  0  0  0  0  0  0  0  0  0
  190.9920  173.6500  141.8780 C   0  0  0  0  0  3  0  0  0  0  0  0
  188.4570  173.2790  140.0630 C   0  0  0  0  0  3  0  0  0  0  0  0
  190.0400  174.5660  141.7280 C   0  0  0  0  0  0  0  0  0  0  0  0
  190.2130  175.7590  142.4430 O   0  0  0  0  0  0  0  0  0  0  0  0
  188.8260  174.4310  140.8870 C   0  0  0  0  0  0  0  0  0  0  0  0
  189.0900  172.1250  139.8830 C   0  0  0  0  0  3  0  0  0  0  0  0
  188.5330  178.0220  144.3110 O   0  0  0  0  0  0  0  0  0  0  0  0
  188.1840  176.6930  141.6330 C   0  0  0  0  0  0  0  0  0  0  0  0
  189.4800  178.0100  143.2450 C   0  0  0  0  0  2  0  0  0  0  0  0
  191.1360  172.3130  141.2940 C   0  0  0  0  0  3  0  0  0  0  0  0
  190.7760  170.3460  140.0580 N   0  0  0  0  0  1  0  0  0  0  0  0
  187.9630  175.4510  140.8650 C   0  0  0  0  0  3  0  0  0  0  0  0
  186.4980  177.8980  142.9890 C   0  0  0  0  0  3  0  0  0  0  0  0
  187.1670  177.8060  141.6480 C   0  0  2  0  0  3  0  0  0  0  0  0
  185.0440  178.5080  145.3220 N   0  0  0  0  0  0  0  0  0  0  0  0
  184.2800  178.6390  146.4330 C   0  0  0  0  0  3  0  0  0  0  0  0
  186.8240  177.6380  146.6570 C   0  0  0  0  0  0  0  0  0  0  0  0
  186.3140  178.0260  145.3950 C   0  0  0  0  0  0  0  0  0  0  0  0
  186.0250  177.8040  147.7460 N   0  0  0  0  0  0  0  0  0  0  0  0
  184.7890  178.2910  147.6410 N   0  0  0  0  0  0  0  0  0  0  0  0
  190.6770  175.8030  147.1020 C   0  0  0  0  0  0  0  0  0  0  0  0
  192.0130  175.1650  147.2460 C   0  0  0  0  0  1  0  0  0  0  0  0
  189.5990  175.0660  146.5980 C   0  0  0  0  0  3  0  0  0  0  0  0
  188.1510  177.0040  146.8430 C   0  0  0  0  0  0  0  0  0  0  0  0
  190.5010  177.1420  147.4610 C   0  0  0  0  0  3  0  0  0  0  0  0
  189.2450  177.7410  147.3250 C   0  0  0  0  0  3  0  0  0  0  0  0
  188.3430  175.6670  146.4630 C   0  0  0  0  0  3  0  0  0  0  0  0
  186.1660  177.6290  140.6060 N   0  0  0  0  0  2  0  0  0  0  0  0
  185.0070  178.2900  141.0320 N   0  0  0  0  0  2  0  0  0  0  0  0
  183.9490  177.9220  140.1080 C   0  0  0  0  0  2  0  0  0  0  0  0
  181.8730  178.6430  141.7830 C   0  0  0  0  0  0  0  0  0  0  0  0
  182.6580  178.2450  140.6880 N   0  0  0  0  0  0  0  0  0  0  0  0
  181.2560  178.2950  140.6030 C   0  0  0  0  0  0  0  0  0  0  0  0
  177.6920  178.7750  141.4690 C   0  0  0  0  0  1  0  0  0  0  0  0
  179.8520  179.0720  142.7690 C   0  0  0  0  0  3  0  0  0  0  0  0
  179.1790  178.7070  141.5210 C   0  0  0  0  0  0  0  0  0  0  0  0
  181.2820  179.0470  142.9450 C   0  0  0  0  0  3  0  0  0  0  0  0
  179.9130  178.2860  140.3570 C   0  0  0  0  0  0  0  0  0  0  0  0
  179.3170  177.9200  139.1470 O   0  0  0  0  0  0  0  0  0  0  0  0
  178.4920  176.7710  139.0320 C   0  0  0  0  0  1  0  0  0  0  0  0
  1 13  2  0  0  0  0
  2  7  1  0  0  0  0
  2 12  1  0  0  0  0
  3 10  1  0  0  0  0
  3 21  1  0  0  0  0
  5  8  1  0  0  0  0
  6  4  2  0  0  0  0
  6  7  1  0  0  0  0
  8  6  1  0  0  0  0
  9  5  2  0  0  0  0
  9  1  1  0  0  0  0
 11 17  1  0  0  0  0
 11  2  2  0  0  0  0
 12 10  1  0  0  0  0
 13  4  1  0  0  0  0
 14  1  1  0  0  0  0
 15  8  2  0  0  0  0
 15 11  1  0  0  0  0
 16  3  2  0  0  0  0
 17 31  1  6  0  0  0
 17 16  1  0  0  0  0
 18 21  2  0  0  0  0
 18 19  1  0  0  0  0
 19 23  2  0  0  0  0
 20 27  1  0  0  0  0
 20 22  2  0  0  0  0
 21 20  1  0  0  0  0
 23 22  1  0  0  0  0
 24 25  1  0  0  0  0
 24 28  1  0  0  0  0
 26 24  2  0  0  0  0
 27 29  1  0  0  0  0
 29 28  2  0  0  0  0
 30 26  1  0  0  0  0
 30 27  2  0  0  0  0
 31 32  1  0  0  0  0
 33 35  1  0  0  0  0
 33 32  1  0  0  0  0
 34 40  1  0  0  0  0
 35 34  1  0  0  0  0
 36 35  1  0  0  0  0
 36 34  2  0  0  0  0
 37 39  1  0  0  0  0
 38 40  2  0  0  0  0
 39 38  1  0  0  0  0
 41 36  1  0  0  0  0
 41 39  2  0  0  0  0
 42 41  1  0  0  0  0
 43 42  1  0  0  0  0
M  END
>  <MODEL>
8

>  <REMARK>
 VINA RESULT:      -7.2      2.786      8.160
  Name = 
  7 active torsions:
  status: ('A' for Active; 'I' for Inactive)
    1  A    between atoms: N_4  and  N_32
    2  A    between atoms: N_4  and  C_42
    3  A    between atoms: C_6  and  C_21
    4  A    between atoms: C_7  and  C_15
    5  A    between atoms: N_10  and  C_29
    6  A    between atoms: O_26  and  C_43
    7  A    between atoms: C_29  and  N_32
                            x       y       z     vdW  Elec       q    Type
                         _______ _______ _______ _____ _____    ______ ____

>  <TORSDO>
F 7

$$$$
=
 OpenBabel11042419153D

 43 49  0  0  1  0  0  0  0  0999 V2000
  194.6520  172.5600  139.0930 C   0  0  0  0  0  0  0  0  0  0  0  0
  190.2200  173.8270  142.2930 C   0  0  0  0  0  0  0  0  0  0  0  0
  188.1090  176.0030  142.2270 C   0  0  0  0  0  0  0  0  0  0  0  0
  192.3530  171.9890  140.0150 C   0  0  0  0  0  3  0  0  0  0  0  0
  194.1070  174.5290  140.5890 C   0  0  0  0  0  3  0  0  0  0  0  0
  191.9890  172.9810  140.8230 C   0  0  0  0  0  0  0  0  0  0  0  0
  190.7360  172.8500  141.4370 O   0  0  0  0  0  0  0  0  0  0  0  0
  192.7830  174.1990  141.1180 C   0  0  0  0  0  0  0  0  0  0  0  0
  194.8810  173.8490  139.7500 C   0  0  0  0  0  3  0  0  0  0  0  0
  187.9570  174.6010  142.2360 O   0  0  0  0  0  0  0  0  0  0  0  0
  190.9290  174.9270  142.5730 C   0  0  0  0  0  0  0  0  0  0  0  0
  188.8430  173.6680  142.8500 C   0  0  0  0  0  2  0  0  0  0  0  0
  193.5710  171.7940  139.2230 C   0  0  0  0  0  3  0  0  0  0  0  0
  195.6860  172.0850  138.2390 N   0  0  0  0  0  1  0  0  0  0  0  0
  192.2540  175.1040  141.9450 C   0  0  0  0  0  3  0  0  0  0  0  0
  189.1570  176.6460  142.7670 C   0  0  0  0  0  3  0  0  0  0  0  0
  190.3210  175.9910  143.4530 C   0  0  2  0  0  3  0  0  0  0  0  0
  186.9960  176.7600  140.1940 N   0  0  0  0  0  0  0  0  0  0  0  0
  186.1180  177.5400  139.5180 C   0  0  0  0  0  3  0  0  0  0  0  0
  186.2040  177.6680  142.2560 C   0  0  0  0  0  0  0  0  0  0  0  0
  187.0750  176.8040  141.5510 C   0  0  0  0  0  0  0  0  0  0  0  0
  185.3520  178.4440  141.5330 N   0  0  0  0  0  0  0  0  0  0  0  0
  185.3080  178.3860  140.2030 N   0  0  0  0  0  0  0  0  0  0  0  0
  185.8960  177.8610  146.5320 C   0  0  0  0  0  0  0  0  0  0  0  0
  185.7810  177.9330  148.0130 C   0  0  0  0  0  1  0  0  0  0  0  0
  186.0570  179.0320  145.7830 C   0  0  0  0  0  3  0  0  0  0  0  0
  186.1270  177.7220  143.7350 C   0  0  0  0  0  0  0  0  0  0  0  0
  185.8330  176.6220  145.8870 C   0  0  0  0  0  3  0  0  0  0  0  0
  185.9420  176.5550  144.4950 C   0  0  0  0  0  3  0  0  0  0  0  0
  186.1660  178.9630  144.3910 C   0  0  0  0  0  3  0  0  0  0  0  0
  191.3030  176.9960  143.8310 N   0  0  0  0  0  2  0  0  0  0  0  0
  191.9350  176.5360  144.9940 N   0  0  0  0  0  2  0  0  0  0  0  0
  193.1990  177.2430  145.0940 C   0  0  0  0  0  2  0  0  0  0  0  0
  195.4620  176.2850  143.8310 C   0  0  0  0  0  0  0  0  0  0  0  0
  194.2660  176.4190  144.5560 N   0  0  0  0  0  0  0  0  0  0  0  0
  194.8170  175.1560  144.2820 C   0  0  0  0  0  0  0  0  0  0  0  0
  197.0610  172.4860  143.0490 C   0  0  0  0  0  1  0  0  0  0  0  0
  197.1170  175.0180  142.8830 C   0  0  0  0  0  3  0  0  0  0  0  0
  196.4450  173.8060  143.3570 C   0  0  0  0  0  0  0  0  0  0  0  0
  196.6220  176.3520  143.1150 C   0  0  0  0  0  3  0  0  0  0  0  0
  195.2150  173.8620  144.1010 C   0  0  0  0  0  0  0  0  0  0  0  0
  194.5310  172.7360  144.5670 O   0  0  0  0  0  0  0  0  0  0  0  0
  193.1150  172.6950  144.6500 C   0  0  0  0  0  1  0  0  0  0  0  0
  1 13  2  0  0  0  0
  1  9  1  0  0  0  0
  2 11  2  0  0  0  0
  2 12  1  0  0  0  0
  3 10  1  0  0  0  0
  3 16  2  0  0  0  0
  4  6  2  0  0  0  0
  5  8  1  0  0  0  0
  6  8  1  0  0  0  0
  6  7  1  0  0  0  0
  7  2  1  0  0  0  0
  8 15  2  0  0  0  0
  9  5  2  0  0  0  0
 10 12  1  0  0  0  0
 11 17  1  0  0  0  0
 13  4  1  0  0  0  0
 14  1  1  0  0  0  0
 15 11  1  0  0  0  0
 16 17  1  0  0  0  0
 17 31  1  6  0  0  0
 18 21  1  0  0  0  0
 19 18  2  0  0  0  0
 19 23  1  0  0  0  0
 20 27  1  0  0  0  0
 21  3  1  0  0  0  0
 21 20  2  0  0  0  0
 22 20  1  0  0  0  0
 23 22  2  0  0  0  0
 24 25  1  0  0  0  0
 26 24  2  0  0  0  0
 27 30  2  0  0  0  0
 27 29  1  0  0  0  0
 28 24  1  0  0  0  0
 29 28  2  0  0  0  0
 30 26  1  0  0  0  0
 31 32  1  0  0  0  0
 32 33  1  0  0  0  0
 34 36  1  0  0  0  0
 34 35  1  0  0  0  0
 35 33  1  0  0  0  0
 36 35  1  0  0  0  0
 37 39  1  0  0  0  0
 38 40  1  0  0  0  0
 38 39  2  0  0  0  0
 39 41  1  0  0  0  0
 40 34  2  0  0  0  0
 41 36  2  0  0  0  0
 41 42  1  0  0  0  0
 42 43  1  0  0  0  0
M  END
>  <MODEL>
9

>  <REMARK>
 VINA RESULT:      -7.2      2.674      4.980
  Name = 
  7 active torsions:
  status: ('A' for Active; 'I' for Inactive)
    1  A    between atoms: N_4  and  N_32
    2  A    between atoms: N_4  and  C_42
    3  A    between atoms: C_6  and  C_21
    4  A    between atoms: C_7  and  C_15
    5  A    between atoms: N_10  and  C_29
    6  A    between atoms: O_26  and  C_43
    7  A    between atoms: C_29  and  N_32
                            x       y       z     vdW  Elec       q    Type
                         _______ _______ _______ _____ _____    ______ ____

>  <TORSDO>
F 7

$$$$
