=
 OpenBabel11042420003D

 52 56  0  0  1  0  0  0  0  0999 V2000
  188.3590  177.4120  145.2050 N   0  0  0  0  0  2  0  0  0  0  0  0
  189.8770  175.7680  145.7710 C   0  0  1  0  0  3  0  0  0  0  0  0
  189.3840  175.8030  143.5640 N   0  0  0  0  0  0  0  0  0  0  0  0
  188.7330  176.2160  142.3530 C   0  0  0  0  0  0  0  0  0  0  0  0
  188.6920  175.4340  141.3690 O   0  0  0  0  0  0  0  0  0  0  0  0
  189.2430  176.1380  147.3970 S   0  0  0  0  0  0  0  0  0  0  0  0
  190.3460  174.4430  145.2670 C   0  0  0  0  0  2  0  0  0  0  0  0
  189.3330  176.4570  144.8210 C   0  0  1  0  0  3  0  0  0  0  0  0
  190.0350  174.5110  143.7550 C   0  0  2  0  0  3  0  0  0  0  0  0
  188.2330  177.4920  146.6540 C   0  0  2  0  0  3  0  0  0  0  0  0
  186.7730  177.3430  147.0480 C   0  0  0  0  0  2  0  0  0  0  0  0
  186.0300  176.8940  145.9540 O   0  0  0  0  0  0  0  0  0  0  0  0
  184.9720  177.8020  145.8560 C   0  0  0  0  0  2  0  0  0  0  0  0
  184.6420  178.3410  147.2300 C   0  0  0  0  0  1  0  0  0  0  0  0
  191.2740  174.4730  142.9950 N   0  0  0  0  0  2  0  0  0  0  0  0
  192.0790  173.4800  143.5720 N   0  0  0  0  0  2  0  0  0  0  0  0
  195.7520  170.8230  145.9120 C   0  0  0  0  0  0  0  0  0  0  0  0
  196.5780  169.7990  146.6040 C   0  0  0  0  0  1  0  0  0  0  0  0
  196.0450  174.2750  144.7190 N   0  0  0  0  0  0  0  0  0  0  0  0
  193.6560  171.4890  144.8920 C   0  0  0  0  0  3  0  0  0  0  0  0
  194.1880  172.7560  144.6100 C   0  0  0  0  0  0  0  0  0  0  0  0
  193.4300  173.7430  143.9600 C   0  0  0  0  0  0  0  0  0  0  0  0
  194.4370  170.5260  145.5420 C   0  0  0  0  0  3  0  0  0  0  0  0
  195.5170  173.0510  144.9870 C   0  0  0  0  0  0  0  0  0  0  0  0
  194.0110  174.9900  143.7010 C   0  0  0  0  0  3  0  0  0  0  0  0
  196.2920  172.0830  145.6360 C   0  0  0  0  0  3  0  0  0  0  0  0
  195.3290  175.2520  144.0920 C   0  0  0  0  0  0  0  0  0  0  0  0
  195.9830  176.5520  143.8090 C   0  0  0  0  0  0  0  0  0  0  0  0
  196.7650  176.8120  142.6290 N   0  0  0  0  0  2  0  0  0  0  0  0
  195.8470  177.4830  144.6480 O   0  0  0  0  0  0  0  0  0  0  0  0
  196.9190  175.2560  140.5400 C   0  0  0  0  0  3  0  0  0  0  0  0
  196.8460  175.9780  141.5040 C   0  0  0  0  0  0  0  0  0  0  0  0
  188.1270  177.5780  142.2220 C   0  0  0  0  0  2  0  0  0  0  0  0
  187.3620  177.7080  140.9120 C   0  0  0  0  0  2  0  0  0  0  0  0
  185.3190  177.6970  142.3680 N   0  0  0  0  0  0  0  0  0  0  0  0
  183.5350  178.2250  141.1220 C   0  0  0  0  0  0  0  0  0  0  0  0
  185.8960  177.8510  141.1560 C   0  0  0  0  0  0  0  0  0  0  0  0
  184.0020  177.9030  142.3500 N   0  0  0  0  0  0  0  0  0  0  0  0
  182.1660  178.5260  140.8440 N   0  0  0  0  0  2  0  0  0  0  0  0
  184.7650  178.2670  139.9760 S   0  0  0  0  0  0  0  0  0  0  0  0
  181.1490  178.5400  141.8880 C   0  0  0  0  0  2  0  0  0  0  0  0
  179.8140  179.0900  141.3760 C   0  0  2  0  0  3  0  0  0  0  0  0
  179.3570  180.7280  139.7250 C   0  0  0  0  0  3  0  0  0  0  0  0
  179.9590  180.4090  140.8120 N   0  0  0  0  0  0  0  0  0  0  0  0
  179.4990  182.1040  139.1540 C   0  0  0  0  0  2  0  0  0  0  0  0
  178.1570  182.8280  139.1110 C   0  0  1  0  0  3  0  0  0  0  0  0
  177.6940  183.0030  140.4140 O   0  0  0  0  0  1  0  0  0  0  0  0
  178.2960  184.1940  138.4510 C   0  0  0  0  0  2  0  0  0  0  0  0
  179.6420  184.5430  138.3400 O   0  0  0  0  0  0  0  0  0  0  0  0
  179.6680  185.9220  138.5670 C   0  0  0  0  0  1  0  0  0  0  0  0
  178.7450  179.0790  142.4270 C   0  0  0  0  0  3  0  0  0  0  0  0
  178.9040  178.4880  143.4820 O   0  0  0  0  0  0  0  0  0  0  0  0
  1 10  1  0  0  0  0
  2  7  1  6  0  0  0
  2  6  1  0  0  0  0
  3  9  1  0  0  0  0
  3  8  1  0  0  0  0
  4  3  1  0  0  0  0
  5  4  2  0  0  0  0
  8  1  1  1  0  0  0
  8  2  1  0  0  0  0
  9 15  1  6  0  0  0
  9  7  1  0  0  0  0
 10 11  1  6  0  0  0
 10  6  1  0  0  0  0
 12 11  1  0  0  0  0
 13 12  1  0  0  0  0
 13 14  1  0  0  0  0
 15 16  1  0  0  0  0
 16 22  1  0  0  0  0
 17 18  1  0  0  0  0
 19 24  1  0  0  0  0
 20 23  1  0  0  0  0
 21 20  2  0  0  0  0
 21 24  1  0  0  0  0
 22 21  1  0  0  0  0
 23 17  2  0  0  0  0
 24 26  2  0  0  0  0
 25 22  2  0  0  0  0
 25 27  1  0  0  0  0
 26 17  1  0  0  0  0
 27 19  2  0  0  0  0
 28 27  1  0  0  0  0
 28 30  2  0  0  0  0
 29 28  1  0  0  0  0
 31 32  3  0  0  0  0
 32 29  1  0  0  0  0
 33  4  1  0  0  0  0
 34 37  1  0  0  0  0
 34 33  1  0  0  0  0
 36 38  2  0  0  0  0
 37 35  2  0  0  0  0
 38 35  1  0  0  0  0
 39 36  1  0  0  0  0
 39 41  1  0  0  0  0
 40 36  1  0  0  0  0
 40 37  1  0  0  0  0
 42 41  1  1  0  0  0
 42 51  1  0  0  0  0
 43 44  2  0  0  0  0
 44 42  1  0  0  0  0
 45 43  1  0  0  0  0
 46 45  1  0  0  0  0
 46 47  1  1  0  0  0
 48 46  1  0  0  0  0
 49 48  1  0  0  0  0
 49 50  1  0  0  0  0
 51 52  2  0  0  0  0
M  END
>  <MODEL>
1

>  <REMARK>
 VINA RESULT:      -7.2      0.000      0.000
  Name = 
  19 active torsions:
  status: ('A' for Active; 'I' for Inactive)
    1  A    between atoms: N_1  and  N_40
    2  A    between atoms: N_1  and  C_42
    3  A    between atoms: O_2  and  C_38
    4  A    between atoms: C_4  and  O_8
    5  A    between atoms: C_5  and  C_51
    6  A    between atoms: C_7  and  C_21
    7  A    between atoms: C_7  and  C_22
    8  A    between atoms: O_8  and  C_47
    9  A    between atoms: C_9  and  C_23
   10  A    between atoms: C_16  and  C_22
   11  A    between atoms: N_19  and  C_48
   12  A    between atoms: C_23  and  C_26
   13  A    between atoms: N_24  and  CA_34
   14  A    between atoms: C_26  and  C_38
   15  A    between atoms: C_28  and  N_40
   16  A    between atoms: C_29  and  CA_34
   17  A    between atoms: C_29  and  N_41
   18  A    between atoms: C_32  and  CA_34
   19  A    between atoms: C_47  and  C_50
                            x       y       z     vdW  Elec       q    Type
                         _______ _______ _______ _____ _____    ______ ____

>  <TORSDO>
F 19

$$$$
=
 OpenBabel11042420003D

 52 56  0  0  1  0  0  0  0  0999 V2000
  187.0450  176.6580  146.0570 N   0  0  0  0  0  2  0  0  0  0  0  0
  186.1560  177.2770  144.0190 C   0  0  1  0  0  3  0  0  0  0  0  0
  188.4120  177.1170  143.9950 N   0  0  0  0  0  0  0  0  0  0  0  0
  189.7370  176.9140  144.5090 C   0  0  0  0  0  0  0  0  0  0  0  0
  190.7250  177.3970  143.8990 O   0  0  0  0  0  0  0  0  0  0  0  0
  184.7450  177.6160  145.0570 S   0  0  0  0  0  0  0  0  0  0  0  0
  186.5660  178.0140  142.7870 C   0  0  0  0  0  2  0  0  0  0  0  0
  187.1920  176.8370  144.6590 C   0  0  1  0  0  3  0  0  0  0  0  0
  188.1020  177.8530  142.7740 C   0  0  2  0  0  3  0  0  0  0  0  0
  185.6800  176.9240  146.4900 C   0  0  2  0  0  3  0  0  0  0  0  0
  185.6950  177.9150  147.6420 C   0  0  0  0  0  2  0  0  0  0  0  0
  185.4900  179.2070  147.1580 O   0  0  0  0  0  0  0  0  0  0  0  0
  186.2620  180.0190  147.9940 C   0  0  0  0  0  2  0  0  0  0  0  0
  187.3430  179.1850  148.6460 C   0  0  0  0  0  1  0  0  0  0  0  0
  188.5060  177.0710  141.6170 N   0  0  0  0  0  2  0  0  0  0  0  0
  187.8060  175.8580  141.6760 N   0  0  0  0  0  2  0  0  0  0  0  0
  189.0750  172.6960  137.8780 C   0  0  0  0  0  0  0  0  0  0  0  0
  189.2870  172.0160  136.5730 C   0  0  0  0  0  1  0  0  0  0  0  0
  189.7710  172.1490  141.4330 N   0  0  0  0  0  0  0  0  0  0  0  0
  188.2160  174.5720  139.1510 C   0  0  0  0  0  3  0  0  0  0  0  0
  188.6670  173.9800  140.3400 C   0  0  0  0  0  0  0  0  0  0  0  0
  188.4780  174.5980  141.5860 C   0  0  0  0  0  0  0  0  0  0  0  0
  188.4190  173.9310  137.9240 C   0  0  0  0  0  3  0  0  0  0  0  0
  189.3280  172.7330  140.2880 C   0  0  0  0  0  0  0  0  0  0  0  0
  188.9500  173.9660  142.7420 C   0  0  0  0  0  3  0  0  0  0  0  0
  189.5280  172.0980  139.0580 C   0  0  0  0  0  3  0  0  0  0  0  0
  189.5960  172.7270  142.6570 C   0  0  0  0  0  0  0  0  0  0  0  0
  190.1320  172.0420  143.8570 C   0  0  0  0  0  0  0  0  0  0  0  0
  191.4870  171.5690  143.9690 N   0  0  0  0  0  2  0  0  0  0  0  0
  189.3590  171.8630  144.8360 O   0  0  0  0  0  0  0  0  0  0  0  0
  193.4240  172.1170  142.3080 C   0  0  0  0  0  3  0  0  0  0  0  0
  192.5310  171.8660  143.0780 C   0  0  0  0  0  0  0  0  0  0  0  0
  189.9750  176.1070  145.7460 C   0  0  0  0  0  2  0  0  0  0  0  0
  191.0350  176.7580  146.6250 C   0  0  0  0  0  2  0  0  0  0  0  0
  193.5290  176.6520  146.8650 N   0  0  0  0  0  0  0  0  0  0  0  0
  194.2690  174.7530  145.9390 C   0  0  0  0  0  0  0  0  0  0  0  0
  192.3690  176.1200  146.4220 C   0  0  0  0  0  0  0  0  0  0  0  0
  194.5910  175.8910  146.5950 N   0  0  0  0  0  0  0  0  0  0  0  0
  195.2200  173.7540  145.5630 N   0  0  0  0  0  2  0  0  0  0  0  0
  192.6160  174.6370  145.6560 S   0  0  0  0  0  0  0  0  0  0  0  0
  196.6360  173.8710  145.8910 C   0  0  0  0  0  2  0  0  0  0  0  0
  197.4840  174.1910  144.6560 C   0  0  2  0  0  3  0  0  0  0  0  0
  196.9340  174.9690  142.4850 C   0  0  0  0  0  3  0  0  0  0  0  0
  196.8000  175.0880  143.7560 N   0  0  0  0  0  0  0  0  0  0  0  0
  196.2090  175.8920  141.5570 C   0  0  0  0  0  2  0  0  0  0  0  0
  194.7790  175.4220  141.3120 C   0  0  1  0  0  3  0  0  0  0  0  0
  193.8970  176.3220  141.9050 O   0  0  0  0  0  1  0  0  0  0  0  0
  194.4780  175.3490  139.8200 C   0  0  0  0  0  2  0  0  0  0  0  0
  195.3830  174.4970  139.1860 O   0  0  0  0  0  0  0  0  0  0  0  0
  195.5030  175.0130  137.8920 C   0  0  0  0  0  1  0  0  0  0  0  0
  197.9370  172.9600  143.9330 C   0  0  0  0  0  3  0  0  0  0  0  0
  197.5550  171.8520  144.2730 O   0  0  0  0  0  0  0  0  0  0  0  0
  1 10  1  0  0  0  0
  2  7  1  1  0  0  0
  2  8  1  0  0  0  0
  2  6  1  0  0  0  0
  3  4  1  0  0  0  0
  3  8  1  0  0  0  0
  4 33  1  0  0  0  0
  5  4  2  0  0  0  0
  6 10  1  0  0  0  0
  8  1  1  1  0  0  0
  9 15  1  6  0  0  0
  9  7  1  0  0  0  0
  9  3  1  0  0  0  0
 10 11  1  1  0  0  0
 12 11  1  0  0  0  0
 12 13  1  0  0  0  0
 13 14  1  0  0  0  0
 15 16  1  0  0  0  0
 17 23  2  0  0  0  0
 17 26  1  0  0  0  0
 18 17  1  0  0  0  0
 19 27  2  0  0  0  0
 20 21  2  0  0  0  0
 21 22  1  0  0  0  0
 22 16  1  0  0  0  0
 22 25  2  0  0  0  0
 23 20  1  0  0  0  0
 24 21  1  0  0  0  0
 24 19  1  0  0  0  0
 26 24  2  0  0  0  0
 27 25  1  0  0  0  0
 27 28  1  0  0  0  0
 28 29  1  0  0  0  0
 28 30  2  0  0  0  0
 31 32  3  0  0  0  0
 32 29  1  0  0  0  0
 33 34  1  0  0  0  0
 36 38  2  0  0  0  0
 37 34  1  0  0  0  0
 37 35  2  0  0  0  0
 38 35  1  0  0  0  0
 39 41  1  0  0  0  0
 39 36  1  0  0  0  0
 40 36  1  0  0  0  0
 40 37  1  0  0  0  0
 42 51  1  6  0  0  0
 42 41  1  0  0  0  0
 43 44  2  0  0  0  0
 44 42  1  0  0  0  0
 45 43  1  0  0  0  0
 46 45  1  0  0  0  0
 46 47  1  1  0  0  0
 48 46  1  0  0  0  0
 49 48  1  0  0  0  0
 50 49  1  0  0  0  0
 51 52  2  0  0  0  0
M  END
>  <MODEL>
2

>  <REMARK>
 VINA RESULT:      -6.6      5.072     10.937
  Name = 
  19 active torsions:
  status: ('A' for Active; 'I' for Inactive)
    1  A    between atoms: N_1  and  N_40
    2  A    between atoms: N_1  and  C_42
    3  A    between atoms: O_2  and  C_38
    4  A    between atoms: C_4  and  O_8
    5  A    between atoms: C_5  and  C_51
    6  A    between atoms: C_7  and  C_21
    7  A    between atoms: C_7  and  C_22
    8  A    between atoms: O_8  and  C_47
    9  A    between atoms: C_9  and  C_23
   10  A    between atoms: C_16  and  C_22
   11  A    between atoms: N_19  and  C_48
   12  A    between atoms: C_23  and  C_26
   13  A    between atoms: N_24  and  CA_34
   14  A    between atoms: C_26  and  C_38
   15  A    between atoms: C_28  and  N_40
   16  A    between atoms: C_29  and  CA_34
   17  A    between atoms: C_29  and  N_41
   18  A    between atoms: C_32  and  CA_34
   19  A    between atoms: C_47  and  C_50
                            x       y       z     vdW  Elec       q    Type
                         _______ _______ _______ _____ _____    ______ ____

>  <TORSDO>
F 19

$$$$
=
 OpenBabel11042420003D

 52 56  0  0  1  0  0  0  0  0999 V2000
  188.2100  176.6840  145.2080 N   0  0  0  0  0  2  0  0  0  0  0  0
  189.7170  174.9840  145.6220 C   0  0  1  0  0  3  0  0  0  0  0  0
  189.1240  175.1380  143.4450 N   0  0  0  0  0  0  0  0  0  0  0  0
  188.4280  175.6230  142.2860 C   0  0  0  0  0  0  0  0  0  0  0  0
  188.3240  174.8920  141.2680 O   0  0  0  0  0  0  0  0  0  0  0  0
  189.1650  175.2860  147.2920 S   0  0  0  0  0  0  0  0  0  0  0  0
  190.1320  173.6770  145.0320 C   0  0  0  0  0  2  0  0  0  0  0  0
  189.1450  175.7310  144.7320 C   0  0  1  0  0  3  0  0  0  0  0  0
  189.7540  173.8260  143.5420 C   0  0  2  0  0  3  0  0  0  0  0  0
  188.1520  176.6960  146.6630 C   0  0  2  0  0  3  0  0  0  0  0  0
  186.7090  176.5550  147.1160 C   0  0  0  0  0  2  0  0  0  0  0  0
  185.8550  176.6600  146.0180 O   0  0  0  0  0  0  0  0  0  0  0  0
  184.7890  177.4390  146.4780 C   0  0  0  0  0  2  0  0  0  0  0  0
  184.9350  178.8510  145.9540 C   0  0  0  0  0  1  0  0  0  0  0  0
  190.9560  173.8000  142.7240 N   0  0  0  0  0  2  0  0  0  0  0  0
  191.9260  174.5600  143.3940 N   0  0  0  0  0  2  0  0  0  0  0  0
  195.4760  174.7520  139.7350 C   0  0  0  0  0  0  0  0  0  0  0  0
  196.2450  174.9280  138.4760 C   0  0  0  0  0  1  0  0  0  0  0  0
  196.0120  173.5990  143.1710 N   0  0  0  0  0  0  0  0  0  0  0  0
  193.3910  174.9180  140.9610 C   0  0  0  0  0  3  0  0  0  0  0  0
  194.0200  174.4180  142.1110 C   0  0  0  0  0  0  0  0  0  0  0  0
  193.3170  174.2400  143.3130 C   0  0  0  0  0  0  0  0  0  0  0  0
  194.1180  175.0840  139.7770 C   0  0  0  0  0  3  0  0  0  0  0  0
  195.3910  174.0840  142.0640 C   0  0  0  0  0  0  0  0  0  0  0  0
  193.9940  173.7390  144.4320 C   0  0  0  0  0  3  0  0  0  0  0  0
  196.1120  174.2520  140.8760 C   0  0  0  0  0  3  0  0  0  0  0  0
  195.3520  173.4130  144.3510 C   0  0  0  0  0  0  0  0  0  0  0  0
  196.1050  172.9060  145.5230 C   0  0  0  0  0  0  0  0  0  0  0  0
  196.2320  171.5090  145.8460 N   0  0  0  0  0  2  0  0  0  0  0  0
  196.6640  173.7440  146.2800 O   0  0  0  0  0  0  0  0  0  0  0  0
  195.5400  169.5280  144.2950 C   0  0  0  0  0  3  0  0  0  0  0  0
  195.8630  170.4420  145.0140 C   0  0  0  0  0  0  0  0  0  0  0  0
  187.8470  177.0020  142.2490 C   0  0  0  0  0  2  0  0  0  0  0  0
  187.2610  177.3080  140.8770 C   0  0  0  0  0  2  0  0  0  0  0  0
  185.1610  178.3400  139.9740 N   0  0  0  0  0  0  0  0  0  0  0  0
  183.5800  178.2770  141.5580 C   0  0  0  0  0  0  0  0  0  0  0  0
  185.8430  177.7590  140.9860 C   0  0  0  0  0  0  0  0  0  0  0  0
  183.8990  178.6310  140.2920 N   0  0  0  0  0  0  0  0  0  0  0  0
  182.2820  178.4520  142.1310 N   0  0  0  0  0  2  0  0  0  0  0  0
  184.8800  177.5720  142.3590 S   0  0  0  0  0  0  0  0  0  0  0  0
  181.1700  179.0080  141.3710 C   0  0  0  0  0  2  0  0  0  0  0  0
  180.0390  177.9910  141.1880 C   0  0  2  0  0  3  0  0  0  0  0  0
  178.7640  177.2340  139.3380 C   0  0  0  0  0  3  0  0  0  0  0  0
  179.3140  178.2130  139.9610 N   0  0  0  0  0  0  0  0  0  0  0  0
  177.9990  177.4740  138.0740 C   0  0  0  0  0  2  0  0  0  0  0  0
  178.1500  176.3070  137.1040 C   0  0  1  0  0  3  0  0  0  0  0  0
  179.1870  176.5870  136.2150 O   0  0  0  0  0  1  0  0  0  0  0  0
  178.4740  175.0190  137.8480 C   0  0  0  0  0  2  0  0  0  0  0  0
  178.7500  173.9940  136.9430 O   0  0  0  0  0  0  0  0  0  0  0  0
  179.6110  173.1360  137.6350 C   0  0  0  0  0  1  0  0  0  0  0  0
  179.1010  177.9540  142.3560 C   0  0  0  0  0  3  0  0  0  0  0  0
  178.5720  176.9120  142.7070 O   0  0  0  0  0  0  0  0  0  0  0  0
  1 10  1  0  0  0  0
  2  7  1  6  0  0  0
  2  6  1  0  0  0  0
  3  9  1  0  0  0  0
  3  8  1  0  0  0  0
  4  3  1  0  0  0  0
  5  4  2  0  0  0  0
  8  1  1  1  0  0  0
  8  2  1  0  0  0  0
  9 15  1  6  0  0  0
  9  7  1  0  0  0  0
 10 11  1  6  0  0  0
 10  6  1  0  0  0  0
 12 13  1  0  0  0  0
 12 11  1  0  0  0  0
 14 13  1  0  0  0  0
 15 16  1  0  0  0  0
 17 23  2  0  0  0  0
 17 26  1  0  0  0  0
 18 17  1  0  0  0  0
 19 27  2  0  0  0  0
 20 21  2  0  0  0  0
 21 22  1  0  0  0  0
 22 16  1  0  0  0  0
 22 25  2  0  0  0  0
 23 20  1  0  0  0  0
 24 21  1  0  0  0  0
 24 19  1  0  0  0  0
 26 24  2  0  0  0  0
 27 25  1  0  0  0  0
 27 28  1  0  0  0  0
 28 29  1  0  0  0  0
 28 30  2  0  0  0  0
 31 32  3  0  0  0  0
 32 29  1  0  0  0  0
 33  4  1  0  0  0  0
 34 37  1  0  0  0  0
 34 33  1  0  0  0  0
 35 38  1  0  0  0  0
 35 37  2  0  0  0  0
 36 39  1  0  0  0  0
 36 40  1  0  0  0  0
 37 40  1  0  0  0  0
 38 36  2  0  0  0  0
 41 39  1  0  0  0  0
 42 41  1  1  0  0  0
 42 51  1  0  0  0  0
 43 44  2  0  0  0  0
 44 42  1  0  0  0  0
 45 43  1  0  0  0  0
 46 47  1  6  0  0  0
 46 48  1  0  0  0  0
 46 45  1  0  0  0  0
 49 50  1  0  0  0  0
 49 48  1  0  0  0  0
 51 52  2  0  0  0  0
M  END
>  <MODEL>
3

>  <REMARK>
 VINA RESULT:      -6.5      2.685      4.382
  Name = 
  19 active torsions:
  status: ('A' for Active; 'I' for Inactive)
    1  A    between atoms: N_1  and  N_40
    2  A    between atoms: N_1  and  C_42
    3  A    between atoms: O_2  and  C_38
    4  A    between atoms: C_4  and  O_8
    5  A    between atoms: C_5  and  C_51
    6  A    between atoms: C_7  and  C_21
    7  A    between atoms: C_7  and  C_22
    8  A    between atoms: O_8  and  C_47
    9  A    between atoms: C_9  and  C_23
   10  A    between atoms: C_16  and  C_22
   11  A    between atoms: N_19  and  C_48
   12  A    between atoms: C_23  and  C_26
   13  A    between atoms: N_24  and  CA_34
   14  A    between atoms: C_26  and  C_38
   15  A    between atoms: C_28  and  N_40
   16  A    between atoms: C_29  and  CA_34
   17  A    between atoms: C_29  and  N_41
   18  A    between atoms: C_32  and  CA_34
   19  A    between atoms: C_47  and  C_50
                            x       y       z     vdW  Elec       q    Type
                         _______ _______ _______ _____ _____    ______ ____

>  <TORSDO>
F 19

$$$$
=
 OpenBabel11042420003D

 52 56  0  0  1  0  0  0  0  0999 V2000
  190.8210  171.9340  137.9920 N   0  0  0  0  0  2  0  0  0  0  0  0
  189.4440  173.7870  137.9470 C   0  0  1  0  0  3  0  0  0  0  0  0
  189.6730  172.8970  140.0130 N   0  0  0  0  0  0  0  0  0  0  0  0
  190.1070  171.9740  141.0240 C   0  0  0  0  0  0  0  0  0  0  0  0
  189.4680  171.8840  142.1040 O   0  0  0  0  0  0  0  0  0  0  0  0
  189.4670  173.4100  136.2030 S   0  0  0  0  0  0  0  0  0  0  0  0
  188.3140  174.3710  138.7280 C   0  0  0  0  0  2  0  0  0  0  0  0
  190.1340  172.9680  138.6750 C   0  0  1  0  0  3  0  0  0  0  0  0
  188.5190  173.7800  140.1400 C   0  0  2  0  0  3  0  0  0  0  0  0
  190.6850  172.0660  136.5470 C   0  0  2  0  0  3  0  0  0  0  0  0
  190.2030  170.7500  135.9600 C   0  0  0  0  0  2  0  0  0  0  0  0
  190.7750  170.5550  134.7020 O   0  0  0  0  0  0  0  0  0  0  0  0
  191.5350  169.3900  134.8410 C   0  0  0  0  0  2  0  0  0  0  0  0
  192.9840  169.7590  135.0700 C   0  0  0  0  0  1  0  0  0  0  0  0
  188.8220  174.8470  141.0810 N   0  0  0  0  0  2  0  0  0  0  0  0
  187.9150  174.7260  142.1440 N   0  0  0  0  0  2  0  0  0  0  0  0
  190.2350  175.4980  146.6220 C   0  0  0  0  0  0  0  0  0  0  0  0
  191.0780  175.4270  147.8440 C   0  0  0  0  0  1  0  0  0  0  0  0
  187.6420  177.6370  145.1650 N   0  0  0  0  0  0  0  0  0  0  0  0
  189.5580  174.5780  144.4840 C   0  0  0  0  0  3  0  0  0  0  0  0
  188.6410  175.6260  144.3160 C   0  0  0  0  0  0  0  0  0  0  0  0
  187.8310  175.7160  143.1730 C   0  0  0  0  0  0  0  0  0  0  0  0
  190.3520  174.5150  145.6350 C   0  0  0  0  0  3  0  0  0  0  0  0
  188.5270  176.6160  145.3160 C   0  0  0  0  0  0  0  0  0  0  0  0
  186.9340  176.7840  143.0540 C   0  0  0  0  0  3  0  0  0  0  0  0
  189.3230  176.5470  146.4640 C   0  0  0  0  0  3  0  0  0  0  0  0
  186.8400  177.7470  144.0670 C   0  0  0  0  0  0  0  0  0  0  0  0
  185.9210  178.9040  143.9600 C   0  0  0  0  0  0  0  0  0  0  0  0
  184.9880  179.2800  144.9910 N   0  0  0  0  0  2  0  0  0  0  0  0
  185.9560  179.5990  142.9100 O   0  0  0  0  0  0  0  0  0  0  0  0
  184.9420  178.3130  147.4140 C   0  0  0  0  0  3  0  0  0  0  0  0
  184.9600  178.7610  146.2940 C   0  0  0  0  0  0  0  0  0  0  0  0
  191.3300  171.1330  140.8350 C   0  0  0  0  0  2  0  0  0  0  0  0
  191.1860  169.7960  141.5490 C   0  0  0  0  0  2  0  0  0  0  0  0
  192.3490  170.7690  143.5460 N   0  0  0  0  0  0  0  0  0  0  0  0
  193.5270  169.1570  144.5590 C   0  0  0  0  0  0  0  0  0  0  0  0
  192.0850  169.7200  142.7380 C   0  0  0  0  0  0  0  0  0  0  0  0
  193.1560  170.4570  144.5620 N   0  0  0  0  0  0  0  0  0  0  0  0
  194.3620  168.5650  145.5570 N   0  0  0  0  0  2  0  0  0  0  0  0
  192.8590  168.3170  143.2650 S   0  0  0  0  0  0  0  0  0  0  0  0
  194.8620  169.3230  146.6970 C   0  0  0  0  0  2  0  0  0  0  0  0
  196.3900  169.2660  146.7940 C   0  0  2  0  0  3  0  0  0  0  0  0
  196.3370  171.4250  145.8150 C   0  0  0  0  0  3  0  0  0  0  0  0
  196.9940  170.5340  146.4660 N   0  0  0  0  0  0  0  0  0  0  0  0
  196.9650  172.7450  145.4930 C   0  0  0  0  0  2  0  0  0  0  0  0
  195.9620  173.6920  144.8430 C   0  0  1  0  0  3  0  0  0  0  0  0
  195.7710  173.3110  143.5160 O   0  0  0  0  0  1  0  0  0  0  0  0
  194.6210  173.6450  145.5660 C   0  0  0  0  0  2  0  0  0  0  0  0
  193.9230  174.8360  145.3660 O   0  0  0  0  0  0  0  0  0  0  0  0
  194.4730  175.7260  146.2930 C   0  0  0  0  0  1  0  0  0  0  0  0
  196.9800  168.1690  145.9620 C   0  0  0  0  0  3  0  0  0  0  0  0
  197.6890  168.4170  145.0010 O   0  0  0  0  0  0  0  0  0  0  0  0
  2  8  1  0  0  0  0
  2  7  1  1  0  0  0
  3  9  1  0  0  0  0
  3  4  1  0  0  0  0
  4  5  2  0  0  0  0
  6 10  1  0  0  0  0
  6  2  1  0  0  0  0
  7  9  1  0  0  0  0
  8  1  1  6  0  0  0
  8  3  1  0  0  0  0
  9 15  1  1  0  0  0
 10 11  1  1  0  0  0
 10  1  1  0  0  0  0
 12 13  1  0  0  0  0
 12 11  1  0  0  0  0
 13 14  1  0  0  0  0
 15 16  1  0  0  0  0
 16 22  1  0  0  0  0
 17 18  1  0  0  0  0
 19 24  1  0  0  0  0
 20 23  1  0  0  0  0
 21 20  2  0  0  0  0
 21 24  1  0  0  0  0
 22 21  1  0  0  0  0
 23 17  2  0  0  0  0
 24 26  2  0  0  0  0
 25 22  2  0  0  0  0
 25 27  1  0  0  0  0
 26 17  1  0  0  0  0
 27 19  2  0  0  0  0
 28 27  1  0  0  0  0
 28 29  1  0  0  0  0
 29 32  1  0  0  0  0
 30 28  2  0  0  0  0
 32 31  3  0  0  0  0
 33  4  1  0  0  0  0
 33 34  1  0  0  0  0
 34 37  1  0  0  0  0
 35 38  1  0  0  0  0
 36 38  2  0  0  0  0
 36 39  1  0  0  0  0
 37 40  1  0  0  0  0
 37 35  2  0  0  0  0
 39 41  1  0  0  0  0
 40 36  1  0  0  0  0
 41 42  1  0  0  0  0
 42 51  1  6  0  0  0
 43 44  2  0  0  0  0
 44 42  1  0  0  0  0
 45 43  1  0  0  0  0
 46 47  1  6  0  0  0
 46 45  1  0  0  0  0
 46 48  1  0  0  0  0
 49 48  1  0  0  0  0
 49 50  1  0  0  0  0
 52 51  2  0  0  0  0
M  END
>  <MODEL>
4

>  <REMARK>
 VINA RESULT:      -6.4      5.021     13.063
  Name = 
  19 active torsions:
  status: ('A' for Active; 'I' for Inactive)
    1  A    between atoms: N_1  and  N_40
    2  A    between atoms: N_1  and  C_42
    3  A    between atoms: O_2  and  C_38
    4  A    between atoms: C_4  and  O_8
    5  A    between atoms: C_5  and  C_51
    6  A    between atoms: C_7  and  C_21
    7  A    between atoms: C_7  and  C_22
    8  A    between atoms: O_8  and  C_47
    9  A    between atoms: C_9  and  C_23
   10  A    between atoms: C_16  and  C_22
   11  A    between atoms: N_19  and  C_48
   12  A    between atoms: C_23  and  C_26
   13  A    between atoms: N_24  and  CA_34
   14  A    between atoms: C_26  and  C_38
   15  A    between atoms: C_28  and  N_40
   16  A    between atoms: C_29  and  CA_34
   17  A    between atoms: C_29  and  N_41
   18  A    between atoms: C_32  and  CA_34
   19  A    between atoms: C_47  and  C_50
                            x       y       z     vdW  Elec       q    Type
                         _______ _______ _______ _____ _____    ______ ____

>  <TORSDO>
F 19

$$$$
=
 OpenBabel11042420003D

 52 56  0  0  1  0  0  0  0  0999 V2000
  194.1600  174.9610  143.4960 N   0  0  0  0  0  2  0  0  0  0  0  0
  195.1790  174.6220  141.4520 C   0  0  1  0  0  3  0  0  0  0  0  0
  194.3750  172.7190  142.3740 N   0  0  0  0  0  0  0  0  0  0  0  0
  193.7550  171.8750  143.3560 C   0  0  0  0  0  0  0  0  0  0  0  0
  193.9810  170.6380  143.3490 O   0  0  0  0  0  0  0  0  0  0  0  0
  195.8230  176.2440  141.8230 S   0  0  0  0  0  0  0  0  0  0  0  0
  195.8670  173.5290  140.7030 C   0  0  0  0  0  2  0  0  0  0  0  0
  194.4060  174.1360  142.3700 C   0  0  1  0  0  3  0  0  0  0  0  0
  195.2700  172.2460  141.3220 C   0  0  2  0  0  3  0  0  0  0  0  0
  194.7720  176.2730  143.3410 C   0  0  2  0  0  3  0  0  0  0  0  0
  195.6150  176.5900  144.5640 C   0  0  0  0  0  2  0  0  0  0  0  0
  195.1060  175.9200  145.6780 O   0  0  0  0  0  0  0  0  0  0  0  0
  194.4090  176.9030  146.3870 C   0  0  0  0  0  2  0  0  0  0  0  0
  193.0340  176.3840  146.7480 C   0  0  0  0  0  1  0  0  0  0  0  0
  194.5040  171.5240  140.3190 N   0  0  0  0  0  2  0  0  0  0  0  0
  194.5080  172.3080  139.1560 N   0  0  0  0  0  2  0  0  0  0  0  0
  193.2200  176.1420  136.0460 C   0  0  0  0  0  0  0  0  0  0  0  0
  193.1850  177.3360  135.1620 C   0  0  0  0  0  1  0  0  0  0  0  0
  190.9230  173.6310  137.4030 N   0  0  0  0  0  0  0  0  0  0  0  0
  194.4660  174.6030  137.4460 C   0  0  0  0  0  3  0  0  0  0  0  0
  193.2890  173.8900  137.7200 C   0  0  0  0  0  0  0  0  0  0  0  0
  193.2920  172.7600  138.5530 C   0  0  0  0  0  0  0  0  0  0  0  0
  194.4300  175.7270  136.6120 C   0  0  0  0  0  3  0  0  0  0  0  0
  192.0700  174.3140  137.1460 C   0  0  0  0  0  0  0  0  0  0  0  0
  192.0910  172.0830  138.7910 C   0  0  0  0  0  3  0  0  0  0  0  0
  192.0420  175.4380  136.3130 C   0  0  0  0  0  3  0  0  0  0  0  0
  190.8980  172.5320  138.2110 C   0  0  0  0  0  0  0  0  0  0  0  0
  189.6130  171.8240  138.4210 C   0  0  0  0  0  0  0  0  0  0  0  0
  188.5910  172.2760  139.3280 N   0  0  0  0  0  2  0  0  0  0  0  0
  189.4030  170.7650  137.7700 O   0  0  0  0  0  0  0  0  0  0  0  0
  188.5410  174.5990  140.5160 C   0  0  0  0  0  3  0  0  0  0  0  0
  188.5600  173.5260  139.9650 C   0  0  0  0  0  0  0  0  0  0  0  0
  192.8120  172.4320  144.3760 C   0  0  0  0  0  2  0  0  0  0  0  0
  191.4130  172.5850  143.7950 C   0  0  0  0  0  2  0  0  0  0  0  0
  189.9180  173.5240  145.5760 N   0  0  0  0  0  0  0  0  0  0  0  0
  189.6940  175.7280  145.2500 C   0  0  0  0  0  0  0  0  0  0  0  0
  190.6690  173.6910  144.4660 C   0  0  0  0  0  0  0  0  0  0  0  0
  189.3720  174.6590  146.0140 N   0  0  0  0  0  0  0  0  0  0  0  0
  189.2620  177.0620  145.5250 N   0  0  0  0  0  2  0  0  0  0  0  0
  190.6920  175.3020  143.9650 S   0  0  0  0  0  0  0  0  0  0  0  0
  188.4510  177.3890  146.6910 C   0  0  0  0  0  2  0  0  0  0  0  0
  186.9850  177.6290  146.3180 C   0  0  2  0  0  3  0  0  0  0  0  0
  185.7630  178.1450  144.3520 C   0  0  0  0  0  3  0  0  0  0  0  0
  186.8570  178.2400  145.0180 N   0  0  0  0  0  0  0  0  0  0  0  0
  185.6320  178.7960  143.0110 C   0  0  0  0  0  2  0  0  0  0  0  0
  186.1340  177.8820  141.8990 C   0  0  1  0  0  3  0  0  0  0  0  0
  186.0980  176.5620  142.3450 O   0  0  0  0  0  1  0  0  0  0  0  0
  185.2620  178.0060  140.6560 C   0  0  0  0  0  2  0  0  0  0  0  0
  184.0740  178.6690  140.9640 O   0  0  0  0  0  0  0  0  0  0  0  0
  183.0920  177.9830  140.2420 C   0  0  0  0  0  1  0  0  0  0  0  0
  186.2500  178.4260  147.3520 C   0  0  0  0  0  3  0  0  0  0  0  0
  185.5700  177.8790  148.2040 O   0  0  0  0  0  0  0  0  0  0  0  0
  2  7  1  1  0  0  0
  2  6  1  0  0  0  0
  2  8  1  0  0  0  0
  3  4  1  0  0  0  0
  4 33  1  0  0  0  0
  5  4  2  0  0  0  0
  6 10  1  0  0  0  0
  7  9  1  0  0  0  0
  8  3  1  0  0  0  0
  8  1  1  1  0  0  0
  9 15  1  6  0  0  0
  9  3  1  0  0  0  0
 10  1  1  0  0  0  0
 10 11  1  1  0  0  0
 11 12  1  0  0  0  0
 12 13  1  0  0  0  0
 13 14  1  0  0  0  0
 16 15  1  0  0  0  0
 17 26  2  0  0  0  0
 17 23  1  0  0  0  0
 18 17  1  0  0  0  0
 19 27  1  0  0  0  0
 20 21  1  0  0  0  0
 21 22  2  0  0  0  0
 22 25  1  0  0  0  0
 22 16  1  0  0  0  0
 23 20  2  0  0  0  0
 24 19  2  0  0  0  0
 24 21  1  0  0  0  0
 26 24  1  0  0  0  0
 27 28  1  0  0  0  0
 27 25  2  0  0  0  0
 28 29  1  0  0  0  0
 29 32  1  0  0  0  0
 30 28  2  0  0  0  0
 32 31  3  0  0  0  0
 34 33  1  0  0  0  0
 34 37  1  0  0  0  0
 35 38  1  0  0  0  0
 36 39  1  0  0  0  0
 36 38  2  0  0  0  0
 37 35  2  0  0  0  0
 39 41  1  0  0  0  0
 40 37  1  0  0  0  0
 40 36  1  0  0  0  0
 42 41  1  1  0  0  0
 42 51  1  0  0  0  0
 43 44  2  0  0  0  0
 44 42  1  0  0  0  0
 45 43  1  0  0  0  0
 46 47  1  1  0  0  0
 46 45  1  0  0  0  0
 48 49  1  0  0  0  0
 48 46  1  0  0  0  0
 50 49  1  0  0  0  0
 51 52  2  0  0  0  0
M  END
>  <MODEL>
5

>  <REMARK>
 VINA RESULT:      -6.2      3.958      8.430
  Name = 
  19 active torsions:
  status: ('A' for Active; 'I' for Inactive)
    1  A    between atoms: N_1  and  N_40
    2  A    between atoms: N_1  and  C_42
    3  A    between atoms: O_2  and  C_38
    4  A    between atoms: C_4  and  O_8
    5  A    between atoms: C_5  and  C_51
    6  A    between atoms: C_7  and  C_21
    7  A    between atoms: C_7  and  C_22
    8  A    between atoms: O_8  and  C_47
    9  A    between atoms: C_9  and  C_23
   10  A    between atoms: C_16  and  C_22
   11  A    between atoms: N_19  and  C_48
   12  A    between atoms: C_23  and  C_26
   13  A    between atoms: N_24  and  CA_34
   14  A    between atoms: C_26  and  C_38
   15  A    between atoms: C_28  and  N_40
   16  A    between atoms: C_29  and  CA_34
   17  A    between atoms: C_29  and  N_41
   18  A    between atoms: C_32  and  CA_34
   19  A    between atoms: C_47  and  C_50
                            x       y       z     vdW  Elec       q    Type
                         _______ _______ _______ _____ _____    ______ ____

>  <TORSDO>
F 19

$$$$
=
 OpenBabel11042420003D

 52 56  0  0  1  0  0  0  0  0999 V2000
  192.7210  172.4030  140.3740 N   0  0  0  0  0  2  0  0  0  0  0  0
  194.9850  172.3060  139.9320 C   0  0  1  0  0  3  0  0  0  0  0  0
  194.3360  174.2770  140.8320 N   0  0  0  0  0  0  0  0  0  0  0  0
  193.4410  175.2720  141.3510 C   0  0  0  0  0  0  0  0  0  0  0  0
  193.7880  176.4810  141.3600 O   0  0  0  0  0  0  0  0  0  0  0  0
  194.4440  170.9270  138.9370 S   0  0  0  0  0  0  0  0  0  0  0  0
  196.1190  173.2350  139.6450 C   0  0  0  0  0  2  0  0  0  0  0  0
  194.0280  172.9230  140.5470 C   0  0  1  0  0  3  0  0  0  0  0  0
  195.6680  174.5560  140.3040 C   0  0  2  0  0  3  0  0  0  0  0  0
  192.7340  171.1770  139.5870 C   0  0  2  0  0  3  0  0  0  0  0  0
  191.7440  171.2960  138.4410 C   0  0  0  0  0  2  0  0  0  0  0  0
  191.2070  170.0420  138.1470 O   0  0  0  0  0  0  0  0  0  0  0  0
  189.8640  170.2980  137.8510 C   0  0  0  0  0  2  0  0  0  0  0  0
  189.7410  170.7290  136.4060 C   0  0  0  0  0  1  0  0  0  0  0  0
  196.5650  174.8920  141.3980 N   0  0  0  0  0  2  0  0  0  0  0  0
  196.9040  173.6900  142.0360 N   0  0  0  0  0  2  0  0  0  0  0  0
  194.7190  176.1550  145.9330 C   0  0  0  0  0  0  0  0  0  0  0  0
  194.1620  177.1560  146.8790 C   0  0  0  0  0  1  0  0  0  0  0  0
  195.1340  172.5240  145.6670 N   0  0  0  0  0  0  0  0  0  0  0  0
  195.8250  175.6350  143.8390 C   0  0  0  0  0  3  0  0  0  0  0  0
  195.7760  174.2670  144.1450 C   0  0  0  0  0  0  0  0  0  0  0  0
  196.2960  173.3000  143.2710 C   0  0  0  0  0  0  0  0  0  0  0  0
  195.2990  176.5750  144.7320 C   0  0  0  0  0  3  0  0  0  0  0  0
  195.1890  173.8470  145.3590 C   0  0  0  0  0  0  0  0  0  0  0  0
  196.2180  171.9470  143.6230 C   0  0  0  0  0  3  0  0  0  0  0  0
  194.6650  174.7930  146.2470 C   0  0  0  0  0  3  0  0  0  0  0  0
  195.6350  171.5650  144.8370 C   0  0  0  0  0  0  0  0  0  0  0  0
  195.5130  170.1410  145.2290 C   0  0  0  0  0  0  0  0  0  0  0  0
  194.3520  169.3340  144.9550 N   0  0  0  0  0  2  0  0  0  0  0  0
  196.4780  169.6040  145.8360 O   0  0  0  0  0  0  0  0  0  0  0  0
  192.3750  170.0130  143.3920 C   0  0  0  0  0  3  0  0  0  0  0  0
  193.2870  169.6960  144.1150 C   0  0  0  0  0  0  0  0  0  0  0  0
  192.1070  174.8980  141.9170 C   0  0  0  0  0  2  0  0  0  0  0  0
  192.2260  174.5320  143.3900 C   0  0  0  0  0  2  0  0  0  0  0  0
  190.8170  176.4710  144.1290 N   0  0  0  0  0  0  0  0  0  0  0  0
  189.2850  175.7430  145.5890 C   0  0  0  0  0  0  0  0  0  0  0  0
  191.1330  175.1600  144.1900 C   0  0  0  0  0  0  0  0  0  0  0  0
  189.7870  176.7990  144.9100 N   0  0  0  0  0  0  0  0  0  0  0  0
  188.1600  175.8220  146.4680 N   0  0  0  0  0  2  0  0  0  0  0  0
  190.1170  174.3220  145.2450 S   0  0  0  0  0  0  0  0  0  0  0  0
  187.4310  177.0660  146.6810 C   0  0  0  0  0  2  0  0  0  0  0  0
  186.1850  177.1570  145.7940 C   0  0  2  0  0  3  0  0  0  0  0  0
  186.3640  177.5690  143.4660 C   0  0  0  0  0  3  0  0  0  0  0  0
  186.3960  178.0290  144.6650 N   0  0  0  0  0  0  0  0  0  0  0  0
  186.5670  178.4820  142.2980 C   0  0  0  0  0  2  0  0  0  0  0  0
  187.6300  177.9410  141.3480 C   0  0  1  0  0  3  0  0  0  0  0  0
  188.8910  178.1950  141.8860 O   0  0  0  0  0  1  0  0  0  0  0  0
  187.4720  176.4380  141.1540 C   0  0  0  0  0  2  0  0  0  0  0  0
  188.6310  175.7740  141.5570 O   0  0  0  0  0  0  0  0  0  0  0  0
  188.1870  174.5170  141.9790 C   0  0  0  0  0  1  0  0  0  0  0  0
  184.9630  177.5670  146.5580 C   0  0  0  0  0  3  0  0  0  0  0  0
  184.3720  178.6020  146.2950 O   0  0  0  0  0  0  0  0  0  0  0  0
  2  7  1  6  0  0  0
  2  8  1  0  0  0  0
  3  4  1  0  0  0  0
  4  5  2  0  0  0  0
  4 33  1  0  0  0  0
  6 10  1  0  0  0  0
  6  2  1  0  0  0  0
  7  9  1  0  0  0  0
  8  1  1  6  0  0  0
  8  3  1  0  0  0  0
  9  3  1  0  0  0  0
  9 15  1  1  0  0  0
 10 11  1  6  0  0  0
 10  1  1  0  0  0  0
 12 11  1  0  0  0  0
 13 12  1  0  0  0  0
 14 13  1  0  0  0  0
 15 16  1  0  0  0  0
 16 22  1  0  0  0  0
 17 26  1  0  0  0  0
 17 18  1  0  0  0  0
 20 21  2  0  0  0  0
 20 23  1  0  0  0  0
 21 24  1  0  0  0  0
 22 25  2  0  0  0  0
 22 21  1  0  0  0  0
 23 17  2  0  0  0  0
 24 19  1  0  0  0  0
 24 26  2  0  0  0  0
 25 27  1  0  0  0  0
 27 28  1  0  0  0  0
 27 19  2  0  0  0  0
 28 30  2  0  0  0  0
 29 28  1  0  0  0  0
 31 32  3  0  0  0  0
 32 29  1  0  0  0  0
 33 34  1  0  0  0  0
 34 37  1  0  0  0  0
 35 37  2  0  0  0  0
 35 38  1  0  0  0  0
 36 39  1  0  0  0  0
 37 40  1  0  0  0  0
 38 36  2  0  0  0  0
 39 41  1  0  0  0  0
 40 36  1  0  0  0  0
 42 51  1  1  0  0  0
 42 41  1  0  0  0  0
 43 44  2  0  0  0  0
 44 42  1  0  0  0  0
 45 43  1  0  0  0  0
 46 47  1  1  0  0  0
 46 45  1  0  0  0  0
 48 46  1  0  0  0  0
 48 49  1  0  0  0  0
 49 50  1  0  0  0  0
 52 51  2  0  0  0  0
M  END
>  <MODEL>
6

>  <REMARK>
 VINA RESULT:      -6.2      4.727      8.108
  Name = 
  19 active torsions:
  status: ('A' for Active; 'I' for Inactive)
    1  A    between atoms: N_1  and  N_40
    2  A    between atoms: N_1  and  C_42
    3  A    between atoms: O_2  and  C_38
    4  A    between atoms: C_4  and  O_8
    5  A    between atoms: C_5  and  C_51
    6  A    between atoms: C_7  and  C_21
    7  A    between atoms: C_7  and  C_22
    8  A    between atoms: O_8  and  C_47
    9  A    between atoms: C_9  and  C_23
   10  A    between atoms: C_16  and  C_22
   11  A    between atoms: N_19  and  C_48
   12  A    between atoms: C_23  and  C_26
   13  A    between atoms: N_24  and  CA_34
   14  A    between atoms: C_26  and  C_38
   15  A    between atoms: C_28  and  N_40
   16  A    between atoms: C_29  and  CA_34
   17  A    between atoms: C_29  and  N_41
   18  A    between atoms: C_32  and  CA_34
   19  A    between atoms: C_47  and  C_50
                            x       y       z     vdW  Elec       q    Type
                         _______ _______ _______ _____ _____    ______ ____

>  <TORSDO>
F 19

$$$$
=
 OpenBabel11042420003D

 52 56  0  0  1  0  0  0  0  0999 V2000
  191.2610  172.1730  139.7650 N   0  0  0  0  0  2  0  0  0  0  0  0
  191.7650  170.0330  140.4690 C   0  0  1  0  0  3  0  0  0  0  0  0
  193.4290  171.5150  140.8610 N   0  0  0  0  0  0  0  0  0  0  0  0
  194.1230  172.7710  140.8420 C   0  0  0  0  0  0  0  0  0  0  0  0
  195.3750  172.7950  140.9640 O   0  0  0  0  0  0  0  0  0  0  0  0
  190.3880  169.6610  139.3980 S   0  0  0  0  0  0  0  0  0  0  0  0
  192.9660  169.1820  140.7220 C   0  0  0  0  0  2  0  0  0  0  0  0
  192.0710  171.2900  140.5220 C   0  0  1  0  0  3  0  0  0  0  0  0
  194.0720  170.2160  141.0260 C   0  0  2  0  0  3  0  0  0  0  0  0
  190.1500  171.4730  139.1360 C   0  0  2  0  0  3  0  0  0  0  0  0
  190.1210  171.7950  137.6510 C   0  0  0  0  0  2  0  0  0  0  0  0
  189.9810  173.1710  137.4670 O   0  0  0  0  0  0  0  0  0  0  0  0
  188.7600  173.4810  138.0730 C   0  0  0  0  0  2  0  0  0  0  0  0
  188.2610  174.8100  137.5490 C   0  0  0  0  0  1  0  0  0  0  0  0
  194.5230  170.0660  142.4010 N   0  0  0  0  0  2  0  0  0  0  0  0
  193.5250  170.6100  143.2210 N   0  0  0  0  0  2  0  0  0  0  0  0
  190.6050  174.0680  145.5780 C   0  0  0  0  0  0  0  0  0  0  0  0
  189.4940  174.8910  146.1220 C   0  0  0  0  0  1  0  0  0  0  0  0
  194.2680  173.9850  145.6160 N   0  0  0  0  0  0  0  0  0  0  0  0
  191.3690  172.1740  144.2710 C   0  0  0  0  0  3  0  0  0  0  0  0
  192.7020  172.5140  144.5440 C   0  0  0  0  0  0  0  0  0  0  0  0
  193.7710  171.7570  144.0410 C   0  0  0  0  0  0  0  0  0  0  0  0
  190.3240  172.9500  144.7860 C   0  0  0  0  0  3  0  0  0  0  0  0
  192.9800  173.6450  145.3440 C   0  0  0  0  0  0  0  0  0  0  0  0
  195.0830  172.1390  144.3460 C   0  0  0  0  0  3  0  0  0  0  0  0
  191.9310  174.4150  145.8550 C   0  0  0  0  0  3  0  0  0  0  0  0
  195.3250  173.2680  145.1370 C   0  0  0  0  0  0  0  0  0  0  0  0
  196.7000  173.6850  145.5000 C   0  0  0  0  0  0  0  0  0  0  0  0
  197.5070  174.5650  144.6960 N   0  0  0  0  0  2  0  0  0  0  0  0
  197.1920  173.2450  146.5740 O   0  0  0  0  0  0  0  0  0  0  0  0
  196.6710  175.9520  142.6490 C   0  0  0  0  0  3  0  0  0  0  0  0
  197.0540  175.3090  143.5960 C   0  0  0  0  0  0  0  0  0  0  0  0
  193.3840  174.0660  140.7140 C   0  0  0  0  0  2  0  0  0  0  0  0
  193.3940  174.8300  142.0310 C   0  0  0  0  0  2  0  0  0  0  0  0
  192.0100  176.7800  142.7880 N   0  0  0  0  0  0  0  0  0  0  0  0
  189.8530  176.3470  142.3700 C   0  0  0  0  0  0  0  0  0  0  0  0
  192.1020  175.5440  142.2490 C   0  0  0  0  0  0  0  0  0  0  0  0
  190.7560  177.2280  142.8580 N   0  0  0  0  0  0  0  0  0  0  0  0
  188.4490  176.6010  142.3010 N   0  0  0  0  0  2  0  0  0  0  0  0
  190.5870  174.9380  141.8190 S   0  0  0  0  0  0  0  0  0  0  0  0
  187.8690  177.8680  142.7310 C   0  0  0  0  0  2  0  0  0  0  0  0
  186.7950  178.3640  141.7580 C   0  0  2  0  0  3  0  0  0  0  0  0
  185.4540  178.5830  143.7000 C   0  0  0  0  0  3  0  0  0  0  0  0
  185.5310  178.5770  142.4190 N   0  0  0  0  0  0  0  0  0  0  0  0
  184.1420  178.8210  144.3790 C   0  0  0  0  0  2  0  0  0  0  0  0
  184.3340  179.1650  145.8530 C   0  0  1  0  0  3  0  0  0  0  0  0
  183.5960  178.2720  146.6270 O   0  0  0  0  0  1  0  0  0  0  0  0
  185.8010  179.0640  146.2480 C   0  0  0  0  0  2  0  0  0  0  0  0
  185.9690  178.0960  147.2390 O   0  0  0  0  0  0  0  0  0  0  0  0
  187.3550  177.9610  147.3680 C   0  0  0  0  0  1  0  0  0  0  0  0
  186.6270  177.4600  140.5750 C   0  0  0  0  0  3  0  0  0  0  0  0
  185.5810  177.4270  139.9490 O   0  0  0  0  0  0  0  0  0  0  0  0
  2  8  1  0  0  0  0
  2  7  1  6  0  0  0
  3  9  1  0  0  0  0
  4  3  1  0  0  0  0
  4  5  2  0  0  0  0
  6  2  1  0  0  0  0
  7  9  1  0  0  0  0
  8  1  1  6  0  0  0
  8  3  1  0  0  0  0
  9 15  1  1  0  0  0
 10 11  1  6  0  0  0
 10  6  1  0  0  0  0
 10  1  1  0  0  0  0
 12 11  1  0  0  0  0
 12 13  1  0  0  0  0
 14 13  1  0  0  0  0
 15 16  1  0  0  0  0
 16 22  1  0  0  0  0
 17 26  1  0  0  0  0
 17 18  1  0  0  0  0
 20 21  2  0  0  0  0
 20 23  1  0  0  0  0
 21 24  1  0  0  0  0
 22 25  2  0  0  0  0
 22 21  1  0  0  0  0
 23 17  2  0  0  0  0
 24 19  1  0  0  0  0
 24 26  2  0  0  0  0
 25 27  1  0  0  0  0
 27 28  1  0  0  0  0
 27 19  2  0  0  0  0
 28 30  2  0  0  0  0
 29 28  1  0  0  0  0
 31 32  3  0  0  0  0
 32 29  1  0  0  0  0
 33  4  1  0  0  0  0
 33 34  1  0  0  0  0
 34 37  1  0  0  0  0
 35 38  1  0  0  0  0
 36 38  2  0  0  0  0
 37 35  2  0  0  0  0
 39 36  1  0  0  0  0
 39 41  1  0  0  0  0
 40 37  1  0  0  0  0
 40 36  1  0  0  0  0
 42 51  1  6  0  0  0
 42 44  1  0  0  0  0
 42 41  1  0  0  0  0
 43 45  1  0  0  0  0
 44 43  2  0  0  0  0
 45 46  1  0  0  0  0
 46 48  1  0  0  0  0
 46 47  1  1  0  0  0
 48 49  1  0  0  0  0
 49 50  1  0  0  0  0
 52 51  2  0  0  0  0
M  END
>  <MODEL>
7

>  <REMARK>
 VINA RESULT:      -6.2      4.324      7.335
  Name = 
  19 active torsions:
  status: ('A' for Active; 'I' for Inactive)
    1  A    between atoms: N_1  and  N_40
    2  A    between atoms: N_1  and  C_42
    3  A    between atoms: O_2  and  C_38
    4  A    between atoms: C_4  and  O_8
    5  A    between atoms: C_5  and  C_51
    6  A    between atoms: C_7  and  C_21
    7  A    between atoms: C_7  and  C_22
    8  A    between atoms: O_8  and  C_47
    9  A    between atoms: C_9  and  C_23
   10  A    between atoms: C_16  and  C_22
   11  A    between atoms: N_19  and  C_48
   12  A    between atoms: C_23  and  C_26
   13  A    between atoms: N_24  and  CA_34
   14  A    between atoms: C_26  and  C_38
   15  A    between atoms: C_28  and  N_40
   16  A    between atoms: C_29  and  CA_34
   17  A    between atoms: C_29  and  N_41
   18  A    between atoms: C_32  and  CA_34
   19  A    between atoms: C_47  and  C_50
                            x       y       z     vdW  Elec       q    Type
                         _______ _______ _______ _____ _____    ______ ____

>  <TORSDO>
F 19

$$$$
=
 OpenBabel11042420003D

 52 56  0  0  1  0  0  0  0  0999 V2000
  194.2010  171.9500  140.1210 N   0  0  0  0  0  2  0  0  0  0  0  0
  196.4210  172.0930  140.7390 C   0  0  1  0  0  3  0  0  0  0  0  0
  195.2460  173.9710  141.1950 N   0  0  0  0  0  0  0  0  0  0  0  0
  194.1200  174.8600  141.2310 C   0  0  0  0  0  0  0  0  0  0  0  0
  194.3040  176.0980  141.3580 O   0  0  0  0  0  0  0  0  0  0  0  0
  196.5210  170.6840  139.6490 S   0  0  0  0  0  0  0  0  0  0  0  0
  197.4650  173.1380  140.9600 C   0  0  0  0  0  2  0  0  0  0  0  0
  195.2340  172.5980  140.8440 C   0  0  1  0  0  3  0  0  0  0  0  0
  196.6380  174.3940  141.3090 C   0  0  2  0  0  3  0  0  0  0  0  0
  194.6860  170.7460  139.4600 C   0  0  2  0  0  3  0  0  0  0  0  0
  194.3050  170.7840  137.9890 C   0  0  0  0  0  2  0  0  0  0  0  0
  195.3960  171.2050  137.2280 O   0  0  0  0  0  0  0  0  0  0  0  0
  194.9490  172.3650  136.5890 C   0  0  0  0  0  2  0  0  0  0  0  0
  195.6500  173.5680  137.1830 C   0  0  0  0  0  1  0  0  0  0  0  0
  196.9140  174.8010  142.6780 N   0  0  0  0  0  2  0  0  0  0  0  0
  197.0030  173.6300  143.4440 N   0  0  0  0  0  2  0  0  0  0  0  0
  193.2590  175.8210  146.1290 C   0  0  0  0  0  0  0  0  0  0  0  0
  192.3240  176.7550  146.8090 C   0  0  0  0  0  1  0  0  0  0  0  0
  193.7700  172.2150  145.7300 N   0  0  0  0  0  0  0  0  0  0  0  0
  195.2060  175.4470  144.7340 C   0  0  0  0  0  3  0  0  0  0  0  0
  195.0290  174.0600  144.8480 C   0  0  0  0  0  0  0  0  0  0  0  0
  195.8980  173.1550  144.2190 C   0  0  0  0  0  0  0  0  0  0  0  0
  194.3230  176.3240  145.3740 C   0  0  0  0  0  3  0  0  0  0  0  0
  193.9530  173.5570  145.6120 C   0  0  0  0  0  0  0  0  0  0  0  0
  195.6750  171.7800  144.3630 C   0  0  0  0  0  3  0  0  0  0  0  0
  193.0740  174.4400  146.2490 C   0  0  0  0  0  3  0  0  0  0  0  0
  194.6020  171.3140  145.1320 C   0  0  0  0  0  0  0  0  0  0  0  0
  194.3210  169.8670  145.2830 C   0  0  0  0  0  0  0  0  0  0  0  0
  193.3900  169.1440  144.4580 N   0  0  0  0  0  2  0  0  0  0  0  0
  194.9320  169.2320  146.1850 O   0  0  0  0  0  0  0  0  0  0  0  0
  192.2670  170.0440  142.2810 C   0  0  0  0  0  3  0  0  0  0  0  0
  192.7890  169.6310  143.2870 C   0  0  0  0  0  0  0  0  0  0  0  0
  192.7180  174.3420  141.1530 C   0  0  0  0  0  2  0  0  0  0  0  0
  192.0110  174.4840  142.4940 C   0  0  0  0  0  2  0  0  0  0  0  0
  189.7070  174.6480  141.5180 N   0  0  0  0  0  0  0  0  0  0  0  0
  188.6610  176.4140  142.4120 C   0  0  0  0  0  0  0  0  0  0  0  0
  190.6730  175.1250  142.3320 C   0  0  0  0  0  0  0  0  0  0  0  0
  188.5840  175.3670  141.5590 N   0  0  0  0  0  0  0  0  0  0  0  0
  187.5830  177.3190  142.6620 N   0  0  0  0  0  2  0  0  0  0  0  0
  190.1610  176.4980  143.1680 S   0  0  0  0  0  0  0  0  0  0  0  0
  186.2790  177.1630  142.0290 C   0  0  0  0  0  2  0  0  0  0  0  0
  185.3990  178.4020  142.2230 C   0  0  2  0  0  3  0  0  0  0  0  0
  184.4420  178.2860  144.3890 C   0  0  0  0  0  3  0  0  0  0  0  0
  185.3260  178.7950  143.6090 N   0  0  0  0  0  0  0  0  0  0  0  0
  184.3830  178.6860  145.8300 C   0  0  0  0  0  2  0  0  0  0  0  0
  185.7490  178.5610  146.4970 C   0  0  1  0  0  3  0  0  0  0  0  0
  185.7750  179.3690  147.6330 O   0  0  0  0  0  1  0  0  0  0  0  0
  186.0220  177.1210  146.9110 C   0  0  0  0  0  2  0  0  0  0  0  0
  186.9480  176.5370  146.0470 O   0  0  0  0  0  0  0  0  0  0  0  0
  188.1420  177.2210  146.2970 C   0  0  0  0  0  1  0  0  0  0  0  0
  184.0250  178.2280  141.6490 C   0  0  0  0  0  3  0  0  0  0  0  0
  183.7800  178.5390  140.4960 O   0  0  0  0  0  0  0  0  0  0  0  0
  2  8  1  0  0  0  0
  2  7  1  6  0  0  0
  3  4  1  0  0  0  0
  3  9  1  0  0  0  0
  4  5  2  0  0  0  0
  6  2  1  0  0  0  0
  7  9  1  0  0  0  0
  8  1  1  6  0  0  0
  8  3  1  0  0  0  0
  9 15  1  1  0  0  0
 10 11  1  6  0  0  0
 10  6  1  0  0  0  0
 10  1  1  0  0  0  0
 12 11  1  0  0  0  0
 13 14  1  0  0  0  0
 13 12  1  0  0  0  0
 15 16  1  0  0  0  0
 16 22  1  0  0  0  0
 17 26  1  0  0  0  0
 17 18  1  0  0  0  0
 20 21  2  0  0  0  0
 20 23  1  0  0  0  0
 21 24  1  0  0  0  0
 22 25  2  0  0  0  0
 22 21  1  0  0  0  0
 23 17  2  0  0  0  0
 24 19  1  0  0  0  0
 24 26  2  0  0  0  0
 25 27  1  0  0  0  0
 27 28  1  0  0  0  0
 27 19  2  0  0  0  0
 28 30  2  0  0  0  0
 29 28  1  0  0  0  0
 31 32  3  0  0  0  0
 32 29  1  0  0  0  0
 33  4  1  0  0  0  0
 33 34  1  0  0  0  0
 35 38  1  0  0  0  0
 35 37  2  0  0  0  0
 36 39  1  0  0  0  0
 36 40  1  0  0  0  0
 37 34  1  0  0  0  0
 37 40  1  0  0  0  0
 38 36  2  0  0  0  0
 41 42  1  0  0  0  0
 41 39  1  0  0  0  0
 42 51  1  1  0  0  0
 42 44  1  0  0  0  0
 43 45  1  0  0  0  0
 44 43  2  0  0  0  0
 45 46  1  0  0  0  0
 46 48  1  0  0  0  0
 46 47  1  1  0  0  0
 49 50  1  0  0  0  0
 49 48  1  0  0  0  0
 52 51  2  0  0  0  0
M  END
>  <MODEL>
8

>  <REMARK>
 VINA RESULT:      -6.1      3.834      8.265
  Name = 
  19 active torsions:
  status: ('A' for Active; 'I' for Inactive)
    1  A    between atoms: N_1  and  N_40
    2  A    between atoms: N_1  and  C_42
    3  A    between atoms: O_2  and  C_38
    4  A    between atoms: C_4  and  O_8
    5  A    between atoms: C_5  and  C_51
    6  A    between atoms: C_7  and  C_21
    7  A    between atoms: C_7  and  C_22
    8  A    between atoms: O_8  and  C_47
    9  A    between atoms: C_9  and  C_23
   10  A    between atoms: C_16  and  C_22
   11  A    between atoms: N_19  and  C_48
   12  A    between atoms: C_23  and  C_26
   13  A    between atoms: N_24  and  CA_34
   14  A    between atoms: C_26  and  C_38
   15  A    between atoms: C_28  and  N_40
   16  A    between atoms: C_29  and  CA_34
   17  A    between atoms: C_29  and  N_41
   18  A    between atoms: C_32  and  CA_34
   19  A    between atoms: C_47  and  C_50
                            x       y       z     vdW  Elec       q    Type
                         _______ _______ _______ _____ _____    ______ ____

>  <TORSDO>
F 19

$$$$
=
 OpenBabel11042420003D

 52 56  0  0  1  0  0  0  0  0999 V2000
  191.2460  171.8880  138.0680 N   0  0  0  0  0  2  0  0  0  0  0  0
  193.5360  171.9090  137.7750 C   0  0  1  0  0  3  0  0  0  0  0  0
  192.9090  172.2650  139.9180 N   0  0  0  0  0  0  0  0  0  0  0  0
  192.0220  172.4650  141.0300 C   0  0  0  0  0  0  0  0  0  0  0  0
  192.4400  173.0420  142.0660 O   0  0  0  0  0  0  0  0  0  0  0  0
  193.0310  172.1000  136.0740 S   0  0  0  0  0  0  0  0  0  0  0  0
  194.7510  172.4850  138.4240 C   0  0  0  0  0  2  0  0  0  0  0  0
  192.5530  171.8390  138.6140 C   0  0  1  0  0  3  0  0  0  0  0  0
  194.3080  172.6780  139.8910 C   0  0  2  0  0  3  0  0  0  0  0  0
  191.2760  171.9090  136.6120 C   0  0  2  0  0  3  0  0  0  0  0  0
  190.4360  173.0690  136.1030 C   0  0  0  0  0  2  0  0  0  0  0  0
  190.0970  173.9100  137.1640 O   0  0  0  0  0  0  0  0  0  0  0  0
  188.8330  174.4040  136.8260 C   0  0  0  0  0  2  0  0  0  0  0  0
  188.9170  175.1440  135.5090 C   0  0  0  0  0  1  0  0  0  0  0  0
  195.0900  171.8120  140.7600 N   0  0  0  0  0  2  0  0  0  0  0  0
  195.8640  172.6450  141.5800 N   0  0  0  0  0  2  0  0  0  0  0  0
  194.8740  175.9700  145.3210 C   0  0  0  0  0  0  0  0  0  0  0  0
  194.5540  177.1650  146.1450 C   0  0  0  0  0  1  0  0  0  0  0  0
  195.6580  172.4200  145.7730 N   0  0  0  0  0  0  0  0  0  0  0  0
  195.2340  174.9550  143.1480 C   0  0  0  0  0  3  0  0  0  0  0  0
  195.4810  173.7170  143.7600 C   0  0  0  0  0  0  0  0  0  0  0  0
  195.7880  172.5740  143.0070 C   0  0  0  0  0  0  0  0  0  0  0  0
  194.9320  176.0780  143.9270 C   0  0  0  0  0  3  0  0  0  0  0  0
  195.4220  173.6140  145.1680 C   0  0  0  0  0  0  0  0  0  0  0  0
  196.0230  171.3620  143.6670 C   0  0  0  0  0  3  0  0  0  0  0  0
  195.1190  174.7400  145.9400 C   0  0  0  0  0  3  0  0  0  0  0  0
  195.9620  171.2940  145.0640 C   0  0  0  0  0  0  0  0  0  0  0  0
  196.1790  170.0230  145.7940 C   0  0  0  0  0  0  0  0  0  0  0  0
  195.2020  168.9680  145.8680 N   0  0  0  0  0  2  0  0  0  0  0  0
  197.2800  169.8540  146.3830 O   0  0  0  0  0  0  0  0  0  0  0  0
  193.0150  168.8310  144.4510 C   0  0  0  0  0  3  0  0  0  0  0  0
  194.0250  168.8920  145.1080 C   0  0  0  0  0  0  0  0  0  0  0  0
  190.6110  171.9700  140.9960 C   0  0  0  0  0  2  0  0  0  0  0  0
  189.8730  172.3460  142.2740 C   0  0  0  0  0  2  0  0  0  0  0  0
  189.6120  174.7090  143.0750 N   0  0  0  0  0  0  0  0  0  0  0  0
  188.2730  175.8130  141.6600 C   0  0  0  0  0  0  0  0  0  0  0  0
  189.3210  173.7300  142.1910 C   0  0  0  0  0  0  0  0  0  0  0  0
  189.0270  175.8710  142.7820 N   0  0  0  0  0  0  0  0  0  0  0  0
  187.5690  176.9300  141.1150 N   0  0  0  0  0  2  0  0  0  0  0  0
  188.2970  174.2810  140.9670 S   0  0  0  0  0  0  0  0  0  0  0  0
  187.6340  178.2560  141.7180 C   0  0  0  0  0  2  0  0  0  0  0  0
  186.2960  178.6660  142.3400 C   0  0  2  0  0  3  0  0  0  0  0  0
  185.5090  178.5210  144.5720 C   0  0  0  0  0  3  0  0  0  0  0  0
  186.4180  178.9160  143.7550 N   0  0  0  0  0  0  0  0  0  0  0  0
  185.6500  178.7690  146.0410 C   0  0  0  0  0  2  0  0  0  0  0  0
  185.8490  177.4650  146.8060 C   0  0  1  0  0  3  0  0  0  0  0  0
  184.7980  176.5990  146.5090 O   0  0  0  0  0  1  0  0  0  0  0  0
  187.1620  176.7980  146.4150 C   0  0  0  0  0  2  0  0  0  0  0  0
  188.2410  177.5170  146.9290 O   0  0  0  0  0  0  0  0  0  0  0  0
  189.3120  177.1910  146.0900 C   0  0  0  0  0  1  0  0  0  0  0  0
  185.2060  177.6740  142.0700 C   0  0  0  0  0  3  0  0  0  0  0  0
  184.2030  177.9910  141.4520 O   0  0  0  0  0  0  0  0  0  0  0  0
  2  7  1  1  0  0  0
  2  8  1  0  0  0  0
  3  4  1  0  0  0  0
  4  5  2  0  0  0  0
  6 10  1  0  0  0  0
  6  2  1  0  0  0  0
  7  9  1  0  0  0  0
  8  1  1  6  0  0  0
  8  3  1  0  0  0  0
  9  3  1  0  0  0  0
  9 15  1  1  0  0  0
 10 11  1  1  0  0  0
 10  1  1  0  0  0  0
 11 12  1  0  0  0  0
 13 12  1  0  0  0  0
 14 13  1  0  0  0  0
 15 16  1  0  0  0  0
 16 22  1  0  0  0  0
 17 26  1  0  0  0  0
 17 18  1  0  0  0  0
 20 21  2  0  0  0  0
 20 23  1  0  0  0  0
 21 24  1  0  0  0  0
 22 25  2  0  0  0  0
 22 21  1  0  0  0  0
 23 17  2  0  0  0  0
 24 19  1  0  0  0  0
 24 26  2  0  0  0  0
 25 27  1  0  0  0  0
 27 19  2  0  0  0  0
 27 28  1  0  0  0  0
 28 29  1  0  0  0  0
 28 30  2  0  0  0  0
 31 32  3  0  0  0  0
 32 29  1  0  0  0  0
 33  4  1  0  0  0  0
 33 34  1  0  0  0  0
 36 38  2  0  0  0  0
 37 34  1  0  0  0  0
 37 35  2  0  0  0  0
 38 35  1  0  0  0  0
 39 36  1  0  0  0  0
 39 41  1  0  0  0  0
 40 36  1  0  0  0  0
 40 37  1  0  0  0  0
 42 41  1  1  0  0  0
 42 44  1  0  0  0  0
 43 45  1  0  0  0  0
 44 43  2  0  0  0  0
 45 46  1  0  0  0  0
 46 47  1  6  0  0  0
 48 46  1  0  0  0  0
 48 49  1  0  0  0  0
 50 49  1  0  0  0  0
 51 42  1  0  0  0  0
 52 51  2  0  0  0  0
M  END
>  <MODEL>
9

>  <REMARK>
 VINA RESULT:      -6.1      4.424      8.046
  Name = 
  19 active torsions:
  status: ('A' for Active; 'I' for Inactive)
    1  A    between atoms: N_1  and  N_40
    2  A    between atoms: N_1  and  C_42
    3  A    between atoms: O_2  and  C_38
    4  A    between atoms: C_4  and  O_8
    5  A    between atoms: C_5  and  C_51
    6  A    between atoms: C_7  and  C_21
    7  A    between atoms: C_7  and  C_22
    8  A    between atoms: O_8  and  C_47
    9  A    between atoms: C_9  and  C_23
   10  A    between atoms: C_16  and  C_22
   11  A    between atoms: N_19  and  C_48
   12  A    between atoms: C_23  and  C_26
   13  A    between atoms: N_24  and  CA_34
   14  A    between atoms: C_26  and  C_38
   15  A    between atoms: C_28  and  N_40
   16  A    between atoms: C_29  and  CA_34
   17  A    between atoms: C_29  and  N_41
   18  A    between atoms: C_32  and  CA_34
   19  A    between atoms: C_47  and  C_50
                            x       y       z     vdW  Elec       q    Type
                         _______ _______ _______ _____ _____    ______ ____

>  <TORSDO>
F 19

$$$$
