=
 OpenBabel11042413433D

 30 34  0  0  1  0  0  0  0  0999 V2000
  190.5650  175.9550  144.0590 N   0  0  0  0  0  0  0  0  0  0  0  0
  188.1010  174.3990  141.7860 C   0  0  0  0  0  0  0  0  0  0  0  0
  192.5760  173.6050  141.3450 C   0  0  0  0  0  0  0  0  0  0  0  0
  188.1660  173.8480  140.4700 N   0  0  0  0  0  2  0  0  0  0  0  0
  192.7220  175.0140  143.3470 C   0  0  0  0  0  0  0  0  0  0  0  0
  187.0260  174.2860  142.4300 O   0  0  0  0  0  0  0  0  0  0  0  0
  193.2140  172.7930  140.4150 O   0  0  0  0  0  1  0  0  0  0  0  0
  189.2900  174.0400  139.5700 C   0  0  1  0  0  3  0  0  0  0  0  0
  190.4760  173.3810  140.0950 N   0  0  0  0  0  2  0  0  0  0  0  0
  190.6050  174.6860  142.2020 C   0  0  0  0  0  0  0  0  0  0  0  0
  189.2820  175.0230  142.4290 C   0  0  0  0  0  0  0  0  0  0  0  0
  191.1990  173.8720  141.2270 C   0  0  0  0  0  0  0  0  0  0  0  0
  188.8830  173.3360  137.9500 S   0  0  0  0  0  1  0  0  0  0  0  0
  193.3240  174.1740  142.3920 C   0  0  0  0  0  3  0  0  0  0  0  0
  189.3060  175.8310  143.5750 C   0  0  2  0  0  3  0  0  0  0  0  0
  191.3420  175.2460  143.2200 C   0  0  0  0  0  0  0  0  0  0  0  0
  186.0530  177.8680  145.4960 C   0  0  0  0  0  0  0  0  0  0  0  0
  188.1620  176.5170  144.2120 C   0  0  0  0  0  0  0  0  0  0  0  0
  186.4610  178.2520  144.2130 C   0  0  0  0  0  3  0  0  0  0  0  0
  187.7660  176.1480  145.5050 C   0  0  0  0  0  3  0  0  0  0  0  0
  186.7160  176.8140  146.1410 C   0  0  0  0  0  3  0  0  0  0  0  0
  187.5120  177.5840  143.5770 C   0  0  0  0  0  3  0  0  0  0  0  0
  184.9170  178.6830  147.5470 O   0  0  0  0  0  1  0  0  0  0  0  0
  184.0130  179.0820  145.4840 O   0  0  0  0  0  0  0  0  0  0  0  0
  184.9460  178.5720  146.1610 C   0  0  0  0  0  0  0  0  0  0  0  0
  194.9680  175.4810  146.2080 C   0  0  0  0  0  3  0  0  0  0  0  0
  193.5390  175.5940  144.4360 C   0  0  0  0  0  0  0  0  0  0  0  0
  193.5960  176.9350  144.6590 N   0  0  0  0  0  0  0  0  0  0  0  0
  194.2790  174.7940  145.2690 N   0  0  0  0  0  0  0  0  0  0  0  0
  194.6180  177.0860  145.9540 S   0  0  0  0  0  0  0  0  0  0  0  0
  2 11  1  0  0  0  0
  2  6  2  0  0  0  0
  3 14  1  0  0  0  0
  4  2  1  0  0  0  0
  5 27  1  0  0  0  0
  7  3  1  0  0  0  0
  8 13  1  6  0  0  0
  8  9  1  0  0  0  0
  8  4  1  0  0  0  0
  9 12  1  0  0  0  0
 10 11  2  0  0  0  0
 10 16  1  0  0  0  0
 11 15  1  0  0  0  0
 12  3  2  0  0  0  0
 12 10  1  0  0  0  0
 14  5  2  0  0  0  0
 15  1  1  0  0  0  0
 15 18  1  6  0  0  0
 16  5  1  0  0  0  0
 16  1  2  0  0  0  0
 17 21  1  0  0  0  0
 17 25  1  0  0  0  0
 18 20  1  0  0  0  0
 19 17  2  0  0  0  0
 20 21  2  0  0  0  0
 22 18  2  0  0  0  0
 22 19  1  0  0  0  0
 24 25  2  0  0  0  0
 25 23  1  0  0  0  0
 27 28  2  0  0  0  0
 27 29  1  0  0  0  0
 28 30  1  0  0  0  0
 29 26  2  0  0  0  0
 30 26  1  0  0  0  0
M  END
>  <MODEL>
1

>  <REMARK>
 VINA RESULT:      -7.2      0.000      0.000
  Name = 
  3 active torsions:
  status: ('A' for Active; 'I' for Inactive)
    1  A    between atoms: C_6  and  C_30
    2  A    between atoms: C_7  and  C_26
    3  A    between atoms: C_8  and  C_9
                            x       y       z     vdW  Elec       q    Type
                         _______ _______ _______ _____ _____    ______ ____

>  <TORSDO>
F 3

$$$$
=
 OpenBabel11042413433D

 30 34  0  0  1  0  0  0  0  0999 V2000
  187.3850  175.9230  142.3860 N   0  0  0  0  0  0  0  0  0  0  0  0
  189.7160  174.5310  144.8920 C   0  0  0  0  0  0  0  0  0  0  0  0
  186.8090  177.8890  145.9530 C   0  0  0  0  0  0  0  0  0  0  0  0
  190.2720  175.0160  146.1160 N   0  0  0  0  0  2  0  0  0  0  0  0
  186.0580  177.5670  143.6410 C   0  0  0  0  0  0  0  0  0  0  0  0
  189.9390  173.3360  144.5660 O   0  0  0  0  0  0  0  0  0  0  0  0
  186.6410  178.5200  147.1800 O   0  0  0  0  0  1  0  0  0  0  0  0
  190.2160  176.4060  146.5320 C   0  0  1  0  0  3  0  0  0  0  0  0
  188.8400  176.8000  146.7970 N   0  0  0  0  0  2  0  0  0  0  0  0
  187.9880  176.3710  144.5050 C   0  0  0  0  0  0  0  0  0  0  0  0
  188.8300  175.3710  144.0520 C   0  0  0  0  0  0  0  0  0  0  0  0
  187.8760  176.9900  145.7590 C   0  0  0  0  0  0  0  0  0  0  0  0
  191.1980  176.6170  148.0410 S   0  0  0  0  0  1  0  0  0  0  0  0
  185.9160  178.1720  144.9040 C   0  0  0  0  0  3  0  0  0  0  0  0
  188.4390  175.1410  142.7250 C   0  0  0  0  0  0  0  0  0  0  0  0
  187.1160  176.6570  143.4800 C   0  0  1  0  0  3  0  0  0  0  0  0
  190.1820  172.4970  139.8290 C   0  0  0  0  0  0  0  0  0  0  0  0
  189.0590  174.2150  141.7560 C   0  0  0  0  0  0  0  0  0  0  0  0
  190.9600  173.5000  140.4210 C   0  0  0  0  0  3  0  0  0  0  0  0
  188.2770  173.2240  141.1480 C   0  0  0  0  0  3  0  0  0  0  0  0
  188.8350  172.3660  140.1950 C   0  0  0  0  0  3  0  0  0  0  0  0
  190.4000  174.3570  141.3730 C   0  0  0  0  0  3  0  0  0  0  0  0
  190.1040  170.4420  138.4400 O   0  0  0  0  0  1  0  0  0  0  0  0
  191.8930  171.8600  138.3120 O   0  0  0  0  0  0  0  0  0  0  0  0
  190.7750  171.5960  138.8280 C   0  0  0  0  0  0  0  0  0  0  0  0
  184.5250  178.3690  140.4080 C   0  0  0  0  0  3  0  0  0  0  0  0
  185.1000  177.8870  142.5600 C   0  0  0  0  0  0  0  0  0  0  0  0
  183.7630  177.9940  142.7900 N   0  0  0  0  0  0  0  0  0  0  0  0
  185.5250  178.0870  141.2720 N   0  0  0  0  0  0  0  0  0  0  0  0
  183.1250  178.3550  141.3050 S   0  0  0  0  0  0  0  0  0  0  0  0
  1 15  2  0  0  0  0
  2  4  1  0  0  0  0
  3  7  1  0  0  0  0
  4  8  1  0  0  0  0
  5 14  2  0  0  0  0
  6  2  2  0  0  0  0
  8  9  1  0  0  0  0
  8 13  1  1  0  0  0
 10 12  1  0  0  0  0
 11 10  2  0  0  0  0
 11  2  1  0  0  0  0
 12  3  2  0  0  0  0
 12  9  1  0  0  0  0
 14  3  1  0  0  0  0
 15 11  1  0  0  0  0
 16  1  1  1  0  0  0
 16  5  1  0  0  0  0
 16 10  1  0  0  0  0
 17 21  2  0  0  0  0
 17 19  1  0  0  0  0
 18 15  1  0  0  0  0
 19 22  2  0  0  0  0
 20 18  2  0  0  0  0
 21 20  1  0  0  0  0
 22 18  1  0  0  0  0
 23 25  1  0  0  0  0
 24 25  2  0  0  0  0
 25 17  1  0  0  0  0
 26 29  2  0  0  0  0
 26 30  1  0  0  0  0
 27 28  2  0  0  0  0
 27  5  1  0  0  0  0
 29 27  1  0  0  0  0
 30 28  1  0  0  0  0
M  END
>  <MODEL>
2

>  <REMARK>
 VINA RESULT:      -7.1      3.059      8.251
  Name = 
  3 active torsions:
  status: ('A' for Active; 'I' for Inactive)
    1  A    between atoms: C_6  and  C_30
    2  A    between atoms: C_7  and  C_26
    3  A    between atoms: C_8  and  C_9
                            x       y       z     vdW  Elec       q    Type
                         _______ _______ _______ _____ _____    ______ ____

>  <TORSDO>
F 3

$$$$
=
 OpenBabel11042413433D

 30 34  0  0  1  0  0  0  0  0999 V2000
  189.2300  175.2940  141.9950 N   0  0  0  0  0  0  0  0  0  0  0  0
  191.1580  177.1500  144.5420 C   0  0  0  0  0  0  0  0  0  0  0  0
  193.1820  174.1830  141.7240 C   0  0  0  0  0  0  0  0  0  0  0  0
  192.4080  176.9360  145.2010 N   0  0  0  0  0  2  0  0  0  0  0  0
  190.9280  174.0020  140.7750 C   0  0  0  0  0  0  0  0  0  0  0  0
  190.5560  178.2370  144.7420 O   0  0  0  0  0  0  0  0  0  0  0  0
  194.5280  173.8430  141.6600 O   0  0  0  0  0  1  0  0  0  0  0  0
  193.1270  175.6740  145.1740 C   0  0  1  0  0  3  0  0  0  0  0  0
  193.5870  175.3830  143.8250 N   0  0  0  0  0  2  0  0  0  0  0  0
  191.3380  175.3130  142.7780 C   0  0  0  0  0  0  0  0  0  0  0  0
  190.6040  176.1670  143.5820 C   0  0  0  0  0  0  0  0  0  0  0  0
  192.7030  174.9900  142.7730 C   0  0  0  0  0  0  0  0  0  0  0  0
  194.5570  175.7800  146.2830 S   0  0  0  0  0  1  0  0  0  0  0  0
  192.3010  173.6950  140.7400 C   0  0  0  0  0  3  0  0  0  0  0  0
  189.2970  176.1060  143.0770 C   0  0  2  0  0  3  0  0  0  0  0  0
  190.4790  174.8280  141.8190 C   0  0  0  0  0  0  0  0  0  0  0  0
  185.7500  178.0130  144.5620 C   0  0  0  0  0  0  0  0  0  0  0  0
  188.0970  176.7790  143.6150 C   0  0  0  0  0  0  0  0  0  0  0  0
  186.3670  177.0000  145.3070 C   0  0  0  0  0  3  0  0  0  0  0  0
  187.4670  177.7780  142.8610 C   0  0  0  0  0  3  0  0  0  0  0  0
  186.3060  178.3960  143.3320 C   0  0  0  0  0  3  0  0  0  0  0  0
  187.5290  176.3840  144.8340 C   0  0  0  0  0  3  0  0  0  0  0  0
  184.1240  178.4690  146.3800 O   0  0  0  0  0  1  0  0  0  0  0  0
  183.8370  179.3940  144.3080 O   0  0  0  0  0  0  0  0  0  0  0  0
  184.5290  178.6600  145.0630 C   0  0  0  0  0  0  0  0  0  0  0  0
  188.2010  172.3400  138.9710 C   0  0  0  0  0  3  0  0  0  0  0  0
  190.0300  173.4730  139.7240 C   0  0  0  0  0  0  0  0  0  0  0  0
  190.2680  173.6820  138.4010 N   0  0  0  0  0  0  0  0  0  0  0  0
  188.9120  172.7470  140.0470 N   0  0  0  0  0  0  0  0  0  0  0  0
  189.0130  172.9140  137.6390 S   0  0  0  0  0  0  0  0  0  0  0  0
  1 15  1  0  0  0  0
  2  6  2  0  0  0  0
  2  4  1  0  0  0  0
  3 12  2  0  0  0  0
  5 16  1  0  0  0  0
  7  3  1  0  0  0  0
  8  4  1  0  0  0  0
  8 13  1  1  0  0  0
  9  8  1  0  0  0  0
 10 11  2  0  0  0  0
 11  2  1  0  0  0  0
 12 10  1  0  0  0  0
 12  9  1  0  0  0  0
 14  5  2  0  0  0  0
 14  3  1  0  0  0  0
 15 11  1  0  0  0  0
 15 18  1  1  0  0  0
 16  1  2  0  0  0  0
 16 10  1  0  0  0  0
 17 25  1  0  0  0  0
 17 19  1  0  0  0  0
 18 22  1  0  0  0  0
 20 21  1  0  0  0  0
 20 18  2  0  0  0  0
 21 17  2  0  0  0  0
 22 19  2  0  0  0  0
 24 25  2  0  0  0  0
 25 23  1  0  0  0  0
 26 29  2  0  0  0  0
 27 29  1  0  0  0  0
 27  5  1  0  0  0  0
 28 27  2  0  0  0  0
 30 28  1  0  0  0  0
 30 26  1  0  0  0  0
M  END
>  <MODEL>
3

>  <REMARK>
 VINA RESULT:      -7.0      1.626      5.006
  Name = 
  3 active torsions:
  status: ('A' for Active; 'I' for Inactive)
    1  A    between atoms: C_6  and  C_30
    2  A    between atoms: C_7  and  C_26
    3  A    between atoms: C_8  and  C_9
                            x       y       z     vdW  Elec       q    Type
                         _______ _______ _______ _____ _____    ______ ____

>  <TORSDO>
F 3

$$$$
=
 OpenBabel11042413433D

 30 34  0  0  1  0  0  0  0  0999 V2000
  190.0190  174.8560  142.4830 N   0  0  0  0  0  0  0  0  0  0  0  0
  192.5200  176.0890  144.9090 C   0  0  0  0  0  0  0  0  0  0  0  0
  193.7390  173.5330  141.3270 C   0  0  0  0  0  0  0  0  0  0  0  0
  193.8320  175.6720  145.2870 N   0  0  0  0  0  2  0  0  0  0  0  0
  191.3530  173.6840  140.7830 C   0  0  0  0  0  0  0  0  0  0  0  0
  192.0710  177.1630  145.3870 O   0  0  0  0  0  0  0  0  0  0  0  0
  195.0150  173.1150  140.9680 O   0  0  0  0  0  1  0  0  0  0  0  0
  194.4060  174.3880  144.9270 C   0  0  1  0  0  3  0  0  0  0  0  0
  194.6050  174.3080  143.4880 N   0  0  0  0  0  2  0  0  0  0  0  0
  192.2190  174.5860  142.8660 C   0  0  0  0  0  0  0  0  0  0  0  0
  191.7180  175.3330  143.9170 C   0  0  0  0  0  0  0  0  0  0  0  0
  193.5240  174.1720  142.5630 C   0  0  0  0  0  0  0  0  0  0  0  0
  196.0030  174.1920  145.7620 S   0  0  0  0  0  1  0  0  0  0  0  0
  192.6630  173.2920  140.4530 C   0  0  0  0  0  3  0  0  0  0  0  0
  190.3460  175.4560  143.6530 C   0  0  2  0  0  3  0  0  0  0  0  0
  191.1680  174.3410  142.0120 C   0  0  0  0  0  0  0  0  0  0  0  0
  187.3040  177.3120  146.0450 C   0  0  0  0  0  0  0  0  0  0  0  0
  189.3260  176.1060  144.5010 C   0  0  0  0  0  0  0  0  0  0  0  0
  187.9680  176.1720  146.5150 C   0  0  0  0  0  3  0  0  0  0  0  0
  188.6460  177.2350  144.0230 C   0  0  0  0  0  3  0  0  0  0  0  0
  187.6470  177.8380  144.7910 C   0  0  0  0  0  3  0  0  0  0  0  0
  188.9670  175.5700  145.7450 C   0  0  0  0  0  3  0  0  0  0  0  0
  185.5900  179.0730  146.3920 O   0  0  0  0  0  0  0  0  0  0  0  0
  185.9430  177.4680  147.9830 O   0  0  0  0  0  1  0  0  0  0  0  0
  186.2530  177.9430  146.8580 C   0  0  0  0  0  0  0  0  0  0  0  0
  188.1910  172.6090  139.2670 C   0  0  0  0  0  3  0  0  0  0  0  0
  190.2450  173.4160  139.8400 C   0  0  0  0  0  0  0  0  0  0  0  0
  190.3040  173.7910  138.5340 N   0  0  0  0  0  0  0  0  0  0  0  0
  189.1040  172.7740  140.2510 N   0  0  0  0  0  0  0  0  0  0  0  0
  188.8580  173.2830  137.9020 S   0  0  0  0  0  0  0  0  0  0  0  0
  1 15  1  0  0  0  0
  2  4  1  0  0  0  0
  2  6  2  0  0  0  0
  3 12  2  0  0  0  0
  5 16  1  0  0  0  0
  7  3  1  0  0  0  0
  8  4  1  0  0  0  0
  8 13  1  1  0  0  0
  9  8  1  0  0  0  0
 10 11  2  0  0  0  0
 11  2  1  0  0  0  0
 12 10  1  0  0  0  0
 12  9  1  0  0  0  0
 14  5  2  0  0  0  0
 14  3  1  0  0  0  0
 15 11  1  0  0  0  0
 15 18  1  1  0  0  0
 16  1  2  0  0  0  0
 16 10  1  0  0  0  0
 17 19  1  0  0  0  0
 17 25  1  0  0  0  0
 18 22  1  0  0  0  0
 20 18  2  0  0  0  0
 20 21  1  0  0  0  0
 21 17  2  0  0  0  0
 22 19  2  0  0  0  0
 23 25  2  0  0  0  0
 25 24  1  0  0  0  0
 26 29  2  0  0  0  0
 27 29  1  0  0  0  0
 27  5  1  0  0  0  0
 28 27  2  0  0  0  0
 30 28  1  0  0  0  0
 30 26  1  0  0  0  0
M  END
>  <MODEL>
4

>  <REMARK>
 VINA RESULT:      -6.8      1.860      5.144
  Name = 
  3 active torsions:
  status: ('A' for Active; 'I' for Inactive)
    1  A    between atoms: C_6  and  C_30
    2  A    between atoms: C_7  and  C_26
    3  A    between atoms: C_8  and  C_9
                            x       y       z     vdW  Elec       q    Type
                         _______ _______ _______ _____ _____    ______ ____

>  <TORSDO>
F 3

$$$$
=
 OpenBabel11042413433D

 30 34  0  0  1  0  0  0  0  0999 V2000
  189.5930  174.8830  141.6250 N   0  0  0  0  0  0  0  0  0  0  0  0
  191.0170  177.2320  144.0960 C   0  0  0  0  0  0  0  0  0  0  0  0
  193.5840  174.0160  142.1180 C   0  0  0  0  0  0  0  0  0  0  0  0
  192.1570  177.2060  144.9570 N   0  0  0  0  0  2  0  0  0  0  0  0
  191.5150  173.5390  140.8910 C   0  0  0  0  0  0  0  0  0  0  0  0
  190.3430  178.2930  144.0280 O   0  0  0  0  0  0  0  0  0  0  0  0
  194.9380  173.7630  142.3090 O   0  0  0  0  0  1  0  0  0  0  0  0
  192.9270  176.0070  145.2390 C   0  0  1  0  0  3  0  0  0  0  0  0
  193.6040  175.5460  144.0370 N   0  0  0  0  0  2  0  0  0  0  0  0
  191.5500  175.1640  142.6960 C   0  0  0  0  0  0  0  0  0  0  0  0
  190.6630  176.0790  143.2360 C   0  0  0  0  0  0  0  0  0  0  0  0
  192.9120  174.9380  142.9430 C   0  0  0  0  0  0  0  0  0  0  0  0
  194.1610  176.3770  146.5140 S   0  0  0  0  0  1  0  0  0  0  0  0
  192.8890  173.3250  141.1080 C   0  0  0  0  0  3  0  0  0  0  0  0
  189.4550  175.8520  142.5610 C   0  0  2  0  0  3  0  0  0  0  0  0
  190.8730  174.4820  141.7110 C   0  0  0  0  0  0  0  0  0  0  0  0
  185.6400  177.7190  143.1820 C   0  0  0  0  0  0  0  0  0  0  0  0
  188.1570  176.5160  142.8020 C   0  0  0  0  0  0  0  0  0  0  0  0
  186.1600  176.8480  144.1470 C   0  0  0  0  0  3  0  0  0  0  0  0
  187.6250  177.3710  141.8280 C   0  0  0  0  0  3  0  0  0  0  0  0
  186.3790  177.9730  142.0170 C   0  0  0  0  0  3  0  0  0  0  0  0
  187.4080  176.2460  143.9560 C   0  0  0  0  0  3  0  0  0  0  0  0
  183.3580  178.2920  142.3930 O   0  0  0  0  0  0  0  0  0  0  0  0
  184.0680  178.9510  144.4640 O   0  0  0  0  0  1  0  0  0  0  0  0
  184.3280  178.3510  143.3870 C   0  0  0  0  0  0  0  0  0  0  0  0
  189.9120  172.5690  137.7380 C   0  0  0  0  0  3  0  0  0  0  0  0
  190.8160  172.7970  139.8180 C   0  0  0  0  0  0  0  0  0  0  0  0
  190.4060  171.5100  139.9810 N   0  0  0  0  0  0  0  0  0  0  0  0
  190.5550  173.3820  138.6050 N   0  0  0  0  0  0  0  0  0  0  0  0
  189.6930  171.1270  138.5360 S   0  0  0  0  0  0  0  0  0  0  0  0
  1 16  2  0  0  0  0
  1 15  1  0  0  0  0
  2  4  1  0  0  0  0
  3  7  1  0  0  0  0
  3 12  2  0  0  0  0
  4  8  1  0  0  0  0
  5 14  2  0  0  0  0
  5 16  1  0  0  0  0
  6  2  2  0  0  0  0
  8 13  1  1  0  0  0
  9  8  1  0  0  0  0
 10 12  1  0  0  0  0
 10 11  2  0  0  0  0
 11  2  1  0  0  0  0
 12  9  1  0  0  0  0
 14  3  1  0  0  0  0
 15 18  1  1  0  0  0
 15 11  1  0  0  0  0
 16 10  1  0  0  0  0
 17 25  1  0  0  0  0
 17 19  1  0  0  0  0
 18 22  1  0  0  0  0
 20 21  1  0  0  0  0
 20 18  2  0  0  0  0
 21 17  2  0  0  0  0
 22 19  2  0  0  0  0
 23 25  2  0  0  0  0
 25 24  1  0  0  0  0
 26 30  1  0  0  0  0
 26 29  2  0  0  0  0
 27 28  2  0  0  0  0
 27  5  1  0  0  0  0
 29 27  1  0  0  0  0
 30 28  1  0  0  0  0
M  END
>  <MODEL>
5

>  <REMARK>
 VINA RESULT:      -6.8      1.937      5.152
  Name = 
  3 active torsions:
  status: ('A' for Active; 'I' for Inactive)
    1  A    between atoms: C_6  and  C_30
    2  A    between atoms: C_7  and  C_26
    3  A    between atoms: C_8  and  C_9
                            x       y       z     vdW  Elec       q    Type
                         _______ _______ _______ _____ _____    ______ ____

>  <TORSDO>
F 3

$$$$
=
 OpenBabel11042413433D

 30 34  0  0  1  0  0  0  0  0999 V2000
  187.7850  175.4780  141.7440 N   0  0  0  0  0  0  0  0  0  0  0  0
  190.2960  173.6710  143.7650 C   0  0  0  0  0  0  0  0  0  0  0  0
  187.8060  177.0610  145.5410 C   0  0  0  0  0  0  0  0  0  0  0  0
  191.0340  173.9790  144.9480 N   0  0  0  0  0  2  0  0  0  0  0  0
  186.7520  177.0490  143.3260 C   0  0  0  0  0  0  0  0  0  0  0  0
  190.3860  172.5090  143.2890 O   0  0  0  0  0  0  0  0  0  0  0  0
  187.8390  177.5600  146.8370 O   0  0  0  0  0  1  0  0  0  0  0  0
  191.1350  175.3150  145.5100 C   0  0  1  0  0  3  0  0  0  0  0  0
  189.8370  175.7610  145.9920 N   0  0  0  0  0  2  0  0  0  0  0  0
  188.6780  175.6460  143.8010 C   0  0  0  0  0  0  0  0  0  0  0  0
  189.3790  174.6530  143.1400 C   0  0  0  0  0  0  0  0  0  0  0  0
  188.7690  176.1260  145.1160 C   0  0  0  0  0  0  0  0  0  0  0  0
  192.3090  175.2940  146.8910 S   0  0  0  0  0  1  0  0  0  0  0  0
  186.8130  177.5160  144.6520 C   0  0  0  0  0  3  0  0  0  0  0  0
  188.8100  174.5990  141.8590 C   0  0  0  0  0  0  0  0  0  0  0  0
  187.7100  176.0990  142.9340 C   0  0  1  0  0  3  0  0  0  0  0  0
  189.9830  172.2000  138.4990 C   0  0  0  0  0  0  0  0  0  0  0  0
  189.2340  173.7520  140.7260 C   0  0  0  0  0  0  0  0  0  0  0  0
  190.9230  173.0160  139.1410 C   0  0  0  0  0  3  0  0  0  0  0  0
  188.2900  172.9500  140.0700 C   0  0  0  0  0  3  0  0  0  0  0  0
  188.6610  172.1750  138.9690 C   0  0  0  0  0  3  0  0  0  0  0  0
  190.5490  173.7910  140.2430 C   0  0  0  0  0  3  0  0  0  0  0  0
  191.6840  170.9150  137.2290 O   0  0  0  0  0  1  0  0  0  0  0  0
  189.5450  171.1030  136.4400 O   0  0  0  0  0  0  0  0  0  0  0  0
  190.3800  171.3850  137.3410 C   0  0  0  0  0  0  0  0  0  0  0  0
  183.5950  178.2900  141.9330 C   0  0  0  0  0  3  0  0  0  0  0  0
  185.6940  177.5480  142.4190 C   0  0  0  0  0  0  0  0  0  0  0  0
  185.9130  177.7340  141.0900 N   0  0  0  0  0  0  0  0  0  0  0  0
  184.4410  177.8470  142.8900 N   0  0  0  0  0  0  0  0  0  0  0  0
  184.4630  178.2910  140.5160 S   0  0  0  0  0  0  0  0  0  0  0  0
  1 15  2  0  0  0  0
  2  4  1  0  0  0  0
  3  7  1  0  0  0  0
  4  8  1  0  0  0  0
  5 14  2  0  0  0  0
  6  2  2  0  0  0  0
  8  9  1  0  0  0  0
  8 13  1  1  0  0  0
 10 12  1  0  0  0  0
 11  2  1  0  0  0  0
 11 10  2  0  0  0  0
 12  3  2  0  0  0  0
 12  9  1  0  0  0  0
 14  3  1  0  0  0  0
 15 11  1  0  0  0  0
 16  1  1  1  0  0  0
 16  5  1  0  0  0  0
 16 10  1  0  0  0  0
 17 21  2  0  0  0  0
 17 19  1  0  0  0  0
 18 15  1  0  0  0  0
 19 22  2  0  0  0  0
 20 18  2  0  0  0  0
 21 20  1  0  0  0  0
 22 18  1  0  0  0  0
 23 25  1  0  0  0  0
 24 25  2  0  0  0  0
 25 17  1  0  0  0  0
 26 29  2  0  0  0  0
 27 29  1  0  0  0  0
 27  5  1  0  0  0  0
 28 27  2  0  0  0  0
 30 28  1  0  0  0  0
 30 26  1  0  0  0  0
M  END
>  <MODEL>
6

>  <REMARK>
 VINA RESULT:      -6.8      2.996      8.108
  Name = 
  3 active torsions:
  status: ('A' for Active; 'I' for Inactive)
    1  A    between atoms: C_6  and  C_30
    2  A    between atoms: C_7  and  C_26
    3  A    between atoms: C_8  and  C_9
                            x       y       z     vdW  Elec       q    Type
                         _______ _______ _______ _____ _____    ______ ____

>  <TORSDO>
F 3

$$$$
=
 OpenBabel11042413433D

 30 34  0  0  1  0  0  0  0  0999 V2000
  190.6650  175.7760  143.5790 N   0  0  0  0  0  0  0  0  0  0  0  0
  188.4660  173.6130  141.5440 C   0  0  0  0  0  0  0  0  0  0  0  0
  192.8920  172.6430  142.1110 C   0  0  0  0  0  0  0  0  0  0  0  0
  188.6880  172.6660  140.4990 N   0  0  0  0  0  2  0  0  0  0  0  0
  192.8340  174.6190  143.5620 C   0  0  0  0  0  0  0  0  0  0  0  0
  187.3020  173.7320  142.0070 O   0  0  0  0  0  0  0  0  0  0  0  0
  193.6040  171.5640  141.6020 O   0  0  0  0  0  1  0  0  0  0  0  0
  189.9440  172.5390  139.7800 C   0  0  1  0  0  3  0  0  0  0  0  0
  190.9910  172.0640  140.6720 N   0  0  0  0  0  2  0  0  0  0  0  0
  190.8940  173.9760  142.2500 C   0  0  0  0  0  0  0  0  0  0  0  0
  189.5780  174.3910  142.1410 C   0  0  0  0  0  0  0  0  0  0  0  0
  191.5690  172.8810  141.6920 C   0  0  2  0  0  3  0  0  0  0  0  0
  189.7360  171.3570  138.4210 S   0  0  0  0  0  1  0  0  0  0  0  0
  193.5130  173.5060  143.0330 C   0  0  0  0  0  3  0  0  0  0  0  0
  189.4860  175.5250  142.9610 C   0  0  0  0  0  0  0  0  0  0  0  0
  191.5080  174.8210  143.1460 C   0  0  0  0  0  0  0  0  0  0  0  0
  186.0130  177.9970  143.4530 C   0  0  0  0  0  0  0  0  0  0  0  0
  188.3110  176.3980  143.1540 C   0  0  0  0  0  0  0  0  0  0  0  0
  186.4750  177.2160  144.5200 C   0  0  0  0  0  3  0  0  0  0  0  0
  187.8350  177.1650  142.0810 C   0  0  0  0  0  3  0  0  0  0  0  0
  186.6980  177.9640  142.2300 C   0  0  0  0  0  3  0  0  0  0  0  0
  187.6120  176.4180  144.3690 C   0  0  0  0  0  3  0  0  0  0  0  0
  183.6720  178.5780  142.8700 O   0  0  0  0  0  0  0  0  0  0  0  0
  184.8150  179.7980  144.4320 O   0  0  0  0  0  1  0  0  0  0  0  0
  184.8160  178.8370  143.6160 C   0  0  0  0  0  0  0  0  0  0  0  0
  194.9820  177.1480  145.1250 C   0  0  0  0  0  3  0  0  0  0  0  0
  193.5180  175.5050  144.5310 C   0  0  0  0  0  0  0  0  0  0  0  0
  193.2500  175.4590  145.8630 N   0  0  0  0  0  0  0  0  0  0  0  0
  194.4550  176.4180  144.1170 N   0  0  0  0  0  0  0  0  0  0  0  0
  194.2420  176.6150  146.5150 S   0  0  0  0  0  0  0  0  0  0  0  0
  2  6  2  0  0  0  0
  2 11  1  0  0  0  0
  3 14  2  0  0  0  0
  4  2  1  0  0  0  0
  5 27  1  0  0  0  0
  7  3  1  0  0  0  0
  8 13  1  6  0  0  0
  8  4  1  0  0  0  0
  8  9  1  0  0  0  0
 10 16  1  0  0  0  0
 11 10  2  0  0  0  0
 11 15  1  0  0  0  0
 12  9  1  6  0  0  0
 12  3  1  0  0  0  0
 12 10  1  0  0  0  0
 14  5  1  0  0  0  0
 15 18  1  0  0  0  0
 15  1  2  0  0  0  0
 16  5  2  0  0  0  0
 16  1  1  0  0  0  0
 17 25  1  0  0  0  0
 17 19  1  0  0  0  0
 18 22  1  0  0  0  0
 20 21  1  0  0  0  0
 20 18  2  0  0  0  0
 21 17  2  0  0  0  0
 22 19  2  0  0  0  0
 23 25  2  0  0  0  0
 25 24  1  0  0  0  0
 26 30  1  0  0  0  0
 27 28  2  0  0  0  0
 28 30  1  0  0  0  0
 29 27  1  0  0  0  0
 29 26  2  0  0  0  0
M  END
>  <MODEL>
7

>  <REMARK>
 VINA RESULT:      -6.7      1.398      1.869
  Name = 
  3 active torsions:
  status: ('A' for Active; 'I' for Inactive)
    1  A    between atoms: C_6  and  C_30
    2  A    between atoms: C_7  and  C_26
    3  A    between atoms: C_8  and  C_9
                            x       y       z     vdW  Elec       q    Type
                         _______ _______ _______ _____ _____    ______ ____

>  <TORSDO>
F 3

$$$$
=
 OpenBabel11042413433D

 30 34  0  0  1  0  0  0  0  0999 V2000
  188.7410  175.6240  143.7690 N   0  0  0  0  0  0  0  0  0  0  0  0
  191.9160  173.7740  144.1460 C   0  0  0  0  0  0  0  0  0  0  0  0
  190.5450  176.8040  147.2730 C   0  0  0  0  0  0  0  0  0  0  0  0
  193.1240  174.0020  144.8730 N   0  0  0  0  0  2  0  0  0  0  0  0
  188.5700  176.9580  145.8270 C   0  0  0  0  0  0  0  0  0  0  0  0
  191.7760  172.6750  143.5480 O   0  0  0  0  0  0  0  0  0  0  0  0
  191.1850  177.1670  148.4530 O   0  0  0  0  0  1  0  0  0  0  0  0
  193.4730  175.2750  145.4780 C   0  0  1  0  0  3  0  0  0  0  0  0
  192.5540  175.5890  146.5620 N   0  0  0  0  0  2  0  0  0  0  0  0
  190.4980  175.6330  145.1720 C   0  0  0  0  0  0  0  0  0  0  0  0
  190.8090  174.7580  144.1460 C   0  0  0  0  0  0  0  0  0  0  0  0
  191.1970  175.9780  146.3380 C   0  0  0  0  0  0  0  0  0  0  0  0
  195.1600  175.1820  146.1340 S   0  0  0  0  0  1  0  0  0  0  0  0
  189.2490  177.2880  147.0150 C   0  0  0  0  0  3  0  0  0  0  0  0
  189.7030  174.8020  143.2850 C   0  0  0  0  0  0  0  0  0  0  0  0
  189.2340  176.1130  144.9210 C   0  0  1  0  0  3  0  0  0  0  0  0
  189.3200  172.7000  139.5630 C   0  0  0  0  0  0  0  0  0  0  0  0
  189.5450  174.1040  141.9930 C   0  0  0  0  0  0  0  0  0  0  0  0
  188.2790  172.6660  140.4980 C   0  0  0  0  0  3  0  0  0  0  0  0
  190.5940  174.1210  141.0640 C   0  0  0  0  0  3  0  0  0  0  0  0
  190.4820  173.4290  139.8550 C   0  0  0  0  0  3  0  0  0  0  0  0
  188.3930  173.3580  141.7070 C   0  0  0  0  0  3  0  0  0  0  0  0
  188.9410  172.6610  137.1110 O   0  0  0  0  0  0  0  0  0  0  0  0
  189.3190  170.7180  138.2570 O   0  0  0  0  0  1  0  0  0  0  0  0
  189.1960  171.9720  138.2910 C   0  0  0  0  0  0  0  0  0  0  0  0
  185.6640  178.7560  144.4960 C   0  0  0  0  0  3  0  0  0  0  0  0
  187.2080  177.4830  145.5890 C   0  0  0  0  0  0  0  0  0  0  0  0
  186.1460  177.1040  146.3500 N   0  0  0  0  0  0  0  0  0  0  0  0
  186.9590  178.3780  144.5790 N   0  0  0  0  0  0  0  0  0  0  0  0
  184.8690  177.9420  145.7080 S   0  0  0  0  0  0  0  0  0  0  0  0
  2  4  1  0  0  0  0
  3  7  1  0  0  0  0
  4  8  1  0  0  0  0
  5 14  2  0  0  0  0
  6  2  2  0  0  0  0
  8 13  1  1  0  0  0
  8  9  1  0  0  0  0
 10 12  1  0  0  0  0
 11  2  1  0  0  0  0
 11 10  2  0  0  0  0
 12  9  1  0  0  0  0
 12  3  2  0  0  0  0
 14  3  1  0  0  0  0
 15  1  2  0  0  0  0
 15 11  1  0  0  0  0
 16  1  1  1  0  0  0
 16 10  1  0  0  0  0
 16  5  1  0  0  0  0
 17 21  2  0  0  0  0
 17 19  1  0  0  0  0
 18 15  1  0  0  0  0
 19 22  2  0  0  0  0
 20 18  2  0  0  0  0
 21 20  1  0  0  0  0
 22 18  1  0  0  0  0
 23 25  2  0  0  0  0
 24 25  1  0  0  0  0
 25 17  1  0  0  0  0
 26 29  2  0  0  0  0
 26 30  1  0  0  0  0
 27  5  1  0  0  0  0
 27 28  2  0  0  0  0
 29 27  1  0  0  0  0
 30 28  1  0  0  0  0
M  END
>  <MODEL>
8

>  <REMARK>
 VINA RESULT:      -6.6      3.333      7.373
  Name = 
  3 active torsions:
  status: ('A' for Active; 'I' for Inactive)
    1  A    between atoms: C_6  and  C_30
    2  A    between atoms: C_7  and  C_26
    3  A    between atoms: C_8  and  C_9
                            x       y       z     vdW  Elec       q    Type
                         _______ _______ _______ _____ _____    ______ ____

>  <TORSDO>
F 3

$$$$
=
 OpenBabel11042413433D

 30 34  0  0  1  0  0  0  0  0999 V2000
  188.6530  175.5730  143.3230 N   0  0  0  0  0  0  0  0  0  0  0  0
  186.6740  176.9030  140.5010 C   0  0  0  0  0  0  0  0  0  0  0  0
  186.3150  178.6660  144.6970 C   0  0  0  0  0  0  0  0  0  0  0  0
  185.4590  177.6450  140.3960 N   0  0  0  0  0  2  0  0  0  0  0  0
  188.0740  177.0360  145.2110 C   0  0  0  0  0  0  0  0  0  0  0  0
  187.3390  176.6930  139.4530 O   0  0  0  0  0  0  0  0  0  0  0  0
  185.5150  179.7230  145.1160 O   0  0  0  0  0  1  0  0  0  0  0  0
  184.5280  177.8280  141.4970 C   0  0  1  0  0  3  0  0  0  0  0  0
  185.1360  178.6330  142.5450 N   0  0  0  0  0  2  0  0  0  0  0  0
  187.0150  177.0840  143.0250 C   0  0  0  0  0  0  0  0  0  0  0  0
  187.2010  176.4500  141.8090 C   0  0  0  0  0  0  0  0  0  0  0  0
  186.1710  178.1400  143.3990 C   0  0  2  0  0  3  0  0  0  0  0  0
  183.0400  178.6660  140.8880 S   0  0  0  0  0  1  0  0  0  0  0  0
  187.2540  178.1160  145.5890 C   0  0  0  0  0  3  0  0  0  0  0  0
  188.2080  175.5020  142.0460 C   0  0  0  0  0  0  0  0  0  0  0  0
  187.9270  176.5440  143.9030 C   0  0  0  0  0  0  0  0  0  0  0  0
  189.8010  172.5530  139.3650 C   0  0  0  0  0  0  0  0  0  0  0  0
  188.7420  174.5070  141.0940 C   0  0  0  0  0  0  0  0  0  0  0  0
  188.4160  172.6650  139.5430 C   0  0  0  0  0  3  0  0  0  0  0  0
  190.1280  174.3800  140.9300 C   0  0  0  0  0  3  0  0  0  0  0  0
  190.6550  173.4150  140.0680 C   0  0  0  0  0  3  0  0  0  0  0  0
  187.8910  173.6310  140.4060 C   0  0  0  0  0  3  0  0  0  0  0  0
  191.5410  171.7710  137.7780 O   0  0  0  0  0  0  0  0  0  0  0  0
  189.7480  170.4430  138.2790 O   0  0  0  0  0  1  0  0  0  0  0  0
  190.3490  171.5360  138.4550 C   0  0  0  0  0  0  0  0  0  0  0  0
  189.8240  174.9160  147.6380 C   0  0  0  0  0  3  0  0  0  0  0  0
  189.0510  176.4830  146.1740 C   0  0  0  0  0  0  0  0  0  0  0  0
  190.2020  177.1370  146.4890 N   0  0  0  0  0  0  0  0  0  0  0  0
  188.8350  175.2760  146.7900 N   0  0  0  0  0  0  0  0  0  0  0  0
  190.9470  176.1400  147.5820 S   0  0  0  0  0  0  0  0  0  0  0  0
  1 16  1  0  0  0  0
  2 11  1  0  0  0  0
  3  7  1  0  0  0  0
  3 14  2  0  0  0  0
  4  2  1  0  0  0  0
  4  8  1  0  0  0  0
  5 14  1  0  0  0  0
  5 27  1  0  0  0  0
  6  2  2  0  0  0  0
  8 13  1  6  0  0  0
  8  9  1  0  0  0  0
 10 12  1  0  0  0  0
 10 16  1  0  0  0  0
 11 15  1  0  0  0  0
 11 10  2  0  0  0  0
 12  9  1  1  0  0  0
 12  3  1  0  0  0  0
 15  1  2  0  0  0  0
 16  5  2  0  0  0  0
 17 19  2  0  0  0  0
 17 21  1  0  0  0  0
 18 15  1  0  0  0  0
 19 22  1  0  0  0  0
 20 18  1  0  0  0  0
 21 20  2  0  0  0  0
 22 18  2  0  0  0  0
 23 25  2  0  0  0  0
 24 25  1  0  0  0  0
 25 17  1  0  0  0  0
 27 28  2  0  0  0  0
 27 29  1  0  0  0  0
 28 30  1  0  0  0  0
 29 26  2  0  0  0  0
 30 26  1  0  0  0  0
M  END
>  <MODEL>
9

>  <REMARK>
 VINA RESULT:      -6.6      3.207      7.037
  Name = 
  3 active torsions:
  status: ('A' for Active; 'I' for Inactive)
    1  A    between atoms: C_6  and  C_30
    2  A    between atoms: C_7  and  C_26
    3  A    between atoms: C_8  and  C_9
                            x       y       z     vdW  Elec       q    Type
                         _______ _______ _______ _____ _____    ______ ____

>  <TORSDO>
F 3

$$$$
