=
 OpenBabel11042417193D

 26 29  0  0  1  0  0  0  0  0999 V2000
  185.7250  178.1890  144.0600 N   0  0  0  0  0  2  0  0  0  0  0  0
  190.7790  175.7890  143.5450 N   0  0  0  0  0  2  0  0  0  0  0  0
  187.0110  176.2090  143.1440 C   0  0  0  0  0  2  0  0  0  0  0  0
  190.4730  177.5940  145.1190 C   0  0  0  0  0  2  0  0  0  0  0  0
  188.4080  175.6660  142.8930 C   0  0  0  0  0  0  0  0  0  0  0  0
  189.2000  177.1550  144.5860 N   0  0  0  0  0  0  0  0  0  0  0  0
  189.4130  176.1360  143.6470 C   0  0  0  0  0  0  0  0  0  0  0  0
  191.5140  176.6450  144.4760 C   0  0  1  0  0  3  0  0  0  0  0  0
  187.9970  177.8680  144.6590 N   0  0  0  0  0  0  0  0  0  0  0  0
  186.9580  177.4680  143.9840 C   0  0  0  0  0  0  0  0  0  0  0  0
  188.3320  174.8970  140.5120 C   0  0  0  0  0  3  0  0  0  0  0  0
  188.1810  174.2530  137.8630 Cl  0  0  0  0  0  0  0  0  0  0  0  0
  188.9550  172.6400  139.9250 C   0  0  0  0  0  3  0  0  0  0  0  0
  189.2110  172.3850  141.2730 C   0  0  0  0  0  3  0  0  0  0  0  0
  188.5990  174.6130  141.8600 C   0  0  0  0  0  0  0  0  0  0  0  0
  189.0310  173.3650  142.1990 N   0  0  0  0  0  0  0  0  0  0  0  0
  188.5120  173.9060  139.5470 C   0  0  0  0  0  0  0  0  0  0  0  0
  185.5500  179.3810  144.8800 C   0  0  0  0  0  2  0  0  0  0  0  0
  185.5180  176.8850  146.9850 O   0  0  0  0  0  0  0  0  0  0  0  0
  185.8580  179.1940  147.3290 C   0  0  0  0  0  2  0  0  0  0  0  0
  185.9380  177.8180  147.9430 C   0  0  0  0  0  2  0  0  0  0  0  0
  184.8820  179.0290  146.2010 C   0  0  2  0  0  3  0  0  0  0  0  0
  184.5510  177.5540  146.2210 C   0  0  0  0  0  2  0  0  0  0  0  0
  192.1740  175.7850  145.5430 C   0  0  0  0  0  2  0  0  0  0  0  0
  191.3660  175.2900  147.7360 O   0  0  0  0  0  1  0  0  0  0  0  0
  191.8720  176.3140  146.9360 C   0  0  0  0  0  2  0  0  0  0  0  0
  1 18  1  0  0  0  0
  2  7  1  0  0  0  0
  2  8  1  0  0  0  0
  3 10  1  0  0  0  0
  5  3  1  0  0  0  0
  5  7  2  0  0  0  0
  6  9  1  0  0  0  0
  6  4  1  0  0  0  0
  7  6  1  0  0  0  0
  8  4  1  0  0  0  0
  8 24  1  1  0  0  0
 10  1  1  0  0  0  0
 10  9  2  0  0  0  0
 11 15  1  0  0  0  0
 12 17  1  0  0  0  0
 13 14  2  0  0  0  0
 14 16  1  0  0  0  0
 15 16  2  0  0  0  0
 15  5  1  0  0  0  0
 17 13  1  0  0  0  0
 17 11  2  0  0  0  0
 19 21  1  0  0  0  0
 20 21  1  0  0  0  0
 22 18  1  6  0  0  0
 22 23  1  0  0  0  0
 22 20  1  0  0  0  0
 23 19  1  0  0  0  0
 24 26  1  0  0  0  0
 26 25  1  0  0  0  0
M  END
>  <MODEL>
1

>  <REMARK>
 VINA RESULT:      -6.7      0.000      0.000
  Name = 
  5 active torsions:
  status: ('A' for Active; 'I' for Inactive)
    1  A    between atoms: N_3  and  C_17
    2  A    between atoms: C_11  and  C_19
    3  A    between atoms: C_13  and  C_17
    4  A    between atoms: C_18  and  C_24
    5  A    between atoms: C_24  and  C_25
                            x       y       z     vdW  Elec       q    Type
                         _______ _______ _______ _____ _____    ______ ____

>  <TORSDO>
F 5

$$$$
=
 OpenBabel11042417193D

 26 29  0  0  1  0  0  0  0  0999 V2000
  192.1490  177.2150  143.7480 N   0  0  0  0  0  2  0  0  0  0  0  0
  186.7420  177.3020  145.2730 N   0  0  0  0  0  2  0  0  0  0  0  0
  189.7900  177.8070  143.0400 C   0  0  0  0  0  2  0  0  0  0  0  0
  188.4460  176.9560  146.9480 C   0  0  0  0  0  2  0  0  0  0  0  0
  188.3260  177.6750  143.4260 C   0  0  0  0  0  0  0  0  0  0  0  0
  189.0390  177.3300  145.6810 N   0  0  0  0  0  0  0  0  0  0  0  0
  188.0300  177.4850  144.7210 C   0  0  0  0  0  0  0  0  0  0  0  0
  186.9200  177.0000  146.6930 C   0  0  1  0  0  3  0  0  0  0  0  0
  190.3870  177.1730  145.3340 N   0  0  0  0  0  0  0  0  0  0  0  0
  190.7730  177.3680  144.1060 C   0  0  0  0  0  0  0  0  0  0  0  0
  187.4930  177.2280  141.1090 C   0  0  0  0  0  3  0  0  0  0  0  0
  186.7650  176.6340  138.5450 Cl  0  0  0  0  0  0  0  0  0  0  0  0
  185.3390  178.0520  140.3920 C   0  0  0  0  0  3  0  0  0  0  0  0
  185.1620  178.6170  141.6560 C   0  0  0  0  0  3  0  0  0  0  0  0
  187.2870  177.8060  142.3710 C   0  0  0  0  0  0  0  0  0  0  0  0
  186.1260  178.4830  142.6050 N   0  0  0  0  0  0  0  0  0  0  0  0
  186.5150  177.3530  140.1220 C   0  0  0  0  0  0  0  0  0  0  0  0
  193.1840  176.8490  144.7060 C   0  0  0  0  0  2  0  0  0  0  0  0
  196.2130  175.8450  144.0130 O   0  0  0  0  0  0  0  0  0  0  0  0
  194.5780  174.9450  145.4550 C   0  0  0  0  0  2  0  0  0  0  0  0
  196.0240  174.8970  145.0280 C   0  0  0  0  0  2  0  0  0  0  0  0
  193.8760  175.5620  144.2810 C   0  0  2  0  0  3  0  0  0  0  0  0
  194.9960  175.8860  143.3180 C   0  0  0  0  0  2  0  0  0  0  0  0
  186.2760  178.0950  147.5290 C   0  0  0  0  0  2  0  0  0  0  0  0
  184.0160  178.2910  146.7770 O   0  0  0  0  0  1  0  0  0  0  0  0
  185.2740  178.8910  146.7080 C   0  0  0  0  0  2  0  0  0  0  0  0
  1 10  1  0  0  0  0
  1 18  1  0  0  0  0
  2  8  1  0  0  0  0
  3  5  1  0  0  0  0
  3 10  1  0  0  0  0
  5  7  2  0  0  0  0
  6  4  1  0  0  0  0
  7  2  1  0  0  0  0
  7  6  1  0  0  0  0
  8  4  1  0  0  0  0
  8 24  1  1  0  0  0
  9  6  1  0  0  0  0
 10  9  2  0  0  0  0
 11 15  1  0  0  0  0
 12 17  1  0  0  0  0
 13 14  2  0  0  0  0
 14 16  1  0  0  0  0
 15 16  2  0  0  0  0
 15  5  1  0  0  0  0
 17 13  1  0  0  0  0
 17 11  2  0  0  0  0
 19 21  1  0  0  0  0
 21 20  1  0  0  0  0
 22 18  1  1  0  0  0
 22 20  1  0  0  0  0
 23 19  1  0  0  0  0
 23 22  1  0  0  0  0
 26 25  1  0  0  0  0
 26 24  1  0  0  0  0
M  END
>  <MODEL>
2

>  <REMARK>
 VINA RESULT:      -6.7      2.769      6.493
  Name = 
  5 active torsions:
  status: ('A' for Active; 'I' for Inactive)
    1  A    between atoms: N_3  and  C_17
    2  A    between atoms: C_11  and  C_19
    3  A    between atoms: C_13  and  C_17
    4  A    between atoms: C_18  and  C_24
    5  A    between atoms: C_24  and  C_25
                            x       y       z     vdW  Elec       q    Type
                         _______ _______ _______ _____ _____    ______ ____

>  <TORSDO>
F 5

$$$$
=
 OpenBabel11042417193D

 26 29  0  0  1  0  0  0  0  0999 V2000
  187.2820  178.2640  144.6820 N   0  0  0  0  0  2  0  0  0  0  0  0
  190.8650  174.1290  143.4060 N   0  0  0  0  0  2  0  0  0  0  0  0
  189.7130  177.5530  144.6240 C   0  0  0  0  0  2  0  0  0  0  0  0
  188.5870  174.0170  142.6150 C   0  0  0  0  0  2  0  0  0  0  0  0
  190.6350  176.3640  144.4120 C   0  0  0  0  0  0  0  0  0  0  0  0
  188.8650  175.3120  143.1990 N   0  0  0  0  0  0  0  0  0  0  0  0
  190.1800  175.3330  143.6840 C   0  0  0  0  0  0  0  0  0  0  0  0
  189.9320  173.2550  142.6960 C   0  0  1  0  0  3  0  0  0  0  0  0
  187.9040  176.2510  143.5960 N   0  0  0  0  0  0  0  0  0  0  0  0
  188.2590  177.3000  144.2800 C   0  0  0  0  0  0  0  0  0  0  0  0
  193.1200  176.4500  144.1200 C   0  0  0  0  0  3  0  0  0  0  0  0
  195.7970  176.5450  143.5900 Cl  0  0  0  0  0  0  0  0  0  0  0  0
  194.5870  176.4880  146.0370 C   0  0  0  0  0  3  0  0  0  0  0  0
  193.4650  176.4440  146.8660 C   0  0  0  0  0  3  0  0  0  0  0  0
  192.0110  176.4080  144.9780 C   0  0  0  0  0  0  0  0  0  0  0  0
  192.2180  176.4060  146.3260 N   0  0  0  0  0  0  0  0  0  0  0  0
  194.4080  176.4910  144.6550 C   0  0  0  0  0  0  0  0  0  0  0  0
  185.8670  178.1460  144.3580 C   0  0  0  0  0  2  0  0  0  0  0  0
  186.0370  176.8640  147.3560 O   0  0  0  0  0  0  0  0  0  0  0  0
  185.6080  179.0710  146.6390 C   0  0  0  0  0  2  0  0  0  0  0  0
  185.9250  178.1830  147.8180 C   0  0  0  0  0  2  0  0  0  0  0  0
  185.0260  178.1290  145.6260 C   0  0  2  0  0  3  0  0  0  0  0  0
  185.1360  176.7730  146.2860 C   0  0  0  0  0  2  0  0  0  0  0  0
  190.4640  172.9740  141.2980 C   0  0  0  0  0  2  0  0  0  0  0  0
  190.2440  170.7490  142.1410 O   0  0  0  0  0  1  0  0  0  0  0  0
  190.3780  171.4920  140.9680 C   0  0  0  0  0  2  0  0  0  0  0  0
  2  7  1  0  0  0  0
  4  8  1  0  0  0  0
  4  6  1  0  0  0  0
  5  3  1  0  0  0  0
  5 15  1  0  0  0  0
  6  9  1  0  0  0  0
  6  7  1  0  0  0  0
  7  5  2  0  0  0  0
  8 24  1  6  0  0  0
  8  2  1  0  0  0  0
  9 10  2  0  0  0  0
 10  3  1  0  0  0  0
 10  1  1  0  0  0  0
 11 17  2  0  0  0  0
 11 15  1  0  0  0  0
 12 17  1  0  0  0  0
 13 14  2  0  0  0  0
 15 16  2  0  0  0  0
 16 14  1  0  0  0  0
 17 13  1  0  0  0  0
 18  1  1  0  0  0  0
 19 21  1  0  0  0  0
 20 21  1  0  0  0  0
 22 18  1  6  0  0  0
 22 23  1  0  0  0  0
 22 20  1  0  0  0  0
 23 19  1  0  0  0  0
 26 24  1  0  0  0  0
 26 25  1  0  0  0  0
M  END
>  <MODEL>
3

>  <REMARK>
 VINA RESULT:      -6.6      2.821      4.952
  Name = 
  5 active torsions:
  status: ('A' for Active; 'I' for Inactive)
    1  A    between atoms: N_3  and  C_17
    2  A    between atoms: C_11  and  C_19
    3  A    between atoms: C_13  and  C_17
    4  A    between atoms: C_18  and  C_24
    5  A    between atoms: C_24  and  C_25
                            x       y       z     vdW  Elec       q    Type
                         _______ _______ _______ _____ _____    ______ ____

>  <TORSDO>
F 5

$$$$
=
 OpenBabel11042417193D

 26 29  0  0  1  0  0  0  0  0999 V2000
  186.9920  178.1970  144.3300 N   0  0  0  0  0  2  0  0  0  0  0  0
  190.2330  174.0930  142.2760 N   0  0  0  0  0  2  0  0  0  0  0  0
  189.3600  177.4850  143.7820 C   0  0  0  0  0  2  0  0  0  0  0  0
  187.8440  174.0050  141.9390 C   0  0  0  0  0  2  0  0  0  0  0  0
  190.2170  176.3010  143.3650 C   0  0  0  0  0  0  0  0  0  0  0  0
  188.2380  175.2840  142.4910 N   0  0  0  0  0  0  0  0  0  0  0  0
  189.6220  175.2900  142.7120 C   0  0  0  0  0  0  0  0  0  0  0  0
  189.1740  173.2390  141.7370 C   0  0  1  0  0  3  0  0  0  0  0  0
  187.3780  176.2130  143.0910 N   0  0  0  0  0  0  0  0  0  0  0  0
  187.8660  177.2430  143.7210 C   0  0  0  0  0  0  0  0  0  0  0  0
  192.1270  176.5500  144.9630 C   0  0  0  0  0  3  0  0  0  0  0  0
  194.0670  176.8510  146.8600 Cl  0  0  0  0  0  0  0  0  0  0  0  0
  194.4090  176.3810  144.1930 C   0  0  0  0  0  3  0  0  0  0  0  0
  193.9320  176.1630  142.9000 C   0  0  0  0  0  3  0  0  0  0  0  0
  191.6760  176.3280  143.6530 C   0  0  0  0  0  0  0  0  0  0  0  0
  192.5930  176.1410  142.6610 N   0  0  0  0  0  0  0  0  0  0  0  0
  193.4960  176.5750  145.2280 C   0  0  0  0  0  0  0  0  0  0  0  0
  185.5400  178.0890  144.2830 C   0  0  0  0  0  2  0  0  0  0  0  0
  186.2580  176.8350  147.2110 O   0  0  0  0  0  0  0  0  0  0  0  0
  185.7370  179.0410  146.5600 C   0  0  0  0  0  2  0  0  0  0  0  0
  186.2590  178.1600  147.6680 C   0  0  0  0  0  2  0  0  0  0  0  0
  184.9570  178.1010  145.6890 C   0  0  2  0  0  3  0  0  0  0  0  0
  185.1680  176.7500  146.3340 C   0  0  0  0  0  2  0  0  0  0  0  0
  189.4230  172.9950  140.2570 C   0  0  0  0  0  2  0  0  0  0  0  0
  188.1880  173.2170  138.2230 O   0  0  0  0  0  1  0  0  0  0  0  0
  188.1220  172.7130  139.5220 C   0  0  0  0  0  2  0  0  0  0  0  0
  2  7  1  0  0  0  0
  4  6  1  0  0  0  0
  5 15  1  0  0  0  0
  5  3  1  0  0  0  0
  6  7  1  0  0  0  0
  6  9  1  0  0  0  0
  7  5  2  0  0  0  0
  8 24  1  6  0  0  0
  8  4  1  0  0  0  0
  8  2  1  0  0  0  0
  9 10  2  0  0  0  0
 10  3  1  0  0  0  0
 10  1  1  0  0  0  0
 11 17  1  0  0  0  0
 13 17  2  0  0  0  0
 14 13  1  0  0  0  0
 15 11  2  0  0  0  0
 16 14  2  0  0  0  0
 16 15  1  0  0  0  0
 17 12  1  0  0  0  0
 18  1  1  0  0  0  0
 19 21  1  0  0  0  0
 20 21  1  0  0  0  0
 22 18  1  6  0  0  0
 22 23  1  0  0  0  0
 22 20  1  0  0  0  0
 23 19  1  0  0  0  0
 25 26  1  0  0  0  0
 26 24  1  0  0  0  0
M  END
>  <MODEL>
4

>  <REMARK>
 VINA RESULT:      -6.6      3.225      5.137
  Name = 
  5 active torsions:
  status: ('A' for Active; 'I' for Inactive)
    1  A    between atoms: N_3  and  C_17
    2  A    between atoms: C_11  and  C_19
    3  A    between atoms: C_13  and  C_17
    4  A    between atoms: C_18  and  C_24
    5  A    between atoms: C_24  and  C_25
                            x       y       z     vdW  Elec       q    Type
                         _______ _______ _______ _____ _____    ______ ____

>  <TORSDO>
F 5

$$$$
=
 OpenBabel11042417193D

 26 29  0  0  1  0  0  0  0  0999 V2000
  185.6540  177.7610  144.0220 N   0  0  0  0  0  2  0  0  0  0  0  0
  190.9300  176.2320  142.8430 N   0  0  0  0  0  2  0  0  0  0  0  0
  187.1320  175.9590  143.0310 C   0  0  0  0  0  2  0  0  0  0  0  0
  190.5330  178.0890  144.3340 C   0  0  0  0  0  2  0  0  0  0  0  0
  188.5530  175.6460  142.5910 C   0  0  0  0  0  0  0  0  0  0  0  0
  189.2990  177.3920  144.0410 N   0  0  0  0  0  0  0  0  0  0  0  0
  189.5550  176.3470  143.1440 C   0  0  0  0  0  0  0  0  0  0  0  0
  191.6240  177.2820  143.5900 C   0  0  1  0  0  3  0  0  0  0  0  0
  188.0090  177.8910  144.2650 N   0  0  0  0  0  0  0  0  0  0  0  0
  186.9730  177.2590  143.7910 C   0  0  0  0  0  0  0  0  0  0  0  0
  189.4260  173.3740  142.0040 C   0  0  0  0  0  3  0  0  0  0  0  0
  190.4410  170.8780  141.5670 Cl  0  0  0  0  0  0  0  0  0  0  0  0
  189.2050  172.5100  139.7610 C   0  0  0  0  0  3  0  0  0  0  0  0
  188.5660  173.6940  139.3930 C   0  0  0  0  0  3  0  0  0  0  0  0
  188.7790  174.5540  141.6060 C   0  0  0  0  0  0  0  0  0  0  0  0
  188.3690  174.6780  140.3110 N   0  0  0  0  0  0  0  0  0  0  0  0
  189.6360  172.3530  141.0770 C   0  0  0  0  0  0  0  0  0  0  0  0
  185.3850  178.9730  144.7850 C   0  0  0  0  0  2  0  0  0  0  0  0
  185.8970  176.8020  147.1710 O   0  0  0  0  0  0  0  0  0  0  0  0
  185.6760  179.1500  147.2370 C   0  0  0  0  0  2  0  0  0  0  0  0
  186.0650  177.9120  148.0090 C   0  0  0  0  0  2  0  0  0  0  0  0
  184.7910  178.6280  146.1430 C   0  0  2  0  0  3  0  0  0  0  0  0
  184.8160  177.1290  146.3400 C   0  0  0  0  0  2  0  0  0  0  0  0
  192.5820  176.6460  144.5860 C   0  0  0  0  0  2  0  0  0  0  0  0
  191.5150  175.0980  146.0610 O   0  0  0  0  0  1  0  0  0  0  0  0
  191.9070  176.4300  145.9320 C   0  0  0  0  0  2  0  0  0  0  0  0
  1 18  1  0  0  0  0
  2  7  1  0  0  0  0
  2  8  1  0  0  0  0
  3 10  1  0  0  0  0
  5  3  1  0  0  0  0
  5  7  2  0  0  0  0
  6  9  1  0  0  0  0
  6  4  1  0  0  0  0
  7  6  1  0  0  0  0
  8  4  1  0  0  0  0
  8 24  1  1  0  0  0
 10  1  1  0  0  0  0
 10  9  2  0  0  0  0
 13 17  1  0  0  0  0
 14 13  2  0  0  0  0
 14 16  1  0  0  0  0
 15 11  1  0  0  0  0
 15  5  1  0  0  0  0
 16 15  2  0  0  0  0
 17 12  1  0  0  0  0
 17 11  2  0  0  0  0
 19 21  1  0  0  0  0
 20 21  1  0  0  0  0
 22 18  1  6  0  0  0
 22 23  1  0  0  0  0
 22 20  1  0  0  0  0
 23 19  1  0  0  0  0
 24 26  1  0  0  0  0
 26 25  1  0  0  0  0
M  END
>  <MODEL>
5

>  <REMARK>
 VINA RESULT:      -6.6      1.354      1.572
  Name = 
  5 active torsions:
  status: ('A' for Active; 'I' for Inactive)
    1  A    between atoms: N_3  and  C_17
    2  A    between atoms: C_11  and  C_19
    3  A    between atoms: C_13  and  C_17
    4  A    between atoms: C_18  and  C_24
    5  A    between atoms: C_24  and  C_25
                            x       y       z     vdW  Elec       q    Type
                         _______ _______ _______ _____ _____    ______ ____

>  <TORSDO>
F 5

$$$$
=
 OpenBabel11042417193D

 26 29  0  0  1  0  0  0  0  0999 V2000
  192.1040  175.0330  146.0530 N   0  0  0  0  0  2  0  0  0  0  0  0
  188.4500  175.0980  141.7850 N   0  0  0  0  0  2  0  0  0  0  0  0
  189.7910  175.7360  145.2960 C   0  0  0  0  0  2  0  0  0  0  0  0
  190.3970  173.6740  141.6650 C   0  0  0  0  0  2  0  0  0  0  0  0
  188.8890  175.8700  144.0810 C   0  0  0  0  0  0  0  0  0  0  0  0
  190.2580  174.2440  142.9890 N   0  0  0  0  0  0  0  0  0  0  0  0
  189.1450  175.0960  143.0150 C   0  0  0  0  0  0  0  0  0  0  0  0
  189.1630  174.1900  140.8850 C   0  0  1  0  0  3  0  0  0  0  0  0
  191.2600  174.2880  143.9660 N   0  0  0  0  0  0  0  0  0  0  0  0
  191.0860  174.9900  145.0490 C   0  0  0  0  0  0  0  0  0  0  0  0
  186.7940  176.7080  145.1650 C   0  0  0  0  0  3  0  0  0  0  0  0
  184.5330  177.4700  146.4940 Cl  0  0  0  0  0  0  0  0  0  0  0  0
  185.5890  178.5820  144.2350 C   0  0  0  0  0  3  0  0  0  0  0  0
  186.5450  178.6640  143.2220 C   0  0  0  0  0  3  0  0  0  0  0  0
  187.7410  176.8140  144.1350 C   0  0  0  0  0  0  0  0  0  0  0  0
  187.5870  177.7900  143.1940 N   0  0  0  0  0  0  0  0  0  0  0  0
  185.7180  177.5960  145.2110 C   0  0  0  0  0  0  0  0  0  0  0  0
  193.3640  174.3100  145.9400 C   0  0  0  0  0  2  0  0  0  0  0  0
  195.0960  176.6680  144.4890 O   0  0  0  0  0  0  0  0  0  0  0  0
  194.0380  176.6000  146.5960 C   0  0  0  0  0  2  0  0  0  0  0  0
  194.7160  177.4750  145.5700 C   0  0  0  0  0  2  0  0  0  0  0  0
  194.5350  175.2210  146.2790 C   0  0  2  0  0  3  0  0  0  0  0  0
  195.3930  175.4180  145.0500 C   0  0  0  0  0  2  0  0  0  0  0  0
  188.2520  173.0300  140.5110 C   0  0  0  0  0  2  0  0  0  0  0  0
  188.0610  173.9630  138.3190 O   0  0  0  0  0  1  0  0  0  0  0  0
  188.2840  172.7730  139.0120 C   0  0  0  0  0  2  0  0  0  0  0  0
  2  7  1  0  0  0  0
  4  6  1  0  0  0  0
  5 15  1  0  0  0  0
  5  3  1  0  0  0  0
  6  7  1  0  0  0  0
  6  9  1  0  0  0  0
  7  5  2  0  0  0  0
  8 24  1  1  0  0  0
  8  4  1  0  0  0  0
  8  2  1  0  0  0  0
  9 10  2  0  0  0  0
 10  3  1  0  0  0  0
 10  1  1  0  0  0  0
 11 17  1  0  0  0  0
 13 17  2  0  0  0  0
 14 13  1  0  0  0  0
 15 11  2  0  0  0  0
 16 14  2  0  0  0  0
 16 15  1  0  0  0  0
 17 12  1  0  0  0  0
 18  1  1  0  0  0  0
 19 23  1  0  0  0  0
 19 21  1  0  0  0  0
 21 20  1  0  0  0  0
 22 18  1  6  0  0  0
 22 20  1  0  0  0  0
 23 22  1  0  0  0  0
 25 26  1  0  0  0  0
 26 24  1  0  0  0  0
M  END
>  <MODEL>
6

>  <REMARK>
 VINA RESULT:      -6.5      3.350      7.156
  Name = 
  5 active torsions:
  status: ('A' for Active; 'I' for Inactive)
    1  A    between atoms: N_3  and  C_17
    2  A    between atoms: C_11  and  C_19
    3  A    between atoms: C_13  and  C_17
    4  A    between atoms: C_18  and  C_24
    5  A    between atoms: C_24  and  C_25
                            x       y       z     vdW  Elec       q    Type
                         _______ _______ _______ _____ _____    ______ ____

>  <TORSDO>
F 5

$$$$
=
 OpenBabel11042417193D

 26 29  0  0  1  0  0  0  0  0999 V2000
  181.5240  178.7950  141.8700 N   0  0  0  0  0  2  0  0  0  0  0  0
  186.8500  177.3860  142.9730 N   0  0  0  0  0  2  0  0  0  0  0  0
  183.3430  178.7290  143.6310 C   0  0  0  0  0  2  0  0  0  0  0  0
  186.0980  177.4980  140.6820 C   0  0  0  0  0  2  0  0  0  0  0  0
  184.7340  178.1990  143.9350 C   0  0  0  0  0  0  0  0  0  0  0  0
  185.0950  178.0350  141.5780 N   0  0  0  0  0  0  0  0  0  0  0  0
  185.5430  177.9190  142.9020 C   0  0  0  0  0  0  0  0  0  0  0  0
  187.2860  177.1270  141.6010 C   0  0  1  0  0  3  0  0  0  0  0  0
  183.7500  178.2550  141.2580 N   0  0  0  0  0  0  0  0  0  0  0  0
  182.8970  178.5620  142.1940 C   0  0  0  0  0  0  0  0  0  0  0  0
  185.4940  179.1890  146.1050 C   0  0  0  0  0  3  0  0  0  0  0  0
  186.3120  180.4610  148.3780 Cl  0  0  0  0  0  0  0  0  0  0  0  0
  185.9520  177.7800  148.0110 C   0  0  0  0  0  3  0  0  0  0  0  0
  185.6130  176.6670  147.2400 C   0  0  0  0  0  3  0  0  0  0  0  0
  185.1580  178.0530  145.3540 C   0  0  0  0  0  0  0  0  0  0  0  0
  185.2270  176.8260  145.9450 N   0  0  0  0  0  0  0  0  0  0  0  0
  185.8910  179.0480  147.4350 C   0  0  0  0  0  0  0  0  0  0  0  0
  181.0000  178.7140  140.5130 C   0  0  0  0  0  2  0  0  0  0  0  0
  178.1970  177.0400  140.5700 O   0  0  0  0  0  0  0  0  0  0  0  0
  178.9390  178.8600  141.8750 C   0  0  0  0  0  2  0  0  0  0  0  0
  177.8920  177.7840  141.7180 C   0  0  0  0  0  2  0  0  0  0  0  0
  179.5080  179.0120  140.4960 C   0  0  2  0  0  3  0  0  0  0  0  0
  178.7910  177.9540  139.6880 C   0  0  0  0  0  2  0  0  0  0  0  0
  188.4930  177.9960  141.2810 C   0  0  0  0  0  2  0  0  0  0  0  0
  190.0810  176.6180  142.4160 O   0  0  0  0  0  1  0  0  0  0  0  0
  189.5400  177.9030  142.3800 C   0  0  0  0  0  2  0  0  0  0  0  0
  1 10  1  0  0  0  0
  3  5  1  0  0  0  0
  4  6  1  0  0  0  0
  4  8  1  0  0  0  0
  5 15  1  0  0  0  0
  6  7  1  0  0  0  0
  7  2  1  0  0  0  0
  7  5  2  0  0  0  0
  8 24  1  6  0  0  0
  8  2  1  0  0  0  0
  9  6  1  0  0  0  0
  9 10  2  0  0  0  0
 10  3  1  0  0  0  0
 11 17  1  0  0  0  0
 14 13  1  0  0  0  0
 15 16  1  0  0  0  0
 15 11  2  0  0  0  0
 16 14  2  0  0  0  0
 17 13  2  0  0  0  0
 17 12  1  0  0  0  0
 18  1  1  0  0  0  0
 19 21  1  0  0  0  0
 21 20  1  0  0  0  0
 22 18  1  1  0  0  0
 22 20  1  0  0  0  0
 23 22  1  0  0  0  0
 23 19  1  0  0  0  0
 24 26  1  0  0  0  0
 26 25  1  0  0  0  0
M  END
>  <MODEL>
7

>  <REMARK>
 VINA RESULT:      -6.5      5.088      7.190
  Name = 
  5 active torsions:
  status: ('A' for Active; 'I' for Inactive)
    1  A    between atoms: N_3  and  C_17
    2  A    between atoms: C_11  and  C_19
    3  A    between atoms: C_13  and  C_17
    4  A    between atoms: C_18  and  C_24
    5  A    between atoms: C_24  and  C_25
                            x       y       z     vdW  Elec       q    Type
                         _______ _______ _______ _____ _____    ______ ____

>  <TORSDO>
F 5

$$$$
=
 OpenBabel11042417193D

 26 29  0  0  1  0  0  0  0  0999 V2000
  191.3320  174.7830  146.2660 N   0  0  0  0  0  2  0  0  0  0  0  0
  187.4650  177.3730  143.1190 N   0  0  0  0  0  2  0  0  0  0  0  0
  188.9860  175.7350  146.2070 C   0  0  0  0  0  2  0  0  0  0  0  0
  189.3980  176.3880  142.0590 C   0  0  0  0  0  2  0  0  0  0  0  0
  188.0230  176.5680  145.3770 C   0  0  0  0  0  0  0  0  0  0  0  0
  189.3290  176.0100  143.4550 N   0  0  0  0  0  0  0  0  0  0  0  0
  188.2210  176.6280  144.0510 C   0  0  0  0  0  0  0  0  0  0  0  0
  188.1280  177.2400  141.8210 C   0  0  1  0  0  3  0  0  0  0  0  0
  190.3800  175.4680  144.2050 N   0  0  0  0  0  0  0  0  0  0  0  0
  190.2640  175.3420  145.4960 C   0  0  0  0  0  0  0  0  0  0  0  0
  187.1110  178.3640  146.8630 C   0  0  0  0  0  3  0  0  0  0  0  0
  186.3160  180.3930  148.5070 Cl  0  0  0  0  0  0  0  0  0  0  0  0
  184.7450  178.5000  147.3230 C   0  0  0  0  0  3  0  0  0  0  0  0
  184.5470  177.3810  146.5140 C   0  0  0  0  0  3  0  0  0  0  0  0
  186.8820  177.2410  146.0540 C   0  0  0  0  0  0  0  0  0  0  0  0
  185.6060  176.7840  145.9040 N   0  0  0  0  0  0  0  0  0  0  0  0
  186.0380  178.9910  147.4970 C   0  0  0  0  0  0  0  0  0  0  0  0
  192.5830  174.3230  145.6760 C   0  0  0  0  0  2  0  0  0  0  0  0
  195.4140  175.5610  144.6180 O   0  0  0  0  0  0  0  0  0  0  0  0
  193.6670  176.5410  145.8650 C   0  0  0  0  0  2  0  0  0  0  0  0
  194.9360  176.7920  145.0880 C   0  0  0  0  0  2  0  0  0  0  0  0
  193.7620  175.0940  146.2520 C   0  0  2  0  0  3  0  0  0  0  0  0
  195.0400  174.6260  145.5940 C   0  0  0  0  0  2  0  0  0  0  0  0
  187.1960  176.5360  140.8460 C   0  0  0  0  0  2  0  0  0  0  0  0
  185.3340  177.9670  140.3990 O   0  0  0  0  0  1  0  0  0  0  0  0
  186.5560  177.5290  139.8880 C   0  0  0  0  0  2  0  0  0  0  0  0
  2  7  1  0  0  0  0
  4  6  1  0  0  0  0
  5 15  1  0  0  0  0
  5  3  1  0  0  0  0
  6  7  1  0  0  0  0
  6  9  1  0  0  0  0
  7  5  2  0  0  0  0
  8 24  1  6  0  0  0
  8  4  1  0  0  0  0
  8  2  1  0  0  0  0
  9 10  2  0  0  0  0
 10  3  1  0  0  0  0
 10  1  1  0  0  0  0
 11 17  1  0  0  0  0
 13 17  2  0  0  0  0
 14 13  1  0  0  0  0
 15 11  2  0  0  0  0
 16 15  1  0  0  0  0
 16 14  2  0  0  0  0
 17 12  1  0  0  0  0
 18  1  1  0  0  0  0
 19 21  1  0  0  0  0
 19 23  1  0  0  0  0
 20 22  1  0  0  0  0
 21 20  1  0  0  0  0
 22 18  1  6  0  0  0
 23 22  1  0  0  0  0
 26 25  1  0  0  0  0
 26 24  1  0  0  0  0
M  END
>  <MODEL>
8

>  <REMARK>
 VINA RESULT:      -6.5      3.585      7.531
  Name = 
  5 active torsions:
  status: ('A' for Active; 'I' for Inactive)
    1  A    between atoms: N_3  and  C_17
    2  A    between atoms: C_11  and  C_19
    3  A    between atoms: C_13  and  C_17
    4  A    between atoms: C_18  and  C_24
    5  A    between atoms: C_24  and  C_25
                            x       y       z     vdW  Elec       q    Type
                         _______ _______ _______ _____ _____    ______ ____

>  <TORSDO>
F 5

$$$$
=
 OpenBabel11042417193D

 26 29  0  0  1  0  0  0  0  0999 V2000
  192.9260  177.0760  144.9420 N   0  0  0  0  0  2  0  0  0  0  0  0
  188.0790  175.2830  142.7380 N   0  0  0  0  0  2  0  0  0  0  0  0
  190.4250  176.8730  145.2880 C   0  0  0  0  0  2  0  0  0  0  0  0
  190.1690  174.5530  141.7730 C   0  0  0  0  0  2  0  0  0  0  0  0
  189.1190  176.5150  144.5980 C   0  0  0  0  0  0  0  0  0  0  0  0
  190.3950  175.2550  143.0180 N   0  0  0  0  0  0  0  0  0  0  0  0
  189.1700  175.7010  143.5330 C   0  0  0  0  0  0  0  0  0  0  0  0
  188.6290  174.5160  141.6190 C   0  0  1  0  0  3  0  0  0  0  0  0
  191.6230  175.7740  143.4490 N   0  0  0  0  0  0  0  0  0  0  0  0
  191.6740  176.5490  144.4940 C   0  0  0  0  0  0  0  0  0  0  0  0
  187.1930  178.1110  144.5210 C   0  0  0  0  0  3  0  0  0  0  0  0
  185.1780  179.9360  144.2620 Cl  0  0  0  0  0  0  0  0  0  0  0  0
  185.4520  178.0250  146.1920 C   0  0  0  0  0  3  0  0  0  0  0  0
  186.1210  176.9620  146.8000 C   0  0  0  0  0  3  0  0  0  0  0  0
  187.8430  177.0400  145.1520 C   0  0  0  0  0  0  0  0  0  0  0  0
  187.2860  176.4980  146.2730 N   0  0  0  0  0  0  0  0  0  0  0  0
  185.9960  178.6010  145.0450 C   0  0  0  0  0  0  0  0  0  0  0  0
  194.1940  176.7840  144.2850 C   0  0  0  0  0  2  0  0  0  0  0  0
  193.6570  174.1470  146.1350 O   0  0  0  0  0  0  0  0  0  0  0  0
  195.1690  174.5100  144.3610 C   0  0  0  0  0  2  0  0  0  0  0  0
  194.5370  173.4840  145.2700 C   0  0  0  0  0  2  0  0  0  0  0  0
  195.0100  175.8000  145.1100 C   0  0  2  0  0  3  0  0  0  0  0  0
  194.2310  175.4090  146.3450 C   0  0  0  0  0  2  0  0  0  0  0  0
  188.1250  173.0820  141.6920 C   0  0  0  0  0  2  0  0  0  0  0  0
  188.9470  171.9200  143.6110 O   0  0  0  0  0  1  0  0  0  0  0  0
  189.1910  172.1570  142.2580 C   0  0  0  0  0  2  0  0  0  0  0  0
  2  7  1  0  0  0  0
  4  6  1  0  0  0  0
  5 15  1  0  0  0  0
  5  3  1  0  0  0  0
  6  9  1  0  0  0  0
  6  7  1  0  0  0  0
  7  5  2  0  0  0  0
  8 24  1  1  0  0  0
  8  4  1  0  0  0  0
  8  2  1  0  0  0  0
  9 10  2  0  0  0  0
 10  1  1  0  0  0  0
 10  3  1  0  0  0  0
 11 17  2  0  0  0  0
 11 15  1  0  0  0  0
 12 17  1  0  0  0  0
 13 14  2  0  0  0  0
 15 16  2  0  0  0  0
 16 14  1  0  0  0  0
 17 13  1  0  0  0  0
 18  1  1  0  0  0  0
 19 23  1  0  0  0  0
 20 22  1  0  0  0  0
 20 21  1  0  0  0  0
 21 19  1  0  0  0  0
 22 18  1  6  0  0  0
 22 23  1  0  0  0  0
 24 26  1  0  0  0  0
 26 25  1  0  0  0  0
M  END
>  <MODEL>
9

>  <REMARK>
 VINA RESULT:      -6.4      2.790      6.897
  Name = 
  5 active torsions:
  status: ('A' for Active; 'I' for Inactive)
    1  A    between atoms: N_3  and  C_17
    2  A    between atoms: C_11  and  C_19
    3  A    between atoms: C_13  and  C_17
    4  A    between atoms: C_18  and  C_24
    5  A    between atoms: C_24  and  C_25
                            x       y       z     vdW  Elec       q    Type
                         _______ _______ _______ _____ _____    ______ ____

>  <TORSDO>
F 5

$$$$
