=
 OpenBabel11042415233D

 47 51  0  0  1  0  0  0  0  0999 V2000
  184.5210  178.2780  146.9140 C   0  0  0  0  0  3  0  0  0  0  0  0
  187.2190  177.3420  143.0510 C   0  0  1  0  0  3  0  0  0  0  0  0
  189.1180  175.7130  142.8850 C   0  0  0  0  0  0  0  0  0  0  0  0
  189.7550  176.0520  144.2240 C   0  0  2  0  0  3  0  0  0  0  0  0
  190.9650  175.1800  144.6210 C   0  0  2  0  0  3  0  0  0  0  0  0
  187.1300  177.6010  146.1320 C   0  0  0  0  0  0  0  0  0  0  0  0
  193.3420  175.9750  144.0810 C   0  0  2  0  0  3  0  0  0  0  0  0
  192.7910  175.0600  141.4530 O   0  0  0  0  0  0  0  0  0  0  0  0
  193.2810  176.4510  145.5330 C   0  0  0  0  0  2  0  0  0  0  0  0
  191.9530  174.7660  142.3510 C   0  0  0  0  0  0  0  0  0  0  0  0
  191.3910  175.4740  145.9360 O   0  0  0  0  0  0  0  0  0  0  0  0
  190.7600  173.9150  142.0270 C   0  0  1  0  0  3  0  0  0  0  0  0
  186.1880  176.6640  143.9370 C   0  0  0  0  0  2  0  0  0  0  0  0
  188.0270  176.3290  142.3780 N   0  0  0  0  0  0  0  0  0  0  0  0
  186.8930  178.1960  147.3760 C   0  0  0  0  0  3  0  0  0  0  0  0
  187.7270  175.8130  141.1960 N   0  0  0  0  0  0  0  0  0  0  0  0
  192.0890  175.3110  143.6750 N   0  0  0  0  0  0  0  0  0  0  0  0
  191.9480  176.6770  145.8960 O   0  0  0  0  0  0  0  0  0  0  0  0
  188.6450  174.8730  140.8900 C   0  0  0  0  0  3  0  0  0  0  0  0
  185.5950  178.5290  147.7690 C   0  0  0  0  0  3  0  0  0  0  0  0
  188.7490  175.9900  145.2770 N   0  0  0  0  0  2  0  0  0  0  0  0
  188.5590  177.3520  145.7500 C   0  0  0  0  0  2  0  0  0  0  0  0
  186.0410  177.3600  145.2560 C   0  0  0  0  0  0  0  0  0  0  0  0
  184.7440  177.6930  145.6670 C   0  0  0  0  0  3  0  0  0  0  0  0
  189.5470  174.7930  141.9390 C   0  0  0  0  0  0  0  0  0  0  0  0
  194.5110  175.0530  143.9270 C   0  0  0  0  0  0  0  0  0  0  0  0
  194.5930  173.8660  144.7200 N   0  0  0  0  0  2  0  0  0  0  0  0
  195.4240  175.3410  143.1090 O   0  0  0  0  0  0  0  0  0  0  0  0
  195.6180  172.8490  144.5200 C   0  0  2  0  0  3  0  0  0  0  0  0
  194.5900  170.9590  145.6230 O   0  0  0  0  0  1  0  0  0  0  0  0
  194.9790  171.4600  144.3780 C   0  0  1  0  0  3  0  0  0  0  0  0
  193.7960  171.4600  143.3970 C   0  0  2  0  0  3  0  0  0  0  0  0
  191.6160  171.6550  144.4210 O   0  0  0  0  0  1  0  0  0  0  0  0
  192.5570  170.7440  143.9400 C   0  0  0  0  0  2  0  0  0  0  0  0
  194.1920  170.9200  142.0260 C   0  0  0  0  0  2  0  0  0  0  0  0
  195.9550  172.2090  140.8180 C   0  0  0  0  0  1  0  0  0  0  0  0
  194.4640  172.0460  141.0420 C   0  0  0  0  0  2  0  0  0  0  0  0
  196.6040  172.8900  145.6850 C   0  0  0  0  0  2  0  0  0  0  0  0
  197.5540  173.8960  145.4930 O   0  0  0  0  0  1  0  0  0  0  0  0
  190.4120  171.6540  141.0170 C   0  0  0  0  0  1  0  0  0  0  0  0
  190.9620  173.0500  140.7840 C   0  0  0  0  0  2  0  0  0  0  0  0
  186.5600  178.2060  142.0840 N   0  0  0  0  0  2  0  0  0  0  0  0
  185.1570  177.8330  142.0810 C   0  0  0  0  0  2  0  0  0  0  0  0
  184.5350  178.2250  140.7550 C   0  0  0  0  0  2  0  0  0  0  0  0
  183.0550  178.1210  140.8450 C   0  0  0  0  0  0  0  0  0  0  0  0
  182.3910  177.7190  139.8530 O   0  0  0  0  0  0  0  0  0  0  0  0
  182.4040  178.4360  142.0320 O   0  0  0  0  0  1  0  0  0  0  0  0
  1 20  1  0  0  0  0
  2 42  1  6  0  0  0
  2 13  1  0  0  0  0
  4  3  1  6  0  0  0
  4  5  1  0  0  0  0
  4 21  1  0  0  0  0
  5 11  1  1  0  0  0
  6 15  1  0  0  0  0
  7 26  1  1  0  0  0
  7  9  1  0  0  0  0
  8 10  2  0  0  0  0
  9 18  1  0  0  0  0
 10 17  1  0  0  0  0
 12 41  1  6  0  0  0
 12 10  1  0  0  0  0
 13 23  1  0  0  0  0
 14  3  1  0  0  0  0
 14  2  1  0  0  0  0
 15 20  2  0  0  0  0
 16 14  1  0  0  0  0
 17  7  1  0  0  0  0
 17  5  1  0  0  0  0
 18 11  1  0  0  0  0
 19 16  2  0  0  0  0
 19 25  1  0  0  0  0
 21 22  1  0  0  0  0
 22  6  1  0  0  0  0
 23 24  1  0  0  0  0
 23  6  2  0  0  0  0
 24  1  2  0  0  0  0
 25 12  1  0  0  0  0
 25  3  2  0  0  0  0
 26 27  1  0  0  0  0
 28 26  2  0  0  0  0
 29 27  1  0  0  0  0
 29 38  1  1  0  0  0
 31 29  1  0  0  0  0
 31 30  1  1  0  0  0
 32 35  1  6  0  0  0
 32 34  1  0  0  0  0
 32 31  1  0  0  0  0
 34 33  1  0  0  0  0
 36 37  1  0  0  0  0
 37 35  1  0  0  0  0
 39 38  1  0  0  0  0
 41 40  1  0  0  0  0
 43 42  1  0  0  0  0
 44 45  1  0  0  0  0
 44 43  1  0  0  0  0
 45 47  1  0  0  0  0
 46 45  2  0  0  0  0
M  END
>  <MODEL>
1

>  <REMARK>
 VINA RESULT:      -7.5      0.000      0.000
  Name = 
  13 active torsions:
  status: ('A' for Active; 'I' for Inactive)
    1  A    between atoms: C_2  and  N_17
    2  A    between atoms: C_6  and  C_39
    3  A    between atoms: CA_12  and  C_31
    4  A    between atoms: CA_12  and  N_34
    5  A    between atoms: CA_12  and  C_35
    6  A    between atoms: C_14  and  C_22
    7  A    between atoms: C_15  and  C_29
    8  A    between atoms: C_16  and  C_27
    9  A    between atoms: N_17  and  C_26
   10  A    between atoms: C_23  and  C_40
   11  A    between atoms: C_26  and  C_39
   12  A    between atoms: C_27  and  C_31
   13  A    between atoms: C_27  and  C_40
                            x       y       z     vdW  Elec       q    Type
                         _______ _______ _______ _____ _____    ______ ____

>  <TORSDO>
F 13

$$$$
=
 OpenBabel11042415233D

 47 51  0  0  1  0  0  0  0  0999 V2000
  185.4300  178.7060  141.7320 C   0  0  0  0  0  3  0  0  0  0  0  0
  188.1590  176.5790  145.0650 C   0  0  1  0  0  3  0  0  0  0  0  0
  190.5740  175.9350  144.8640 C   0  0  0  0  0  0  0  0  0  0  0  0
  190.4880  175.3830  143.4490 C   0  0  2  0  0  3  0  0  0  0  0  0
  191.8310  174.9370  142.8310 C   0  0  2  0  0  3  0  0  0  0  0  0
  187.5290  176.8700  142.0510 C   0  0  0  0  0  0  0  0  0  0  0  0
  192.5610  172.4850  142.9950 C   0  0  2  0  0  3  0  0  0  0  0  0
  193.3220  173.1420  145.6480 O   0  0  0  0  0  0  0  0  0  0  0  0
  191.9610  172.4370  141.5890 C   0  0  0  0  0  2  0  0  0  0  0  0
  192.9910  174.0980  144.8920 C   0  0  0  0  0  0  0  0  0  0  0  0
  191.6680  174.5790  141.4730 O   0  0  0  0  0  0  0  0  0  0  0  0
  193.0680  175.5140  145.3820 C   0  0  1  0  0  3  0  0  0  0  0  0
  188.0390  177.9100  144.3410 C   0  0  0  0  0  2  0  0  0  0  0  0
  189.5220  176.4150  145.5630 N   0  0  0  0  0  0  0  0  0  0  0  0
  186.7590  176.8740  140.8830 C   0  0  0  0  0  3  0  0  0  0  0  0
  189.9210  176.8120  146.7620 N   0  0  0  0  0  0  0  0  0  0  0  0
  192.4600  173.8350  143.5820 N   0  0  0  0  0  0  0  0  0  0  0  0
  190.9920  173.4390  141.4590 O   0  0  0  0  0  0  0  0  0  0  0  0
  191.2400  176.5610  146.8820 C   0  0  0  0  0  3  0  0  0  0  0  0
  185.7170  177.7890  140.7200 C   0  0  0  0  0  3  0  0  0  0  0  0
  189.8560  176.3630  142.5750 N   0  0  0  0  0  2  0  0  0  0  0  0
  188.5720  175.8020  142.1840 C   0  0  0  0  0  2  0  0  0  0  0  0
  187.2260  177.7910  143.0870 C   0  0  0  0  0  0  0  0  0  0  0  0
  186.1840  178.7080  142.9070 C   0  0  0  0  0  3  0  0  0  0  0  0
  191.6830  175.9950  145.6960 C   0  0  0  0  0  0  0  0  0  0  0  0
  193.9870  172.0370  142.9250 C   0  0  0  0  0  0  0  0  0  0  0  0
  194.9400  172.8010  142.1800 N   0  0  0  0  0  2  0  0  0  0  0  0
  194.3340  170.9770  143.5100 O   0  0  0  0  0  0  0  0  0  0  0  0
  196.3680  172.5120  142.1910 C   0  0  2  0  0  3  0  0  0  0  0  0
  197.1930  174.6190  141.3390 O   0  0  0  0  0  1  0  0  0  0  0  0
  197.1760  173.7900  142.4630 C   0  0  1  0  0  3  0  0  0  0  0  0
  196.6610  174.5520  143.6940 C   0  0  2  0  0  3  0  0  0  0  0  0
  195.2680  176.4430  143.1230 O   0  0  0  0  0  1  0  0  0  0  0  0
  196.5640  176.0640  143.4760 C   0  0  0  0  0  2  0  0  0  0  0  0
  197.4690  174.2250  144.9470 C   0  0  0  0  0  2  0  0  0  0  0  0
  197.0510  171.8740  145.6760 C   0  0  0  0  0  1  0  0  0  0  0  0
  196.6860  173.3290  145.8940 C   0  0  0  0  0  2  0  0  0  0  0  0
  196.7650  171.8780  140.8600 C   0  0  0  0  0  2  0  0  0  0  0  0
  196.4190  170.5250  140.8340 O   0  0  0  0  0  1  0  0  0  0  0  0
  194.6110  177.1000  146.5470 C   0  0  0  0  0  1  0  0  0  0  0  0
  194.0400  175.6930  146.5470 C   0  0  0  0  0  2  0  0  0  0  0  0
  187.1980  176.5120  146.1540 N   0  0  0  0  0  2  0  0  0  0  0  0
  185.8800  176.5010  145.5470 C   0  0  0  0  0  2  0  0  0  0  0  0
  184.8700  177.0730  146.5220 C   0  0  0  0  0  2  0  0  0  0  0  0
  184.7060  178.5310  146.2780 C   0  0  0  0  0  0  0  0  0  0  0  0
  185.4870  179.3520  146.8270 O   0  0  0  0  0  1  0  0  0  0  0  0
  183.7120  178.9870  145.4210 O   0  0  0  0  0  0  0  0  0  0  0  0
  1 24  1  0  0  0  0
  2 14  1  0  0  0  0
  2 42  1  1  0  0  0
  3 14  1  0  0  0  0
  3 25  2  0  0  0  0
  4 21  1  6  0  0  0
  4  3  1  0  0  0  0
  5 11  1  6  0  0  0
  5  4  1  0  0  0  0
  5 17  1  0  0  0  0
  6 22  1  0  0  0  0
  6 23  1  0  0  0  0
  7 26  1  6  0  0  0
  7 17  1  0  0  0  0
  9  7  1  0  0  0  0
 10 12  1  0  0  0  0
 10  8  2  0  0  0  0
 12 25  1  0  0  0  0
 12 41  1  1  0  0  0
 13  2  1  0  0  0  0
 14 16  1  0  0  0  0
 15  6  2  0  0  0  0
 16 19  2  0  0  0  0
 17 10  1  0  0  0  0
 18 11  1  0  0  0  0
 18  9  1  0  0  0  0
 20 15  1  0  0  0  0
 20  1  2  0  0  0  0
 22 21  1  0  0  0  0
 23 13  1  0  0  0  0
 24 23  2  0  0  0  0
 25 19  1  0  0  0  0
 26 28  2  0  0  0  0
 27 29  1  0  0  0  0
 27 26  1  0  0  0  0
 29 38  1  6  0  0  0
 29 31  1  0  0  0  0
 31 30  1  6  0  0  0
 31 32  1  0  0  0  0
 32 34  1  6  0  0  0
 32 35  1  0  0  0  0
 33 34  1  0  0  0  0
 35 37  1  0  0  0  0
 36 37  1  0  0  0  0
 39 38  1  0  0  0  0
 40 41  1  0  0  0  0
 43 42  1  0  0  0  0
 43 44  1  0  0  0  0
 45 44  1  0  0  0  0
 45 46  1  0  0  0  0
 47 45  2  0  0  0  0
M  END
>  <MODEL>
2

>  <REMARK>
 VINA RESULT:      -7.3      2.091      4.864
  Name = 
  13 active torsions:
  status: ('A' for Active; 'I' for Inactive)
    1  A    between atoms: C_2  and  N_17
    2  A    between atoms: C_6  and  C_39
    3  A    between atoms: CA_12  and  C_31
    4  A    between atoms: CA_12  and  N_34
    5  A    between atoms: CA_12  and  C_35
    6  A    between atoms: C_14  and  C_22
    7  A    between atoms: C_15  and  C_29
    8  A    between atoms: C_16  and  C_27
    9  A    between atoms: N_17  and  C_26
   10  A    between atoms: C_23  and  C_40
   11  A    between atoms: C_26  and  C_39
   12  A    between atoms: C_27  and  C_31
   13  A    between atoms: C_27  and  C_40
                            x       y       z     vdW  Elec       q    Type
                         _______ _______ _______ _____ _____    ______ ____

>  <TORSDO>
F 13

$$$$
=
 OpenBabel11042415233D

 47 51  0  0  1  0  0  0  0  0999 V2000
  184.5020  178.2450  146.8240 C   0  0  0  0  0  3  0  0  0  0  0  0
  187.2430  177.3010  142.9940 C   0  0  1  0  0  3  0  0  0  0  0  0
  189.1690  175.7000  142.8630 C   0  0  0  0  0  0  0  0  0  0  0  0
  189.7900  176.0670  144.2020 C   0  0  2  0  0  3  0  0  0  0  0  0
  191.0110  175.2190  144.6190 C   0  0  2  0  0  3  0  0  0  0  0  0
  187.1270  177.5990  146.0700 C   0  0  0  0  0  0  0  0  0  0  0  0
  193.3790  176.0430  144.0860 C   0  0  2  0  0  3  0  0  0  0  0  0
  192.8620  175.0850  141.4670 O   0  0  0  0  0  0  0  0  0  0  0  0
  193.2990  176.5380  145.5310 C   0  0  0  0  0  2  0  0  0  0  0  0
  192.0220  174.7900  142.3630 C   0  0  0  0  0  0  0  0  0  0  0  0
  191.4220  175.5370  145.9340 O   0  0  0  0  0  0  0  0  0  0  0  0
  190.8450  173.9160  142.0420 C   0  0  1  0  0  3  0  0  0  0  0  0
  186.2160  176.6180  143.8810 C   0  0  0  0  0  2  0  0  0  0  0  0
  188.0720  176.2910  142.3400 N   0  0  0  0  0  0  0  0  0  0  0  0
  186.8710  178.2070  147.3040 C   0  0  0  0  0  3  0  0  0  0  0  0
  187.7890  175.7550  141.1630 N   0  0  0  0  0  0  0  0  0  0  0  0
  192.1400  175.3540  143.6800 N   0  0  0  0  0  0  0  0  0  0  0  0
  191.9600  176.7480  145.8820 O   0  0  0  0  0  0  0  0  0  0  0  0
  188.7230  174.8260  140.8760 C   0  0  0  0  0  3  0  0  0  0  0  0
  185.5650  178.5250  147.6830 C   0  0  0  0  0  3  0  0  0  0  0  0
  188.7770  176.0020  145.2490 N   0  0  0  0  0  2  0  0  0  0  0  0
  188.5620  177.3670  145.7020 C   0  0  0  0  0  2  0  0  0  0  0  0
  186.0480  177.3300  145.1900 C   0  0  0  0  0  0  0  0  0  0  0  0
  184.7440  177.6470  145.5860 C   0  0  0  0  0  3  0  0  0  0  0  0
  189.6190  174.7740  141.9330 C   0  0  0  0  0  0  0  0  0  0  0  0
  194.5630  175.1380  143.9540 C   0  0  0  0  0  0  0  0  0  0  0  0
  194.7270  174.0400  144.8550 N   0  0  0  0  0  2  0  0  0  0  0  0
  195.4180  175.3620  143.0560 O   0  0  0  0  0  0  0  0  0  0  0  0
  195.7680  173.0320  144.6940 C   0  0  2  0  0  3  0  0  0  0  0  0
  193.9570  171.6500  145.5070 O   0  0  0  0  0  1  0  0  0  0  0  0
  195.3450  171.7100  145.3520 C   0  0  1  0  0  3  0  0  0  0  0  0
  195.8600  170.4850  144.5800 C   0  0  2  0  0  3  0  0  0  0  0  0
  194.4870  169.9160  142.6750 O   0  0  0  0  0  1  0  0  0  0  0  0
  194.7410  169.6090  144.0130 C   0  0  0  0  0  2  0  0  0  0  0  0
  196.8420  169.6600  145.4090 C   0  0  0  0  0  2  0  0  0  0  0  0
  197.2640  168.5870  147.6230 C   0  0  0  0  0  1  0  0  0  0  0  0
  196.4150  169.5900  146.8670 C   0  0  0  0  0  2  0  0  0  0  0  0
  197.0730  173.5550  145.2880 C   0  0  0  0  0  2  0  0  0  0  0  0
  197.0670  173.4350  146.6800 O   0  0  0  0  0  1  0  0  0  0  0  0
  190.9890  171.5700  141.1900 C   0  0  0  0  0  1  0  0  0  0  0  0
  191.0690  173.0380  140.8120 C   0  0  0  0  0  2  0  0  0  0  0  0
  186.5780  178.1410  142.0110 N   0  0  0  0  0  2  0  0  0  0  0  0
  185.2070  177.6730  141.9220 C   0  0  0  0  0  2  0  0  0  0  0  0
  184.5240  178.3350  140.7420 C   0  0  0  0  0  2  0  0  0  0  0  0
  183.0500  178.1720  140.8580 C   0  0  0  0  0  0  0  0  0  0  0  0
  182.3930  177.6880  139.8990 O   0  0  0  0  0  0  0  0  0  0  0  0
  182.4000  178.5220  142.0360 O   0  0  0  0  0  1  0  0  0  0  0  0
  1 20  1  0  0  0  0
  2 42  1  6  0  0  0
  2 13  1  0  0  0  0
  4  3  1  6  0  0  0
  4  5  1  0  0  0  0
  4 21  1  0  0  0  0
  5 11  1  1  0  0  0
  6 15  1  0  0  0  0
  7 26  1  1  0  0  0
  7  9  1  0  0  0  0
  8 10  2  0  0  0  0
  9 18  1  0  0  0  0
 10 17  1  0  0  0  0
 12 41  1  6  0  0  0
 12 10  1  0  0  0  0
 13 23  1  0  0  0  0
 14  3  1  0  0  0  0
 14  2  1  0  0  0  0
 15 20  2  0  0  0  0
 16 14  1  0  0  0  0
 17  7  1  0  0  0  0
 17  5  1  0  0  0  0
 18 11  1  0  0  0  0
 19 16  2  0  0  0  0
 19 25  1  0  0  0  0
 21 22  1  0  0  0  0
 22  6  1  0  0  0  0
 23 24  1  0  0  0  0
 23  6  2  0  0  0  0
 24  1  2  0  0  0  0
 25 12  1  0  0  0  0
 25  3  2  0  0  0  0
 26 27  1  0  0  0  0
 28 26  2  0  0  0  0
 29 27  1  0  0  0  0
 29 38  1  1  0  0  0
 29 31  1  0  0  0  0
 31 30  1  6  0  0  0
 32 34  1  1  0  0  0
 32 31  1  0  0  0  0
 32 35  1  0  0  0  0
 33 34  1  0  0  0  0
 35 37  1  0  0  0  0
 37 36  1  0  0  0  0
 38 39  1  0  0  0  0
 41 40  1  0  0  0  0
 43 42  1  0  0  0  0
 44 45  1  0  0  0  0
 44 43  1  0  0  0  0
 45 47  1  0  0  0  0
 46 45  2  0  0  0  0
M  END
>  <MODEL>
3

>  <REMARK>
 VINA RESULT:      -7.2      1.157      1.830
  Name = 
  13 active torsions:
  status: ('A' for Active; 'I' for Inactive)
    1  A    between atoms: C_2  and  N_17
    2  A    between atoms: C_6  and  C_39
    3  A    between atoms: CA_12  and  C_31
    4  A    between atoms: CA_12  and  N_34
    5  A    between atoms: CA_12  and  C_35
    6  A    between atoms: C_14  and  C_22
    7  A    between atoms: C_15  and  C_29
    8  A    between atoms: C_16  and  C_27
    9  A    between atoms: N_17  and  C_26
   10  A    between atoms: C_23  and  C_40
   11  A    between atoms: C_26  and  C_39
   12  A    between atoms: C_27  and  C_31
   13  A    between atoms: C_27  and  C_40
                            x       y       z     vdW  Elec       q    Type
                         _______ _______ _______ _____ _____    ______ ____

>  <TORSDO>
F 13

$$$$
=
 OpenBabel11042415233D

 47 51  0  0  1  0  0  0  0  0999 V2000
  184.4990  178.2780  146.9220 C   0  0  0  0  0  3  0  0  0  0  0  0
  187.1960  177.3050  143.0680 C   0  0  1  0  0  3  0  0  0  0  0  0
  189.0970  175.6750  142.9180 C   0  0  0  0  0  0  0  0  0  0  0  0
  189.7330  176.0290  144.2530 C   0  0  2  0  0  3  0  0  0  0  0  0
  190.9450  175.1620  144.6580 C   0  0  2  0  0  3  0  0  0  0  0  0
  187.1080  177.5950  146.1450 C   0  0  0  0  0  0  0  0  0  0  0  0
  193.3210  175.9530  144.1100 C   0  0  2  0  0  3  0  0  0  0  0  0
  192.7690  175.0100  141.4920 O   0  0  0  0  0  0  0  0  0  0  0  0
  193.2590  176.4440  145.5570 C   0  0  0  0  0  2  0  0  0  0  0  0
  191.9320  174.7250  142.3930 C   0  0  0  0  0  0  0  0  0  0  0  0
  191.3710  175.4700  145.9710 O   0  0  0  0  0  0  0  0  0  0  0  0
  190.7400  173.8700  142.0780 C   0  0  1  0  0  3  0  0  0  0  0  0
  186.1660  176.6340  143.9610 C   0  0  0  0  0  2  0  0  0  0  0  0
  188.0050  176.2850  142.4050 N   0  0  0  0  0  0  0  0  0  0  0  0
  186.8710  178.2030  147.3840 C   0  0  0  0  0  3  0  0  0  0  0  0
  187.7050  175.7570  141.2280 N   0  0  0  0  0  0  0  0  0  0  0  0
  192.0680  175.2840  143.7110 N   0  0  0  0  0  0  0  0  0  0  0  0
  191.9260  176.6730  145.9180 O   0  0  0  0  0  0  0  0  0  0  0  0
  188.6240  174.8150  140.9320 C   0  0  0  0  0  3  0  0  0  0  0  0
  185.5720  178.5390  147.7730 C   0  0  0  0  0  3  0  0  0  0  0  0
  188.7280  175.9760  145.3080 N   0  0  0  0  0  2  0  0  0  0  0  0
  188.5370  177.3430  145.7660 C   0  0  0  0  0  2  0  0  0  0  0  0
  186.0180  177.3450  145.2730 C   0  0  0  0  0  0  0  0  0  0  0  0
  184.7220  177.6800  145.6800 C   0  0  0  0  0  3  0  0  0  0  0  0
  189.5260  174.7460  141.9820 C   0  0  0  0  0  0  0  0  0  0  0  0
  194.4900  175.0300  143.9660 C   0  0  0  0  0  0  0  0  0  0  0  0
  194.5620  173.8400  144.7540 N   0  0  0  0  0  2  0  0  0  0  0  0
  195.4130  175.3200  143.1590 O   0  0  0  0  0  0  0  0  0  0  0  0
  195.5880  172.8220  144.5610 C   0  0  2  0  0  3  0  0  0  0  0  0
  193.5560  171.5340  144.3170 O   0  0  0  0  0  1  0  0  0  0  0  0
  194.9490  171.4690  144.2150 C   0  0  1  0  0  3  0  0  0  0  0  0
  195.3700  170.9650  142.8260 C   0  0  2  0  0  3  0  0  0  0  0  0
  197.5160  170.4890  141.8220 O   0  0  0  0  0  1  0  0  0  0  0  0
  196.7280  171.5030  142.3700 C   0  0  0  0  0  2  0  0  0  0  0  0
  194.2920  171.2210  141.7750 C   0  0  0  0  0  2  0  0  0  0  0  0
  194.2510  172.0350  139.4160 C   0  0  0  0  0  1  0  0  0  0  0  0
  194.6910  172.3450  140.8330 C   0  0  0  0  0  2  0  0  0  0  0  0
  196.4460  172.7250  145.8200 C   0  0  0  0  0  2  0  0  0  0  0  0
  197.0860  171.4850  145.8880 O   0  0  0  0  0  1  0  0  0  0  0  0
  190.6120  171.5460  141.1650 C   0  0  0  0  0  1  0  0  0  0  0  0
  190.9420  172.9920  140.8440 C   0  0  0  0  0  2  0  0  0  0  0  0
  186.5370  178.1580  142.0920 N   0  0  0  0  0  2  0  0  0  0  0  0
  185.1470  177.7410  142.0460 C   0  0  0  0  0  2  0  0  0  0  0  0
  184.4750  178.3600  140.8370 C   0  0  0  0  0  2  0  0  0  0  0  0
  183.0050  178.1450  140.9140 C   0  0  0  0  0  0  0  0  0  0  0  0
  182.3770  178.4660  141.9570 O   0  0  0  0  0  1  0  0  0  0  0  0
  182.3190  177.6200  139.8260 O   0  0  0  0  0  0  0  0  0  0  0  0
  1 20  1  0  0  0  0
  2 42  1  6  0  0  0
  2 13  1  0  0  0  0
  4  3  1  6  0  0  0
  4  5  1  0  0  0  0
  4 21  1  0  0  0  0
  5 11  1  1  0  0  0
  6 15  1  0  0  0  0
  7 26  1  1  0  0  0
  7  9  1  0  0  0  0
  8 10  2  0  0  0  0
  9 18  1  0  0  0  0
 10 17  1  0  0  0  0
 12 41  1  6  0  0  0
 12 10  1  0  0  0  0
 13 23  1  0  0  0  0
 14  3  1  0  0  0  0
 14  2  1  0  0  0  0
 15 20  2  0  0  0  0
 16 14  1  0  0  0  0
 17  7  1  0  0  0  0
 17  5  1  0  0  0  0
 18 11  1  0  0  0  0
 19 16  2  0  0  0  0
 19 25  1  0  0  0  0
 21 22  1  0  0  0  0
 22  6  1  0  0  0  0
 23 24  1  0  0  0  0
 23  6  2  0  0  0  0
 24  1  2  0  0  0  0
 25 12  1  0  0  0  0
 25  3  2  0  0  0  0
 26 27  1  0  0  0  0
 28 26  2  0  0  0  0
 29 27  1  0  0  0  0
 29 38  1  1  0  0  0
 31 30  1  6  0  0  0
 31 29  1  0  0  0  0
 32 35  1  6  0  0  0
 32 31  1  0  0  0  0
 33 34  1  0  0  0  0
 34 32  1  0  0  0  0
 36 37  1  0  0  0  0
 37 35  1  0  0  0  0
 38 39  1  0  0  0  0
 41 40  1  0  0  0  0
 43 42  1  0  0  0  0
 44 45  1  0  0  0  0
 44 43  1  0  0  0  0
 45 46  1  0  0  0  0
 47 45  2  0  0  0  0
M  END
>  <MODEL>
4

>  <REMARK>
 VINA RESULT:      -7.0      0.939      1.397
  Name = 
  13 active torsions:
  status: ('A' for Active; 'I' for Inactive)
    1  A    between atoms: C_2  and  N_17
    2  A    between atoms: C_6  and  C_39
    3  A    between atoms: CA_12  and  C_31
    4  A    between atoms: CA_12  and  N_34
    5  A    between atoms: CA_12  and  C_35
    6  A    between atoms: C_14  and  C_22
    7  A    between atoms: C_15  and  C_29
    8  A    between atoms: C_16  and  C_27
    9  A    between atoms: N_17  and  C_26
   10  A    between atoms: C_23  and  C_40
   11  A    between atoms: C_26  and  C_39
   12  A    between atoms: C_27  and  C_31
   13  A    between atoms: C_27  and  C_40
                            x       y       z     vdW  Elec       q    Type
                         _______ _______ _______ _____ _____    ______ ____

>  <TORSDO>
F 13

$$$$
=
 OpenBabel11042415233D

 47 51  0  0  1  0  0  0  0  0999 V2000
  185.5400  178.9940  143.1200 C   0  0  0  0  0  3  0  0  0  0  0  0
  188.8900  176.7600  145.7390 C   0  0  1  0  0  3  0  0  0  0  0  0
  190.8950  175.5140  144.8940 C   0  0  0  0  0  0  0  0  0  0  0  0
  190.1880  174.8020  143.7510 C   0  0  2  0  0  3  0  0  0  0  0  0
  191.0970  173.9530  142.8370 C   0  0  2  0  0  3  0  0  0  0  0  0
  187.2390  176.7610  143.1240 C   0  0  0  0  0  0  0  0  0  0  0  0
  191.3830  171.4460  143.2940 C   0  0  2  0  0  3  0  0  0  0  0  0
  193.1870  172.2700  145.3220 O   0  0  0  0  0  0  0  0  0  0  0  0
  190.3020  171.3470  142.2170 C   0  0  0  0  0  2  0  0  0  0  0  0
  192.7750  173.1580  144.5260 C   0  0  0  0  0  0  0  0  0  0  0  0
  190.3750  173.4550  141.7280 O   0  0  0  0  0  0  0  0  0  0  0  0
  193.2820  174.5660  144.6310 C   0  0  1  0  0  3  0  0  0  0  0  0
  188.7480  177.9600  144.8170 C   0  0  0  0  0  2  0  0  0  0  0  0
  190.2870  176.3360  145.7770 N   0  0  0  0  0  0  0  0  0  0  0  0
  186.1010  176.7870  142.3100 C   0  0  0  0  0  3  0  0  0  0  0  0
  191.1710  176.7900  146.6530 N   0  0  0  0  0  0  0  0  0  0  0  0
  191.7530  172.8490  143.5620 N   0  0  0  0  0  0  0  0  0  0  0  0
  189.5500  172.5290  142.1960 O   0  0  0  0  0  0  0  0  0  0  0  0
  192.3710  176.2390  146.3800 C   0  0  0  0  0  3  0  0  0  0  0  0
  185.2570  177.9000  142.3030 C   0  0  0  0  0  3  0  0  0  0  0  0
  189.4600  175.7720  142.9420 N   0  0  0  0  0  2  0  0  0  0  0  0
  188.0460  175.4970  143.1370 C   0  0  0  0  0  2  0  0  0  0  0  0
  187.5170  177.8670  143.9660 C   0  0  0  0  0  0  0  0  0  0  0  0
  186.6660  178.9780  143.9430 C   0  0  0  0  0  3  0  0  0  0  0  0
  192.2260  175.4160  145.2730 C   0  0  0  0  0  0  0  0  0  0  0  0
  192.5720  170.6530  142.8540 C   0  0  0  0  0  0  0  0  0  0  0  0
  193.2190  170.9610  141.6160 N   0  0  0  0  0  2  0  0  0  0  0  0
  192.9860  169.7050  143.5740 O   0  0  0  0  0  0  0  0  0  0  0  0
  194.4670  170.3350  141.1970 C   0  0  2  0  0  3  0  0  0  0  0  0
  195.4580  171.7360  139.4940 O   0  0  0  0  0  1  0  0  0  0  0  0
  195.5150  171.4020  140.8490 C   0  0  1  0  0  3  0  0  0  0  0  0
  195.3820  172.6570  141.7260 C   0  0  2  0  0  3  0  0  0  0  0  0
  194.2860  174.7910  141.4300 O   0  0  0  0  0  1  0  0  0  0  0  0
  195.2800  173.9530  140.9190 C   0  0  0  0  0  2  0  0  0  0  0  0
  196.4900  172.7430  142.7720 C   0  0  0  0  0  2  0  0  0  0  0  0
  197.2480  171.9780  145.0240 C   0  0  0  0  0  1  0  0  0  0  0  0
  196.2900  171.7190  143.8770 C   0  0  0  0  0  2  0  0  0  0  0  0
  194.1960  169.4150  140.0090 C   0  0  0  0  0  2  0  0  0  0  0  0
  193.3350  168.3760  140.3740 O   0  0  0  0  0  1  0  0  0  0  0  0
  195.5220  175.6780  144.6320 C   0  0  0  0  0  1  0  0  0  0  0  0
  194.6360  174.6640  145.3330 C   0  0  0  0  0  2  0  0  0  0  0  0
  188.4120  177.0920  147.0720 N   0  0  0  0  0  2  0  0  0  0  0  0
  187.1150  176.4570  147.2190 C   0  0  0  0  0  2  0  0  0  0  0  0
  186.0790  177.5040  147.5780 C   0  0  0  0  0  2  0  0  0  0  0  0
  184.9800  177.4870  146.5770 C   0  0  0  0  0  0  0  0  0  0  0  0
  184.8600  176.5110  145.7910 O   0  0  0  0  0  0  0  0  0  0  0  0
  184.0660  178.5330  146.5280 O   0  0  0  0  0  1  0  0  0  0  0  0
  1 24  1  0  0  0  0
  2 14  1  0  0  0  0
  2 42  1  1  0  0  0
  3 25  2  0  0  0  0
  3 14  1  0  0  0  0
  4 21  1  6  0  0  0
  4  3  1  0  0  0  0
  5 11  1  6  0  0  0
  5 17  1  0  0  0  0
  5  4  1  0  0  0  0
  6 22  1  0  0  0  0
  6 23  1  0  0  0  0
  7 26  1  6  0  0  0
  7 17  1  0  0  0  0
  9  7  1  0  0  0  0
 10 12  1  0  0  0  0
 10  8  2  0  0  0  0
 11 18  1  0  0  0  0
 12 25  1  0  0  0  0
 12 41  1  1  0  0  0
 13  2  1  0  0  0  0
 14 16  1  0  0  0  0
 15  6  2  0  0  0  0
 17 10  1  0  0  0  0
 18  9  1  0  0  0  0
 19 16  2  0  0  0  0
 20 15  1  0  0  0  0
 20  1  2  0  0  0  0
 21 22  1  0  0  0  0
 23 13  1  0  0  0  0
 24 23  2  0  0  0  0
 25 19  1  0  0  0  0
 26 28  2  0  0  0  0
 27 26  1  0  0  0  0
 29 38  1  6  0  0  0
 29 27  1  0  0  0  0
 31 30  1  6  0  0  0
 31 29  1  0  0  0  0
 31 32  1  0  0  0  0
 32 34  1  6  0  0  0
 32 35  1  0  0  0  0
 34 33  1  0  0  0  0
 35 37  1  0  0  0  0
 37 36  1  0  0  0  0
 38 39  1  0  0  0  0
 40 41  1  0  0  0  0
 42 43  1  0  0  0  0
 43 44  1  0  0  0  0
 45 44  1  0  0  0  0
 46 45  2  0  0  0  0
 47 45  1  0  0  0  0
M  END
>  <MODEL>
5

>  <REMARK>
 VINA RESULT:      -6.6      2.275      4.912
  Name = 
  13 active torsions:
  status: ('A' for Active; 'I' for Inactive)
    1  A    between atoms: C_2  and  N_17
    2  A    between atoms: C_6  and  C_39
    3  A    between atoms: CA_12  and  C_31
    4  A    between atoms: CA_12  and  N_34
    5  A    between atoms: CA_12  and  C_35
    6  A    between atoms: C_14  and  C_22
    7  A    between atoms: C_15  and  C_29
    8  A    between atoms: C_16  and  C_27
    9  A    between atoms: N_17  and  C_26
   10  A    between atoms: C_23  and  C_40
   11  A    between atoms: C_26  and  C_39
   12  A    between atoms: C_27  and  C_31
   13  A    between atoms: C_27  and  C_40
                            x       y       z     vdW  Elec       q    Type
                         _______ _______ _______ _____ _____    ______ ____

>  <TORSDO>
F 13

$$$$
=
 OpenBabel11042415233D

 47 51  0  0  1  0  0  0  0  0999 V2000
  184.9950  179.0260  142.9630 C   0  0  0  0  0  3  0  0  0  0  0  0
  188.1780  176.5880  145.6090 C   0  0  1  0  0  3  0  0  0  0  0  0
  190.4510  175.7990  144.9030 C   0  0  0  0  0  0  0  0  0  0  0  0
  190.0430  175.3130  143.5200 C   0  0  2  0  0  3  0  0  0  0  0  0
  191.1990  174.8090  142.6290 C   0  0  2  0  0  3  0  0  0  0  0  0
  186.9780  177.0470  142.7960 C   0  0  0  0  0  0  0  0  0  0  0  0
  191.7690  172.3100  142.5710 C   0  0  2  0  0  3  0  0  0  0  0  0
  193.0930  172.8040  145.0320 O   0  0  0  0  0  0  0  0  0  0  0  0
  190.8970  172.3610  141.3160 C   0  0  0  0  0  2  0  0  0  0  0  0
  192.6860  173.8100  144.3860 C   0  0  0  0  0  0  0  0  0  0  0  0
  190.7410  174.5200  141.3230 O   0  0  0  0  0  0  0  0  0  0  0  0
  192.9610  175.1960  144.8900 C   0  0  1  0  0  3  0  0  0  0  0  0
  188.0110  177.9530  144.9630 C   0  0  0  0  0  2  0  0  0  0  0  0
  189.5980  176.3150  145.8150 N   0  0  0  0  0  0  0  0  0  0  0  0
  185.9910  177.1490  141.8090 C   0  0  0  0  0  3  0  0  0  0  0  0
  190.2580  176.6350  146.9180 N   0  0  0  0  0  0  0  0  0  0  0  0
  191.8860  173.6370  143.2050 N   0  0  0  0  0  0  0  0  0  0  0  0
  189.9960  173.4270  141.4140 O   0  0  0  0  0  0  0  0  0  0  0  0
  191.5530  176.2940  146.7600 C   0  0  0  0  0  3  0  0  0  0  0  0
  185.0060  178.1360  141.8880 C   0  0  0  0  0  3  0  0  0  0  0  0
  189.3200  176.3680  142.8210 N   0  0  0  0  0  2  0  0  0  0  0  0
  187.9470  175.9080  142.6830 C   0  0  0  0  0  2  0  0  0  0  0  0
  186.9570  177.9400  143.8970 C   0  0  0  0  0  0  0  0  0  0  0  0
  185.9680  178.9290  143.9590 C   0  0  0  0  0  3  0  0  0  0  0  0
  191.7060  175.7520  145.4930 C   0  0  0  0  0  0  0  0  0  0  0  0
  193.1160  171.7740  142.2000 C   0  0  0  0  0  0  0  0  0  0  0  0
  193.9450  172.4980  141.2870 N   0  0  0  0  0  2  0  0  0  0  0  0
  193.5020  170.6770  142.6820 O   0  0  0  0  0  0  0  0  0  0  0  0
  195.3220  172.1190  140.9970 C   0  0  2  0  0  3  0  0  0  0  0  0
  195.6610  174.2980  141.9890 O   0  0  0  0  0  1  0  0  0  0  0  0
  196.3030  173.1030  141.6500 C   0  0  1  0  0  3  0  0  0  0  0  0
  197.0080  172.4980  142.8750 C   0  0  2  0  0  3  0  0  0  0  0  0
  196.7280  170.4110  144.0610 O   0  0  0  0  0  1  0  0  0  0  0  0
  197.0900  170.9700  142.8340 C   0  0  0  0  0  2  0  0  0  0  0  0
  196.3930  172.9840  144.1840 C   0  0  0  0  0  2  0  0  0  0  0  0
  197.1900  173.4130  146.5110 C   0  0  0  0  0  1  0  0  0  0  0  0
  197.4170  173.7110  145.0420 C   0  0  0  0  0  2  0  0  0  0  0  0
  195.5210  172.0590  139.4840 C   0  0  0  0  0  2  0  0  0  0  0  0
  196.6340  172.8110  139.1010 O   0  0  0  0  0  1  0  0  0  0  0  0
  194.9320  176.5510  145.6210 C   0  0  0  0  0  1  0  0  0  0  0  0
  194.1580  175.2630  145.8380 C   0  0  0  0  0  2  0  0  0  0  0  0
  187.4530  176.5370  146.8690 N   0  0  0  0  0  2  0  0  0  0  0  0
  187.2230  177.9120  147.2730 C   0  0  0  0  0  2  0  0  0  0  0  0
  185.9090  178.0040  148.0210 C   0  0  0  0  0  2  0  0  0  0  0  0
  184.7770  177.9510  147.0580 C   0  0  0  0  0  0  0  0  0  0  0  0
  184.1400  178.9990  146.7760 O   0  0  0  0  0  1  0  0  0  0  0  0
  184.4410  176.7500  146.4430 O   0  0  0  0  0  0  0  0  0  0  0  0
  1 24  1  0  0  0  0
  2 14  1  0  0  0  0
  2 42  1  1  0  0  0
  3 25  2  0  0  0  0
  3 14  1  0  0  0  0
  4 21  1  6  0  0  0
  4  3  1  0  0  0  0
  5 11  1  6  0  0  0
  5 17  1  0  0  0  0
  5  4  1  0  0  0  0
  6 23  1  0  0  0  0
  7 26  1  6  0  0  0
  7 17  1  0  0  0  0
  9 18  1  0  0  0  0
  9  7  1  0  0  0  0
 10 12  1  0  0  0  0
 10  8  2  0  0  0  0
 11 18  1  0  0  0  0
 12 25  1  0  0  0  0
 12 41  1  1  0  0  0
 13  2  1  0  0  0  0
 14 16  1  0  0  0  0
 15 20  1  0  0  0  0
 15  6  2  0  0  0  0
 17 10  1  0  0  0  0
 19 16  2  0  0  0  0
 20  1  2  0  0  0  0
 22  6  1  0  0  0  0
 22 21  1  0  0  0  0
 23 24  2  0  0  0  0
 23 13  1  0  0  0  0
 25 19  1  0  0  0  0
 26 28  2  0  0  0  0
 27 26  1  0  0  0  0
 29 38  1  6  0  0  0
 29 27  1  0  0  0  0
 29 31  1  0  0  0  0
 31 30  1  1  0  0  0
 31 32  1  0  0  0  0
 32 34  1  6  0  0  0
 32 35  1  0  0  0  0
 34 33  1  0  0  0  0
 35 37  1  0  0  0  0
 37 36  1  0  0  0  0
 39 38  1  0  0  0  0
 40 41  1  0  0  0  0
 42 43  1  0  0  0  0
 43 44  1  0  0  0  0
 45 44  1  0  0  0  0
 46 45  1  0  0  0  0
 47 45  2  0  0  0  0
M  END
>  <MODEL>
6

>  <REMARK>
 VINA RESULT:      -6.5      2.168      4.813
  Name = 
  13 active torsions:
  status: ('A' for Active; 'I' for Inactive)
    1  A    between atoms: C_2  and  N_17
    2  A    between atoms: C_6  and  C_39
    3  A    between atoms: CA_12  and  C_31
    4  A    between atoms: CA_12  and  N_34
    5  A    between atoms: CA_12  and  C_35
    6  A    between atoms: C_14  and  C_22
    7  A    between atoms: C_15  and  C_29
    8  A    between atoms: C_16  and  C_27
    9  A    between atoms: N_17  and  C_26
   10  A    between atoms: C_23  and  C_40
   11  A    between atoms: C_26  and  C_39
   12  A    between atoms: C_27  and  C_31
   13  A    between atoms: C_27  and  C_40
                            x       y       z     vdW  Elec       q    Type
                         _______ _______ _______ _____ _____    ______ ____

>  <TORSDO>
F 13

$$$$
=
 OpenBabel11042415233D

 47 51  0  0  1  0  0  0  0  0999 V2000
  185.9720  178.6550  142.6900 C   0  0  0  0  0  3  0  0  0  0  0  0
  189.2270  176.6810  145.6200 C   0  0  1  0  0  3  0  0  0  0  0  0
  191.3060  175.4420  144.9640 C   0  0  0  0  0  0  0  0  0  0  0  0
  190.6800  174.6420  143.8320 C   0  0  2  0  0  3  0  0  0  0  0  0
  191.6590  173.7640  143.0240 C   0  0  2  0  0  3  0  0  0  0  0  0
  187.7230  176.4740  142.9260 C   0  0  0  0  0  0  0  0  0  0  0  0
  191.9810  171.2990  143.6520 C   0  0  2  0  0  3  0  0  0  0  0  0
  193.6500  172.2960  145.7190 O   0  0  0  0  0  0  0  0  0  0  0  0
  190.9640  171.1030  142.5280 C   0  0  0  0  0  2  0  0  0  0  0  0
  193.2600  173.1220  144.8460 C   0  0  0  0  0  0  0  0  0  0  0  0
  191.0120  173.1780  141.9110 O   0  0  0  0  0  0  0  0  0  0  0  0
  193.7260  174.5470  144.8900 C   0  0  1  0  0  3  0  0  0  0  0  0
  189.1070  177.8170  144.6190 C   0  0  0  0  0  2  0  0  0  0  0  0
  190.6300  176.3000  145.7600 N   0  0  0  0  0  0  0  0  0  0  0  0
  186.6310  176.4180  142.0520 C   0  0  0  0  0  3  0  0  0  0  0  0
  191.4530  176.8320  146.6510 N   0  0  0  0  0  0  0  0  0  0  0  0
  192.3020  172.7250  143.8510 N   0  0  0  0  0  0  0  0  0  0  0  0
  190.1860  172.2590  142.3920 O   0  0  0  0  0  0  0  0  0  0  0  0
  192.6790  176.2980  146.4780 C   0  0  0  0  0  3  0  0  0  0  0  0
  185.7620  177.5040  141.9300 C   0  0  0  0  0  3  0  0  0  0  0  0
  189.9750  175.5390  142.9250 N   0  0  0  0  0  2  0  0  0  0  0  0
  188.5590  175.2370  143.0620 C   0  0  0  0  0  2  0  0  0  0  0  0
  187.9270  177.6380  143.7110 C   0  0  0  0  0  0  0  0  0  0  0  0
  187.0520  178.7210  143.5720 C   0  0  0  0  0  3  0  0  0  0  0  0
  192.6160  175.4050  145.4190 C   0  0  0  0  0  0  0  0  0  0  0  0
  193.2120  170.5130  143.3280 C   0  0  0  0  0  0  0  0  0  0  0  0
  193.9050  170.7470  142.0990 N   0  0  0  0  0  2  0  0  0  0  0  0
  193.6200  169.6380  144.1360 O   0  0  0  0  0  0  0  0  0  0  0  0
  195.1890  170.1320  141.7840 C   0  0  2  0  0  3  0  0  0  0  0  0
  195.3490  172.0410  140.3090 O   0  0  0  0  0  1  0  0  0  0  0  0
  196.1010  171.1290  141.0550 C   0  0  1  0  0  3  0  0  0  0  0  0
  197.0480  171.8630  142.0180 C   0  0  2  0  0  3  0  0  0  0  0  0
  196.6950  171.8950  144.4080 O   0  0  0  0  0  1  0  0  0  0  0  0
  197.2280  171.1460  143.3570 C   0  0  0  0  0  2  0  0  0  0  0  0
  196.6390  173.3200  142.2200 C   0  0  0  0  0  2  0  0  0  0  0  0
  197.1860  175.5690  141.2850 C   0  0  0  0  0  1  0  0  0  0  0  0
  197.7560  174.2710  141.8220 C   0  0  0  0  0  2  0  0  0  0  0  0
  194.9560  168.8780  140.9460 C   0  0  0  0  0  2  0  0  0  0  0  0
  193.8290  169.0280  140.1340 O   0  0  0  0  0  1  0  0  0  0  0  0
  195.9800  175.6300  144.8840 C   0  0  0  0  0  1  0  0  0  0  0  0
  195.0360  174.7260  145.6560 C   0  0  0  0  0  2  0  0  0  0  0  0
  188.6680  177.0810  146.9020 N   0  0  0  0  0  2  0  0  0  0  0  0
  187.4340  176.3360  147.0690 C   0  0  0  0  0  2  0  0  0  0  0  0
  186.3450  177.2690  147.5590 C   0  0  0  0  0  2  0  0  0  0  0  0
  185.3020  177.4190  146.5090 C   0  0  0  0  0  0  0  0  0  0  0  0
  185.1900  176.5490  145.6060 O   0  0  0  0  0  0  0  0  0  0  0  0
  184.4320  178.5020  146.5410 O   0  0  0  0  0  1  0  0  0  0  0  0
  1 24  1  0  0  0  0
  2 14  1  0  0  0  0
  2 42  1  1  0  0  0
  3 25  2  0  0  0  0
  3 14  1  0  0  0  0
  4 21  1  6  0  0  0
  4  3  1  0  0  0  0
  5 11  1  6  0  0  0
  5  4  1  0  0  0  0
  5 17  1  0  0  0  0
  6 22  1  0  0  0  0
  6 23  1  0  0  0  0
  7 26  1  6  0  0  0
  7 17  1  0  0  0  0
  9  7  1  0  0  0  0
 10 12  1  0  0  0  0
 10  8  2  0  0  0  0
 11 18  1  0  0  0  0
 12 25  1  0  0  0  0
 12 41  1  1  0  0  0
 13  2  1  0  0  0  0
 14 16  1  0  0  0  0
 15  6  2  0  0  0  0
 17 10  1  0  0  0  0
 18  9  1  0  0  0  0
 19 16  2  0  0  0  0
 20 15  1  0  0  0  0
 20  1  2  0  0  0  0
 21 22  1  0  0  0  0
 23 13  1  0  0  0  0
 24 23  2  0  0  0  0
 25 19  1  0  0  0  0
 26 28  2  0  0  0  0
 27 26  1  0  0  0  0
 29 38  1  6  0  0  0
 29 27  1  0  0  0  0
 31 30  1  1  0  0  0
 31 29  1  0  0  0  0
 31 32  1  0  0  0  0
 32 35  1  1  0  0  0
 32 34  1  0  0  0  0
 34 33  1  0  0  0  0
 36 37  1  0  0  0  0
 37 35  1  0  0  0  0
 39 38  1  0  0  0  0
 40 41  1  0  0  0  0
 42 43  1  0  0  0  0
 43 44  1  0  0  0  0
 45 47  1  0  0  0  0
 45 44  1  0  0  0  0
 46 45  2  0  0  0  0
M  END
>  <MODEL>
7

>  <REMARK>
 VINA RESULT:      -6.4      2.403      4.961
  Name = 
  13 active torsions:
  status: ('A' for Active; 'I' for Inactive)
    1  A    between atoms: C_2  and  N_17
    2  A    between atoms: C_6  and  C_39
    3  A    between atoms: CA_12  and  C_31
    4  A    between atoms: CA_12  and  N_34
    5  A    between atoms: CA_12  and  C_35
    6  A    between atoms: C_14  and  C_22
    7  A    between atoms: C_15  and  C_29
    8  A    between atoms: C_16  and  C_27
    9  A    between atoms: N_17  and  C_26
   10  A    between atoms: C_23  and  C_40
   11  A    between atoms: C_26  and  C_39
   12  A    between atoms: C_27  and  C_31
   13  A    between atoms: C_27  and  C_40
                            x       y       z     vdW  Elec       q    Type
                         _______ _______ _______ _____ _____    ______ ____

>  <TORSDO>
F 13

$$$$
=
 OpenBabel11042415233D

 47 51  0  0  1  0  0  0  0  0999 V2000
  194.7520  168.4270  140.5930 C   0  0  0  0  0  3  0  0  0  0  0  0
  194.0930  172.4980  143.0570 C   0  0  1  0  0  3  0  0  0  0  0  0
  191.9200  173.4390  143.8800 C   0  0  0  0  0  0  0  0  0  0  0  0
  191.1160  173.1430  142.6230 C   0  0  2  0  0  3  0  0  0  0  0  0
  189.6110  173.4750  142.7070 C   0  0  2  0  0  3  0  0  0  0  0  0
  192.9570  170.5570  140.9340 C   0  0  0  0  0  0  0  0  0  0  0  0
  188.7550  175.7440  141.8760 C   0  0  2  0  0  3  0  0  0  0  0  0
  189.7190  176.7410  144.3520 O   0  0  0  0  0  0  0  0  0  0  0  0
  188.4480  174.9260  140.6220 C   0  0  0  0  0  2  0  0  0  0  0  0
  189.7020  175.4860  144.2050 C   0  0  0  0  0  0  0  0  0  0  0  0
  188.9290  173.0310  141.5510 O   0  0  0  0  0  0  0  0  0  0  0  0
  190.1170  174.5850  145.3300 C   0  0  1  0  0  3  0  0  0  0  0  0
  193.9750  170.9950  143.2480 C   0  0  0  0  0  2  0  0  0  0  0  0
  193.2380  173.1820  144.0240 N   0  0  0  0  0  0  0  0  0  0  0  0
  192.9290  169.7840  139.7680 C   0  0  0  0  0  3  0  0  0  0  0  0
  193.6430  173.5600  145.2270 N   0  0  0  0  0  0  0  0  0  0  0  0
  189.3610  174.9110  142.9320 N   0  0  0  0  0  0  0  0  0  0  0  0
  189.3090  173.8240  140.5580 O   0  0  0  0  0  0  0  0  0  0  0  0
  192.5990  174.1110  145.8790 C   0  0  0  0  0  3  0  0  0  0  0  0
  193.8180  168.7200  139.5990 C   0  0  0  0  0  3  0  0  0  0  0  0
  191.2810  171.7430  142.2510 N   0  0  0  0  0  2  0  0  0  0  0  0
  192.0270  171.7320  141.0020 C   0  0  0  0  0  2  0  0  0  0  0  0
  193.9170  170.2690  141.9380 C   0  0  0  0  0  0  0  0  0  0  0  0
  194.7970  169.1960  141.7570 C   0  0  0  0  0  3  0  0  0  0  0  0
  191.4920  174.0570  145.0470 C   0  0  0  0  0  0  0  0  0  0  0  0
  187.4900  176.3810  142.3560 C   0  0  0  0  0  0  0  0  0  0  0  0
  187.3400  177.8020  142.3010 N   0  0  0  0  0  2  0  0  0  0  0  0
  186.5690  175.6590  142.8220 O   0  0  0  0  0  0  0  0  0  0  0  0
  186.0860  178.4790  142.6080 C   0  0  2  0  0  3  0  0  0  0  0  0
  185.7360  180.0990  144.3690 O   0  0  0  0  0  1  0  0  0  0  0  0
  185.9690  178.7440  144.1160 C   0  0  1  0  0  3  0  0  0  0  0  0
  184.8890  177.8740  144.7780 C   0  0  2  0  0  3  0  0  0  0  0  0
  183.7280  178.4720  146.8110 O   0  0  0  0  0  1  0  0  0  0  0  0
  183.7700  178.6870  145.4320 C   0  0  0  0  0  2  0  0  0  0  0  0
  185.4890  176.8690  145.7580 C   0  0  0  0  0  2  0  0  0  0  0  0
  186.9870  177.8030  147.5230 C   0  0  0  0  0  1  0  0  0  0  0  0
  186.9200  177.2330  146.1200 C   0  0  0  0  0  2  0  0  0  0  0  0
  184.9200  177.6350  142.1000 C   0  0  0  0  0  2  0  0  0  0  0  0
  184.4390  178.1340  140.8860 O   0  0  0  0  0  1  0  0  0  0  0  0
  188.9560  174.5440  147.5440 C   0  0  0  0  0  1  0  0  0  0  0  0
  190.0040  175.2490  146.7020 C   0  0  0  0  0  2  0  0  0  0  0  0
  195.4780  172.9150  143.2040 N   0  0  0  0  0  2  0  0  0  0  0  0
  195.7560  173.8300  142.1120 C   0  0  0  0  0  2  0  0  0  0  0  0
  195.4920  175.2520  142.5660 C   0  0  0  0  0  2  0  0  0  0  0  0
  194.6430  175.9500  141.5640 C   0  0  0  0  0  0  0  0  0  0  0  0
  195.1110  176.9160  140.9070 O   0  0  0  0  0  0  0  0  0  0  0  0
  193.3430  175.5180  141.3290 O   0  0  0  0  0  1  0  0  0  0  0  0
  1 24  1  0  0  0  0
  2 42  1  1  0  0  0
  2 13  1  0  0  0  0
  2 14  1  0  0  0  0
  3 14  1  0  0  0  0
  3 25  2  0  0  0  0
  4 21  1  1  0  0  0
  4  5  1  0  0  0  0
  4  3  1  0  0  0  0
  5 11  1  6  0  0  0
  5 17  1  0  0  0  0
  6 22  1  0  0  0  0
  6 23  1  0  0  0  0
  7 26  1  1  0  0  0
  7 17  1  0  0  0  0
  9  7  1  0  0  0  0
 10  8  2  0  0  0  0
 10 12  1  0  0  0  0
 12 41  1  1  0  0  0
 14 16  1  0  0  0  0
 15  6  2  0  0  0  0
 16 19  2  0  0  0  0
 17 10  1  0  0  0  0
 18  9  1  0  0  0  0
 18 11  1  0  0  0  0
 20 15  1  0  0  0  0
 20  1  2  0  0  0  0
 22 21  1  0  0  0  0
 23 13  1  0  0  0  0
 24 23  2  0  0  0  0
 25 12  1  0  0  0  0
 25 19  1  0  0  0  0
 26 28  2  0  0  0  0
 27 26  1  0  0  0  0
 27 29  1  0  0  0  0
 29 38  1  1  0  0  0
 29 31  1  0  0  0  0
 31 30  1  6  0  0  0
 31 32  1  0  0  0  0
 32 34  1  1  0  0  0
 32 35  1  0  0  0  0
 34 33  1  0  0  0  0
 35 37  1  0  0  0  0
 37 36  1  0  0  0  0
 39 38  1  0  0  0  0
 41 40  1  0  0  0  0
 43 44  1  0  0  0  0
 43 42  1  0  0  0  0
 45 44  1  0  0  0  0
 46 45  2  0  0  0  0
 47 45  1  0  0  0  0
M  END
>  <MODEL>
8

>  <REMARK>
 VINA RESULT:      -6.3      2.289      9.663
  Name = 
  13 active torsions:
  status: ('A' for Active; 'I' for Inactive)
    1  A    between atoms: C_2  and  N_17
    2  A    between atoms: C_6  and  C_39
    3  A    between atoms: CA_12  and  C_31
    4  A    between atoms: CA_12  and  N_34
    5  A    between atoms: CA_12  and  C_35
    6  A    between atoms: C_14  and  C_22
    7  A    between atoms: C_15  and  C_29
    8  A    between atoms: C_16  and  C_27
    9  A    between atoms: N_17  and  C_26
   10  A    between atoms: C_23  and  C_40
   11  A    between atoms: C_26  and  C_39
   12  A    between atoms: C_27  and  C_31
   13  A    between atoms: C_27  and  C_40
                            x       y       z     vdW  Elec       q    Type
                         _______ _______ _______ _____ _____    ______ ____

>  <TORSDO>
F 13

$$$$
=
 OpenBabel11042415233D

 47 51  0  0  1  0  0  0  0  0999 V2000
  196.7670  169.4820  144.5910 C   0  0  0  0  0  3  0  0  0  0  0  0
  195.4400  174.0890  144.8900 C   0  0  1  0  0  3  0  0  0  0  0  0
  193.1270  174.9800  145.2760 C   0  0  0  0  0  0  0  0  0  0  0  0
  192.4130  174.0150  144.3410 C   0  0  2  0  0  3  0  0  0  0  0  0
  190.8730  174.1260  144.3290 C   0  0  2  0  0  3  0  0  0  0  0  0
  194.6650  171.2370  143.9770 C   0  0  0  0  0  0  0  0  0  0  0  0
  189.7120  175.5880  142.5720 C   0  0  2  0  0  3  0  0  0  0  0  0
  190.4460  177.7580  144.2460 O   0  0  0  0  0  0  0  0  0  0  0  0
  189.5660  174.2420  141.8620 C   0  0  0  0  0  2  0  0  0  0  0  0
  190.6200  176.5940  144.7050 C   0  0  0  0  0  0  0  0  0  0  0  0
  190.2980  173.0970  143.5470 O   0  0  0  0  0  0  0  0  0  0  0  0
  191.1340  176.3980  146.1010 C   0  0  1  0  0  3  0  0  0  0  0  0
  195.5420  172.8530  145.7670 C   0  0  0  0  0  2  0  0  0  0  0  0
  194.4650  175.0140  145.4620 N   0  0  0  0  0  0  0  0  0  0  0  0
  194.7860  170.0120  143.3110 C   0  0  0  0  0  3  0  0  0  0  0  0
  194.7750  175.9680  146.3280 N   0  0  0  0  0  0  0  0  0  0  0  0
  190.4050  175.4460  143.8670 N   0  0  0  0  0  0  0  0  0  0  0  0
  190.5830  173.3770  142.2830 O   0  0  0  0  0  0  0  0  0  0  0  0
  193.6430  176.6020  146.6940 C   0  0  0  0  0  3  0  0  0  0  0  0
  195.8290  169.1350  143.6190 C   0  0  0  0  0  3  0  0  0  0  0  0
  192.7960  172.6450  144.6610 N   0  0  0  0  0  2  0  0  0  0  0  0
  193.5690  172.1570  143.5300 C   0  0  0  0  0  2  0  0  0  0  0  0
  195.6290  171.5970  144.9530 C   0  0  0  0  0  0  0  0  0  0  0  0
  196.6640  170.7050  145.2560 C   0  0  0  0  0  3  0  0  0  0  0  0
  192.5800  176.0030  146.0350 C   0  0  0  0  0  0  0  0  0  0  0  0
  188.3520  176.1850  142.7560 C   0  0  0  0  0  0  0  0  0  0  0  0
  188.1450  177.5790  142.5120 N   0  0  0  0  0  2  0  0  0  0  0  0
  187.4010  175.4550  143.1410 O   0  0  0  0  0  0  0  0  0  0  0  0
  186.8250  178.1970  142.5220 C   0  0  2  0  0  3  0  0  0  0  0  0
  186.1800  179.9900  144.0110 O   0  0  0  0  0  1  0  0  0  0  0  0
  186.4370  178.6170  143.9470 C   0  0  1  0  0  3  0  0  0  0  0  0
  185.2420  177.8140  144.4860 C   0  0  2  0  0  3  0  0  0  0  0  0
  183.3100  179.0360  143.7000 O   0  0  0  0  0  1  0  0  0  0  0  0
  184.0350  178.6850  144.8410 C   0  0  0  0  0  2  0  0  0  0  0  0
  185.6390  176.9160  145.6540 C   0  0  0  0  0  2  0  0  0  0  0  0
  187.6440  176.0460  146.8610 C   0  0  0  0  0  1  0  0  0  0  0  0
  187.0370  177.2430  146.1560 C   0  0  0  0  0  2  0  0  0  0  0  0
  185.8070  177.2240  141.9330 C   0  0  0  0  0  2  0  0  0  0  0  0
  184.9210  177.8900  141.0830 O   0  0  0  0  0  1  0  0  0  0  0  0
  190.8410  177.1710  148.4600 C   0  0  0  0  0  1  0  0  0  0  0  0
  190.8850  177.6030  147.0060 C   0  0  0  0  0  2  0  0  0  0  0  0
  196.7420  174.7220  144.7610 N   0  0  0  0  0  2  0  0  0  0  0  0
  197.0240  174.8110  143.3400 C   0  0  0  0  0  2  0  0  0  0  0  0
  196.9960  176.2640  142.9100 C   0  0  0  0  0  2  0  0  0  0  0  0
  196.4610  176.3680  141.5260 C   0  0  0  0  0  0  0  0  0  0  0  0
  197.1820  176.0400  140.5470 O   0  0  0  0  0  0  0  0  0  0  0  0
  195.1570  176.7980  141.3130 O   0  0  0  0  0  1  0  0  0  0  0  0
  1 24  1  0  0  0  0
  2 42  1  1  0  0  0
  2 14  1  0  0  0  0
  2 13  1  0  0  0  0
  3 14  1  0  0  0  0
  3 25  2  0  0  0  0
  4 21  1  1  0  0  0
  4  3  1  0  0  0  0
  5 11  1  6  0  0  0
  5  4  1  0  0  0  0
  6 23  1  0  0  0  0
  7 26  1  1  0  0  0
  7 17  1  0  0  0  0
  8 10  2  0  0  0  0
  9 18  1  0  0  0  0
  9  7  1  0  0  0  0
 10 12  1  0  0  0  0
 12 41  1  1  0  0  0
 14 16  1  0  0  0  0
 15 20  1  0  0  0  0
 15  6  2  0  0  0  0
 16 19  2  0  0  0  0
 17  5  1  0  0  0  0
 17 10  1  0  0  0  0
 18 11  1  0  0  0  0
 20  1  2  0  0  0  0
 22  6  1  0  0  0  0
 22 21  1  0  0  0  0
 23 24  2  0  0  0  0
 23 13  1  0  0  0  0
 25 12  1  0  0  0  0
 25 19  1  0  0  0  0
 26 28  2  0  0  0  0
 27 29  1  0  0  0  0
 27 26  1  0  0  0  0
 29 38  1  1  0  0  0
 29 31  1  0  0  0  0
 31 30  1  6  0  0  0
 31 32  1  0  0  0  0
 32 34  1  1  0  0  0
 32 35  1  0  0  0  0
 33 34  1  0  0  0  0
 35 37  1  0  0  0  0
 37 36  1  0  0  0  0
 39 38  1  0  0  0  0
 41 40  1  0  0  0  0
 43 42  1  0  0  0  0
 44 43  1  0  0  0  0
 45 44  1  0  0  0  0
 46 45  2  0  0  0  0
 47 45  1  0  0  0  0
M  END
>  <MODEL>
9

>  <REMARK>
 VINA RESULT:      -6.2      2.149      9.735
  Name = 
  13 active torsions:
  status: ('A' for Active; 'I' for Inactive)
    1  A    between atoms: C_2  and  N_17
    2  A    between atoms: C_6  and  C_39
    3  A    between atoms: CA_12  and  C_31
    4  A    between atoms: CA_12  and  N_34
    5  A    between atoms: CA_12  and  C_35
    6  A    between atoms: C_14  and  C_22
    7  A    between atoms: C_15  and  C_29
    8  A    between atoms: C_16  and  C_27
    9  A    between atoms: N_17  and  C_26
   10  A    between atoms: C_23  and  C_40
   11  A    between atoms: C_26  and  C_39
   12  A    between atoms: C_27  and  C_31
   13  A    between atoms: C_27  and  C_40
                            x       y       z     vdW  Elec       q    Type
                         _______ _______ _______ _____ _____    ______ ____

>  <TORSDO>
F 13

$$$$
