=
 OpenBabel11042415113D

 27 29  0  0  1  0  0  0  0  0999 V2000
  188.0650  177.4000  143.9850 C   0  0  1  0  0  3  0  0  0  0  0  0
  187.5070  176.3400  140.7610 O   0  0  0  0  0  0  0  0  0  0  0  0
  186.9880  178.1140  144.6220 C   0  0  2  0  0  3  0  0  0  0  0  0
  187.7620  177.0860  145.4520 C   0  0  0  0  0  0  0  0  0  0  0  0
  185.5830  177.5780  144.3250 C   0  0  2  0  0  3  0  0  0  0  0  0
  185.7620  177.5130  141.8680 C   0  0  0  0  0  0  0  0  0  0  0  0
  187.6470  176.2090  143.1200 C   0  0  0  0  0  2  0  0  0  0  0  0
  186.9910  176.6760  141.8590 C   0  0  0  0  0  0  0  0  0  0  0  0
  185.1730  177.9090  142.9610 N   0  0  0  0  0  0  0  0  0  0  0  0
  187.9820  176.4240  146.5820 C   0  0  0  0  0  3  0  0  0  0  0  0
  185.1820  177.9510  140.5670 C   0  0  0  0  0  1  0  0  0  0  0  0
  184.4040  177.4760  146.5490 N   0  0  0  0  0  1  0  0  0  0  0  0
  184.5990  178.1310  145.3020 C   0  0  0  0  0  0  0  0  0  0  0  0
  183.9530  179.1790  145.0370 O   0  0  0  0  0  0  0  0  0  0  0  0
  188.8940  174.4130  147.4540 O   0  0  0  0  0  0  0  0  0  0  0  0
  189.0390  175.4150  146.7010 C   0  0  0  0  0  0  0  0  0  0  0  0
  190.2710  175.5880  145.9300 C   0  0  0  0  0  3  0  0  0  0  0  0
  191.1630  176.4550  146.2850 N   0  0  0  0  0  0  0  0  0  0  0  0
  192.3870  176.6230  145.5190 C   0  0  0  0  0  3  0  0  0  0  0  0
  196.9460  174.8070  144.5460 O   0  0  0  0  0  1  0  0  0  0  0  0
  195.9100  174.9360  143.8410 C   0  0  0  0  0  0  0  0  0  0  0  0
  194.8780  176.4090  145.5960 C   0  0  0  0  0  2  0  0  0  0  0  0
  194.7900  175.6840  144.3300 N   0  0  0  0  0  0  0  0  0  0  0  0
  193.5830  176.2350  146.3840 C   0  0  0  0  0  2  0  0  0  0  0  0
  193.6360  175.9200  143.4660 C   0  0  0  0  0  2  0  0  0  0  0  0
  195.8610  174.3400  142.5860 O   0  0  0  0  0  0  0  0  0  0  0  0
  192.3480  175.7490  144.2640 C   0  0  0  0  0  2  0  0  0  0  0  0
  1  7  1  6  0  0  0
  1  3  1  0  0  0  0
  1  4  1  0  0  0  0
  2  8  2  0  0  0  0
  3  4  1  1  0  0  0
  4 10  2  0  0  0  0
  5  3  1  0  0  0  0
  5 13  1  1  0  0  0
  6  9  2  0  0  0  0
  8  6  1  0  0  0  0
  8  7  1  0  0  0  0
  9  5  1  0  0  0  0
 10 16  1  0  0  0  0
 11  6  1  0  0  0  0
 13 12  1  0  0  0  0
 14 13  2  0  0  0  0
 16 15  2  0  0  0  0
 17 18  2  0  0  0  0
 17 16  1  0  0  0  0
 19 18  1  0  0  0  0
 19 24  1  0  0  0  0
 21 23  1  0  0  0  0
 21 20  1  0  0  0  0
 22 24  1  0  0  0  0
 23 22  1  0  0  0  0
 25 27  1  0  0  0  0
 25 23  1  0  0  0  0
 26 21  2  0  0  0  0
 27 19  1  0  0  0  0
M  END
>  <MODEL>
1

>  <REMARK>
 VINA RESULT:      -7.8      0.000      0.000
  Name = 
  4 active torsions:
  status: ('A' for Active; 'I' for Inactive)
    1  A    between atoms: C_4  and  C_11
    2  A    between atoms: C_5  and  N_27
    3  A    between atoms: C_14  and  C_20
    4  A    between atoms: C_14  and  C_24
                            x       y       z     vdW  Elec       q    Type
                         _______ _______ _______ _____ _____    ______ ____

>  <TORSDO>
F 4

$$$$
=
 OpenBabel11042415113D

 27 29  0  0  1  0  0  0  0  0999 V2000
  188.0830  177.2700  144.0300 C   0  0  1  0  0  3  0  0  0  0  0  0
  187.5080  176.2420  140.7980 O   0  0  0  0  0  0  0  0  0  0  0  0
  187.0440  178.0520  144.6490 C   0  0  2  0  0  3  0  0  0  0  0  0
  187.7380  176.9780  145.4920 C   0  0  0  0  0  0  0  0  0  0  0  0
  185.6120  177.6060  144.3300 C   0  0  2  0  0  3  0  0  0  0  0  0
  185.8250  177.5260  141.8760 C   0  0  0  0  0  0  0  0  0  0  0  0
  187.6040  176.1070  143.1590 C   0  0  0  0  0  2  0  0  0  0  0  0
  186.9990  176.6120  141.8880 C   0  0  0  0  0  0  0  0  0  0  0  0
  185.2460  177.9610  142.9600 N   0  0  0  0  0  0  0  0  0  0  0  0
  187.8970  176.3060  146.6250 C   0  0  0  0  0  3  0  0  0  0  0  0
  185.2940  177.9970  140.5670 C   0  0  0  0  0  1  0  0  0  0  0  0
  184.4190  177.6010  146.5500 N   0  0  0  0  0  1  0  0  0  0  0  0
  184.6500  178.2230  145.2920 C   0  0  0  0  0  0  0  0  0  0  0  0
  184.0560  179.2950  145.0040 O   0  0  0  0  0  0  0  0  0  0  0  0
  188.8190  174.4100  147.7170 O   0  0  0  0  0  0  0  0  0  0  0  0
  188.8860  175.2320  146.7620 C   0  0  0  0  0  0  0  0  0  0  0  0
  189.9570  175.1260  145.7690 C   0  0  0  0  0  3  0  0  0  0  0  0
  191.1920  175.0000  146.1330 N   0  0  0  0  0  0  0  0  0  0  0  0
  192.2530  174.8940  145.1460 C   0  0  0  0  0  3  0  0  0  0  0  0
  196.5240  176.8590  143.4310 O   0  0  0  0  0  0  0  0  0  0  0  0
  196.2470  175.7530  143.9670 C   0  0  0  0  0  0  0  0  0  0  0  0
  193.7930  176.2020  143.6700 C   0  0  0  0  0  2  0  0  0  0  0  0
  194.8820  175.3720  144.1810 N   0  0  0  0  0  0  0  0  0  0  0  0
  192.6800  176.2930  144.7100 C   0  0  0  0  0  2  0  0  0  0  0  0
  194.5670  174.0450  144.7020 C   0  0  0  0  0  2  0  0  0  0  0  0
  197.2790  174.9070  144.3560 O   0  0  0  0  0  1  0  0  0  0  0  0
  193.4500  174.1470  145.7360 C   0  0  0  0  0  2  0  0  0  0  0  0
  1  7  1  6  0  0  0
  1  3  1  0  0  0  0
  1  4  1  0  0  0  0
  2  8  2  0  0  0  0
  3  4  1  1  0  0  0
  4 10  2  0  0  0  0
  5  3  1  0  0  0  0
  5 13  1  1  0  0  0
  6  8  1  0  0  0  0
  6  9  2  0  0  0  0
  8  7  1  0  0  0  0
  9  5  1  0  0  0  0
 10 16  1  0  0  0  0
 11  6  1  0  0  0  0
 13 12  1  0  0  0  0
 14 13  2  0  0  0  0
 16 15  2  0  0  0  0
 17 18  2  0  0  0  0
 17 16  1  0  0  0  0
 19 27  1  0  0  0  0
 19 18  1  0  0  0  0
 20 21  2  0  0  0  0
 21 23  1  0  0  0  0
 21 26  1  0  0  0  0
 22 23  1  0  0  0  0
 22 24  1  0  0  0  0
 23 25  1  0  0  0  0
 24 19  1  0  0  0  0
 25 27  1  0  0  0  0
M  END
>  <MODEL>
2

>  <REMARK>
 VINA RESULT:      -7.8      0.859      1.192
  Name = 
  4 active torsions:
  status: ('A' for Active; 'I' for Inactive)
    1  A    between atoms: C_4  and  C_11
    2  A    between atoms: C_5  and  N_27
    3  A    between atoms: C_14  and  C_20
    4  A    between atoms: C_14  and  C_24
                            x       y       z     vdW  Elec       q    Type
                         _______ _______ _______ _____ _____    ______ ____

>  <TORSDO>
F 4

$$$$
=
 OpenBabel11042415113D

 27 29  0  0  1  0  0  0  0  0999 V2000
  188.1280  177.3760  144.1180 C   0  0  1  0  0  3  0  0  0  0  0  0
  187.4270  176.6390  140.8320 O   0  0  0  0  0  0  0  0  0  0  0  0
  187.0580  177.9560  144.8880 C   0  0  2  0  0  3  0  0  0  0  0  0
  187.9310  176.8900  145.5560 C   0  0  0  0  0  0  0  0  0  0  0  0
  185.6650  177.3770  144.6120 C   0  0  2  0  0  3  0  0  0  0  0  0
  185.6970  177.5860  142.1570 C   0  0  0  0  0  0  0  0  0  0  0  0
  187.7180  176.2640  143.1510 C   0  0  0  0  0  2  0  0  0  0  0  0
  186.9630  176.8260  141.9880 C   0  0  0  0  0  0  0  0  0  0  0  0
  185.1570  177.8290  143.3180 N   0  0  0  0  0  0  0  0  0  0  0  0
  188.2530  176.1250  146.5910 C   0  0  0  0  0  3  0  0  0  0  0  0
  185.0170  178.1270  140.9470 C   0  0  0  0  0  1  0  0  0  0  0  0
  183.9420  178.9510  145.5620 N   0  0  0  0  0  1  0  0  0  0  0  0
  184.7170  177.7660  145.6970 C   0  0  0  0  0  0  0  0  0  0  0  0
  184.5860  177.0460  146.7220 O   0  0  0  0  0  0  0  0  0  0  0  0
  190.1410  175.0280  147.5240 O   0  0  0  0  0  0  0  0  0  0  0  0
  189.3640  175.1700  146.5400 C   0  0  0  0  0  0  0  0  0  0  0  0
  189.5600  174.3780  145.3240 C   0  0  0  0  0  3  0  0  0  0  0  0
  190.5890  174.5700  144.5630 N   0  0  0  0  0  0  0  0  0  0  0  0
  190.7820  173.7820  143.3570 C   0  0  0  0  0  3  0  0  0  0  0  0
  188.7050  172.1260  139.1170 O   0  0  0  0  0  1  0  0  0  0  0  0
  189.6700  172.9030  139.3490 C   0  0  0  0  0  0  0  0  0  0  0  0
  189.6740  172.2050  141.7630 C   0  0  0  0  0  2  0  0  0  0  0  0
  190.1810  173.0460  140.6800 N   0  0  0  0  0  0  0  0  0  0  0  0
  189.4900  173.0410  143.0260 C   0  0  0  0  0  2  0  0  0  0  0  0
  191.3670  173.8630  140.9240 C   0  0  0  0  0  2  0  0  0  0  0  0
  190.2310  173.6260  138.3020 O   0  0  0  0  0  0  0  0  0  0  0  0
  191.1740  174.6910  142.1910 C   0  0  0  0  0  2  0  0  0  0  0  0
  1  7  1  6  0  0  0
  1  3  1  0  0  0  0
  1  4  1  0  0  0  0
  2  8  2  0  0  0  0
  3  4  1  1  0  0  0
  4 10  2  0  0  0  0
  5  3  1  0  0  0  0
  5 13  1  1  0  0  0
  6  9  2  0  0  0  0
  8  6  1  0  0  0  0
  8  7  1  0  0  0  0
  9  5  1  0  0  0  0
 11  6  1  0  0  0  0
 12 13  1  0  0  0  0
 13 14  2  0  0  0  0
 16 10  1  0  0  0  0
 16 15  2  0  0  0  0
 17 16  1  0  0  0  0
 18 17  2  0  0  0  0
 19 18  1  0  0  0  0
 20 21  1  0  0  0  0
 21 23  1  0  0  0  0
 22 24  1  0  0  0  0
 23 25  1  0  0  0  0
 23 22  1  0  0  0  0
 24 19  1  0  0  0  0
 25 27  1  0  0  0  0
 26 21  2  0  0  0  0
 27 19  1  0  0  0  0
M  END
>  <MODEL>
3

>  <REMARK>
 VINA RESULT:      -7.5      3.033      3.941
  Name = 
  4 active torsions:
  status: ('A' for Active; 'I' for Inactive)
    1  A    between atoms: C_4  and  C_11
    2  A    between atoms: C_5  and  N_27
    3  A    between atoms: C_14  and  C_20
    4  A    between atoms: C_14  and  C_24
                            x       y       z     vdW  Elec       q    Type
                         _______ _______ _______ _____ _____    ______ ____

>  <TORSDO>
F 4

$$$$
=
 OpenBabel11042415113D

 27 29  0  0  1  0  0  0  0  0999 V2000
  186.4060  178.7910  143.6750 C   0  0  1  0  0  3  0  0  0  0  0  0
  188.5020  176.8330  141.7770 O   0  0  0  0  0  0  0  0  0  0  0  0
  185.1330  179.1230  143.0890 C   0  0  2  0  0  3  0  0  0  0  0  0
  185.1680  178.7530  144.5740 C   0  0  0  0  0  0  0  0  0  0  0  0
  184.4630  177.9940  142.2970 C   0  0  2  0  0  3  0  0  0  0  0  0
  186.3820  177.4040  140.8680 C   0  0  0  0  0  0  0  0  0  0  0  0
  186.8930  177.3610  143.4300 C   0  0  0  0  0  2  0  0  0  0  0  0
  187.3150  177.1840  142.0060 C   0  0  0  0  0  0  0  0  0  0  0  0
  185.1420  177.7750  141.0210 N   0  0  0  0  0  0  0  0  0  0  0  0
  184.5700  178.5470  145.7410 C   0  0  0  0  0  3  0  0  0  0  0  0
  186.8880  177.2220  139.4790 C   0  0  0  0  0  1  0  0  0  0  0  0
  182.3000  179.0600  143.0280 N   0  0  0  0  0  1  0  0  0  0  0  0
  183.0230  178.3080  142.0610 C   0  0  0  0  0  0  0  0  0  0  0  0
  182.4480  177.9270  141.0080 O   0  0  0  0  0  0  0  0  0  0  0  0
  184.9330  178.4870  148.0870 O   0  0  0  0  0  0  0  0  0  0  0  0
  185.3130  178.1360  146.9370 C   0  0  0  0  0  0  0  0  0  0  0  0
  186.5090  177.3060  146.7750 C   0  0  0  0  0  3  0  0  0  0  0  0
  187.6870  177.7810  147.0210 N   0  0  0  0  0  0  0  0  0  0  0  0
  188.8720  176.9550  146.8610 C   0  0  0  0  0  3  0  0  0  0  0  0
  190.9200  173.0730  144.4580 O   0  0  0  0  0  1  0  0  0  0  0  0
  191.1850  174.3050  144.4730 C   0  0  0  0  0  0  0  0  0  0  0  0
  189.6840  174.6230  146.4630 C   0  0  0  0  0  2  0  0  0  0  0  0
  190.5510  175.1720  145.4220 N   0  0  0  0  0  0  0  0  0  0  0  0
  188.4520  175.5060  146.6300 C   0  0  0  0  0  2  0  0  0  0  0  0
  190.9430  176.5760  145.5050 C   0  0  0  0  0  2  0  0  0  0  0  0
  192.0950  174.8180  143.5550 O   0  0  0  0  0  0  0  0  0  0  0  0
  189.7040  177.4500  145.6760 C   0  0  0  0  0  2  0  0  0  0  0  0
  1  7  1  6  0  0  0
  1  4  1  0  0  0  0
  2  8  2  0  0  0  0
  3  1  1  0  0  0  0
  3  4  1  1  0  0  0
  4 10  2  0  0  0  0
  5 13  1  6  0  0  0
  5  3  1  0  0  0  0
  6  9  2  0  0  0  0
  6  8  1  0  0  0  0
  8  7  1  0  0  0  0
  9  5  1  0  0  0  0
 10 16  1  0  0  0  0
 11  6  1  0  0  0  0
 13 12  1  0  0  0  0
 14 13  2  0  0  0  0
 16 15  2  0  0  0  0
 17 16  1  0  0  0  0
 17 18  2  0  0  0  0
 19 18  1  0  0  0  0
 20 21  1  0  0  0  0
 21 23  1  0  0  0  0
 22 24  1  0  0  0  0
 23 25  1  0  0  0  0
 23 22  1  0  0  0  0
 24 19  1  0  0  0  0
 25 27  1  0  0  0  0
 26 21  2  0  0  0  0
 27 19  1  0  0  0  0
M  END
>  <MODEL>
4

>  <REMARK>
 VINA RESULT:      -7.4      2.608      3.802
  Name = 
  4 active torsions:
  status: ('A' for Active; 'I' for Inactive)
    1  A    between atoms: C_4  and  C_11
    2  A    between atoms: C_5  and  N_27
    3  A    between atoms: C_14  and  C_20
    4  A    between atoms: C_14  and  C_24
                            x       y       z     vdW  Elec       q    Type
                         _______ _______ _______ _____ _____    ______ ____

>  <TORSDO>
F 4

$$$$
=
 OpenBabel11042415113D

 27 29  0  0  1  0  0  0  0  0999 V2000
  191.5450  173.9360  144.5270 C   0  0  1  0  0  3  0  0  0  0  0  0
  191.3340  174.3650  141.1210 O   0  0  0  0  0  0  0  0  0  0  0  0
  192.7940  174.3010  145.1440 C   0  0  2  0  0  3  0  0  0  0  0  0
  191.4970  174.6790  145.8650 C   0  0  0  0  0  0  0  0  0  0  0  0
  193.4550  175.5660  144.5840 C   0  0  2  0  0  3  0  0  0  0  0  0
  193.3670  174.9600  142.1970 C   0  0  0  0  0  0  0  0  0  0  0  0
  191.0590  174.8700  143.4170 C   0  0  0  0  0  2  0  0  0  0  0  0
  191.9000  174.7140  142.1900 C   0  0  0  0  0  0  0  0  0  0  0  0
  194.0280  175.3160  143.2620 N   0  0  0  0  0  0  0  0  0  0  0  0
  190.8440  175.2380  146.8750 C   0  0  0  0  0  3  0  0  0  0  0  0
  194.1340  174.7660  140.9350 C   0  0  0  0  0  1  0  0  0  0  0  0
  195.4050  175.1220  146.1170 N   0  0  0  0  0  1  0  0  0  0  0  0
  194.5150  176.0540  145.5150 C   0  0  0  0  0  0  0  0  0  0  0  0
  194.6360  177.2840  145.7600 O   0  0  0  0  0  0  0  0  0  0  0  0
  188.7580  174.5110  147.7470 O   0  0  0  0  0  0  0  0  0  0  0  0
  189.3790  175.2570  146.9410 C   0  0  0  0  0  0  0  0  0  0  0  0
  188.6430  176.1600  146.0540 C   0  0  0  0  0  3  0  0  0  0  0  0
  187.5820  176.7770  146.4620 N   0  0  0  0  0  0  0  0  0  0  0  0
  186.8540  177.6740  145.5800 C   0  0  0  0  0  3  0  0  0  0  0  0
  185.0530  178.3820  140.9660 O   0  0  0  0  0  0  0  0  0  0  0  0
  184.4970  178.2490  142.0890 C   0  0  0  0  0  0  0  0  0  0  0  0
  186.7100  178.5470  143.2410 C   0  0  0  0  0  2  0  0  0  0  0  0
  185.2780  178.2590  143.2900 N   0  0  0  0  0  0  0  0  0  0  0  0
  187.4600  177.6090  144.1810 C   0  0  0  0  0  2  0  0  0  0  0  0
  184.6170  178.2130  144.5920 C   0  0  0  0  0  2  0  0  0  0  0  0
  183.1180  178.0840  142.1510 O   0  0  0  0  0  1  0  0  0  0  0  0
  185.3780  177.2760  145.5260 C   0  0  0  0  0  2  0  0  0  0  0  0
  1  7  1  6  0  0  0
  1  3  1  0  0  0  0
  1  4  1  0  0  0  0
  2  8  2  0  0  0  0
  3  4  1  1  0  0  0
  4 10  2  0  0  0  0
  5  3  1  0  0  0  0
  5 13  1  1  0  0  0
  6  9  2  0  0  0  0
  8  6  1  0  0  0  0
  8  7  1  0  0  0  0
  9  5  1  0  0  0  0
 10 16  1  0  0  0  0
 11  6  1  0  0  0  0
 13 14  2  0  0  0  0
 13 12  1  0  0  0  0
 16 15  2  0  0  0  0
 17 18  2  0  0  0  0
 17 16  1  0  0  0  0
 19 18  1  0  0  0  0
 20 21  2  0  0  0  0
 21 26  1  0  0  0  0
 21 23  1  0  0  0  0
 22 23  1  0  0  0  0
 22 24  1  0  0  0  0
 23 25  1  0  0  0  0
 24 19  1  0  0  0  0
 25 27  1  0  0  0  0
 27 19  1  0  0  0  0
M  END
>  <MODEL>
5

>  <REMARK>
 VINA RESULT:      -7.1      2.050      7.963
  Name = 
  4 active torsions:
  status: ('A' for Active; 'I' for Inactive)
    1  A    between atoms: C_4  and  C_11
    2  A    between atoms: C_5  and  N_27
    3  A    between atoms: C_14  and  C_20
    4  A    between atoms: C_14  and  C_24
                            x       y       z     vdW  Elec       q    Type
                         _______ _______ _______ _____ _____    ______ ____

>  <TORSDO>
F 4

$$$$
=
 OpenBabel11042415113D

 27 29  0  0  1  0  0  0  0  0999 V2000
  192.2830  174.1930  145.0700 C   0  0  1  0  0  3  0  0  0  0  0  0
  190.5620  173.8500  142.1110 O   0  0  0  0  0  0  0  0  0  0  0  0
  193.7070  174.3840  144.9660 C   0  0  2  0  0  3  0  0  0  0  0  0
  192.9420  175.2170  145.9970 C   0  0  0  0  0  0  0  0  0  0  0  0
  194.1630  175.2890  143.8150 C   0  0  2  0  0  3  0  0  0  0  0  0
  192.9130  174.1800  142.0030 C   0  0  0  0  0  0  0  0  0  0  0  0
  191.4400  174.9290  144.0260 C   0  0  0  0  0  2  0  0  0  0  0  0
  191.5940  174.2950  142.6800 C   0  0  0  0  0  0  0  0  0  0  0  0
  194.0270  174.6080  142.5280 N   0  0  0  0  0  0  0  0  0  0  0  0
  192.8950  176.1370  146.9530 C   0  0  0  0  0  3  0  0  0  0  0  0
  192.9810  173.5190  140.6700 C   0  0  0  0  0  1  0  0  0  0  0  0
  196.4450  174.9170  144.8170 N   0  0  0  0  0  1  0  0  0  0  0  0
  195.5790  175.7150  144.0190 C   0  0  0  0  0  0  0  0  0  0  0  0
  196.0170  176.7640  143.4780 O   0  0  0  0  0  0  0  0  0  0  0  0
  191.5670  176.6100  148.8640 O   0  0  0  0  0  0  0  0  0  0  0  0
  191.6400  176.5190  147.6080 C   0  0  0  0  0  0  0  0  0  0  0  0
  190.4660  176.7950  146.7780 C   0  0  0  0  0  3  0  0  0  0  0  0
  189.4080  176.0530  146.8510 N   0  0  0  0  0  0  0  0  0  0  0  0
  188.2440  176.3300  146.0280 C   0  0  0  0  0  3  0  0  0  0  0  0
  184.0670  179.0420  145.5420 O   0  0  0  0  0  1  0  0  0  0  0  0
  185.1330  178.9880  144.8730 C   0  0  0  0  0  0  0  0  0  0  0  0
  185.8060  176.8900  146.0800 C   0  0  0  0  0  2  0  0  0  0  0  0
  186.0980  177.9600  145.1280 N   0  0  0  0  0  0  0  0  0  0  0  0
  187.0410  176.5990  146.9280 C   0  0  0  0  0  2  0  0  0  0  0  0
  187.2790  177.8380  144.2780 C   0  0  0  0  0  2  0  0  0  0  0  0
  185.3680  179.9410  143.8880 O   0  0  0  0  0  0  0  0  0  0  0  0
  188.5060  177.5430  145.1340 C   0  0  0  0  0  2  0  0  0  0  0  0
  1  7  1  6  0  0  0
  1  4  1  0  0  0  0
  2  8  2  0  0  0  0
  3  1  1  0  0  0  0
  3  4  1  1  0  0  0
  4 10  2  0  0  0  0
  5 13  1  1  0  0  0
  5  3  1  0  0  0  0
  6  9  2  0  0  0  0
  6  8  1  0  0  0  0
  8  7  1  0  0  0  0
  9  5  1  0  0  0  0
 10 16  1  0  0  0  0
 11  6  1  0  0  0  0
 13 12  1  0  0  0  0
 14 13  2  0  0  0  0
 16 15  2  0  0  0  0
 17 18  2  0  0  0  0
 17 16  1  0  0  0  0
 19 18  1  0  0  0  0
 19 24  1  0  0  0  0
 21 23  1  0  0  0  0
 21 20  1  0  0  0  0
 22 24  1  0  0  0  0
 23 22  1  0  0  0  0
 25 23  1  0  0  0  0
 25 27  1  0  0  0  0
 26 21  2  0  0  0  0
 27 19  1  0  0  0  0
M  END
>  <MODEL>
6

>  <REMARK>
 VINA RESULT:      -6.8      2.107      8.008
  Name = 
  4 active torsions:
  status: ('A' for Active; 'I' for Inactive)
    1  A    between atoms: C_4  and  C_11
    2  A    between atoms: C_5  and  N_27
    3  A    between atoms: C_14  and  C_20
    4  A    between atoms: C_14  and  C_24
                            x       y       z     vdW  Elec       q    Type
                         _______ _______ _______ _____ _____    ______ ____

>  <TORSDO>
F 4

$$$$
=
 OpenBabel11042415113D

 27 29  0  0  1  0  0  0  0  0999 V2000
  186.2360  176.6010  144.7220 C   0  0  1  0  0  3  0  0  0  0  0  0
  184.0390  178.9960  145.8490 O   0  0  0  0  0  0  0  0  0  0  0  0
  186.2500  176.3610  143.3020 C   0  0  2  0  0  3  0  0  0  0  0  0
  187.5910  176.4000  144.0400 C   0  0  0  0  0  0  0  0  0  0  0  0
  186.1120  177.6110  142.4250 C   0  0  2  0  0  3  0  0  0  0  0  0
  184.1170  178.5630  143.5140 C   0  0  0  0  0  0  0  0  0  0  0  0
  186.0970  178.0660  145.1420 C   0  0  0  0  0  2  0  0  0  0  0  0
  184.7120  178.5630  144.8760 C   0  0  0  0  0  0  0  0  0  0  0  0
  184.7440  178.1250  142.4590 N   0  0  0  0  0  0  0  0  0  0  0  0
  188.9160  176.3280  144.0590 C   0  0  0  0  0  3  0  0  0  0  0  0
  182.7230  179.0600  143.3380 C   0  0  0  0  0  1  0  0  0  0  0  0
  185.6300  177.6410  139.9520 N   0  0  0  0  0  1  0  0  0  0  0  0
  186.5090  177.3060  141.0190 C   0  0  0  0  0  0  0  0  0  0  0  0
  187.6210  176.7690  140.7690 O   0  0  0  0  0  0  0  0  0  0  0  0
  189.1090  176.6570  146.4030 O   0  0  0  0  0  0  0  0  0  0  0  0
  189.6890  176.4940  145.2940 C   0  0  0  0  0  0  0  0  0  0  0  0
  191.1510  176.4680  145.2220 C   0  0  0  0  0  3  0  0  0  0  0  0
  191.8620  176.1200  146.2450 N   0  0  0  0  0  0  0  0  0  0  0  0
  193.3130  176.0930  146.1710 C   0  0  0  0  0  3  0  0  0  0  0  0
  197.3060  174.1260  143.8860 O   0  0  0  0  0  1  0  0  0  0  0  0
  196.8440  175.2970  143.9410 C   0  0  0  0  0  0  0  0  0  0  0  0
  195.3010  174.6200  145.8050 C   0  0  0  0  0  2  0  0  0  0  0  0
  195.7810  175.6150  144.8480 N   0  0  0  0  0  0  0  0  0  0  0  0
  193.7790  174.6680  145.8840 C   0  0  0  0  0  2  0  0  0  0  0  0
  195.3250  176.9950  144.9840 C   0  0  0  0  0  2  0  0  0  0  0  0
  197.3720  176.2780  143.1090 O   0  0  0  0  0  0  0  0  0  0  0  0
  193.8020  177.0320  145.0670 C   0  0  0  0  0  2  0  0  0  0  0  0
  1  7  1  6  0  0  0
  3  4  1  6  0  0  0
  3  1  1  0  0  0  0
  4 10  2  0  0  0  0
  4  1  1  0  0  0  0
  5 13  1  6  0  0  0
  5  9  1  0  0  0  0
  5  3  1  0  0  0  0
  6  8  1  0  0  0  0
  8  7  1  0  0  0  0
  8  2  2  0  0  0  0
  9  6  2  0  0  0  0
 10 16  1  0  0  0  0
 11  6  1  0  0  0  0
 12 13  1  0  0  0  0
 14 13  2  0  0  0  0
 16 15  2  0  0  0  0
 17 16  1  0  0  0  0
 17 18  2  0  0  0  0
 19 18  1  0  0  0  0
 20 21  1  0  0  0  0
 21 23  1  0  0  0  0
 22 24  1  0  0  0  0
 23 25  1  0  0  0  0
 23 22  1  0  0  0  0
 24 19  1  0  0  0  0
 25 27  1  0  0  0  0
 26 21  2  0  0  0  0
 27 19  1  0  0  0  0
M  END
>  <MODEL>
7

>  <REMARK>
 VINA RESULT:      -6.8      1.527      3.126
  Name = 
  4 active torsions:
  status: ('A' for Active; 'I' for Inactive)
    1  A    between atoms: C_4  and  C_11
    2  A    between atoms: C_5  and  N_27
    3  A    between atoms: C_14  and  C_20
    4  A    between atoms: C_14  and  C_24
                            x       y       z     vdW  Elec       q    Type
                         _______ _______ _______ _____ _____    ______ ____

>  <TORSDO>
F 4

$$$$
=
 OpenBabel11042415113D

 27 29  0  0  1  0  0  0  0  0999 V2000
  195.0350  174.7550  145.9570 C   0  0  1  0  0  3  0  0  0  0  0  0
  195.9540  171.4530  145.6610 O   0  0  0  0  0  0  0  0  0  0  0  0
  195.5540  175.6570  144.9610 C   0  0  2  0  0  3  0  0  0  0  0  0
  194.0950  175.8240  145.3950 C   0  0  0  0  0  0  0  0  0  0  0  0
  195.6010  175.0980  143.5340 C   0  0  2  0  0  3  0  0  0  0  0  0
  196.7680  172.9870  144.0400 C   0  0  0  0  0  0  0  0  0  0  0  0
  194.5990  173.3810  145.4410 C   0  0  0  0  0  2  0  0  0  0  0  0
  195.7890  172.5530  145.0720 C   0  0  0  0  0  0  0  0  0  0  0  0
  196.6730  174.1140  143.3920 N   0  0  0  0  0  0  0  0  0  0  0  0
  192.9170  176.4310  145.3220 C   0  0  0  0  0  3  0  0  0  0  0  0
  197.9360  172.1100  143.7440 C   0  0  0  0  0  1  0  0  0  0  0  0
  194.8850  176.3370  141.4600 N   0  0  0  0  0  1  0  0  0  0  0  0
  195.7900  176.2040  142.5490 C   0  0  0  0  0  0  0  0  0  0  0  0
  196.7330  177.0270  142.6840 O   0  0  0  0  0  0  0  0  0  0  0  0
  191.9360  175.5720  147.3070 O   0  0  0  0  0  0  0  0  0  0  0  0
  191.7720  176.0110  146.1350 C   0  0  0  0  0  0  0  0  0  0  0  0
  190.4260  176.1100  145.5660 C   0  0  0  0  0  3  0  0  0  0  0  0
  189.4150  176.4440  146.3000 N   0  0  0  0  0  0  0  0  0  0  0  0
  188.0810  176.5420  145.7330 C   0  0  0  0  0  3  0  0  0  0  0  0
  183.6200  178.7930  146.0080 O   0  0  0  0  0  1  0  0  0  0  0  0
  184.5230  178.7900  145.1290 C   0  0  0  0  0  0  0  0  0  0  0  0
  185.6610  176.8660  146.2770 C   0  0  0  0  0  2  0  0  0  0  0  0
  185.6270  177.8830  145.2270 N   0  0  0  0  0  0  0  0  0  0  0  0
  187.0690  176.7630  146.8540 C   0  0  0  0  0  2  0  0  0  0  0  0
  186.6110  177.8100  144.1510 C   0  0  0  0  0  2  0  0  0  0  0  0
  184.4410  179.6810  144.0650 O   0  0  0  0  0  0  0  0  0  0  0  0
  188.0150  177.7020  144.7380 C   0  0  0  0  0  2  0  0  0  0  0  0
  1  7  1  6  0  0  0
  3  4  1  6  0  0  0
  3  1  1  0  0  0  0
  4  1  1  0  0  0  0
  5 13  1  6  0  0  0
  5  3  1  0  0  0  0
  6  8  1  0  0  0  0
  8  7  1  0  0  0  0
  8  2  2  0  0  0  0
  9  5  1  0  0  0  0
  9  6  2  0  0  0  0
 10  4  2  0  0  0  0
 10 16  1  0  0  0  0
 11  6  1  0  0  0  0
 12 13  1  0  0  0  0
 13 14  2  0  0  0  0
 16 15  2  0  0  0  0
 17 16  1  0  0  0  0
 17 18  2  0  0  0  0
 19 18  1  0  0  0  0
 19 24  1  0  0  0  0
 21 23  1  0  0  0  0
 21 20  1  0  0  0  0
 22 24  1  0  0  0  0
 23 22  1  0  0  0  0
 25 27  1  0  0  0  0
 25 23  1  0  0  0  0
 26 21  2  0  0  0  0
 27 19  1  0  0  0  0
M  END
>  <MODEL>
8

>  <REMARK>
 VINA RESULT:      -6.8      2.170      9.398
  Name = 
  4 active torsions:
  status: ('A' for Active; 'I' for Inactive)
    1  A    between atoms: C_4  and  C_11
    2  A    between atoms: C_5  and  N_27
    3  A    between atoms: C_14  and  C_20
    4  A    between atoms: C_14  and  C_24
                            x       y       z     vdW  Elec       q    Type
                         _______ _______ _______ _____ _____    ______ ____

>  <TORSDO>
F 4

$$$$
=
 OpenBabel11042415113D

 27 29  0  0  1  0  0  0  0  0999 V2000
  187.3400  178.4360  143.0330 C   0  0  1  0  0  3  0  0  0  0  0  0
  185.6700  177.5740  140.1520 O   0  0  0  0  0  0  0  0  0  0  0  0
  186.5290  178.6650  144.2010 C   0  0  2  0  0  3  0  0  0  0  0  0
  187.8380  177.8920  144.3740 C   0  0  0  0  0  0  0  0  0  0  0  0
  185.3430  177.7080  144.3720 C   0  0  2  0  0  3  0  0  0  0  0  0
  184.3860  177.9540  142.1150 C   0  0  0  0  0  0  0  0  0  0  0  0
  186.9050  177.2660  142.1470 C   0  0  0  0  0  2  0  0  0  0  0  0
  185.6470  177.6000  141.4110 C   0  0  0  0  0  0  0  0  0  0  0  0
  184.2820  178.0120  143.4130 N   0  0  0  0  0  0  0  0  0  0  0  0
  188.7180  177.2390  145.1230 C   0  0  0  0  0  3  0  0  0  0  0  0
  183.1810  178.2910  141.3050 C   0  0  0  0  0  1  0  0  0  0  0  0
  185.2020  176.8120  146.7230 N   0  0  0  0  0  1  0  0  0  0  0  0
  184.8090  177.7870  145.7650 C   0  0  0  0  0  0  0  0  0  0  0  0
  184.0290  178.7160  146.1000 O   0  0  0  0  0  0  0  0  0  0  0  0
  191.0770  177.0560  144.9200 O   0  0  0  0  0  0  0  0  0  0  0  0
  189.9380  176.6510  144.5590 C   0  0  0  0  0  0  0  0  0  0  0  0
  189.8140  175.5820  143.5670 C   0  0  0  0  0  3  0  0  0  0  0  0
  190.7780  175.3230  142.7430 N   0  0  0  0  0  0  0  0  0  0  0  0
  190.6530  174.2600  141.7600 C   0  0  0  0  0  3  0  0  0  0  0  0
  192.6770  170.0740  139.9100 O   0  0  0  0  0  0  0  0  0  0  0  0
  191.5950  170.3060  140.5140 C   0  0  0  0  0  0  0  0  0  0  0  0
  191.9280  172.7770  140.2000 C   0  0  0  0  0  2  0  0  0  0  0  0
  191.1740  171.6540  140.7560 N   0  0  0  0  0  0  0  0  0  0  0  0
  192.0390  173.8910  141.2370 C   0  0  0  0  0  2  0  0  0  0  0  0
  189.8710  171.9150  141.3590 C   0  0  0  0  0  2  0  0  0  0  0  0
  190.8170  169.2400  140.9500 O   0  0  0  0  0  1  0  0  0  0  0  0
  189.9920  173.0330  142.3900 C   0  0  0  0  0  2  0  0  0  0  0  0
  1  7  1  6  0  0  0
  1  3  1  0  0  0  0
  1  4  1  0  0  0  0
  2  8  2  0  0  0  0
  3  5  1  0  0  0  0
  3  4  1  1  0  0  0
  4 10  2  0  0  0  0
  5 13  1  1  0  0  0
  6  9  2  0  0  0  0
  8  6  1  0  0  0  0
  8  7  1  0  0  0  0
  9  5  1  0  0  0  0
 11  6  1  0  0  0  0
 13 14  2  0  0  0  0
 13 12  1  0  0  0  0
 16 15  2  0  0  0  0
 16 10  1  0  0  0  0
 17 16  1  0  0  0  0
 18 17  2  0  0  0  0
 19 27  1  0  0  0  0
 19 18  1  0  0  0  0
 20 21  2  0  0  0  0
 21 23  1  0  0  0  0
 21 26  1  0  0  0  0
 22 23  1  0  0  0  0
 22 24  1  0  0  0  0
 23 25  1  0  0  0  0
 24 19  1  0  0  0  0
 25 27  1  0  0  0  0
M  END
>  <MODEL>
9

>  <REMARK>
 VINA RESULT:      -6.7      3.480      4.052
  Name = 
  4 active torsions:
  status: ('A' for Active; 'I' for Inactive)
    1  A    between atoms: C_4  and  C_11
    2  A    between atoms: C_5  and  N_27
    3  A    between atoms: C_14  and  C_20
    4  A    between atoms: C_14  and  C_24
                            x       y       z     vdW  Elec       q    Type
                         _______ _______ _______ _____ _____    ______ ____

>  <TORSDO>
F 4

$$$$
