=
 OpenBabel11042419343D

 32 34  0  0  1  0  0  0  0  0999 V2000
  189.6310  177.1980  144.8780 C   0  0  0  0  0  0  0  0  0  0  0  0
  191.7450  175.2980  147.3900 C   0  0  0  0  0  1  0  0  0  0  0  0
  190.7180  176.6130  145.4750 C   0  0  0  0  0  0  0  0  0  0  0  0
  188.2180  176.5130  146.6970 C   0  0  0  0  0  0  0  0  0  0  0  0
  186.8900  176.4790  147.3610 C   0  0  0  0  0  1  0  0  0  0  0  0
  190.0350  177.8780  143.6190 C   0  0  1  0  0  3  0  0  0  0  0  0
  191.8990  176.8190  144.7120 N   0  0  0  0  0  0  0  0  0  0  0  0
  189.3230  175.8960  147.3090 C   0  0  0  0  0  3  0  0  0  0  0  0
  190.5900  175.9400  146.7030 C   0  0  0  0  0  0  0  0  0  0  0  0
  188.3690  177.1760  145.4710 C   0  0  0  0  0  3  0  0  0  0  0  0
  191.5410  177.5710  143.5070 C   0  0  0  0  0  2  0  0  0  0  0  0
  189.2370  176.0970  142.1770 C   0  0  0  0  0  2  0  0  0  0  0  0
  189.2680  177.4010  142.4120 C   0  0  0  0  0  0  0  0  0  0  0  0
  186.2050  177.7730  140.6790 C   0  0  0  0  0  0  0  0  0  0  0  0
  184.2160  178.3750  141.9130 C   0  0  0  0  0  0  0  0  0  0  0  0
  186.3830  178.8460  142.8060 N   0  0  0  0  0  0  0  0  0  0  0  0
  182.7320  178.4050  142.0140 C   0  0  0  0  0  1  0  0  0  0  0  0
  185.0250  178.9070  142.9270 C   0  0  0  0  0  0  0  0  0  0  0  0
  186.7990  177.2130  139.5550 O   0  0  0  0  0  1  0  0  0  0  0  0
  184.8140  177.8130  140.7850 C   0  0  0  0  0  3  0  0  0  0  0  0
  188.4110  178.2530  141.6340 N   0  0  0  0  0  2  0  0  0  0  0  0
  186.9860  178.2870  141.7220 C   0  0  0  0  0  0  0  0  0  0  0  0
  184.4340  179.5030  144.0460 O   0  0  0  0  0  0  0  0  0  0  0  0
  184.2840  178.8370  145.2320 C   0  0  0  0  0  0  0  0  0  0  0  0
  184.1550  178.2590  146.2830 C   0  0  0  0  0  3  0  0  0  0  0  0
  193.0620  175.9440  144.7610 C   0  0  0  0  0  2  0  0  0  0  0  0
  194.5180  176.8460  145.3680 S   0  0  0  0  0  0  0  0  0  0  0  0
  195.6250  175.4940  144.8710 C   0  0  0  0  0  2  0  0  0  0  0  0
  195.7240  175.4220  143.3570 C   0  0  0  0  0  2  0  0  0  0  0  0
  196.1870  176.6920  142.8190 N   0  0  0  0  0  0  0  0  0  0  0  0
  197.4900  176.8190  143.1720 O   0  0  0  0  0  1  0  0  0  0  0  0
  196.1560  176.5710  141.3730 C   0  0  0  0  0  1  0  0  0  0  0  0
  1 10  2  0  0  0  0
  1  3  1  0  0  0  0
  3  9  2  0  0  0  0
  4  8  2  0  0  0  0
  4  5  1  0  0  0  0
  6 13  1  6  0  0  0
  6  1  1  0  0  0  0
  7 26  1  0  0  0  0
  7  3  1  0  0  0  0
  9  8  1  0  0  0  0
  9  2  1  0  0  0  0
 10  4  1  0  0  0  0
 11  6  1  0  0  0  0
 11  7  1  0  0  0  0
 12 13  2  0  0  0  0
 14 20  1  0  0  0  0
 14 22  2  0  0  0  0
 15 17  1  0  0  0  0
 15 18  1  0  0  0  0
 16 18  2  0  0  0  0
 18 23  1  0  0  0  0
 19 14  1  0  0  0  0
 20 15  2  0  0  0  0
 21 22  1  0  0  0  0
 21 13  1  0  0  0  0
 22 16  1  0  0  0  0
 23 24  1  0  0  0  0
 24 25  3  0  0  0  0
 26 27  1  0  0  0  0
 28 27  1  0  0  0  0
 29 28  1  0  0  0  0
 30 31  1  0  0  0  0
 30 29  1  0  0  0  0
 32 30  1  0  0  0  0
M  END
>  <MODEL>
1

>  <REMARK>
 VINA RESULT:      -7.8      0.000      0.000
  Name = 
  9 active torsions:
  status: ('A' for Active; 'I' for Inactive)
    1  A    between atoms: C_1  and  O_3
    2  A    between atoms: O_3  and  C_17
    3  A    between atoms: N_6  and  C_15
    4  A    between atoms: C_7  and  S_16
    5  A    between atoms: C_7  and  N_23
    6  A    between atoms: C_15  and  C_30
    7  A    between atoms: S_16  and  C_30
    8  A    between atoms: C_18  and  C_21
    9  A    between atoms: C_18  and  N_27
                            x       y       z     vdW  Elec       q    Type
                         _______ _______ _______ _____ _____    ______ ____

>  <TORSDO>
F 9

$$$$
=
 OpenBabel11042419343D

 32 34  0  0  1  0  0  0  0  0999 V2000
  189.6260  177.1710  144.8300 C   0  0  0  0  0  0  0  0  0  0  0  0
  191.7550  175.2290  147.2960 C   0  0  0  0  0  1  0  0  0  0  0  0
  190.7110  176.5570  145.4000 C   0  0  0  0  0  0  0  0  0  0  0  0
  188.2480  176.5480  146.6980 C   0  0  0  0  0  0  0  0  0  0  0  0
  186.9400  176.5620  147.4020 C   0  0  0  0  0  1  0  0  0  0  0  0
  190.0120  177.8250  143.5520 C   0  0  1  0  0  3  0  0  0  0  0  0
  191.8740  176.7180  144.5990 N   0  0  0  0  0  0  0  0  0  0  0  0
  189.3520  175.9020  147.2820 C   0  0  0  0  0  3  0  0  0  0  0  0
  190.6000  175.9000  146.6380 C   0  0  0  0  0  0  0  0  0  0  0  0
  188.3820  177.1930  145.4610 C   0  0  0  0  0  3  0  0  0  0  0  0
  191.5030  177.4690  143.3980 C   0  0  0  0  0  2  0  0  0  0  0  0
  189.1030  176.0550  142.1620 C   0  0  0  0  0  2  0  0  0  0  0  0
  189.1930  177.3610  142.3740 C   0  0  0  0  0  0  0  0  0  0  0  0
  186.1630  177.7850  140.5970 C   0  0  0  0  0  0  0  0  0  0  0  0
  184.1530  178.3570  141.8110 C   0  0  0  0  0  0  0  0  0  0  0  0
  186.3030  178.8000  142.7550 N   0  0  0  0  0  0  0  0  0  0  0  0
  182.6670  178.3870  141.8860 C   0  0  0  0  0  1  0  0  0  0  0  0
  184.9440  178.8600  142.8530 C   0  0  0  0  0  0  0  0  0  0  0  0
  186.7760  177.2540  139.4690 O   0  0  0  0  0  1  0  0  0  0  0  0
  184.7700  177.8250  140.6790 C   0  0  0  0  0  3  0  0  0  0  0  0
  188.3520  178.2350  141.6030 N   0  0  0  0  0  2  0  0  0  0  0  0
  186.9260  178.2690  141.6670 C   0  0  0  0  0  0  0  0  0  0  0  0
  184.3340  179.4270  143.9770 O   0  0  0  0  0  0  0  0  0  0  0  0
  184.2850  178.7810  145.1830 C   0  0  0  0  0  0  0  0  0  0  0  0
  184.2350  178.2190  146.2480 C   0  0  0  0  0  3  0  0  0  0  0  0
  193.0100  175.8070  144.6230 C   0  0  0  0  0  2  0  0  0  0  0  0
  194.5380  176.6980  145.0400 S   0  0  0  0  0  0  0  0  0  0  0  0
  195.3140  175.1770  145.6610 C   0  0  0  0  0  2  0  0  0  0  0  0
  195.5460  174.2000  144.5220 C   0  0  0  0  0  2  0  0  0  0  0  0
  196.7400  173.4070  144.7700 N   0  0  0  0  0  0  0  0  0  0  0  0
  197.6330  174.2190  145.3870 O   0  0  0  0  0  1  0  0  0  0  0  0
  196.3710  172.3840  145.7320 C   0  0  0  0  0  1  0  0  0  0  0  0
  1  3  2  0  0  0  0
  1 10  1  0  0  0  0
  3  9  1  0  0  0  0
  4  8  1  0  0  0  0
  4  5  1  0  0  0  0
  6 13  1  6  0  0  0
  6  1  1  0  0  0  0
  7 26  1  0  0  0  0
  7  3  1  0  0  0  0
  9  8  2  0  0  0  0
  9  2  1  0  0  0  0
 10  4  2  0  0  0  0
 11  6  1  0  0  0  0
 11  7  1  0  0  0  0
 12 13  2  0  0  0  0
 14 20  1  0  0  0  0
 14 22  2  0  0  0  0
 15 17  1  0  0  0  0
 15 18  1  0  0  0  0
 16 18  2  0  0  0  0
 18 23  1  0  0  0  0
 19 14  1  0  0  0  0
 20 15  2  0  0  0  0
 21 22  1  0  0  0  0
 21 13  1  0  0  0  0
 22 16  1  0  0  0  0
 23 24  1  0  0  0  0
 24 25  3  0  0  0  0
 26 27  1  0  0  0  0
 27 28  1  0  0  0  0
 29 30  1  0  0  0  0
 29 28  1  0  0  0  0
 30 31  1  0  0  0  0
 30 32  1  0  0  0  0
M  END
>  <MODEL>
2

>  <REMARK>
 VINA RESULT:      -7.4      1.207      1.450
  Name = 
  9 active torsions:
  status: ('A' for Active; 'I' for Inactive)
    1  A    between atoms: C_1  and  O_3
    2  A    between atoms: O_3  and  C_17
    3  A    between atoms: N_6  and  C_15
    4  A    between atoms: C_7  and  S_16
    5  A    between atoms: C_7  and  N_23
    6  A    between atoms: C_15  and  C_30
    7  A    between atoms: S_16  and  C_30
    8  A    between atoms: C_18  and  C_21
    9  A    between atoms: C_18  and  N_27
                            x       y       z     vdW  Elec       q    Type
                         _______ _______ _______ _____ _____    ______ ____

>  <TORSDO>
F 9

$$$$
=
 OpenBabel11042419343D

 32 34  0  0  1  0  0  0  0  0999 V2000
  188.6650  174.8690  142.0310 C   0  0  0  0  0  0  0  0  0  0  0  0
  190.4680  171.5610  142.4740 C   0  0  0  0  0  1  0  0  0  0  0  0
  189.3490  173.8360  142.6190 C   0  0  0  0  0  0  0  0  0  0  0  0
  188.6700  173.7170  139.9210 C   0  0  0  0  0  0  0  0  0  0  0  0
  188.2880  173.6430  138.4880 C   0  0  0  0  0  1  0  0  0  0  0  0
  188.3410  175.9150  143.0360 C   0  0  1  0  0  3  0  0  0  0  0  0
  189.5520  174.0760  144.0050 N   0  0  0  0  0  0  0  0  0  0  0  0
  189.3850  172.6610  140.5120 C   0  0  0  0  0  3  0  0  0  0  0  0
  189.7330  172.7090  141.8720 C   0  0  0  0  0  0  0  0  0  0  0  0
  188.3000  174.8330  140.6840 C   0  0  0  0  0  3  0  0  0  0  0  0
  188.9830  175.3850  144.3320 C   0  0  0  0  0  2  0  0  0  0  0  0
  190.1530  177.5160  142.8310 C   0  0  0  0  0  2  0  0  0  0  0  0
  188.8580  177.2810  142.6630 C   0  0  0  0  0  0  0  0  0  0  0  0
  186.0230  177.9450  140.6550 C   0  0  0  0  0  0  0  0  0  0  0  0
  183.8780  178.2860  141.7150 C   0  0  0  0  0  0  0  0  0  0  0  0
  185.9010  178.5990  142.9500 N   0  0  0  0  0  0  0  0  0  0  0  0
  182.3920  178.2830  141.6300 C   0  0  0  0  0  1  0  0  0  0  0  0
  184.5380  178.6240  142.9050 C   0  0  0  0  0  0  0  0  0  0  0  0
  186.7690  177.6140  139.5310 O   0  0  0  0  0  1  0  0  0  0  0  0
  184.6290  177.9530  140.5880 C   0  0  0  0  0  3  0  0  0  0  0  0
  188.0770  178.2570  141.9550 N   0  0  0  0  0  2  0  0  0  0  0  0
  186.6520  178.2600  141.8650 C   0  0  0  0  0  0  0  0  0  0  0  0
  183.7940  178.9920  144.0310 O   0  0  0  0  0  0  0  0  0  0  0  0
  184.1680  178.6380  145.2990 C   0  0  0  0  0  0  0  0  0  0  0  0
  184.5070  178.3280  146.4140 C   0  0  0  0  0  3  0  0  0  0  0  0
  190.6340  173.4860  144.7820 C   0  0  0  0  0  2  0  0  0  0  0  0
  192.2210  174.2670  144.3660 S   0  0  0  0  0  0  0  0  0  0  0  0
  192.4210  174.8800  146.0650 C   0  0  0  0  0  2  0  0  0  0  0  0
  192.0650  176.3550  146.1400 C   0  0  0  0  0  2  0  0  0  0  0  0
  191.4000  176.6520  147.4000 N   0  0  0  0  0  0  0  0  0  0  0  0
  190.2260  177.2560  147.0940 O   0  0  0  0  0  1  0  0  0  0  0  0
  191.0680  175.3770  148.0090 C   0  0  0  0  0  1  0  0  0  0  0  0
  1  3  1  0  0  0  0
  1  6  1  0  0  0  0
  3  7  1  0  0  0  0
  4  8  2  0  0  0  0
  4 10  1  0  0  0  0
  5  4  1  0  0  0  0
  6 13  1  6  0  0  0
  6 11  1  0  0  0  0
  7 11  1  0  0  0  0
  7 26  1  0  0  0  0
  8  9  1  0  0  0  0
  9  2  1  0  0  0  0
  9  3  2  0  0  0  0
 10  1  2  0  0  0  0
 13 12  2  0  0  0  0
 14 22  2  0  0  0  0
 15 18  1  0  0  0  0
 17 15  1  0  0  0  0
 18 16  2  0  0  0  0
 18 23  1  0  0  0  0
 19 14  1  0  0  0  0
 20 14  1  0  0  0  0
 20 15  2  0  0  0  0
 21 13  1  0  0  0  0
 22 21  1  0  0  0  0
 22 16  1  0  0  0  0
 23 24  1  0  0  0  0
 24 25  3  0  0  0  0
 27 26  1  0  0  0  0
 27 28  1  0  0  0  0
 28 29  1  0  0  0  0
 29 30  1  0  0  0  0
 30 32  1  0  0  0  0
 31 30  1  0  0  0  0
M  END
>  <MODEL>
3

>  <REMARK>
 VINA RESULT:      -7.3      2.786      4.386
  Name = 
  9 active torsions:
  status: ('A' for Active; 'I' for Inactive)
    1  A    between atoms: C_1  and  O_3
    2  A    between atoms: O_3  and  C_17
    3  A    between atoms: N_6  and  C_15
    4  A    between atoms: C_7  and  S_16
    5  A    between atoms: C_7  and  N_23
    6  A    between atoms: C_15  and  C_30
    7  A    between atoms: S_16  and  C_30
    8  A    between atoms: C_18  and  C_21
    9  A    between atoms: C_18  and  N_27
                            x       y       z     vdW  Elec       q    Type
                         _______ _______ _______ _____ _____    ______ ____

>  <TORSDO>
F 9

$$$$
=
 OpenBabel11042419343D

 32 34  0  0  1  0  0  0  0  0999 V2000
  188.6670  174.9560  142.2110 C   0  0  0  0  0  0  0  0  0  0  0  0
  190.5050  171.7000  142.8540 C   0  0  0  0  0  1  0  0  0  0  0  0
  189.3570  173.9660  142.8620 C   0  0  0  0  0  0  0  0  0  0  0  0
  188.7020  173.6870  140.1700 C   0  0  0  0  0  0  0  0  0  0  0  0
  188.3330  173.5260  138.7410 C   0  0  0  0  0  1  0  0  0  0  0  0
  188.3220  176.0530  143.1530 C   0  0  1  0  0  3  0  0  0  0  0  0
  189.5470  174.2870  144.2340 N   0  0  0  0  0  0  0  0  0  0  0  0
  189.4250  172.6750  140.8260 C   0  0  0  0  0  3  0  0  0  0  0  0
  189.7610  172.8030  142.1830 C   0  0  0  0  0  0  0  0  0  0  0  0
  188.3130  174.8400  140.8660 C   0  0  0  0  0  3  0  0  0  0  0  0
  188.9600  175.6050  144.4820 C   0  0  0  0  0  2  0  0  0  0  0  0
  190.1220  177.6520  142.8460 C   0  0  0  0  0  2  0  0  0  0  0  0
  188.8270  177.4020  142.7070 C   0  0  0  0  0  0  0  0  0  0  0  0
  185.9830  177.9450  140.6740 C   0  0  0  0  0  0  0  0  0  0  0  0
  183.8320  178.2920  141.7210 C   0  0  0  0  0  0  0  0  0  0  0  0
  185.8490  178.6840  142.9420 N   0  0  0  0  0  0  0  0  0  0  0  0
  182.3470  178.2630  141.6360 C   0  0  0  0  0  1  0  0  0  0  0  0
  184.4860  178.6860  142.8970 C   0  0  0  0  0  0  0  0  0  0  0  0
  186.7340  177.5820  139.5640 O   0  0  0  0  0  1  0  0  0  0  0  0
  184.5890  177.9280  140.6070 C   0  0  0  0  0  3  0  0  0  0  0  0
  188.0310  178.3380  141.9610 N   0  0  0  0  0  2  0  0  0  0  0  0
  186.6060  178.3160  141.8720 C   0  0  0  0  0  0  0  0  0  0  0  0
  183.7350  179.0850  144.0080 O   0  0  0  0  0  0  0  0  0  0  0  0
  184.0660  178.7120  145.2830 C   0  0  0  0  0  0  0  0  0  0  0  0
  184.3670  178.3810  146.4020 C   0  0  0  0  0  3  0  0  0  0  0  0
  190.6290  173.7550  145.0510 C   0  0  0  0  0  2  0  0  0  0  0  0
  191.3240  175.0520  146.1170 S   0  0  0  0  0  0  0  0  0  0  0  0
  192.6190  175.4280  144.8990 C   0  0  0  0  0  2  0  0  0  0  0  0
  193.2850  176.7530  145.2290 C   0  0  0  0  0  2  0  0  0  0  0  0
  194.7230  176.5780  145.3640 N   0  0  0  0  0  0  0  0  0  0  0  0
  194.9190  175.6610  146.3430 O   0  0  0  0  0  1  0  0  0  0  0  0
  195.1890  175.9750  144.1290 C   0  0  0  0  0  1  0  0  0  0  0  0
  1  3  1  0  0  0  0
  1  6  1  0  0  0  0
  3  7  1  0  0  0  0
  4  8  2  0  0  0  0
  4 10  1  0  0  0  0
  5  4  1  0  0  0  0
  6 13  1  6  0  0  0
  6 11  1  0  0  0  0
  7 11  1  0  0  0  0
  7 26  1  0  0  0  0
  8  9  1  0  0  0  0
  9  2  1  0  0  0  0
  9  3  2  0  0  0  0
 10  1  2  0  0  0  0
 13 12  2  0  0  0  0
 14 22  2  0  0  0  0
 15 18  1  0  0  0  0
 17 15  1  0  0  0  0
 18 16  2  0  0  0  0
 18 23  1  0  0  0  0
 19 14  1  0  0  0  0
 20 14  1  0  0  0  0
 20 15  2  0  0  0  0
 21 13  1  0  0  0  0
 22 21  1  0  0  0  0
 22 16  1  0  0  0  0
 23 24  1  0  0  0  0
 24 25  3  0  0  0  0
 26 27  1  0  0  0  0
 28 29  1  0  0  0  0
 28 27  1  0  0  0  0
 29 30  1  0  0  0  0
 30 31  1  0  0  0  0
 32 30  1  0  0  0  0
M  END
>  <MODEL>
4

>  <REMARK>
 VINA RESULT:      -7.2      2.217      3.654
  Name = 
  9 active torsions:
  status: ('A' for Active; 'I' for Inactive)
    1  A    between atoms: C_1  and  O_3
    2  A    between atoms: O_3  and  C_17
    3  A    between atoms: N_6  and  C_15
    4  A    between atoms: C_7  and  S_16
    5  A    between atoms: C_7  and  N_23
    6  A    between atoms: C_15  and  C_30
    7  A    between atoms: S_16  and  C_30
    8  A    between atoms: C_18  and  C_21
    9  A    between atoms: C_18  and  N_27
                            x       y       z     vdW  Elec       q    Type
                         _______ _______ _______ _____ _____    ______ ____

>  <TORSDO>
F 9

$$$$
=
 OpenBabel11042419343D

 32 34  0  0  1  0  0  0  0  0999 V2000
  190.1000  175.0430  144.8680 C   0  0  0  0  0  0  0  0  0  0  0  0
  192.9780  175.2680  142.4060 C   0  0  0  0  0  1  0  0  0  0  0  0
  191.3590  175.2460  144.3630 C   0  0  0  0  0  0  0  0  0  0  0  0
  189.2870  174.4360  142.6890 C   0  0  0  0  0  0  0  0  0  0  0  0
  188.1870  173.9830  141.8000 C   0  0  0  0  0  1  0  0  0  0  0  0
  190.0910  175.2560  146.3390 C   0  0  1  0  0  3  0  0  0  0  0  0
  192.2740  175.6090  145.3890 N   0  0  0  0  0  0  0  0  0  0  0  0
  190.5700  174.6590  142.1610 C   0  0  0  0  0  3  0  0  0  0  0  0
  191.6240  175.0670  142.9940 C   0  0  0  0  0  0  0  0  0  0  0  0
  189.0440  174.6260  144.0570 C   0  0  0  0  0  3  0  0  0  0  0  0
  191.5390  175.6770  146.6540 C   0  0  0  0  0  2  0  0  0  0  0  0
  189.5160  177.5370  146.9370 C   0  0  0  0  0  2  0  0  0  0  0  0
  189.0890  176.2900  146.7860 C   0  0  0  0  0  0  0  0  0  0  0  0
  185.8240  177.6480  146.8920 C   0  0  0  0  0  0  0  0  0  0  0  0
  184.7280  178.2500  144.8230 C   0  0  0  0  0  0  0  0  0  0  0  0
  186.5240  176.6730  144.8250 N   0  0  0  0  0  0  0  0  0  0  0  0
  183.6920  179.0420  144.1070 C   0  0  0  0  0  1  0  0  0  0  0  0
  185.5760  177.3700  144.1360 C   0  0  0  0  0  0  0  0  0  0  0  0
  185.9460  177.7780  148.2690 O   0  0  0  0  0  1  0  0  0  0  0  0
  184.8520  178.3790  146.2070 C   0  0  0  0  0  3  0  0  0  0  0  0
  187.6760  176.0430  146.8550 N   0  0  0  0  0  2  0  0  0  0  0  0
  186.6740  176.7990  146.1730 C   0  0  0  0  0  0  0  0  0  0  0  0
  185.4350  177.2080  142.7540 O   0  0  0  0  0  0  0  0  0  0  0  0
  186.4840  177.3740  141.8900 C   0  0  0  0  0  0  0  0  0  0  0  0
  187.4060  177.5320  141.1290 C   0  0  0  0  0  3  0  0  0  0  0  0
  193.4930  176.3720  145.1590 C   0  0  0  0  0  2  0  0  0  0  0  0
  194.8810  175.6570  146.0900 S   0  0  0  0  0  0  0  0  0  0  0  0
  195.8570  175.4500  144.5710 C   0  0  0  0  0  2  0  0  0  0  0  0
  196.0660  176.7930  143.8910 C   0  0  0  0  0  2  0  0  0  0  0  0
  197.1080  176.6920  142.8810 N   0  0  0  0  0  0  0  0  0  0  0  0
  197.8360  175.5860  143.1730 O   0  0  0  0  0  1  0  0  0  0  0  0
  196.4440  176.4330  141.6180 C   0  0  0  0  0  1  0  0  0  0  0  0
  1  6  1  0  0  0  0
  2  9  1  0  0  0  0
  3  1  1  0  0  0  0
  3  7  1  0  0  0  0
  4 10  1  0  0  0  0
  5  4  1  0  0  0  0
  6 11  1  0  0  0  0
  6 13  1  6  0  0  0
  7 11  1  0  0  0  0
  8  4  2  0  0  0  0
  8  9  1  0  0  0  0
  9  3  2  0  0  0  0
 10  1  2  0  0  0  0
 13 21  1  0  0  0  0
 13 12  2  0  0  0  0
 14 19  1  0  0  0  0
 15 20  2  0  0  0  0
 16 22  1  0  0  0  0
 17 15  1  0  0  0  0
 18 15  1  0  0  0  0
 18 16  2  0  0  0  0
 20 14  1  0  0  0  0
 22 21  1  0  0  0  0
 22 14  2  0  0  0  0
 23 18  1  0  0  0  0
 24 23  1  0  0  0  0
 25 24  3  0  0  0  0
 26  7  1  0  0  0  0
 26 27  1  0  0  0  0
 28 27  1  0  0  0  0
 29 28  1  0  0  0  0
 30 31  1  0  0  0  0
 30 29  1  0  0  0  0
 32 30  1  0  0  0  0
M  END
>  <MODEL>
5

>  <REMARK>
 VINA RESULT:      -7.1      2.000      4.044
  Name = 
  9 active torsions:
  status: ('A' for Active; 'I' for Inactive)
    1  A    between atoms: C_1  and  O_3
    2  A    between atoms: O_3  and  C_17
    3  A    between atoms: N_6  and  C_15
    4  A    between atoms: C_7  and  S_16
    5  A    between atoms: C_7  and  N_23
    6  A    between atoms: C_15  and  C_30
    7  A    between atoms: S_16  and  C_30
    8  A    between atoms: C_18  and  C_21
    9  A    between atoms: C_18  and  N_27
                            x       y       z     vdW  Elec       q    Type
                         _______ _______ _______ _____ _____    ______ ____

>  <TORSDO>
F 9

$$$$
=
 OpenBabel11042419343D

 32 34  0  0  1  0  0  0  0  0999 V2000
  190.5970  174.1960  145.7780 C   0  0  0  0  0  0  0  0  0  0  0  0
  193.8470  173.2780  144.0510 C   0  0  0  0  0  1  0  0  0  0  0  0
  191.9390  174.0940  145.5140 C   0  0  0  0  0  0  0  0  0  0  0  0
  190.0770  172.9310  143.8010 C   0  0  0  0  0  0  0  0  0  0  0  0
  189.0860  172.2920  142.8990 C   0  0  0  0  0  1  0  0  0  0  0  0
  190.3740  174.9160  147.0590 C   0  0  1  0  0  3  0  0  0  0  0  0
  192.7130  174.7140  146.5330 N   0  0  0  0  0  0  0  0  0  0  0  0
  191.4500  172.8370  143.5140 C   0  0  0  0  0  3  0  0  0  0  0  0
  192.3990  173.4190  144.3700 C   0  0  0  0  0  0  0  0  0  0  0  0
  189.6410  173.6130  144.9450 C   0  0  0  0  0  3  0  0  0  0  0  0
  191.7960  175.2910  147.5180 C   0  0  0  0  0  2  0  0  0  0  0  0
  190.0660  177.3180  146.9040 C   0  0  0  0  0  2  0  0  0  0  0  0
  189.4860  176.1260  146.9160 C   0  0  0  0  0  0  0  0  0  0  0  0
  186.3810  177.8030  146.6630 C   0  0  0  0  0  0  0  0  0  0  0  0
  185.8770  179.0580  144.6590 C   0  0  0  0  0  0  0  0  0  0  0  0
  187.5230  177.3250  144.6190 N   0  0  0  0  0  0  0  0  0  0  0  0
  185.1010  180.1320  143.9830 C   0  0  0  0  0  1  0  0  0  0  0  0
  186.8190  178.2910  143.9610 C   0  0  0  0  0  0  0  0  0  0  0  0
  186.1600  177.5510  148.0110 O   0  0  0  0  0  1  0  0  0  0  0  0
  185.6560  178.8030  146.0140 C   0  0  0  0  0  3  0  0  0  0  0  0
  188.0880  176.0460  146.5910 N   0  0  0  0  0  2  0  0  0  0  0  0
  187.3360  177.0730  145.9440 C   0  0  0  0  0  0  0  0  0  0  0  0
  187.0220  178.5160  142.5950 O   0  0  0  0  0  0  0  0  0  0  0  0
  187.2470  177.4920  141.7140 C   0  0  0  0  0  0  0  0  0  0  0  0
  187.4390  176.5840  140.9440 C   0  0  0  0  0  3  0  0  0  0  0  0
  194.0580  175.2340  146.3280 C   0  0  0  0  0  2  0  0  0  0  0  0
  194.0440  177.0510  146.2980 S   0  0  0  0  0  0  0  0  0  0  0  0
  193.7250  177.0680  144.5100 C   0  0  0  0  0  2  0  0  0  0  0  0
  192.2740  177.4260  144.2360 C   0  0  0  0  0  2  0  0  0  0  0  0
  191.9430  177.1690  142.8430 N   0  0  0  0  0  0  0  0  0  0  0  0
  192.8360  176.2570  142.3860 O   0  0  0  0  0  1  0  0  0  0  0  0
  190.6440  176.5210  142.8340 C   0  0  0  0  0  1  0  0  0  0  0  0
  1  6  1  0  0  0  0
  2  9  1  0  0  0  0
  3  1  1  0  0  0  0
  3  7  1  0  0  0  0
  4 10  1  0  0  0  0
  5  4  1  0  0  0  0
  6 13  1  6  0  0  0
  6 11  1  0  0  0  0
  7 11  1  0  0  0  0
  8  4  2  0  0  0  0
  8  9  1  0  0  0  0
  9  3  2  0  0  0  0
 10  1  2  0  0  0  0
 12 13  2  0  0  0  0
 14 19  1  0  0  0  0
 15 20  2  0  0  0  0
 16 22  1  0  0  0  0
 17 15  1  0  0  0  0
 18 16  2  0  0  0  0
 18 15  1  0  0  0  0
 20 14  1  0  0  0  0
 21 13  1  0  0  0  0
 22 21  1  0  0  0  0
 22 14  2  0  0  0  0
 23 18  1  0  0  0  0
 24 23  1  0  0  0  0
 25 24  3  0  0  0  0
 26  7  1  0  0  0  0
 27 26  1  0  0  0  0
 28 27  1  0  0  0  0
 29 28  1  0  0  0  0
 30 29  1  0  0  0  0
 31 30  1  0  0  0  0
 32 30  1  0  0  0  0
M  END
>  <MODEL>
6

>  <REMARK>
 VINA RESULT:      -6.9      2.515      4.531
  Name = 
  9 active torsions:
  status: ('A' for Active; 'I' for Inactive)
    1  A    between atoms: C_1  and  O_3
    2  A    between atoms: O_3  and  C_17
    3  A    between atoms: N_6  and  C_15
    4  A    between atoms: C_7  and  S_16
    5  A    between atoms: C_7  and  N_23
    6  A    between atoms: C_15  and  C_30
    7  A    between atoms: S_16  and  C_30
    8  A    between atoms: C_18  and  C_21
    9  A    between atoms: C_18  and  N_27
                            x       y       z     vdW  Elec       q    Type
                         _______ _______ _______ _____ _____    ______ ____

>  <TORSDO>
F 9

$$$$
=
 OpenBabel11042419343D

 32 34  0  0  1  0  0  0  0  0999 V2000
  186.9150  177.1960  144.3780 C   0  0  0  0  0  0  0  0  0  0  0  0
  183.6910  179.0520  145.1200 C   0  0  0  0  0  1  0  0  0  0  0  0
  185.6760  177.7580  144.2070 C   0  0  0  0  0  0  0  0  0  0  0  0
  186.9620  177.9140  146.6710 C   0  0  0  0  0  0  0  0  0  0  0  0
  187.6370  177.9790  147.9930 C   0  0  0  0  0  1  0  0  0  0  0  0
  187.3490  176.5060  143.1350 C   0  0  1  0  0  3  0  0  0  0  0  0
  185.1820  177.5250  142.8940 N   0  0  0  0  0  0  0  0  0  0  0  0
  185.6990  178.5080  146.4990 C   0  0  0  0  0  3  0  0  0  0  0  0
  185.0400  178.4350  145.2610 C   0  0  0  0  0  0  0  0  0  0  0  0
  187.5790  177.2470  145.6050 C   0  0  0  0  0  3  0  0  0  0  0  0
  186.1980  176.7800  142.1480 C   0  0  0  0  0  2  0  0  0  0  0  0
  188.7550  178.2650  142.2320 C   0  0  0  0  0  2  0  0  0  0  0  0
  188.6750  176.9970  142.6120 C   0  0  0  0  0  0  0  0  0  0  0  0
  192.1030  176.9290  143.4810 C   0  0  0  0  0  0  0  0  0  0  0  0
  192.7300  176.5290  145.7810 C   0  0  0  0  0  0  0  0  0  0  0  0
  190.5860  175.8460  144.9760 N   0  0  0  0  0  0  0  0  0  0  0  0
  193.7330  176.6470  146.8740 C   0  0  0  0  0  1  0  0  0  0  0  0
  191.4860  175.9210  145.9980 C   0  0  0  0  0  0  0  0  0  0  0  0
  192.4100  177.4250  142.2210 O   0  0  0  0  0  1  0  0  0  0  0  0
  193.0370  177.0260  144.5140 C   0  0  0  0  0  3  0  0  0  0  0  0
  189.8890  176.2340  142.6940 N   0  0  0  0  0  2  0  0  0  0  0  0
  190.8580  176.3410  143.7370 C   0  0  0  0  0  0  0  0  0  0  0  0
  191.1830  175.3880  147.2560 O   0  0  0  0  0  0  0  0  0  0  0  0
  189.9360  174.9170  147.5660 C   0  0  0  0  0  0  0  0  0  0  0  0
  188.8350  174.5110  147.8450 C   0  0  0  0  0  3  0  0  0  0  0  0
  184.2020  178.3740  142.2320 C   0  0  0  0  0  2  0  0  0  0  0  0
  184.3380  178.2230  140.4260 S   0  0  0  0  0  0  0  0  0  0  0  0
  182.5540  177.9190  140.2680 C   0  0  0  0  0  2  0  0  0  0  0  0
  181.8360  178.3100  141.5490 C   0  0  0  0  0  2  0  0  0  0  0  0
  180.4310  178.5750  141.2810 N   0  0  0  0  0  0  0  0  0  0  0  0
  179.8370  178.8010  142.4790 O   0  0  0  0  0  1  0  0  0  0  0  0
  180.3740  179.8250  140.5450 C   0  0  0  0  0  1  0  0  0  0  0  0
  1 10  1  0  0  0  0
  2  9  1  0  0  0  0
  3  1  2  0  0  0  0
  3  9  1  0  0  0  0
  4  5  1  0  0  0  0
  6 13  1  6  0  0  0
  6  1  1  0  0  0  0
  7  3  1  0  0  0  0
  8  4  1  0  0  0  0
  9  8  2  0  0  0  0
 10  4  2  0  0  0  0
 11  7  1  0  0  0  0
 11  6  1  0  0  0  0
 12 13  2  0  0  0  0
 13 21  1  0  0  0  0
 14 22  2  0  0  0  0
 14 20  1  0  0  0  0
 15 18  1  0  0  0  0
 15 17  1  0  0  0  0
 16 18  2  0  0  0  0
 18 23  1  0  0  0  0
 19 14  1  0  0  0  0
 20 15  2  0  0  0  0
 21 22  1  0  0  0  0
 22 16  1  0  0  0  0
 23 24  1  0  0  0  0
 24 25  3  0  0  0  0
 26  7  1  0  0  0  0
 27 26  1  0  0  0  0
 28 27  1  0  0  0  0
 28 29  1  0  0  0  0
 30 29  1  0  0  0  0
 30 31  1  0  0  0  0
 32 30  1  0  0  0  0
M  END
>  <MODEL>
7

>  <REMARK>
 VINA RESULT:      -6.8      3.293      8.704
  Name = 
  9 active torsions:
  status: ('A' for Active; 'I' for Inactive)
    1  A    between atoms: C_1  and  O_3
    2  A    between atoms: O_3  and  C_17
    3  A    between atoms: N_6  and  C_15
    4  A    between atoms: C_7  and  S_16
    5  A    between atoms: C_7  and  N_23
    6  A    between atoms: C_15  and  C_30
    7  A    between atoms: S_16  and  C_30
    8  A    between atoms: C_18  and  C_21
    9  A    between atoms: C_18  and  N_27
                            x       y       z     vdW  Elec       q    Type
                         _______ _______ _______ _____ _____    ______ ____

>  <TORSDO>
F 9

$$$$
=
 OpenBabel11042419343D

 32 34  0  0  1  0  0  0  0  0999 V2000
  191.5080  176.2350  144.6590 C   0  0  0  0  0  0  0  0  0  0  0  0
  193.4160  173.0840  145.5620 C   0  0  0  0  0  1  0  0  0  0  0  0
  192.1830  175.0490  144.5290 C   0  0  0  0  0  0  0  0  0  0  0  0
  191.7810  176.1700  147.0460 C   0  0  0  0  0  0  0  0  0  0  0  0
  191.5870  176.7780  148.3870 C   0  0  0  0  0  1  0  0  0  0  0  0
  191.1370  176.7700  143.3220 C   0  0  1  0  0  3  0  0  0  0  0  0
  192.3170  174.6790  143.1630 N   0  0  0  0  0  0  0  0  0  0  0  0
  192.4600  174.9450  146.9230 C   0  0  0  0  0  3  0  0  0  0  0  0
  192.6700  174.3690  145.6590 C   0  0  0  0  0  0  0  0  0  0  0  0
  191.3010  176.8280  145.9050 C   0  0  0  0  0  3  0  0  0  0  0  0
  191.6460  175.6920  142.3460 C   0  0  0  0  0  2  0  0  0  0  0  0
  189.2740  177.9120  142.2660 C   0  0  0  0  0  2  0  0  0  0  0  0
  189.6580  177.0210  143.1700 C   0  0  0  0  0  0  0  0  0  0  0  0
  187.4200  176.6050  145.8790 C   0  0  0  0  0  0  0  0  0  0  0  0
  185.2580  177.6810  145.8000 C   0  0  0  0  0  0  0  0  0  0  0  0
  186.4750  177.2640  143.7850 N   0  0  0  0  0  0  0  0  0  0  0  0
  184.0650  178.2120  146.5130 C   0  0  0  0  0  1  0  0  0  0  0  0
  185.3580  177.7460  144.4030 C   0  0  0  0  0  0  0  0  0  0  0  0
  188.4490  176.0280  146.6120 O   0  0  0  0  0  1  0  0  0  0  0  0
  186.2920  177.1010  146.5340 C   0  0  0  0  0  3  0  0  0  0  0  0
  188.6500  176.2100  143.7960 N   0  0  0  0  0  2  0  0  0  0  0  0
  187.5040  176.7100  144.4850 C   0  0  0  0  0  0  0  0  0  0  0  0
  184.3110  178.2950  143.6560 O   0  0  0  0  0  0  0  0  0  0  0  0
  184.3120  178.2900  142.2870 C   0  0  0  0  0  0  0  0  0  0  0  0
  184.3030  178.2910  141.0810 C   0  0  0  0  0  3  0  0  0  0  0  0
  192.4940  173.3080  142.7060 C   0  0  0  0  0  2  0  0  0  0  0  0
  192.1950  173.1850  140.9170 S   0  0  0  0  0  0  0  0  0  0  0  0
  190.8480  171.9930  141.1740 C   0  0  0  0  0  2  0  0  0  0  0  0
  189.5610  172.5090  140.5530 C   0  0  0  0  0  2  0  0  0  0  0  0
  189.0030  173.5810  141.3630 N   0  0  0  0  0  0  0  0  0  0  0  0
  188.5820  174.5440  140.5070 O   0  0  0  0  0  1  0  0  0  0  0  0
  187.8160  173.0460  142.0050 C   0  0  0  0  0  1  0  0  0  0  0  0
  1 10  1  0  0  0  0
  2  9  1  0  0  0  0
  3  1  2  0  0  0  0
  3  9  1  0  0  0  0
  4  5  1  0  0  0  0
  6 13  1  1  0  0  0
  6  1  1  0  0  0  0
  7  3  1  0  0  0  0
  8  4  1  0  0  0  0
  9  8  2  0  0  0  0
 10  4  2  0  0  0  0
 11  7  1  0  0  0  0
 11  6  1  0  0  0  0
 12 13  2  0  0  0  0
 13 21  1  0  0  0  0
 14 20  1  0  0  0  0
 14 19  1  0  0  0  0
 15 17  1  0  0  0  0
 15 20  2  0  0  0  0
 16 18  2  0  0  0  0
 16 22  1  0  0  0  0
 18 15  1  0  0  0  0
 21 22  1  0  0  0  0
 22 14  2  0  0  0  0
 23 18  1  0  0  0  0
 24 23  1  0  0  0  0
 25 24  3  0  0  0  0
 26  7  1  0  0  0  0
 27 28  1  0  0  0  0
 27 26  1  0  0  0  0
 29 28  1  0  0  0  0
 29 30  1  0  0  0  0
 30 32  1  0  0  0  0
 31 30  1  0  0  0  0
M  END
>  <MODEL>
8

>  <REMARK>
 VINA RESULT:      -6.6      2.889      4.732
  Name = 
  9 active torsions:
  status: ('A' for Active; 'I' for Inactive)
    1  A    between atoms: C_1  and  O_3
    2  A    between atoms: O_3  and  C_17
    3  A    between atoms: N_6  and  C_15
    4  A    between atoms: C_7  and  S_16
    5  A    between atoms: C_7  and  N_23
    6  A    between atoms: C_15  and  C_30
    7  A    between atoms: S_16  and  C_30
    8  A    between atoms: C_18  and  C_21
    9  A    between atoms: C_18  and  N_27
                            x       y       z     vdW  Elec       q    Type
                         _______ _______ _______ _____ _____    ______ ____

>  <TORSDO>
F 9

$$$$
=
 OpenBabel11042419343D

 32 34  0  0  1  0  0  0  0  0999 V2000
  190.7090  174.2240  144.0650 C   0  0  0  0  0  0  0  0  0  0  0  0
  192.8280  174.5330  140.9340 C   0  0  0  0  0  1  0  0  0  0  0  0
  191.7640  174.5160  143.2400 C   0  0  0  0  0  0  0  0  0  0  0  0
  189.4640  173.3300  142.2130 C   0  0  0  0  0  0  0  0  0  0  0  0
  188.2470  172.6770  141.6690 C   0  0  0  0  0  1  0  0  0  0  0  0
  191.0390  174.5710  145.4730 C   0  0  1  0  0  3  0  0  0  0  0  0
  192.8500  175.0720  143.9700 N   0  0  0  0  0  0  0  0  0  0  0  0
  190.5350  173.6420  141.3580 C   0  0  0  0  0  3  0  0  0  0  0  0
  191.7010  174.2400  141.8640 C   0  0  0  0  0  0  0  0  0  0  0  0
  189.5480  173.6180  143.5820 C   0  0  0  0  0  3  0  0  0  0  0  0
  192.4520  175.1770  145.3760 C   0  0  0  0  0  2  0  0  0  0  0  0
  189.5170  175.1830  147.2610 C   0  0  0  0  0  2  0  0  0  0  0  0
  190.0530  175.5260  146.0980 C   0  0  0  0  0  0  0  0  0  0  0  0
  189.2600  177.6000  143.3440 C   0  0  0  0  0  0  0  0  0  0  0  0
  186.9420  177.9250  142.7390 C   0  0  0  0  0  0  0  0  0  0  0  0
  187.5290  177.2200  144.9470 N   0  0  0  0  0  0  0  0  0  0  0  0
  185.9250  178.2910  141.7170 C   0  0  0  0  0  1  0  0  0  0  0  0
  186.5690  177.5660  144.0420 C   0  0  0  0  0  0  0  0  0  0  0  0
  190.6060  177.6220  143.0010 O   0  0  0  0  0  1  0  0  0  0  0  0
  188.2950  177.9470  142.3970 C   0  0  0  0  0  3  0  0  0  0  0  0
  189.8250  176.8580  145.6100 N   0  0  0  0  0  2  0  0  0  0  0  0
  188.8530  177.2180  144.6280 C   0  0  0  0  0  0  0  0  0  0  0  0
  185.2170  177.5740  144.4040 O   0  0  0  0  0  0  0  0  0  0  0  0
  184.8000  177.9520  145.6510 C   0  0  0  0  0  0  0  0  0  0  0  0
  184.4410  178.2900  146.7520 C   0  0  0  0  0  3  0  0  0  0  0  0
  193.8630  175.9390  143.3860 C   0  0  0  0  0  2  0  0  0  0  0  0
  195.0950  176.4170  144.6330 S   0  0  0  0  0  0  0  0  0  0  0  0
  196.4610  175.8710  143.5660 C   0  0  0  0  0  2  0  0  0  0  0  0
  197.1390  174.6480  144.1600 C   0  0  0  0  0  2  0  0  0  0  0  0
  196.2380  173.9650  145.0760 N   0  0  0  0  0  0  0  0  0  0  0  0
  195.7170  172.9100  144.4030 O   0  0  0  0  0  1  0  0  0  0  0  0
  197.0600  173.4160  146.1400 C   0  0  0  0  0  1  0  0  0  0  0  0
  1  6  1  0  0  0  0
  2  9  1  0  0  0  0
  3  7  1  0  0  0  0
  3  1  2  0  0  0  0
  4 10  2  0  0  0  0
  5  4  1  0  0  0  0
  6 13  1  6  0  0  0
  7 11  1  0  0  0  0
  8  9  2  0  0  0  0
  8  4  1  0  0  0  0
  9  3  1  0  0  0  0
 10  1  1  0  0  0  0
 11  6  1  0  0  0  0
 13 12  2  0  0  0  0
 14 22  2  0  0  0  0
 15 18  1  0  0  0  0
 17 15  1  0  0  0  0
 18 23  1  0  0  0  0
 18 16  2  0  0  0  0
 19 14  1  0  0  0  0
 20 15  2  0  0  0  0
 20 14  1  0  0  0  0
 21 13  1  0  0  0  0
 22 16  1  0  0  0  0
 22 21  1  0  0  0  0
 23 24  1  0  0  0  0
 24 25  3  0  0  0  0
 26  7  1  0  0  0  0
 26 27  1  0  0  0  0
 28 29  1  0  0  0  0
 28 27  1  0  0  0  0
 29 30  1  0  0  0  0
 30 32  1  0  0  0  0
 31 30  1  0  0  0  0
M  END
>  <MODEL>
9

>  <REMARK>
 VINA RESULT:      -6.6      2.442      3.997
  Name = 
  9 active torsions:
  status: ('A' for Active; 'I' for Inactive)
    1  A    between atoms: C_1  and  O_3
    2  A    between atoms: O_3  and  C_17
    3  A    between atoms: N_6  and  C_15
    4  A    between atoms: C_7  and  S_16
    5  A    between atoms: C_7  and  N_23
    6  A    between atoms: C_15  and  C_30
    7  A    between atoms: S_16  and  C_30
    8  A    between atoms: C_18  and  C_21
    9  A    between atoms: C_18  and  N_27
                            x       y       z     vdW  Elec       q    Type
                         _______ _______ _______ _____ _____    ______ ____

>  <TORSDO>
F 9

$$$$
