=
 OpenBabel11042413493D

 25 29  0  0  1  0  0  0  0  0999 V2000
  191.4280  177.7910  143.3940 C   0  0  0  0  0  2  0  0  0  0  0  0
  186.8860  178.3330  141.8830 C   0  0  0  0  0  3  0  0  0  0  0  0
  187.3820  177.8960  144.3770 C   0  0  2  0  0  3  0  0  0  0  0  0
  194.5900  175.7710  146.4800 N   0  0  0  0  0  1  0  0  0  0  0  0
  185.8180  176.5530  148.3700 O   0  0  0  0  0  0  0  0  0  0  0  0
  192.1720  175.0870  146.7620 C   0  0  0  0  0  2  0  0  0  0  0  0
  189.1940  176.0830  144.6820 C   0  0  0  0  0  2  0  0  0  0  0  0
  188.0540  176.9950  146.8240 C   0  0  2  0  0  3  0  0  0  0  0  0
  185.6090  178.0120  142.0880 C   0  0  0  0  0  3  0  0  0  0  0  0
  190.8500  175.8310  146.6350 C   0  0  1  0  0  3  0  0  0  0  0  0
  186.0250  179.0150  147.3620 N   0  0  0  0  0  1  0  0  0  0  0  0
  185.9760  177.3080  144.4200 C   0  0  0  0  0  0  0  0  0  0  0  0
  189.1220  177.9140  142.6090 C   0  0  0  0  0  0  0  0  0  0  0  0
  186.2900  177.2980  147.1430 P   0  0  2  0  0  0  0  0  0  0  0  0
  185.3880  176.7310  145.6750 C   0  0  0  0  0  2  0  0  0  0  0  0
  187.8760  178.1390  142.9480 C   0  0  0  0  0  0  0  0  0  0  0  0
  193.2380  175.8810  146.0540 C   0  0  0  0  0  0  0  0  0  0  0  0
  191.6040  176.7680  144.5070 C   0  0  1  0  0  3  0  0  0  0  0  0
  188.4020  177.2070  145.3230 C   0  0  2  0  0  3  0  0  0  0  0  0
  185.1620  177.4270  143.3660 C   0  0  0  0  0  3  0  0  0  0  0  0
  188.4640  175.6440  147.3920 C   0  0  0  0  0  3  0  0  0  0  0  0
  192.9420  176.6300  145.0290 N   0  0  0  0  0  0  0  0  0  0  0  0
  190.5910  176.1820  145.1900 C   0  0  2  0  0  3  0  0  0  0  0  0
  189.7050  175.1240  147.3160 C   0  0  0  0  0  3  0  0  0  0  0  0
  190.3600  177.5740  142.3640 C   0  0  0  0  0  3  0  0  0  0  0  0
  2  9  2  0  0  0  0
  2 16  1  0  0  0  0
  3 16  1  6  0  0  0
  3 12  1  0  0  0  0
  3 19  1  0  0  0  0
  8 14  1  0  0  0  0
  8 21  1  6  0  0  0
  9 20  1  0  0  0  0
 10  6  1  6  0  0  0
 10 24  1  0  0  0  0
 12 15  1  0  0  0  0
 13 16  2  0  0  0  0
 14 11  1  1  0  0  0
 14  5  2  0  0  0  0
 15 14  1  0  0  0  0
 17  4  1  0  0  0  0
 17  6  1  0  0  0  0
 18  1  1  1  0  0  0
 18 22  1  0  0  0  0
 18 23  1  0  0  0  0
 19  7  1  6  0  0  0
 19  8  1  0  0  0  0
 20 12  2  0  0  0  0
 22 17  2  0  0  0  0
 23  7  1  1  0  0  0
 23 10  1  0  0  0  0
 24 21  2  0  0  0  0
 25 13  2  0  0  0  0
 25  1  1  0  0  0  0
M  END
>  <MODEL>
1

>  <REMARK>
 VINA RESULT:      -8.8      0.000      0.000
  Name = 
  0 active torsions:
  status: ('A' for Active; 'I' for Inactive)
                            x       y       z     vdW  Elec       q    Type
                         _______ _______ _______ _____ _____    ______ ____

>  <TORSDO>
F 0

$$$$
=
 OpenBabel11042413493D

 25 29  0  0  1  0  0  0  0  0999 V2000
  190.4110  176.4430  143.2690 C   0  0  0  0  0  2  0  0  0  0  0  0
  186.9300  177.5560  140.1300 C   0  0  0  0  0  3  0  0  0  0  0  0
  186.6440  178.1030  142.6360 C   0  0  2  0  0  3  0  0  0  0  0  0
  191.7230  175.1240  147.7570 N   0  0  0  0  0  1  0  0  0  0  0  0
  183.8320  179.0950  145.9980 O   0  0  0  0  0  0  0  0  0  0  0  0
  189.2380  175.3440  147.3460 C   0  0  0  0  0  2  0  0  0  0  0  0
  187.4540  176.1590  144.1310 C   0  0  0  0  0  2  0  0  0  0  0  0
  186.3370  178.1800  145.3100 C   0  0  2  0  0  3  0  0  0  0  0  0
  185.6210  177.7300  139.9510 C   0  0  0  0  0  3  0  0  0  0  0  0
  188.3920  176.3050  146.5220 C   0  0  1  0  0  3  0  0  0  0  0  0
  185.2320  180.7210  144.4110 N   0  0  0  0  0  1  0  0  0  0  0  0
  185.1490  178.0150  142.3510 C   0  0  0  0  0  0  0  0  0  0  0  0
  188.5870  176.8700  141.7080 C   0  0  0  0  0  0  0  0  0  0  0  0
  184.8230  179.0780  144.8570 P   0  0  2  0  0  0  0  0  0  0  0  0
  184.1180  178.2220  143.4220 C   0  0  0  0  0  2  0  0  0  0  0  0
  187.4960  177.5610  141.4840 C   0  0  0  0  0  0  0  0  0  0  0  0
  190.6610  175.4210  146.8600 C   0  0  0  0  0  0  0  0  0  0  0  0
  189.9100  175.9890  144.6320 C   0  0  1  0  0  3  0  0  0  0  0  0
  187.0640  177.6230  144.0520 C   0  0  2  0  0  3  0  0  0  0  0  0
  184.7060  177.9000  141.0950 C   0  0  0  0  0  3  0  0  0  0  0  0
  186.0310  177.1450  146.3830 C   0  0  0  0  0  3  0  0  0  0  0  0
  190.9270  175.7120  145.6170 N   0  0  0  0  0  0  0  0  0  0  0  0
  188.6220  176.0640  145.0500 C   0  0  2  0  0  3  0  0  0  0  0  0
  186.9400  176.3130  146.9290 C   0  0  0  0  0  3  0  0  0  0  0  0
  189.6030  176.1210  142.0480 C   0  0  0  0  0  3  0  0  0  0  0  0
  2 16  1  0  0  0  0
  3 16  1  6  0  0  0
  3 19  1  0  0  0  0
  8 21  1  1  0  0  0
  9  2  2  0  0  0  0
  9 20  1  0  0  0  0
 10 24  1  6  0  0  0
 10  6  1  0  0  0  0
 12  3  1  0  0  0  0
 12 15  1  0  0  0  0
 13 25  2  0  0  0  0
 14 11  1  6  0  0  0
 14  8  1  0  0  0  0
 14  5  2  0  0  0  0
 15 14  1  0  0  0  0
 16 13  2  0  0  0  0
 17  6  1  0  0  0  0
 17  4  1  0  0  0  0
 18  1  1  1  0  0  0
 18 23  1  0  0  0  0
 18 22  1  0  0  0  0
 19  7  1  6  0  0  0
 19  8  1  0  0  0  0
 20 12  2  0  0  0  0
 21 24  2  0  0  0  0
 22 17  2  0  0  0  0
 23  7  1  6  0  0  0
 23 10  1  0  0  0  0
 25  1  1  0  0  0  0
M  END
>  <MODEL>
2

>  <REMARK>
 VINA RESULT:      -8.5      1.853      2.521
  Name = 
  0 active torsions:
  status: ('A' for Active; 'I' for Inactive)
                            x       y       z     vdW  Elec       q    Type
                         _______ _______ _______ _____ _____    ______ ____

>  <TORSDO>
F 0

$$$$
=
 OpenBabel11042413493D

 25 29  0  0  1  0  0  0  0  0999 V2000
  189.4990  174.8950  147.1670 C   0  0  0  0  0  2  0  0  0  0  0  0
  185.2310  177.0550  146.5960 C   0  0  0  0  0  3  0  0  0  0  0  0
  186.9090  176.9560  144.6380 C   0  0  2  0  0  3  0  0  0  0  0  0
  194.2160  174.6020  146.0410 N   0  0  0  0  0  1  0  0  0  0  0  0
  188.2060  178.6290  140.6740 O   0  0  0  0  0  0  0  0  0  0  0  0
  192.9260  176.4780  144.9410 C   0  0  0  0  0  2  0  0  0  0  0  0
  189.3190  177.4450  145.4270 C   0  0  0  0  0  2  0  0  0  0  0  0
  188.9390  177.1500  142.8790 C   0  0  2  0  0  3  0  0  0  0  0  0
  184.5540  178.0090  145.9570 C   0  0  0  0  0  3  0  0  0  0  0  0
  191.5130  176.5960  144.3870 C   0  0  1  0  0  3  0  0  0  0  0  0
  186.6290  176.5440  141.2100 N   0  0  0  0  0  1  0  0  0  0  0  0
  186.2070  178.2150  144.1420 C   0  0  0  0  0  0  0  0  0  0  0  0
  187.4040  176.1190  146.9210 C   0  0  0  0  0  0  0  0  0  0  0  0
  187.6280  177.8430  141.8280 P   0  0  2  0  0  0  0  0  0  0  0  0
  186.6250  178.9220  142.8870 C   0  0  0  0  0  2  0  0  0  0  0  0
  186.5220  176.5920  146.0740 C   0  0  0  0  0  0  0  0  0  0  0  0
  192.9820  175.2860  145.8590 C   0  0  0  0  0  0  0  0  0  0  0  0
  190.6480  175.5630  146.4270 C   0  0  1  0  0  3  0  0  0  0  0  0
  188.4290  176.8960  144.3270 C   0  0  2  0  0  3  0  0  0  0  0  0
  185.0890  178.6440  144.7390 C   0  0  0  0  0  3  0  0  0  0  0  0
  190.1930  178.0060  142.7830 C   0  0  0  0  0  3  0  0  0  0  0  0
  191.9270  174.9040  146.5220 N   0  0  0  0  0  0  0  0  0  0  0  0
  190.5100  176.5570  145.5150 C   0  0  2  0  0  3  0  0  0  0  0  0
  191.3420  177.7620  143.4460 C   0  0  0  0  0  3  0  0  0  0  0  0
  188.3820  175.7410  147.7010 C   0  0  0  0  0  3  0  0  0  0  0  0
  1 25  1  0  0  0  0
  3 12  1  1  0  0  0
  3 16  1  0  0  0  0
  6 17  1  0  0  0  0
  8 21  1  1  0  0  0
  8 19  1  0  0  0  0
  9  2  2  0  0  0  0
 10 24  1  1  0  0  0
 10  6  1  0  0  0  0
 10 23  1  0  0  0  0
 11 14  1  0  0  0  0
 12 20  2  0  0  0  0
 13 25  2  0  0  0  0
 14  5  2  6  0  0  0
 14  8  1  0  0  0  0
 14 15  1  0  0  0  0
 15 12  1  0  0  0  0
 16  2  1  0  0  0  0
 16 13  2  0  0  0  0
 17  4  1  0  0  0  0
 17 22  2  0  0  0  0
 18 22  1  0  0  0  0
 18  1  1  6  0  0  0
 19  3  1  0  0  0  0
 19  7  1  1  0  0  0
 20  9  1  0  0  0  0
 21 24  2  0  0  0  0
 23  7  1  6  0  0  0
 23 18  1  0  0  0  0
M  END
>  <MODEL>
3

>  <REMARK>
 VINA RESULT:      -8.3      2.611      4.039
  Name = 
  0 active torsions:
  status: ('A' for Active; 'I' for Inactive)
                            x       y       z     vdW  Elec       q    Type
                         _______ _______ _______ _____ _____    ______ ____

>  <TORSDO>
F 0

$$$$
=
 OpenBabel11042413493D

 25 29  0  0  1  0  0  0  0  0999 V2000
  185.3840  178.7130  141.6410 C   0  0  0  0  0  2  0  0  0  0  0  0
  184.9200  178.7290  146.4360 C   0  0  0  0  0  3  0  0  0  0  0  0
  187.0120  177.6930  145.3360 C   0  0  2  0  0  3  0  0  0  0  0  0
  187.0580  176.5740  137.6130 N   0  0  0  0  0  1  0  0  0  0  0  0
  190.5460  174.9490  145.7580 O   0  0  0  0  0  0  0  0  0  0  0  0
  187.5030  175.3560  139.7840 C   0  0  0  0  0  2  0  0  0  0  0  0
  186.3960  176.2830  143.2630 C   0  0  0  0  0  2  0  0  0  0  0  0
  188.8780  176.2730  144.0120 C   0  0  2  0  0  3  0  0  0  0  0  0
  185.2200  178.1060  147.5750 C   0  0  0  0  0  3  0  0  0  0  0  0
  187.8510  175.8160  141.1930 C   0  0  1  0  0  3  0  0  0  0  0  0
  190.3810  177.5860  146.1340 N   0  0  0  0  0  1  0  0  0  0  0  0
  187.0950  176.8420  146.5980 C   0  0  0  0  0  0  0  0  0  0  0  0
  185.0820  178.5850  144.0570 C   0  0  0  0  0  0  0  0  0  0  0  0
  189.5700  176.1010  145.6830 P   0  0  2  0  0  0  0  0  0  0  0  0
  188.1710  175.8160  146.8020 C   0  0  0  0  0  2  0  0  0  0  0  0
  185.6800  178.4390  145.2150 C   0  0  0  0  0  0  0  0  0  0  0  0
  186.9260  176.5230  139.0280 C   0  0  0  0  0  0  0  0  0  0  0  0
  186.0530  177.4690  141.0760 C   0  0  1  0  0  3  0  0  0  0  0  0
  187.4940  176.9830  144.0420 C   0  0  2  0  0  3  0  0  0  0  0  0
  186.2910  177.0950  147.6370 C   0  0  0  0  0  3  0  0  0  0  0  0
  188.8930  174.9300  143.2970 C   0  0  0  0  0  3  0  0  0  0  0  0
  186.2680  177.4620  139.6500 N   0  0  0  0  0  0  0  0  0  0  0  0
  186.6660  176.5140  141.8170 C   0  0  2  0  0  3  0  0  0  0  0  0
  188.4440  174.7220  142.0440 C   0  0  0  0  0  3  0  0  0  0  0  0
  184.5340  178.5930  142.8710 C   0  0  0  0  0  3  0  0  0  0  0  0
  1 25  1  0  0  0  0
  2  9  2  0  0  0  0
  3 16  1  6  0  0  0
  3 12  1  0  0  0  0
  4 17  1  0  0  0  0
  8 21  1  1  0  0  0
  8 19  1  0  0  0  0
  8 14  1  0  0  0  0
  9 20  1  0  0  0  0
 10  6  1  6  0  0  0
 10 23  1  0  0  0  0
 10 24  1  0  0  0  0
 12 15  1  0  0  0  0
 12 20  2  0  0  0  0
 13 16  2  0  0  0  0
 14  5  2  1  0  0  0
 14 11  1  0  0  0  0
 14 15  1  0  0  0  0
 16  2  1  0  0  0  0
 17 22  2  0  0  0  0
 17  6  1  0  0  0  0
 18  1  1  1  0  0  0
 18 23  1  0  0  0  0
 19  7  1  1  0  0  0
 19  3  1  0  0  0  0
 22 18  1  0  0  0  0
 23  7  1  1  0  0  0
 24 21  2  0  0  0  0
 25 13  2  0  0  0  0
M  END
>  <MODEL>
4

>  <REMARK>
 VINA RESULT:      -8.3      3.371      5.701
  Name = 
  0 active torsions:
  status: ('A' for Active; 'I' for Inactive)
                            x       y       z     vdW  Elec       q    Type
                         _______ _______ _______ _____ _____    ______ ____

>  <TORSDO>
F 0

$$$$
=
 OpenBabel11042413493D

 25 29  0  0  1  0  0  0  0  0999 V2000
  186.8750  177.5110  140.4370 C   0  0  0  0  0  2  0  0  0  0  0  0
  185.7000  179.2350  144.7790 C   0  0  0  0  0  3  0  0  0  0  0  0
  187.6720  177.5900  144.5250 C   0  0  2  0  0  3  0  0  0  0  0  0
  188.6600  173.9010  137.7190 N   0  0  0  0  0  1  0  0  0  0  0  0
  190.4490  174.6700  146.5140 O   0  0  0  0  0  0  0  0  0  0  0  0
  188.5040  173.4490  140.2020 C   0  0  0  0  0  2  0  0  0  0  0  0
  187.0980  175.6620  142.9060 C   0  0  0  0  0  2  0  0  0  0  0  0
  189.3800  175.5460  144.1310 C   0  0  2  0  0  3  0  0  0  0  0  0
  185.6860  179.0030  146.0920 C   0  0  0  0  0  3  0  0  0  0  0  0
  188.7220  174.3070  141.4410 C   0  0  1  0  0  3  0  0  0  0  0  0
  190.7830  177.2700  146.0140 N   0  0  0  0  0  1  0  0  0  0  0  0
  187.3820  177.2200  145.9750 C   0  0  0  0  0  0  0  0  0  0  0  0
  186.1890  178.2620  142.6530 C   0  0  0  0  0  0  0  0  0  0  0  0
  189.7580  175.8570  145.8810 P   0  0  2  0  0  0  0  0  0  0  0  0
  188.1770  176.1800  146.7090 C   0  0  0  0  0  2  0  0  0  0  0  0
  186.5600  178.4360  143.8980 C   0  0  0  0  0  0  0  0  0  0  0  0
  188.3050  174.3580  139.0180 C   0  0  0  0  0  0  0  0  0  0  0  0
  187.3480  176.0650  140.4390 C   0  0  1  0  0  3  0  0  0  0  0  0
  188.1860  176.4170  143.6460 C   0  0  2  0  0  3  0  0  0  0  0  0
  186.5000  177.9280  146.6890 C   0  0  0  0  0  3  0  0  0  0  0  0
  189.2230  174.0520  143.8870 C   0  0  0  0  0  3  0  0  0  0  0  0
  187.7720  175.5380  139.1650 N   0  0  0  0  0  0  0  0  0  0  0  0
  187.6280  175.3420  141.5520 C   0  0  2  0  0  3  0  0  0  0  0  0
  188.9360  173.4960  142.6930 C   0  0  0  0  0  3  0  0  0  0  0  0
  185.8420  177.9440  141.4340 C   0  0  0  0  0  3  0  0  0  0  0  0
  1 25  1  0  0  0  0
  2  9  2  0  0  0  0
  3 16  1  6  0  0  0
  3 12  1  0  0  0  0
  4 17  1  0  0  0  0
  8 21  1  1  0  0  0
  8 14  1  0  0  0  0
  9 20  1  0  0  0  0
 10  6  1  6  0  0  0
 10 23  1  0  0  0  0
 10 24  1  0  0  0  0
 12 20  2  0  0  0  0
 12 15  1  0  0  0  0
 13 16  2  0  0  0  0
 14 11  1  1  0  0  0
 14  5  2  0  0  0  0
 14 15  1  0  0  0  0
 16  2  1  0  0  0  0
 17 22  2  0  0  0  0
 17  6  1  0  0  0  0
 18  1  1  1  0  0  0
 18 23  1  0  0  0  0
 19  7  1  1  0  0  0
 19  8  1  0  0  0  0
 19  3  1  0  0  0  0
 22 18  1  0  0  0  0
 23  7  1  1  0  0  0
 24 21  2  0  0  0  0
 25 13  2  0  0  0  0
M  END
>  <MODEL>
5

>  <REMARK>
 VINA RESULT:      -8.1      3.566      5.121
  Name = 
  0 active torsions:
  status: ('A' for Active; 'I' for Inactive)
                            x       y       z     vdW  Elec       q    Type
                         _______ _______ _______ _____ _____    ______ ____

>  <TORSDO>
F 0

$$$$
=
 OpenBabel11042413493D

 25 29  0  0  1  0  0  0  0  0999 V2000
  187.5200  178.0010  141.6580 C   0  0  0  0  0  2  0  0  0  0  0  0
  192.0980  177.1630  142.9020 C   0  0  0  0  0  3  0  0  0  0  0  0
  190.1690  176.1970  144.3190 C   0  0  2  0  0  3  0  0  0  0  0  0
  182.8900  178.6660  142.9700 N   0  0  0  0  0  1  0  0  0  0  0  0
  188.8580  174.4720  148.2560 O   0  0  0  0  0  0  0  0  0  0  0  0
  184.5420  178.3350  144.8560 C   0  0  0  0  0  2  0  0  0  0  0  0
  188.2800  177.9260  144.6550 C   0  0  0  0  0  2  0  0  0  0  0  0
  188.0590  175.6660  145.9050 C   0  0  2  0  0  3  0  0  0  0  0  0
  192.9430  176.9250  143.9050 C   0  0  0  0  0  3  0  0  0  0  0  0
  185.7770  177.4630  145.0280 C   0  0  1  0  0  3  0  0  0  0  0  0
  189.6540  173.2310  146.0310 N   0  0  0  0  0  1  0  0  0  0  0  0
  191.1720  176.2210  145.4660 C   0  0  0  0  0  0  0  0  0  0  0  0
  189.8310  177.7020  142.3750 C   0  0  0  0  0  0  0  0  0  0  0  0
  189.3160  174.7460  146.8420 P   0  0  2  0  0  0  0  0  0  0  0  0
  190.8140  175.7700  146.8520 C   0  0  0  0  0  2  0  0  0  0  0  0
  190.6550  176.9790  143.0950 C   0  0  0  0  0  0  0  0  0  0  0  0
  184.2310  178.4420  143.3870 C   0  0  0  0  0  0  0  0  0  0  0  0
  186.5720  178.1900  142.8330 C   0  0  1  0  0  3  0  0  0  0  0  0
  188.6990  176.4700  144.7370 C   0  0  2  0  0  3  0  0  0  0  0  0
  192.4580  176.5070  145.2330 C   0  0  0  0  0  3  0  0  0  0  0  0
  187.1980  176.4880  146.8530 C   0  0  0  0  0  3  0  0  0  0  0  0
  185.1820  178.3760  142.4970 N   0  0  0  0  0  0  0  0  0  0  0  0
  186.8870  177.9550  144.1300 C   0  0  2  0  0  3  0  0  0  0  0  0
  186.1800  177.2840  146.4700 C   0  0  0  0  0  3  0  0  0  0  0  0
  188.9430  178.4570  141.7860 C   0  0  0  0  0  3  0  0  0  0  0  0
  1 25  1  0  0  0  0
  2 16  1  0  0  0  0
  2  9  2  0  0  0  0
  3 16  1  6  0  0  0
  3 19  1  0  0  0  0
  3 12  1  0  0  0  0
  4 17  1  0  0  0  0
  8 14  1  0  0  0  0
  8 21  1  1  0  0  0
  9 20  1  0  0  0  0
 10  6  1  1  0  0  0
 10 24  1  0  0  0  0
 12 15  1  0  0  0  0
 13 16  2  0  0  0  0
 14 11  1  6  0  0  0
 14 15  1  0  0  0  0
 14  5  2  0  0  0  0
 17  6  1  0  0  0  0
 18  1  1  6  0  0  0
 18 23  1  0  0  0  0
 19  7  1  1  0  0  0
 19  8  1  0  0  0  0
 20 12  2  0  0  0  0
 22 18  1  0  0  0  0
 22 17  2  0  0  0  0
 23  7  1  6  0  0  0
 23 10  1  0  0  0  0
 24 21  2  0  0  0  0
 25 13  2  0  0  0  0
M  END
>  <MODEL>
6

>  <REMARK>
 VINA RESULT:      -7.7      2.284      5.754
  Name = 
  0 active torsions:
  status: ('A' for Active; 'I' for Inactive)
                            x       y       z     vdW  Elec       q    Type
                         _______ _______ _______ _____ _____    ______ ____

>  <TORSDO>
F 0

$$$$
=
 OpenBabel11042413493D

 25 29  0  0  1  0  0  0  0  0999 V2000
  190.5990  176.4540  147.1460 C   0  0  0  0  0  2  0  0  0  0  0  0
  186.3040  177.5780  145.2760 C   0  0  0  0  0  3  0  0  0  0  0  0
  187.9040  176.0030  144.0030 C   0  0  2  0  0  3  0  0  0  0  0  0
  195.2690  175.2910  146.4830 N   0  0  0  0  0  1  0  0  0  0  0  0
  189.0380  174.1150  140.0850 O   0  0  0  0  0  0  0  0  0  0  0  0
  193.9300  175.7490  144.3870 C   0  0  0  0  0  2  0  0  0  0  0  0
  190.3410  176.8520  144.0900 C   0  0  0  0  0  2  0  0  0  0  0  0
  189.8620  174.7620  142.6320 C   0  0  2  0  0  3  0  0  0  0  0  0
  185.5990  177.7510  144.1580 C   0  0  0  0  0  3  0  0  0  0  0  0
  192.4960  175.4510  143.9720 C   0  0  1  0  0  3  0  0  0  0  0  0
  187.4910  173.1750  142.0460 N   0  0  0  0  0  1  0  0  0  0  0  0
  187.1780  176.4870  142.7530 C   0  0  0  0  0  0  0  0  0  0  0  0
  188.4920  177.1400  146.1280 C   0  0  0  0  0  0  0  0  0  0  0  0
  188.5080  174.4720  141.4560 P   0  0  2  0  0  0  0  0  0  0  0  0
  187.5440  176.0060  141.3790 C   0  0  0  0  0  2  0  0  0  0  0  0
  187.5750  176.8450  145.2390 C   0  0  0  0  0  0  0  0  0  0  0  0
  194.0270  175.6420  145.8860 C   0  0  0  0  0  0  0  0  0  0  0  0
  191.7160  176.3140  146.1230 C   0  0  1  0  0  3  0  0  0  0  0  0
  189.4110  175.6890  143.7970 C   0  0  2  0  0  3  0  0  0  0  0  0
  186.0830  177.2470  142.8600 C   0  0  0  0  0  3  0  0  0  0  0  0
  191.1090  175.2240  141.8930 C   0  0  0  0  0  3  0  0  0  0  0  0
  193.0000  175.9130  146.6420 N   0  0  0  0  0  0  0  0  0  0  0  0
  191.5390  176.2950  144.7790 C   0  0  2  0  0  3  0  0  0  0  0  0
  192.2830  175.5260  142.4820 C   0  0  0  0  0  3  0  0  0  0  0  0
  189.5010  177.4460  146.9000 C   0  0  0  0  0  3  0  0  0  0  0  0
  3 12  1  6  0  0  0
  3 16  1  0  0  0  0
  6 17  1  0  0  0  0
  8 21  1  6  0  0  0
  8 19  1  0  0  0  0
  9  2  2  0  0  0  0
 10 24  1  6  0  0  0
 10  6  1  0  0  0  0
 10 23  1  0  0  0  0
 12 20  2  0  0  0  0
 13 25  2  0  0  0  0
 14  5  2  6  0  0  0
 14 11  1  0  0  0  0
 14  8  1  0  0  0  0
 15 14  1  0  0  0  0
 15 12  1  0  0  0  0
 16  2  1  0  0  0  0
 16 13  2  0  0  0  0
 17  4  1  0  0  0  0
 17 22  2  0  0  0  0
 18 22  1  0  0  0  0
 18  1  1  1  0  0  0
 19  3  1  0  0  0  0
 19  7  1  6  0  0  0
 20  9  1  0  0  0  0
 21 24  2  0  0  0  0
 23  7  1  1  0  0  0
 23 18  1  0  0  0  0
 25  1  1  0  0  0  0
M  END
>  <MODEL>
7

>  <REMARK>
 VINA RESULT:      -7.6      3.048      4.158
  Name = 
  0 active torsions:
  status: ('A' for Active; 'I' for Inactive)
                            x       y       z     vdW  Elec       q    Type
                         _______ _______ _______ _____ _____    ______ ____

>  <TORSDO>
F 0

$$$$
=
 OpenBabel11042413493D

 25 29  0  0  1  0  0  0  0  0999 V2000
  186.9770  177.0420  140.6530 C   0  0  0  0  0  2  0  0  0  0  0  0
  186.4200  178.2920  145.2720 C   0  0  0  0  0  3  0  0  0  0  0  0
  188.4610  176.8920  144.5420 C   0  0  2  0  0  3  0  0  0  0  0  0
  188.5870  173.8640  137.3510 N   0  0  0  0  0  1  0  0  0  0  0  0
  191.7970  174.1400  145.7630 O   0  0  0  0  0  0  0  0  0  0  0  0
  188.9060  173.2080  139.7720 C   0  0  0  0  0  2  0  0  0  0  0  0
  187.7940  175.0430  142.8670 C   0  0  0  0  0  2  0  0  0  0  0  0
  190.2550  175.0770  143.6820 C   0  0  2  0  0  3  0  0  0  0  0  0
  186.6560  177.9600  146.5410 C   0  0  0  0  0  3  0  0  0  0  0  0
  189.2560  173.9860  141.0330 C   0  0  1  0  0  3  0  0  0  0  0  0
  191.7990  176.7910  145.4610 N   0  0  0  0  0  1  0  0  0  0  0  0
  188.4620  176.3830  145.9790 C   0  0  0  0  0  0  0  0  0  0  0  0
  186.6200  177.5440  143.0130 C   0  0  0  0  0  0  0  0  0  0  0  0
  190.9010  175.2910  145.3670 P   0  0  2  0  0  0  0  0  0  0  0  0
  189.4640  175.3790  146.4710 C   0  0  0  0  0  2  0  0  0  0  0  0
  187.1840  177.6600  144.1900 C   0  0  0  0  0  0  0  0  0  0  0  0
  188.4230  174.1790  138.7280 C   0  0  0  0  0  0  0  0  0  0  0  0
  187.5740  175.6590  140.4420 C   0  0  1  0  0  3  0  0  0  0  0  0
  188.9200  175.8510  143.4850 C   0  0  2  0  0  3  0  0  0  0  0  0
  187.6560  176.9350  146.8920 C   0  0  0  0  0  3  0  0  0  0  0  0
  190.1960  173.5990  143.3270 C   0  0  0  0  0  3  0  0  0  0  0  0
  187.8160  175.2810  139.0710 N   0  0  0  0  0  0  0  0  0  0  0  0
  188.1080  174.8870  141.4200 C   0  0  2  0  0  3  0  0  0  0  0  0
  189.7580  173.1080  142.1510 C   0  0  0  0  0  3  0  0  0  0  0  0
  186.0970  177.2850  141.8430 C   0  0  0  0  0  3  0  0  0  0  0  0
  1 25  1  0  0  0  0
  2  9  2  0  0  0  0
  3 16  1  6  0  0  0
  3 12  1  0  0  0  0
  4 17  1  0  0  0  0
  8 21  1  1  0  0  0
  8 14  1  0  0  0  0
  9 20  1  0  0  0  0
 10  6  1  6  0  0  0
 10 23  1  0  0  0  0
 10 24  1  0  0  0  0
 12 15  1  0  0  0  0
 12 20  2  0  0  0  0
 13 16  2  0  0  0  0
 14 11  1  1  0  0  0
 14  5  2  0  0  0  0
 14 15  1  0  0  0  0
 16  2  1  0  0  0  0
 17 22  2  0  0  0  0
 17  6  1  0  0  0  0
 18  1  1  6  0  0  0
 18 23  1  0  0  0  0
 19  7  1  1  0  0  0
 19  8  1  0  0  0  0
 19  3  1  0  0  0  0
 22 18  1  0  0  0  0
 23  7  1  1  0  0  0
 24 21  2  0  0  0  0
 25 13  2  0  0  0  0
M  END
>  <MODEL>
8

>  <REMARK>
 VINA RESULT:      -7.3      3.849      5.527
  Name = 
  0 active torsions:
  status: ('A' for Active; 'I' for Inactive)
                            x       y       z     vdW  Elec       q    Type
                         _______ _______ _______ _____ _____    ______ ____

>  <TORSDO>
F 0

$$$$
=
 OpenBabel11042413493D

 25 29  0  0  1  0  0  0  0  0999 V2000
  184.9960  177.9720  144.8420 C   0  0  0  0  0  2  0  0  0  0  0  0
  188.0030  175.5170  147.6950 C   0  0  0  0  0  3  0  0  0  0  0  0
  188.7660  176.2750  145.3490 C   0  0  2  0  0  3  0  0  0  0  0  0
  183.4500  179.0820  140.3720 N   0  0  0  0  0  1  0  0  0  0  0  0
  191.6690  175.7530  141.9590 O   0  0  0  0  0  0  0  0  0  0  0  0
  185.3150  177.3790  140.5120 C   0  0  0  0  0  2  0  0  0  0  0  0
  186.9190  175.9030  143.5830 C   0  0  0  0  0  2  0  0  0  0  0  0
  189.2200  176.7440  142.7370 C   0  0  2  0  0  3  0  0  0  0  0  0
  189.0290  174.6670  147.7450 C   0  0  0  0  0  3  0  0  0  0  0  0
  186.5330  177.2280  141.4120 C   0  0  1  0  0  3  0  0  0  0  0  0
  191.7400  177.4490  144.0170 N   0  0  0  0  0  1  0  0  0  0  0  0
  189.7280  175.0940  145.4220 C   0  0  0  0  0  0  0  0  0  0  0  0
  186.4660  176.6010  146.2220 C   0  0  0  0  0  0  0  0  0  0  0  0
  190.8850  176.1690  143.1820 P   0  0  2  0  0  0  0  0  0  0  0  0
  190.6690  174.7590  144.3030 C   0  0  0  0  0  2  0  0  0  0  0  0
  187.7050  176.2400  146.4530 C   0  0  0  0  0  0  0  0  0  0  0  0
  184.3420  178.3180  141.1750 C   0  0  0  0  0  0  0  0  0  0  0  0
  185.1170  177.6390  143.3630 C   0  0  1  0  0  3  0  0  0  0  0  0
  188.2290  176.5860  143.9260 C   0  0  2  0  0  3  0  0  0  0  0  0
  189.8680  174.4070  146.5610 C   0  0  0  0  0  3  0  0  0  0  0  0
  188.7700  176.0910  141.4380 C   0  0  0  0  0  3  0  0  0  0  0  0
  184.2780  178.4050  142.4740 N   0  0  0  0  0  0  0  0  0  0  0  0
  186.0990  176.8810  142.8160 C   0  0  2  0  0  3  0  0  0  0  0  0
  187.5810  176.3070  140.8420 C   0  0  0  0  0  3  0  0  0  0  0  0
  185.2470  176.8970  145.8570 C   0  0  0  0  0  3  0  0  0  0  0  0
  1 25  1  0  0  0  0
  2  9  2  0  0  0  0
  3 12  1  6  0  0  0
  3 16  1  0  0  0  0
  4 17  1  0  0  0  0
  6 17  1  0  0  0  0
  8 21  1  6  0  0  0
  8 14  1  0  0  0  0
  8 19  1  0  0  0  0
 10  6  1  6  0  0  0
 10 23  1  0  0  0  0
 12 20  2  0  0  0  0
 13 16  2  0  0  0  0
 14  5  2  6  0  0  0
 14 11  1  0  0  0  0
 14 15  1  0  0  0  0
 15 12  1  0  0  0  0
 16  2  1  0  0  0  0
 17 22  2  0  0  0  0
 18  1  1  1  0  0  0
 19  7  1  6  0  0  0
 19  3  1  0  0  0  0
 20  9  1  0  0  0  0
 22 18  1  0  0  0  0
 23 18  1  0  0  0  0
 23  7  1  1  0  0  0
 24 10  1  0  0  0  0
 24 21  2  0  0  0  0
 25 13  2  0  0  0  0
M  END
>  <MODEL>
9

>  <REMARK>
 VINA RESULT:      -7.3      3.081      6.826
  Name = 
  0 active torsions:
  status: ('A' for Active; 'I' for Inactive)
                            x       y       z     vdW  Elec       q    Type
                         _______ _______ _______ _____ _____    ______ ____

>  <TORSDO>
F 0

$$$$
