=
 OpenBabel11042418403D

 34 37  0  0  1  0  0  0  0  0999 V2000
  191.7080  175.8410  145.8910 C   0  0  0  0  0  0  0  0  0  0  0  0
  189.5030  176.3370  144.9150 C   0  0  1  0  0  3  0  0  0  0  0  0
  188.9370  175.2400  145.8500 C   0  0  1  0  0  3  0  0  0  0  0  0
  189.8940  174.3280  146.3490 O   0  0  0  0  0  0  0  0  0  0  0  0
  191.0140  176.4430  144.9060 C   0  0  0  0  0  0  0  0  0  0  0  0
  190.9530  175.0510  146.8100 N   0  0  0  0  0  2  0  0  0  0  0  0
  191.6440  177.3800  143.9250 C   0  0  0  0  0  1  0  0  0  0  0  0
  186.8050  177.1810  140.9200 C   0  0  0  0  0  0  0  0  0  0  0  0
  186.0880  178.2540  141.4840 C   0  0  0  0  0  3  0  0  0  0  0  0
  188.0150  176.9570  142.9980 C   0  0  0  0  0  0  0  0  0  0  0  0
  188.9640  176.1830  143.5650 N   0  0  0  0  0  0  0  0  0  0  0  0
  188.5990  175.4770  141.4830 C   0  0  0  0  0  0  0  0  0  0  0  0
  187.3280  178.0240  143.5810 C   0  0  0  0  0  3  0  0  0  0  0  0
  188.6830  174.7340  140.3120 O   0  0  0  0  0  1  0  0  0  0  0  0
  187.7670  176.5510  141.7120 C   0  0  0  0  0  0  0  0  0  0  0  0
  189.3410  175.2630  142.6410 C   0  0  0  0  0  3  0  0  0  0  0  0
  186.3480  178.6840  142.8110 C   0  0  0  0  0  0  0  0  0  0  0  0
  186.5610  176.7810  139.6130 O   0  0  0  0  0  1  0  0  0  0  0  0
  185.6640  179.7660  143.3690 O   0  0  0  0  0  0  0  0  0  0  0  0
  184.8260  179.6400  144.5120 C   0  0  0  0  0  1  0  0  0  0  0  0
  194.0880  175.0530  145.4550 N   0  0  0  0  0  2  0  0  0  0  0  0
  193.6190  176.8300  146.8820 O   0  0  0  0  0  0  0  0  0  0  0  0
  193.1740  175.9520  146.0930 C   0  0  0  0  0  0  0  0  0  0  0  0
  195.4590  175.0450  145.7530 N   0  0  0  0  0  2  0  0  0  0  0  0
  196.1770  175.2670  144.5080 C   0  0  2  0  0  3  0  0  0  0  0  0
  196.0190  176.6000  144.0910 O   0  0  0  0  0  0  0  0  0  0  0  0
  196.9160  176.7850  143.0210 C   0  0  0  0  0  2  0  0  0  0  0  0
  195.4370  174.9920  142.1590 N   0  0  0  0  0  2  0  0  0  0  0  0
  195.6820  174.2940  143.4230 C   0  0  0  0  0  2  0  0  0  0  0  0
  196.5700  175.8700  141.8340 C   0  0  0  0  0  2  0  0  0  0  0  0
  188.1300  175.8020  146.9270 N   0  0  0  0  0  2  0  0  0  0  0  0
  188.2890  177.2550  146.8790 C   0  0  0  0  0  2  0  0  0  0  0  0
  187.0400  177.8970  147.2560 N   0  0  0  0  0  2  0  0  0  0  0  0
  185.9520  176.9740  146.9540 C   0  0  0  0  0  1  0  0  0  0  0  0
  1 23  1  0  0  0  0
  1  6  1  0  0  0  0
  2 11  1  6  0  0  0
  2  3  1  0  0  0  0
  3  4  1  0  0  0  0
  3 31  1  1  0  0  0
  4  6  1  0  0  0  0
  5  2  1  0  0  0  0
  5  1  2  0  0  0  0
  7  5  1  0  0  0  0
  8  9  2  0  0  0  0
  8 15  1  0  0  0  0
  9 17  1  0  0  0  0
 10 11  1  0  0  0  0
 10 13  1  0  0  0  0
 12 15  1  0  0  0  0
 12 16  2  0  0  0  0
 14 12  1  0  0  0  0
 15 10  2  0  0  0  0
 16 11  1  0  0  0  0
 17 19  1  0  0  0  0
 17 13  2  0  0  0  0
 18  8  1  0  0  0  0
 19 20  1  0  0  0  0
 21 24  1  0  0  0  0
 21 23  1  0  0  0  0
 23 22  2  0  0  0  0
 25 24  1  1  0  0  0
 26 25  1  0  0  0  0
 27 26  1  0  0  0  0
 28 29  1  0  0  0  0
 29 25  1  0  0  0  0
 30 28  1  0  0  0  0
 30 27  1  0  0  0  0
 32 31  1  0  0  0  0
 32 33  1  0  0  0  0
 34 33  1  0  0  0  0
M  END
>  <MODEL>
1

>  <REMARK>
 VINA RESULT:      -7.4      0.000      0.000
  Name = 
  8 active torsions:
  status: ('A' for Active; 'I' for Inactive)
    1  A    between atoms: C_2  and  C_33
    2  A    between atoms: C_3  and  N_20
    3  A    between atoms: N_7  and  N_20
    4  A    between atoms: N_9  and  C_11
    5  A    between atoms: C_10  and  N_13
    6  A    between atoms: C_10  and  N_31
    7  A    between atoms: C_17  and  N_31
    8  A    between atoms: O_19  and  C_29
                            x       y       z     vdW  Elec       q    Type
                         _______ _______ _______ _____ _____    ______ ____

>  <TORSDO>
F 8

$$$$
=
 OpenBabel11042418403D

 34 37  0  0  1  0  0  0  0  0999 V2000
  192.2250  175.9540  144.3590 C   0  0  0  0  0  0  0  0  0  0  0  0
  189.7740  176.1520  144.4850 C   0  0  1  0  0  3  0  0  0  0  0  0
  189.7470  174.6210  144.7100 C   0  0  1  0  0  3  0  0  0  0  0  0
  190.9160  173.9370  144.3050 O   0  0  0  0  0  0  0  0  0  0  0  0
  191.1370  176.7170  144.1400 C   0  0  0  0  0  0  0  0  0  0  0  0
  191.9860  174.6180  144.8010 N   0  0  0  0  0  2  0  0  0  0  0  0
  191.2220  178.1640  143.7690 C   0  0  0  0  0  1  0  0  0  0  0  0
  185.8060  178.2850  142.5730 C   0  0  0  0  0  0  0  0  0  0  0  0
  185.3900  178.8710  143.7830 C   0  0  0  0  0  3  0  0  0  0  0  0
  187.6990  177.3370  143.7350 C   0  0  0  0  0  0  0  0  0  0  0  0
  188.7630  176.5420  143.5030 N   0  0  0  0  0  0  0  0  0  0  0  0
  187.6210  176.7970  141.6070 C   0  0  0  0  0  0  0  0  0  0  0  0
  187.3170  177.9130  144.9480 C   0  0  0  0  0  3  0  0  0  0  0  0
  187.2350  176.6800  140.2770 O   0  0  0  0  0  1  0  0  0  0  0  0
  186.9730  177.5180  142.5870 C   0  0  0  0  0  0  0  0  0  0  0  0
  188.7360  176.2010  142.1900 C   0  0  0  0  0  3  0  0  0  0  0  0
  186.1430  178.6950  144.9730 C   0  0  0  0  0  0  0  0  0  0  0  0
  185.0760  178.4810  141.4080 O   0  0  0  0  0  1  0  0  0  0  0  0
  185.7550  179.2970  146.1720 O   0  0  0  0  0  0  0  0  0  0  0  0
  186.0040  178.7100  147.4440 C   0  0  0  0  0  1  0  0  0  0  0  0
  194.3850  176.0730  143.0180 N   0  0  0  0  0  2  0  0  0  0  0  0
  194.1830  177.0490  145.1210 O   0  0  0  0  0  0  0  0  0  0  0  0
  193.6300  176.4020  144.1890 C   0  0  0  0  0  0  0  0  0  0  0  0
  195.7550  176.3550  142.9100 N   0  0  0  0  0  2  0  0  0  0  0  0
  196.4630  175.0840  142.9080 C   0  0  2  0  0  3  0  0  0  0  0  0
  195.6250  174.0670  142.4200 O   0  0  0  0  0  0  0  0  0  0  0  0
  196.4440  172.9350  142.2400 C   0  0  0  0  0  2  0  0  0  0  0  0
  196.6610  173.3560  144.6740 N   0  0  0  0  0  2  0  0  0  0  0  0
  196.9620  174.7460  144.3240 C   0  0  0  0  0  2  0  0  0  0  0  0
  197.0440  172.4600  143.5740 C   0  0  0  0  0  2  0  0  0  0  0  0
  189.3790  174.2760  146.0780 N   0  0  0  0  0  2  0  0  0  0  0  0
  189.4940  175.4920  146.8810 C   0  0  0  0  0  2  0  0  0  0  0  0
  190.5880  175.3510  147.8280 N   0  0  0  0  0  2  0  0  0  0  0  0
  191.2670  176.6380  147.9230 C   0  0  0  0  0  1  0  0  0  0  0  0
  1  6  1  0  0  0  0
  2 11  1  6  0  0  0
  2  3  1  0  0  0  0
  3 31  1  1  0  0  0
  4  3  1  0  0  0  0
  4  6  1  0  0  0  0
  5  1  2  0  0  0  0
  5  2  1  0  0  0  0
  7  5  1  0  0  0  0
  8 15  2  0  0  0  0
  8  9  1  0  0  0  0
  9 17  2  0  0  0  0
 10 13  2  0  0  0  0
 11 10  1  0  0  0  0
 12 16  2  0  0  0  0
 12 15  1  0  0  0  0
 13 17  1  0  0  0  0
 14 12  1  0  0  0  0
 15 10  1  0  0  0  0
 16 11  1  0  0  0  0
 17 19  1  0  0  0  0
 18  8  1  0  0  0  0
 19 20  1  0  0  0  0
 21 23  1  0  0  0  0
 23  1  1  0  0  0  0
 23 22  2  0  0  0  0
 24 21  1  0  0  0  0
 25 24  1  1  0  0  0
 25 29  1  0  0  0  0
 26 25  1  0  0  0  0
 27 26  1  0  0  0  0
 27 30  1  0  0  0  0
 29 28  1  0  0  0  0
 30 28  1  0  0  0  0
 31 32  1  0  0  0  0
 32 33  1  0  0  0  0
 33 34  1  0  0  0  0
M  END
>  <MODEL>
2

>  <REMARK>
 VINA RESULT:      -7.1      1.693      2.508
  Name = 
  8 active torsions:
  status: ('A' for Active; 'I' for Inactive)
    1  A    between atoms: C_2  and  C_33
    2  A    between atoms: C_3  and  N_20
    3  A    between atoms: N_7  and  N_20
    4  A    between atoms: N_9  and  C_11
    5  A    between atoms: C_10  and  N_13
    6  A    between atoms: C_10  and  N_31
    7  A    between atoms: C_17  and  N_31
    8  A    between atoms: O_19  and  C_29
                            x       y       z     vdW  Elec       q    Type
                         _______ _______ _______ _____ _____    ______ ____

>  <TORSDO>
F 8

$$$$
=
 OpenBabel11042418403D

 34 37  0  0  1  0  0  0  0  0999 V2000
  190.2850  176.7730  146.3560 C   0  0  0  0  0  0  0  0  0  0  0  0
  188.4470  177.3730  144.8320 C   0  0  1  0  0  3  0  0  0  0  0  0
  187.5290  176.5170  145.7390 C   0  0  1  0  0  3  0  0  0  0  0  0
  188.2020  175.5860  146.5620 O   0  0  0  0  0  0  0  0  0  0  0  0
  189.9220  177.2900  145.1660 C   0  0  0  0  0  0  0  0  0  0  0  0
  189.2360  176.2380  147.1640 N   0  0  0  0  0  2  0  0  0  0  0  0
  190.8870  177.9740  144.2510 C   0  0  0  0  0  1  0  0  0  0  0  0
  188.3450  174.9100  140.6030 C   0  0  0  0  0  0  0  0  0  0  0  0
  189.0190  173.7810  141.1060 C   0  0  0  0  0  3  0  0  0  0  0  0
  188.5120  175.9260  142.7880 C   0  0  0  0  0  0  0  0  0  0  0  0
  188.1950  177.0730  143.4230 N   0  0  0  0  0  0  0  0  0  0  0  0
  187.5190  177.2050  141.3040 C   0  0  0  0  0  0  0  0  0  0  0  0
  189.1750  174.8160  143.3180 C   0  0  0  0  0  3  0  0  0  0  0  0
  186.9700  177.6970  140.1260 O   0  0  0  0  0  1  0  0  0  0  0  0
  188.1080  175.9720  141.4790 C   0  0  0  0  0  0  0  0  0  0  0  0
  187.5750  177.8770  142.5220 C   0  0  0  0  0  3  0  0  0  0  0  0
  189.4320  173.7250  142.4630 C   0  0  0  0  0  0  0  0  0  0  0  0
  187.9240  174.9480  139.2810 O   0  0  0  0  0  1  0  0  0  0  0  0
  190.0750  172.5970  142.9780 O   0  0  0  0  0  0  0  0  0  0  0  0
  190.0130  171.3220  142.3500 C   0  0  0  0  0  1  0  0  0  0  0  0
  192.7680  176.2960  146.0730 N   0  0  0  0  0  2  0  0  0  0  0  0
  191.8790  177.0510  148.0860 O   0  0  0  0  0  0  0  0  0  0  0  0
  191.6720  176.7330  146.8820 C   0  0  0  0  0  0  0  0  0  0  0  0
  194.0560  176.1060  146.5980 N   0  0  0  0  0  2  0  0  0  0  0  0
  194.9150  175.6830  145.5030 C   0  0  2  0  0  3  0  0  0  0  0  0
  195.1850  176.7710  144.6550 O   0  0  0  0  0  0  0  0  0  0  0  0
  196.1890  176.3370  143.7670 C   0  0  0  0  0  2  0  0  0  0  0  0
  194.3400  174.7610  143.2760 N   0  0  0  0  0  2  0  0  0  0  0  0
  194.2600  174.5320  144.7200 C   0  0  0  0  0  2  0  0  0  0  0  0
  195.7010  175.1650  142.8990 C   0  0  0  0  0  2  0  0  0  0  0  0
  186.6070  177.3390  146.5140 N   0  0  0  0  0  2  0  0  0  0  0  0
  185.2580  176.8310  146.2700 C   0  0  0  0  0  2  0  0  0  0  0  0
  184.2970  177.9140  146.3920 N   0  0  0  0  0  2  0  0  0  0  0  0
  184.6630  178.9490  145.4320 C   0  0  0  0  0  1  0  0  0  0  0  0
  1 23  1  0  0  0  0
  1  6  1  0  0  0  0
  2 11  1  6  0  0  0
  2  5  1  0  0  0  0
  2  3  1  0  0  0  0
  3 31  1  1  0  0  0
  3  4  1  0  0  0  0
  4  6  1  0  0  0  0
  5  1  2  0  0  0  0
  7  5  1  0  0  0  0
  8  9  2  0  0  0  0
  8 15  1  0  0  0  0
  9 17  1  0  0  0  0
 10 13  1  0  0  0  0
 10 11  1  0  0  0  0
 12 15  1  0  0  0  0
 12 16  2  0  0  0  0
 14 12  1  0  0  0  0
 15 10  2  0  0  0  0
 16 11  1  0  0  0  0
 17 19  1  0  0  0  0
 17 13  2  0  0  0  0
 18  8  1  0  0  0  0
 20 19  1  0  0  0  0
 21 24  1  0  0  0  0
 21 23  1  0  0  0  0
 23 22  2  0  0  0  0
 25 24  1  1  0  0  0
 26 25  1  0  0  0  0
 27 26  1  0  0  0  0
 28 29  1  0  0  0  0
 29 25  1  0  0  0  0
 30 28  1  0  0  0  0
 30 27  1  0  0  0  0
 32 33  1  0  0  0  0
 32 31  1  0  0  0  0
 34 33  1  0  0  0  0
M  END
>  <MODEL>
3

>  <REMARK>
 VINA RESULT:      -6.9      1.688      3.306
  Name = 
  8 active torsions:
  status: ('A' for Active; 'I' for Inactive)
    1  A    between atoms: C_2  and  C_33
    2  A    between atoms: C_3  and  N_20
    3  A    between atoms: N_7  and  N_20
    4  A    between atoms: N_9  and  C_11
    5  A    between atoms: C_10  and  N_13
    6  A    between atoms: C_10  and  N_31
    7  A    between atoms: C_17  and  N_31
    8  A    between atoms: O_19  and  C_29
                            x       y       z     vdW  Elec       q    Type
                         _______ _______ _______ _____ _____    ______ ____

>  <TORSDO>
F 8

$$$$
=
 OpenBabel11042418403D

 34 37  0  0  1  0  0  0  0  0999 V2000
  188.3840  176.6090  142.2420 C   0  0  0  0  0  0  0  0  0  0  0  0
  190.5910  175.5220  142.3480 C   0  0  1  0  0  3  0  0  0  0  0  0
  189.8540  174.1890  142.0670 C   0  0  1  0  0  3  0  0  0  0  0  0
  188.4660  174.2060  142.3360 O   0  0  0  0  0  0  0  0  0  0  0  0
  189.6820  176.7090  142.5890 C   0  0  0  0  0  0  0  0  0  0  0  0
  187.9490  175.3320  141.7720 N   0  0  0  0  0  2  0  0  0  0  0  0
  190.3110  178.0000  143.0070 C   0  0  0  0  0  1  0  0  0  0  0  0
  194.8570  175.5300  144.7470 C   0  0  0  0  0  0  0  0  0  0  0  0
  195.6160  175.9550  143.6390 C   0  0  0  0  0  3  0  0  0  0  0  0
  192.8790  175.6050  143.3620 C   0  0  0  0  0  0  0  0  0  0  0  0
  191.5570  175.3520  143.4330 N   0  0  0  0  0  0  0  0  0  0  0  0
  192.4820  174.9380  145.4170 C   0  0  0  0  0  0  0  0  0  0  0  0
  193.6040  176.0370  142.2490 C   0  0  0  0  0  3  0  0  0  0  0  0
  192.6310  174.5670  146.7480 O   0  0  0  0  0  1  0  0  0  0  0  0
  193.4820  175.3630  144.5690 C   0  0  0  0  0  0  0  0  0  0  0  0
  191.2890  174.9410  144.6980 C   0  0  0  0  0  3  0  0  0  0  0  0
  194.9960  176.2160  142.3900 C   0  0  0  0  0  0  0  0  0  0  0  0
  195.4670  175.2990  145.9720 O   0  0  0  0  0  1  0  0  0  0  0  0
  195.7360  176.6670  141.2940 O   0  0  0  0  0  0  0  0  0  0  0  0
  196.3790  175.7820  140.3840 C   0  0  0  0  0  1  0  0  0  0  0  0
  186.9530  178.2590  143.5480 N   0  0  0  0  0  2  0  0  0  0  0  0
  186.9030  178.1520  141.2250 O   0  0  0  0  0  0  0  0  0  0  0  0
  187.3960  177.7140  142.3010 C   0  0  0  0  0  0  0  0  0  0  0  0
  185.9110  179.1950  143.6270 N   0  0  0  0  0  2  0  0  0  0  0  0
  185.5380  179.3140  145.0280 C   0  0  2  0  0  3  0  0  0  0  0  0
  186.4390  178.5930  145.8300 O   0  0  0  0  0  0  0  0  0  0  0  0
  186.1460  178.9420  147.1620 C   0  0  0  0  0  2  0  0  0  0  0  0
  184.0130  177.9310  146.4060 N   0  0  0  0  0  2  0  0  0  0  0  0
  184.0980  178.8180  145.2440 C   0  0  0  0  0  2  0  0  0  0  0  0
  184.7180  178.5220  147.5510 C   0  0  0  0  0  2  0  0  0  0  0  0
  190.1260  173.6870  140.7260 N   0  0  0  0  0  2  0  0  0  0  0  0
  189.5910  172.3280  140.6510 C   0  0  0  0  0  2  0  0  0  0  0  0
  189.1470  172.0500  139.2950 N   0  0  0  0  0  2  0  0  0  0  0  0
  188.4180  173.2180  138.8140 C   0  0  0  0  0  1  0  0  0  0  0  0
  1 23  1  0  0  0  0
  1  5  2  0  0  0  0
  2  5  1  0  0  0  0
  2 11  1  1  0  0  0
  3 31  1  6  0  0  0
  3  4  1  0  0  0  0
  3  2  1  0  0  0  0
  5  7  1  0  0  0  0
  6  1  1  0  0  0  0
  6  4  1  0  0  0  0
  8 18  1  0  0  0  0
  9  8  2  0  0  0  0
 10 11  1  0  0  0  0
 10 15  2  0  0  0  0
 11 16  1  0  0  0  0
 12 14  1  0  0  0  0
 13 17  2  0  0  0  0
 13 10  1  0  0  0  0
 15  8  1  0  0  0  0
 15 12  1  0  0  0  0
 16 12  2  0  0  0  0
 17  9  1  0  0  0  0
 19 17  1  0  0  0  0
 20 19  1  0  0  0  0
 21 24  1  0  0  0  0
 22 23  2  0  0  0  0
 23 21  1  0  0  0  0
 25 24  1  6  0  0  0
 25 29  1  0  0  0  0
 25 26  1  0  0  0  0
 26 27  1  0  0  0  0
 27 30  1  0  0  0  0
 28 30  1  0  0  0  0
 29 28  1  0  0  0  0
 32 31  1  0  0  0  0
 33 32  1  0  0  0  0
 34 33  1  0  0  0  0
M  END
>  <MODEL>
4

>  <REMARK>
 VINA RESULT:      -6.7      2.477      8.514
  Name = 
  8 active torsions:
  status: ('A' for Active; 'I' for Inactive)
    1  A    between atoms: C_2  and  C_33
    2  A    between atoms: C_3  and  N_20
    3  A    between atoms: N_7  and  N_20
    4  A    between atoms: N_9  and  C_11
    5  A    between atoms: C_10  and  N_13
    6  A    between atoms: C_10  and  N_31
    7  A    between atoms: C_17  and  N_31
    8  A    between atoms: O_19  and  C_29
                            x       y       z     vdW  Elec       q    Type
                         _______ _______ _______ _____ _____    ______ ____

>  <TORSDO>
F 8

$$$$
=
 OpenBabel11042418403D

 34 37  0  0  1  0  0  0  0  0999 V2000
  188.2230  175.6900  142.5230 C   0  0  0  0  0  0  0  0  0  0  0  0
  190.6170  175.2240  142.1890 C   0  0  1  0  0  3  0  0  0  0  0  0
  190.2610  173.7260  142.3490 C   0  0  1  0  0  3  0  0  0  0  0  0
  189.0260  173.4700  142.9870 O   0  0  0  0  0  0  0  0  0  0  0  0
  189.4770  176.1800  142.4740 C   0  0  0  0  0  0  0  0  0  0  0  0
  188.0890  174.2730  142.4110 N   0  0  0  0  0  2  0  0  0  0  0  0
  189.7760  177.6460  142.4800 C   0  0  0  0  0  1  0  0  0  0  0  0
  193.4720  176.0540  146.0770 C   0  0  0  0  0  0  0  0  0  0  0  0
  192.4460  175.8660  147.0210 C   0  0  0  0  0  3  0  0  0  0  0  0
  191.8760  175.6060  144.3200 C   0  0  0  0  0  0  0  0  0  0  0  0
  191.8060  175.5530  142.9750 N   0  0  0  0  0  0  0  0  0  0  0  0
  193.8900  176.0640  143.5730 C   0  0  0  0  0  0  0  0  0  0  0  0
  190.8390  175.4040  145.2340 C   0  0  0  0  0  3  0  0  0  0  0  0
  195.2380  176.3920  143.4970 O   0  0  0  0  0  1  0  0  0  0  0  0
  193.1480  175.9160  144.7250 C   0  0  0  0  0  0  0  0  0  0  0  0
  193.0440  175.8290  142.4930 C   0  0  0  0  0  3  0  0  0  0  0  0
  191.1290  175.5350  146.6080 C   0  0  0  0  0  0  0  0  0  0  0  0
  194.7630  176.3550  146.4900 O   0  0  0  0  0  1  0  0  0  0  0  0
  190.1110  175.3170  147.5390 O   0  0  0  0  0  0  0  0  0  0  0  0
  188.9580  174.5350  147.2500 C   0  0  0  0  0  1  0  0  0  0  0  0
  186.4590  176.8330  143.9570 N   0  0  0  0  0  2  0  0  0  0  0  0
  186.3800  176.8830  141.6330 O   0  0  0  0  0  0  0  0  0  0  0  0
  186.9920  176.5070  142.6700 C   0  0  0  0  0  0  0  0  0  0  0  0
  185.2180  177.4700  144.1120 N   0  0  0  0  0  2  0  0  0  0  0  0
  185.0990  177.8580  145.5090 C   0  0  2  0  0  3  0  0  0  0  0  0
  186.0610  178.8330  145.8220 O   0  0  0  0  0  0  0  0  0  0  0  0
  185.7340  179.3090  147.1070 C   0  0  0  0  0  2  0  0  0  0  0  0
  186.1620  176.9050  147.5350 N   0  0  0  0  0  2  0  0  0  0  0  0
  185.2510  176.6290  146.4220 C   0  0  0  0  0  2  0  0  0  0  0  0
  185.8260  178.1920  148.1600 C   0  0  0  0  0  2  0  0  0  0  0  0
  190.3640  173.0020  141.0870 N   0  0  0  0  0  2  0  0  0  0  0  0
  191.0800  171.7560  141.3550 C   0  0  0  0  0  2  0  0  0  0  0  0
  192.2090  172.0190  142.2320 N   0  0  0  0  0  2  0  0  0  0  0  0
  193.4080  172.1040  141.4070 C   0  0  0  0  0  1  0  0  0  0  0  0
  1 23  1  0  0  0  0
  2  3  1  0  0  0  0
  2  5  1  0  0  0  0
  2 11  1  1  0  0  0
  3 31  1  6  0  0  0
  3  4  1  0  0  0  0
  5  7  1  0  0  0  0
  5  1  2  0  0  0  0
  6  1  1  0  0  0  0
  6  4  1  0  0  0  0
  8 18  1  0  0  0  0
  8  9  1  0  0  0  0
 10 15  1  0  0  0  0
 10 13  2  0  0  0  0
 11 10  1  0  0  0  0
 12 15  1  0  0  0  0
 13 17  1  0  0  0  0
 14 12  1  0  0  0  0
 15  8  2  0  0  0  0
 16 11  1  0  0  0  0
 16 12  2  0  0  0  0
 17  9  2  0  0  0  0
 17 19  1  0  0  0  0
 20 19  1  0  0  0  0
 21 24  1  0  0  0  0
 22 23  2  0  0  0  0
 23 21  1  0  0  0  0
 25 24  1  6  0  0  0
 25 26  1  0  0  0  0
 25 29  1  0  0  0  0
 26 27  1  0  0  0  0
 27 30  1  0  0  0  0
 28 30  1  0  0  0  0
 29 28  1  0  0  0  0
 31 32  1  0  0  0  0
 32 33  1  0  0  0  0
 34 33  1  0  0  0  0
M  END
>  <MODEL>
5

>  <REMARK>
 VINA RESULT:      -6.6      2.304      7.899
  Name = 
  8 active torsions:
  status: ('A' for Active; 'I' for Inactive)
    1  A    between atoms: C_2  and  C_33
    2  A    between atoms: C_3  and  N_20
    3  A    between atoms: N_7  and  N_20
    4  A    between atoms: N_9  and  C_11
    5  A    between atoms: C_10  and  N_13
    6  A    between atoms: C_10  and  N_31
    7  A    between atoms: C_17  and  N_31
    8  A    between atoms: O_19  and  C_29
                            x       y       z     vdW  Elec       q    Type
                         _______ _______ _______ _____ _____    ______ ____

>  <TORSDO>
F 8

$$$$
=
 OpenBabel11042418403D

 34 37  0  0  1  0  0  0  0  0999 V2000
  191.4040  175.7510  145.1660 C   0  0  0  0  0  0  0  0  0  0  0  0
  189.1530  176.5700  144.5960 C   0  0  1  0  0  3  0  0  0  0  0  0
  189.8560  177.6870  143.7870 C   0  0  1  0  0  3  0  0  0  0  0  0
  191.2070  177.9160  144.1350 O   0  0  0  0  0  0  0  0  0  0  0  0
  190.0820  175.7070  145.4240 C   0  0  0  0  0  0  0  0  0  0  0  0
  191.8300  176.7060  144.1940 N   0  0  0  0  0  2  0  0  0  0  0  0
  189.4690  174.6980  146.3430 C   0  0  0  0  0  1  0  0  0  0  0  0
  184.7670  178.3910  145.7810 C   0  0  0  0  0  0  0  0  0  0  0  0
  184.2630  178.3540  144.4670 C   0  0  0  0  0  3  0  0  0  0  0  0
  186.8480  177.4790  144.9600 C   0  0  0  0  0  0  0  0  0  0  0  0
  188.0720  177.1300  145.4060 N   0  0  0  0  0  0  0  0  0  0  0  0
  186.8620  177.8800  147.1200 C   0  0  0  0  0  0  0  0  0  0  0  0
  186.3720  177.4210  143.6490 C   0  0  0  0  0  3  0  0  0  0  0  0
  186.4950  178.2620  148.4050 O   0  0  0  0  0  1  0  0  0  0  0  0
  186.0730  177.9440  145.9910 C   0  0  0  0  0  0  0  0  0  0  0  0
  188.1000  177.3670  146.7420 C   0  0  0  0  0  3  0  0  0  0  0  0
  185.0570  177.8640  143.3970 C   0  0  0  0  0  0  0  0  0  0  0  0
  183.9760  178.8500  146.8260 O   0  0  0  0  0  1  0  0  0  0  0  0
  184.5550  177.7950  142.0960 O   0  0  0  0  0  0  0  0  0  0  0  0
  185.3450  178.0890  140.9500 C   0  0  0  0  0  1  0  0  0  0  0  0
  193.0190  173.7860  145.0960 N   0  0  0  0  0  2  0  0  0  0  0  0
  192.7470  175.0920  147.0020 O   0  0  0  0  0  0  0  0  0  0  0  0
  192.4270  174.8830  145.8000 C   0  0  0  0  0  0  0  0  0  0  0  0
  193.8700  172.8660  145.7270 N   0  0  0  0  0  2  0  0  0  0  0  0
  195.2070  173.0700  145.1900 C   0  0  2  0  0  3  0  0  0  0  0  0
  195.9070  173.9970  145.9800 O   0  0  0  0  0  0  0  0  0  0  0  0
  197.2420  173.9650  145.5330 C   0  0  0  0  0  2  0  0  0  0  0  0
  196.0250  174.6810  143.4950 N   0  0  0  0  0  2  0  0  0  0  0  0
  195.1310  173.5460  143.7280 C   0  0  0  0  0  2  0  0  0  0  0  0
  197.3520  174.4090  144.0640 C   0  0  0  0  0  2  0  0  0  0  0  0
  189.7050  177.4990  142.3500 N   0  0  0  0  0  2  0  0  0  0  0  0
  189.3550  176.0970  142.1270 C   0  0  0  0  0  2  0  0  0  0  0  0
  188.2990  176.0080  141.1320 N   0  0  0  0  0  2  0  0  0  0  0  0
  188.3390  174.6700  140.5530 C   0  0  0  0  0  1  0  0  0  0  0  0
  1  5  2  0  0  0  0
  1 23  1  0  0  0  0
  2 11  1  1  0  0  0
  2  5  1  0  0  0  0
  3 31  1  6  0  0  0
  3  4  1  0  0  0  0
  3  2  1  0  0  0  0
  4  6  1  0  0  0  0
  5  7  1  0  0  0  0
  6  1  1  0  0  0  0
  8 15  1  0  0  0  0
  8 18  1  0  0  0  0
  9  8  2  0  0  0  0
 10 11  1  0  0  0  0
 10 15  2  0  0  0  0
 11 16  1  0  0  0  0
 12 14  1  0  0  0  0
 13 10  1  0  0  0  0
 15 12  1  0  0  0  0
 16 12  2  0  0  0  0
 17 13  2  0  0  0  0
 17  9  1  0  0  0  0
 19 17  1  0  0  0  0
 20 19  1  0  0  0  0
 21 24  1  0  0  0  0
 21 23  1  0  0  0  0
 23 22  2  0  0  0  0
 25 24  1  1  0  0  0
 25 26  1  0  0  0  0
 27 26  1  0  0  0  0
 28 29  1  0  0  0  0
 28 30  1  0  0  0  0
 29 25  1  0  0  0  0
 30 27  1  0  0  0  0
 32 31  1  0  0  0  0
 33 32  1  0  0  0  0
 34 33  1  0  0  0  0
M  END
>  <MODEL>
6

>  <REMARK>
 VINA RESULT:      -6.6      2.104      4.113
  Name = 
  8 active torsions:
  status: ('A' for Active; 'I' for Inactive)
    1  A    between atoms: C_2  and  C_33
    2  A    between atoms: C_3  and  N_20
    3  A    between atoms: N_7  and  N_20
    4  A    between atoms: N_9  and  C_11
    5  A    between atoms: C_10  and  N_13
    6  A    between atoms: C_10  and  N_31
    7  A    between atoms: C_17  and  N_31
    8  A    between atoms: O_19  and  C_29
                            x       y       z     vdW  Elec       q    Type
                         _______ _______ _______ _____ _____    ______ ____

>  <TORSDO>
F 8

$$$$
=
 OpenBabel11042418403D

 34 37  0  0  1  0  0  0  0  0999 V2000
  188.6500  176.2940  145.5460 C   0  0  0  0  0  0  0  0  0  0  0  0
  190.7560  175.3480  144.6890 C   0  0  1  0  0  3  0  0  0  0  0  0
  190.5810  174.2260  145.7420 C   0  0  1  0  0  3  0  0  0  0  0  0
  189.7050  174.5370  146.8070 O   0  0  0  0  0  0  0  0  0  0  0  0
  189.7560  176.4800  144.8000 C   0  0  0  0  0  0  0  0  0  0  0  0
  188.5710  175.0640  146.2680 N   0  0  0  0  0  2  0  0  0  0  0  0
  189.9440  177.6700  143.9120 C   0  0  0  0  0  1  0  0  0  0  0  0
  195.3230  176.2340  143.1690 C   0  0  0  0  0  0  0  0  0  0  0  0
  195.1860  175.5250  141.9610 C   0  0  0  0  0  3  0  0  0  0  0  0
  193.0360  175.6720  143.7050 C   0  0  0  0  0  0  0  0  0  0  0  0
  192.1330  175.8400  144.6920 N   0  0  0  0  0  0  0  0  0  0  0  0
  194.0330  176.8530  145.2660 C   0  0  0  0  0  0  0  0  0  0  0  0
  192.8670  174.9690  142.5090 C   0  0  0  0  0  3  0  0  0  0  0  0
  194.9730  177.5710  145.9940 O   0  0  0  0  0  1  0  0  0  0  0  0
  194.2190  176.2850  144.0230 C   0  0  0  0  0  0  0  0  0  0  0  0
  192.7290  176.5720  145.6660 C   0  0  0  0  0  3  0  0  0  0  0  0
  193.9610  174.8950  141.6210 C   0  0  0  0  0  0  0  0  0  0  0  0
  196.5180  176.8670  143.4840 O   0  0  0  0  0  1  0  0  0  0  0  0
  193.8060  174.2150  140.4110 O   0  0  0  0  0  0  0  0  0  0  0  0
  192.5630  173.6670  139.9900 C   0  0  0  0  0  1  0  0  0  0  0  0
  186.6710  177.5390  144.5440 N   0  0  0  0  0  2  0  0  0  0  0  0
  187.3430  177.8620  146.7480 O   0  0  0  0  0  0  0  0  0  0  0  0
  187.5240  177.2530  145.6570 C   0  0  0  0  0  0  0  0  0  0  0  0
  185.7010  178.5530  144.5870 N   0  0  0  0  0  2  0  0  0  0  0  0
  185.2520  178.7850  143.2230 C   0  0  2  0  0  3  0  0  0  0  0  0
  184.2350  177.8740  142.8890 O   0  0  0  0  0  0  0  0  0  0  0  0
  183.7090  178.3070  141.6570 C   0  0  0  0  0  2  0  0  0  0  0  0
  186.0760  177.8480  141.0820 N   0  0  0  0  0  2  0  0  0  0  0  0
  186.4320  178.6680  142.2420 C   0  0  0  0  0  2  0  0  0  0  0  0
  184.7730  178.2630  140.5460 C   0  0  0  0  0  2  0  0  0  0  0  0
  190.2350  172.9490  145.1280 N   0  0  0  0  0  2  0  0  0  0  0  0
  189.9410  173.2070  143.7190 C   0  0  0  0  0  2  0  0  0  0  0  0
  189.2880  172.0470  143.1350 N   0  0  0  0  0  2  0  0  0  0  0  0
  190.2870  171.3030  142.3790 C   0  0  0  0  0  1  0  0  0  0  0  0
  1 23  1  0  0  0  0
  1  6  1  0  0  0  0
  2 11  1  1  0  0  0
  2  5  1  0  0  0  0
  2  3  1  0  0  0  0
  3 31  1  6  0  0  0
  3  4  1  0  0  0  0
  5  1  2  0  0  0  0
  6  4  1  0  0  0  0
  7  5  1  0  0  0  0
  8 18  1  0  0  0  0
  8 15  1  0  0  0  0
  9  8  2  0  0  0  0
 10 15  2  0  0  0  0
 10 11  1  0  0  0  0
 11 16  1  0  0  0  0
 12 16  2  0  0  0  0
 12 14  1  0  0  0  0
 13 10  1  0  0  0  0
 15 12  1  0  0  0  0
 17  9  1  0  0  0  0
 17 13  2  0  0  0  0
 19 17  1  0  0  0  0
 20 19  1  0  0  0  0
 21 24  1  0  0  0  0
 21 23  1  0  0  0  0
 23 22  2  0  0  0  0
 25 24  1  1  0  0  0
 26 25  1  0  0  0  0
 27 26  1  0  0  0  0
 28 29  1  0  0  0  0
 29 25  1  0  0  0  0
 30 28  1  0  0  0  0
 30 27  1  0  0  0  0
 32 31  1  0  0  0  0
 33 32  1  0  0  0  0
 34 33  1  0  0  0  0
M  END
>  <MODEL>
7

>  <REMARK>
 VINA RESULT:      -6.5      2.515      7.863
  Name = 
  8 active torsions:
  status: ('A' for Active; 'I' for Inactive)
    1  A    between atoms: C_2  and  C_33
    2  A    between atoms: C_3  and  N_20
    3  A    between atoms: N_7  and  N_20
    4  A    between atoms: N_9  and  C_11
    5  A    between atoms: C_10  and  N_13
    6  A    between atoms: C_10  and  N_31
    7  A    between atoms: C_17  and  N_31
    8  A    between atoms: O_19  and  C_29
                            x       y       z     vdW  Elec       q    Type
                         _______ _______ _______ _____ _____    ______ ____

>  <TORSDO>
F 8

$$$$
=
 OpenBabel11042418403D

 34 37  0  0  1  0  0  0  0  0999 V2000
  189.5150  176.4960  145.6370 C   0  0  0  0  0  0  0  0  0  0  0  0
  191.3500  175.0060  144.9470 C   0  0  1  0  0  3  0  0  0  0  0  0
  191.7060  176.0750  143.8850 C   0  0  1  0  0  3  0  0  0  0  0  0
  190.6670  176.9840  143.5810 O   0  0  0  0  0  0  0  0  0  0  0  0
  190.0620  175.2670  145.7010 C   0  0  0  0  0  0  0  0  0  0  0  0
  190.1490  177.4280  144.7600 N   0  0  0  0  0  2  0  0  0  0  0  0
  189.5750  174.2110  146.6420 C   0  0  0  0  0  1  0  0  0  0  0  0
  192.8370  170.4650  143.8840 C   0  0  0  0  0  0  0  0  0  0  0  0
  194.0220  170.5480  144.6390 C   0  0  0  0  0  3  0  0  0  0  0  0
  192.3100  172.7270  144.5480 C   0  0  0  0  0  0  0  0  0  0  0  0
  191.3660  173.6700  144.3520 N   0  0  0  0  0  0  0  0  0  0  0  0
  190.8120  171.8390  143.2100 C   0  0  0  0  0  0  0  0  0  0  0  0
  193.4740  172.8350  145.3130 C   0  0  0  0  0  3  0  0  0  0  0  0
  190.1210  170.9650  142.3800 O   0  0  0  0  0  1  0  0  0  0  0  0
  191.9990  171.5830  143.8600 C   0  0  0  0  0  0  0  0  0  0  0  0
  190.4270  173.1380  143.5290 C   0  0  0  0  0  3  0  0  0  0  0  0
  194.3440  171.7270  145.3610 C   0  0  0  0  0  0  0  0  0  0  0  0
  192.5170  169.3010  143.1990 O   0  0  0  0  0  1  0  0  0  0  0  0
  195.5020  171.8070  146.1360 O   0  0  0  0  0  0  0  0  0  0  0  0
  196.6390  172.5690  145.7460 C   0  0  0  0  0  1  0  0  0  0  0  0
  187.0250  176.4170  146.1530 N   0  0  0  0  0  2  0  0  0  0  0  0
  188.4740  177.8470  147.2800 O   0  0  0  0  0  0  0  0  0  0  0  0
  188.3310  176.9450  146.4090 C   0  0  0  0  0  0  0  0  0  0  0  0
  185.8750  176.9390  146.7650 N   0  0  0  0  0  2  0  0  0  0  0  0
  185.1630  177.7170  145.7630 C   0  0  2  0  0  3  0  0  0  0  0  0
  185.4810  177.2500  144.4760 O   0  0  0  0  0  0  0  0  0  0  0  0
  184.5920  177.8940  143.5940 C   0  0  0  0  0  2  0  0  0  0  0  0
  185.8070  179.8070  144.5990 N   0  0  0  0  0  2  0  0  0  0  0  0
  185.5040  179.2110  145.9010 C   0  0  0  0  0  2  0  0  0  0  0  0
  184.7900  179.4190  143.6120 C   0  0  0  0  0  2  0  0  0  0  0  0
  192.9440  176.7740  144.2080 N   0  0  0  0  0  2  0  0  0  0  0  0
  194.0360  176.0520  143.5580 C   0  0  0  0  0  2  0  0  0  0  0  0
  195.1980  176.0310  144.4310 N   0  0  0  0  0  2  0  0  0  0  0  0
  194.7770  176.4920  145.7490 C   0  0  0  0  0  1  0  0  0  0  0  0
  1  5  2  0  0  0  0
  1 23  1  0  0  0  0
  2 11  1  6  0  0  0
  2  5  1  0  0  0  0
  3 31  1  1  0  0  0
  3  2  1  0  0  0  0
  4  3  1  0  0  0  0
  4  6  1  0  0  0  0
  5  7  1  0  0  0  0
  6  1  1  0  0  0  0
  8  9  1  0  0  0  0
  9 17  2  0  0  0  0
 10 13  2  0  0  0  0
 11 10  1  0  0  0  0
 12 16  2  0  0  0  0
 12 15  1  0  0  0  0
 13 17  1  0  0  0  0
 14 12  1  0  0  0  0
 15  8  2  0  0  0  0
 15 10  1  0  0  0  0
 16 11  1  0  0  0  0
 17 19  1  0  0  0  0
 18  8  1  0  0  0  0
 20 19  1  0  0  0  0
 21 23  1  0  0  0  0
 21 24  1  0  0  0  0
 23 22  2  0  0  0  0
 25 29  1  0  0  0  0
 25 24  1  1  0  0  0
 26 25  1  0  0  0  0
 27 30  1  0  0  0  0
 27 26  1  0  0  0  0
 28 29  1  0  0  0  0
 30 28  1  0  0  0  0
 32 31  1  0  0  0  0
 32 33  1  0  0  0  0
 33 34  1  0  0  0  0
M  END
>  <MODEL>
8

>  <REMARK>
 VINA RESULT:      -6.5      3.064      8.282
  Name = 
  8 active torsions:
  status: ('A' for Active; 'I' for Inactive)
    1  A    between atoms: C_2  and  C_33
    2  A    between atoms: C_3  and  N_20
    3  A    between atoms: N_7  and  N_20
    4  A    between atoms: N_9  and  C_11
    5  A    between atoms: C_10  and  N_13
    6  A    between atoms: C_10  and  N_31
    7  A    between atoms: C_17  and  N_31
    8  A    between atoms: O_19  and  C_29
                            x       y       z     vdW  Elec       q    Type
                         _______ _______ _______ _____ _____    ______ ____

>  <TORSDO>
F 8

$$$$
=
 OpenBabel11042418403D

 34 37  0  0  1  0  0  0  0  0999 V2000
  185.1050  177.9670  142.8370 C   0  0  0  0  0  0  0  0  0  0  0  0
  187.0610  176.9130  143.8980 C   0  0  1  0  0  3  0  0  0  0  0  0
  186.6350  177.6310  145.2020 C   0  0  1  0  0  3  0  0  0  0  0  0
  185.7650  178.7310  145.0210 O   0  0  0  0  0  0  0  0  0  0  0  0
  186.2680  177.3080  142.6690 C   0  0  0  0  0  0  0  0  0  0  0  0
  184.7730  178.3380  144.1750 N   0  0  0  0  0  2  0  0  0  0  0  0
  186.7100  176.7680  141.3460 C   0  0  0  0  0  1  0  0  0  0  0  0
  191.6980  175.7350  142.8640 C   0  0  0  0  0  0  0  0  0  0  0  0
  191.4360  174.3630  142.6890 C   0  0  0  0  0  3  0  0  0  0  0  0
  189.3550  176.0740  143.3410 C   0  0  0  0  0  0  0  0  0  0  0  0
  188.5000  177.0600  143.6820 N   0  0  0  0  0  0  0  0  0  0  0  0
  190.5450  177.9160  143.4590 C   0  0  0  0  0  0  0  0  0  0  0  0
  189.0630  174.7200  143.1640 C   0  0  0  0  0  3  0  0  0  0  0  0
  191.5970  178.8240  143.4420 O   0  0  0  0  0  1  0  0  0  0  0  0
  190.6250  176.5660  143.1930 C   0  0  0  0  0  0  0  0  0  0  0  0
  189.2170  178.2100  143.7570 C   0  0  0  0  0  3  0  0  0  0  0  0
  190.1210  173.8490  142.8320 C   0  0  0  0  0  0  0  0  0  0  0  0
  192.9830  176.2340  142.7000 O   0  0  0  0  0  1  0  0  0  0  0  0
  189.8470  172.4940  142.6310 O   0  0  0  0  0  0  0  0  0  0  0  0
  189.6950  171.9240  141.3360 C   0  0  0  0  0  1  0  0  0  0  0  0
  182.7400  178.2160  141.9320 N   0  0  0  0  0  2  0  0  0  0  0  0
  184.6140  178.6650  140.6270 O   0  0  0  0  0  0  0  0  0  0  0  0
  184.1570  178.3160  141.7500 C   0  0  0  0  0  0  0  0  0  0  0  0
  181.8370  178.3930  140.8720 N   0  0  0  0  0  2  0  0  0  0  0  0
  180.6110  178.9400  141.4320 C   0  0  2  0  0  3  0  0  0  0  0  0
  179.6690  177.9150  141.6210 O   0  0  0  0  0  0  0  0  0  0  0  0
  178.6150  178.4820  142.3640 C   0  0  0  0  0  2  0  0  0  0  0  0
  178.6070  179.8650  140.3060 N   0  0  0  0  0  2  0  0  0  0  0  0
  180.0460  180.0390  140.5150 C   0  0  0  0  0  2  0  0  0  0  0  0
  177.9320  179.6220  141.5890 C   0  0  0  0  0  2  0  0  0  0  0  0
  186.1100  176.6990  146.1920 N   0  0  0  0  0  2  0  0  0  0  0  0
  187.0960  176.6010  147.2670 C   0  0  0  0  0  2  0  0  0  0  0  0
  188.1420  175.6650  146.8880 N   0  0  0  0  0  2  0  0  0  0  0  0
  189.4270  176.3240  147.0900 C   0  0  0  0  0  1  0  0  0  0  0  0
  1  6  1  0  0  0  0
  2 11  1  6  0  0  0
  2  3  1  0  0  0  0
  3 31  1  1  0  0  0
  4  3  1  0  0  0  0
  5  1  2  0  0  0  0
  5  2  1  0  0  0  0
  6  4  1  0  0  0  0
  7  5  1  0  0  0  0
  8 15  1  0  0  0  0
  9 17  1  0  0  0  0
  9  8  2  0  0  0  0
 10 11  1  0  0  0  0
 11 16  1  0  0  0  0
 12 16  2  0  0  0  0
 13 10  1  0  0  0  0
 14 12  1  0  0  0  0
 15 10  2  0  0  0  0
 15 12  1  0  0  0  0
 17 13  2  0  0  0  0
 18  8  1  0  0  0  0
 19 17  1  0  0  0  0
 20 19  1  0  0  0  0
 22 23  2  0  0  0  0
 23 21  1  0  0  0  0
 23  1  1  0  0  0  0
 24 21  1  0  0  0  0
 25 24  1  6  0  0  0
 25 26  1  0  0  0  0
 26 27  1  0  0  0  0
 28 29  1  0  0  0  0
 28 30  1  0  0  0  0
 29 25  1  0  0  0  0
 30 27  1  0  0  0  0
 31 32  1  0  0  0  0
 33 34  1  0  0  0  0
 33 32  1  0  0  0  0
M  END
>  <MODEL>
9

>  <REMARK>
 VINA RESULT:      -6.5      4.082      9.562
  Name = 
  8 active torsions:
  status: ('A' for Active; 'I' for Inactive)
    1  A    between atoms: C_2  and  C_33
    2  A    between atoms: C_3  and  N_20
    3  A    between atoms: N_7  and  N_20
    4  A    between atoms: N_9  and  C_11
    5  A    between atoms: C_10  and  N_13
    6  A    between atoms: C_10  and  N_31
    7  A    between atoms: C_17  and  N_31
    8  A    between atoms: O_19  and  C_29
                            x       y       z     vdW  Elec       q    Type
                         _______ _______ _______ _____ _____    ______ ____

>  <TORSDO>
F 8

$$$$
