=
 OpenBabel11042414513D

 32 36  0  0  0  0  0  0  0  0999 V2000
  188.7380  176.1240  144.3880 N   0  0  0  0  0  0  0  0  0  0  0  0
  194.2700  175.7410  146.0310 N   0  0  0  0  0  0  0  0  0  0  0  0
  190.3730  174.1410  142.1820 C   0  0  0  0  0  2  0  0  0  0  0  0
  192.2150  176.3680  147.3480 C   0  0  0  0  0  3  0  0  0  0  0  0
  191.8980  175.9050  142.6550 C   0  0  0  0  0  3  0  0  0  0  0  0
  190.7900  176.5460  147.3840 C   0  0  0  0  0  3  0  0  0  0  0  0
  194.0890  174.3420  142.5430 C   0  0  0  0  0  0  0  0  0  0  0  0
  191.7580  174.7700  141.9380 C   0  0  0  0  0  0  0  0  0  0  0  0
  192.7660  175.9360  143.7430 C   0  0  0  0  0  0  0  0  0  0  0  0
  186.5220  176.3810  144.1870 C   0  0  0  0  0  3  0  0  0  0  0  0
  187.9110  175.4380  142.2920 N   0  0  0  0  0  0  0  0  0  0  0  0
  195.3010  173.7890  142.1150 O   0  0  0  0  0  1  0  0  0  0  0  0
  187.7700  176.0710  143.6130 C   0  0  0  0  0  0  0  0  0  0  0  0
  194.8230  175.3700  144.8070 C   0  0  0  0  0  0  0  0  0  0  0  0
  192.9230  176.0560  146.0760 C   0  0  0  0  0  0  0  0  0  0  0  0
  187.6290  176.8680  146.3240 C   0  0  0  0  0  3  0  0  0  0  0  0
  190.1470  176.3610  146.1320 C   0  0  0  0  0  0  0  0  0  0  0  0
  188.7960  176.4930  145.6810 C   0  0  0  0  0  0  0  0  0  0  0  0
  190.9310  176.1620  145.0550 N   0  0  0  0  0  0  0  0  0  0  0  0
  196.2230  175.0740  144.7160 N   0  0  0  0  0  1  0  0  0  0  0  0
  189.0060  174.7070  141.5490 C   0  0  0  0  0  0  0  0  0  0  0  0
  186.3920  176.8860  145.5650 C   0  0  0  0  0  0  0  0  0  0  0  0
  193.9990  175.3000  143.6780 C   0  0  0  0  0  0  0  0  0  0  0  0
  192.1870  176.0930  144.9620 C   0  0  0  0  0  0  0  0  0  0  0  0
  192.9340  174.0330  141.8140 C   0  0  0  0  0  3  0  0  0  0  0  0
  188.5720  172.8460  139.9350 O   0  0  0  0  0  1  0  0  0  0  0  0
  188.0200  174.9820  139.3460 O   0  0  0  0  0  0  0  0  0  0  0  0
  188.6470  174.2090  140.1380 C   0  0  0  0  0  0  0  0  0  0  0  0
  185.1100  176.8700  146.2820 N   0  0  0  0  0  2  0  0  0  0  0  0
  184.2510  177.9540  146.5580 N   0  0  0  0  0  0  0  0  0  0  0  0
  184.0390  178.5950  145.4770 O   0  0  0  0  0  1  0  0  0  0  0  0
  185.1120  178.9520  147.2910 C   0  0  0  0  0  1  0  0  0  0  0  0
  1 18  1  0  0  0  0
  2 15  1  0  0  0  0
  4  6  1  0  0  0  0
  5  9  1  0  0  0  0
  7 23  1  0  0  0  0
  8  3  1  0  0  0  0
  8  5  2  0  0  0  0
  9 24  1  0  0  0  0
 10 22  2  0  0  0  0
 11 13  1  0  0  0  0
 12  7  1  0  0  0  0
 13 10  1  0  0  0  0
 13  1  2  0  0  0  0
 14  2  2  0  0  0  0
 15  4  2  0  0  0  0
 17  6  2  0  0  0  0
 18 17  1  0  0  0  0
 18 16  2  0  0  0  0
 19 17  1  0  0  0  0
 20 14  1  0  0  0  0
 21  3  1  0  0  0  0
 21 11  2  0  0  0  0
 22 29  1  0  0  0  0
 22 16  1  0  0  0  0
 23  9  2  0  0  0  0
 23 14  1  0  0  0  0
 24 19  2  0  0  0  0
 24 15  1  0  0  0  0
 25  8  1  0  0  0  0
 25  7  2  0  0  0  0
 26 28  1  0  0  0  0
 27 28  2  0  0  0  0
 28 21  1  0  0  0  0
 29 30  1  0  0  0  0
 30 32  1  0  0  0  0
 31 30  1  0  0  0  0
M  END
>  <MODEL>
1

>  <REMARK>
 VINA RESULT:      -8.0      0.000      0.000
  Name = 
  3 active torsions:
  status: ('A' for Active; 'I' for Inactive)
    1  A    between atoms: N_4  and  N_6
    2  A    between atoms: N_4  and  C_29
    3  A    between atoms: C_22  and  CA_28
                            x       y       z     vdW  Elec       q    Type
                         _______ _______ _______ _____ _____    ______ ____

>  <TORSDO>
F 3

$$$$
=
 OpenBabel11042414513D

 32 36  0  0  0  0  0  0  0  0999 V2000
  190.3400  175.1510  144.1180 N   0  0  0  0  0  0  0  0  0  0  0  0
  186.2910  178.4560  146.5920 N   0  0  0  0  0  0  0  0  0  0  0  0
  188.1640  176.1480  141.7210 C   0  0  0  0  0  2  0  0  0  0  0  0
  188.6140  177.8640  147.3690 C   0  0  0  0  0  3  0  0  0  0  0  0
  186.8010  175.6490  143.6080 C   0  0  0  0  0  3  0  0  0  0  0  0
  189.8580  177.1910  147.1120 C   0  0  0  0  0  3  0  0  0  0  0  0
  185.0400  177.6340  143.1410 C   0  0  0  0  0  0  0  0  0  0  0  0
  186.7500  176.0830  142.3300 C   0  0  0  0  0  0  0  0  0  0  0  0
  186.5340  176.5310  144.6520 C   0  0  0  0  0  0  0  0  0  0  0  0
  192.1580  173.9850  143.5210 C   0  0  0  0  0  3  0  0  0  0  0  0
  190.1980  174.2590  141.9420 N   0  0  0  0  0  0  0  0  0  0  0  0
  183.8550  178.3040  142.8170 O   0  0  0  0  0  1  0  0  0  0  0  0
  190.8420  174.4100  143.2570 C   0  0  0  0  0  0  0  0  0  0  0  0
  185.2950  178.3170  145.6280 C   0  0  0  0  0  0  0  0  0  0  0  0
  187.4520  177.7150  146.4510 C   0  0  0  0  0  0  0  0  0  0  0  0
  192.1010  175.1600  145.6770 C   0  0  0  0  0  3  0  0  0  0  0  0
  189.8720  176.4290  145.9140 C   0  0  0  0  0  0  0  0  0  0  0  0
  190.8330  175.5660  145.2990 C   0  0  0  0  0  0  0  0  0  0  0  0
  188.7170  176.3250  145.2300 N   0  0  0  0  0  0  0  0  0  0  0  0
  184.0650  179.0410  145.7630 N   0  0  0  0  0  1  0  0  0  0  0  0
  188.9960  174.8540  141.2450 C   0  0  0  0  0  0  0  0  0  0  0  0
  192.8360  174.2690  144.7980 C   0  0  0  0  0  0  0  0  0  0  0  0
  185.5090  177.4620  144.5420 C   0  0  0  0  0  0  0  0  0  0  0  0
  187.5810  176.8200  145.4680 C   0  0  0  0  0  0  0  0  0  0  0  0
  185.7610  177.0380  142.0980 C   0  0  0  0  0  3  0  0  0  0  0  0
  187.8160  175.0540  139.0490 O   0  0  0  0  0  0  0  0  0  0  0  0
  189.6130  173.6560  139.2250 O   0  0  0  0  0  1  0  0  0  0  0  0
  188.7310  174.3590  139.8140 C   0  0  0  0  0  0  0  0  0  0  0  0
  194.2930  174.1530  144.9490 N   0  0  0  0  0  2  0  0  0  0  0  0
  195.2300  175.1780  145.1940 N   0  0  0  0  0  0  0  0  0  0  0  0
  195.1970  176.0040  144.2250 O   0  0  0  0  0  1  0  0  0  0  0  0
  196.5730  174.5380  144.9490 C   0  0  0  0  0  1  0  0  0  0  0  0
  1 18  1  0  0  0  0
  3  8  1  0  0  0  0
  5  9  1  0  0  0  0
  6  4  1  0  0  0  0
  7 23  1  0  0  0  0
  8  5  2  0  0  0  0
  9 24  1  0  0  0  0
 10 22  2  0  0  0  0
 11 13  1  0  0  0  0
 12  7  1  0  0  0  0
 13 10  1  0  0  0  0
 13  1  2  0  0  0  0
 14 20  1  0  0  0  0
 14  2  2  0  0  0  0
 15  2  1  0  0  0  0
 15  4  2  0  0  0  0
 17  6  2  0  0  0  0
 18 16  2  0  0  0  0
 18 17  1  0  0  0  0
 19 24  2  0  0  0  0
 19 17  1  0  0  0  0
 21  3  1  0  0  0  0
 21 11  2  0  0  0  0
 22 29  1  0  0  0  0
 22 16  1  0  0  0  0
 23  9  2  0  0  0  0
 23 14  1  0  0  0  0
 24 15  1  0  0  0  0
 25  8  1  0  0  0  0
 25  7  2  0  0  0  0
 26 28  2  0  0  0  0
 27 28  1  0  0  0  0
 28 21  1  0  0  0  0
 29 30  1  0  0  0  0
 31 30  1  0  0  0  0
 32 30  1  0  0  0  0
M  END
>  <MODEL>
2

>  <REMARK>
 VINA RESULT:      -7.7      1.614      6.983
  Name = 
  3 active torsions:
  status: ('A' for Active; 'I' for Inactive)
    1  A    between atoms: N_4  and  N_6
    2  A    between atoms: N_4  and  C_29
    3  A    between atoms: C_22  and  CA_28
                            x       y       z     vdW  Elec       q    Type
                         _______ _______ _______ _____ _____    ______ ____

>  <TORSDO>
F 3

$$$$
=
 OpenBabel11042414513D

 32 36  0  0  0  0  0  0  0  0999 V2000
  189.0310  174.5260  142.5770 N   0  0  0  0  0  0  0  0  0  0  0  0
  187.4780  177.5850  147.2330 N   0  0  0  0  0  0  0  0  0  0  0  0
  187.4220  177.3170  141.5330 C   0  0  0  0  0  2  0  0  0  0  0  0
  189.2510  175.8150  146.9580 C   0  0  0  0  0  3  0  0  0  0  0  0
  186.1950  176.5880  143.4370 C   0  0  0  0  0  3  0  0  0  0  0  0
  189.9520  174.9060  146.0940 C   0  0  0  0  0  3  0  0  0  0  0  0
  185.6370  179.0750  144.3090 C   0  0  0  0  0  0  0  0  0  0  0  0
  186.2390  177.5510  142.4920 C   0  0  0  0  0  0  0  0  0  0  0  0
  186.5170  176.8940  144.7560 C   0  0  0  0  0  0  0  0  0  0  0  0
  189.9410  173.1590  141.0530 C   0  0  0  0  0  3  0  0  0  0  0  0
  188.2360  174.9110  140.3930 N   0  0  0  0  0  0  0  0  0  0  0  0
  184.9260  180.2320  144.6450 O   0  0  0  0  0  1  0  0  0  0  0  0
  189.0000  174.1490  141.3950 C   0  0  0  0  0  0  0  0  0  0  0  0
  186.4550  178.3340  146.6550 C   0  0  0  0  0  0  0  0  0  0  0  0
  188.0850  176.6020  146.4700 C   0  0  0  0  0  0  0  0  0  0  0  0
  190.7050  173.0850  143.3860 C   0  0  0  0  0  3  0  0  0  0  0  0
  189.4570  174.8680  144.7640 C   0  0  0  0  0  0  0  0  0  0  0  0
  189.7830  174.0950  143.6060 C   0  0  0  0  0  0  0  0  0  0  0  0
  188.3450  175.5770  144.4940 N   0  0  0  0  0  0  0  0  0  0  0  0
  185.7790  179.3340  147.4270 N   0  0  0  0  0  1  0  0  0  0  0  0
  187.4350  176.1920  140.3820 C   0  0  0  0  0  0  0  0  0  0  0  0
  190.7960  172.5050  142.0590 C   0  0  0  0  0  0  0  0  0  0  0  0
  186.0970  178.0890  145.3250 C   0  0  0  0  0  0  0  0  0  0  0  0
  187.6440  176.3120  145.2440 C   0  0  0  0  0  0  0  0  0  0  0  0
  185.8490  178.8090  142.9500 C   0  0  0  0  0  3  0  0  0  0  0  0
  187.0680  175.7790  137.9420 O   0  0  0  0  0  0  0  0  0  0  0  0
  185.7740  177.3230  139.0170 O   0  0  0  0  0  1  0  0  0  0  0  0
  186.8110  176.5860  139.0320 C   0  0  0  0  0  0  0  0  0  0  0  0
  192.0030  171.7530  141.6850 N   0  0  0  0  0  2  0  0  0  0  0  0
  192.1800  170.3560  141.6340 N   0  0  0  0  0  0  0  0  0  0  0  0
  191.0350  169.7980  141.6090 O   0  0  0  0  0  1  0  0  0  0  0  0
  192.6280  169.9730  143.0220 C   0  0  0  0  0  1  0  0  0  0  0  0
  1 18  1  0  0  0  0
  3  8  1  0  0  0  0
  5  9  1  0  0  0  0
  6  4  2  0  0  0  0
  7 12  1  0  0  0  0
  7 23  1  0  0  0  0
  8 25  1  0  0  0  0
  8  5  2  0  0  0  0
  9 24  2  0  0  0  0
  9 23  1  0  0  0  0
 10 13  1  0  0  0  0
 10 22  2  0  0  0  0
 11 13  1  0  0  0  0
 13  1  2  0  0  0  0
 14  2  1  0  0  0  0
 14 20  1  0  0  0  0
 15  4  1  0  0  0  0
 15  2  2  0  0  0  0
 16 18  2  0  0  0  0
 17  6  1  0  0  0  0
 18 17  1  0  0  0  0
 19 17  2  0  0  0  0
 19 24  1  0  0  0  0
 21 11  2  0  0  0  0
 21  3  1  0  0  0  0
 22 16  1  0  0  0  0
 23 14  2  0  0  0  0
 24 15  1  0  0  0  0
 25  7  2  0  0  0  0
 26 28  2  0  0  0  0
 27 28  1  0  0  0  0
 28 21  1  0  0  0  0
 29 22  1  0  0  0  0
 30 29  1  0  0  0  0
 30 32  1  0  0  0  0
 31 30  1  0  0  0  0
M  END
>  <MODEL>
3

>  <REMARK>
 VINA RESULT:      -7.7      2.990      7.060
  Name = 
  3 active torsions:
  status: ('A' for Active; 'I' for Inactive)
    1  A    between atoms: N_4  and  N_6
    2  A    between atoms: N_4  and  C_29
    3  A    between atoms: C_22  and  CA_28
                            x       y       z     vdW  Elec       q    Type
                         _______ _______ _______ _____ _____    ______ ____

>  <TORSDO>
F 3

$$$$
=
 OpenBabel11042414513D

 32 36  0  0  0  0  0  0  0  0999 V2000
  189.1140  176.1890  143.9410 N   0  0  0  0  0  0  0  0  0  0  0  0
  194.3060  175.4810  146.3890 N   0  0  0  0  0  0  0  0  0  0  0  0
  190.7720  173.7680  142.2480 C   0  0  0  0  0  2  0  0  0  0  0  0
  192.1870  176.4850  147.3140 C   0  0  0  0  0  3  0  0  0  0  0  0
  192.4220  175.4190  142.7150 C   0  0  0  0  0  3  0  0  0  0  0  0
  190.8000  176.8080  147.1250 C   0  0  0  0  0  3  0  0  0  0  0  0
  194.4090  173.6430  143.1080 C   0  0  0  0  0  0  0  0  0  0  0  0
  192.2410  174.2160  142.1290 C   0  0  0  0  0  0  0  0  0  0  0  0
  193.1410  175.5110  143.9040 C   0  0  0  0  0  0  0  0  0  0  0  0
  186.9880  176.6370  143.3960 C   0  0  0  0  0  3  0  0  0  0  0  0
  188.4870  175.3080  141.8480 N   0  0  0  0  0  0  0  0  0  0  0  0
  195.5920  172.9180  142.9270 O   0  0  0  0  0  1  0  0  0  0  0  0
  188.2530  176.1270  143.0480 C   0  0  0  0  0  0  0  0  0  0  0  0
  194.9630  174.8920  145.3100 C   0  0  0  0  0  0  0  0  0  0  0  0
  193.0100  175.9320  146.2030 C   0  0  0  0  0  0  0  0  0  0  0  0
  187.8620  177.2980  145.5930 C   0  0  0  0  0  3  0  0  0  0  0  0
  190.3060  176.5190  145.8250 C   0  0  0  0  0  0  0  0  0  0  0  0
  189.0490  176.7230  145.1740 C   0  0  0  0  0  0  0  0  0  0  0  0
  191.1920  176.0970  144.9030 N   0  0  0  0  0  0  0  0  0  0  0  0
  196.3180  174.4480  145.4560 N   0  0  0  0  0  1  0  0  0  0  0  0
  189.5730  174.3760  141.3620 C   0  0  0  0  0  0  0  0  0  0  0  0
  186.7430  177.3360  144.6700 C   0  0  0  0  0  0  0  0  0  0  0  0
  194.2880  174.7510  144.0930 C   0  0  0  0  0  0  0  0  0  0  0  0
  192.4330  175.8910  145.0000 C   0  0  0  0  0  0  0  0  0  0  0  0
  193.3280  173.3540  142.2650 C   0  0  0  0  0  3  0  0  0  0  0  0
  190.4340  173.5710  139.1570 O   0  0  0  0  0  0  0  0  0  0  0  0
  188.3280  172.9820  139.8130 O   0  0  0  0  0  1  0  0  0  0  0  0
  189.3430  173.7290  139.9870 C   0  0  0  0  0  0  0  0  0  0  0  0
  185.3860  177.5470  145.1940 N   0  0  0  0  0  2  0  0  0  0  0  0
  184.7000  178.7660  145.3730 N   0  0  0  0  0  0  0  0  0  0  0  0
  183.7070  178.5670  146.1460 O   0  0  0  0  0  1  0  0  0  0  0  0
  183.9760  178.9950  144.0690 C   0  0  0  0  0  1  0  0  0  0  0  0
  1 18  1  0  0  0  0
  5  9  1  0  0  0  0
  6  4  1  0  0  0  0
  7 23  1  0  0  0  0
  8  3  1  0  0  0  0
  8 25  1  0  0  0  0
  8  5  2  0  0  0  0
  9 23  2  0  0  0  0
  9 24  1  0  0  0  0
 10 22  2  0  0  0  0
 11 13  1  0  0  0  0
 12  7  1  0  0  0  0
 13 10  1  0  0  0  0
 13  1  2  0  0  0  0
 14 20  1  0  0  0  0
 14  2  2  0  0  0  0
 15  2  1  0  0  0  0
 15  4  2  0  0  0  0
 17  6  2  0  0  0  0
 18 16  2  0  0  0  0
 18 17  1  0  0  0  0
 19 24  2  0  0  0  0
 19 17  1  0  0  0  0
 21 11  2  0  0  0  0
 21  3  1  0  0  0  0
 22 29  1  0  0  0  0
 22 16  1  0  0  0  0
 23 14  1  0  0  0  0
 24 15  1  0  0  0  0
 25  7  2  0  0  0  0
 26 28  2  0  0  0  0
 27 28  1  0  0  0  0
 28 21  1  0  0  0  0
 29 30  1  0  0  0  0
 30 31  1  0  0  0  0
 32 30  1  0  0  0  0
M  END
>  <MODEL>
4

>  <REMARK>
 VINA RESULT:      -7.7      1.037      1.099
  Name = 
  3 active torsions:
  status: ('A' for Active; 'I' for Inactive)
    1  A    between atoms: N_4  and  N_6
    2  A    between atoms: N_4  and  C_29
    3  A    between atoms: C_22  and  CA_28
                            x       y       z     vdW  Elec       q    Type
                         _______ _______ _______ _____ _____    ______ ____

>  <TORSDO>
F 3

$$$$
=
 OpenBabel11042414513D

 32 36  0  0  0  0  0  0  0  0999 V2000
  188.8940  176.2570  143.3260 N   0  0  0  0  0  0  0  0  0  0  0  0
  193.4640  173.8410  145.9180 N   0  0  0  0  0  0  0  0  0  0  0  0
  189.6780  173.4080  141.6710 C   0  0  0  0  0  2  0  0  0  0  0  0
  191.7880  175.5100  146.7870 C   0  0  0  0  0  3  0  0  0  0  0  0
  191.7770  174.4020  142.1920 C   0  0  0  0  0  3  0  0  0  0  0  0
  190.5990  176.2850  146.5590 C   0  0  0  0  0  3  0  0  0  0  0  0
  193.0300  172.0580  142.6340 C   0  0  0  0  0  0  0  0  0  0  0  0
  191.2150  173.3290  141.5960 C   0  0  0  0  0  0  0  0  0  0  0  0
  192.4510  174.2510  143.4010 C   0  0  0  0  0  0  0  0  0  0  0  0
  187.0640  177.3990  142.7220 C   0  0  0  0  0  3  0  0  0  0  0  0
  188.0660  175.6300  141.2110 N   0  0  0  0  0  0  0  0  0  0  0  0
  193.9000  170.9730  142.4840 O   0  0  0  0  0  1  0  0  0  0  0  0
  188.0900  176.4870  142.4080 C   0  0  0  0  0  0  0  0  0  0  0  0
  193.9130  173.0570  144.8570 C   0  0  0  0  0  0  0  0  0  0  0  0
  192.4050  174.7050  145.6970 C   0  0  0  0  0  0  0  0  0  0  0  0
  188.0480  177.7360  144.9460 C   0  0  0  0  0  3  0  0  0  0  0  0
  190.0730  176.1740  145.2450 C   0  0  0  0  0  0  0  0  0  0  0  0
  188.9800  176.7890  144.5580 C   0  0  0  0  0  0  0  0  0  0  0  0
  190.7890  175.4700  144.3470 N   0  0  0  0  0  0  0  0  0  0  0  0
  195.0310  172.1800  145.0400 N   0  0  0  0  0  1  0  0  0  0  0  0
  188.7840  174.3820  140.7530 C   0  0  0  0  0  0  0  0  0  0  0  0
  187.0350  178.1460  143.9910 C   0  0  0  0  0  0  0  0  0  0  0  0
  193.2650  173.1470  143.6200 C   0  0  0  0  0  0  0  0  0  0  0  0
  191.8830  174.8550  144.4780 C   0  0  0  0  0  0  0  0  0  0  0  0
  191.9400  172.1490  141.7590 C   0  0  0  0  0  3  0  0  0  0  0  0
  187.9450  172.5390  139.2860 O   0  0  0  0  0  1  0  0  0  0  0  0
  188.0480  174.6630  138.4560 O   0  0  0  0  0  0  0  0  0  0  0  0
  188.3860  173.8440  139.3690 C   0  0  0  0  0  0  0  0  0  0  0  0
  185.8170  178.8090  144.4760 N   0  0  0  0  0  2  0  0  0  0  0  0
  184.5190  178.2720  144.5970 N   0  0  0  0  0  0  0  0  0  0  0  0
  183.7030  179.0260  143.9740 O   0  0  0  0  0  1  0  0  0  0  0  0
  184.1120  178.5640  146.0200 C   0  0  0  0  0  1  0  0  0  0  0  0
  1 18  1  0  0  0  0
  5  9  1  0  0  0  0
  6  4  1  0  0  0  0
  7 23  1  0  0  0  0
  8  3  1  0  0  0  0
  8 25  1  0  0  0  0
  8  5  2  0  0  0  0
  9 23  2  0  0  0  0
  9 24  1  0  0  0  0
 10 22  2  0  0  0  0
 11 13  1  0  0  0  0
 12  7  1  0  0  0  0
 13 10  1  0  0  0  0
 13  1  2  0  0  0  0
 14 20  1  0  0  0  0
 14  2  2  0  0  0  0
 15  2  1  0  0  0  0
 15  4  2  0  0  0  0
 17  6  2  0  0  0  0
 18 16  2  0  0  0  0
 18 17  1  0  0  0  0
 19 24  2  0  0  0  0
 19 17  1  0  0  0  0
 21 11  2  0  0  0  0
 21  3  1  0  0  0  0
 22 29  1  0  0  0  0
 22 16  1  0  0  0  0
 23 14  1  0  0  0  0
 24 15  1  0  0  0  0
 25  7  2  0  0  0  0
 26 28  1  0  0  0  0
 27 28  2  0  0  0  0
 28 21  1  0  0  0  0
 29 30  1  0  0  0  0
 30 32  1  0  0  0  0
 31 30  1  0  0  0  0
M  END
>  <MODEL>
5

>  <REMARK>
 VINA RESULT:      -7.5      1.685      1.770
  Name = 
  3 active torsions:
  status: ('A' for Active; 'I' for Inactive)
    1  A    between atoms: N_4  and  N_6
    2  A    between atoms: N_4  and  C_29
    3  A    between atoms: C_22  and  CA_28
                            x       y       z     vdW  Elec       q    Type
                         _______ _______ _______ _____ _____    ______ ____

>  <TORSDO>
F 3

$$$$
=
 OpenBabel11042414513D

 32 36  0  0  0  0  0  0  0  0999 V2000
  191.7360  174.8610  144.8000 N   0  0  0  0  0  0  0  0  0  0  0  0
  187.7460  175.7660  140.7120 N   0  0  0  0  0  0  0  0  0  0  0  0
  189.2340  176.7100  146.1390 C   0  0  0  0  0  2  0  0  0  0  0  0
  189.5340  173.9980  140.8860 C   0  0  0  0  0  3  0  0  0  0  0  0
  189.5370  177.5960  143.9510 C   0  0  0  0  0  3  0  0  0  0  0  0
  190.6080  173.4110  141.6390 C   0  0  0  0  0  3  0  0  0  0  0  0
  186.9200  178.0950  143.5490 C   0  0  0  0  0  0  0  0  0  0  0  0
  188.7990  177.7340  145.0740 C   0  0  0  0  0  0  0  0  0  0  0  0
  188.9540  177.0800  142.7970 C   0  0  0  0  0  0  0  0  0  0  0  0
  193.3980  174.1550  146.1250 C   0  0  0  0  0  3  0  0  0  0  0  0
  191.8300  176.0020  146.8580 N   0  0  0  0  0  0  0  0  0  0  0  0
  185.7180  178.7830  143.3560 O   0  0  0  0  0  1  0  0  0  0  0  0
  192.3580  175.0650  145.8540 C   0  0  0  0  0  0  0  0  0  0  0  0
  187.1390  176.8930  141.2630 C   0  0  0  0  0  0  0  0  0  0  0  0
  188.8700  175.2530  141.3360 C   0  0  0  0  0  0  0  0  0  0  0  0
  192.9680  173.0320  143.9840 C   0  0  0  0  0  3  0  0  0  0  0  0
  190.9310  174.1080  142.8340 C   0  0  0  0  0  0  0  0  0  0  0  0
  191.9350  173.9410  143.8380 C   0  0  0  0  0  0  0  0  0  0  0  0
  190.2960  175.2720  143.0650 N   0  0  0  0  0  0  0  0  0  0  0  0
  185.9960  177.4730  140.6220 N   0  0  0  0  0  1  0  0  0  0  0  0
  190.5810  176.8400  147.0120 C   0  0  0  0  0  0  0  0  0  0  0  0
  193.8210  173.1300  145.1540 C   0  0  0  0  0  0  0  0  0  0  0  0
  187.6640  177.4470  142.4350 C   0  0  0  0  0  0  0  0  0  0  0  0
  189.4180  175.8710  142.3850 C   0  0  0  0  0  0  0  0  0  0  0  0
  187.4720  178.0900  144.8360 C   0  0  0  0  0  3  0  0  0  0  0  0
  191.5610  177.6610  149.1610 O   0  0  0  0  0  1  0  0  0  0  0  0
  189.6880  178.6710  148.3340 O   0  0  0  0  0  0  0  0  0  0  0  0
  190.4860  177.6810  148.2960 C   0  0  0  0  0  0  0  0  0  0  0  0
  194.6350  171.9730  145.5490 N   0  0  0  0  0  2  0  0  0  0  0  0
  195.9480  171.6500  145.1480 N   0  0  0  0  0  0  0  0  0  0  0  0
  196.6110  171.2820  146.1710 O   0  0  0  0  0  1  0  0  0  0  0  0
  196.6040  172.9810  144.8750 C   0  0  0  0  0  1  0  0  0  0  0  0
  1 13  2  0  0  0  0
  2 14  2  0  0  0  0
  2 15  1  0  0  0  0
  3 21  1  0  0  0  0
  4 15  2  0  0  0  0
  4  6  1  0  0  0  0
  5  8  1  0  0  0  0
  6 17  2  0  0  0  0
  7 25  1  0  0  0  0
  8  3  1  0  0  0  0
  9  5  2  0  0  0  0
 11 21  2  0  0  0  0
 12  7  1  0  0  0  0
 13 10  1  0  0  0  0
 13 11  1  0  0  0  0
 14 23  1  0  0  0  0
 15 24  1  0  0  0  0
 16 22  1  0  0  0  0
 17 19  1  0  0  0  0
 17 18  1  0  0  0  0
 18 16  2  0  0  0  0
 18  1  1  0  0  0  0
 20 14  1  0  0  0  0
 21 28  1  0  0  0  0
 22 29  1  0  0  0  0
 22 10  2  0  0  0  0
 23  9  1  0  0  0  0
 23  7  2  0  0  0  0
 24  9  1  0  0  0  0
 24 19  2  0  0  0  0
 25  8  2  0  0  0  0
 28 27  2  0  0  0  0
 28 26  1  0  0  0  0
 30 29  1  0  0  0  0
 30 31  1  0  0  0  0
 32 30  1  0  0  0  0
M  END
>  <MODEL>
6

>  <REMARK>
 VINA RESULT:      -7.4      3.013      8.082
  Name = 
  3 active torsions:
  status: ('A' for Active; 'I' for Inactive)
    1  A    between atoms: N_4  and  N_6
    2  A    between atoms: N_4  and  C_29
    3  A    between atoms: C_22  and  CA_28
                            x       y       z     vdW  Elec       q    Type
                         _______ _______ _______ _____ _____    ______ ____

>  <TORSDO>
F 3

$$$$
=
 OpenBabel11042414513D

 32 36  0  0  0  0  0  0  0  0999 V2000
  189.7410  176.0510  144.9270 N   0  0  0  0  0  0  0  0  0  0  0  0
  189.8920  173.7160  139.6380 N   0  0  0  0  0  0  0  0  0  0  0  0
  192.9050  176.2930  143.7420 C   0  0  0  0  0  2  0  0  0  0  0  0
  187.9510  174.6100  140.9740 C   0  0  0  0  0  3  0  0  0  0  0  0
  192.1660  174.1370  143.0590 C   0  0  0  0  0  3  0  0  0  0  0  0
  187.4770  175.2470  142.1720 C   0  0  0  0  0  3  0  0  0  0  0  0
  193.4690  174.1910  140.7020 C   0  0  0  0  0  0  0  0  0  0  0  0
  193.2210  174.9780  143.0050 C   0  0  0  0  0  0  0  0  0  0  0  0
  191.4250  173.8770  141.9090 C   0  0  0  0  0  0  0  0  0  0  0  0
  189.2390  177.0020  146.8930 C   0  0  0  0  0  3  0  0  0  0  0  0
  191.6430  176.6010  146.2050 N   0  0  0  0  0  0  0  0  0  0  0  0
  194.3840  173.8890  139.6870 O   0  0  0  0  0  1  0  0  0  0  0  0
  190.1910  176.4520  146.0130 C   0  0  0  0  0  0  0  0  0  0  0  0
  191.2580  173.4510  139.5690 C   0  0  0  0  0  0  0  0  0  0  0  0
  189.3750  174.2020  140.8270 C   0  0  0  0  0  0  0  0  0  0  0  0
  187.4560  176.4710  145.2900 C   0  0  0  0  0  3  0  0  0  0  0  0
  188.4830  175.4740  143.1480 C   0  0  0  0  0  0  0  0  0  0  0  0
  188.4740  176.0020  144.4780 C   0  0  0  0  0  0  0  0  0  0  0  0
  189.7100  174.9760  142.9040 N   0  0  0  0  0  0  0  0  0  0  0  0
  191.8200  172.9110  138.3670 N   0  0  0  0  0  1  0  0  0  0  0  0
  192.8750  176.4380  145.3450 C   0  0  0  0  0  0  0  0  0  0  0  0
  187.7930  176.9630  146.6130 C   0  0  0  0  0  0  0  0  0  0  0  0
  192.0610  173.7100  140.6850 C   0  0  0  0  0  0  0  0  0  0  0  0
  190.1440  174.3290  141.9110 C   0  0  0  0  0  0  0  0  0  0  0  0
  193.9350  174.9100  141.8090 C   0  0  0  0  0  3  0  0  0  0  0  0
  194.9450  175.6580  146.5110 O   0  0  0  0  0  1  0  0  0  0  0  0
  194.8310  177.8140  145.7680 O   0  0  0  0  0  0  0  0  0  0  0  0
  194.2200  176.7300  146.0310 C   0  0  0  0  0  0  0  0  0  0  0  0
  186.8390  177.8280  147.3220 N   0  0  0  0  0  2  0  0  0  0  0  0
  186.0220  178.8460  146.7900 N   0  0  0  0  0  0  0  0  0  0  0  0
  185.9380  179.7910  147.6410 O   0  0  0  0  0  1  0  0  0  0  0  0
  184.6200  178.2960  146.8700 C   0  0  0  0  0  1  0  0  0  0  0  0
  1 13  2  0  0  0  0
  2 15  1  0  0  0  0
  3 21  1  0  0  0  0
  4  6  1  0  0  0  0
  6 17  2  0  0  0  0
  7 25  1  0  0  0  0
  8  5  1  0  0  0  0
  8  3  1  0  0  0  0
  9 24  1  0  0  0  0
  9  5  2  0  0  0  0
 12  7  1  0  0  0  0
 13 11  1  0  0  0  0
 13 10  1  0  0  0  0
 14  2  2  0  0  0  0
 14 23  1  0  0  0  0
 15  4  2  0  0  0  0
 15 24  1  0  0  0  0
 16 22  1  0  0  0  0
 17 18  1  0  0  0  0
 18  1  1  0  0  0  0
 18 16  2  0  0  0  0
 19 17  1  0  0  0  0
 20 14  1  0  0  0  0
 21 28  1  0  0  0  0
 21 11  2  0  0  0  0
 22 10  2  0  0  0  0
 22 29  1  0  0  0  0
 23  7  2  0  0  0  0
 23  9  1  0  0  0  0
 24 19  2  0  0  0  0
 25  8  2  0  0  0  0
 27 28  2  0  0  0  0
 28 26  1  0  0  0  0
 30 32  1  0  0  0  0
 30 29  1  0  0  0  0
 30 31  1  0  0  0  0
M  END
>  <MODEL>
7

>  <REMARK>
 VINA RESULT:      -7.3      2.306      4.961
  Name = 
  3 active torsions:
  status: ('A' for Active; 'I' for Inactive)
    1  A    between atoms: N_4  and  N_6
    2  A    between atoms: N_4  and  C_29
    3  A    between atoms: C_22  and  CA_28
                            x       y       z     vdW  Elec       q    Type
                         _______ _______ _______ _____ _____    ______ ____

>  <TORSDO>
F 3

$$$$
=
 OpenBabel11042414513D

 32 36  0  0  0  0  0  0  0  0999 V2000
  190.6240  175.4290  143.6100 N   0  0  0  0  0  0  0  0  0  0  0  0
  185.3830  177.5710  142.4310 N   0  0  0  0  0  0  0  0  0  0  0  0
  189.0450  176.0600  146.5390 C   0  0  0  0  0  2  0  0  0  0  0  0
  186.9460  176.2010  141.0060 C   0  0  0  0  0  3  0  0  0  0  0  0
  188.4820  177.9010  145.1390 C   0  0  0  0  0  3  0  0  0  0  0  0
  188.1880  175.4880  140.8860 C   0  0  0  0  0  3  0  0  0  0  0  0
  185.9780  178.1550  146.1000 C   0  0  0  0  0  0  0  0  0  0  0  0
  188.2870  177.3910  146.3740 C   0  0  0  0  0  0  0  0  0  0  0  0
  187.4380  177.9110  144.2180 C   0  0  0  0  0  0  0  0  0  0  0  0
  192.6280  174.4280  143.6470 C   0  0  0  0  0  3  0  0  0  0  0  0
  191.6440  175.4730  145.7330 N   0  0  0  0  0  0  0  0  0  0  0  0
  184.8590  178.6760  146.7570 O   0  0  0  0  0  1  0  0  0  0  0  0
  191.6400  175.2010  144.2860 C   0  0  0  0  0  0  0  0  0  0  0  0
  185.1440  178.2100  143.6460 C   0  0  0  0  0  0  0  0  0  0  0  0
  186.6230  176.9900  142.2260 C   0  0  0  0  0  0  0  0  0  0  0  0
  191.2700  174.3910  141.6020 C   0  0  0  0  0  3  0  0  0  0  0  0
  189.0260  175.5810  142.0280 C   0  0  0  0  0  0  0  0  0  0  0  0
  190.3400  175.1070  142.3350 C   0  0  0  0  0  0  0  0  0  0  0  0
  188.6320  176.3980  143.0230 N   0  0  0  0  0  0  0  0  0  0  0  0
  183.8850  178.8540  143.8780 N   0  0  0  0  0  1  0  0  0  0  0  0
  190.6370  175.9550  146.7520 C   0  0  0  0  0  0  0  0  0  0  0  0
  192.5350  174.0490  142.2260 C   0  0  0  0  0  0  0  0  0  0  0  0
  186.1460  178.2180  144.6220 C   0  0  0  0  0  0  0  0  0  0  0  0
  187.5990  177.1150  143.1290 C   0  0  0  0  0  0  0  0  0  0  0  0
  187.0110  177.6260  146.8850 C   0  0  0  0  0  3  0  0  0  0  0  0
  191.5600  174.9210  148.8330 O   0  0  0  0  0  1  0  0  0  0  0  0
  191.5800  177.1940  148.6150 O   0  0  0  0  0  0  0  0  0  0  0  0
  191.1430  176.0740  148.1980 C   0  0  0  0  0  0  0  0  0  0  0  0
  193.3500  172.9690  141.6530 N   0  0  0  0  0  2  0  0  0  0  0  0
  194.6340  173.0570  141.0780 N   0  0  0  0  0  0  0  0  0  0  0  0
  195.4480  173.4930  141.9560 O   0  0  0  0  0  1  0  0  0  0  0  0
  194.5670  174.2550  140.1640 C   0  0  0  0  0  1  0  0  0  0  0  0
  1 13  2  0  0  0  0
  2 14  1  0  0  0  0
  3 21  1  0  0  0  0
  4 15  1  0  0  0  0
  5  8  2  0  0  0  0
  6  4  2  0  0  0  0
  6 17  1  0  0  0  0
  7 12  1  0  0  0  0
  7 25  2  0  0  0  0
  8  3  1  0  0  0  0
  8 25  1  0  0  0  0
  9 23  1  0  0  0  0
  9  5  1  0  0  0  0
 10 13  1  0  0  0  0
 11 21  2  0  0  0  0
 13 11  1  0  0  0  0
 14 20  1  0  0  0  0
 14 23  2  0  0  0  0
 15  2  2  0  0  0  0
 15 24  1  0  0  0  0
 16 22  1  0  0  0  0
 16 18  2  0  0  0  0
 17 18  1  0  0  0  0
 17 19  2  0  0  0  0
 18  1  1  0  0  0  0
 19 24  1  0  0  0  0
 21 28  1  0  0  0  0
 22 10  2  0  0  0  0
 23  7  1  0  0  0  0
 24  9  2  0  0  0  0
 28 27  2  0  0  0  0
 28 26  1  0  0  0  0
 29 22  1  0  0  0  0
 30 29  1  0  0  0  0
 30 31  1  0  0  0  0
 32 30  1  0  0  0  0
M  END
>  <MODEL>
8

>  <REMARK>
 VINA RESULT:      -7.3      2.763      8.298
  Name = 
  3 active torsions:
  status: ('A' for Active; 'I' for Inactive)
    1  A    between atoms: N_4  and  N_6
    2  A    between atoms: N_4  and  C_29
    3  A    between atoms: C_22  and  CA_28
                            x       y       z     vdW  Elec       q    Type
                         _______ _______ _______ _____ _____    ______ ____

>  <TORSDO>
F 3

$$$$
=
 OpenBabel11042414513D

 32 36  0  0  0  0  0  0  0  0999 V2000
  188.9160  175.7070  143.6910 N   0  0  0  0  0  0  0  0  0  0  0  0
  190.5940  170.8740  140.9940 N   0  0  0  0  0  0  0  0  0  0  0  0
  191.9980  174.8710  144.8180 C   0  0  0  0  0  2  0  0  0  0  0  0
  188.8570  172.5830  140.3520 C   0  0  0  0  0  3  0  0  0  0  0  0
  190.8370  172.8010  144.6380 C   0  0  0  0  0  3  0  0  0  0  0  0
  188.1900  173.8230  140.6440 C   0  0  0  0  0  3  0  0  0  0  0  0
  192.9970  171.4020  143.8400 C   0  0  0  0  0  0  0  0  0  0  0  0
  192.0280  173.3390  144.9790 C   0  0  0  0  0  0  0  0  0  0  0  0
  190.7230  172.0520  143.4700 C   0  0  0  0  0  0  0  0  0  0  0  0
  187.9890  177.6270  144.3780 C   0  0  0  0  0  3  0  0  0  0  0  0
  189.9750  176.6220  145.5860 N   0  0  0  0  0  0  0  0  0  0  0  0
  194.0550  170.4860  143.8370 O   0  0  0  0  0  1  0  0  0  0  0  0
  188.9020  176.5740  144.5790 C   0  0  0  0  0  0  0  0  0  0  0  0
  191.5500  170.4470  141.9140 C   0  0  0  0  0  0  0  0  0  0  0  0
  189.8340  171.9880  141.3060 C   0  0  0  0  0  0  0  0  0  0  0  0
  187.1860  176.5360  142.3310 C   0  0  0  0  0  3  0  0  0  0  0  0
  188.5770  174.4170  141.8740 C   0  0  0  0  0  0  0  0  0  0  0  0
  188.1520  175.5790  142.5910 C   0  0  0  0  0  0  0  0  0  0  0  0
  189.4110  173.7180  142.6660 N   0  0  0  0  0  0  0  0  0  0  0  0
  192.3290  169.2750  141.6410 N   0  0  0  0  0  1  0  0  0  0  0  0
  191.2580  175.8670  145.8430 C   0  0  0  0  0  0  0  0  0  0  0  0
  187.0110  177.6220  143.2760 C   0  0  0  0  0  0  0  0  0  0  0  0
  191.7290  171.1690  143.0980 C   0  0  0  0  0  0  0  0  0  0  0  0
  189.9450  172.5870  142.4930 C   0  0  0  0  0  0  0  0  0  0  0  0
  193.1230  172.5440  144.6410 C   0  0  0  0  0  3  0  0  0  0  0  0
  193.4120  176.5910  146.8890 O   0  0  0  0  0  0  0  0  0  0  0  0
  191.4670  176.8350  148.0600 O   0  0  0  0  0  1  0  0  0  0  0  0
  192.0710  176.3150  147.0690 C   0  0  0  0  0  0  0  0  0  0  0  0
  186.3160  178.8440  142.8470 N   0  0  0  0  0  2  0  0  0  0  0  0
  185.1540  179.4250  143.3940 N   0  0  0  0  0  0  0  0  0  0  0  0
  185.4820  180.1230  144.4070 O   0  0  0  0  0  1  0  0  0  0  0  0
  184.4400  178.2870  144.0790 C   0  0  0  0  0  1  0  0  0  0  0  0
  1 13  2  0  0  0  0
  2 15  2  0  0  0  0
  2 14  1  0  0  0  0
  3  8  1  0  0  0  0
  3 21  1  0  0  0  0
  4  6  2  0  0  0  0
  4 15  1  0  0  0  0
  5  8  2  0  0  0  0
  6 17  1  0  0  0  0
  7 25  2  0  0  0  0
  9  5  1  0  0  0  0
 10 13  1  0  0  0  0
 11 21  2  0  0  0  0
 12  7  1  0  0  0  0
 13 11  1  0  0  0  0
 14 23  2  0  0  0  0
 15 24  1  0  0  0  0
 16 18  2  0  0  0  0
 16 22  1  0  0  0  0
 17 18  1  0  0  0  0
 17 19  2  0  0  0  0
 18  1  1  0  0  0  0
 20 14  1  0  0  0  0
 21 28  1  0  0  0  0
 22 10  2  0  0  0  0
 23  9  1  0  0  0  0
 23  7  1  0  0  0  0
 24 19  1  0  0  0  0
 24  9  2  0  0  0  0
 25  8  1  0  0  0  0
 26 28  2  0  0  0  0
 28 27  1  0  0  0  0
 29 22  1  0  0  0  0
 29 30  1  0  0  0  0
 30 32  1  0  0  0  0
 30 31  1  0  0  0  0
M  END
>  <MODEL>
9

>  <REMARK>
 VINA RESULT:      -7.2      3.252      5.285
  Name = 
  3 active torsions:
  status: ('A' for Active; 'I' for Inactive)
    1  A    between atoms: N_4  and  N_6
    2  A    between atoms: N_4  and  C_29
    3  A    between atoms: C_22  and  CA_28
                            x       y       z     vdW  Elec       q    Type
                         _______ _______ _______ _____ _____    ______ ____

>  <TORSDO>
F 3

$$$$
