=
 OpenBabel11042413463D

 30 32  0  0  1  0  0  0  0  0999 V2000
  188.6300  176.5500  144.7400 C   0  0  2  0  0  3  0  0  0  0  0  0
  183.7580  179.3110  144.7010 N   0  0  0  0  0  0  0  0  0  0  0  0
  185.5960  177.2440  146.9480 C   0  0  0  0  0  3  0  0  0  0  0  0
  183.8300  178.4200  145.7750 N   0  0  0  0  0  2  0  0  0  0  0  0
  187.0300  178.4130  144.7450 C   0  0  0  0  0  3  0  0  0  0  0  0
  187.4710  177.2920  145.3430 C   0  0  0  0  0  0  0  0  0  0  0  0
  186.7760  176.7530  146.5520 C   0  0  0  0  0  3  0  0  0  0  0  0
  184.9320  179.7730  144.4150 C   0  0  0  0  0  3  0  0  0  0  0  0
  185.0500  178.3670  146.1810 C   0  0  2  0  0  3  0  0  0  0  0  0
  185.9420  179.2420  145.3780 C   0  0  1  0  0  3  0  0  0  0  0  0
  189.5850  176.1220  145.8020 C   0  0  0  0  0  3  0  0  0  0  0  0
  190.7570  176.6640  145.8850 N   0  0  0  0  0  0  0  0  0  0  0  0
  191.7390  176.2830  146.8590 C   0  0  0  0  0  0  0  0  0  0  0  0
  191.6140  176.7840  148.4240 S   0  0  0  0  0  0  0  0  0  0  0  0
  195.0400  173.9580  145.5020 C   0  0  0  0  0  3  0  0  0  0  0  0
  193.7370  173.4610  145.4840 C   0  0  0  0  0  0  0  0  0  0  0  0
  193.4720  172.0910  144.9690 C   0  0  0  0  0  1  0  0  0  0  0  0
  194.2000  176.0200  146.4440 C   0  0  0  0  0  3  0  0  0  0  0  0
  192.7090  174.2260  145.9380 N   0  0  0  0  0  0  0  0  0  0  0  0
  192.9030  175.4890  146.4170 C   0  0  0  0  0  0  0  0  0  0  0  0
  195.2680  175.2480  145.9840 C   0  0  0  0  0  3  0  0  0  0  0  0
  189.3230  177.2130  142.4150 C   0  0  0  0  0  3  0  0  0  0  0  0
  189.3430  177.4060  143.7400 C   0  0  0  0  0  3  0  0  0  0  0  0
  189.1160  174.9500  141.7060 O   0  0  0  0  0  0  0  0  0  0  0  0
  188.6410  176.1150  141.7000 C   0  0  0  0  0  0  0  0  0  0  0  0
  187.4430  176.3670  140.9640 N   0  0  0  0  0  2  0  0  0  0  0  0
  186.8600  177.6960  140.8460 C   0  0  0  0  0  2  0  0  0  0  0  0
  184.3870  178.3930  140.6010 C   0  0  0  0  0  1  0  0  0  0  0  0
  185.4590  177.6800  141.3510 C   0  0  0  0  0  0  0  0  0  0  0  0
  185.1940  177.1090  142.3970 O   0  0  0  0  0  0  0  0  0  0  0  0
  1 23  1  6  0  0  0
  1  6  1  0  0  0  0
  1 11  1  0  0  0  0
  2  4  1  0  0  0  0
  4  9  1  0  0  0  0
  5  6  2  0  0  0  0
  5 10  1  0  0  0  0
  6  7  1  0  0  0  0
  7  3  2  0  0  0  0
  8  2  2  0  0  0  0
  9  3  1  6  0  0  0
 10  8  1  6  0  0  0
 10  9  1  0  0  0  0
 11 12  2  0  0  0  0
 12 13  1  0  0  0  0
 13 14  2  0  0  0  0
 15 21  1  0  0  0  0
 16 15  2  0  0  0  0
 16 19  1  0  0  0  0
 17 16  1  0  0  0  0
 19 20  2  0  0  0  0
 20 18  1  0  0  0  0
 20 13  1  0  0  0  0
 21 18  2  0  0  0  0
 22 23  2  0  0  0  0
 25 24  2  0  0  0  0
 25 22  1  0  0  0  0
 26 25  1  0  0  0  0
 27 26  1  0  0  0  0
 27 29  1  0  0  0  0
 28 29  1  0  0  0  0
 29 30  2  0  0  0  0
M  END
>  <MODEL>
1

>  <REMARK>
 VINA RESULT:      -7.4      0.000      0.000
  Name = 
  8 active torsions:
  status: ('A' for Active; 'I' for Inactive)
    1  A    between atoms: C_1  and  C_24
    2  A    between atoms: C_4  and  C_18
    3  A    between atoms: C_5  and  C_24
    4  A    between atoms: N_10  and  C_15
    5  A    between atoms: C_15  and  C_17
    6  A    between atoms: C_19  and  C_23
    7  A    between atoms: C_19  and  N_29
    8  A    between atoms: C_22  and  C_24
                            x       y       z     vdW  Elec       q    Type
                         _______ _______ _______ _____ _____    ______ ____

>  <TORSDO>
F 8

$$$$
=
 OpenBabel11042413463D

 30 32  0  0  1  0  0  0  0  0999 V2000
  188.6020  176.3360  144.6900 C   0  0  2  0  0  3  0  0  0  0  0  0
  183.7840  179.1890  144.7000 N   0  0  0  0  0  0  0  0  0  0  0  0
  185.7860  177.3940  147.0380 C   0  0  0  0  0  3  0  0  0  0  0  0
  183.9390  178.4470  145.8740 N   0  0  0  0  0  2  0  0  0  0  0  0
  187.0340  178.2230  144.5830 C   0  0  0  0  0  3  0  0  0  0  0  0
  187.5120  177.1800  145.2860 C   0  0  0  0  0  0  0  0  0  0  0  0
  186.9200  176.8240  146.6120 C   0  0  0  0  0  3  0  0  0  0  0  0
  184.9340  179.5790  144.2550 C   0  0  0  0  0  3  0  0  0  0  0  0
  185.1890  178.4170  146.1780 C   0  0  2  0  0  3  0  0  0  0  0  0
  186.0180  179.1560  145.1900 C   0  0  1  0  0  3  0  0  0  0  0  0
  189.5920  175.9500  145.7360 C   0  0  0  0  0  3  0  0  0  0  0  0
  190.6730  176.6430  145.9010 N   0  0  0  0  0  0  0  0  0  0  0  0
  191.6840  176.3150  146.8640 C   0  0  0  0  0  0  0  0  0  0  0  0
  191.5740  176.8480  148.4200 S   0  0  0  0  0  0  0  0  0  0  0  0
  195.0300  174.0620  145.4960 C   0  0  0  0  0  3  0  0  0  0  0  0
  193.7430  173.5230  145.5150 C   0  0  0  0  0  0  0  0  0  0  0  0
  193.5110  172.1340  145.0370 C   0  0  0  0  0  1  0  0  0  0  0  0
  194.1440  176.1180  146.4070 C   0  0  0  0  0  3  0  0  0  0  0  0
  192.7000  174.2670  145.9720 N   0  0  0  0  0  0  0  0  0  0  0  0
  192.8640  175.5470  146.4180 C   0  0  0  0  0  0  0  0  0  0  0  0
  195.2270  175.3690  145.9430 C   0  0  0  0  0  3  0  0  0  0  0  0
  189.0140  176.9470  142.2860 C   0  0  0  0  0  3  0  0  0  0  0  0
  189.2990  177.0720  143.5880 C   0  0  0  0  0  3  0  0  0  0  0  0
  186.7970  176.3910  141.6200 O   0  0  0  0  0  0  0  0  0  0  0  0
  188.0050  176.0470  141.6920 C   0  0  0  0  0  0  0  0  0  0  0  0
  188.3830  174.7540  141.2140 N   0  0  0  0  0  2  0  0  0  0  0  0
  189.7430  174.2460  141.3180 C   0  0  0  0  0  2  0  0  0  0  0  0
  188.9070  172.2780  142.7650 C   0  0  0  0  0  1  0  0  0  0  0  0
  189.8710  173.3910  142.5310 C   0  0  0  0  0  0  0  0  0  0  0  0
  190.7450  173.6210  143.3510 O   0  0  0  0  0  0  0  0  0  0  0  0
  1 23  1  6  0  0  0
  1  6  1  0  0  0  0
  1 11  1  0  0  0  0
  2  4  1  0  0  0  0
  4  9  1  0  0  0  0
  5 10  1  0  0  0  0
  5  6  2  0  0  0  0
  6  7  1  0  0  0  0
  7  3  2  0  0  0  0
  8  2  2  0  0  0  0
  9  3  1  6  0  0  0
 10  8  1  6  0  0  0
 10  9  1  0  0  0  0
 11 12  2  0  0  0  0
 12 13  1  0  0  0  0
 13 14  2  0  0  0  0
 15 16  2  0  0  0  0
 15 21  1  0  0  0  0
 16 19  1  0  0  0  0
 17 16  1  0  0  0  0
 18 20  1  0  0  0  0
 19 20  2  0  0  0  0
 20 13  1  0  0  0  0
 21 18  2  0  0  0  0
 22 23  2  0  0  0  0
 24 25  2  0  0  0  0
 25 22  1  0  0  0  0
 26 27  1  0  0  0  0
 26 25  1  0  0  0  0
 27 29  1  0  0  0  0
 29 28  1  0  0  0  0
 29 30  2  0  0  0  0
M  END
>  <MODEL>
2

>  <REMARK>
 VINA RESULT:      -7.4      1.238      2.438
  Name = 
  8 active torsions:
  status: ('A' for Active; 'I' for Inactive)
    1  A    between atoms: C_1  and  C_24
    2  A    between atoms: C_4  and  C_18
    3  A    between atoms: C_5  and  C_24
    4  A    between atoms: N_10  and  C_15
    5  A    between atoms: C_15  and  C_17
    6  A    between atoms: C_19  and  C_23
    7  A    between atoms: C_19  and  N_29
    8  A    between atoms: C_22  and  C_24
                            x       y       z     vdW  Elec       q    Type
                         _______ _______ _______ _____ _____    ______ ____

>  <TORSDO>
F 8

$$$$
=
 OpenBabel11042413463D

 30 32  0  0  1  0  0  0  0  0999 V2000
  188.6980  176.7570  145.7170 C   0  0  2  0  0  3  0  0  0  0  0  0
  183.7060  178.9910  144.5180 N   0  0  0  0  0  0  0  0  0  0  0  0
  185.6280  178.2460  147.4250 C   0  0  0  0  0  3  0  0  0  0  0  0
  183.8150  178.6870  145.8780 N   0  0  0  0  0  2  0  0  0  0  0  0
  187.0150  178.3500  144.9060 C   0  0  0  0  0  3  0  0  0  0  0  0
  187.5050  177.6410  145.9390 C   0  0  0  0  0  0  0  0  0  0  0  0
  186.8310  177.6790  147.2730 C   0  0  0  0  0  3  0  0  0  0  0  0
  184.8580  179.3230  144.0340 C   0  0  0  0  0  3  0  0  0  0  0  0
  185.0350  178.8750  146.2430 C   0  0  2  0  0  3  0  0  0  0  0  0
  185.8880  179.3290  145.1140 C   0  0  1  0  0  3  0  0  0  0  0  0
  188.8650  176.4620  144.2650 C   0  0  0  0  0  3  0  0  0  0  0  0
  188.4400  175.3430  143.7710 N   0  0  0  0  0  0  0  0  0  0  0  0
  188.5920  174.9780  142.3920 C   0  0  0  0  0  0  0  0  0  0  0  0
  187.9440  175.9070  141.1960 S   0  0  0  0  0  0  0  0  0  0  0  0
  190.6680  171.3880  141.4200 C   0  0  0  0  0  3  0  0  0  0  0  0
  190.6670  172.4880  140.5620 C   0  0  0  0  0  0  0  0  0  0  0  0
  191.4150  172.4310  139.2780 C   0  0  0  0  0  1  0  0  0  0  0  0
  189.2690  172.6270  142.9520 C   0  0  0  0  0  3  0  0  0  0  0  0
  189.9810  173.6130  140.8990 N   0  0  0  0  0  0  0  0  0  0  0  0
  189.2830  173.7140  142.0670 C   0  0  0  0  0  0  0  0  0  0  0  0
  189.9660  171.4630  142.6230 C   0  0  0  0  0  3  0  0  0  0  0  0
  189.5230  174.9040  147.2030 C   0  0  0  0  0  3  0  0  0  0  0  0
  188.5560  175.4730  146.4750 C   0  0  0  0  0  3  0  0  0  0  0  0
  191.2020  176.1930  148.2920 O   0  0  0  0  0  0  0  0  0  0  0  0
  190.9060  175.3980  147.3630 C   0  0  0  0  0  0  0  0  0  0  0  0
  191.9260  175.0010  146.4450 N   0  0  0  0  0  2  0  0  0  0  0  0
  191.6600  174.1390  145.3020 C   0  0  0  0  0  2  0  0  0  0  0  0
  192.5090  176.1760  143.9630 C   0  0  0  0  0  1  0  0  0  0  0  0
  192.3000  174.7050  144.0820 C   0  0  0  0  0  0  0  0  0  0  0  0
  192.6240  173.9680  143.1650 O   0  0  0  0  0  0  0  0  0  0  0  0
  1 11  1  6  0  0  0
  1  6  1  0  0  0  0
  1 23  1  0  0  0  0
  2  4  1  0  0  0  0
  4  9  1  0  0  0  0
  5 10  1  0  0  0  0
  5  6  2  0  0  0  0
  6  7  1  0  0  0  0
  7  3  2  0  0  0  0
  8  2  2  0  0  0  0
  9  3  1  6  0  0  0
 10  8  1  6  0  0  0
 10  9  1  0  0  0  0
 12 11  2  0  0  0  0
 13 12  1  0  0  0  0
 14 13  2  0  0  0  0
 15 21  1  0  0  0  0
 16 19  1  0  0  0  0
 16 15  2  0  0  0  0
 17 16  1  0  0  0  0
 19 20  2  0  0  0  0
 20 13  1  0  0  0  0
 20 18  1  0  0  0  0
 21 18  2  0  0  0  0
 22 25  1  0  0  0  0
 23 22  2  0  0  0  0
 25 24  2  0  0  0  0
 26 25  1  0  0  0  0
 27 26  1  0  0  0  0
 28 29  1  0  0  0  0
 29 27  1  0  0  0  0
 30 29  2  0  0  0  0
M  END
>  <MODEL>
3

>  <REMARK>
 VINA RESULT:      -7.3      3.125      5.314
  Name = 
  8 active torsions:
  status: ('A' for Active; 'I' for Inactive)
    1  A    between atoms: C_1  and  C_24
    2  A    between atoms: C_4  and  C_18
    3  A    between atoms: C_5  and  C_24
    4  A    between atoms: N_10  and  C_15
    5  A    between atoms: C_15  and  C_17
    6  A    between atoms: C_19  and  C_23
    7  A    between atoms: C_19  and  N_29
    8  A    between atoms: C_22  and  C_24
                            x       y       z     vdW  Elec       q    Type
                         _______ _______ _______ _____ _____    ______ ____

>  <TORSDO>
F 8

$$$$
=
 OpenBabel11042413463D

 30 32  0  0  1  0  0  0  0  0999 V2000
  186.9600  176.5680  143.2100 C   0  0  2  0  0  3  0  0  0  0  0  0
  190.5280  175.0010  147.2310 N   0  0  0  0  0  0  0  0  0  0  0  0
  190.0710  177.7850  145.0540 C   0  0  0  0  0  3  0  0  0  0  0  0
  191.0160  176.0980  146.5160 N   0  0  0  0  0  2  0  0  0  0  0  0
  187.8330  176.0190  145.4390 C   0  0  0  0  0  3  0  0  0  0  0  0
  187.9360  176.7770  144.3320 C   0  0  0  0  0  0  0  0  0  0  0  0
  189.0480  177.7670  144.1910 C   0  0  0  0  0  3  0  0  0  0  0  0
  189.2370  175.0350  147.2880 C   0  0  0  0  0  3  0  0  0  0  0  0
  190.0200  176.8360  146.1680 C   0  0  2  0  0  3  0  0  0  0  0  0
  188.7240  176.2720  146.6270 C   0  0  1  0  0  3  0  0  0  0  0  0
  187.2720  175.3090  142.4760 C   0  0  0  0  0  3  0  0  0  0  0  0
  188.3210  175.2330  141.7220 N   0  0  0  0  0  0  0  0  0  0  0  0
  188.6680  174.0670  140.9630 C   0  0  0  0  0  0  0  0  0  0  0  0
  189.1040  172.6680  141.7160 S   0  0  0  0  0  0  0  0  0  0  0  0
  188.7210  174.4490  136.7210 C   0  0  0  0  0  3  0  0  0  0  0  0
  187.7420  175.0660  137.4990 C   0  0  0  0  0  0  0  0  0  0  0  0
  186.6880  175.8930  136.8520 C   0  0  0  0  0  1  0  0  0  0  0  0
  189.6950  173.5360  138.7350 C   0  0  0  0  0  3  0  0  0  0  0  0
  187.7470  174.9100  138.8500 N   0  0  0  0  0  0  0  0  0  0  0  0
  188.6940  174.1640  139.4890 C   0  0  0  0  0  0  0  0  0  0  0  0
  189.7050  173.6820  137.3470 C   0  0  0  0  0  3  0  0  0  0  0  0
  185.9580  178.5370  142.0080 C   0  0  0  0  0  3  0  0  0  0  0  0
  186.9910  177.7240  142.2580 C   0  0  0  0  0  3  0  0  0  0  0  0
  183.6480  177.9710  141.8960 O   0  0  0  0  0  0  0  0  0  0  0  0
  184.6000  178.4290  142.5800 C   0  0  0  0  0  0  0  0  0  0  0  0
  184.3400  178.8720  143.9130 N   0  0  0  0  0  2  0  0  0  0  0  0
  185.3640  179.4760  144.7520 C   0  0  0  0  0  2  0  0  0  0  0  0
  184.6370  177.5740  146.3380 C   0  0  0  0  0  1  0  0  0  0  0  0
  185.3130  178.8840  146.1180 C   0  0  0  0  0  0  0  0  0  0  0  0
  185.7970  179.4860  147.0630 O   0  0  0  0  0  0  0  0  0  0  0  0
  1 23  1  6  0  0  0
  1  6  1  0  0  0  0
  2  8  2  0  0  0  0
  4  2  1  0  0  0  0
  6  5  2  0  0  0  0
  7  6  1  0  0  0  0
  7  3  2  0  0  0  0
  9  3  1  6  0  0  0
  9  4  1  0  0  0  0
  9 10  1  0  0  0  0
 10  5  1  6  0  0  0
 10  8  1  0  0  0  0
 11  1  1  0  0  0  0
 12 11  2  0  0  0  0
 13 14  2  0  0  0  0
 13 12  1  0  0  0  0
 15 21  2  0  0  0  0
 15 16  1  0  0  0  0
 16 19  2  0  0  0  0
 17 16  1  0  0  0  0
 18 20  2  0  0  0  0
 19 20  1  0  0  0  0
 20 13  1  0  0  0  0
 21 18  1  0  0  0  0
 22 23  2  0  0  0  0
 22 25  1  0  0  0  0
 24 25  2  0  0  0  0
 25 26  1  0  0  0  0
 26 27  1  0  0  0  0
 27 29  1  0  0  0  0
 29 28  1  0  0  0  0
 29 30  2  0  0  0  0
M  END
>  <MODEL>
4

>  <REMARK>
 VINA RESULT:      -7.3      3.197      6.653
  Name = 
  8 active torsions:
  status: ('A' for Active; 'I' for Inactive)
    1  A    between atoms: C_1  and  C_24
    2  A    between atoms: C_4  and  C_18
    3  A    between atoms: C_5  and  C_24
    4  A    between atoms: N_10  and  C_15
    5  A    between atoms: C_15  and  C_17
    6  A    between atoms: C_19  and  C_23
    7  A    between atoms: C_19  and  N_29
    8  A    between atoms: C_22  and  C_24
                            x       y       z     vdW  Elec       q    Type
                         _______ _______ _______ _____ _____    ______ ____

>  <TORSDO>
F 8

$$$$
=
 OpenBabel11042413463D

 30 32  0  0  1  0  0  0  0  0999 V2000
  186.9960  176.5590  143.1650 C   0  0  2  0  0  3  0  0  0  0  0  0
  190.4050  174.9640  147.3100 N   0  0  0  0  0  0  0  0  0  0  0  0
  189.9810  177.7990  145.1940 C   0  0  0  0  0  3  0  0  0  0  0  0
  190.8980  176.0940  146.6520 N   0  0  0  0  0  2  0  0  0  0  0  0
  187.7740  175.9670  145.4170 C   0  0  0  0  0  3  0  0  0  0  0  0
  187.9110  176.7600  144.3390 C   0  0  0  0  0  0  0  0  0  0  0  0
  189.0010  177.7800  144.2810 C   0  0  0  0  0  3  0  0  0  0  0  0
  189.1120  174.9640  147.3050 C   0  0  0  0  0  3  0  0  0  0  0  0
  189.9010  176.8160  146.2760 C   0  0  2  0  0  3  0  0  0  0  0  0
  188.6000  176.2060  146.6550 C   0  0  1  0  0  3  0  0  0  0  0  0
  187.4060  175.3570  142.3840 C   0  0  0  0  0  3  0  0  0  0  0  0
  188.5190  175.3550  141.7220 N   0  0  0  0  0  0  0  0  0  0  0  0
  188.9630  174.2490  140.9240 C   0  0  0  0  0  0  0  0  0  0  0  0
  188.4900  174.0970  139.3530 S   0  0  0  0  0  0  0  0  0  0  0  0
  191.3390  171.2820  142.8480 C   0  0  0  0  0  3  0  0  0  0  0  0
  191.2320  172.5770  143.3550 C   0  0  0  0  0  0  0  0  0  0  0  0
  191.9480  172.9480  144.6050 C   0  0  0  0  0  1  0  0  0  0  0  0
  189.8820  171.9160  141.0260 C   0  0  0  0  0  3  0  0  0  0  0  0
  190.4760  173.5030  142.7060 N   0  0  0  0  0  0  0  0  0  0  0  0
  189.8000  173.2100  141.5580 C   0  0  0  0  0  0  0  0  0  0  0  0
  190.6550  170.9530  141.6770 C   0  0  0  0  0  3  0  0  0  0  0  0
  185.9620  178.5770  142.0760 C   0  0  0  0  0  3  0  0  0  0  0  0
  187.0060  177.7630  142.2740 C   0  0  0  0  0  3  0  0  0  0  0  0
  183.6670  177.9520  141.9710 O   0  0  0  0  0  0  0  0  0  0  0  0
  184.6110  178.4260  142.6550 C   0  0  0  0  0  0  0  0  0  0  0  0
  184.3490  178.8430  143.9960 N   0  0  0  0  0  2  0  0  0  0  0  0
  185.3620  179.4630  144.8370 C   0  0  0  0  0  2  0  0  0  0  0  0
  184.6660  177.5320  146.4030 C   0  0  0  0  0  1  0  0  0  0  0  0
  185.3430  178.8430  146.1910 C   0  0  0  0  0  0  0  0  0  0  0  0
  185.8520  179.4240  147.1360 O   0  0  0  0  0  0  0  0  0  0  0  0
  1 23  1  6  0  0  0
  1  6  1  0  0  0  0
  4  2  1  0  0  0  0
  6  5  2  0  0  0  0
  7  6  1  0  0  0  0
  7  3  2  0  0  0  0
  8  2  2  0  0  0  0
  9  3  1  6  0  0  0
  9  4  1  0  0  0  0
  9 10  1  0  0  0  0
 10  5  1  6  0  0  0
 10  8  1  0  0  0  0
 11  1  1  0  0  0  0
 12 11  2  0  0  0  0
 13 20  1  0  0  0  0
 13 12  1  0  0  0  0
 14 13  2  0  0  0  0
 15 16  1  0  0  0  0
 16 17  1  0  0  0  0
 18 20  2  0  0  0  0
 18 21  1  0  0  0  0
 19 16  2  0  0  0  0
 20 19  1  0  0  0  0
 21 15  2  0  0  0  0
 22 23  2  0  0  0  0
 22 25  1  0  0  0  0
 24 25  2  0  0  0  0
 25 26  1  0  0  0  0
 26 27  1  0  0  0  0
 27 29  1  0  0  0  0
 29 28  1  0  0  0  0
 29 30  2  0  0  0  0
M  END
>  <MODEL>
5

>  <REMARK>
 VINA RESULT:      -7.2      2.936      5.446
  Name = 
  8 active torsions:
  status: ('A' for Active; 'I' for Inactive)
    1  A    between atoms: C_1  and  C_24
    2  A    between atoms: C_4  and  C_18
    3  A    between atoms: C_5  and  C_24
    4  A    between atoms: N_10  and  C_15
    5  A    between atoms: C_15  and  C_17
    6  A    between atoms: C_19  and  C_23
    7  A    between atoms: C_19  and  N_29
    8  A    between atoms: C_22  and  C_24
                            x       y       z     vdW  Elec       q    Type
                         _______ _______ _______ _____ _____    ______ ____

>  <TORSDO>
F 8

$$$$
=
 OpenBabel11042413463D

 30 32  0  0  1  0  0  0  0  0999 V2000
  187.1030  176.8120  143.0160 C   0  0  2  0  0  3  0  0  0  0  0  0
  185.5850  178.4210  148.1610 N   0  0  0  0  0  0  0  0  0  0  0  0
  184.2920  178.6320  144.8470 C   0  0  0  0  0  3  0  0  0  0  0  0
  184.8000  179.0370  147.1820 N   0  0  0  0  0  2  0  0  0  0  0  0
  186.3460  176.6810  145.3490 C   0  0  0  0  0  3  0  0  0  0  0  0
  186.1370  177.1660  144.1110 C   0  0  0  0  0  0  0  0  0  0  0  0
  185.0010  178.0990  143.8440 C   0  0  0  0  0  3  0  0  0  0  0  0
  185.9470  177.2410  147.7750 C   0  0  0  0  0  3  0  0  0  0  0  0
  184.6420  178.2130  146.2060 C   0  0  2  0  0  3  0  0  0  0  0  0
  185.3430  176.9250  146.4470 C   0  0  1  0  0  3  0  0  0  0  0  0
  188.3110  176.1480  143.5820 C   0  0  0  0  0  3  0  0  0  0  0  0
  188.6120  174.9360  143.2400 N   0  0  0  0  0  0  0  0  0  0  0  0
  189.7400  174.2220  143.7650 C   0  0  0  0  0  0  0  0  0  0  0  0
  190.3980  172.9580  142.9380 S   0  0  0  0  0  0  0  0  0  0  0  0
  191.2830  175.3880  147.5600 C   0  0  0  0  0  3  0  0  0  0  0  0
  192.0630  175.4390  146.4060 C   0  0  0  0  0  0  0  0  0  0  0  0
  193.4680  175.9230  146.4780 C   0  0  0  0  0  1  0  0  0  0  0  0
  189.4470  174.5390  146.2370 C   0  0  0  0  0  3  0  0  0  0  0  0
  191.5420  175.0450  145.2130 N   0  0  0  0  0  0  0  0  0  0  0  0
  190.2580  174.5970  145.0960 C   0  0  0  0  0  0  0  0  0  0  0  0
  189.9650  174.9370  147.4710 C   0  0  0  0  0  3  0  0  0  0  0  0
  187.2130  178.2760  140.9740 C   0  0  0  0  0  3  0  0  0  0  0  0
  187.5130  178.0350  142.2560 C   0  0  0  0  0  3  0  0  0  0  0  0
  187.0620  176.4700  139.4300 O   0  0  0  0  0  0  0  0  0  0  0  0
  186.4690  177.3800  140.0660 C   0  0  0  0  0  0  0  0  0  0  0  0
  185.0640  177.5520  139.8720 N   0  0  0  0  0  2  0  0  0  0  0  0
  184.3090  178.6190  140.5130 C   0  0  0  0  0  2  0  0  0  0  0  0
  182.0580  178.6840  141.7750 C   0  0  0  0  0  1  0  0  0  0  0  0
  182.8740  178.2340  140.6110 C   0  0  0  0  0  0  0  0  0  0  0  0
  182.3730  177.5210  139.7560 O   0  0  0  0  0  0  0  0  0  0  0  0
  1 23  1  1  0  0  0
  1 11  1  0  0  0  0
  1  6  1  0  0  0  0
  4  2  1  0  0  0  0
  6  5  2  0  0  0  0
  7  6  1  0  0  0  0
  7  3  2  0  0  0  0
  8  2  2  0  0  0  0
  9  3  1  6  0  0  0
  9 10  1  0  0  0  0
  9  4  1  0  0  0  0
 10  5  1  6  0  0  0
 10  8  1  0  0  0  0
 12 11  2  0  0  0  0
 12 13  1  0  0  0  0
 13 20  1  0  0  0  0
 14 13  2  0  0  0  0
 16 17  1  0  0  0  0
 16 15  2  0  0  0  0
 18 21  2  0  0  0  0
 19 16  1  0  0  0  0
 20 19  2  0  0  0  0
 20 18  1  0  0  0  0
 21 15  1  0  0  0  0
 22 23  2  0  0  0  0
 24 25  2  0  0  0  0
 25 22  1  0  0  0  0
 26 25  1  0  0  0  0
 26 27  1  0  0  0  0
 27 29  1  0  0  0  0
 29 28  1  0  0  0  0
 30 29  2  0  0  0  0
M  END
>  <MODEL>
6

>  <REMARK>
 VINA RESULT:      -7.1      2.315      3.440
  Name = 
  8 active torsions:
  status: ('A' for Active; 'I' for Inactive)
    1  A    between atoms: C_1  and  C_24
    2  A    between atoms: C_4  and  C_18
    3  A    between atoms: C_5  and  C_24
    4  A    between atoms: N_10  and  C_15
    5  A    between atoms: C_15  and  C_17
    6  A    between atoms: C_19  and  C_23
    7  A    between atoms: C_19  and  N_29
    8  A    between atoms: C_22  and  C_24
                            x       y       z     vdW  Elec       q    Type
                         _______ _______ _______ _____ _____    ______ ____

>  <TORSDO>
F 8

$$$$
=
 OpenBabel11042413463D

 30 32  0  0  1  0  0  0  0  0999 V2000
  187.0100  176.5960  143.2120 C   0  0  2  0  0  3  0  0  0  0  0  0
  190.6370  175.1040  147.2090 N   0  0  0  0  0  0  0  0  0  0  0  0
  190.0620  177.9100  145.0890 C   0  0  0  0  0  3  0  0  0  0  0  0
  191.0780  176.2360  146.5180 N   0  0  0  0  0  2  0  0  0  0  0  0
  187.9030  176.0400  145.4310 C   0  0  0  0  0  3  0  0  0  0  0  0
  187.9750  176.8250  144.3410 C   0  0  0  0  0  0  0  0  0  0  0  0
  189.0420  177.8650  144.2230 C   0  0  0  0  0  3  0  0  0  0  0  0
  189.3450  175.0800  147.2630 C   0  0  0  0  0  3  0  0  0  0  0  0
  190.0510  176.9360  146.1830 C   0  0  2  0  0  3  0  0  0  0  0  0
  188.7810  176.3060  146.6270 C   0  0  1  0  0  3  0  0  0  0  0  0
  187.4010  175.3890  142.4290 C   0  0  0  0  0  3  0  0  0  0  0  0
  188.5210  175.3640  141.7810 N   0  0  0  0  0  0  0  0  0  0  0  0
  188.9490  174.2510  140.9830 C   0  0  0  0  0  0  0  0  0  0  0  0
  188.5610  174.1620  139.3840 S   0  0  0  0  0  0  0  0  0  0  0  0
  191.1290  171.0630  142.7780 C   0  0  0  0  0  3  0  0  0  0  0  0
  190.6060  170.9580  141.4890 C   0  0  0  0  0  0  0  0  0  0  0  0
  190.8170  169.7150  140.7000 C   0  0  0  0  0  1  0  0  0  0  0  0
  190.2030  173.2910  142.9320 C   0  0  0  0  0  3  0  0  0  0  0  0
  189.9030  171.9910  140.9530 N   0  0  0  0  0  0  0  0  0  0  0  0
  189.6860  173.1520  141.6370 C   0  0  0  0  0  0  0  0  0  0  0  0
  190.9260  172.2400  143.5000 C   0  0  0  0  0  3  0  0  0  0  0  0
  185.8970  178.5800  142.1400 C   0  0  0  0  0  3  0  0  0  0  0  0
  186.9630  177.7870  142.3060 C   0  0  0  0  0  3  0  0  0  0  0  0
  183.6010  177.9520  142.1200 O   0  0  0  0  0  0  0  0  0  0  0  0
  184.5730  178.4120  142.7730 C   0  0  0  0  0  0  0  0  0  0  0  0
  184.3690  178.7990  144.1330 N   0  0  0  0  0  2  0  0  0  0  0  0
  185.4170  179.4020  144.9430 C   0  0  0  0  0  2  0  0  0  0  0  0
  184.8290  177.4430  146.5170 C   0  0  0  0  0  1  0  0  0  0  0  0
  185.4170  178.7950  146.3030 C   0  0  0  0  0  0  0  0  0  0  0  0
  185.8690  179.4190  147.2500 O   0  0  0  0  0  0  0  0  0  0  0  0
  1 23  1  6  0  0  0
  1  6  1  0  0  0  0
  2  8  2  0  0  0  0
  4  2  1  0  0  0  0
  6  5  2  0  0  0  0
  7  6  1  0  0  0  0
  7  3  2  0  0  0  0
  9  3  1  6  0  0  0
  9  4  1  0  0  0  0
  9 10  1  0  0  0  0
 10  5  1  6  0  0  0
 10  8  1  0  0  0  0
 11  1  1  0  0  0  0
 12 11  2  0  0  0  0
 13 20  1  0  0  0  0
 13 12  1  0  0  0  0
 14 13  2  0  0  0  0
 15 21  1  0  0  0  0
 16 15  2  0  0  0  0
 17 16  1  0  0  0  0
 18 21  2  0  0  0  0
 19 16  1  0  0  0  0
 19 20  2  0  0  0  0
 20 18  1  0  0  0  0
 22 23  2  0  0  0  0
 22 25  1  0  0  0  0
 24 25  2  0  0  0  0
 25 26  1  0  0  0  0
 26 27  1  0  0  0  0
 27 29  1  0  0  0  0
 29 28  1  0  0  0  0
 29 30  2  0  0  0  0
M  END
>  <MODEL>
7

>  <REMARK>
 VINA RESULT:      -7.1      3.113      5.539
  Name = 
  8 active torsions:
  status: ('A' for Active; 'I' for Inactive)
    1  A    between atoms: C_1  and  C_24
    2  A    between atoms: C_4  and  C_18
    3  A    between atoms: C_5  and  C_24
    4  A    between atoms: N_10  and  C_15
    5  A    between atoms: C_15  and  C_17
    6  A    between atoms: C_19  and  C_23
    7  A    between atoms: C_19  and  N_29
    8  A    between atoms: C_22  and  C_24
                            x       y       z     vdW  Elec       q    Type
                         _______ _______ _______ _____ _____    ______ ____

>  <TORSDO>
F 8

$$$$
=
 OpenBabel11042413463D

 30 32  0  0  1  0  0  0  0  0999 V2000
  188.1750  176.5750  143.8240 C   0  0  2  0  0  3  0  0  0  0  0  0
  183.6960  178.6980  146.4300 N   0  0  0  0  0  0  0  0  0  0  0  0
  187.0640  177.8610  147.2400 C   0  0  0  0  0  3  0  0  0  0  0  0
  184.6870  178.3240  147.3420 N   0  0  0  0  0  2  0  0  0  0  0  0
  186.4020  178.1520  144.4560 C   0  0  0  0  0  3  0  0  0  0  0  0
  187.4500  177.4040  144.8450 C   0  0  0  0  0  0  0  0  0  0  0  0
  187.8470  177.3450  146.2850 C   0  0  0  0  0  3  0  0  0  0  0  0
  184.2290  179.0960  145.3200 C   0  0  0  0  0  3  0  0  0  0  0  0
  185.8380  178.5330  146.8060 C   0  0  2  0  0  3  0  0  0  0  0  0
  185.7180  179.0780  145.4280 C   0  0  1  0  0  3  0  0  0  0  0  0
  189.0670  175.5870  144.4930 C   0  0  0  0  0  3  0  0  0  0  0  0
  190.2580  175.3670  144.0360 N   0  0  0  0  0  0  0  0  0  0  0  0
  191.1610  174.4090  144.6080 C   0  0  0  0  0  0  0  0  0  0  0  0
  190.8000  172.8020  144.6050 S   0  0  0  0  0  0  0  0  0  0  0  0
  194.7650  175.7960  146.4060 C   0  0  0  0  0  3  0  0  0  0  0  0
  194.7210  174.6090  145.6750 C   0  0  0  0  0  0  0  0  0  0  0  0
  195.9560  173.8000  145.4950 C   0  0  0  0  0  1  0  0  0  0  0  0
  192.4040  176.0980  145.9870 C   0  0  0  0  0  3  0  0  0  0  0  0
  193.5490  174.1890  145.1260 N   0  0  0  0  0  0  0  0  0  0  0  0
  192.3910  174.8990  145.2620 C   0  0  0  0  0  0  0  0  0  0  0  0
  193.5970  176.5440  146.5590 C   0  0  0  0  0  3  0  0  0  0  0  0
  188.6380  177.7760  141.6630 C   0  0  0  0  0  3  0  0  0  0  0  0
  188.9840  177.4450  142.9130 C   0  0  0  0  0  3  0  0  0  0  0  0
  186.4320  178.0730  140.8200 O   0  0  0  0  0  0  0  0  0  0  0  0
  187.4340  177.3210  140.9380 C   0  0  0  0  0  0  0  0  0  0  0  0
  187.3780  176.0060  140.3830 N   0  0  0  0  0  2  0  0  0  0  0  0
  188.4630  175.0470  140.5300 C   0  0  0  0  0  2  0  0  0  0  0  0
  188.2350  174.2530  138.0840 C   0  0  0  0  0  1  0  0  0  0  0  0
  188.3000  173.9450  139.5400 C   0  0  0  0  0  0  0  0  0  0  0  0
  188.1860  172.7920  139.9240 O   0  0  0  0  0  0  0  0  0  0  0  0
  1 23  1  6  0  0  0
  1 11  1  0  0  0  0
  1  6  1  0  0  0  0
  2  4  1  0  0  0  0
  5  6  2  0  0  0  0
  6  7  1  0  0  0  0
  7  3  2  0  0  0  0
  8 10  1  0  0  0  0
  8  2  2  0  0  0  0
  9  3  1  6  0  0  0
  9  4  1  0  0  0  0
 10  5  1  6  0  0  0
 10  9  1  0  0  0  0
 12 11  2  0  0  0  0
 12 13  1  0  0  0  0
 13 20  1  0  0  0  0
 14 13  2  0  0  0  0
 15 21  1  0  0  0  0
 16 15  2  0  0  0  0
 17 16  1  0  0  0  0
 18 21  2  0  0  0  0
 19 20  2  0  0  0  0
 19 16  1  0  0  0  0
 20 18  1  0  0  0  0
 22 23  2  0  0  0  0
 24 25  2  0  0  0  0
 25 22  1  0  0  0  0
 26 27  1  0  0  0  0
 26 25  1  0  0  0  0
 28 29  1  0  0  0  0
 29 30  2  0  0  0  0
 29 27  1  0  0  0  0
M  END
>  <MODEL>
8

>  <REMARK>
 VINA RESULT:      -6.9      1.892      2.717
  Name = 
  8 active torsions:
  status: ('A' for Active; 'I' for Inactive)
    1  A    between atoms: C_1  and  C_24
    2  A    between atoms: C_4  and  C_18
    3  A    between atoms: C_5  and  C_24
    4  A    between atoms: N_10  and  C_15
    5  A    between atoms: C_15  and  C_17
    6  A    between atoms: C_19  and  C_23
    7  A    between atoms: C_19  and  N_29
    8  A    between atoms: C_22  and  C_24
                            x       y       z     vdW  Elec       q    Type
                         _______ _______ _______ _____ _____    ______ ____

>  <TORSDO>
F 8

$$$$
=
 OpenBabel11042413463D

 30 32  0  0  1  0  0  0  0  0999 V2000
  188.8950  176.5770  145.7240 C   0  0  2  0  0  3  0  0  0  0  0  0
  184.2250  179.2140  144.1160 N   0  0  0  0  0  0  0  0  0  0  0  0
  185.3230  177.2560  146.8830 C   0  0  0  0  0  3  0  0  0  0  0  0
  183.9800  178.3550  145.1900 N   0  0  0  0  0  2  0  0  0  0  0  0
  187.3410  178.3990  145.1810 C   0  0  0  0  0  3  0  0  0  0  0  0
  187.5970  177.3060  145.9220 C   0  0  0  0  0  0  0  0  0  0  0  0
  186.5750  176.7830  146.8800 C   0  0  0  0  0  3  0  0  0  0  0  0
  185.4230  179.6970  144.1840 C   0  0  0  0  0  3  0  0  0  0  0  0
  185.0190  178.3430  145.9490 C   0  0  2  0  0  3  0  0  0  0  0  0
  186.1000  179.2180  145.4250 C   0  0  1  0  0  3  0  0  0  0  0  0
  189.1230  176.3020  144.2770 C   0  0  0  0  0  3  0  0  0  0  0  0
  188.1990  175.7430  143.5630 N   0  0  0  0  0  0  0  0  0  0  0  0
  188.3570  175.4200  142.1750 C   0  0  0  0  0  0  0  0  0  0  0  0
  189.4590  174.2950  141.6900 S   0  0  0  0  0  0  0  0  0  0  0  0
  186.0320  177.4770  139.2590 C   0  0  0  0  0  3  0  0  0  0  0  0
  186.8420  176.3940  138.9180 C   0  0  0  0  0  0  0  0  0  0  0  0
  186.8980  175.9220  137.5090 C   0  0  0  0  0  1  0  0  0  0  0  0
  186.7530  177.2470  141.5550 C   0  0  0  0  0  3  0  0  0  0  0  0
  187.5820  175.7700  139.8730 N   0  0  0  0  0  0  0  0  0  0  0  0
  187.5610  176.1650  141.1790 C   0  0  0  0  0  0  0  0  0  0  0  0
  185.9870  177.9020  140.5880 C   0  0  0  0  0  3  0  0  0  0  0  0
  189.8860  174.8800  147.2930 C   0  0  0  0  0  3  0  0  0  0  0  0
  188.9000  175.2880  146.4850 C   0  0  0  0  0  3  0  0  0  0  0  0
  191.2270  176.4770  148.4430 O   0  0  0  0  0  0  0  0  0  0  0  0
  191.1560  175.5900  147.5530 C   0  0  0  0  0  0  0  0  0  0  0  0
  192.3190  175.2980  146.7760 N   0  0  0  0  0  2  0  0  0  0  0  0
  192.3100  174.3370  145.6830 C   0  0  0  0  0  2  0  0  0  0  0  0
  192.9150  176.4880  144.3910 C   0  0  0  0  0  1  0  0  0  0  0  0
  192.6620  175.0200  144.4070 C   0  0  0  0  0  0  0  0  0  0  0  0
  192.7110  174.3830  143.3670 O   0  0  0  0  0  0  0  0  0  0  0  0
  1 11  1  6  0  0  0
  1  6  1  0  0  0  0
  1 23  1  0  0  0  0
  2  8  2  0  0  0  0
  2  4  1  0  0  0  0
  4  9  1  0  0  0  0
  5 10  1  0  0  0  0
  5  6  2  0  0  0  0
  6  7  1  0  0  0  0
  7  3  2  0  0  0  0
  9  3  1  6  0  0  0
 10  8  1  6  0  0  0
 10  9  1  0  0  0  0
 12 11  2  0  0  0  0
 13 12  1  0  0  0  0
 14 13  2  0  0  0  0
 15 21  1  0  0  0  0
 16 15  2  0  0  0  0
 16 19  1  0  0  0  0
 17 16  1  0  0  0  0
 19 20  2  0  0  0  0
 20 18  1  0  0  0  0
 20 13  1  0  0  0  0
 21 18  2  0  0  0  0
 22 25  1  0  0  0  0
 23 22  2  0  0  0  0
 25 24  2  0  0  0  0
 26 25  1  0  0  0  0
 27 26  1  0  0  0  0
 28 29  1  0  0  0  0
 29 27  1  0  0  0  0
 30 29  2  0  0  0  0
M  END
>  <MODEL>
9

>  <REMARK>
 VINA RESULT:      -6.9      2.559      6.483
  Name = 
  8 active torsions:
  status: ('A' for Active; 'I' for Inactive)
    1  A    between atoms: C_1  and  C_24
    2  A    between atoms: C_4  and  C_18
    3  A    between atoms: C_5  and  C_24
    4  A    between atoms: N_10  and  C_15
    5  A    between atoms: C_15  and  C_17
    6  A    between atoms: C_19  and  C_23
    7  A    between atoms: C_19  and  N_29
    8  A    between atoms: C_22  and  C_24
                            x       y       z     vdW  Elec       q    Type
                         _______ _______ _______ _____ _____    ______ ____

>  <TORSDO>
F 8

$$$$
