=
 OpenBabel11042418593D

 41 44  0  0  1  0  0  0  0  0999 V2000
  195.1170  172.6120  145.6580 F   0  0  0  0  0  0  0  0  0  0  0  0
  192.7730  174.0460  145.8390 C   0  0  0  0  0  3  0  0  0  0  0  0
  195.0200  176.5080  144.1090 C   0  0  0  0  0  3  0  0  0  0  0  0
  195.2480  173.9880  145.5040 C   0  0  0  0  0  0  0  0  0  0  0  0
  190.2650  176.3940  144.6460 C   0  0  0  0  0  0  0  0  0  0  0  0
  195.9810  174.5060  146.5630 F   0  0  0  0  0  0  0  0  0  0  0  0
  193.8950  174.6600  145.4400 C   0  0  0  0  0  0  0  0  0  0  0  0
  190.3810  174.2660  145.1840 C   0  0  2  0  0  3  0  0  0  0  0  0
  196.0290  175.7200  143.8860 N   0  0  0  0  0  0  0  0  0  0  0  0
  189.6120  175.2830  144.5380 N   0  0  0  0  0  0  0  0  0  0  0  0
  192.7090  176.6690  144.7080 N   0  0  0  0  0  0  0  0  0  0  0  0
  195.9810  174.2830  144.1760 C   0  0  1  0  0  3  0  0  0  0  0  0
  191.5110  176.2550  145.4490 C   0  0  2  0  0  3  0  0  0  0  0  0
  191.5060  174.7760  145.6670 C   0  0  2  0  0  3  0  0  0  0  0  0
  193.8200  175.9930  144.7730 C   0  0  0  0  0  0  0  0  0  0  0  0
  190.0940  172.8050  145.0330 C   0  0  0  0  0  2  0  0  0  0  0  0
  189.6480  172.4980  143.6070 C   0  0  0  0  0  2  0  0  0  0  0  0
  190.6270  171.5490  142.9160 C   0  0  0  0  0  2  0  0  0  0  0  0
  191.9040  172.2310  142.5290 C   0  0  0  0  0  0  0  0  0  0  0  0
  193.0230  171.8540  143.0700 N   0  0  0  0  0  2  0  0  0  0  0  0
  192.0040  174.7040  141.7960 C   0  0  0  0  0  1  0  0  0  0  0  0
  191.9030  173.2520  141.4670 C   0  0  0  0  0  0  0  0  0  0  0  0
  191.8020  172.9100  140.2610 O   0  0  0  0  0  0  0  0  0  0  0  0
  197.3860  173.6780  144.0730 C   0  0  0  0  0  2  0  0  0  0  0  0
  197.5840  173.1110  142.8050 O   0  0  0  0  0  0  0  0  0  0  0  0
  196.1920  171.5650  141.8210 O   0  0  0  0  0  1  0  0  0  0  0  0
  197.0570  171.8120  142.8960 C   0  0  0  0  0  2  0  0  0  0  0  0
  189.7520  177.6850  144.0990 C   0  0  0  0  0  2  0  0  0  0  0  0
  187.6080  177.6240  142.5660 C   0  0  1  0  0  3  0  0  0  0  0  0
  186.5600  178.7570  142.4250 C   0  0  0  0  0  2  0  0  0  0  0  0
  185.6640  178.9470  143.6730 C   0  0  0  0  0  2  0  0  0  0  0  0
  188.2580  177.6760  143.9340 C   0  0  0  0  0  0  0  0  0  0  0  0
  187.4870  177.8740  145.0100 C   0  0  0  0  0  3  0  0  0  0  0  0
  185.9870  177.9830  144.8370 C   0  0  1  0  0  3  0  0  0  0  0  0
  184.2760  177.4830  146.4810 O   0  0  0  0  0  1  0  0  0  0  0  0
  185.3070  178.3840  146.1590 C   0  0  1  0  0  3  0  0  0  0  0  0
  186.3210  179.7860  148.0250 C   0  0  0  0  0  1  0  0  0  0  0  0
  186.2980  178.4360  147.3300 C   0  0  1  0  0  3  0  0  0  0  0  0
  185.9650  177.4500  148.2630 O   0  0  0  0  0  1  0  0  0  0  0  0
  186.9860  176.3830  142.3990 O   0  0  0  0  0  0  0  0  0  0  0  0
  187.8050  175.6820  141.5120 C   0  0  0  0  0  1  0  0  0  0  0  0
  3 15  1  0  0  0  0
  4  1  1  0  0  0  0
  4  6  1  0  0  0  0
  7  4  1  0  0  0  0
  7  2  2  0  0  0  0
  8 16  1  6  0  0  0
  8 14  1  0  0  0  0
  9  3  2  0  0  0  0
  9 12  1  0  0  0  0
 10  5  2  0  0  0  0
 10  8  1  0  0  0  0
 11 15  2  0  0  0  0
 11 13  1  0  0  0  0
 12 24  1  1  0  0  0
 12  4  1  0  0  0  0
 13  5  1  6  0  0  0
 13 14  1  0  0  0  0
 14  2  1  6  0  0  0
 15  7  1  0  0  0  0
 17 16  1  0  0  0  0
 18 17  1  0  0  0  0
 19 18  1  0  0  0  0
 19 20  2  0  0  0  0
 22 21  1  0  0  0  0
 22 19  1  0  0  0  0
 23 22  2  0  0  0  0
 25 27  1  0  0  0  0
 25 24  1  0  0  0  0
 26 27  1  0  0  0  0
 28  5  1  0  0  0  0
 29 40  1  1  0  0  0
 29 32  1  0  0  0  0
 30 29  1  0  0  0  0
 30 31  1  0  0  0  0
 31 34  1  0  0  0  0
 32 28  1  0  0  0  0
 32 33  2  0  0  0  0
 34 33  1  0  0  0  0
 34 36  1  1  0  0  0
 36 35  1  1  0  0  0
 36 38  1  0  0  0  0
 38 37  1  1  0  0  0
 38 39  1  0  0  0  0
 41 40  1  0  0  0  0
M  END
>  <MODEL>
1

>  <REMARK>
 VINA RESULT:      -6.8      0.000      0.000
  Name = 
  13 active torsions:
  status: ('A' for Active; 'I' for Inactive)
    1  A    between atoms: C_1  and  C_5
    2  A    between atoms: C_1  and  C_25
    3  A    between atoms: C_4  and  O_10
    4  A    between atoms: C_5  and  C_40
    5  A    between atoms: C_8  and  O_28
    6  A    between atoms: C_8  and  C_31
    7  A    between atoms: C_13  and  O_28
    8  A    between atoms: C_14  and  C_19
    9  A    between atoms: C_14  and  C_33
   10  A    between atoms: C_18  and  C_23
   11  A    between atoms: C_21  and  C_36
   12  A    between atoms: C_23  and  C_40
   13  A    between atoms: C_36  and  C_39
                            x       y       z     vdW  Elec       q    Type
                         _______ _______ _______ _____ _____    ______ ____

>  <TORSDO>
F 13

$$$$
=
 OpenBabel11042418593D

 41 44  0  0  1  0  0  0  0  0999 V2000
  194.9430  173.3430  144.0640 F   0  0  0  0  0  0  0  0  0  0  0  0
  192.5600  173.8600  145.3430 C   0  0  0  0  0  3  0  0  0  0  0  0
  194.2950  177.1790  145.6320 C   0  0  0  0  0  3  0  0  0  0  0  0
  194.9420  174.4620  144.8900 C   0  0  0  0  0  0  0  0  0  0  0  0
  189.7180  175.9320  146.2700 C   0  0  0  0  0  0  0  0  0  0  0  0
  195.8000  174.2500  145.9610 F   0  0  0  0  0  0  0  0  0  0  0  0
  193.5500  174.7620  145.4000 C   0  0  0  0  0  0  0  0  0  0  0  0
  190.0830  174.0540  145.1870 C   0  0  2  0  0  3  0  0  0  0  0  0
  195.3090  176.9300  144.8590 N   0  0  0  0  0  0  0  0  0  0  0  0
  189.1430  175.0920  145.4730 N   0  0  0  0  0  0  0  0  0  0  0  0
  192.1100  176.5020  146.3350 N   0  0  0  0  0  0  0  0  0  0  0  0
  195.4200  175.6910  144.0830 C   0  0  1  0  0  3  0  0  0  0  0  0
  191.0870  175.5030  146.6680 C   0  0  2  0  0  3  0  0  0  0  0  0
  191.2300  174.2890  145.8090 C   0  0  2  0  0  3  0  0  0  0  0  0
  193.2650  176.1590  145.8400 C   0  0  0  0  0  0  0  0  0  0  0  0
  189.8870  173.0520  144.0930 C   0  0  0  0  0  2  0  0  0  0  0  0
  189.4820  173.7540  142.8000 C   0  0  0  0  0  2  0  0  0  0  0  0
  188.4180  172.9530  142.0490 C   0  0  0  0  0  2  0  0  0  0  0  0
  188.8760  172.5390  140.6840 C   0  0  0  0  0  0  0  0  0  0  0  0
  188.1200  172.7750  139.6540 N   0  0  0  0  0  2  0  0  0  0  0  0
  191.2470  172.6540  139.6710 C   0  0  0  0  0  1  0  0  0  0  0  0
  190.2180  171.9590  140.4980 C   0  0  0  0  0  0  0  0  0  0  0  0
  190.5080  170.8560  141.0280 O   0  0  0  0  0  0  0  0  0  0  0  0
  196.8290  175.5610  143.4950 C   0  0  0  0  0  2  0  0  0  0  0  0
  197.0580  176.5640  142.5410 O   0  0  0  0  0  0  0  0  0  0  0  0
  196.7900  174.5370  141.4860 O   0  0  0  0  0  1  0  0  0  0  0  0
  197.0370  175.9040  141.3010 C   0  0  0  0  0  2  0  0  0  0  0  0
  189.0240  177.1430  146.7990 C   0  0  0  0  0  2  0  0  0  0  0  0
  186.4310  177.4710  146.4540 C   0  0  1  0  0  3  0  0  0  0  0  0
  185.5410  176.6880  145.4580 C   0  0  0  0  0  2  0  0  0  0  0  0
  185.7850  177.0520  143.9720 C   0  0  0  0  0  2  0  0  0  0  0  0
  187.8560  177.5460  145.9430 C   0  0  0  0  0  0  0  0  0  0  0  0
  188.0660  177.8270  144.6520 C   0  0  0  0  0  3  0  0  0  0  0  0
  186.8820  178.1190  143.7540 C   0  0  1  0  0  3  0  0  0  0  0  0
  188.7180  178.1060  142.1690 O   0  0  0  0  0  1  0  0  0  0  0  0
  187.3220  178.2410  142.2830 C   0  0  1  0  0  3  0  0  0  0  0  0
  185.8390  177.8040  140.2620 C   0  0  0  0  0  1  0  0  0  0  0  0
  186.6510  177.1900  141.3880 C   0  0  1  0  0  3  0  0  0  0  0  0
  187.6310  176.3550  140.8400 O   0  0  0  0  0  1  0  0  0  0  0  0
  185.9330  178.7680  146.6140 O   0  0  0  0  0  0  0  0  0  0  0  0
  184.6790  178.6060  147.2060 C   0  0  0  0  0  1  0  0  0  0  0  0
  1  4  1  0  0  0  0
  2  7  2  0  0  0  0
  3 15  1  0  0  0  0
  4  7  1  0  0  0  0
  4  6  1  0  0  0  0
  5 28  1  0  0  0  0
  7 15  1  0  0  0  0
  8 16  1  6  0  0  0
  8 10  1  0  0  0  0
  8 14  1  0  0  0  0
  9  3  2  0  0  0  0
 10  5  2  0  0  0  0
 11 13  1  0  0  0  0
 12 24  1  1  0  0  0
 12  9  1  0  0  0  0
 12  4  1  0  0  0  0
 13  5  1  6  0  0  0
 14  2  1  6  0  0  0
 14 13  1  0  0  0  0
 15 11  2  0  0  0  0
 17 16  1  0  0  0  0
 18 17  1  0  0  0  0
 19 18  1  0  0  0  0
 20 19  2  0  0  0  0
 21 22  1  0  0  0  0
 22 19  1  0  0  0  0
 22 23  2  0  0  0  0
 25 24  1  0  0  0  0
 27 26  1  0  0  0  0
 27 25  1  0  0  0  0
 29 40  1  6  0  0  0
 30 29  1  0  0  0  0
 31 30  1  0  0  0  0
 32 29  1  0  0  0  0
 32 28  1  0  0  0  0
 33 32  2  0  0  0  0
 34 36  1  6  0  0  0
 34 31  1  0  0  0  0
 34 33  1  0  0  0  0
 36 35  1  1  0  0  0
 38 37  1  6  0  0  0
 38 36  1  0  0  0  0
 39 38  1  0  0  0  0
 40 41  1  0  0  0  0
M  END
>  <MODEL>
2

>  <REMARK>
 VINA RESULT:      -6.6      1.956      3.472
  Name = 
  13 active torsions:
  status: ('A' for Active; 'I' for Inactive)
    1  A    between atoms: C_1  and  C_5
    2  A    between atoms: C_1  and  C_25
    3  A    between atoms: C_4  and  O_10
    4  A    between atoms: C_5  and  C_40
    5  A    between atoms: C_8  and  O_28
    6  A    between atoms: C_8  and  C_31
    7  A    between atoms: C_13  and  O_28
    8  A    between atoms: C_14  and  C_19
    9  A    between atoms: C_14  and  C_33
   10  A    between atoms: C_18  and  C_23
   11  A    between atoms: C_21  and  C_36
   12  A    between atoms: C_23  and  C_40
   13  A    between atoms: C_36  and  C_39
                            x       y       z     vdW  Elec       q    Type
                         _______ _______ _______ _____ _____    ______ ____

>  <TORSDO>
F 13

$$$$
=
 OpenBabel11042418593D

 41 44  0  0  1  0  0  0  0  0999 V2000
  188.0410  174.7820  140.0570 F   0  0  0  0  0  0  0  0  0  0  0  0
  188.3180  175.1110  142.7780 C   0  0  0  0  0  3  0  0  0  0  0  0
  191.2930  172.9630  141.9800 C   0  0  0  0  0  3  0  0  0  0  0  0
  188.8720  173.8610  140.6860 C   0  0  0  0  0  0  0  0  0  0  0  0
  190.2100  175.5630  145.8500 C   0  0  0  0  0  0  0  0  0  0  0  0
  188.3040  172.5960  140.6090 F   0  0  0  0  0  0  0  0  0  0  0  0
  189.0990  174.2320  142.1350 C   0  0  0  0  0  0  0  0  0  0  0  0
  188.7060  176.6630  144.6840 C   0  0  2  0  0  3  0  0  0  0  0  0
  191.2150  173.0030  140.6840 N   0  0  0  0  0  0  0  0  0  0  0  0
  189.6750  176.7340  145.7330 N   0  0  0  0  0  0  0  0  0  0  0  0
  190.5840  173.9250  144.0530 N   0  0  0  0  0  0  0  0  0  0  0  0
  190.2480  173.8530  139.9830 C   0  0  1  0  0  3  0  0  0  0  0  0
  189.5980  174.5560  144.9400 C   0  0  2  0  0  3  0  0  0  0  0  0
  188.6770  175.4430  144.1660 C   0  0  2  0  0  3  0  0  0  0  0  0
  190.3250  173.6970  142.7970 C   0  0  0  0  0  0  0  0  0  0  0  0
  188.0780  177.8740  144.0690 C   0  0  0  0  0  2  0  0  0  0  0  0
  186.7770  178.2180  144.7880 C   0  0  0  0  0  2  0  0  0  0  0  0
  185.6210  177.3570  144.2760 C   0  0  0  0  0  2  0  0  0  0  0  0
  184.5920  178.1640  143.5450 C   0  0  0  0  0  0  0  0  0  0  0  0
  183.8860  179.0420  144.1920 N   0  0  0  0  0  2  0  0  0  0  0  0
  185.6480  177.8780  141.2070 C   0  0  0  0  0  1  0  0  0  0  0  0
  184.4510  178.0340  142.0840 C   0  0  0  0  0  0  0  0  0  0  0  0
  183.3110  178.0680  141.5540 O   0  0  0  0  0  0  0  0  0  0  0  0
  190.2030  173.4850  138.4960 C   0  0  0  0  0  2  0  0  0  0  0  0
  190.8970  172.2880  138.2650 O   0  0  0  0  0  0  0  0  0  0  0  0
  189.4460  170.5060  138.3930 O   0  0  0  0  0  1  0  0  0  0  0  0
  190.0020  171.4760  137.5470 C   0  0  0  0  0  2  0  0  0  0  0  0
  191.2590  175.2570  146.8670 C   0  0  0  0  0  2  0  0  0  0  0  0
  193.2750  176.4350  145.6430 C   0  0  1  0  0  3  0  0  0  0  0  0
  193.7860  176.1110  144.2170 C   0  0  0  0  0  2  0  0  0  0  0  0
  194.5110  174.7480  144.1000 C   0  0  0  0  0  2  0  0  0  0  0  0
  192.6350  175.2090  146.2640 C   0  0  0  0  0  0  0  0  0  0  0  0
  193.2440  174.0260  146.1350 C   0  0  0  0  0  3  0  0  0  0  0  0
  194.5790  173.9520  145.4240 C   0  0  1  0  0  3  0  0  0  0  0  0
  194.7580  172.0640  143.9120 O   0  0  0  0  0  1  0  0  0  0  0  0
  195.0200  172.4900  145.2270 C   0  0  1  0  0  3  0  0  0  0  0  0
  197.1150  173.4260  146.3270 C   0  0  0  0  0  1  0  0  0  0  0  0
  196.5130  172.2890  145.5200 C   0  0  1  0  0  3  0  0  0  0  0  0
  196.6910  171.0910  146.2190 O   0  0  0  0  0  1  0  0  0  0  0  0
  194.3430  176.8520  146.4440 O   0  0  0  0  0  0  0  0  0  0  0  0
  194.9570  177.8790  145.7270 C   0  0  0  0  0  1  0  0  0  0  0  0
  1  4  1  0  0  0  0
  3 15  1  0  0  0  0
  4  7  1  0  0  0  0
  5 28  1  0  0  0  0
  6  4  1  0  0  0  0
  7  2  2  0  0  0  0
  7 15  1  0  0  0  0
  8 16  1  6  0  0  0
  8 10  1  0  0  0  0
  9  3  2  0  0  0  0
 10  5  2  0  0  0  0
 12 24  1  6  0  0  0
 12  9  1  0  0  0  0
 12  4  1  0  0  0  0
 13 11  1  6  0  0  0
 13  5  1  0  0  0  0
 14  2  1  6  0  0  0
 14  8  1  0  0  0  0
 14 13  1  0  0  0  0
 15 11  2  0  0  0  0
 16 17  1  0  0  0  0
 18 17  1  0  0  0  0
 19 20  2  0  0  0  0
 19 18  1  0  0  0  0
 21 22  1  0  0  0  0
 22 19  1  0  0  0  0
 23 22  2  0  0  0  0
 25 24  1  0  0  0  0
 27 25  1  0  0  0  0
 27 26  1  0  0  0  0
 29 32  1  0  0  0  0
 29 40  1  1  0  0  0
 30 29  1  0  0  0  0
 31 30  1  0  0  0  0
 31 34  1  0  0  0  0
 32 28  1  0  0  0  0
 33 32  2  0  0  0  0
 34 36  1  6  0  0  0
 34 33  1  0  0  0  0
 36 35  1  6  0  0  0
 36 38  1  0  0  0  0
 38 39  1  0  0  0  0
 38 37  1  1  0  0  0
 41 40  1  0  0  0  0
M  END
>  <MODEL>
3

>  <REMARK>
 VINA RESULT:      -6.4      3.205      8.038
  Name = 
  13 active torsions:
  status: ('A' for Active; 'I' for Inactive)
    1  A    between atoms: C_1  and  C_5
    2  A    between atoms: C_1  and  C_25
    3  A    between atoms: C_4  and  O_10
    4  A    between atoms: C_5  and  C_40
    5  A    between atoms: C_8  and  O_28
    6  A    between atoms: C_8  and  C_31
    7  A    between atoms: C_13  and  O_28
    8  A    between atoms: C_14  and  C_19
    9  A    between atoms: C_14  and  C_33
   10  A    between atoms: C_18  and  C_23
   11  A    between atoms: C_21  and  C_36
   12  A    between atoms: C_23  and  C_40
   13  A    between atoms: C_36  and  C_39
                            x       y       z     vdW  Elec       q    Type
                         _______ _______ _______ _____ _____    ______ ____

>  <TORSDO>
F 13

$$$$
=
 OpenBabel11042418593D

 41 44  0  0  1  0  0  0  0  0999 V2000
  193.7090  173.0880  143.9770 F   0  0  0  0  0  0  0  0  0  0  0  0
  191.1700  173.9540  143.3530 C   0  0  0  0  0  3  0  0  0  0  0  0
  192.7510  177.1220  144.6060 C   0  0  0  0  0  3  0  0  0  0  0  0
  193.3310  174.2920  144.5610 C   0  0  0  0  0  0  0  0  0  0  0  0
  188.7380  176.3560  142.1120 C   0  0  0  0  0  0  0  0  0  0  0  0
  193.2470  174.1330  145.9380 F   0  0  0  0  0  0  0  0  0  0  0  0
  192.0020  174.7670  144.0190 C   0  0  0  0  0  0  0  0  0  0  0  0
  189.4470  174.3400  141.5980 C   0  0  2  0  0  3  0  0  0  0  0  0
  193.9750  176.6980  144.7000 N   0  0  0  0  0  0  0  0  0  0  0  0
  188.7050  175.4810  141.1610 N   0  0  0  0  0  0  0  0  0  0  0  0
  190.5650  176.7230  143.7180 N   0  0  0  0  0  0  0  0  0  0  0  0
  194.3850  175.3710  144.2300 C   0  0  1  0  0  3  0  0  0  0  0  0
  189.4420  175.8610  143.3270 C   0  0  2  0  0  3  0  0  0  0  0  0
  189.9340  174.5460  142.8140 C   0  0  2  0  0  3  0  0  0  0  0  0
  191.7010  176.2260  144.1170 C   0  0  0  0  0  0  0  0  0  0  0  0
  189.8680  173.2370  140.6780 C   0  0  0  0  0  2  0  0  0  0  0  0
  188.6600  172.6870  139.9250 C   0  0  0  0  0  2  0  0  0  0  0  0
  188.9780  172.4930  138.4420 C   0  0  0  0  0  2  0  0  0  0  0  0
  188.8660  173.7690  137.6650 C   0  0  0  0  0  0  0  0  0  0  0  0
  187.8560  174.5600  137.8710 N   0  0  0  0  0  2  0  0  0  0  0  0
  191.3760  173.9130  137.0820 C   0  0  0  0  0  1  0  0  0  0  0  0
  189.9460  174.1730  136.7470 C   0  0  0  0  0  0  0  0  0  0  0  0
  189.6720  174.7600  135.6690 O   0  0  0  0  0  0  0  0  0  0  0  0
  195.8020  175.0530  144.7200 C   0  0  0  0  0  2  0  0  0  0  0  0
  196.7520  175.7700  143.9760 O   0  0  0  0  0  0  0  0  0  0  0  0
  196.8100  176.2410  141.7250 O   0  0  0  0  0  1  0  0  0  0  0  0
  196.6960  175.2240  142.6830 C   0  0  0  0  0  2  0  0  0  0  0  0
  188.0480  177.6760  142.0140 C   0  0  0  0  0  2  0  0  0  0  0  0
  185.6950  178.5550  142.8140 C   0  0  1  0  0  3  0  0  0  0  0  0
  185.4490  179.6670  143.8630 C   0  0  0  0  0  2  0  0  0  0  0  0
  185.7890  179.2510  145.3160 C   0  0  0  0  0  2  0  0  0  0  0  0
  187.0100  177.8540  143.0870 C   0  0  0  0  0  0  0  0  0  0  0  0
  187.3190  177.5240  144.3460 C   0  0  0  0  0  3  0  0  0  0  0  0
  186.3240  177.8080  145.4520 C   0  0  1  0  0  3  0  0  0  0  0  0
  186.0350  176.8030  147.6400 O   0  0  0  0  0  1  0  0  0  0  0  0
  186.9390  177.5200  146.8340 C   0  0  1  0  0  3  0  0  0  0  0  0
  189.4550  177.5080  147.2140 C   0  0  0  0  0  1  0  0  0  0  0  0
  188.2470  176.7230  146.7340 C   0  0  1  0  0  3  0  0  0  0  0  0
  188.1350  175.5520  147.4900 O   0  0  0  0  0  1  0  0  0  0  0  0
  184.6560  177.6190  142.8660 O   0  0  0  0  0  0  0  0  0  0  0  0
  183.5330  178.2950  142.3880 C   0  0  0  0  0  1  0  0  0  0  0  0
  1  4  1  0  0  0  0
  2  7  2  0  0  0  0
  3  9  2  0  0  0  0
  4  6  1  0  0  0  0
  7 15  1  0  0  0  0
  7  4  1  0  0  0  0
  8 16  1  6  0  0  0
  8 14  1  0  0  0  0
 10  8  1  0  0  0  0
 10  5  2  0  0  0  0
 11 15  2  0  0  0  0
 12  4  1  0  0  0  0
 12  9  1  0  0  0  0
 12 24  1  1  0  0  0
 13  5  1  6  0  0  0
 13 11  1  0  0  0  0
 14 13  1  0  0  0  0
 14  2  1  6  0  0  0
 15  3  1  0  0  0  0
 17 16  1  0  0  0  0
 18 17  1  0  0  0  0
 19 20  2  0  0  0  0
 19 18  1  0  0  0  0
 22 21  1  0  0  0  0
 22 19  1  0  0  0  0
 23 22  2  0  0  0  0
 25 24  1  0  0  0  0
 26 27  1  0  0  0  0
 27 25  1  0  0  0  0
 28  5  1  0  0  0  0
 28 32  1  0  0  0  0
 29 40  1  1  0  0  0
 29 32  1  0  0  0  0
 29 30  1  0  0  0  0
 30 31  1  0  0  0  0
 31 34  1  0  0  0  0
 32 33  2  0  0  0  0
 33 34  1  0  0  0  0
 34 36  1  1  0  0  0
 36 35  1  1  0  0  0
 38 36  1  0  0  0  0
 38 37  1  1  0  0  0
 38 39  1  0  0  0  0
 41 40  1  0  0  0  0
M  END
>  <MODEL>
4

>  <REMARK>
 VINA RESULT:      -6.2      2.720      3.453
  Name = 
  13 active torsions:
  status: ('A' for Active; 'I' for Inactive)
    1  A    between atoms: C_1  and  C_5
    2  A    between atoms: C_1  and  C_25
    3  A    between atoms: C_4  and  O_10
    4  A    between atoms: C_5  and  C_40
    5  A    between atoms: C_8  and  O_28
    6  A    between atoms: C_8  and  C_31
    7  A    between atoms: C_13  and  O_28
    8  A    between atoms: C_14  and  C_19
    9  A    between atoms: C_14  and  C_33
   10  A    between atoms: C_18  and  C_23
   11  A    between atoms: C_21  and  C_36
   12  A    between atoms: C_23  and  C_40
   13  A    between atoms: C_36  and  C_39
                            x       y       z     vdW  Elec       q    Type
                         _______ _______ _______ _____ _____    ______ ____

>  <TORSDO>
F 13

$$$$
=
 OpenBabel11042418593D

 41 44  0  0  1  0  0  0  0  0999 V2000
  188.2010  173.1830  138.8510 F   0  0  0  0  0  0  0  0  0  0  0  0
  188.1570  174.8340  141.0550 C   0  0  0  0  0  3  0  0  0  0  0  0
  191.7870  173.8810  140.9100 C   0  0  0  0  0  3  0  0  0  0  0  0
  189.2920  173.0630  139.7050 C   0  0  0  0  0  0  0  0  0  0  0  0
  189.5200  177.3640  143.2840 C   0  0  0  0  0  0  0  0  0  0  0  0
  189.2850  171.8050  140.2920 F   0  0  0  0  0  0  0  0  0  0  0  0
  189.2630  174.1280  140.7780 C   0  0  0  0  0  0  0  0  0  0  0  0
  187.7740  177.1160  141.9710 C   0  0  2  0  0  3  0  0  0  0  0  0
  191.7780  173.2710  139.7630 N   0  0  0  0  0  0  0  0  0  0  0  0
  188.5680  178.0360  142.7240 N   0  0  0  0  0  0  0  0  0  0  0  0
  190.6270  175.3550  142.3950 N   0  0  0  0  0  0  0  0  0  0  0  0
  190.5950  173.2480  138.8960 C   0  0  1  0  0  3  0  0  0  0  0  0
  189.4190  175.9000  143.0280 C   0  0  2  0  0  3  0  0  0  0  0  0
  188.2690  175.8900  142.0750 C   0  0  2  0  0  3  0  0  0  0  0  0
  190.5580  174.4820  141.4310 C   0  0  0  0  0  0  0  0  0  0  0  0
  186.7510  177.5500  140.9690 C   0  0  0  0  0  2  0  0  0  0  0  0
  185.6710  178.3900  141.6450 C   0  0  0  0  0  2  0  0  0  0  0  0
  184.9170  177.5740  142.6950 C   0  0  0  0  0  2  0  0  0  0  0  0
  184.9270  178.2330  144.0410 C   0  0  0  0  0  0  0  0  0  0  0  0
  184.4830  179.4480  144.1640 N   0  0  0  0  0  2  0  0  0  0  0  0
  184.6400  177.6470  146.5380 C   0  0  0  0  0  1  0  0  0  0  0  0
  185.3410  177.4730  145.2330 C   0  0  0  0  0  0  0  0  0  0  0  0
  186.3090  176.6720  145.1660 O   0  0  0  0  0  0  0  0  0  0  0  0
  190.7920  172.2360  137.7610 C   0  0  0  0  0  2  0  0  0  0  0  0
  191.7320  171.2620  138.1290 O   0  0  0  0  0  0  0  0  0  0  0  0
  191.1300  169.3980  139.3360 O   0  0  0  0  0  1  0  0  0  0  0  0
  191.0330  170.0450  138.0960 C   0  0  0  0  0  2  0  0  0  0  0  0
  190.5400  177.9990  144.1690 C   0  0  0  0  0  2  0  0  0  0  0  0
  190.6870  176.4120  146.2690 C   0  0  1  0  0  3  0  0  0  0  0  0
  191.6920  176.5450  147.4400 C   0  0  0  0  0  2  0  0  0  0  0  0
  193.1510  176.1860  147.0650 C   0  0  0  0  0  2  0  0  0  0  0  0
  191.2800  176.9860  144.9980 C   0  0  0  0  0  0  0  0  0  0  0  0
  192.5500  176.7030  144.6900 C   0  0  0  0  0  3  0  0  0  0  0  0
  193.3410  175.7740  145.5870 C   0  0  1  0  0  3  0  0  0  0  0  0
  195.5850  175.0180  146.1100 O   0  0  0  0  0  1  0  0  0  0  0  0
  194.8200  175.7200  145.1610 C   0  0  1  0  0  3  0  0  0  0  0  0
  195.6430  175.9780  142.7670 C   0  0  0  0  0  1  0  0  0  0  0  0
  195.0050  175.0550  143.7910 C   0  0  1  0  0  3  0  0  0  0  0  0
  195.8020  173.9140  143.9330 O   0  0  0  0  0  1  0  0  0  0  0  0
  190.3790  175.0630  146.0630 O   0  0  0  0  0  0  0  0  0  0  0  0
  189.1810  174.8540  146.7480 C   0  0  0  0  0  1  0  0  0  0  0  0
  1  4  1  0  0  0  0
  3 15  1  0  0  0  0
  4  6  1  0  0  0  0
  4  7  1  0  0  0  0
  5 28  1  0  0  0  0
  7  2  2  0  0  0  0
  7 15  1  0  0  0  0
  8 16  1  6  0  0  0
  8 14  1  0  0  0  0
  8 10  1  0  0  0  0
  9  3  2  0  0  0  0
 10  5  2  0  0  0  0
 12 24  1  6  0  0  0
 12  4  1  0  0  0  0
 12  9  1  0  0  0  0
 13 11  1  6  0  0  0
 13  5  1  0  0  0  0
 14  2  1  6  0  0  0
 14 13  1  0  0  0  0
 15 11  2  0  0  0  0
 16 17  1  0  0  0  0
 17 18  1  0  0  0  0
 18 19  1  0  0  0  0
 19 20  2  0  0  0  0
 19 22  1  0  0  0  0
 22 21  1  0  0  0  0
 23 22  2  0  0  0  0
 24 25  1  0  0  0  0
 27 25  1  0  0  0  0
 27 26  1  0  0  0  0
 28 32  1  0  0  0  0
 29 40  1  6  0  0  0
 29 30  1  0  0  0  0
 31 30  1  0  0  0  0
 32 29  1  0  0  0  0
 33 32  2  0  0  0  0
 33 34  1  0  0  0  0
 34 36  1  6  0  0  0
 34 31  1  0  0  0  0
 36 35  1  1  0  0  0
 38 37  1  6  0  0  0
 38 39  1  0  0  0  0
 38 36  1  0  0  0  0
 40 41  1  0  0  0  0
M  END
>  <MODEL>
5

>  <REMARK>
 VINA RESULT:      -6.2      3.197      7.567
  Name = 
  13 active torsions:
  status: ('A' for Active; 'I' for Inactive)
    1  A    between atoms: C_1  and  C_5
    2  A    between atoms: C_1  and  C_25
    3  A    between atoms: C_4  and  O_10
    4  A    between atoms: C_5  and  C_40
    5  A    between atoms: C_8  and  O_28
    6  A    between atoms: C_8  and  C_31
    7  A    between atoms: C_13  and  O_28
    8  A    between atoms: C_14  and  C_19
    9  A    between atoms: C_14  and  C_33
   10  A    between atoms: C_18  and  C_23
   11  A    between atoms: C_21  and  C_36
   12  A    between atoms: C_23  and  C_40
   13  A    between atoms: C_36  and  C_39
                            x       y       z     vdW  Elec       q    Type
                         _______ _______ _______ _____ _____    ______ ____

>  <TORSDO>
F 13

$$$$
=
 OpenBabel11042418593D

 41 44  0  0  1  0  0  0  0  0999 V2000
  187.5950  177.8070  145.3610 F   0  0  0  0  0  0  0  0  0  0  0  0
  189.1000  175.5120  145.5840 C   0  0  0  0  0  3  0  0  0  0  0  0
  188.0240  175.3510  141.9890 C   0  0  0  0  0  3  0  0  0  0  0  0
  187.3790  176.8560  144.3700 C   0  0  0  0  0  0  0  0  0  0  0  0
  191.4290  172.9890  144.3850 C   0  0  0  0  0  0  0  0  0  0  0  0
  186.0870  176.3600  144.4750 F   0  0  0  0  0  0  0  0  0  0  0  0
  188.3730  175.7220  144.4770 C   0  0  0  0  0  0  0  0  0  0  0  0
  191.3310  174.4860  145.9910 C   0  0  2  0  0  3  0  0  0  0  0  0
  187.4900  176.5320  141.8980 N   0  0  0  0  0  0  0  0  0  0  0  0
  192.1710  173.5950  145.2520 N   0  0  0  0  0  0  0  0  0  0  0  0
  189.4410  173.8950  143.2520 N   0  0  0  0  0  0  0  0  0  0  0  0
  187.5670  177.5140  142.9840 C   0  0  1  0  0  3  0  0  0  0  0  0
  189.9890  173.3530  144.5020 C   0  0  2  0  0  3  0  0  0  0  0  0
  190.0840  174.4170  145.5470 C   0  0  2  0  0  3  0  0  0  0  0  0
  188.6360  174.9180  143.2470 C   0  0  0  0  0  0  0  0  0  0  0  0
  191.8670  175.5560  146.8900 C   0  0  0  0  0  2  0  0  0  0  0  0
  193.3250  175.8500  146.5520 C   0  0  0  0  0  2  0  0  0  0  0  0
  193.4420  177.0670  145.6340 C   0  0  0  0  0  2  0  0  0  0  0  0
  193.3560  176.6970  144.1850 C   0  0  0  0  0  0  0  0  0  0  0  0
  194.3440  176.0670  143.6230 N   0  0  0  0  0  2  0  0  0  0  0  0
  191.2170  178.0870  143.7920 C   0  0  0  0  0  1  0  0  0  0  0  0
  192.1180  176.9550  143.4280 C   0  0  0  0  0  0  0  0  0  0  0  0
  191.7970  176.2090  142.4680 O   0  0  0  0  0  0  0  0  0  0  0  0
  186.6240  178.6890  142.7010 C   0  0  0  0  0  2  0  0  0  0  0  0
  185.4070  178.2270  142.1800 O   0  0  0  0  0  0  0  0  0  0  0  0
  184.9740  179.6710  143.9180 O   0  0  0  0  0  1  0  0  0  0  0  0
  184.4230  178.7120  143.0580 C   0  0  0  0  0  2  0  0  0  0  0  0
  191.9660  171.9630  143.4430 C   0  0  0  0  0  2  0  0  0  0  0  0
  191.7300  172.4990  140.8730 C   0  0  1  0  0  3  0  0  0  0  0  0
  192.6420  171.9570  139.7440 C   0  0  0  0  0  2  0  0  0  0  0  0
  194.0680  172.5620  139.7400 C   0  0  0  0  0  2  0  0  0  0  0  0
  192.4960  172.5780  142.1780 C   0  0  0  0  0  0  0  0  0  0  0  0
  193.7400  173.0690  142.1690 C   0  0  0  0  0  3  0  0  0  0  0  0
  194.3250  173.5840  140.8710 C   0  0  1  0  0  3  0  0  0  0  0  0
  196.6260  172.9920  140.3820 O   0  0  0  0  0  1  0  0  0  0  0  0
  195.8150  173.9360  141.0380 C   0  0  1  0  0  3  0  0  0  0  0  0
  197.0350  175.2900  139.2620 C   0  0  0  0  0  1  0  0  0  0  0  0
  196.1460  175.3320  140.4920 C   0  0  1  0  0  3  0  0  0  0  0  0
  194.9580  175.9980  140.1720 O   0  0  0  0  0  1  0  0  0  0  0  0
  191.2660  173.7740  140.5340 O   0  0  0  0  0  0  0  0  0  0  0  0
  190.2140  173.5550  139.6440 C   0  0  0  0  0  1  0  0  0  0  0  0
  3 15  1  0  0  0  0
  4  6  1  0  0  0  0
  4  7  1  0  0  0  0
  4  1  1  0  0  0  0
  5 13  1  0  0  0  0
  5 10  2  0  0  0  0
  7  2  2  0  0  0  0
  8 16  1  6  0  0  0
  9  3  2  0  0  0  0
  9 12  1  0  0  0  0
 10  8  1  0  0  0  0
 12 24  1  6  0  0  0
 12  4  1  0  0  0  0
 13 11  1  6  0  0  0
 13 14  1  0  0  0  0
 14  2  1  6  0  0  0
 14  8  1  0  0  0  0
 15 11  2  0  0  0  0
 15  7  1  0  0  0  0
 17 16  1  0  0  0  0
 18 17  1  0  0  0  0
 19 18  1  0  0  0  0
 20 19  2  0  0  0  0
 22 21  1  0  0  0  0
 22 19  1  0  0  0  0
 23 22  2  0  0  0  0
 25 24  1  0  0  0  0
 25 27  1  0  0  0  0
 27 26  1  0  0  0  0
 28  5  1  0  0  0  0
 29 40  1  6  0  0  0
 29 32  1  0  0  0  0
 30 29  1  0  0  0  0
 31 30  1  0  0  0  0
 31 34  1  0  0  0  0
 32 28  1  0  0  0  0
 33 32  2  0  0  0  0
 34 36  1  1  0  0  0
 34 33  1  0  0  0  0
 36 35  1  6  0  0  0
 38 37  1  6  0  0  0
 38 36  1  0  0  0  0
 39 38  1  0  0  0  0
 41 40  1  0  0  0  0
M  END
>  <MODEL>
6

>  <REMARK>
 VINA RESULT:      -6.2      3.054      8.507
  Name = 
  13 active torsions:
  status: ('A' for Active; 'I' for Inactive)
    1  A    between atoms: C_1  and  C_5
    2  A    between atoms: C_1  and  C_25
    3  A    between atoms: C_4  and  O_10
    4  A    between atoms: C_5  and  C_40
    5  A    between atoms: C_8  and  O_28
    6  A    between atoms: C_8  and  C_31
    7  A    between atoms: C_13  and  O_28
    8  A    between atoms: C_14  and  C_19
    9  A    between atoms: C_14  and  C_33
   10  A    between atoms: C_18  and  C_23
   11  A    between atoms: C_21  and  C_36
   12  A    between atoms: C_23  and  C_40
   13  A    between atoms: C_36  and  C_39
                            x       y       z     vdW  Elec       q    Type
                         _______ _______ _______ _____ _____    ______ ____

>  <TORSDO>
F 13

$$$$
=
 OpenBabel11042418593D

 41 44  0  0  1  0  0  0  0  0999 V2000
  188.4620  172.8640  137.8100 F   0  0  0  0  0  0  0  0  0  0  0  0
  188.2020  174.4030  140.0790 C   0  0  0  0  0  3  0  0  0  0  0  0
  191.7610  173.2420  140.3710 C   0  0  0  0  0  3  0  0  0  0  0  0
  189.4170  172.6370  138.7950 C   0  0  0  0  0  0  0  0  0  0  0  0
  189.3750  176.7340  142.6130 C   0  0  0  0  0  0  0  0  0  0  0  0
  189.2630  171.3530  139.3030 F   0  0  0  0  0  0  0  0  0  0  0  0
  189.2960  173.6470  139.9140 C   0  0  0  0  0  0  0  0  0  0  0  0
  187.8170  176.6570  141.0640 C   0  0  2  0  0  3  0  0  0  0  0  0
  191.8780  172.6910  139.2000 N   0  0  0  0  0  0  0  0  0  0  0  0
  188.5470  177.4890  141.9690 N   0  0  0  0  0  0  0  0  0  0  0  0
  190.4870  174.7080  141.7680 N   0  0  0  0  0  0  0  0  0  0  0  0
  190.8270  172.7830  138.1820 C   0  0  1  0  0  3  0  0  0  0  0  0
  189.2340  175.2930  142.2620 C   0  0  2  0  0  3  0  0  0  0  0  0
  188.2270  175.3990  141.1630 C   0  0  2  0  0  3  0  0  0  0  0  0
  190.5050  173.8900  140.7550 C   0  0  0  0  0  0  0  0  0  0  0  0
  186.9670  177.2000  139.9590 C   0  0  0  0  0  2  0  0  0  0  0  0
  185.5870  177.5770  140.4900 C   0  0  0  0  0  2  0  0  0  0  0  0
  185.6930  178.6040  141.6180 C   0  0  0  0  0  2  0  0  0  0  0  0
  184.4690  178.6290  142.4820 C   0  0  0  0  0  0  0  0  0  0  0  0
  183.3550  178.1340  142.0310 N   0  0  0  0  0  2  0  0  0  0  0  0
  185.5660  180.1400  144.2640 C   0  0  0  0  0  1  0  0  0  0  0  0
  184.5520  179.1180  143.8690 C   0  0  0  0  0  0  0  0  0  0  0  0
  183.7730  178.6660  144.7460 O   0  0  0  0  0  0  0  0  0  0  0  0
  191.1250  171.8190  137.0280 C   0  0  0  0  0  2  0  0  0  0  0  0
  191.6890  170.6300  137.5150 O   0  0  0  0  0  0  0  0  0  0  0  0
  189.8480  169.2510  137.5160 O   0  0  0  0  0  1  0  0  0  0  0  0
  191.0210  169.5990  136.8330 C   0  0  0  0  0  2  0  0  0  0  0  0
  190.2950  177.2610  143.6630 C   0  0  0  0  0  2  0  0  0  0  0  0
  190.5040  176.1690  146.0530 C   0  0  1  0  0  3  0  0  0  0  0  0
  189.5550  175.1000  146.6490 C   0  0  0  0  0  2  0  0  0  0  0  0
  188.1490  175.6370  147.0160 C   0  0  0  0  0  2  0  0  0  0  0  0
  189.7640  177.0300  145.0500 C   0  0  0  0  0  0  0  0  0  0  0  0
  188.5360  177.4670  145.3520 C   0  0  0  0  0  3  0  0  0  0  0  0
  187.9450  177.1380  146.7070 C   0  0  1  0  0  3  0  0  0  0  0  0
  185.6240  176.4550  146.8770 O   0  0  0  0  0  1  0  0  0  0  0  0
  186.4710  177.5760  146.7880 C   0  0  1  0  0  3  0  0  0  0  0  0
  187.4380  179.2470  148.4450 C   0  0  0  0  0  1  0  0  0  0  0  0
  186.2020  178.4930  147.9890 C   0  0  1  0  0  3  0  0  0  0  0  0
  185.2040  179.4140  147.6540 O   0  0  0  0  0  1  0  0  0  0  0  0
  191.0020  176.9820  147.0770 O   0  0  0  0  0  0  0  0  0  0  0  0
  192.2910  176.5070  147.3240 C   0  0  0  0  0  1  0  0  0  0  0  0
  1  4  1  0  0  0  0
  3 15  1  0  0  0  0
  4  6  1  0  0  0  0
  4  7  1  0  0  0  0
  5 28  1  0  0  0  0
  7  2  2  0  0  0  0
  7 15  1  0  0  0  0
  8 16  1  6  0  0  0
  8 14  1  0  0  0  0
  8 10  1  0  0  0  0
  9  3  2  0  0  0  0
 10  5  2  0  0  0  0
 12 24  1  6  0  0  0
 12  4  1  0  0  0  0
 12  9  1  0  0  0  0
 13 11  1  6  0  0  0
 13  5  1  0  0  0  0
 14  2  1  6  0  0  0
 14 13  1  0  0  0  0
 15 11  2  0  0  0  0
 16 17  1  0  0  0  0
 17 18  1  0  0  0  0
 18 19  1  0  0  0  0
 19 22  1  0  0  0  0
 20 19  2  0  0  0  0
 22 21  1  0  0  0  0
 22 23  2  0  0  0  0
 24 25  1  0  0  0  0
 27 25  1  0  0  0  0
 27 26  1  0  0  0  0
 28 32  1  0  0  0  0
 29 30  1  0  0  0  0
 29 40  1  1  0  0  0
 30 31  1  0  0  0  0
 32 33  2  0  0  0  0
 32 29  1  0  0  0  0
 33 34  1  0  0  0  0
 34 36  1  6  0  0  0
 34 31  1  0  0  0  0
 36 35  1  1  0  0  0
 36 38  1  0  0  0  0
 38 37  1  6  0  0  0
 39 38  1  0  0  0  0
 40 41  1  0  0  0  0
M  END
>  <MODEL>
7

>  <REMARK>
 VINA RESULT:      -6.1      3.985      6.824
  Name = 
  13 active torsions:
  status: ('A' for Active; 'I' for Inactive)
    1  A    between atoms: C_1  and  C_5
    2  A    between atoms: C_1  and  C_25
    3  A    between atoms: C_4  and  O_10
    4  A    between atoms: C_5  and  C_40
    5  A    between atoms: C_8  and  O_28
    6  A    between atoms: C_8  and  C_31
    7  A    between atoms: C_13  and  O_28
    8  A    between atoms: C_14  and  C_19
    9  A    between atoms: C_14  and  C_33
   10  A    between atoms: C_18  and  C_23
   11  A    between atoms: C_21  and  C_36
   12  A    between atoms: C_23  and  C_40
   13  A    between atoms: C_36  and  C_39
                            x       y       z     vdW  Elec       q    Type
                         _______ _______ _______ _____ _____    ______ ____

>  <TORSDO>
F 13

$$$$
=
 OpenBabel11042418593D

 41 44  0  0  1  0  0  0  0  0999 V2000
  188.2720  174.4730  140.6640 F   0  0  0  0  0  0  0  0  0  0  0  0
  189.2820  174.8220  143.2020 C   0  0  0  0  0  3  0  0  0  0  0  0
  191.7450  172.3870  141.7490 C   0  0  0  0  0  3  0  0  0  0  0  0
  189.1560  173.4880  141.0930 C   0  0  0  0  0  0  0  0  0  0  0  0
  191.9480  175.1470  145.6540 C   0  0  0  0  0  0  0  0  0  0  0  0
  188.4800  172.2820  141.2190 F   0  0  0  0  0  0  0  0  0  0  0  0
  189.7870  173.8610  142.4150 C   0  0  0  0  0  0  0  0  0  0  0  0
  190.2920  176.3640  144.8750 C   0  0  2  0  0  3  0  0  0  0  0  0
  191.3320  172.4120  140.5170 N   0  0  0  0  0  0  0  0  0  0  0  0
  191.5050  176.3610  145.6310 N   0  0  0  0  0  0  0  0  0  0  0  0
  191.6920  173.4490  143.8920 N   0  0  0  0  0  0  0  0  0  0  0  0
  190.2920  173.3370  140.0570 C   0  0  1  0  0  3  0  0  0  0  0  0
  191.0330  174.1860  144.9780 C   0  0  2  0  0  3  0  0  0  0  0  0
  190.0220  175.1430  144.4340 C   0  0  2  0  0  3  0  0  0  0  0  0
  191.0930  173.2250  142.7580 C   0  0  0  0  0  0  0  0  0  0  0  0
  189.6310  177.6180  144.3940 C   0  0  0  0  0  2  0  0  0  0  0  0
  188.3750  177.9000  145.2120 C   0  0  0  0  0  2  0  0  0  0  0  0
  187.1380  177.9680  144.3150 C   0  0  0  0  0  2  0  0  0  0  0  0
  186.0660  178.8430  144.8900 C   0  0  0  0  0  0  0  0  0  0  0  0
  185.5620  179.7990  144.1680 N   0  0  0  0  0  2  0  0  0  0  0  0
  184.8200  177.2700  146.5120 C   0  0  0  0  0  1  0  0  0  0  0  0
  185.5170  178.5580  146.2260 C   0  0  0  0  0  0  0  0  0  0  0  0
  185.6170  179.4100  147.1460 O   0  0  0  0  0  0  0  0  0  0  0  0
  189.8260  172.9490  138.6490 C   0  0  0  0  0  2  0  0  0  0  0  0
  189.7690  174.0800  137.8210 O   0  0  0  0  0  0  0  0  0  0  0  0
  187.6860  175.0400  137.6370 O   0  0  0  0  0  1  0  0  0  0  0  0
  188.5190  174.0070  137.1840 C   0  0  0  0  0  2  0  0  0  0  0  0
  193.1970  174.7600  146.3750 C   0  0  0  0  0  2  0  0  0  0  0  0
  195.1250  173.1810  145.5140 C   0  0  1  0  0  3  0  0  0  0  0  0
  196.6420  173.4890  145.5660 C   0  0  0  0  0  2  0  0  0  0  0  0
  197.0980  174.5880  144.5750 C   0  0  0  0  0  2  0  0  0  0  0  0
  194.3290  174.4680  145.4300 C   0  0  0  0  0  0  0  0  0  0  0  0
  194.7410  175.4320  144.5980 C   0  0  0  0  0  3  0  0  0  0  0  0
  195.9550  175.1880  143.7250 C   0  0  1  0  0  3  0  0  0  0  0  0
  197.7430  176.7170  143.1370 O   0  0  0  0  0  1  0  0  0  0  0  0
  196.3660  176.4720  142.9810 C   0  0  1  0  0  3  0  0  0  0  0  0
  196.2590  175.0170  140.8960 C   0  0  0  0  0  1  0  0  0  0  0  0
  196.0460  176.4010  141.4820 C   0  0  1  0  0  3  0  0  0  0  0  0
  194.7160  176.7830  141.2740 O   0  0  0  0  0  1  0  0  0  0  0  0
  194.8410  172.3920  144.3940 O   0  0  0  0  0  0  0  0  0  0  0  0
  195.4650  171.1690  144.6440 C   0  0  0  0  0  1  0  0  0  0  0  0
  1  4  1  0  0  0  0
  3 15  1  0  0  0  0
  4  6  1  0  0  0  0
  4  7  1  0  0  0  0
  5 28  1  0  0  0  0
  7 15  1  0  0  0  0
  7  2  2  0  0  0  0
  8 16  1  6  0  0  0
  8 10  1  0  0  0  0
  9  3  2  0  0  0  0
 10  5  2  0  0  0  0
 12 24  1  6  0  0  0
 12  9  1  0  0  0  0
 12  4  1  0  0  0  0
 13 11  1  6  0  0  0
 13  5  1  0  0  0  0
 14  2  1  6  0  0  0
 14  8  1  0  0  0  0
 14 13  1  0  0  0  0
 15 11  2  0  0  0  0
 16 17  1  0  0  0  0
 18 19  1  0  0  0  0
 18 17  1  0  0  0  0
 19 22  1  0  0  0  0
 20 19  2  0  0  0  0
 22 21  1  0  0  0  0
 22 23  2  0  0  0  0
 25 24  1  0  0  0  0
 27 26  1  0  0  0  0
 27 25  1  0  0  0  0
 29 40  1  6  0  0  0
 29 30  1  0  0  0  0
 31 30  1  0  0  0  0
 32 29  1  0  0  0  0
 32 28  1  0  0  0  0
 33 32  2  0  0  0  0
 34 36  1  1  0  0  0
 34 31  1  0  0  0  0
 34 33  1  0  0  0  0
 36 35  1  6  0  0  0
 38 37  1  1  0  0  0
 38 36  1  0  0  0  0
 39 38  1  0  0  0  0
 40 41  1  0  0  0  0
M  END
>  <MODEL>
8

>  <REMARK>
 VINA RESULT:      -6.1      3.045      8.557
  Name = 
  13 active torsions:
  status: ('A' for Active; 'I' for Inactive)
    1  A    between atoms: C_1  and  C_5
    2  A    between atoms: C_1  and  C_25
    3  A    between atoms: C_4  and  O_10
    4  A    between atoms: C_5  and  C_40
    5  A    between atoms: C_8  and  O_28
    6  A    between atoms: C_8  and  C_31
    7  A    between atoms: C_13  and  O_28
    8  A    between atoms: C_14  and  C_19
    9  A    between atoms: C_14  and  C_33
   10  A    between atoms: C_18  and  C_23
   11  A    between atoms: C_21  and  C_36
   12  A    between atoms: C_23  and  C_40
   13  A    between atoms: C_36  and  C_39
                            x       y       z     vdW  Elec       q    Type
                         _______ _______ _______ _____ _____    ______ ____

>  <TORSDO>
F 13

$$$$
=
 OpenBabel11042418593D

 41 44  0  0  1  0  0  0  0  0999 V2000
  194.7550  173.0630  144.9370 F   0  0  0  0  0  0  0  0  0  0  0  0
  192.4870  174.0240  146.1680 C   0  0  0  0  0  3  0  0  0  0  0  0
  194.3040  177.2110  145.3600 C   0  0  0  0  0  3  0  0  0  0  0  0
  194.8390  174.3720  145.3990 C   0  0  0  0  0  0  0  0  0  0  0  0
  189.7650  176.3900  146.6420 C   0  0  0  0  0  0  0  0  0  0  0  0
  195.7720  174.4430  146.4250 F   0  0  0  0  0  0  0  0  0  0  0  0
  193.4960  174.8620  145.8930 C   0  0  0  0  0  0  0  0  0  0  0  0
  190.0100  174.2660  146.1300 C   0  0  2  0  0  3  0  0  0  0  0  0
  195.2510  176.7080  144.6260 N   0  0  0  0  0  0  0  0  0  0  0  0
  189.1140  175.3800  146.1640 N   0  0  0  0  0  0  0  0  0  0  0  0
  192.1670  176.8560  146.3760 N   0  0  0  0  0  0  0  0  0  0  0  0
  195.2770  175.2940  144.2390 C   0  0  1  0  0  3  0  0  0  0  0  0
  191.1530  176.0390  147.0540 C   0  0  2  0  0  3  0  0  0  0  0  0
  191.2060  174.6230  146.5780 C   0  0  2  0  0  3  0  0  0  0  0  0
  193.2730  176.3380  145.9250 C   0  0  0  0  0  0  0  0  0  0  0  0
  189.7110  173.0000  145.3910 C   0  0  0  0  0  2  0  0  0  0  0  0
  190.4070  173.0030  144.0340 C   0  0  0  0  0  2  0  0  0  0  0  0
  189.6380  173.8520  143.0220 C   0  0  0  0  0  2  0  0  0  0  0  0
  190.5450  174.5290  142.0400 C   0  0  0  0  0  0  0  0  0  0  0  0
  190.5290  174.1630  140.7930 N   0  0  0  0  0  2  0  0  0  0  0  0
  190.7690  176.8580  143.1300 C   0  0  0  0  0  1  0  0  0  0  0  0
  191.3770  175.6680  142.4650 C   0  0  0  0  0  0  0  0  0  0  0  0
  192.6170  175.6570  142.2580 O   0  0  0  0  0  0  0  0  0  0  0  0
  196.6350  174.9420  143.6210 C   0  0  0  0  0  2  0  0  0  0  0  0
  196.4600  174.2180  142.4310 O   0  0  0  0  0  0  0  0  0  0  0  0
  196.6410  172.0190  141.7780 O   0  0  0  0  0  1  0  0  0  0  0  0
  197.1470  173.0100  142.6320 C   0  0  0  0  0  2  0  0  0  0  0  0
  189.1380  177.7300  146.8410 C   0  0  0  0  0  2  0  0  0  0  0  0
  186.5520  177.8980  147.3220 C   0  0  1  0  0  3  0  0  0  0  0  0
  185.5050  176.7880  147.0570 C   0  0  0  0  0  2  0  0  0  0  0  0
  185.2110  176.5420  145.5570 C   0  0  0  0  0  2  0  0  0  0  0  0
  187.7150  177.7660  146.3590 C   0  0  0  0  0  0  0  0  0  0  0  0
  187.4630  177.5200  145.0690 C   0  0  0  0  0  3  0  0  0  0  0  0
  186.0260  177.4380  144.5970 C   0  0  1  0  0  3  0  0  0  0  0  0
  184.8420  177.5490  142.4830 O   0  0  0  0  0  1  0  0  0  0  0  0
  185.9520  176.9750  143.1300 C   0  0  1  0  0  3  0  0  0  0  0  0
  187.4420  176.4370  141.1390 C   0  0  0  0  0  1  0  0  0  0  0  0
  187.2200  177.3350  142.3430 C   0  0  1  0  0  3  0  0  0  0  0  0
  187.1360  178.6630  141.9120 O   0  0  0  0  0  1  0  0  0  0  0  0
  185.9600  179.1550  147.1570 O   0  0  0  0  0  0  0  0  0  0  0  0
  186.3180  179.8780  148.2950 C   0  0  0  0  0  1  0  0  0  0  0  0
  1  4  1  0  0  0  0
  3 15  1  0  0  0  0
  4  7  1  0  0  0  0
  4  6  1  0  0  0  0
  5 28  1  0  0  0  0
  5 13  1  0  0  0  0
  7 15  1  0  0  0  0
  7  2  2  0  0  0  0
  8 16  1  6  0  0  0
  8 10  1  0  0  0  0
  8 14  1  0  0  0  0
  9  3  2  0  0  0  0
 10  5  2  0  0  0  0
 12 24  1  1  0  0  0
 12  9  1  0  0  0  0
 12  4  1  0  0  0  0
 13 11  1  6  0  0  0
 14  2  1  6  0  0  0
 14 13  1  0  0  0  0
 15 11  2  0  0  0  0
 17 16  1  0  0  0  0
 18 17  1  0  0  0  0
 19 22  1  0  0  0  0
 19 18  1  0  0  0  0
 20 19  2  0  0  0  0
 22 21  1  0  0  0  0
 23 22  2  0  0  0  0
 25 27  1  0  0  0  0
 25 24  1  0  0  0  0
 26 27  1  0  0  0  0
 29 40  1  6  0  0  0
 30 29  1  0  0  0  0
 31 30  1  0  0  0  0
 32 28  1  0  0  0  0
 32 29  1  0  0  0  0
 33 32  2  0  0  0  0
 34 36  1  6  0  0  0
 34 33  1  0  0  0  0
 34 31  1  0  0  0  0
 36 35  1  6  0  0  0
 38 37  1  6  0  0  0
 38 36  1  0  0  0  0
 39 38  1  0  0  0  0
 40 41  1  0  0  0  0
M  END
>  <MODEL>
9

>  <REMARK>
 VINA RESULT:      -6.1      1.596      3.201
  Name = 
  13 active torsions:
  status: ('A' for Active; 'I' for Inactive)
    1  A    between atoms: C_1  and  C_5
    2  A    between atoms: C_1  and  C_25
    3  A    between atoms: C_4  and  O_10
    4  A    between atoms: C_5  and  C_40
    5  A    between atoms: C_8  and  O_28
    6  A    between atoms: C_8  and  C_31
    7  A    between atoms: C_13  and  O_28
    8  A    between atoms: C_14  and  C_19
    9  A    between atoms: C_14  and  C_33
   10  A    between atoms: C_18  and  C_23
   11  A    between atoms: C_21  and  C_36
   12  A    between atoms: C_23  and  C_40
   13  A    between atoms: C_36  and  C_39
                            x       y       z     vdW  Elec       q    Type
                         _______ _______ _______ _____ _____    ______ ____

>  <TORSDO>
F 13

$$$$
