=
 OpenBabel11042419503D

 50 54  0  0  1  0  0  0  0  0999 V2000
  190.8640  175.6490  145.7630 C   0  0  2  0  0  3  0  0  0  0  0  0
  193.4850  176.2880  145.2720 C   0  0  0  0  0  0  0  0  0  0  0  0
  194.7780  176.4080  145.3520 C   0  0  0  0  0  3  0  0  0  0  0  0
  190.8520  176.2970  144.4910 C   0  0  2  0  0  3  0  0  0  0  0  0
  192.1920  176.1430  145.2000 C   0  0  0  0  0  0  0  0  0  0  0  0
  189.8460  173.6540  144.7770 C   0  0  0  0  0  3  0  0  0  0  0  0
  190.7720  174.1730  145.5770 C   0  0  0  0  0  3  0  0  0  0  0  0
  189.7650  172.1760  144.5900 C   0  0  0  0  0  2  0  0  0  0  0  0
  189.4730  171.8330  143.1410 C   0  0  0  0  0  2  0  0  0  0  0  0
  190.7190  172.0390  142.2920 C   0  0  0  0  0  2  0  0  0  0  0  0
  191.3440  174.2590  141.4140 C   0  0  0  0  0  1  0  0  0  0  0  0
  190.4600  173.0480  141.1880 C   0  0  2  0  0  3  0  0  0  0  0  0
  189.0600  173.4540  141.1970 N   0  0  0  0  0  2  0  0  0  0  0  0
  188.7340  173.9420  139.8650 C   0  0  0  0  0  2  0  0  0  0  0  0
  188.1790  172.8130  139.0140 C   0  0  0  0  0  2  0  0  0  0  0  0
  188.8840  172.7330  137.8130 O   0  0  0  0  0  1  0  0  0  0  0  0
  195.4410  174.0130  146.1570 O   0  0  0  0  0  0  0  0  0  0  0  0
  195.7990  174.9950  145.0490 S   0  0  1  0  0  0  0  0  0  0  0  0
  195.0480  174.0190  141.0790 C   0  0  0  0  0  2  0  0  0  0  0  0
  197.4020  176.1130  142.8970 O   0  0  0  0  0  0  0  0  0  0  0  0
  195.6050  174.6090  142.3310 C   0  0  0  0  0  0  0  0  0  0  0  0
  196.6620  175.5750  142.0310 C   0  0  0  0  0  0  0  0  0  0  0  0
  196.9020  175.8640  140.2960 S   0  0  0  0  0  0  0  0  0  0  0  0
  194.0160  173.3060  143.6980 C   0  0  0  0  0  1  0  0  0  0  0  0
  196.0780  174.2610  139.9690 C   0  0  2  0  0  3  0  0  0  0  0  0
  195.1410  174.2810  143.5540 C   0  0  0  0  0  0  0  0  0  0  0  0
  193.7220  174.9180  136.2690 N   0  0  0  0  0  0  0  0  0  0  0  0
  193.2070  174.8790  137.6070 C   0  0  0  0  0  3  0  0  0  0  0  0
  195.8860  173.6780  135.3650 O   0  0  0  0  0  0  0  0  0  0  0  0
  193.9760  174.6170  138.6720 C   0  0  0  0  0  3  0  0  0  0  0  0
  195.7930  176.1310  135.1310 O   0  0  0  0  0  0  0  0  0  0  0  0
  195.4340  174.2400  138.5810 C   0  0  1  0  0  3  0  0  0  0  0  0
  196.1790  175.1460  137.6020 C   0  0  0  0  0  2  0  0  0  0  0  0
  195.4300  174.9610  136.0020 S   0  0  0  0  0  0  0  0  0  0  0  0
  192.8170  174.9660  135.1300 C   0  0  0  0  0  2  0  0  0  0  0  0
  191.7300  176.0070  135.3490 C   0  0  2  0  0  3  0  0  0  0  0  0
  190.6190  175.7100  134.5570 O   0  0  0  0  0  1  0  0  0  0  0  0
  192.2620  177.3730  134.9700 C   0  0  0  0  0  1  0  0  0  0  0  0
  190.3820  177.7320  144.6330 C   0  0  0  0  0  2  0  0  0  0  0  0
  188.0390  177.8390  145.3900 C   0  0  0  0  0  3  0  0  0  0  0  0
  187.3030  176.8990  142.7710 C   0  0  0  0  0  2  0  0  0  0  0  0
  185.9440  178.1540  146.5990 C   0  0  0  0  0  2  0  0  0  0  0  0
  188.6260  176.8070  143.2840 O   0  0  0  0  0  0  0  0  0  0  0  0
  184.0000  178.7190  145.2940 O   0  0  0  0  0  0  0  0  0  0  0  0
  186.0690  178.7190  144.0660 C   0  0  1  0  0  3  0  0  0  0  0  0
  184.5900  178.3250  144.0810 C   0  0  0  0  0  2  0  0  0  0  0  0
  186.7470  178.1910  145.3300 C   0  0  0  0  0  0  0  0  0  0  0  0
  184.4850  177.8320  146.2710 C   0  0  0  0  0  2  0  0  0  0  0  0
  188.9360  177.8530  144.1870 C   0  0  2  0  0  3  0  0  0  0  0  0
  186.7070  178.3150  142.7290 C   0  0  0  0  0  2  0  0  0  0  0  0
  1  7  1  6  0  0  0
  2  3  2  0  0  0  0
  4 39  1  1  0  0  0
  4  5  1  0  0  0  0
  4  1  1  0  0  0  0
  5  2  2  0  0  0  0
  5  1  1  0  0  0  0
  6  7  2  0  0  0  0
  8  6  1  0  0  0  0
  9  8  1  0  0  0  0
 10  9  1  0  0  0  0
 12 13  1  0  0  0  0
 12 11  1  1  0  0  0
 12 10  1  0  0  0  0
 14 13  1  0  0  0  0
 15 14  1  0  0  0  0
 16 15  1  0  0  0  0
 18  3  1  0  0  0  0
 18 17  2  1  0  0  0
 19 21  1  0  0  0  0
 21 26  2  0  0  0  0
 22 21  1  0  0  0  0
 22 20  2  0  0  0  0
 23 22  1  0  0  0  0
 25 23  1  0  0  0  0
 25 19  1  1  0  0  0
 26 24  1  0  0  0  0
 26 18  1  0  0  0  0
 27 28  1  0  0  0  0
 28 30  2  0  0  0  0
 29 34  2  0  0  0  0
 31 34  2  0  0  0  0
 32 33  1  6  0  0  0
 32 30  1  0  0  0  0
 32 25  1  0  0  0  0
 34 27  1  0  0  0  0
 34 33  1  0  0  0  0
 35 36  1  0  0  0  0
 35 27  1  0  0  0  0
 36 38  1  6  0  0  0
 37 36  1  0  0  0  0
 41 43  1  0  0  0  0
 43 49  1  0  0  0  0
 44 48  1  0  0  0  0
 45 50  1  6  0  0  0
 45 46  1  0  0  0  0
 45 47  1  0  0  0  0
 46 44  1  0  0  0  0
 47 40  2  0  0  0  0
 47 42  1  0  0  0  0
 48 42  1  0  0  0  0
 49 39  1  1  0  0  0
 49 40  1  0  0  0  0
 50 41  1  0  0  0  0
M  END
>  <MODEL>
1

>  <REMARK>
 VINA RESULT:      -7.0      0.000      0.000
  Name = 
  15 active torsions:
  status: ('A' for Active; 'I' for Inactive)
    1  A    between atoms: C_3  and  C_23
    2  A    between atoms: C_5  and  N_17
    3  A    between atoms: C_5  and  C_18
    4  A    between atoms: C_7  and  C_33
    5  A    between atoms: C_8  and  C_28
    6  A    between atoms: C_9  and  C_33
    7  A    between atoms: C_9  and  C_46
    8  A    between atoms: N_14  and  C_23
    9  A    between atoms: N_17  and  C_41
   10  A    between atoms: C_27  and  C_48
   11  A    between atoms: C_34  and  S_42
   12  A    between atoms: C_35  and  C_40
   13  A    between atoms: C_37  and  C_40
   14  A    between atoms: C_41  and  C_46
   15  A    between atoms: S_42  and  C_44
                            x       y       z     vdW  Elec       q    Type
                         _______ _______ _______ _____ _____    ______ ____

>  <TORSDO>
F 15

$$$$
=
 OpenBabel11042419503D

 50 54  0  0  1  0  0  0  0  0999 V2000
  190.8230  175.9060  145.3890 C   0  0  2  0  0  3  0  0  0  0  0  0
  193.4420  176.5560  144.9040 C   0  0  0  0  0  0  0  0  0  0  0  0
  194.7280  176.7190  145.0070 C   0  0  0  0  0  3  0  0  0  0  0  0
  190.8350  176.4070  144.0520 C   0  0  2  0  0  3  0  0  0  0  0  0
  192.1560  176.3690  144.8120 C   0  0  0  0  0  0  0  0  0  0  0  0
  189.7310  173.7890  144.8280 C   0  0  0  0  0  3  0  0  0  0  0  0
  190.7710  174.4160  145.3680 C   0  0  0  0  0  3  0  0  0  0  0  0
  189.6900  172.2980  144.8040 C   0  0  0  0  0  2  0  0  0  0  0  0
  190.4470  171.7600  143.6030 C   0  0  0  0  0  2  0  0  0  0  0  0
  189.6580  172.0170  142.3280 C   0  0  0  0  0  2  0  0  0  0  0  0
  191.0340  173.7950  141.3090 C   0  0  0  0  0  1  0  0  0  0  0  0
  190.5880  172.3510  141.1750 C   0  0  2  0  0  3  0  0  0  0  0  0
  189.8980  172.1680  139.9050 N   0  0  0  0  0  2  0  0  0  0  0  0
  189.8230  173.4670  139.2510 C   0  0  0  0  0  2  0  0  0  0  0  0
  188.4470  173.6670  138.6400 C   0  0  0  0  0  2  0  0  0  0  0  0
  187.8990  174.8690  139.0860 O   0  0  0  0  0  1  0  0  0  0  0  0
  195.5870  174.5640  146.2080 O   0  0  0  0  0  0  0  0  0  0  0  0
  195.7910  175.3090  144.8950 S   0  0  1  0  0  0  0  0  0  0  0  0
  194.6720  173.5720  141.2880 C   0  0  0  0  0  2  0  0  0  0  0  0
  196.9780  176.1630  142.3830 O   0  0  0  0  0  0  0  0  0  0  0  0
  195.3090  174.4250  142.3340 C   0  0  0  0  0  0  0  0  0  0  0  0
  196.2030  175.4130  141.7310 C   0  0  0  0  0  0  0  0  0  0  0  0
  196.1930  175.4080  139.9560 S   0  0  0  0  0  0  0  0  0  0  0  0
  194.0590  173.2500  144.1080 C   0  0  0  0  0  1  0  0  0  0  0  0
  195.5230  173.7040  140.0190 C   0  0  2  0  0  3  0  0  0  0  0  0
  195.0400  174.2810  143.6480 C   0  0  0  0  0  0  0  0  0  0  0  0
  192.5750  172.4100  136.9680 N   0  0  0  0  0  0  0  0  0  0  0  0
  193.0310  171.6390  138.0880 C   0  0  0  0  0  3  0  0  0  0  0  0
  193.9180  174.3170  135.7040 O   0  0  0  0  0  0  0  0  0  0  0  0
  193.9690  172.0790  138.9360 C   0  0  0  0  0  3  0  0  0  0  0  0
  191.7320  174.9130  136.6780 O   0  0  0  0  0  0  0  0  0  0  0  0
  194.7190  173.3750  138.7590 C   0  0  1  0  0  3  0  0  0  0  0  0
  193.7720  174.5140  138.3840 C   0  0  0  0  0  2  0  0  0  0  0  0
  192.9770  174.0880  136.8540 S   0  0  0  0  0  0  0  0  0  0  0  0
  191.7380  171.8020  135.9440 C   0  0  0  0  0  2  0  0  0  0  0  0
  190.6870  170.9000  136.5710 C   0  0  2  0  0  3  0  0  0  0  0  0
  190.9710  169.5640  136.2810 O   0  0  0  0  0  1  0  0  0  0  0  0
  189.3260  171.2550  136.0130 C   0  0  0  0  0  1  0  0  0  0  0  0
  190.3280  177.8360  144.0180 C   0  0  0  0  0  2  0  0  0  0  0  0
  187.9970  177.9810  144.8040 C   0  0  0  0  0  3  0  0  0  0  0  0
  187.2420  176.6900  142.3440 C   0  0  0  0  0  2  0  0  0  0  0  0
  185.9150  178.3960  146.0050 C   0  0  0  0  0  2  0  0  0  0  0  0
  188.5750  176.6990  142.8370 O   0  0  0  0  0  0  0  0  0  0  0  0
  183.9330  178.7380  144.6790 O   0  0  0  0  0  0  0  0  0  0  0  0
  185.9800  178.6310  143.4190 C   0  0  1  0  0  3  0  0  0  0  0  0
  184.5130  178.2050  143.5150 C   0  0  0  0  0  2  0  0  0  0  0  0
  186.6940  178.2890  144.7250 C   0  0  0  0  0  0  0  0  0  0  0  0
  184.4590  177.9970  145.7520 C   0  0  0  0  0  2  0  0  0  0  0  0
  188.8720  177.8610  143.5900 C   0  0  2  0  0  3  0  0  0  0  0  0
  186.6050  178.0720  142.1320 C   0  0  0  0  0  2  0  0  0  0  0  0
  1  7  1  6  0  0  0
  2  3  2  0  0  0  0
  4 39  1  1  0  0  0
  4  5  1  0  0  0  0
  4  1  1  0  0  0  0
  5  2  2  0  0  0  0
  5  1  1  0  0  0  0
  6  7  2  0  0  0  0
  8  6  1  0  0  0  0
  9  8  1  0  0  0  0
 10  9  1  0  0  0  0
 12 11  1  1  0  0  0
 12 10  1  0  0  0  0
 13 12  1  0  0  0  0
 14 13  1  0  0  0  0
 15 16  1  0  0  0  0
 15 14  1  0  0  0  0
 18  3  1  0  0  0  0
 18 17  2  1  0  0  0
 19 21  1  0  0  0  0
 21 26  2  0  0  0  0
 22 21  1  0  0  0  0
 22 20  2  0  0  0  0
 23 25  1  0  0  0  0
 23 22  1  0  0  0  0
 25 19  1  1  0  0  0
 26 24  1  0  0  0  0
 26 18  1  0  0  0  0
 27 28  1  0  0  0  0
 28 30  2  0  0  0  0
 29 34  2  0  0  0  0
 31 34  2  0  0  0  0
 32 33  1  1  0  0  0
 32 30  1  0  0  0  0
 32 25  1  0  0  0  0
 34 27  1  0  0  0  0
 34 33  1  0  0  0  0
 35 36  1  0  0  0  0
 35 27  1  0  0  0  0
 36 38  1  6  0  0  0
 37 36  1  0  0  0  0
 41 43  1  0  0  0  0
 43 49  1  0  0  0  0
 44 48  1  0  0  0  0
 45 50  1  6  0  0  0
 45 46  1  0  0  0  0
 45 47  1  0  0  0  0
 46 44  1  0  0  0  0
 47 40  2  0  0  0  0
 47 42  1  0  0  0  0
 48 42  1  0  0  0  0
 49 39  1  1  0  0  0
 49 40  1  0  0  0  0
 50 41  1  0  0  0  0
M  END
>  <MODEL>
2

>  <REMARK>
 VINA RESULT:      -7.0      1.595      2.098
  Name = 
  15 active torsions:
  status: ('A' for Active; 'I' for Inactive)
    1  A    between atoms: C_3  and  C_23
    2  A    between atoms: C_5  and  N_17
    3  A    between atoms: C_5  and  C_18
    4  A    between atoms: C_7  and  C_33
    5  A    between atoms: C_8  and  C_28
    6  A    between atoms: C_9  and  C_33
    7  A    between atoms: C_9  and  C_46
    8  A    between atoms: N_14  and  C_23
    9  A    between atoms: N_17  and  C_41
   10  A    between atoms: C_27  and  C_48
   11  A    between atoms: C_34  and  S_42
   12  A    between atoms: C_35  and  C_40
   13  A    between atoms: C_37  and  C_40
   14  A    between atoms: C_41  and  C_46
   15  A    between atoms: S_42  and  C_44
                            x       y       z     vdW  Elec       q    Type
                         _______ _______ _______ _____ _____    ______ ____

>  <TORSDO>
F 15

$$$$
=
 OpenBabel11042419503D

 50 54  0  0  1  0  0  0  0  0999 V2000
  191.3920  175.2980  144.0770 C   0  0  2  0  0  3  0  0  0  0  0  0
  193.9330  175.8400  144.9530 C   0  0  0  0  0  0  0  0  0  0  0  0
  195.0890  175.7810  145.5470 C   0  0  0  0  0  3  0  0  0  0  0  0
  191.7780  176.4790  143.3750 C   0  0  2  0  0  3  0  0  0  0  0  0
  192.7770  175.8720  144.3540 C   0  0  0  0  0  0  0  0  0  0  0  0
  190.9780  172.9500  143.5240 C   0  0  0  0  0  3  0  0  0  0  0  0
  191.5230  174.1130  143.1820 C   0  0  0  0  0  3  0  0  0  0  0  0
  191.1070  171.7710  142.6180 C   0  0  0  0  0  2  0  0  0  0  0  0
  189.9910  171.7610  141.5890 C   0  0  0  0  0  2  0  0  0  0  0  0
  188.7350  172.3900  142.1720 C   0  0  0  0  0  2  0  0  0  0  0  0
  188.1930  172.6670  139.7800 C   0  0  0  0  0  1  0  0  0  0  0  0
  188.0610  173.2940  141.1550 C   0  0  2  0  0  3  0  0  0  0  0  0
  188.6910  174.6080  141.1560 N   0  0  0  0  0  2  0  0  0  0  0  0
  187.8600  175.4940  141.9590 C   0  0  0  0  0  2  0  0  0  0  0  0
  187.7040  176.8360  141.2660 C   0  0  0  0  0  2  0  0  0  0  0  0
  186.3630  177.2200  141.2700 O   0  0  0  0  0  1  0  0  0  0  0  0
  196.4290  173.6230  146.1540 O   0  0  0  0  0  0  0  0  0  0  0  0
  196.2870  174.6020  144.9960 S   0  0  1  0  0  0  0  0  0  0  0  0
  194.6570  173.3950  141.3670 C   0  0  0  0  0  2  0  0  0  0  0  0
  196.6310  176.1950  142.5890 O   0  0  0  0  0  0  0  0  0  0  0  0
  195.3600  174.1520  142.4440 C   0  0  0  0  0  0  0  0  0  0  0  0
  195.8750  175.4250  141.9390 C   0  0  0  0  0  0  0  0  0  0  0  0
  195.4260  175.7680  140.2570 S   0  0  0  0  0  0  0  0  0  0  0  0
  194.8340  172.3850  144.0840 C   0  0  0  0  0  1  0  0  0  0  0  0
  195.1260  173.9750  140.0280 C   0  0  2  0  0  3  0  0  0  0  0  0
  195.4580  173.6910  143.7080 C   0  0  0  0  0  0  0  0  0  0  0  0
  191.5870  173.6320  137.3760 N   0  0  0  0  0  0  0  0  0  0  0  0
  191.6370  173.3020  138.7710 C   0  0  0  0  0  3  0  0  0  0  0  0
  193.6070  173.5680  135.6580 O   0  0  0  0  0  0  0  0  0  0  0  0
  192.7630  173.3790  139.4930 C   0  0  0  0  0  3  0  0  0  0  0  0
  192.4200  175.7100  135.9460 O   0  0  0  0  0  0  0  0  0  0  0  0
  194.1120  173.7190  138.9110 C   0  0  1  0  0  3  0  0  0  0  0  0
  194.0160  174.9080  137.9550 C   0  0  0  0  0  2  0  0  0  0  0  0
  192.9090  174.4680  136.6380 S   0  0  0  0  0  0  0  0  0  0  0  0
  190.4110  173.3060  136.5820 C   0  0  0  0  0  2  0  0  0  0  0  0
  190.5940  171.9760  135.8680 C   0  0  2  0  0  3  0  0  0  0  0  0
  190.2610  172.1100  134.5190 O   0  0  0  0  0  1  0  0  0  0  0  0
  189.6940  170.9390  136.5040 C   0  0  0  0  0  1  0  0  0  0  0  0
  191.1460  177.7030  144.0110 C   0  0  0  0  0  2  0  0  0  0  0  0
  188.7690  177.9990  144.5880 C   0  0  0  0  0  3  0  0  0  0  0  0
  189.4530  177.1100  147.2390 C   0  0  0  0  0  2  0  0  0  0  0  0
  186.3660  178.4170  144.6230 C   0  0  0  0  0  2  0  0  0  0  0  0
  190.4210  177.5440  146.2930 O   0  0  0  0  0  0  0  0  0  0  0  0
  185.0470  177.1020  146.1510 O   0  0  0  0  0  0  0  0  0  0  0  0
  187.3480  176.4240  145.9680 C   0  0  1  0  0  3  0  0  0  0  0  0
  186.1630  176.6910  146.8990 C   0  0  0  0  0  2  0  0  0  0  0  0
  187.5710  177.6380  145.0690 C   0  0  0  0  0  0  0  0  0  0  0  0
  185.3180  178.4190  145.7370 C   0  0  0  0  0  2  0  0  0  0  0  0
  190.0360  177.2820  144.9560 C   0  0  2  0  0  3  0  0  0  0  0  0
  188.5590  175.9450  146.7840 C   0  0  0  0  0  2  0  0  0  0  0  0
  1  7  1  6  0  0  0
  1  5  1  0  0  0  0
  2  3  2  0  0  0  0
  4 39  1  1  0  0  0
  4  1  1  0  0  0  0
  4  5  1  0  0  0  0
  5  2  2  0  0  0  0
  7  6  2  0  0  0  0
  8  6  1  0  0  0  0
  9 10  1  0  0  0  0
  9  8  1  0  0  0  0
 12 11  1  6  0  0  0
 12 13  1  0  0  0  0
 12 10  1  0  0  0  0
 13 14  1  0  0  0  0
 15 16  1  0  0  0  0
 15 14  1  0  0  0  0
 18  3  1  0  0  0  0
 18 17  2  1  0  0  0
 19 21  1  0  0  0  0
 21 26  2  0  0  0  0
 22 21  1  0  0  0  0
 22 20  2  0  0  0  0
 23 22  1  0  0  0  0
 25 23  1  0  0  0  0
 25 19  1  1  0  0  0
 26 24  1  0  0  0  0
 26 18  1  0  0  0  0
 27 28  1  0  0  0  0
 28 30  2  0  0  0  0
 29 34  2  0  0  0  0
 31 34  2  0  0  0  0
 32 33  1  6  0  0  0
 32 30  1  0  0  0  0
 32 25  1  0  0  0  0
 34 27  1  0  0  0  0
 34 33  1  0  0  0  0
 35 27  1  0  0  0  0
 36 38  1  1  0  0  0
 36 35  1  0  0  0  0
 37 36  1  0  0  0  0
 40 49  1  0  0  0  0
 40 47  2  0  0  0  0
 42 47  1  0  0  0  0
 42 48  1  0  0  0  0
 43 41  1  0  0  0  0
 44 46  1  0  0  0  0
 45 50  1  1  0  0  0
 45 46  1  0  0  0  0
 47 45  1  0  0  0  0
 48 44  1  0  0  0  0
 49 39  1  6  0  0  0
 49 43  1  0  0  0  0
 50 41  1  0  0  0  0
M  END
>  <MODEL>
3

>  <REMARK>
 VINA RESULT:      -6.9      1.829      2.726
  Name = 
  15 active torsions:
  status: ('A' for Active; 'I' for Inactive)
    1  A    between atoms: C_3  and  C_23
    2  A    between atoms: C_5  and  N_17
    3  A    between atoms: C_5  and  C_18
    4  A    between atoms: C_7  and  C_33
    5  A    between atoms: C_8  and  C_28
    6  A    between atoms: C_9  and  C_33
    7  A    between atoms: C_9  and  C_46
    8  A    between atoms: N_14  and  C_23
    9  A    between atoms: N_17  and  C_41
   10  A    between atoms: C_27  and  C_48
   11  A    between atoms: C_34  and  S_42
   12  A    between atoms: C_35  and  C_40
   13  A    between atoms: C_37  and  C_40
   14  A    between atoms: C_41  and  C_46
   15  A    between atoms: S_42  and  C_44
                            x       y       z     vdW  Elec       q    Type
                         _______ _______ _______ _____ _____    ______ ____

>  <TORSDO>
F 15

$$$$
=
 OpenBabel11042419503D

 50 54  0  0  1  0  0  0  0  0999 V2000
  189.5980  173.8510  145.6060 C   0  0  2  0  0  3  0  0  0  0  0  0
  191.9080  175.1150  146.3690 C   0  0  0  0  0  0  0  0  0  0  0  0
  193.1390  175.3770  146.6980 C   0  0  0  0  0  3  0  0  0  0  0  0
  189.2520  175.2340  145.6790 C   0  0  2  0  0  3  0  0  0  0  0  0
  190.6840  174.8370  146.0200 C   0  0  0  0  0  0  0  0  0  0  0  0
  189.5950  172.2060  143.7940 C   0  0  0  0  0  3  0  0  0  0  0  0
  189.8090  173.4580  144.1830 C   0  0  0  0  0  3  0  0  0  0  0  0
  189.8010  171.8230  142.3670 C   0  0  0  0  0  2  0  0  0  0  0  0
  190.0410  173.0530  141.5110 C   0  0  0  0  0  2  0  0  0  0  0  0
  189.1530  173.0160  140.2770 C   0  0  0  0  0  2  0  0  0  0  0  0
  188.0810  175.1150  141.0090 C   0  0  0  0  0  1  0  0  0  0  0  0
  188.7640  174.4190  139.8480 C   0  0  2  0  0  3  0  0  0  0  0  0
  187.8570  174.3620  138.7080 N   0  0  0  0  0  2  0  0  0  0  0  0
  187.3720  175.7130  138.4620 C   0  0  0  0  0  2  0  0  0  0  0  0
  186.7900  175.8130  137.0630 C   0  0  0  0  0  2  0  0  0  0  0  0
  187.7930  175.6060  136.1150 O   0  0  0  0  0  1  0  0  0  0  0  0
  195.6470  174.8790  146.1620 O   0  0  0  0  0  0  0  0  0  0  0  0
  194.3910  175.3630  145.4480 S   0  0  1  0  0  0  0  0  0  0  0  0
  193.6360  173.0040  142.1090 C   0  0  0  0  0  2  0  0  0  0  0  0
  195.0590  176.2850  142.7730 O   0  0  0  0  0  0  0  0  0  0  0  0
  194.0370  174.1160  143.0200 C   0  0  0  0  0  0  0  0  0  0  0  0
  194.5220  175.2680  142.2590 C   0  0  0  0  0  0  0  0  0  0  0  0
  194.3880  175.0780  140.5000 S   0  0  0  0  0  0  0  0  0  0  0  0
  193.3610  172.7960  144.9920 C   0  0  0  0  0  1  0  0  0  0  0  0
  194.3070  173.2660  140.7550 C   0  0  2  0  0  3  0  0  0  0  0  0
  193.9230  174.0300  144.3610 C   0  0  0  0  0  0  0  0  0  0  0  0
  191.5120  171.0940  138.0830 N   0  0  0  0  0  0  0  0  0  0  0  0
  191.9260  170.6820  139.3930 C   0  0  0  0  0  3  0  0  0  0  0  0
  192.8900  172.5940  136.3830 O   0  0  0  0  0  0  0  0  0  0  0  0
  192.8210  171.3660  140.1180 C   0  0  0  0  0  3  0  0  0  0  0  0
  190.6570  173.3910  137.0610 O   0  0  0  0  0  0  0  0  0  0  0  0
  193.5640  172.5760  139.6090 C   0  0  1  0  0  3  0  0  0  0  0  0
  192.6220  173.5390  138.8890 C   0  0  0  0  0  2  0  0  0  0  0  0
  191.9010  172.6790  137.5120 S   0  0  0  0  0  0  0  0  0  0  0  0
  190.7290  170.2010  137.2410 C   0  0  0  0  0  2  0  0  0  0  0  0
  191.5600  169.6930  136.0730 C   0  0  2  0  0  3  0  0  0  0  0  0
  190.9680  170.0730  134.8660 O   0  0  0  0  0  1  0  0  0  0  0  0
  191.6410  168.1830  136.1360 C   0  0  0  0  0  1  0  0  0  0  0  0
  188.5020  175.5240  146.9650 C   0  0  0  0  0  2  0  0  0  0  0  0
  187.2620  176.7380  145.2150 C   0  0  0  0  0  3  0  0  0  0  0  0
  186.3500  178.5070  147.2940 C   0  0  0  0  0  2  0  0  0  0  0  0
  186.2260  177.5360  143.1570 C   0  0  0  0  0  2  0  0  0  0  0  0
  187.4550  177.6270  147.4550 O   0  0  0  0  0  0  0  0  0  0  0  0
  184.0940  178.6390  143.3590 O   0  0  0  0  0  0  0  0  0  0  0  0
  184.8990  177.6270  145.3880 C   0  0  1  0  0  3  0  0  0  0  0  0
  184.2310  178.8430  144.7420 C   0  0  0  0  0  2  0  0  0  0  0  0
  186.1900  177.3000  144.6400 C   0  0  0  0  0  0  0  0  0  0  0  0
  185.3840  178.7670  142.8150 C   0  0  0  0  0  2  0  0  0  0  0  0
  187.3280  176.4450  146.6860 C   0  0  2  0  0  3  0  0  0  0  0  0
  185.0220  177.8390  146.9050 C   0  0  0  0  0  2  0  0  0  0  0  0
  1  7  1  6  0  0  0
  1  4  1  0  0  0  0
  1  5  1  0  0  0  0
  2  3  2  0  0  0  0
  4  5  1  0  0  0  0
  4 39  1  1  0  0  0
  5  2  2  0  0  0  0
  6  7  2  0  0  0  0
  8  6  1  0  0  0  0
  9  8  1  0  0  0  0
 10  9  1  0  0  0  0
 12 10  1  0  0  0  0
 12 11  1  1  0  0  0
 13 12  1  0  0  0  0
 14 13  1  0  0  0  0
 15 14  1  0  0  0  0
 16 15  1  0  0  0  0
 18 17  2  1  0  0  0
 18  3  1  0  0  0  0
 19 21  1  0  0  0  0
 21 26  2  0  0  0  0
 22 20  2  0  0  0  0
 22 21  1  0  0  0  0
 23 25  1  0  0  0  0
 23 22  1  0  0  0  0
 25 19  1  1  0  0  0
 26 24  1  0  0  0  0
 26 18  1  0  0  0  0
 27 28  1  0  0  0  0
 28 30  2  0  0  0  0
 29 34  2  0  0  0  0
 31 34  2  0  0  0  0
 32 33  1  1  0  0  0
 32 30  1  0  0  0  0
 32 25  1  0  0  0  0
 34 27  1  0  0  0  0
 34 33  1  0  0  0  0
 35 27  1  0  0  0  0
 36 38  1  6  0  0  0
 36 35  1  0  0  0  0
 37 36  1  0  0  0  0
 40 49  1  0  0  0  0
 41 43  1  0  0  0  0
 42 47  1  0  0  0  0
 44 46  1  0  0  0  0
 45 46  1  6  0  0  0
 45 50  1  0  0  0  0
 47 40  2  0  0  0  0
 47 45  1  0  0  0  0
 48 42  1  0  0  0  0
 48 44  1  0  0  0  0
 49 39  1  6  0  0  0
 49 43  1  0  0  0  0
 50 41  1  0  0  0  0
M  END
>  <MODEL>
4

>  <REMARK>
 VINA RESULT:      -6.9      2.520      3.508
  Name = 
  15 active torsions:
  status: ('A' for Active; 'I' for Inactive)
    1  A    between atoms: C_3  and  C_23
    2  A    between atoms: C_5  and  N_17
    3  A    between atoms: C_5  and  C_18
    4  A    between atoms: C_7  and  C_33
    5  A    between atoms: C_8  and  C_28
    6  A    between atoms: C_9  and  C_33
    7  A    between atoms: C_9  and  C_46
    8  A    between atoms: N_14  and  C_23
    9  A    between atoms: N_17  and  C_41
   10  A    between atoms: C_27  and  C_48
   11  A    between atoms: C_34  and  S_42
   12  A    between atoms: C_35  and  C_40
   13  A    between atoms: C_37  and  C_40
   14  A    between atoms: C_41  and  C_46
   15  A    between atoms: S_42  and  C_44
                            x       y       z     vdW  Elec       q    Type
                         _______ _______ _______ _____ _____    ______ ____

>  <TORSDO>
F 15

$$$$
=
 OpenBabel11042419503D

 50 54  0  0  1  0  0  0  0  0999 V2000
  189.5280  174.1700  146.0770 C   0  0  2  0  0  3  0  0  0  0  0  0
  191.6530  175.8840  146.3310 C   0  0  0  0  0  0  0  0  0  0  0  0
  192.8470  176.3810  146.4680 C   0  0  0  0  0  3  0  0  0  0  0  0
  188.9670  175.4750  145.9280 C   0  0  2  0  0  3  0  0  0  0  0  0
  190.4670  175.3670  146.1770 C   0  0  0  0  0  0  0  0  0  0  0  0
  190.1410  172.2890  144.6370 C   0  0  0  0  0  3  0  0  0  0  0  0
  189.6860  173.5340  144.7380 C   0  0  0  0  0  3  0  0  0  0  0  0
  190.2890  171.6570  143.2930 C   0  0  0  0  0  2  0  0  0  0  0  0
  189.1680  172.0950  142.3680 C   0  0  0  0  0  2  0  0  0  0  0  0
  189.7390  172.8070  141.1520 C   0  0  0  0  0  2  0  0  0  0  0  0
  187.9040  174.2740  141.9100 C   0  0  0  0  0  1  0  0  0  0  0  0
  189.0830  174.1630  140.9620 C   0  0  2  0  0  3  0  0  0  0  0  0
  188.6220  174.3090  139.5870 N   0  0  0  0  0  2  0  0  0  0  0  0
  189.3530  173.3490  138.7720 C   0  0  0  0  0  2  0  0  0  0  0  0
  189.1850  173.6770  137.2990 C   0  0  0  0  0  2  0  0  0  0  0  0
  190.3850  174.1670  136.7820 O   0  0  0  0  0  1  0  0  0  0  0  0
  195.3600  176.3770  145.7550 O   0  0  0  0  0  0  0  0  0  0  0  0
  193.9810  176.2980  145.1130 S   0  0  1  0  0  0  0  0  0  0  0  0
  193.6340  172.9350  142.6930 C   0  0  0  0  0  2  0  0  0  0  0  0
  194.0210  176.5190  142.2150 O   0  0  0  0  0  0  0  0  0  0  0  0
  193.7660  174.3340  143.1970 C   0  0  0  0  0  0  0  0  0  0  0  0
  193.7760  175.2900  142.0900 C   0  0  0  0  0  0  0  0  0  0  0  0
  193.5120  174.5530  140.4980 S   0  0  0  0  0  0  0  0  0  0  0  0
  193.7640  173.5340  145.5310 C   0  0  0  0  0  1  0  0  0  0  0  0
  194.0330  172.9490  141.2130 C   0  0  2  0  0  3  0  0  0  0  0  0
  193.8360  174.6250  144.5120 C   0  0  0  0  0  0  0  0  0  0  0  0
  192.6240  169.9610  138.2530 N   0  0  0  0  0  0  0  0  0  0  0  0
  192.5320  171.3870  138.1280 C   0  0  0  0  0  3  0  0  0  0  0  0
  192.6680  168.5650  140.5090 O   0  0  0  0  0  0  0  0  0  0  0  0
  192.9300  172.2250  139.0950 C   0  0  0  0  0  3  0  0  0  0  0  0
  194.5700  168.2980  138.9610 O   0  0  0  0  0  0  0  0  0  0  0  0
  193.4200  171.7730  140.4480 C   0  0  1  0  0  3  0  0  0  0  0  0
  194.4050  170.6120  140.3180 C   0  0  0  0  0  2  0  0  0  0  0  0
  193.5650  169.2640  139.5250 S   0  0  0  0  0  0  0  0  0  0  0  0
  191.9640  169.0920  137.2900 C   0  0  0  0  0  2  0  0  0  0  0  0
  190.4560  169.2730  137.3440 C   0  0  2  0  0  3  0  0  0  0  0  0
  190.0600  170.2580  136.4370 O   0  0  0  0  0  1  0  0  0  0  0  0
  190.0520  169.6910  138.7420 C   0  0  0  0  0  1  0  0  0  0  0  0
  188.2850  175.9070  147.2120 C   0  0  0  0  0  2  0  0  0  0  0  0
  186.9990  176.9890  145.4100 C   0  0  0  0  0  3  0  0  0  0  0  0
  186.1170  178.8920  147.3810 C   0  0  0  0  0  2  0  0  0  0  0  0
  185.9130  177.6370  143.3240 C   0  0  0  0  0  2  0  0  0  0  0  0
  187.2320  178.0320  147.5790 O   0  0  0  0  0  0  0  0  0  0  0  0
  183.7780  178.7380  143.4960 O   0  0  0  0  0  0  0  0  0  0  0  0
  184.6330  177.8740  145.5720 C   0  0  1  0  0  3  0  0  0  0  0  0
  183.9430  179.0380  144.8590 C   0  0  0  0  0  2  0  0  0  0  0  0
  185.9110  177.5040  144.8200 C   0  0  0  0  0  0  0  0  0  0  0  0
  185.0550  178.8360  142.9160 C   0  0  0  0  0  2  0  0  0  0  0  0
  187.0980  176.7990  146.8960 C   0  0  2  0  0  3  0  0  0  0  0  0
  184.7870  178.1900  147.0670 C   0  0  0  0  0  2  0  0  0  0  0  0
  1  7  1  6  0  0  0
  1  5  1  0  0  0  0
  2  3  2  0  0  0  0
  4  1  1  0  0  0  0
  4  5  1  0  0  0  0
  4 39  1  1  0  0  0
  5  2  2  0  0  0  0
  6  7  2  0  0  0  0
  8  6  1  0  0  0  0
  9  8  1  0  0  0  0
 10  9  1  0  0  0  0
 12 10  1  0  0  0  0
 12 11  1  1  0  0  0
 13 12  1  0  0  0  0
 14 13  1  0  0  0  0
 15 14  1  0  0  0  0
 16 15  1  0  0  0  0
 18 17  2  1  0  0  0
 18  3  1  0  0  0  0
 19 21  1  0  0  0  0
 21 26  2  0  0  0  0
 22 20  2  0  0  0  0
 22 21  1  0  0  0  0
 23 25  1  0  0  0  0
 23 22  1  0  0  0  0
 25 19  1  1  0  0  0
 26 18  1  0  0  0  0
 26 24  1  0  0  0  0
 27 34  1  0  0  0  0
 28 27  1  0  0  0  0
 28 30  2  0  0  0  0
 31 34  2  0  0  0  0
 32 30  1  6  0  0  0
 32 25  1  0  0  0  0
 33 32  1  0  0  0  0
 34 33  1  0  0  0  0
 34 29  2  0  0  0  0
 35 36  1  0  0  0  0
 35 27  1  0  0  0  0
 36 38  1  1  0  0  0
 37 36  1  0  0  0  0
 40 49  1  0  0  0  0
 41 43  1  0  0  0  0
 42 47  1  0  0  0  0
 44 46  1  0  0  0  0
 45 46  1  6  0  0  0
 45 50  1  0  0  0  0
 47 40  2  0  0  0  0
 47 45  1  0  0  0  0
 48 42  1  0  0  0  0
 48 44  1  0  0  0  0
 49 39  1  6  0  0  0
 49 43  1  0  0  0  0
 50 41  1  0  0  0  0
M  END
>  <MODEL>
5

>  <REMARK>
 VINA RESULT:      -6.8      2.825      3.881
  Name = 
  15 active torsions:
  status: ('A' for Active; 'I' for Inactive)
    1  A    between atoms: C_3  and  C_23
    2  A    between atoms: C_5  and  N_17
    3  A    between atoms: C_5  and  C_18
    4  A    between atoms: C_7  and  C_33
    5  A    between atoms: C_8  and  C_28
    6  A    between atoms: C_9  and  C_33
    7  A    between atoms: C_9  and  C_46
    8  A    between atoms: N_14  and  C_23
    9  A    between atoms: N_17  and  C_41
   10  A    between atoms: C_27  and  C_48
   11  A    between atoms: C_34  and  S_42
   12  A    between atoms: C_35  and  C_40
   13  A    between atoms: C_37  and  C_40
   14  A    between atoms: C_41  and  C_46
   15  A    between atoms: S_42  and  C_44
                            x       y       z     vdW  Elec       q    Type
                         _______ _______ _______ _____ _____    ______ ____

>  <TORSDO>
F 15

$$$$
=
 OpenBabel11042419503D

 50 54  0  0  1  0  0  0  0  0999 V2000
  189.6630  173.8240  145.9100 C   0  0  2  0  0  3  0  0  0  0  0  0
  191.9830  175.1500  146.5240 C   0  0  0  0  0  0  0  0  0  0  0  0
  193.2220  175.4410  146.7940 C   0  0  0  0  0  3  0  0  0  0  0  0
  189.3020  175.2050  145.9300 C   0  0  2  0  0  3  0  0  0  0  0  0
  190.7510  174.8410  146.2350 C   0  0  0  0  0  0  0  0  0  0  0  0
  189.1570  172.3070  144.0570 C   0  0  0  0  0  3  0  0  0  0  0  0
  189.8260  173.3660  144.5000 C   0  0  0  0  0  3  0  0  0  0  0  0
  189.3190  171.8610  142.6420 C   0  0  0  0  0  2  0  0  0  0  0  0
  189.3420  173.0530  141.7030 C   0  0  0  0  0  2  0  0  0  0  0  0
  188.0040  173.7760  141.7410 C   0  0  0  0  0  2  0  0  0  0  0  0
  187.7940  175.9100  140.5190 C   0  0  0  0  0  1  0  0  0  0  0  0
  188.2040  175.2780  141.8350 C   0  0  2  0  0  3  0  0  0  0  0  0
  189.6030  175.5820  142.1090 N   0  0  0  0  0  2  0  0  0  0  0  0
  189.6560  176.9020  142.7210 C   0  0  0  0  0  2  0  0  0  0  0  0
  191.0860  177.4120  142.7420 C   0  0  0  0  0  2  0  0  0  0  0  0
  191.5600  177.4480  144.0540 O   0  0  0  0  0  1  0  0  0  0  0  0
  195.7050  174.9090  146.1800 O   0  0  0  0  0  0  0  0  0  0  0  0
  194.4270  175.3820  145.4990 S   0  0  1  0  0  0  0  0  0  0  0  0
  193.3820  172.9890  142.2650 C   0  0  0  0  0  2  0  0  0  0  0  0
  194.6320  176.3670  142.7720 O   0  0  0  0  0  0  0  0  0  0  0  0
  193.8240  174.1240  143.1270 C   0  0  0  0  0  0  0  0  0  0  0  0
  194.1050  175.3130  142.3240 C   0  0  0  0  0  0  0  0  0  0  0  0
  193.7350  175.1230  140.5990 S   0  0  0  0  0  0  0  0  0  0  0  0
  193.5400  172.7450  145.1540 C   0  0  0  0  0  1  0  0  0  0  0  0
  193.8290  173.3080  140.8340 C   0  0  2  0  0  3  0  0  0  0  0  0
  193.9110  174.0220  144.4690 C   0  0  0  0  0  0  0  0  0  0  0  0
  190.8170  170.9960  138.5420 N   0  0  0  0  0  0  0  0  0  0  0  0
  191.3810  170.6320  139.8100 C   0  0  0  0  0  3  0  0  0  0  0  0
  191.9620  172.4770  136.6630 O   0  0  0  0  0  0  0  0  0  0  0  0
  192.3320  171.3570  140.4140 C   0  0  0  0  0  3  0  0  0  0  0  0
  189.7960  173.2420  137.5600 O   0  0  0  0  0  0  0  0  0  0  0  0
  192.9840  172.5680  139.7950 C   0  0  1  0  0  3  0  0  0  0  0  0
  191.9440  173.4880  139.1570 C   0  0  0  0  0  2  0  0  0  0  0  0
  191.1000  172.5720  137.8910 S   0  0  0  0  0  0  0  0  0  0  0  0
  189.9700  170.0610  137.8150 C   0  0  0  0  0  2  0  0  0  0  0  0
  190.7370  168.7950  137.4700 C   0  0  2  0  0  3  0  0  0  0  0  0
  191.1710  168.1660  138.6380 O   0  0  0  0  0  1  0  0  0  0  0  0
  191.9370  169.1530  136.6190 C   0  0  0  0  0  1  0  0  0  0  0  0
  188.5970  175.5470  147.2290 C   0  0  0  0  0  2  0  0  0  0  0  0
  187.2380  176.6220  145.4760 C   0  0  0  0  0  3  0  0  0  0  0  0
  186.6050  178.6520  147.4170 C   0  0  0  0  0  2  0  0  0  0  0  0
  186.0350  177.2410  143.4470 C   0  0  0  0  0  2  0  0  0  0  0  0
  187.6860  177.7410  147.5720 O   0  0  0  0  0  0  0  0  0  0  0  0
  183.9780  178.4640  143.7210 O   0  0  0  0  0  0  0  0  0  0  0  0
  184.9400  177.6410  145.7670 C   0  0  1  0  0  3  0  0  0  0  0  0
  184.2600  178.8110  145.0530 C   0  0  0  0  0  2  0  0  0  0  0  0
  186.1370  177.1710  144.9430 C   0  0  0  0  0  0  0  0  0  0  0  0
  185.2130  178.4670  143.0470 C   0  0  0  0  0  2  0  0  0  0  0  0
  187.4380  176.4890  146.9580 C   0  0  2  0  0  3  0  0  0  0  0  0
  185.2210  178.0110  147.2320 C   0  0  0  0  0  2  0  0  0  0  0  0
  1  7  1  6  0  0  0
  1  4  1  0  0  0  0
  1  5  1  0  0  0  0
  2  3  2  0  0  0  0
  4  5  1  0  0  0  0
  4 39  1  1  0  0  0
  5  2  2  0  0  0  0
  6  7  2  0  0  0  0
  8  6  1  0  0  0  0
  9 10  1  0  0  0  0
  9  8  1  0  0  0  0
 10 12  1  0  0  0  0
 12 11  1  6  0  0  0
 12 13  1  0  0  0  0
 13 14  1  0  0  0  0
 14 15  1  0  0  0  0
 15 16  1  0  0  0  0
 18 17  2  1  0  0  0
 18  3  1  0  0  0  0
 19 21  1  0  0  0  0
 21 26  2  0  0  0  0
 22 20  2  0  0  0  0
 22 21  1  0  0  0  0
 23 25  1  0  0  0  0
 23 22  1  0  0  0  0
 25 19  1  1  0  0  0
 26 24  1  0  0  0  0
 26 18  1  0  0  0  0
 27 28  1  0  0  0  0
 28 30  2  0  0  0  0
 29 34  2  0  0  0  0
 31 34  2  0  0  0  0
 32 33  1  1  0  0  0
 32 30  1  0  0  0  0
 32 25  1  0  0  0  0
 34 27  1  0  0  0  0
 34 33  1  0  0  0  0
 35 27  1  0  0  0  0
 36 38  1  6  0  0  0
 36 35  1  0  0  0  0
 36 37  1  0  0  0  0
 40 49  1  0  0  0  0
 41 43  1  0  0  0  0
 42 47  1  0  0  0  0
 44 46  1  0  0  0  0
 45 46  1  6  0  0  0
 45 50  1  0  0  0  0
 47 40  2  0  0  0  0
 47 45  1  0  0  0  0
 48 42  1  0  0  0  0
 48 44  1  0  0  0  0
 49 39  1  6  0  0  0
 49 43  1  0  0  0  0
 50 41  1  0  0  0  0
M  END
>  <MODEL>
6

>  <REMARK>
 VINA RESULT:      -6.8      2.654      4.082
  Name = 
  15 active torsions:
  status: ('A' for Active; 'I' for Inactive)
    1  A    between atoms: C_3  and  C_23
    2  A    between atoms: C_5  and  N_17
    3  A    between atoms: C_5  and  C_18
    4  A    between atoms: C_7  and  C_33
    5  A    between atoms: C_8  and  C_28
    6  A    between atoms: C_9  and  C_33
    7  A    between atoms: C_9  and  C_46
    8  A    between atoms: N_14  and  C_23
    9  A    between atoms: N_17  and  C_41
   10  A    between atoms: C_27  and  C_48
   11  A    between atoms: C_34  and  S_42
   12  A    between atoms: C_35  and  C_40
   13  A    between atoms: C_37  and  C_40
   14  A    between atoms: C_41  and  C_46
   15  A    between atoms: S_42  and  C_44
                            x       y       z     vdW  Elec       q    Type
                         _______ _______ _______ _____ _____    ______ ____

>  <TORSDO>
F 15

$$$$
=
 OpenBabel11042419503D

 50 54  0  0  1  0  0  0  0  0999 V2000
  190.9720  174.6610  145.1840 C   0  0  2  0  0  3  0  0  0  0  0  0
  193.4870  175.5230  145.8560 C   0  0  0  0  0  0  0  0  0  0  0  0
  194.7120  175.5850  146.2890 C   0  0  0  0  0  3  0  0  0  0  0  0
  191.0430  176.0020  144.6990 C   0  0  2  0  0  3  0  0  0  0  0  0
  192.2650  175.4360  145.4120 C   0  0  0  0  0  0  0  0  0  0  0  0
  190.1350  173.0220  143.5700 C   0  0  0  0  0  3  0  0  0  0  0  0
  191.1660  173.7070  144.0540 C   0  0  0  0  0  3  0  0  0  0  0  0
  190.3360  172.0750  142.4350 C   0  0  0  0  0  2  0  0  0  0  0  0
  191.4030  171.0510  142.7740 C   0  0  0  0  0  2  0  0  0  0  0  0
  191.1380  169.7510  142.0300 C   0  0  0  0  0  2  0  0  0  0  0  0
  193.5120  170.0730  141.4360 C   0  0  0  0  0  1  0  0  0  0  0  0
  192.1840  169.5200  140.9550 C   0  0  2  0  0  3  0  0  0  0  0  0
  191.7920  170.1910  139.7210 N   0  0  0  0  0  2  0  0  0  0  0  0
  191.8220  169.2030  138.6520 C   0  0  0  0  0  2  0  0  0  0  0  0
  190.4400  169.0490  138.0430 C   0  0  0  0  0  2  0  0  0  0  0  0
  189.6900  170.2040  138.2660 O   0  0  0  0  0  1  0  0  0  0  0  0
  196.5610  173.7400  146.3310 O   0  0  0  0  0  0  0  0  0  0  0  0
  195.9960  174.7820  145.3740 S   0  0  1  0  0  0  0  0  0  0  0  0
  194.2500  173.5400  141.8120 C   0  0  0  0  0  2  0  0  0  0  0  0
  196.2080  176.3830  142.9570 O   0  0  0  0  0  0  0  0  0  0  0  0
  194.9790  174.3130  142.8610 C   0  0  0  0  0  0  0  0  0  0  0  0
  195.4440  175.5970  142.3370 C   0  0  0  0  0  0  0  0  0  0  0  0
  194.9210  175.9300  140.6740 S   0  0  0  0  0  0  0  0  0  0  0  0
  194.5580  172.5330  144.5180 C   0  0  0  0  0  1  0  0  0  0  0  0
  194.6530  174.1310  140.4560 C   0  0  2  0  0  3  0  0  0  0  0  0
  195.1370  173.8530  144.1190 C   0  0  0  0  0  0  0  0  0  0  0  0
  191.0700  173.8830  137.8520 N   0  0  0  0  0  0  0  0  0  0  0  0
  191.0900  173.7600  139.2800 C   0  0  0  0  0  3  0  0  0  0  0  0
  193.0430  173.2900  136.1800 O   0  0  0  0  0  0  0  0  0  0  0  0
  192.2240  173.7890  139.9940 C   0  0  0  0  0  3  0  0  0  0  0  0
  192.1620  175.5920  136.1370 O   0  0  0  0  0  0  0  0  0  0  0  0
  193.6000  173.8530  139.3790 C   0  0  1  0  0  3  0  0  0  0  0  0
  193.6560  174.8880  138.2570 C   0  0  0  0  0  2  0  0  0  0  0  0
  192.4850  174.4120  137.0100 S   0  0  0  0  0  0  0  0  0  0  0  0
  189.8530  173.6060  137.1040 C   0  0  0  0  0  2  0  0  0  0  0  0
  188.6320  174.1170  137.8530 C   0  0  2  0  0  3  0  0  0  0  0  0
  187.8530  173.0420  138.2850 O   0  0  0  0  0  1  0  0  0  0  0  0
  187.8080  174.9910  136.9300 C   0  0  0  0  0  1  0  0  0  0  0  0
  190.3150  176.9430  145.6410 C   0  0  0  0  0  2  0  0  0  0  0  0
  187.9600  177.4390  146.1700 C   0  0  0  0  0  3  0  0  0  0  0  0
  187.3450  176.6840  143.4610 C   0  0  0  0  0  2  0  0  0  0  0  0
  185.8380  178.0910  147.1790 C   0  0  0  0  0  2  0  0  0  0  0  0
  188.5740  176.3560  144.0980 O   0  0  0  0  0  0  0  0  0  0  0  0
  184.1600  179.0050  145.7120 O   0  0  0  0  0  0  0  0  0  0  0  0
  186.3130  178.6680  144.6920 C   0  0  1  0  0  3  0  0  0  0  0  0
  184.7950  178.5350  144.5500 C   0  0  0  0  0  2  0  0  0  0  0  0
  186.7590  178.0100  145.9970 C   0  0  0  0  0  0  0  0  0  0  0  0
  184.3860  178.0310  146.7010 C   0  0  0  0  0  2  0  0  0  0  0  0
  188.9640  177.3180  145.0610 C   0  0  2  0  0  3  0  0  0  0  0  0
  187.0050  178.1820  143.4100 C   0  0  0  0  0  2  0  0  0  0  0  0
  1  7  1  6  0  0  0
  1  5  1  0  0  0  0
  2  3  2  0  0  0  0
  4  1  1  0  0  0  0
  4  5  1  0  0  0  0
  4 39  1  1  0  0  0
  5  2  2  0  0  0  0
  6  7  2  0  0  0  0
  8  9  1  0  0  0  0
  8  6  1  0  0  0  0
 10  9  1  0  0  0  0
 12 11  1  1  0  0  0
 12 10  1  0  0  0  0
 13 12  1  0  0  0  0
 14 13  1  0  0  0  0
 15 16  1  0  0  0  0
 15 14  1  0  0  0  0
 18  3  1  0  0  0  0
 18 17  2  1  0  0  0
 19 21  1  0  0  0  0
 21 26  2  0  0  0  0
 22 21  1  0  0  0  0
 22 20  2  0  0  0  0
 23 22  1  0  0  0  0
 25 23  1  0  0  0  0
 25 19  1  1  0  0  0
 26 24  1  0  0  0  0
 26 18  1  0  0  0  0
 27 28  1  0  0  0  0
 28 30  2  0  0  0  0
 29 34  2  0  0  0  0
 31 34  2  0  0  0  0
 32 33  1  6  0  0  0
 32 30  1  0  0  0  0
 32 25  1  0  0  0  0
 34 27  1  0  0  0  0
 34 33  1  0  0  0  0
 35 27  1  0  0  0  0
 35 36  1  0  0  0  0
 36 38  1  6  0  0  0
 36 37  1  0  0  0  0
 41 43  1  0  0  0  0
 43 49  1  0  0  0  0
 44 48  1  0  0  0  0
 45 50  1  6  0  0  0
 45 47  1  0  0  0  0
 46 45  1  0  0  0  0
 46 44  1  0  0  0  0
 47 40  2  0  0  0  0
 47 42  1  0  0  0  0
 48 42  1  0  0  0  0
 49 39  1  1  0  0  0
 49 40  1  0  0  0  0
 50 41  1  0  0  0  0
M  END
>  <MODEL>
7

>  <REMARK>
 VINA RESULT:      -6.6      1.963      2.557
  Name = 
  15 active torsions:
  status: ('A' for Active; 'I' for Inactive)
    1  A    between atoms: C_3  and  C_23
    2  A    between atoms: C_5  and  N_17
    3  A    between atoms: C_5  and  C_18
    4  A    between atoms: C_7  and  C_33
    5  A    between atoms: C_8  and  C_28
    6  A    between atoms: C_9  and  C_33
    7  A    between atoms: C_9  and  C_46
    8  A    between atoms: N_14  and  C_23
    9  A    between atoms: N_17  and  C_41
   10  A    between atoms: C_27  and  C_48
   11  A    between atoms: C_34  and  S_42
   12  A    between atoms: C_35  and  C_40
   13  A    between atoms: C_37  and  C_40
   14  A    between atoms: C_41  and  C_46
   15  A    between atoms: S_42  and  C_44
                            x       y       z     vdW  Elec       q    Type
                         _______ _______ _______ _____ _____    ______ ____

>  <TORSDO>
F 15

$$$$
=
 OpenBabel11042419503D

 50 54  0  0  1  0  0  0  0  0999 V2000
  190.7270  174.6770  145.6590 C   0  0  2  0  0  3  0  0  0  0  0  0
  193.2880  175.5280  146.1470 C   0  0  0  0  0  0  0  0  0  0  0  0
  194.5460  175.5800  146.4690 C   0  0  0  0  0  3  0  0  0  0  0  0
  190.7450  176.0420  145.2450 C   0  0  2  0  0  3  0  0  0  0  0  0
  192.0310  175.4520  145.8110 C   0  0  0  0  0  0  0  0  0  0  0  0
  189.7540  173.1220  144.0390 C   0  0  0  0  0  3  0  0  0  0  0  0
  190.8220  173.7870  144.4670 C   0  0  0  0  0  3  0  0  0  0  0  0
  189.8560  172.2400  142.8400 C   0  0  0  0  0  2  0  0  0  0  0  0
  191.1150  171.3930  142.9020 C   0  0  0  0  0  2  0  0  0  0  0  0
  190.9920  170.2010  141.9670 C   0  0  0  0  0  2  0  0  0  0  0  0
  191.8130  170.0610  139.6440 C   0  0  0  0  0  1  0  0  0  0  0  0
  192.2310  170.0620  141.1020 C   0  0  2  0  0  3  0  0  0  0  0  0
  192.9240  168.8180  141.4140 N   0  0  0  0  0  2  0  0  0  0  0  0
  193.9410  169.1180  142.4120 C   0  0  0  0  0  2  0  0  0  0  0  0
  194.9360  170.1230  141.8590 C   0  0  0  0  0  2  0  0  0  0  0  0
  195.8480  170.4840  142.8510 O   0  0  0  0  0  1  0  0  0  0  0  0
  196.4630  173.8170  146.2680 O   0  0  0  0  0  0  0  0  0  0  0  0
  195.7460  174.8420  145.3990 S   0  0  1  0  0  0  0  0  0  0  0  0
  193.8510  173.4430  141.9740 C   0  0  0  0  0  2  0  0  0  0  0  0
  196.1010  176.1670  142.8360 O   0  0  0  0  0  0  0  0  0  0  0  0
  194.6640  174.2360  142.9420 C   0  0  0  0  0  0  0  0  0  0  0  0
  195.2540  175.4070  142.2960 C   0  0  0  0  0  0  0  0  0  0  0  0
  194.7540  175.6270  140.6070 S   0  0  0  0  0  0  0  0  0  0  0  0
  194.0770  172.6810  144.7670 C   0  0  0  0  0  1  0  0  0  0  0  0
  194.3000  173.8530  140.5670 C   0  0  2  0  0  3  0  0  0  0  0  0
  194.7850  173.8880  144.2400 C   0  0  0  0  0  0  0  0  0  0  0  0
  190.6820  173.7100  138.0050 N   0  0  0  0  0  0  0  0  0  0  0  0
  190.7060  173.7090  139.4390 C   0  0  0  0  0  3  0  0  0  0  0  0
  192.5750  172.7990  136.3850 O   0  0  0  0  0  0  0  0  0  0  0  0
  191.8450  173.6950  140.1430 C   0  0  0  0  0  3  0  0  0  0  0  0
  191.9050  175.1600  136.1450 O   0  0  0  0  0  0  0  0  0  0  0  0
  193.2150  173.5810  139.5220 C   0  0  1  0  0  3  0  0  0  0  0  0
  193.3520  174.5070  138.3140 C   0  0  0  0  0  2  0  0  0  0  0  0
  192.1290  174.0350  137.1160 S   0  0  0  0  0  0  0  0  0  0  0  0
  189.4360  173.4820  137.2870 C   0  0  0  0  0  2  0  0  0  0  0  0
  188.6520  174.7770  137.1430 C   0  0  2  0  0  3  0  0  0  0  0  0
  187.4440  174.6830  137.8350 O   0  0  0  0  0  1  0  0  0  0  0  0
  188.3690  175.0310  135.6770 C   0  0  0  0  0  1  0  0  0  0  0  0
  190.1010  176.9230  146.2990 C   0  0  0  0  0  2  0  0  0  0  0  0
  188.4360  177.7110  144.6630 C   0  0  0  0  0  3  0  0  0  0  0  0
  186.6050  177.9670  146.8690 C   0  0  0  0  0  2  0  0  0  0  0  0
  187.1860  178.3780  142.6770 C   0  0  0  0  0  2  0  0  0  0  0  0
  188.0110  177.8410  147.0390 O   0  0  0  0  0  0  0  0  0  0  0  0
  184.8060  178.0050  142.7030 O   0  0  0  0  0  0  0  0  0  0  0  0
  185.9930  177.0530  144.5660 C   0  0  1  0  0  3  0  0  0  0  0  0
  184.7600  177.8270  144.0960 C   0  0  0  0  0  2  0  0  0  0  0  0
  187.2530  177.7320  144.0310 C   0  0  0  0  0  0  0  0  0  0  0  0
  185.7940  178.9780  142.4650 C   0  0  0  0  0  2  0  0  0  0  0  0
  188.6190  177.0790  146.0120 C   0  0  2  0  0  3  0  0  0  0  0  0
  185.9280  176.8330  146.0850 C   0  0  0  0  0  2  0  0  0  0  0  0
  1  7  1  6  0  0  0
  1  5  1  0  0  0  0
  2  3  2  0  0  0  0
  4  1  1  0  0  0  0
  4  5  1  0  0  0  0
  4 39  1  1  0  0  0
  5  2  2  0  0  0  0
  6  7  2  0  0  0  0
  8  9  1  0  0  0  0
  8  6  1  0  0  0  0
 10  9  1  0  0  0  0
 12 11  1  6  0  0  0
 12 13  1  0  0  0  0
 12 10  1  0  0  0  0
 13 14  1  0  0  0  0
 15 14  1  0  0  0  0
 15 16  1  0  0  0  0
 18 17  2  1  0  0  0
 18  3  1  0  0  0  0
 19 21  1  0  0  0  0
 21 26  2  0  0  0  0
 22 20  2  0  0  0  0
 22 21  1  0  0  0  0
 23 22  1  0  0  0  0
 25 23  1  0  0  0  0
 25 19  1  1  0  0  0
 26 24  1  0  0  0  0
 26 18  1  0  0  0  0
 27 28  1  0  0  0  0
 28 30  2  0  0  0  0
 29 34  2  0  0  0  0
 31 34  2  0  0  0  0
 32 33  1  6  0  0  0
 32 30  1  0  0  0  0
 32 25  1  0  0  0  0
 34 27  1  0  0  0  0
 34 33  1  0  0  0  0
 35 27  1  0  0  0  0
 36 38  1  6  0  0  0
 36 35  1  0  0  0  0
 36 37  1  0  0  0  0
 40 49  1  0  0  0  0
 41 43  1  0  0  0  0
 42 47  1  0  0  0  0
 44 46  1  0  0  0  0
 45 46  1  1  0  0  0
 45 50  1  0  0  0  0
 47 45  1  0  0  0  0
 47 40  2  0  0  0  0
 48 42  1  0  0  0  0
 48 44  1  0  0  0  0
 49 39  1  1  0  0  0
 49 43  1  0  0  0  0
 50 41  1  0  0  0  0
M  END
>  <MODEL>
8

>  <REMARK>
 VINA RESULT:      -6.4      2.276      3.387
  Name = 
  15 active torsions:
  status: ('A' for Active; 'I' for Inactive)
    1  A    between atoms: C_3  and  C_23
    2  A    between atoms: C_5  and  N_17
    3  A    between atoms: C_5  and  C_18
    4  A    between atoms: C_7  and  C_33
    5  A    between atoms: C_8  and  C_28
    6  A    between atoms: C_9  and  C_33
    7  A    between atoms: C_9  and  C_46
    8  A    between atoms: N_14  and  C_23
    9  A    between atoms: N_17  and  C_41
   10  A    between atoms: C_27  and  C_48
   11  A    between atoms: C_34  and  S_42
   12  A    between atoms: C_35  and  C_40
   13  A    between atoms: C_37  and  C_40
   14  A    between atoms: C_41  and  C_46
   15  A    between atoms: S_42  and  C_44
                            x       y       z     vdW  Elec       q    Type
                         _______ _______ _______ _____ _____    ______ ____

>  <TORSDO>
F 15

$$$$
=
 OpenBabel11042419503D

 50 54  0  0  1  0  0  0  0  0999 V2000
  192.2620  175.1330  143.6190 C   0  0  2  0  0  3  0  0  0  0  0  0
  194.5680  175.2250  145.1000 C   0  0  0  0  0  0  0  0  0  0  0  0
  195.5700  174.9200  145.8700 C   0  0  0  0  0  3  0  0  0  0  0  0
  192.8060  176.4300  143.3720 C   0  0  2  0  0  3  0  0  0  0  0  0
  193.5650  175.5060  144.3170 C   0  0  0  0  0  0  0  0  0  0  0  0
  191.7930  174.2520  141.3840 C   0  0  0  0  0  3  0  0  0  0  0  0
  192.5620  174.2340  142.4680 C   0  0  0  0  0  3  0  0  0  0  0  0
  192.1050  173.3540  140.2340 C   0  0  0  0  0  2  0  0  0  0  0  0
  190.8830  172.5440  139.8400 C   0  0  0  0  0  2  0  0  0  0  0  0
  189.9070  173.4110  139.0600 C   0  0  0  0  0  2  0  0  0  0  0  0
  188.2040  174.7570  140.2350 C   0  0  0  0  0  1  0  0  0  0  0  0
  188.5280  173.3770  139.6940 C   0  0  2  0  0  3  0  0  0  0  0  0
  188.4990  172.4060  140.7800 N   0  0  0  0  0  2  0  0  0  0  0  0
  188.1860  173.1250  142.0070 C   0  0  0  0  0  2  0  0  0  0  0  0
  188.9740  172.5460  143.1690 C   0  0  0  0  0  2  0  0  0  0  0  0
  189.7150  171.4450  142.7380 O   0  0  0  0  0  1  0  0  0  0  0  0
  196.8330  172.6570  146.2030 O   0  0  0  0  0  0  0  0  0  0  0  0
  196.8400  173.8510  145.2570 S   0  0  1  0  0  0  0  0  0  0  0  0
  195.9030  173.3260  141.2410 C   0  0  0  0  0  2  0  0  0  0  0  0
  197.9300  175.6110  143.2160 O   0  0  0  0  0  0  0  0  0  0  0  0
  196.4490  173.8370  142.5330 C   0  0  0  0  0  0  0  0  0  0  0  0
  197.2360  175.0520  142.3250 C   0  0  0  0  0  0  0  0  0  0  0  0
  197.2240  175.6410  140.6510 S   0  0  0  0  0  0  0  0  0  0  0  0
  195.3290  172.0180  143.7690 C   0  0  0  0  0  1  0  0  0  0  0  0
  196.7340  173.9580  140.1190 C   0  0  2  0  0  3  0  0  0  0  0  0
  196.1980  173.2340  143.7130 C   0  0  0  0  0  0  0  0  0  0  0  0
  194.4030  174.9660  136.4820 N   0  0  0  0  0  0  0  0  0  0  0  0
  194.0910  175.3590  137.8260 C   0  0  0  0  0  3  0  0  0  0  0  0
  195.7380  172.7990  135.7330 O   0  0  0  0  0  0  0  0  0  0  0  0
  194.8150  174.9660  138.8820 C   0  0  0  0  0  3  0  0  0  0  0  0
  196.6260  174.9890  135.0280 O   0  0  0  0  0  0  0  0  0  0  0  0
  195.9670  173.9960  138.7950 C   0  0  1  0  0  3  0  0  0  0  0  0
  196.8860  174.3340  137.6220 C   0  0  0  0  0  2  0  0  0  0  0  0
  195.9310  174.2370  136.1280 S   0  0  0  0  0  0  0  0  0  0  0  0
  193.4600  175.2150  135.4020 C   0  0  0  0  0  2  0  0  0  0  0  0
  192.2500  174.3020  135.5210 C   0  0  2  0  0  3  0  0  0  0  0  0
  192.4480  173.1450  134.7650 O   0  0  0  0  0  1  0  0  0  0  0  0
  191.0230  175.0270  135.0100 C   0  0  0  0  0  1  0  0  0  0  0  0
  192.0720  177.4750  144.1900 C   0  0  0  0  0  2  0  0  0  0  0  0
  189.8580  177.8040  143.1600 C   0  0  0  0  0  3  0  0  0  0  0  0
  188.7280  177.1360  145.7220 C   0  0  0  0  0  2  0  0  0  0  0  0
  187.9610  178.2100  141.6800 C   0  0  0  0  0  2  0  0  0  0  0  0
  190.0920  177.4980  145.5470 O   0  0  0  0  0  0  0  0  0  0  0  0
  185.9240  177.0160  142.1560 O   0  0  0  0  0  0  0  0  0  0  0  0
  187.8190  176.3380  143.4750 C   0  0  1  0  0  3  0  0  0  0  0  0
  186.3260  176.6730  143.4580 C   0  0  0  0  0  2  0  0  0  0  0  0
  188.6010  177.4770  142.8240 C   0  0  0  0  0  0  0  0  0  0  0  0
  186.4510  178.2970  141.9100 C   0  0  0  0  0  2  0  0  0  0  0  0
  190.5970  177.1270  144.2770 C   0  0  2  0  0  3  0  0  0  0  0  0
  188.2510  175.9340  144.8930 C   0  0  0  0  0  2  0  0  0  0  0  0
  1  7  1  6  0  0  0
  1  5  1  0  0  0  0
  2  3  2  0  0  0  0
  4  1  1  0  0  0  0
  4 39  1  1  0  0  0
  4  5  1  0  0  0  0
  5  2  2  0  0  0  0
  6  7  2  0  0  0  0
  8  6  1  0  0  0  0
  9  8  1  0  0  0  0
 10 12  1  0  0  0  0
 10  9  1  0  0  0  0
 12 11  1  1  0  0  0
 12 13  1  0  0  0  0
 13 14  1  0  0  0  0
 14 15  1  0  0  0  0
 16 15  1  0  0  0  0
 18  3  1  0  0  0  0
 18 17  2  1  0  0  0
 19 21  1  0  0  0  0
 21 26  2  0  0  0  0
 22 21  1  0  0  0  0
 22 20  2  0  0  0  0
 23 22  1  0  0  0  0
 25 23  1  0  0  0  0
 25 19  1  1  0  0  0
 26 24  1  0  0  0  0
 26 18  1  0  0  0  0
 27 28  1  0  0  0  0
 28 30  2  0  0  0  0
 29 34  2  0  0  0  0
 31 34  2  0  0  0  0
 32 33  1  6  0  0  0
 32 30  1  0  0  0  0
 32 25  1  0  0  0  0
 34 27  1  0  0  0  0
 34 33  1  0  0  0  0
 35 36  1  0  0  0  0
 35 27  1  0  0  0  0
 36 38  1  6  0  0  0
 37 36  1  0  0  0  0
 40 49  1  0  0  0  0
 42 48  1  0  0  0  0
 42 47  1  0  0  0  0
 43 41  1  0  0  0  0
 44 46  1  0  0  0  0
 45 46  1  1  0  0  0
 45 50  1  0  0  0  0
 47 40  2  0  0  0  0
 47 45  1  0  0  0  0
 48 44  1  0  0  0  0
 49 39  1  1  0  0  0
 49 43  1  0  0  0  0
 50 41  1  0  0  0  0
M  END
>  <MODEL>
9

>  <REMARK>
 VINA RESULT:      -6.3      1.834      2.664
  Name = 
  15 active torsions:
  status: ('A' for Active; 'I' for Inactive)
    1  A    between atoms: C_3  and  C_23
    2  A    between atoms: C_5  and  N_17
    3  A    between atoms: C_5  and  C_18
    4  A    between atoms: C_7  and  C_33
    5  A    between atoms: C_8  and  C_28
    6  A    between atoms: C_9  and  C_33
    7  A    between atoms: C_9  and  C_46
    8  A    between atoms: N_14  and  C_23
    9  A    between atoms: N_17  and  C_41
   10  A    between atoms: C_27  and  C_48
   11  A    between atoms: C_34  and  S_42
   12  A    between atoms: C_35  and  C_40
   13  A    between atoms: C_37  and  C_40
   14  A    between atoms: C_41  and  C_46
   15  A    between atoms: S_42  and  C_44
                            x       y       z     vdW  Elec       q    Type
                         _______ _______ _______ _____ _____    ______ ____

>  <TORSDO>
F 15

$$$$
