=
 OpenBabel11042418563D

 68 75  0  0  1  0  0  0  0  0999 V2000
  196.2030  170.6190  141.7330 N   0  0  0  0  0  2  0  0  0  0  0  0
  195.2710  170.5100  140.6230 C   0  0  1  0  0  3  0  0  0  0  0  0
  195.8950  169.8950  139.4980 O   0  0  0  0  0  0  0  0  0  0  0  0
  194.8500  169.5140  137.4270 C   0  0  0  0  0  2  0  0  0  0  0  0
  195.1900  169.0700  138.6250 C   0  0  0  0  0  3  0  0  0  0  0  0
  194.0200  169.7500  141.0460 C   0  0  0  0  0  2  0  0  0  0  0  0
  188.5490  175.7820  141.9030 N   0  0  0  0  0  0  0  0  0  0  0  0
  192.6740  170.5040  142.9030 C   0  0  0  0  0  3  0  0  0  0  0  0
  190.9280  172.9330  142.1490 N   0  0  0  0  0  0  0  0  0  0  0  0
  191.6010  172.6730  140.9170 C   0  0  0  0  0  3  0  0  0  0  0  0
  189.5120  174.9200  141.4630 C   0  0  0  0  0  3  0  0  0  0  0  0
  189.9590  173.9470  142.3470 C   0  0  0  0  0  0  0  0  0  0  0  0
  193.0230  170.6950  141.6280 C   0  0  0  0  0  0  0  0  0  0  0  0
  188.4740  174.7240  144.0260 N   0  0  0  0  0  0  0  0  0  0  0  0
  190.0090  172.8120  144.3540 N   0  0  0  0  0  2  0  0  0  0  0  0
  190.9350  172.2510  143.4100 C   0  0  0  0  0  0  0  0  0  0  0  0
  191.6970  171.2140  143.7350 C   0  0  0  0  0  3  0  0  0  0  0  0
  192.4930  171.7110  140.7060 C   0  0  0  0  0  3  0  0  0  0  0  0
  189.4360  173.8710  143.6000 C   0  0  0  0  0  0  0  0  0  0  0  0
  188.0270  175.6910  143.1700 C   0  0  0  0  0  0  0  0  0  0  0  0
  186.9640  176.6490  143.6350 C   0  0  2  0  0  3  0  0  0  0  0  0
  186.6630  176.5650  145.1450 C   0  0  2  0  0  3  0  0  0  0  0  0
  185.3020  176.3610  145.4000 O   0  0  0  0  0  1  0  0  0  0  0  0
  187.2540  177.7190  145.9850 C   0  0  1  0  0  0  0  0  0  0  0  0
  185.5510  179.1860  146.8390 C   0  0  0  0  0  2  0  0  0  0  0  0
  186.4980  179.0070  145.6870 C   0  0  0  0  0  2  0  0  0  0  0  0
  187.0540  177.4110  147.4030 N   0  0  0  0  0  2  0  0  0  0  0  0
  186.2360  178.4750  147.9740 C   0  0  0  0  0  2  0  0  0  0  0  0
  188.7580  177.9300  145.7490 C   0  0  0  0  0  2  0  0  0  0  0  0
  190.6190  176.5020  146.3670 N   0  0  0  0  0  1  0  0  0  0  0  0
  189.6340  177.4300  146.8890 C   0  0  0  0  0  2  0  0  0  0  0  0
  185.7270  176.6390  142.7290 C   0  0  0  0  0  2  0  0  0  0  0  0
  185.0700  178.0070  142.6130 C   0  0  0  0  0  2  0  0  0  0  0  0
  185.4190  177.9120  140.4370 C   0  0  0  0  0  1  0  0  0  0  0  0
  185.6490  178.7090  141.5570 O   0  0  0  0  0  0  0  0  0  0  0  0
  195.7710  171.7760  142.4990 C   0  0  0  0  0  2  0  0  0  0  0  0
  195.2970  174.2220  144.4110 C   0  0  1  0  0  3  0  0  0  0  0  0
  195.4600  175.4630  143.5350 C   0  0  1  0  0  3  0  0  0  0  0  0
  196.6340  173.4610  144.5420 C   0  0  2  0  0  3  0  0  0  0  0  0
  195.3820  175.1090  142.0750 C   0  0  0  0  0  3  0  0  0  0  0  0
  197.4860  174.0010  145.6810 C   0  0  0  0  0  1  0  0  0  0  0  0
  196.6890  172.9790  142.2330 C   0  0  1  0  0  3  0  0  0  0  0  0
  195.9610  174.0620  141.4710 C   0  0  0  0  0  0  0  0  0  0  0  0
  197.4050  173.4790  143.3540 O   0  0  0  0  0  0  0  0  0  0  0  0
  194.4790  176.4150  143.8280 O   0  0  0  0  0  0  0  0  0  0  0  0
  193.4430  176.1480  142.9290 C   0  0  0  0  0  1  0  0  0  0  0  0
  194.7620  174.5340  145.6660 O   0  0  0  0  0  0  0  0  0  0  0  0
  193.5830  173.7930  145.7450 C   0  0  0  0  0  1  0  0  0  0  0  0
  195.8090  173.9720  140.0790 O   0  0  0  0  0  0  0  0  0  0  0  0
  197.4390  172.8760  138.7780 C   0  0  0  0  0  1  0  0  0  0  0  0
  196.8230  174.2340  139.1030 C   0  0  2  0  0  0  0  0  0  0  0  0
  197.9310  175.1030  139.7160 C   0  0  0  0  0  2  0  0  0  0  0  0
  197.4900  176.3790  140.0160 F   0  0  0  0  0  0  0  0  0  0  0  0
  196.2160  174.8380  137.9630 O   0  0  0  0  0  0  0  0  0  0  0  0
  194.1150  173.7010  138.3040 O   0  0  0  0  0  1  0  0  0  0  0  0
  194.6590  174.6770  136.1070 C   0  0  1  0  0  3  0  0  0  0  0  0
  195.1380  174.0890  137.4310 C   0  0  1  0  0  0  0  0  0  0  0  0
  195.3160  173.2990  136.1550 C   0  0  0  0  0  2  0  0  0  0  0  0
  193.1390  174.5610  135.9060 C   0  0  1  0  0  3  0  0  0  0  0  0
  191.2720  173.5750  137.3750 C   0  0  0  0  0  2  0  0  0  0  0  0
  190.1550  173.8500  136.5620 O   0  0  0  0  0  0  0  0  0  0  0  0
  190.8670  172.3300  134.8480 C   0  0  0  0  0  2  0  0  0  0  0  0
  189.8210  172.6480  135.9150 C   0  0  0  0  0  2  0  0  0  0  0  0
  192.2330  172.1630  135.5150 C   0  0  0  0  0  2  0  0  0  0  0  0
  192.5160  173.2870  136.5240 C   0  0  1  0  0  3  0  0  0  0  0  0
  193.1830  177.0080  135.9070 O   0  0  0  0  0  0  0  0  0  0  0  0
  192.3960  175.8790  136.2140 C   0  0  1  0  0  3  0  0  0  0  0  0
  192.1580  176.6910  134.9970 C   0  0  0  0  0  2  0  0  0  0  0  0
  1 36  1  0  0  0  0
  2  6  1  1  0  0  0
  2  1  1  0  0  0  0
  3  2  1  0  0  0  0
  4  5  2  0  0  0  0
  5  3  1  0  0  0  0
  6 13  1  0  0  0  0
  7 20  2  0  0  0  0
  8 17  1  0  0  0  0
  9 12  1  0  0  0  0
  9 16  1  0  0  0  0
 10  9  1  0  0  0  0
 11  7  1  0  0  0  0
 11 12  2  0  0  0  0
 12 19  1  0  0  0  0
 13  8  2  0  0  0  0
 16 17  2  0  0  0  0
 16 15  1  0  0  0  0
 18 10  2  0  0  0  0
 18 13  1  0  0  0  0
 19 14  2  0  0  0  0
 19 15  1  0  0  0  0
 20 21  1  0  0  0  0
 20 14  1  0  0  0  0
 21 32  1  6  0  0  0
 21 22  1  0  0  0  0
 22 23  1  6  0  0  0
 22 24  1  0  0  0  0
 24 29  1  6  0  0  0
 24 27  1  0  0  0  0
 25 28  1  0  0  0  0
 26 24  1  0  0  0  0
 26 25  1  0  0  0  0
 27 28  1  0  0  0  0
 29 31  1  0  0  0  0
 30 31  1  0  0  0  0
 33 32  1  0  0  0  0
 34 35  1  0  0  0  0
 35 33  1  0  0  0  0
 37 39  1  0  0  0  0
 37 47  1  1  0  0  0
 38 45  1  1  0  0  0
 38 37  1  0  0  0  0
 39 41  1  1  0  0  0
 40 38  1  0  0  0  0
 42 36  1  1  0  0  0
 42 44  1  0  0  0  0
 43 40  2  0  0  0  0
 43 42  1  0  0  0  0
 44 39  1  0  0  0  0
 46 45  1  0  0  0  0
 47 48  1  0  0  0  0
 49 43  1  0  0  0  0
 51 50  1  6  0  0  0
 51 52  1  0  0  0  0
 51 49  1  0  0  0  0
 52 53  1  0  0  0  0
 54 51  1  0  0  0  0
 56 59  1  1  0  0  0
 56 58  1  0  0  0  0
 56 57  1  0  0  0  0
 57 54  1  0  0  0  0
 57 55  1  1  0  0  0
 58 57  1  0  0  0  0
 59 67  1  1  0  0  0
 61 60  1  0  0  0  0
 62 64  1  0  0  0  0
 62 63  1  0  0  0  0
 63 61  1  0  0  0  0
 64 65  1  0  0  0  0
 65 59  1  6  0  0  0
 65 60  1  0  0  0  0
 66 67  1  0  0  0  0
 67 68  1  6  0  0  0
 68 66  1  0  0  0  0
M  END
>  <MODEL>
1

>  <REMARK>
 VINA RESULT:      -5.1      0.000      0.000
  Name = 
  25 active torsions:
  status: ('A' for Active; 'I' for Inactive)
    1  A    between atoms: C_1  and  C_12
    2  A    between atoms: C_1  and  C_23
    3  A    between atoms: C_1  and  C_65
    4  A    between atoms: C_2  and  C_8
    5  A    between atoms: C_2  and  C_23
    6  A    between atoms: C_6  and  O_49
    7  A    between atoms: C_8  and  C_67
    8  A    between atoms: C_12  and  C_42
    9  A    between atoms: O_13  and  C_17
   10  A    between atoms: C_14  and  C_39
   11  A    between atoms: N_20  and  C_31
   12  A    between atoms: N_20  and  C_56
   13  A    between atoms: O_24  and  C_25
   14  A    between atoms: O_24  and  C_64
   15  A    between atoms: C_26  and  C_40
   16  A    between atoms: C_26  and  C_56
   17  A    between atoms: C_31  and  C_43
   18  A    between atoms: C_33  and  C_39
   19  A    between atoms: C_38  and  C_64
   20  A    between atoms: C_39  and  C_68
   21  A    between atoms: C_42  and  O_51
   22  A    between atoms: C_48  and  O_63
   23  A    between atoms: C_53  and  O_66
   24  A    between atoms: C_56  and  O_66
   25  A    between atoms: O_63  and  C_64
                            x       y       z     vdW  Elec       q    Type
                         _______ _______ _______ _____ _____    ______ ____

>  <TORSDO>
F 25

$$$$
=
 OpenBabel11042418563D

 68 75  0  0  1  0  0  0  0  0999 V2000
  187.6390  175.7060  145.6630 N   0  0  0  0  0  2  0  0  0  0  0  0
  187.7230  176.9380  146.4300 C   0  0  1  0  0  3  0  0  0  0  0  0
  186.7360  176.9620  147.4580 O   0  0  0  0  0  0  0  0  0  0  0  0
  184.7930  178.1480  146.8680 C   0  0  0  0  0  2  0  0  0  0  0  0
  185.8730  178.0430  147.6240 C   0  0  0  0  0  3  0  0  0  0  0  0
  189.1230  177.1180  147.0020 C   0  0  0  0  0  2  0  0  0  0  0  0
  195.1310  175.4650  141.6900 N   0  0  0  0  0  0  0  0  0  0  0  0
  190.1870  175.0660  146.3010 C   0  0  0  0  0  3  0  0  0  0  0  0
  192.3700  175.5670  144.1800 N   0  0  0  0  0  0  0  0  0  0  0  0
  191.9120  176.8950  144.4360 C   0  0  0  0  0  3  0  0  0  0  0  0
  194.1560  176.0470  142.4480 C   0  0  0  0  0  3  0  0  0  0  0  0
  193.4180  175.2270  143.2890 C   0  0  0  0  0  0  0  0  0  0  0  0
  190.1160  176.3920  146.1570 C   0  0  0  0  0  0  0  0  0  0  0  0
  194.6530  173.3240  142.5960 N   0  0  0  0  0  0  0  0  0  0  0  0
  192.8280  173.2210  144.2640 N   0  0  0  0  0  2  0  0  0  0  0  0
  192.0280  174.3040  144.7640 C   0  0  0  0  0  0  0  0  0  0  0  0
  191.0800  174.0900  145.6680 C   0  0  0  0  0  3  0  0  0  0  0  0
  190.9500  177.2360  145.2860 C   0  0  0  0  0  3  0  0  0  0  0  0
  193.6780  173.8930  143.3440 C   0  0  0  0  0  0  0  0  0  0  0  0
  195.3860  174.1170  141.7580 C   0  0  0  0  0  0  0  0  0  0  0  0
  196.4660  173.4940  140.9160 C   0  0  2  0  0  3  0  0  0  0  0  0
  195.9350  172.6690  139.7270 C   0  0  2  0  0  3  0  0  0  0  0  0
  196.7480  171.5640  139.4480 O   0  0  0  0  0  1  0  0  0  0  0  0
  195.6100  173.4960  138.4630 C   0  0  1  0  0  0  0  0  0  0  0  0
  194.3110  172.2480  136.8700 C   0  0  0  0  0  2  0  0  0  0  0  0
  195.7240  172.6100  137.2290 C   0  0  0  0  0  2  0  0  0  0  0  0
  194.2200  173.9500  138.5510 N   0  0  0  0  0  2  0  0  0  0  0  0
  193.5040  173.3990  137.4060 C   0  0  0  0  0  2  0  0  0  0  0  0
  196.5080  174.7330  138.3030 C   0  0  0  0  0  2  0  0  0  0  0  0
  196.3080  176.0260  136.2610 N   0  0  0  0  0  1  0  0  0  0  0  0
  197.0290  174.9330  136.8860 C   0  0  0  0  0  2  0  0  0  0  0  0
  197.5380  172.7940  141.7600 C   0  0  0  0  0  2  0  0  0  0  0  0
  197.0930  171.4290  142.2640 C   0  0  0  0  0  2  0  0  0  0  0  0
  197.8860  170.6280  144.1600 C   0  0  0  0  0  1  0  0  0  0  0  0
  196.9120  171.4820  143.6450 O   0  0  0  0  0  0  0  0  0  0  0  0
  187.0290  176.0710  144.3960 C   0  0  0  0  0  2  0  0  0  0  0  0
  185.6400  177.8880  142.2440 C   0  0  1  0  0  3  0  0  0  0  0  0
  186.5440  177.8280  141.0130 C   0  0  1  0  0  3  0  0  0  0  0  0
  186.3550  178.5910  143.4180 C   0  0  2  0  0  3  0  0  0  0  0  0
  187.5000  176.6690  141.1000 C   0  0  0  0  0  3  0  0  0  0  0  0
  186.1810  180.1010  143.3690 C   0  0  0  0  0  1  0  0  0  0  0  0
  187.9990  176.9030  143.5420 C   0  0  1  0  0  3  0  0  0  0  0  0
  188.1950  176.2830  142.1790 C   0  0  0  0  0  0  0  0  0  0  0  0
  187.7400  178.2990  143.4820 O   0  0  0  0  0  0  0  0  0  0  0  0
  185.7880  177.7100  139.8430 O   0  0  0  0  0  0  0  0  0  0  0  0
  186.5750  176.9360  138.9860 C   0  0  0  0  0  1  0  0  0  0  0  0
  184.4100  178.4930  141.9600 O   0  0  0  0  0  0  0  0  0  0  0  0
  183.6350  178.2750  143.0990 C   0  0  0  0  0  1  0  0  0  0  0  0
  189.0860  175.2130  142.0060 O   0  0  0  0  0  0  0  0  0  0  0  0
  187.4540  173.5410  142.3200 C   0  0  0  0  0  1  0  0  0  0  0  0
  188.7410  173.8910  141.5760 C   0  0  2  0  0  0  0  0  0  0  0  0
  189.8160  172.8940  142.0310 C   0  0  0  0  0  2  0  0  0  0  0  0
  189.2690  171.7420  142.5660 F   0  0  0  0  0  0  0  0  0  0  0  0
  188.5620  173.9020  140.1620 O   0  0  0  0  0  0  0  0  0  0  0  0
  190.9680  173.7380  140.0690 O   0  0  0  0  0  1  0  0  0  0  0  0
  189.5650  172.2160  138.7300 C   0  0  1  0  0  3  0  0  0  0  0  0
  189.7300  173.5570  139.4400 C   0  0  1  0  0  0  0  0  0  0  0  0
  189.7070  173.5090  137.9290 C   0  0  0  0  0  2  0  0  0  0  0  0
  190.8610  171.3900  138.6850 C   0  0  1  0  0  3  0  0  0  0  0  0
  190.8480  169.5330  140.4640 C   0  0  0  0  0  2  0  0  0  0  0  0
  191.5380  168.5230  139.7660 O   0  0  0  0  0  0  0  0  0  0  0  0
  193.5930  169.7600  139.7500 C   0  0  0  0  0  2  0  0  0  0  0  0
  192.8550  168.5210  140.2540 C   0  0  0  0  0  2  0  0  0  0  0  0
  192.8840  171.0130  140.2630 C   0  0  0  0  0  2  0  0  0  0  0  0
  191.3620  170.9260  140.0730 C   0  0  1  0  0  3  0  0  0  0  0  0
  189.6980  170.4150  136.7640 O   0  0  0  0  0  0  0  0  0  0  0  0
  190.8350  170.3010  137.5910 C   0  0  1  0  0  3  0  0  0  0  0  0
  190.9150  170.8710  136.2240 C   0  0  0  0  0  2  0  0  0  0  0  0
  1  2  1  0  0  0  0
  2  6  1  1  0  0  0
  2  3  1  0  0  0  0
  3  5  1  0  0  0  0
  4  5  2  0  0  0  0
  7 20  2  0  0  0  0
  7 11  1  0  0  0  0
  9 10  1  0  0  0  0
  9 16  1  0  0  0  0
 10 18  2  0  0  0  0
 11 12  2  0  0  0  0
 12 19  1  0  0  0  0
 12  9  1  0  0  0  0
 13  8  2  0  0  0  0
 13  6  1  0  0  0  0
 14 19  2  0  0  0  0
 15 16  1  0  0  0  0
 16 17  2  0  0  0  0
 17  8  1  0  0  0  0
 18 13  1  0  0  0  0
 19 15  1  0  0  0  0
 20 14  1  0  0  0  0
 21 20  1  0  0  0  0
 21 32  1  1  0  0  0
 22 23  1  6  0  0  0
 22 21  1  0  0  0  0
 24 29  1  6  0  0  0
 24 27  1  0  0  0  0
 24 22  1  0  0  0  0
 25 26  1  0  0  0  0
 25 28  1  0  0  0  0
 26 24  1  0  0  0  0
 28 27  1  0  0  0  0
 30 31  1  0  0  0  0
 31 29  1  0  0  0  0
 32 33  1  0  0  0  0
 33 35  1  0  0  0  0
 35 34  1  0  0  0  0
 36  1  1  0  0  0  0
 37 47  1  6  0  0  0
 37 39  1  0  0  0  0
 38 45  1  6  0  0  0
 38 40  1  0  0  0  0
 38 37  1  0  0  0  0
 39 41  1  6  0  0  0
 39 44  1  0  0  0  0
 40 43  2  0  0  0  0
 42 36  1  6  0  0  0
 43 42  1  0  0  0  0
 44 42  1  0  0  0  0
 46 45  1  0  0  0  0
 47 48  1  0  0  0  0
 49 43  1  0  0  0  0
 51 49  1  0  0  0  0
 51 52  1  0  0  0  0
 51 50  1  1  0  0  0
 52 53  1  0  0  0  0
 54 51  1  0  0  0  0
 56 59  1  6  0  0  0
 56 57  1  0  0  0  0
 57 55  1  1  0  0  0
 57 54  1  0  0  0  0
 58 56  1  0  0  0  0
 58 57  1  0  0  0  0
 59 67  1  6  0  0  0
 61 63  1  0  0  0  0
 61 60  1  0  0  0  0
 62 63  1  0  0  0  0
 62 64  1  0  0  0  0
 65 59  1  6  0  0  0
 65 64  1  0  0  0  0
 65 60  1  0  0  0  0
 66 67  1  0  0  0  0
 67 68  1  6  0  0  0
 68 66  1  0  0  0  0
M  END
>  <MODEL>
2

>  <REMARK>
 VINA RESULT:      -5.1      2.717      9.620
  Name = 
  25 active torsions:
  status: ('A' for Active; 'I' for Inactive)
    1  A    between atoms: C_1  and  C_12
    2  A    between atoms: C_1  and  C_23
    3  A    between atoms: C_1  and  C_65
    4  A    between atoms: C_2  and  C_8
    5  A    between atoms: C_2  and  C_23
    6  A    between atoms: C_6  and  O_49
    7  A    between atoms: C_8  and  C_67
    8  A    between atoms: C_12  and  C_42
    9  A    between atoms: O_13  and  C_17
   10  A    between atoms: C_14  and  C_39
   11  A    between atoms: N_20  and  C_31
   12  A    between atoms: N_20  and  C_56
   13  A    between atoms: O_24  and  C_25
   14  A    between atoms: O_24  and  C_64
   15  A    between atoms: C_26  and  C_40
   16  A    between atoms: C_26  and  C_56
   17  A    between atoms: C_31  and  C_43
   18  A    between atoms: C_33  and  C_39
   19  A    between atoms: C_38  and  C_64
   20  A    between atoms: C_39  and  C_68
   21  A    between atoms: C_42  and  O_51
   22  A    between atoms: C_48  and  O_63
   23  A    between atoms: C_53  and  O_66
   24  A    between atoms: C_56  and  O_66
   25  A    between atoms: O_63  and  C_64
                            x       y       z     vdW  Elec       q    Type
                         _______ _______ _______ _____ _____    ______ ____

>  <TORSDO>
F 25

$$$$
=
 OpenBabel11042418563D

 68 75  0  0  1  0  0  0  0  0999 V2000
  193.9960  171.1050  142.5650 N   0  0  0  0  0  2  0  0  0  0  0  0
  194.5930  171.6280  143.7840 C   0  0  1  0  0  3  0  0  0  0  0  0
  195.7140  170.8400  144.1750 O   0  0  0  0  0  0  0  0  0  0  0  0
  197.1100  171.0960  146.0490 C   0  0  0  0  0  2  0  0  0  0  0  0
  196.8280  171.4010  144.7950 C   0  0  0  0  0  3  0  0  0  0  0  0
  194.9790  173.0900  143.6050 C   0  0  0  0  0  2  0  0  0  0  0  0
  187.7120  176.3170  145.5580 N   0  0  0  0  0  0  0  0  0  0  0  0
  193.7100  174.9470  142.7270 C   0  0  0  0  0  3  0  0  0  0  0  0
  191.0200  175.3010  144.1970 N   0  0  0  0  0  0  0  0  0  0  0  0
  191.5760  174.1820  144.8860 C   0  0  0  0  0  3  0  0  0  0  0  0
  188.8310  175.5430  145.4500 C   0  0  0  0  0  3  0  0  0  0  0  0
  189.7800  175.9120  144.5060 C   0  0  0  0  0  0  0  0  0  0  0  0
  193.7560  173.9450  143.6090 C   0  0  0  0  0  0  0  0  0  0  0  0
  188.4740  177.7810  143.8520 N   0  0  0  0  0  0  0  0  0  0  0  0
  190.6610  177.2330  142.8340 N   0  0  0  0  0  2  0  0  0  0  0  0
  191.5370  176.1430  143.1580 C   0  0  0  0  0  0  0  0  0  0  0  0
  192.6900  175.9800  142.5200 C   0  0  0  0  0  3  0  0  0  0  0  0
  192.7480  173.6120  144.6280 C   0  0  0  0  0  3  0  0  0  0  0  0
  189.5830  177.0120  143.7320 C   0  0  0  0  0  0  0  0  0  0  0  0
  187.5260  177.4290  144.7730 C   0  0  0  0  0  0  0  0  0  0  0  0
  186.2870  178.2710  144.9100 C   0  0  2  0  0  3  0  0  0  0  0  0
  185.9080  179.0390  143.6280 C   0  0  2  0  0  3  0  0  0  0  0  0
  185.2510  180.2420  143.9100 O   0  0  0  0  0  1  0  0  0  0  0  0
  185.1660  178.1960  142.5670 C   0  0  1  0  0  0  0  0  0  0  0  0
  186.6120  177.5200  140.7690 C   0  0  0  0  0  2  0  0  0  0  0  0
  185.6420  178.5920  141.1750 C   0  0  0  0  0  2  0  0  0  0  0  0
  185.5150  176.7880  142.7660 N   0  0  0  0  0  2  0  0  0  0  0  0
  186.1530  176.3140  141.5420 C   0  0  0  0  0  2  0  0  0  0  0  0
  183.6370  178.3260  142.6530 C   0  0  0  0  0  2  0  0  0  0  0  0
  181.5330  178.5190  141.4620 N   0  0  0  0  0  1  0  0  0  0  0  0
  182.9310  178.1600  141.3140 C   0  0  0  0  0  2  0  0  0  0  0  0
  186.2870  179.1140  146.1910 C   0  0  0  0  0  2  0  0  0  0  0  0
  185.1340  178.7710  147.1220 C   0  0  0  0  0  2  0  0  0  0  0  0
  187.0090  178.4460  148.2370 C   0  0  0  0  0  1  0  0  0  0  0  0
  185.6280  178.5410  148.4050 O   0  0  0  0  0  0  0  0  0  0  0  0
  194.5120  171.9300  141.4860 C   0  0  0  0  0  2  0  0  0  0  0  0
  195.6920  173.5200  139.0500 C   0  0  1  0  0  3  0  0  0  0  0  0
  196.0060  172.4680  137.9880 C   0  0  1  0  0  3  0  0  0  0  0  0
  196.5950  173.3390  140.2890 C   0  0  2  0  0  3  0  0  0  0  0  0
  195.3040  171.1710  138.2870 C   0  0  0  0  0  3  0  0  0  0  0  0
  197.9220  174.0670  140.1380 C   0  0  0  0  0  1  0  0  0  0  0  0
  195.6680  171.2220  140.7640 C   0  0  1  0  0  3  0  0  0  0  0  0
  195.1960  170.5750  139.4830 C   0  0  0  0  0  0  0  0  0  0  0  0
  196.8580  171.9810  140.5930 O   0  0  0  0  0  0  0  0  0  0  0  0
  195.6280  172.9100  136.7170 O   0  0  0  0  0  0  0  0  0  0  0  0
  195.3710  171.7420  135.9940 C   0  0  0  0  0  1  0  0  0  0  0  0
  195.7820  174.8210  138.5390 O   0  0  0  0  0  0  0  0  0  0  0  0
  194.4590  175.2540  138.4350 C   0  0  0  0  0  1  0  0  0  0  0  0
  194.5550  169.3270  139.5110 O   0  0  0  0  0  0  0  0  0  0  0  0
  193.2860  168.2920  141.2050 C   0  0  0  0  0  1  0  0  0  0  0  0
  193.2000  169.0850  139.9040 C   0  0  2  0  0  0  0  0  0  0  0  0
  192.5050  168.1900  138.8680 C   0  0  0  0  0  2  0  0  0  0  0  0
  193.0410  168.3390  137.6020 F   0  0  0  0  0  0  0  0  0  0  0  0
  192.5430  170.3390  140.0780 O   0  0  0  0  0  0  0  0  0  0  0  0
  190.2230  170.2250  139.4230 O   0  0  0  0  0  1  0  0  0  0  0  0
  191.6880  171.9860  138.5120 C   0  0  1  0  0  3  0  0  0  0  0  0
  191.5380  170.5910  139.1120 C   0  0  1  0  0  0  0  0  0  0  0  0
  191.9040  170.7410  137.6530 C   0  0  0  0  0  2  0  0  0  0  0  0
  190.3410  172.6560  138.1910 C   0  0  1  0  0  3  0  0  0  0  0  0
  188.4370  173.8260  139.4640 C   0  0  0  0  0  2  0  0  0  0  0  0
  188.0550  172.7880  140.3360 O   0  0  0  0  0  0  0  0  0  0  0  0
  190.1330  172.8560  141.5340 C   0  0  0  0  0  2  0  0  0  0  0  0
  188.6230  173.0820  141.5870 C   0  0  0  0  0  2  0  0  0  0  0  0
  190.7450  173.7880  140.4880 C   0  0  0  0  0  2  0  0  0  0  0  0
  189.9440  173.7800  139.1770 C   0  0  1  0  0  3  0  0  0  0  0  0
  190.1820  174.3950  136.4760 O   0  0  0  0  0  0  0  0  0  0  0  0
  190.1900  173.0020  136.6940 C   0  0  1  0  0  3  0  0  0  0  0  0
  191.3730  173.7160  136.1570 C   0  0  0  0  0  2  0  0  0  0  0  0
  1  2  1  0  0  0  0
  2  6  1  6  0  0  0
  2  3  1  0  0  0  0
  3  5  1  0  0  0  0
  5  4  2  0  0  0  0
  6 13  1  0  0  0  0
  8 13  2  0  0  0  0
  9 12  1  0  0  0  0
  9 10  1  0  0  0  0
 11  7  1  0  0  0  0
 12 11  2  0  0  0  0
 13 18  1  0  0  0  0
 14 20  1  0  0  0  0
 15 16  1  0  0  0  0
 15 19  1  0  0  0  0
 16  9  1  0  0  0  0
 17  8  1  0  0  0  0
 17 16  2  0  0  0  0
 18 10  2  0  0  0  0
 19 14  2  0  0  0  0
 19 12  1  0  0  0  0
 20 21  1  0  0  0  0
 20  7  2  0  0  0  0
 21 32  1  1  0  0  0
 22 23  1  1  0  0  0
 22 21  1  0  0  0  0
 24 29  1  1  0  0  0
 24 27  1  0  0  0  0
 24 22  1  0  0  0  0
 25 26  1  0  0  0  0
 25 28  1  0  0  0  0
 26 24  1  0  0  0  0
 28 27  1  0  0  0  0
 31 30  1  0  0  0  0
 31 29  1  0  0  0  0
 32 33  1  0  0  0  0
 33 35  1  0  0  0  0
 34 35  1  0  0  0  0
 36  1  1  0  0  0  0
 37 47  1  6  0  0  0
 37 39  1  0  0  0  0
 38 45  1  6  0  0  0
 38 40  1  0  0  0  0
 38 37  1  0  0  0  0
 39 41  1  6  0  0  0
 39 44  1  0  0  0  0
 40 43  2  0  0  0  0
 42 36  1  6  0  0  0
 43 49  1  0  0  0  0
 43 42  1  0  0  0  0
 44 42  1  0  0  0  0
 46 45  1  0  0  0  0
 48 47  1  0  0  0  0
 49 51  1  0  0  0  0
 51 54  1  0  0  0  0
 51 50  1  1  0  0  0
 52 51  1  0  0  0  0
 53 52  1  0  0  0  0
 56 59  1  6  0  0  0
 56 57  1  0  0  0  0
 57 55  1  1  0  0  0
 57 54  1  0  0  0  0
 58 56  1  0  0  0  0
 58 57  1  0  0  0  0
 59 67  1  6  0  0  0
 60 61  1  0  0  0  0
 61 63  1  0  0  0  0
 62 63  1  0  0  0  0
 64 62  1  0  0  0  0
 65 59  1  1  0  0  0
 65 60  1  0  0  0  0
 65 64  1  0  0  0  0
 66 67  1  0  0  0  0
 67 68  1  6  0  0  0
 68 66  1  0  0  0  0
M  END
>  <MODEL>
3

>  <REMARK>
 VINA RESULT:      -5.0      2.520      5.428
  Name = 
  25 active torsions:
  status: ('A' for Active; 'I' for Inactive)
    1  A    between atoms: C_1  and  C_12
    2  A    between atoms: C_1  and  C_23
    3  A    between atoms: C_1  and  C_65
    4  A    between atoms: C_2  and  C_8
    5  A    between atoms: C_2  and  C_23
    6  A    between atoms: C_6  and  O_49
    7  A    between atoms: C_8  and  C_67
    8  A    between atoms: C_12  and  C_42
    9  A    between atoms: O_13  and  C_17
   10  A    between atoms: C_14  and  C_39
   11  A    between atoms: N_20  and  C_31
   12  A    between atoms: N_20  and  C_56
   13  A    between atoms: O_24  and  C_25
   14  A    between atoms: O_24  and  C_64
   15  A    between atoms: C_26  and  C_40
   16  A    between atoms: C_26  and  C_56
   17  A    between atoms: C_31  and  C_43
   18  A    between atoms: C_33  and  C_39
   19  A    between atoms: C_38  and  C_64
   20  A    between atoms: C_39  and  C_68
   21  A    between atoms: C_42  and  O_51
   22  A    between atoms: C_48  and  O_63
   23  A    between atoms: C_53  and  O_66
   24  A    between atoms: C_56  and  O_66
   25  A    between atoms: O_63  and  C_64
                            x       y       z     vdW  Elec       q    Type
                         _______ _______ _______ _____ _____    ______ ____

>  <TORSDO>
F 25

$$$$
=
 OpenBabel11042418563D

 68 75  0  0  1  0  0  0  0  0999 V2000
  190.6890  174.2320  143.8250 N   0  0  0  0  0  2  0  0  0  0  0  0
  190.3240  175.6380  143.7620 C   0  0  1  0  0  3  0  0  0  0  0  0
  191.4100  176.4610  144.1820 O   0  0  0  0  0  0  0  0  0  0  0  0
  191.4740  176.4880  146.5310 C   0  0  0  0  0  2  0  0  0  0  0  0
  191.3870  177.1510  145.3910 C   0  0  0  0  0  3  0  0  0  0  0  0
  189.8580  176.0090  142.3610 C   0  0  0  0  0  2  0  0  0  0  0  0
  182.2860  178.2950  140.2420 N   0  0  0  0  0  0  0  0  0  0  0  0
  188.0080  176.9400  143.6030 C   0  0  0  0  0  3  0  0  0  0  0  0
  185.5620  177.4730  141.7990 N   0  0  0  0  0  0  0  0  0  0  0  0
  186.4920  176.9280  140.8640 C   0  0  0  0  0  3  0  0  0  0  0  0
  183.5860  177.8800  140.2650 C   0  0  0  0  0  3  0  0  0  0  0  0
  184.2360  177.8650  141.4920 C   0  0  0  0  0  0  0  0  0  0  0  0
  188.4660  176.5450  142.4120 C   0  0  0  0  0  0  0  0  0  0  0  0
  182.2850  178.6530  142.5880 N   0  0  0  0  0  0  0  0  0  0  0  0
  184.4010  178.1620  143.7730 N   0  0  0  0  0  2  0  0  0  0  0  0
  185.6300  177.6710  143.2170 C   0  0  0  0  0  0  0  0  0  0  0  0
  186.6890  177.4520  143.9880 C   0  0  0  0  0  3  0  0  0  0  0  0
  187.7300  176.5320  141.1380 C   0  0  0  0  0  3  0  0  0  0  0  0
  183.5780  178.2510  142.6180 C   0  0  0  0  0  0  0  0  0  0  0  0
  181.6320  178.6790  141.3880 C   0  0  0  0  0  0  0  0  0  0  0  0
  180.1980  179.1320  141.3410 C   0  0  2  0  0  3  0  0  0  0  0  0
  179.8950  180.1310  140.2060 C   0  0  2  0  0  3  0  0  0  0  0  0
  180.1280  181.4550  140.5960 O   0  0  0  0  0  1  0  0  0  0  0  0
  178.5140  179.9460  139.5370 C   0  0  1  0  0  0  0  0  0  0  0  0
  177.8010  181.9220  138.3670 C   0  0  0  0  0  2  0  0  0  0  0  0
  177.6970  181.2230  139.6920 C   0  0  0  0  0  2  0  0  0  0  0  0
  178.7190  179.7270  138.1040 N   0  0  0  0  0  2  0  0  0  0  0  0
  178.0340  180.8000  137.3920 C   0  0  0  0  0  2  0  0  0  0  0  0
  177.7270  178.7510  140.0970 C   0  0  0  0  0  2  0  0  0  0  0  0
  177.8140  176.3710  140.5570 N   0  0  0  0  0  1  0  0  0  0  0  0
  178.2520  177.4000  139.6320 C   0  0  0  0  0  2  0  0  0  0  0  0
  179.6650  179.5390  142.7200 C   0  0  0  0  0  2  0  0  0  0  0  0
  178.3100  178.9240  143.0330 C   0  0  0  0  0  2  0  0  0  0  0  0
  178.4930  179.3300  145.1930 C   0  0  0  0  0  1  0  0  0  0  0  0
  178.3650  178.2900  144.2740 O   0  0  0  0  0  0  0  0  0  0  0  0
  192.1410  174.2010  143.8370 C   0  0  0  0  0  2  0  0  0  0  0  0
  195.2330  173.6880  143.6480 C   0  0  1  0  0  3  0  0  0  0  0  0
  195.4020  172.1720  143.7190 C   0  0  1  0  0  3  0  0  0  0  0  0
  194.6820  174.2440  144.9790 C   0  0  2  0  0  3  0  0  0  0  0  0
  194.0980  171.4690  143.4510 C   0  0  0  0  0  3  0  0  0  0  0  0
  195.7920  174.5380  145.9760 C   0  0  0  0  0  1  0  0  0  0  0  0
  192.6540  173.0630  144.7340 C   0  0  1  0  0  3  0  0  0  0  0  0
  192.8930  171.8040  143.9330 C   0  0  0  0  0  0  0  0  0  0  0  0
  193.7390  173.3840  145.5930 O   0  0  0  0  0  0  0  0  0  0  0  0
  196.3560  171.7300  142.7980 O   0  0  0  0  0  0  0  0  0  0  0  0
  196.2900  170.3350  142.8560 C   0  0  0  0  0  1  0  0  0  0  0  0
  196.4230  174.3300  143.2810 O   0  0  0  0  0  0  0  0  0  0  0  0
  196.2400  174.6790  141.9420 C   0  0  0  0  0  1  0  0  0  0  0  0
  191.8240  170.9560  143.6050 O   0  0  0  0  0  0  0  0  0  0  0  0
  189.9470  171.4390  142.2660 C   0  0  0  0  0  1  0  0  0  0  0  0
  191.3000  170.7320  142.2920 C   0  0  2  0  0  0  0  0  0  0  0  0
  191.0370  169.2340  142.0800 C   0  0  0  0  0  2  0  0  0  0  0  0
  192.1340  168.4590  142.4090 F   0  0  0  0  0  0  0  0  0  0  0  0
  192.2100  171.2730  141.3370 O   0  0  0  0  0  0  0  0  0  0  0  0
  190.8280  170.2310  139.6550 O   0  0  0  0  0  1  0  0  0  0  0  0
  192.8180  171.5300  139.0000 C   0  0  1  0  0  3  0  0  0  0  0  0
  192.0890  170.6960  140.0490 C   0  0  1  0  0  0  0  0  0  0  0  0
  193.3020  170.1250  139.3520 C   0  0  0  0  0  2  0  0  0  0  0  0
  192.1070  171.5480  137.6370 C   0  0  1  0  0  3  0  0  0  0  0  0
  190.3140  173.3880  137.7630 C   0  0  0  0  0  2  0  0  0  0  0  0
  190.4790  173.9740  136.4930 O   0  0  0  0  0  0  0  0  0  0  0  0
  189.7010  172.0160  135.3460 C   0  0  0  0  0  2  0  0  0  0  0  0
  189.4410  173.4840  135.6840 C   0  0  0  0  0  2  0  0  0  0  0  0
  189.7390  171.2010  136.6390 C   0  0  0  0  0  2  0  0  0  0  0  0
  190.5980  171.8800  137.7170 C   0  0  1  0  0  3  0  0  0  0  0  0
  194.2930  172.1590  136.7200 O   0  0  0  0  0  0  0  0  0  0  0  0
  192.9000  172.3210  136.5610 C   0  0  1  0  0  3  0  0  0  0  0  0
  193.6890  171.4210  135.6860 C   0  0  0  0  0  2  0  0  0  0  0  0
  1 36  1  0  0  0  0
  2  6  1  6  0  0  0
  2  1  1  0  0  0  0
  2  3  1  0  0  0  0
  3  5  1  0  0  0  0
  5  4  2  0  0  0  0
  6 13  1  0  0  0  0
  7 11  1  0  0  0  0
  7 20  2  0  0  0  0
  8 17  1  0  0  0  0
  9 16  1  0  0  0  0
 10 18  2  0  0  0  0
 10  9  1  0  0  0  0
 11 12  2  0  0  0  0
 12  9  1  0  0  0  0
 12 19  1  0  0  0  0
 13  8  2  0  0  0  0
 14 19  2  0  0  0  0
 16 15  1  0  0  0  0
 16 17  2  0  0  0  0
 18 13  1  0  0  0  0
 19 15  1  0  0  0  0
 20 14  1  0  0  0  0
 21 20  1  0  0  0  0
 21 32  1  1  0  0  0
 22 23  1  1  0  0  0
 22 21  1  0  0  0  0
 24 26  1  0  0  0  0
 24 29  1  1  0  0  0
 24 22  1  0  0  0  0
 25 26  1  0  0  0  0
 27 24  1  0  0  0  0
 28 27  1  0  0  0  0
 28 25  1  0  0  0  0
 31 29  1  0  0  0  0
 31 30  1  0  0  0  0
 32 33  1  0  0  0  0
 33 35  1  0  0  0  0
 35 34  1  0  0  0  0
 37 47  1  1  0  0  0
 37 38  1  0  0  0  0
 37 39  1  0  0  0  0
 38 45  1  6  0  0  0
 39 44  1  0  0  0  0
 39 41  1  1  0  0  0
 40 38  1  0  0  0  0
 40 43  2  0  0  0  0
 42 36  1  6  0  0  0
 42 44  1  0  0  0  0
 43 42  1  0  0  0  0
 45 46  1  0  0  0  0
 48 47  1  0  0  0  0
 49 43  1  0  0  0  0
 51 50  1  6  0  0  0
 51 49  1  0  0  0  0
 52 51  1  0  0  0  0
 52 53  1  0  0  0  0
 54 51  1  0  0  0  0
 56 59  1  6  0  0  0
 56 58  1  0  0  0  0
 56 57  1  0  0  0  0
 57 55  1  6  0  0  0
 57 54  1  0  0  0  0
 58 57  1  0  0  0  0
 59 67  1  6  0  0  0
 61 60  1  0  0  0  0
 62 63  1  0  0  0  0
 62 64  1  0  0  0  0
 63 61  1  0  0  0  0
 64 65  1  0  0  0  0
 65 59  1  6  0  0  0
 65 60  1  0  0  0  0
 67 68  1  6  0  0  0
 67 66  1  0  0  0  0
 68 66  1  0  0  0  0
M  END
>  <MODEL>
4

>  <REMARK>
 VINA RESULT:      -4.9      4.439      7.448
  Name = 
  25 active torsions:
  status: ('A' for Active; 'I' for Inactive)
    1  A    between atoms: C_1  and  C_12
    2  A    between atoms: C_1  and  C_23
    3  A    between atoms: C_1  and  C_65
    4  A    between atoms: C_2  and  C_8
    5  A    between atoms: C_2  and  C_23
    6  A    between atoms: C_6  and  O_49
    7  A    between atoms: C_8  and  C_67
    8  A    between atoms: C_12  and  C_42
    9  A    between atoms: O_13  and  C_17
   10  A    between atoms: C_14  and  C_39
   11  A    between atoms: N_20  and  C_31
   12  A    between atoms: N_20  and  C_56
   13  A    between atoms: O_24  and  C_25
   14  A    between atoms: O_24  and  C_64
   15  A    between atoms: C_26  and  C_40
   16  A    between atoms: C_26  and  C_56
   17  A    between atoms: C_31  and  C_43
   18  A    between atoms: C_33  and  C_39
   19  A    between atoms: C_38  and  C_64
   20  A    between atoms: C_39  and  C_68
   21  A    between atoms: C_42  and  O_51
   22  A    between atoms: C_48  and  O_63
   23  A    between atoms: C_53  and  O_66
   24  A    between atoms: C_56  and  O_66
   25  A    between atoms: O_63  and  C_64
                            x       y       z     vdW  Elec       q    Type
                         _______ _______ _______ _____ _____    ______ ____

>  <TORSDO>
F 25

$$$$
=
 OpenBabel11042418563D

 68 75  0  0  1  0  0  0  0  0999 V2000
  196.2100  170.8800  143.5930 N   0  0  0  0  0  2  0  0  0  0  0  0
  195.8190  170.4300  142.2670 C   0  0  1  0  0  3  0  0  0  0  0  0
  196.8350  169.6140  141.6900 O   0  0  0  0  0  0  0  0  0  0  0  0
  196.5880  168.2830  139.7670 C   0  0  0  0  0  2  0  0  0  0  0  0
  196.9410  169.4340  140.3120 C   0  0  0  0  0  3  0  0  0  0  0  0
  194.4850  169.6970  142.3220 C   0  0  0  0  0  2  0  0  0  0  0  0
  189.1060  175.8410  141.7190 N   0  0  0  0  0  0  0  0  0  0  0  0
  192.7010  170.4740  143.7530 C   0  0  0  0  0  3  0  0  0  0  0  0
  191.2720  172.9420  142.5750 N   0  0  0  0  0  0  0  0  0  0  0  0
  192.2480  172.6710  141.5690 C   0  0  0  0  0  3  0  0  0  0  0  0
  190.1350  174.9610  141.5490 C   0  0  0  0  0  3  0  0  0  0  0  0
  190.3070  173.9760  142.5120 C   0  0  0  0  0  0  0  0  0  0  0  0
  193.3860  170.6610  142.6210 C   0  0  0  0  0  0  0  0  0  0  0  0
  188.4380  174.7790  143.7330 N   0  0  0  0  0  0  0  0  0  0  0  0
  189.7890  172.8340  144.4480 N   0  0  0  0  0  2  0  0  0  0  0  0
  190.9250  172.2570  143.7850 C   0  0  0  0  0  0  0  0  0  0  0  0
  191.5490  171.2020  144.2950 C   0  0  0  0  0  3  0  0  0  0  0  0
  193.1450  171.6910  141.5980 C   0  0  0  0  0  3  0  0  0  0  0  0
  189.4630  173.9070  143.5770 C   0  0  0  0  0  0  0  0  0  0  0  0
  188.2590  175.7590  142.7970 C   0  0  0  0  0  0  0  0  0  0  0  0
  187.1290  176.7380  142.9650 C   0  0  2  0  0  3  0  0  0  0  0  0
  186.4530  176.6810  144.3490 C   0  0  2  0  0  3  0  0  0  0  0  0
  185.1200  176.2600  144.2680 O   0  0  0  0  0  1  0  0  0  0  0  0
  186.6170  177.9610  145.2000 C   0  0  1  0  0  0  0  0  0  0  0  0
  185.0050  179.6480  144.6210 C   0  0  0  0  0  2  0  0  0  0  0  0
  186.4020  179.1870  144.3220 C   0  0  0  0  0  2  0  0  0  0  0  0
  185.5750  177.9700  146.2290 N   0  0  0  0  0  2  0  0  0  0  0  0
  184.7650  179.1660  146.0260 C   0  0  0  0  0  2  0  0  0  0  0  0
  187.9820  178.0500  145.8990 C   0  0  0  0  0  2  0  0  0  0  0  0
  189.7340  176.8550  147.0750 N   0  0  0  0  0  1  0  0  0  0  0  0
  188.3250  176.8250  146.7340 C   0  0  0  0  0  2  0  0  0  0  0  0
  186.1620  176.7300  141.7740 C   0  0  0  0  0  2  0  0  0  0  0  0
  186.7460  177.3970  140.5370 C   0  0  0  0  0  2  0  0  0  0  0  0
  186.8780  177.4050  138.3360 C   0  0  0  0  0  1  0  0  0  0  0  0
  186.4350  176.6370  139.4110 O   0  0  0  0  0  0  0  0  0  0  0  0
  195.4490  172.0940  143.8380 C   0  0  0  0  0  2  0  0  0  0  0  0
  194.0820  174.8290  144.5500 C   0  0  1  0  0  3  0  0  0  0  0  0
  194.3750  175.7530  143.3690 C   0  0  1  0  0  3  0  0  0  0  0  0
  195.3820  174.4650  145.2990 C   0  0  2  0  0  3  0  0  0  0  0  0
  194.8250  174.9680  142.1670 C   0  0  0  0  0  3  0  0  0  0  0  0
  195.7400  175.4990  146.3560 C   0  0  0  0  0  1  0  0  0  0  0  0
  196.2530  173.3350  143.4190 C   0  0  1  0  0  3  0  0  0  0  0  0
  195.6930  173.9450  142.1560 C   0  0  0  0  0  0  0  0  0  0  0  0
  196.4940  174.2970  144.4370 O   0  0  0  0  0  0  0  0  0  0  0  0
  193.2460  176.5030  143.0270 O   0  0  0  0  0  0  0  0  0  0  0  0
  193.3800  176.7470  141.6580 C   0  0  0  0  0  1  0  0  0  0  0  0
  193.1300  175.3770  145.4180 O   0  0  0  0  0  0  0  0  0  0  0  0
  192.5550  174.2770  146.0560 C   0  0  0  0  0  1  0  0  0  0  0  0
  196.0200  173.4090  140.9010 O   0  0  0  0  0  0  0  0  0  0  0  0
  197.9410  172.8920  139.6380 C   0  0  0  0  0  1  0  0  0  0  0  0
  196.9210  173.9840  139.9490 C   0  0  2  0  0  0  0  0  0  0  0  0
  197.6850  175.1530  140.5880 C   0  0  0  0  0  2  0  0  0  0  0  0
  197.1130  176.3770  140.2920 F   0  0  0  0  0  0  0  0  0  0  0  0
  196.1800  174.3750  138.7960 O   0  0  0  0  0  0  0  0  0  0  0  0
  193.7820  174.3230  139.0640 O   0  0  0  0  0  1  0  0  0  0  0  0
  194.8630  173.0100  137.2800 C   0  0  1  0  0  3  0  0  0  0  0  0
  194.9540  173.6810  138.6470 C   0  0  1  0  0  0  0  0  0  0  0  0
  194.9390  172.1730  138.5560 C   0  0  0  0  0  2  0  0  0  0  0  0
  193.4390  173.0080  136.6990 C   0  0  1  0  0  3  0  0  0  0  0  0
  192.3300  175.0970  135.6880 C   0  0  0  0  0  2  0  0  0  0  0  0
  192.9680  176.0990  136.4440 O   0  0  0  0  0  0  0  0  0  0  0  0
  195.1150  175.6440  135.4740 C   0  0  0  0  0  2  0  0  0  0  0  0
  193.9710  176.6460  135.6260 C   0  0  0  0  0  2  0  0  0  0  0  0
  194.5860  174.3710  134.8140 C   0  0  0  0  0  2  0  0  0  0  0  0
  193.2670  173.9040  135.4500 C   0  0  1  0  0  3  0  0  0  0  0  0
  192.0250  171.4530  135.4440 O   0  0  0  0  0  0  0  0  0  0  0  0
  192.8440  171.5880  136.5840 C   0  0  1  0  0  3  0  0  0  0  0  0
  193.3070  170.8780  135.3680 C   0  0  0  0  0  2  0  0  0  0  0  0
  1 36  1  0  0  0  0
  2  6  1  1  0  0  0
  2  1  1  0  0  0  0
  3  2  1  0  0  0  0
  4  5  2  0  0  0  0
  5  3  1  0  0  0  0
  6 13  1  0  0  0  0
  7 20  2  0  0  0  0
  8 17  1  0  0  0  0
  9 16  1  0  0  0  0
 10 18  2  0  0  0  0
 10  9  1  0  0  0  0
 11  7  1  0  0  0  0
 11 12  2  0  0  0  0
 12  9  1  0  0  0  0
 12 19  1  0  0  0  0
 13  8  2  0  0  0  0
 16 17  2  0  0  0  0
 16 15  1  0  0  0  0
 18 13  1  0  0  0  0
 19 14  2  0  0  0  0
 19 15  1  0  0  0  0
 20 21  1  0  0  0  0
 20 14  1  0  0  0  0
 21 32  1  6  0  0  0
 21 22  1  0  0  0  0
 22 23  1  6  0  0  0
 22 24  1  0  0  0  0
 24 29  1  1  0  0  0
 24 27  1  0  0  0  0
 25 28  1  0  0  0  0
 26 25  1  0  0  0  0
 26 24  1  0  0  0  0
 28 27  1  0  0  0  0
 29 31  1  0  0  0  0
 31 30  1  0  0  0  0
 33 32  1  0  0  0  0
 34 35  1  0  0  0  0
 35 33  1  0  0  0  0
 37 39  1  0  0  0  0
 37 47  1  1  0  0  0
 38 45  1  6  0  0  0
 38 37  1  0  0  0  0
 39 41  1  1  0  0  0
 40 38  1  0  0  0  0
 42 36  1  1  0  0  0
 42 44  1  0  0  0  0
 43 40  2  0  0  0  0
 43 42  1  0  0  0  0
 44 39  1  0  0  0  0
 46 45  1  0  0  0  0
 47 48  1  0  0  0  0
 49 43  1  0  0  0  0
 51 50  1  6  0  0  0
 51 52  1  0  0  0  0
 51 49  1  0  0  0  0
 53 52  1  0  0  0  0
 54 51  1  0  0  0  0
 56 59  1  1  0  0  0
 56 58  1  0  0  0  0
 56 57  1  0  0  0  0
 57 54  1  0  0  0  0
 57 55  1  1  0  0  0
 58 57  1  0  0  0  0
 59 65  1  6  0  0  0
 60 61  1  0  0  0  0
 62 63  1  0  0  0  0
 63 61  1  0  0  0  0
 64 62  1  0  0  0  0
 65 64  1  1  0  0  0
 65 60  1  0  0  0  0
 66 67  1  0  0  0  0
 67 59  1  6  0  0  0
 68 66  1  0  0  0  0
 68 67  1  0  0  0  0
M  END
>  <MODEL>
5

>  <REMARK>
 VINA RESULT:      -3.7      1.461      2.163
  Name = 
  25 active torsions:
  status: ('A' for Active; 'I' for Inactive)
    1  A    between atoms: C_1  and  C_12
    2  A    between atoms: C_1  and  C_23
    3  A    between atoms: C_1  and  C_65
    4  A    between atoms: C_2  and  C_8
    5  A    between atoms: C_2  and  C_23
    6  A    between atoms: C_6  and  O_49
    7  A    between atoms: C_8  and  C_67
    8  A    between atoms: C_12  and  C_42
    9  A    between atoms: O_13  and  C_17
   10  A    between atoms: C_14  and  C_39
   11  A    between atoms: N_20  and  C_31
   12  A    between atoms: N_20  and  C_56
   13  A    between atoms: O_24  and  C_25
   14  A    between atoms: O_24  and  C_64
   15  A    between atoms: C_26  and  C_40
   16  A    between atoms: C_26  and  C_56
   17  A    between atoms: C_31  and  C_43
   18  A    between atoms: C_33  and  C_39
   19  A    between atoms: C_38  and  C_64
   20  A    between atoms: C_39  and  C_68
   21  A    between atoms: C_42  and  O_51
   22  A    between atoms: C_48  and  O_63
   23  A    between atoms: C_53  and  O_66
   24  A    between atoms: C_56  and  O_66
   25  A    between atoms: O_63  and  C_64
                            x       y       z     vdW  Elec       q    Type
                         _______ _______ _______ _____ _____    ______ ____

>  <TORSDO>
F 25

$$$$
=
 OpenBabel11042418563D

 68 75  0  0  1  0  0  0  0  0999 V2000
  191.1530  174.2780  144.3020 N   0  0  0  0  0  2  0  0  0  0  0  0
  190.7470  175.6490  144.0370 C   0  0  1  0  0  3  0  0  0  0  0  0
  191.8270  176.5500  144.2700 O   0  0  0  0  0  0  0  0  0  0  0  0
  191.2320  178.8160  144.0710 C   0  0  0  0  0  2  0  0  0  0  0  0
  191.6270  177.8090  144.8320 C   0  0  0  0  0  3  0  0  0  0  0  0
  190.2110  175.7840  142.6180 C   0  0  0  0  0  2  0  0  0  0  0  0
  182.7400  178.2370  140.3330 N   0  0  0  0  0  0  0  0  0  0  0  0
  188.2580  176.4900  143.8500 C   0  0  0  0  0  3  0  0  0  0  0  0
  185.9250  177.2460  141.9780 N   0  0  0  0  0  0  0  0  0  0  0  0
  186.9300  176.8610  141.0400 C   0  0  0  0  0  3  0  0  0  0  0  0
  184.0460  177.8430  140.3870 C   0  0  0  0  0  3  0  0  0  0  0  0
  184.6130  177.6570  141.6400 C   0  0  0  0  0  0  0  0  0  0  0  0
  188.8050  176.2840  142.6500 C   0  0  0  0  0  0  0  0  0  0  0  0
  182.5730  178.2420  142.7010 N   0  0  0  0  0  0  0  0  0  0  0  0
  184.6170  177.6150  143.9460 N   0  0  0  0  0  2  0  0  0  0  0  0
  185.8940  177.2320  143.4110 C   0  0  0  0  0  0  0  0  0  0  0  0
  186.9030  176.9180  144.2140 C   0  0  0  0  0  3  0  0  0  0  0  0
  188.1570  176.4480  141.3390 C   0  0  0  0  0  3  0  0  0  0  0  0
  183.8720  177.8610  142.7620 C   0  0  0  0  0  0  0  0  0  0  0  0
  182.0010  178.4350  141.4740 C   0  0  0  0  0  0  0  0  0  0  0  0
  180.5620  178.8670  141.3940 C   0  0  2  0  0  3  0  0  0  0  0  0
  180.2560  179.8070  140.2110 C   0  0  2  0  0  3  0  0  0  0  0  0
  180.7620  181.0960  140.4190 O   0  0  0  0  0  1  0  0  0  0  0  0
  178.7770  179.8190  139.7640 C   0  0  1  0  0  0  0  0  0  0  0  0
  177.8660  182.0430  139.6950 C   0  0  0  0  0  2  0  0  0  0  0  0
  178.0030  180.8410  140.5850 C   0  0  0  0  0  2  0  0  0  0  0  0
  178.7200  180.2470  138.3640 N   0  0  0  0  0  2  0  0  0  0  0  0
  177.9190  181.4640  138.3070 C   0  0  0  0  0  2  0  0  0  0  0  0
  178.1030  178.4430  139.8710 C   0  0  0  0  0  2  0  0  0  0  0  0
  178.0570  176.1350  139.1270 N   0  0  0  0  0  1  0  0  0  0  0  0
  178.8880  177.3210  139.2060 C   0  0  0  0  0  2  0  0  0  0  0  0
  180.0130  179.3330  142.7480 C   0  0  0  0  0  2  0  0  0  0  0  0
  179.2460  178.2410  143.4800 C   0  0  0  0  0  2  0  0  0  0  0  0
  177.9920  179.4780  144.8070 C   0  0  0  0  0  1  0  0  0  0  0  0
  177.9310  178.6560  143.6830 O   0  0  0  0  0  0  0  0  0  0  0  0
  192.5910  174.3250  144.5070 C   0  0  0  0  0  2  0  0  0  0  0  0
  195.5990  173.6270  143.9370 C   0  0  1  0  0  3  0  0  0  0  0  0
  195.6450  172.1070  143.7890 C   0  0  1  0  0  3  0  0  0  0  0  0
  195.2200  174.0290  145.3780 C   0  0  2  0  0  3  0  0  0  0  0  0
  194.2690  171.5430  143.5640 C   0  0  0  0  0  3  0  0  0  0  0  0
  196.4370  174.1010  146.2880 C   0  0  0  0  0  1  0  0  0  0  0  0
  193.0860  173.0390  145.1870 C   0  0  1  0  0  3  0  0  0  0  0  0
  193.1450  171.8910  144.2070 C   0  0  0  0  0  0  0  0  0  0  0  0
  194.2680  173.1600  145.9670 O   0  0  0  0  0  0  0  0  0  0  0  0
  196.4710  171.7320  142.7250 O   0  0  0  0  0  0  0  0  0  0  0  0
  196.8310  170.4100  143.0000 C   0  0  0  0  0  1  0  0  0  0  0  0
  196.7990  174.2280  143.5380 O   0  0  0  0  0  0  0  0  0  0  0  0
  196.4250  175.4800  143.0500 C   0  0  0  0  0  1  0  0  0  0  0  0
  191.9830  171.1750  143.8800 O   0  0  0  0  0  0  0  0  0  0  0  0
  190.1750  171.3850  142.3830 C   0  0  0  0  0  1  0  0  0  0  0  0
  191.5720  170.7940  142.5630 C   0  0  2  0  0  0  0  0  0  0  0  0
  191.4360  169.2670  142.4760 C   0  0  0  0  0  2  0  0  0  0  0  0
  192.6610  168.6290  142.5310 F   0  0  0  0  0  0  0  0  0  0  0  0
  192.5050  171.3190  141.6220 O   0  0  0  0  0  0  0  0  0  0  0  0
  192.4910  173.6610  141.0440 O   0  0  0  0  0  1  0  0  0  0  0  0
  191.8700  171.9640  139.3690 C   0  0  1  0  0  3  0  0  0  0  0  0
  191.9840  172.3740  140.8340 C   0  0  1  0  0  0  0  0  0  0  0  0
  190.6190  172.2470  140.1980 C   0  0  0  0  0  2  0  0  0  0  0  0
  192.1620  173.1150  138.3920 C   0  0  1  0  0  3  0  0  0  0  0  0
  194.7180  173.3930  138.3390 C   0  0  0  0  0  2  0  0  0  0  0  0
  195.0840  172.4540  139.3220 O   0  0  0  0  0  0  0  0  0  0  0  0
  194.3390  170.5930  138.0050 C   0  0  0  0  0  2  0  0  0  0  0  0
  195.5290  171.3090  138.6410 C   0  0  0  0  0  2  0  0  0  0  0  0
  193.6670  171.5280  137.0000 C   0  0  0  0  0  2  0  0  0  0  0  0
  193.4650  172.9370  137.5780 C   0  0  1  0  0  3  0  0  0  0  0  0
  191.2090  173.6350  136.1980 O   0  0  0  0  0  0  0  0  0  0  0  0
  190.9200  173.5320  137.5750 C   0  0  1  0  0  3  0  0  0  0  0  0
  190.5040  172.4880  136.6070 C   0  0  0  0  0  2  0  0  0  0  0  0
  1 36  1  0  0  0  0
  2  6  1  6  0  0  0
  2  3  1  0  0  0  0
  2  1  1  0  0  0  0
  3  5  1  0  0  0  0
  4  5  2  0  0  0  0
  6 13  1  0  0  0  0
  7 11  1  0  0  0  0
  7 20  2  0  0  0  0
  8 17  1  0  0  0  0
  9 16  1  0  0  0  0
 10 18  2  0  0  0  0
 10  9  1  0  0  0  0
 11 12  2  0  0  0  0
 12  9  1  0  0  0  0
 12 19  1  0  0  0  0
 13  8  2  0  0  0  0
 14 19  2  0  0  0  0
 16 15  1  0  0  0  0
 16 17  2  0  0  0  0
 18 13  1  0  0  0  0
 19 15  1  0  0  0  0
 20 14  1  0  0  0  0
 21 20  1  0  0  0  0
 21 32  1  1  0  0  0
 22 23  1  1  0  0  0
 22 21  1  0  0  0  0
 24 29  1  1  0  0  0
 24 22  1  0  0  0  0
 24 26  1  0  0  0  0
 25 26  1  0  0  0  0
 27 24  1  0  0  0  0
 28 27  1  0  0  0  0
 28 25  1  0  0  0  0
 30 31  1  0  0  0  0
 31 29  1  0  0  0  0
 32 33  1  0  0  0  0
 33 35  1  0  0  0  0
 35 34  1  0  0  0  0
 37 47  1  1  0  0  0
 37 39  1  0  0  0  0
 38 45  1  6  0  0  0
 38 37  1  0  0  0  0
 39 44  1  0  0  0  0
 39 41  1  1  0  0  0
 40 38  1  0  0  0  0
 40 43  2  0  0  0  0
 42 36  1  6  0  0  0
 42 44  1  0  0  0  0
 43 42  1  0  0  0  0
 45 46  1  0  0  0  0
 48 47  1  0  0  0  0
 49 43  1  0  0  0  0
 51 50  1  6  0  0  0
 51 49  1  0  0  0  0
 52 53  1  0  0  0  0
 52 51  1  0  0  0  0
 54 51  1  0  0  0  0
 56 59  1  6  0  0  0
 56 58  1  0  0  0  0
 56 57  1  0  0  0  0
 57 55  1  1  0  0  0
 57 54  1  0  0  0  0
 58 57  1  0  0  0  0
 59 67  1  6  0  0  0
 60 61  1  0  0  0  0
 62 63  1  0  0  0  0
 63 61  1  0  0  0  0
 64 65  1  0  0  0  0
 64 62  1  0  0  0  0
 65 60  1  0  0  0  0
 65 59  1  1  0  0  0
 66 68  1  0  0  0  0
 66 67  1  0  0  0  0
 67 68  1  6  0  0  0
M  END
>  <MODEL>
6

>  <REMARK>
 VINA RESULT:      -3.7      4.279      7.312
  Name = 
  25 active torsions:
  status: ('A' for Active; 'I' for Inactive)
    1  A    between atoms: C_1  and  C_12
    2  A    between atoms: C_1  and  C_23
    3  A    between atoms: C_1  and  C_65
    4  A    between atoms: C_2  and  C_8
    5  A    between atoms: C_2  and  C_23
    6  A    between atoms: C_6  and  O_49
    7  A    between atoms: C_8  and  C_67
    8  A    between atoms: C_12  and  C_42
    9  A    between atoms: O_13  and  C_17
   10  A    between atoms: C_14  and  C_39
   11  A    between atoms: N_20  and  C_31
   12  A    between atoms: N_20  and  C_56
   13  A    between atoms: O_24  and  C_25
   14  A    between atoms: O_24  and  C_64
   15  A    between atoms: C_26  and  C_40
   16  A    between atoms: C_26  and  C_56
   17  A    between atoms: C_31  and  C_43
   18  A    between atoms: C_33  and  C_39
   19  A    between atoms: C_38  and  C_64
   20  A    between atoms: C_39  and  C_68
   21  A    between atoms: C_42  and  O_51
   22  A    between atoms: C_48  and  O_63
   23  A    between atoms: C_53  and  O_66
   24  A    between atoms: C_56  and  O_66
   25  A    between atoms: O_63  and  C_64
                            x       y       z     vdW  Elec       q    Type
                         _______ _______ _______ _____ _____    ______ ____

>  <TORSDO>
F 25

$$$$
=
 OpenBabel11042418563D

 68 75  0  0  1  0  0  0  0  0999 V2000
  194.6430  171.6020  140.8180 N   0  0  0  0  0  2  0  0  0  0  0  0
  193.5600  171.8410  139.8770 C   0  0  1  0  0  3  0  0  0  0  0  0
  193.9770  171.5580  138.5440 O   0  0  0  0  0  0  0  0  0  0  0  0
  193.1570  171.7630  136.3500 C   0  0  0  0  0  2  0  0  0  0  0  0
  193.5720  172.3400  137.4650 C   0  0  0  0  0  3  0  0  0  0  0  0
  192.3310  171.0270  140.2580 C   0  0  0  0  0  2  0  0  0  0  0  0
  187.9620  177.7250  142.0190 N   0  0  0  0  0  0  0  0  0  0  0  0
  190.1360  171.3620  141.2070 C   0  0  0  0  0  3  0  0  0  0  0  0
  189.4430  174.3560  141.4780 N   0  0  0  0  0  0  0  0  0  0  0  0
  190.7450  174.4170  140.8970 C   0  0  0  0  0  3  0  0  0  0  0  0
  188.9310  176.8310  141.6650 C   0  0  0  0  0  3  0  0  0  0  0  0
  188.6360  175.4800  141.7830 C   0  0  0  0  0  0  0  0  0  0  0  0
  191.2460  171.9350  140.7340 C   0  0  0  0  0  0  0  0  0  0  0  0
  186.4550  175.9770  142.5730 N   0  0  0  0  0  0  0  0  0  0  0  0
  187.2960  173.6690  142.2780 N   0  0  0  0  0  2  0  0  0  0  0  0
  188.5840  173.2540  141.7970 C   0  0  0  0  0  0  0  0  0  0  0  0
  188.8900  171.9660  141.6910 C   0  0  0  0  0  3  0  0  0  0  0  0
  191.5060  173.3750  140.5810 C   0  0  0  0  0  3  0  0  0  0  0  0
  187.4150  175.0840  142.2320 C   0  0  0  0  0  0  0  0  0  0  0  0
  186.7310  177.3110  142.4680 C   0  0  0  0  0  0  0  0  0  0  0  0
  185.6750  178.3120  142.8510 C   0  0  2  0  0  3  0  0  0  0  0  0
  184.7950  177.8690  144.0370 C   0  0  2  0  0  3  0  0  0  0  0  0
  183.5790  178.5610  144.0770 O   0  0  0  0  0  1  0  0  0  0  0  0
  185.5130  177.8590  145.4050 C   0  0  1  0  0  0  0  0  0  0  0  0
  187.0780  176.0440  145.5960 C   0  0  0  0  0  2  0  0  0  0  0  0
  185.6560  176.4250  145.8960 C   0  0  0  0  0  2  0  0  0  0  0  0
  186.8630  178.3980  145.2240 N   0  0  0  0  0  2  0  0  0  0  0  0
  187.8090  177.3590  145.6150 C   0  0  0  0  0  2  0  0  0  0  0  0
  184.7980  178.7070  146.4690 C   0  0  0  0  0  2  0  0  0  0  0  0
  186.3440  179.7290  148.0340 N   0  0  0  0  0  1  0  0  0  0  0  0
  185.4300  178.6170  147.8510 C   0  0  0  0  0  2  0  0  0  0  0  0
  184.9030  178.8460  141.6380 C   0  0  0  0  0  2  0  0  0  0  0  0
  183.6950  177.9910  141.2860 C   0  0  0  0  0  2  0  0  0  0  0  0
  185.0620  178.0030  139.5560 C   0  0  0  0  0  1  0  0  0  0  0  0
  183.8270  177.5180  139.9820 O   0  0  0  0  0  0  0  0  0  0  0  0
  195.8440  171.4630  140.0110 C   0  0  0  0  0  2  0  0  0  0  0  0
  195.5430  170.1220  142.8340 C   0  0  1  0  0  3  0  0  0  0  0  0
  196.3060  171.0270  143.8000 C   0  0  1  0  0  3  0  0  0  0  0  0
  196.5060  169.4570  141.8260 C   0  0  2  0  0  3  0  0  0  0  0  0
  196.5660  172.3760  143.1860 C   0  0  0  0  0  3  0  0  0  0  0  0
  197.0990  168.1670  142.3720 C   0  0  0  0  0  1  0  0  0  0  0  0
  197.1030  171.5380  140.8890 C   0  0  1  0  0  3  0  0  0  0  0  0
  196.9740  172.6220  141.9330 C   0  0  0  0  0  0  0  0  0  0  0  0
  197.5660  170.3070  141.4240 O   0  0  0  0  0  0  0  0  0  0  0  0
  195.5970  171.1970  144.9930 O   0  0  0  0  0  0  0  0  0  0  0  0
  196.2420  172.2510  145.6450 C   0  0  0  0  0  1  0  0  0  0  0  0
  194.7730  169.1680  143.5090 O   0  0  0  0  0  0  0  0  0  0  0  0
  193.4630  169.4090  143.0930 C   0  0  0  0  0  1  0  0  0  0  0  0
  197.2230  173.9620  141.6020 O   0  0  0  0  0  0  0  0  0  0  0  0
  195.2800  174.7740  140.5430 C   0  0  0  0  0  1  0  0  0  0  0  0
  196.2770  175.0350  141.6690 C   0  0  2  0  0  0  0  0  0  0  0  0
  196.9730  176.3690  141.3620 C   0  0  0  0  0  2  0  0  0  0  0  0
  196.0690  177.3950  141.1520 F   0  0  0  0  0  0  0  0  0  0  0  0
  195.6580  175.0200  142.9540 O   0  0  0  0  0  0  0  0  0  0  0  0
  193.5840  173.8260  143.2610 O   0  0  0  0  0  1  0  0  0  0  0  0
  193.6560  176.2760  143.5110 C   0  0  1  0  0  3  0  0  0  0  0  0
  194.2430  175.0070  142.9010 C   0  0  1  0  0  0  0  0  0  0  0  0
  193.5040  175.9870  142.0190 C   0  0  0  0  0  2  0  0  0  0  0  0
  192.3360  176.0350  144.2610 C   0  0  1  0  0  3  0  0  0  0  0  0
  193.2420  175.6450  146.6360 C   0  0  0  0  0  2  0  0  0  0  0  0
  192.4630  176.5770  147.3480 O   0  0  0  0  0  0  0  0  0  0  0  0
  190.4250  175.3790  146.9390 C   0  0  0  0  0  2  0  0  0  0  0  0
  191.4400  175.8490  147.9800 C   0  0  0  0  0  2  0  0  0  0  0  0
  191.1230  174.4660  145.9310 C   0  0  0  0  0  2  0  0  0  0  0  0
  192.4580  175.0580  145.4540 C   0  0  1  0  0  3  0  0  0  0  0  0
  192.1420  178.4460  143.8870 O   0  0  0  0  0  0  0  0  0  0  0  0
  191.5670  177.3420  144.5500 C   0  0  1  0  0  3  0  0  0  0  0  0
  190.9620  177.9240  143.3280 C   0  0  0  0  0  2  0  0  0  0  0  0
  2  6  1  1  0  0  0
  2  1  1  0  0  0  0
  3  2  1  0  0  0  0
  4  5  2  0  0  0  0
  5  3  1  0  0  0  0
  6 13  1  0  0  0  0
  7 20  2  0  0  0  0
  8 17  1  0  0  0  0
  9 12  1  0  0  0  0
  9 16  1  0  0  0  0
 10  9  1  0  0  0  0
 11 12  2  0  0  0  0
 11  7  1  0  0  0  0
 12 19  1  0  0  0  0
 13  8  2  0  0  0  0
 16 15  1  0  0  0  0
 17 16  2  0  0  0  0
 18 13  1  0  0  0  0
 18 10  2  0  0  0  0
 19 15  1  0  0  0  0
 19 14  2  0  0  0  0
 20 14  1  0  0  0  0
 20 21  1  0  0  0  0
 21 32  1  6  0  0  0
 21 22  1  0  0  0  0
 22 23  1  1  0  0  0
 22 24  1  0  0  0  0
 24 26  1  0  0  0  0
 24 29  1  1  0  0  0
 25 28  1  0  0  0  0
 25 26  1  0  0  0  0
 27 24  1  0  0  0  0
 27 28  1  0  0  0  0
 29 31  1  0  0  0  0
 31 30  1  0  0  0  0
 33 32  1  0  0  0  0
 34 35  1  0  0  0  0
 35 33  1  0  0  0  0
 36  1  1  0  0  0  0
 37 47  1  1  0  0  0
 37 38  1  0  0  0  0
 38 45  1  1  0  0  0
 39 41  1  1  0  0  0
 39 37  1  0  0  0  0
 40 38  1  0  0  0  0
 42 36  1  1  0  0  0
 42 44  1  0  0  0  0
 42 43  1  0  0  0  0
 43 40  2  0  0  0  0
 44 39  1  0  0  0  0
 45 46  1  0  0  0  0
 48 47  1  0  0  0  0
 49 51  1  0  0  0  0
 49 43  1  0  0  0  0
 51 50  1  6  0  0  0
 51 54  1  0  0  0  0
 52 51  1  0  0  0  0
 53 52  1  0  0  0  0
 56 59  1  1  0  0  0
 57 54  1  0  0  0  0
 57 55  1  1  0  0  0
 57 56  1  0  0  0  0
 58 57  1  0  0  0  0
 58 56  1  0  0  0  0
 59 67  1  1  0  0  0
 60 61  1  0  0  0  0
 61 63  1  0  0  0  0
 62 63  1  0  0  0  0
 64 62  1  0  0  0  0
 65 59  1  6  0  0  0
 65 64  1  0  0  0  0
 65 60  1  0  0  0  0
 66 67  1  0  0  0  0
 67 68  1  6  0  0  0
 68 66  1  0  0  0  0
M  END
>  <MODEL>
7

>  <REMARK>
 VINA RESULT:      -3.6      2.386      5.131
  Name = 
  25 active torsions:
  status: ('A' for Active; 'I' for Inactive)
    1  A    between atoms: C_1  and  C_12
    2  A    between atoms: C_1  and  C_23
    3  A    between atoms: C_1  and  C_65
    4  A    between atoms: C_2  and  C_8
    5  A    between atoms: C_2  and  C_23
    6  A    between atoms: C_6  and  O_49
    7  A    between atoms: C_8  and  C_67
    8  A    between atoms: C_12  and  C_42
    9  A    between atoms: O_13  and  C_17
   10  A    between atoms: C_14  and  C_39
   11  A    between atoms: N_20  and  C_31
   12  A    between atoms: N_20  and  C_56
   13  A    between atoms: O_24  and  C_25
   14  A    between atoms: O_24  and  C_64
   15  A    between atoms: C_26  and  C_40
   16  A    between atoms: C_26  and  C_56
   17  A    between atoms: C_31  and  C_43
   18  A    between atoms: C_33  and  C_39
   19  A    between atoms: C_38  and  C_64
   20  A    between atoms: C_39  and  C_68
   21  A    between atoms: C_42  and  O_51
   22  A    between atoms: C_48  and  O_63
   23  A    between atoms: C_53  and  O_66
   24  A    between atoms: C_56  and  O_66
   25  A    between atoms: O_63  and  C_64
                            x       y       z     vdW  Elec       q    Type
                         _______ _______ _______ _____ _____    ______ ____

>  <TORSDO>
F 25

$$$$
=
 OpenBabel11042418563D

 68 75  0  0  1  0  0  0  0  0999 V2000
  191.4620  175.5690  142.3930 N   0  0  0  0  0  2  0  0  0  0  0  0
  190.0390  175.8650  142.3420 C   0  0  1  0  0  3  0  0  0  0  0  0
  189.2970  174.9080  143.0930 O   0  0  0  0  0  0  0  0  0  0  0  0
  187.4660  173.9820  141.9450 C   0  0  0  0  0  2  0  0  0  0  0  0
  188.6630  173.8270  142.4850 C   0  0  0  0  0  3  0  0  0  0  0  0
  189.7700  177.2830  142.8290 C   0  0  0  0  0  2  0  0  0  0  0  0
  182.1930  178.4840  139.9680 N   0  0  0  0  0  0  0  0  0  0  0  0
  187.6660  177.7980  143.8970 C   0  0  0  0  0  3  0  0  0  0  0  0
  185.3740  178.0760  141.8510 N   0  0  0  0  0  0  0  0  0  0  0  0
  186.4780  177.7670  141.0010 C   0  0  0  0  0  3  0  0  0  0  0  0
  183.5340  178.2830  140.1210 C   0  0  0  0  0  3  0  0  0  0  0  0
  184.0410  178.2730  141.4130 C   0  0  0  0  0  0  0  0  0  0  0  0
  188.3100  177.5810  142.7470 C   0  0  0  0  0  0  0  0  0  0  0  0
  181.8790  178.6440  142.3150 N   0  0  0  0  0  0  0  0  0  0  0  0
  183.9070  178.4040  143.7120 N   0  0  0  0  0  2  0  0  0  0  0  0
  185.2550  178.1660  143.2770 C   0  0  0  0  0  0  0  0  0  0  0  0
  186.2460  178.0580  144.1540 C   0  0  0  0  0  3  0  0  0  0  0  0
  187.7290  177.5540  141.3960 C   0  0  0  0  0  3  0  0  0  0  0  0
  183.2110  178.4540  142.4750 C   0  0  0  0  0  0  0  0  0  0  0  0
  181.3640  178.6620  141.0490 C   0  0  0  0  0  0  0  0  0  0  0  0
  179.8870  178.8800  140.8600 C   0  0  2  0  0  3  0  0  0  0  0  0
  179.4280  180.3250  141.1390 C   0  0  2  0  0  3  0  0  0  0  0  0
  178.8040  180.4480  142.3860 O   0  0  0  0  0  1  0  0  0  0  0  0
  178.6050  180.9700  140.0010 C   0  0  1  0  0  0  0  0  0  0  0  0
  178.4150  183.3540  140.2560 C   0  0  0  0  0  2  0  0  0  0  0  0
  177.7130  182.0650  140.5730 C   0  0  0  0  0  2  0  0  0  0  0  0
  179.5320  181.6060  139.0610 N   0  0  0  0  0  2  0  0  0  0  0  0
  179.2130  183.0290  139.0230 C   0  0  0  0  0  2  0  0  0  0  0  0
  177.7540  179.9560  139.2210 C   0  0  0  0  0  2  0  0  0  0  0  0
  178.5950  178.7630  137.2850 N   0  0  0  0  0  1  0  0  0  0  0  0
  177.9730  180.0010  137.7150 C   0  0  0  0  0  2  0  0  0  0  0  0
  179.0410  177.7920  141.5340 C   0  0  0  0  0  2  0  0  0  0  0  0
  179.0770  177.8750  143.0520 C   0  0  0  0  0  2  0  0  0  0  0  0
  177.9480  178.2300  144.9130 C   0  0  0  0  0  1  0  0  0  0  0  0
  177.8160  178.2320  143.5260 O   0  0  0  0  0  0  0  0  0  0  0  0
  191.9110  176.0120  143.7020 C   0  0  0  0  0  2  0  0  0  0  0  0
  194.9510  175.5190  144.3150 C   0  0  1  0  0  3  0  0  0  0  0  0
  195.1260  174.0010  144.3190 C   0  0  1  0  0  3  0  0  0  0  0  0
  194.0510  175.9720  145.4850 C   0  0  2  0  0  3  0  0  0  0  0  0
  193.9580  173.3200  143.6600 C   0  0  0  0  0  3  0  0  0  0  0  0
  194.8460  176.1920  146.7630 C   0  0  0  0  0  1  0  0  0  0  0  0
  192.1890  174.8100  144.6190 C   0  0  1  0  0  3  0  0  0  0  0  0
  192.6610  173.6160  143.8230 C   0  0  0  0  0  0  0  0  0  0  0  0
  192.9960  175.0680  145.7590 O   0  0  0  0  0  0  0  0  0  0  0  0
  196.3020  173.6310  143.6600 O   0  0  0  0  0  0  0  0  0  0  0  0
  195.8720  173.0040  142.4870 C   0  0  0  0  0  1  0  0  0  0  0  0
  196.1810  176.1870  144.3290 O   0  0  0  0  0  0  0  0  0  0  0  0
  196.3020  176.7360  143.0520 C   0  0  0  0  0  1  0  0  0  0  0  0
  191.7370  172.7940  143.1590 O   0  0  0  0  0  0  0  0  0  0  0  0
  190.5010  170.8290  142.7560 C   0  0  0  0  0  1  0  0  0  0  0  0
  191.9110  171.4060  142.8580 C   0  0  2  0  0  0  0  0  0  0  0  0
  192.6100  170.6970  144.0270 C   0  0  0  0  0  2  0  0  0  0  0  0
  192.6410  169.3240  143.8640 F   0  0  0  0  0  0  0  0  0  0  0  0
  192.6310  171.2900  141.6330 O   0  0  0  0  0  0  0  0  0  0  0  0
  191.4090  172.8960  140.3110 O   0  0  0  0  0  1  0  0  0  0  0  0
  192.4440  170.9330  139.2380 C   0  0  1  0  0  3  0  0  0  0  0  0
  191.8510  171.5800  140.4870 C   0  0  1  0  0  0  0  0  0  0  0  0
  191.0910  170.4790  139.7840 C   0  0  0  0  0  2  0  0  0  0  0  0
  192.2730  171.7900  137.9720 C   0  0  1  0  0  3  0  0  0  0  0  0
  193.2440  172.4800  135.6930 C   0  0  0  0  0  2  0  0  0  0  0  0
  193.2370  173.8810  135.8420 O   0  0  0  0  0  0  0  0  0  0  0  0
  194.9020  173.8350  137.5690 C   0  0  0  0  0  2  0  0  0  0  0  0
  194.5550  174.2620  136.1430 C   0  0  0  0  0  2  0  0  0  0  0  0
  194.7960  172.3140  137.6790 C   0  0  0  0  0  2  0  0  0  0  0  0
  193.5050  171.7840  137.0370 C   0  0  1  0  0  3  0  0  0  0  0  0
  189.8930  172.3490  137.8580 O   0  0  0  0  0  0  0  0  0  0  0  0
  190.9120  171.5640  137.2800 C   0  0  1  0  0  3  0  0  0  0  0  0
  190.4020  172.7920  136.6240 C   0  0  0  0  0  2  0  0  0  0  0  0
  1 36  1  0  0  0  0
  2  1  1  0  0  0  0
  2  6  1  1  0  0  0
  2  3  1  0  0  0  0
  4  5  2  0  0  0  0
  5  3  1  0  0  0  0
  7 11  1  0  0  0  0
  7 20  2  0  0  0  0
  8 17  1  0  0  0  0
  9 16  1  0  0  0  0
 10 18  2  0  0  0  0
 10  9  1  0  0  0  0
 11 12  2  0  0  0  0
 12  9  1  0  0  0  0
 12 19  1  0  0  0  0
 13  6  1  0  0  0  0
 13  8  2  0  0  0  0
 14 19  2  0  0  0  0
 16 15  1  0  0  0  0
 16 17  2  0  0  0  0
 18 13  1  0  0  0  0
 19 15  1  0  0  0  0
 20 14  1  0  0  0  0
 21 20  1  0  0  0  0
 21 22  1  0  0  0  0
 21 32  1  1  0  0  0
 22 23  1  1  0  0  0
 24 29  1  6  0  0  0
 24 26  1  0  0  0  0
 24 22  1  0  0  0  0
 25 26  1  0  0  0  0
 27 24  1  0  0  0  0
 28 27  1  0  0  0  0
 28 25  1  0  0  0  0
 30 31  1  0  0  0  0
 31 29  1  0  0  0  0
 32 33  1  0  0  0  0
 33 35  1  0  0  0  0
 35 34  1  0  0  0  0
 37 38  1  0  0  0  0
 37 47  1  1  0  0  0
 37 39  1  0  0  0  0
 38 45  1  6  0  0  0
 39 44  1  0  0  0  0
 39 41  1  1  0  0  0
 40 43  2  0  0  0  0
 40 38  1  0  0  0  0
 42 36  1  6  0  0  0
 42 44  1  0  0  0  0
 43 42  1  0  0  0  0
 46 45  1  0  0  0  0
 48 47  1  0  0  0  0
 49 43  1  0  0  0  0
 51 50  1  6  0  0  0
 51 49  1  0  0  0  0
 51 52  1  0  0  0  0
 53 52  1  0  0  0  0
 54 51  1  0  0  0  0
 56 59  1  6  0  0  0
 56 58  1  0  0  0  0
 56 57  1  0  0  0  0
 57 55  1  6  0  0  0
 57 54  1  0  0  0  0
 58 57  1  0  0  0  0
 59 65  1  6  0  0  0
 60 61  1  0  0  0  0
 61 63  1  0  0  0  0
 62 64  1  0  0  0  0
 63 62  1  0  0  0  0
 65 60  1  6  0  0  0
 65 64  1  0  0  0  0
 67 66  1  0  0  0  0
 67 59  1  1  0  0  0
 68 67  1  0  0  0  0
 68 66  1  0  0  0  0
M  END
>  <MODEL>
8

>  <REMARK>
 VINA RESULT:      -3.3      4.574      7.507
  Name = 
  25 active torsions:
  status: ('A' for Active; 'I' for Inactive)
    1  A    between atoms: C_1  and  C_12
    2  A    between atoms: C_1  and  C_23
    3  A    between atoms: C_1  and  C_65
    4  A    between atoms: C_2  and  C_8
    5  A    between atoms: C_2  and  C_23
    6  A    between atoms: C_6  and  O_49
    7  A    between atoms: C_8  and  C_67
    8  A    between atoms: C_12  and  C_42
    9  A    between atoms: O_13  and  C_17
   10  A    between atoms: C_14  and  C_39
   11  A    between atoms: N_20  and  C_31
   12  A    between atoms: N_20  and  C_56
   13  A    between atoms: O_24  and  C_25
   14  A    between atoms: O_24  and  C_64
   15  A    between atoms: C_26  and  C_40
   16  A    between atoms: C_26  and  C_56
   17  A    between atoms: C_31  and  C_43
   18  A    between atoms: C_33  and  C_39
   19  A    between atoms: C_38  and  C_64
   20  A    between atoms: C_39  and  C_68
   21  A    between atoms: C_42  and  O_51
   22  A    between atoms: C_48  and  O_63
   23  A    between atoms: C_53  and  O_66
   24  A    between atoms: C_56  and  O_66
   25  A    between atoms: O_63  and  C_64
                            x       y       z     vdW  Elec       q    Type
                         _______ _______ _______ _____ _____    ______ ____

>  <TORSDO>
F 25

$$$$
=
 OpenBabel11042418563D

 68 75  0  0  1  0  0  0  0  0999 V2000
  186.7370  176.2860  144.3090 N   0  0  0  0  0  2  0  0  0  0  0  0
  186.3190  177.3340  145.2270 C   0  0  1  0  0  3  0  0  0  0  0  0
  185.4690  176.8070  146.2430 O   0  0  0  0  0  0  0  0  0  0  0  0
  183.9980  178.6390  146.1980 C   0  0  0  0  0  2  0  0  0  0  0  0
  184.2430  177.3900  146.5520 C   0  0  0  0  0  3  0  0  0  0  0  0
  187.5310  178.0350  145.8260 C   0  0  0  0  0  2  0  0  0  0  0  0
  195.0350  175.6090  143.6230 N   0  0  0  0  0  0  0  0  0  0  0  0
  188.7540  175.9750  146.1310 C   0  0  0  0  0  3  0  0  0  0  0  0
  191.5620  176.1040  144.8590 N   0  0  0  0  0  0  0  0  0  0  0  0
  191.0560  177.4060  144.5650 C   0  0  0  0  0  3  0  0  0  0  0  0
  193.8580  176.2780  143.8020 C   0  0  0  0  0  3  0  0  0  0  0  0
  192.8570  175.6400  144.5210 C   0  0  0  0  0  0  0  0  0  0  0  0
  188.7540  177.2070  145.6150 C   0  0  0  0  0  0  0  0  0  0  0  0
  194.2390  173.7410  144.8520 N   0  0  0  0  0  0  0  0  0  0  0  0
  191.9340  173.9100  145.7350 N   0  0  0  0  0  2  0  0  0  0  0  0
  191.0180  175.0090  145.6070 C   0  0  0  0  0  0  0  0  0  0  0  0
  189.8050  174.9520  146.1430 C   0  0  0  0  0  3  0  0  0  0  0  0
  189.8550  177.8680  144.8960 C   0  0  0  0  0  3  0  0  0  0  0  0
  193.0650  174.3940  145.0260 C   0  0  0  0  0  0  0  0  0  0  0  0
  195.2340  174.3520  144.1420 C   0  0  0  0  0  0  0  0  0  0  0  0
  196.5390  173.6320  143.9370 C   0  0  2  0  0  3  0  0  0  0  0  0
  197.1580  173.8460  142.5400 C   0  0  2  0  0  3  0  0  0  0  0  0
  197.5560  175.1720  142.3390 O   0  0  0  0  0  1  0  0  0  0  0  0
  196.3110  173.2990  141.3700 C   0  0  1  0  0  0  0  0  0  0  0  0
  195.5280  171.0630  141.7810 C   0  0  0  0  0  2  0  0  0  0  0  0
  196.6470  171.8310  141.1380 C   0  0  0  0  0  2  0  0  0  0  0  0
  194.8970  173.3710  141.7460 N   0  0  0  0  0  2  0  0  0  0  0  0
  194.3640  172.0140  141.7200 C   0  0  0  0  0  2  0  0  0  0  0  0
  196.5000  174.0900  140.0660 C   0  0  0  0  0  2  0  0  0  0  0  0
  195.2470  175.0080  138.2030 N   0  0  0  0  0  1  0  0  0  0  0  0
  195.2710  174.8860  139.6480 C   0  0  0  0  0  2  0  0  0  0  0  0
  196.4840  172.1720  144.4020 C   0  0  0  0  0  2  0  0  0  0  0  0
  197.2070  171.9460  145.7210 C   0  0  0  0  0  2  0  0  0  0  0  0
  195.7920  170.2730  145.4720 C   0  0  0  0  0  1  0  0  0  0  0  0
  196.9160  170.6680  146.1960 O   0  0  0  0  0  0  0  0  0  0  0  0
  186.0950  176.5920  143.0420 C   0  0  0  0  0  2  0  0  0  0  0  0
  184.9860  177.1410  140.1560 C   0  0  1  0  0  3  0  0  0  0  0  0
  186.2030  177.0830  139.2330 C   0  0  1  0  0  3  0  0  0  0  0  0
  185.0860  178.3410  141.1230 C   0  0  2  0  0  3  0  0  0  0  0  0
  187.3670  176.4160  139.9120 C   0  0  0  0  0  3  0  0  0  0  0  0
  184.5250  179.6140  140.5090 C   0  0  0  0  0  1  0  0  0  0  0  0
  187.0110  177.4570  142.1620 C   0  0  1  0  0  3  0  0  0  0  0  0
  187.7770  176.6090  141.1740 C   0  0  0  0  0  0  0  0  0  0  0  0
  186.4080  178.5950  141.5610 O   0  0  0  0  0  0  0  0  0  0  0  0
  185.9040  176.3930  138.0540 O   0  0  0  0  0  0  0  0  0  0  0  0
  187.0760  175.6990  137.7410 C   0  0  0  0  0  1  0  0  0  0  0  0
  183.7850  177.1630  139.4370 O   0  0  0  0  0  0  0  0  0  0  0  0
  182.8200  177.5460  140.3690 C   0  0  0  0  0  1  0  0  0  0  0  0
  188.9370  175.9270  141.5720 O   0  0  0  0  0  0  0  0  0  0  0  0
  187.9830  173.8250  142.0480 C   0  0  0  0  0  1  0  0  0  0  0  0
  189.1840  174.5250  141.4170 C   0  0  2  0  0  0  0  0  0  0  0  0
  190.4250  174.1180  142.2250 C   0  0  0  0  0  2  0  0  0  0  0  0
  191.5450  174.8460  141.8660 F   0  0  0  0  0  0  0  0  0  0  0  0
  189.3110  174.2330  140.0280 O   0  0  0  0  0  0  0  0  0  0  0  0
  188.1220  172.2580  139.3150 O   0  0  0  0  0  1  0  0  0  0  0  0
  190.5460  172.4620  138.9160 C   0  0  1  0  0  3  0  0  0  0  0  0
  189.3200  172.8460  139.7380 C   0  0  1  0  0  0  0  0  0  0  0  0
  190.3730  171.9480  140.3440 C   0  0  0  0  0  2  0  0  0  0  0  0
  190.2640  171.3530  137.8890 C   0  0  1  0  0  3  0  0  0  0  0  0
  189.4580  173.1340  136.2190 C   0  0  0  0  0  2  0  0  0  0  0  0
  190.1720  174.2510  136.6930 O   0  0  0  0  0  0  0  0  0  0  0  0
  192.2940  173.3160  136.0780 C   0  0  0  0  0  2  0  0  0  0  0  0
  191.2700  174.4230  135.8330 C   0  0  0  0  0  2  0  0  0  0  0  0
  191.6510  171.9610  135.7840 C   0  0  0  0  0  2  0  0  0  0  0  0
  190.2580  171.8400  136.4210 C   0  0  1  0  0  3  0  0  0  0  0  0
  190.3330  169.1190  138.8870 O   0  0  0  0  0  0  0  0  0  0  0  0
  191.0780  170.0690  138.1590 C   0  0  1  0  0  3  0  0  0  0  0  0
  190.4840  168.8760  137.5100 C   0  0  0  0  0  2  0  0  0  0  0  0
  1  2  1  0  0  0  0
  2  6  1  1  0  0  0
  2  3  1  0  0  0  0
  3  5  1  0  0  0  0
  4  5  2  0  0  0  0
  7 11  1  0  0  0  0
  7 20  2  0  0  0  0
  8 17  1  0  0  0  0
  9 16  1  0  0  0  0
 10  9  1  0  0  0  0
 10 18  2  0  0  0  0
 11 12  2  0  0  0  0
 12  9  1  0  0  0  0
 12 19  1  0  0  0  0
 13  6  1  0  0  0  0
 13  8  2  0  0  0  0
 14 19  2  0  0  0  0
 16 15  1  0  0  0  0
 16 17  2  0  0  0  0
 18 13  1  0  0  0  0
 19 15  1  0  0  0  0
 20 14  1  0  0  0  0
 21 20  1  0  0  0  0
 21 32  1  6  0  0  0
 22 23  1  6  0  0  0
 22 21  1  0  0  0  0
 24 29  1  6  0  0  0
 24 27  1  0  0  0  0
 24 22  1  0  0  0  0
 26 24  1  0  0  0  0
 26 25  1  0  0  0  0
 28 27  1  0  0  0  0
 28 25  1  0  0  0  0
 30 31  1  0  0  0  0
 31 29  1  0  0  0  0
 32 33  1  0  0  0  0
 33 35  1  0  0  0  0
 34 35  1  0  0  0  0
 36  1  1  0  0  0  0
 37 47  1  6  0  0  0
 37 39  1  0  0  0  0
 38 45  1  6  0  0  0
 38 40  1  0  0  0  0
 38 37  1  0  0  0  0
 39 41  1  6  0  0  0
 39 44  1  0  0  0  0
 40 43  2  0  0  0  0
 42 36  1  6  0  0  0
 43 49  1  0  0  0  0
 43 42  1  0  0  0  0
 44 42  1  0  0  0  0
 46 45  1  0  0  0  0
 47 48  1  0  0  0  0
 51 49  1  0  0  0  0
 51 50  1  1  0  0  0
 51 52  1  0  0  0  0
 53 52  1  0  0  0  0
 54 51  1  0  0  0  0
 56 59  1  6  0  0  0
 56 57  1  0  0  0  0
 56 58  1  0  0  0  0
 57 55  1  6  0  0  0
 57 54  1  0  0  0  0
 57 58  1  0  0  0  0
 59 65  1  6  0  0  0
 60 65  1  0  0  0  0
 60 61  1  0  0  0  0
 63 62  1  0  0  0  0
 63 61  1  0  0  0  0
 64 62  1  0  0  0  0
 65 64  1  1  0  0  0
 67 59  1  6  0  0  0
 67 66  1  0  0  0  0
 68 67  1  0  0  0  0
 68 66  1  0  0  0  0
M  END
>  <MODEL>
9

>  <REMARK>
 VINA RESULT:      -3.2      2.542      9.551
  Name = 
  25 active torsions:
  status: ('A' for Active; 'I' for Inactive)
    1  A    between atoms: C_1  and  C_12
    2  A    between atoms: C_1  and  C_23
    3  A    between atoms: C_1  and  C_65
    4  A    between atoms: C_2  and  C_8
    5  A    between atoms: C_2  and  C_23
    6  A    between atoms: C_6  and  O_49
    7  A    between atoms: C_8  and  C_67
    8  A    between atoms: C_12  and  C_42
    9  A    between atoms: O_13  and  C_17
   10  A    between atoms: C_14  and  C_39
   11  A    between atoms: N_20  and  C_31
   12  A    between atoms: N_20  and  C_56
   13  A    between atoms: O_24  and  C_25
   14  A    between atoms: O_24  and  C_64
   15  A    between atoms: C_26  and  C_40
   16  A    between atoms: C_26  and  C_56
   17  A    between atoms: C_31  and  C_43
   18  A    between atoms: C_33  and  C_39
   19  A    between atoms: C_38  and  C_64
   20  A    between atoms: C_39  and  C_68
   21  A    between atoms: C_42  and  O_51
   22  A    between atoms: C_48  and  O_63
   23  A    between atoms: C_53  and  O_66
   24  A    between atoms: C_56  and  O_66
   25  A    between atoms: O_63  and  C_64
                            x       y       z     vdW  Elec       q    Type
                         _______ _______ _______ _____ _____    ______ ____

>  <TORSDO>
F 25

$$$$
