=
 OpenBabel11042416093D

 34 37  0  0  1  0  0  0  0  0999 V2000
  194.0340  177.0500  145.5280 C   0  0  0  0  0  3  0  0  0  0  0  0
  193.3850  174.7970  143.6550 C   0  0  0  0  0  0  0  0  0  0  0  0
  196.2560  173.9980  145.8310 C   0  0  0  0  0  1  0  0  0  0  0  0
  194.9600  176.0150  145.9030 N   0  0  0  0  0  0  0  0  0  0  0  0
  194.6010  174.5420  144.0280 N   0  0  0  0  0  0  0  0  0  0  0  0
  192.4070  175.4440  144.5950 C   0  0  2  0  0  3  0  0  0  0  0  0
  190.9800  175.4610  144.0790 C   0  0  0  0  0  0  0  0  0  0  0  0
  191.7940  174.7210  141.8820 C   0  0  0  0  0  3  0  0  0  0  0  0
  192.8780  176.8250  144.9060 C   0  0  0  0  0  3  0  0  0  0  0  0
  193.0010  174.5210  142.3070 N   0  0  0  0  0  0  0  0  0  0  0  0
  195.1840  174.8790  145.2980 C   0  0  0  0  0  0  0  0  0  0  0  0
  190.7190  175.2050  142.7740 C   0  0  0  0  0  0  0  0  0  0  0  0
  189.5070  177.1100  145.3450 C   0  0  0  0  0  2  0  0  0  0  0  0
  189.3470  174.8110  145.9390 C   0  0  0  0  0  2  0  0  0  0  0  0
  188.4070  175.6270  146.7950 C   0  0  0  0  0  2  0  0  0  0  0  0
  189.9170  175.7620  145.0120 N   0  0  0  0  0  0  0  0  0  0  0  0
  188.6690  177.0430  146.5390 N   0  0  0  0  0  0  0  0  0  0  0  0
  187.3980  177.6650  146.1970 C   0  0  0  0  0  2  0  0  0  0  0  0
  184.4800  178.4250  147.2160 C   0  0  0  0  0  2  0  0  0  0  0  0
  186.5040  177.7350  147.4270 C   0  0  0  0  0  3  0  0  0  0  0  0
  185.8150  179.0860  147.5000 C   0  0  0  0  0  2  0  0  0  0  0  0
  185.1700  177.0760  147.1330 C   0  0  0  0  0  2  0  0  0  0  0  0
  189.3900  175.3830  142.2570 N   0  0  0  0  0  2  0  0  0  0  0  0
  188.7530  176.6160  141.8990 C   0  0  0  0  0  0  0  0  0  0  0  0
  189.3360  177.7230  142.0440 O   0  0  0  0  0  0  0  0  0  0  0  0
  187.3610  176.5880  141.3800 C   0  0  0  0  0  2  0  0  0  0  0  0
  186.3910  176.9030  142.5040 C   0  0  0  0  0  2  0  0  0  0  0  0
  185.8170  178.3040  142.3360 C   0  0  2  0  0  3  0  0  0  0  0  0
  185.1600  179.9090  143.9590 O   0  0  0  0  0  0  0  0  0  0  0  0
  186.0080  179.1110  143.5850 C   0  0  0  0  0  3  0  0  0  0  0  0
  184.3370  178.2380  141.9790 C   0  0  0  0  0  2  0  0  0  0  0  0
  184.1300  178.2300  140.4710 C   0  0  0  0  0  2  0  0  0  0  0  0
  182.1060  178.2380  141.3510 C   0  0  0  0  0  1  0  0  0  0  0  0
  182.7950  177.9540  140.1720 O   0  0  0  0  0  0  0  0  0  0  0  0
  1  4  1  0  0  0  0
  2  5  2  0  0  0  0
  2  6  1  0  0  0  0
  5 11  1  0  0  0  0
  6  9  1  6  0  0  0
  7  6  1  0  0  0  0
  7 16  1  0  0  0  0
  8 10  2  0  0  0  0
  8 12  1  0  0  0  0
  9  1  2  0  0  0  0
 10  2  1  0  0  0  0
 11  3  1  0  0  0  0
 11  4  2  0  0  0  0
 12  7  2  0  0  0  0
 13 17  1  0  0  0  0
 14 15  1  0  0  0  0
 16 13  1  0  0  0  0
 16 14  1  0  0  0  0
 17 15  1  0  0  0  0
 18 17  1  0  0  0  0
 18 20  1  0  0  0  0
 19 21  1  0  0  0  0
 20 21  1  0  0  0  0
 22 19  1  0  0  0  0
 22 20  1  0  0  0  0
 23 12  1  0  0  0  0
 24 25  2  0  0  0  0
 24 23  1  0  0  0  0
 26 24  1  0  0  0  0
 26 27  1  0  0  0  0
 28 31  1  1  0  0  0
 28 27  1  0  0  0  0
 28 30  1  0  0  0  0
 30 29  2  0  0  0  0
 32 31  1  0  0  0  0
 34 32  1  0  0  0  0
 34 33  1  0  0  0  0
M  END
>  <MODEL>
1

>  <REMARK>
 VINA RESULT:      -7.1      0.000      0.000
  Name = 
  11 active torsions:
  status: ('A' for Active; 'I' for Inactive)
    1  A    between atoms: N_2  and  C_34
    2  A    between atoms: C_6  and  C_33
    3  A    between atoms: C_9  and  C_23
    4  A    between atoms: C_13  and  C_27
    5  A    between atoms: C_13  and  C_29
    6  A    between atoms: O_15  and  C_29
    7  A    between atoms: N_18  and  C_21
    8  A    between atoms: C_19  and  C_27
    9  A    between atoms: C_19  and  C_33
   10  A    between atoms: C_23  and  N_32
   11  A    between atoms: C_27  and  C_28
                            x       y       z     vdW  Elec       q    Type
                         _______ _______ _______ _____ _____    ______ ____

>  <TORSDO>
F 11

$$$$
=
 OpenBabel11042416093D

 34 37  0  0  1  0  0  0  0  0999 V2000
  194.1270  171.4480  145.1110 C   0  0  0  0  0  3  0  0  0  0  0  0
  194.8190  174.3330  145.5620 C   0  0  0  0  0  0  0  0  0  0  0  0
  197.7710  172.3400  144.5990 C   0  0  0  0  0  1  0  0  0  0  0  0
  195.5240  171.5210  144.7800 N   0  0  0  0  0  0  0  0  0  0  0  0
  195.9640  173.7290  145.6430 N   0  0  0  0  0  0  0  0  0  0  0  0
  193.7490  173.8400  144.6290 C   0  0  2  0  0  3  0  0  0  0  0  0
  192.5720  174.7880  144.4920 C   0  0  0  0  0  0  0  0  0  0  0  0
  193.4460  176.1040  146.3720 C   0  0  0  0  0  3  0  0  0  0  0  0
  193.2990  172.4910  145.0800 C   0  0  0  0  0  3  0  0  0  0  0  0
  194.5560  175.4370  146.4280 N   0  0  0  0  0  0  0  0  0  0  0  0
  196.3380  172.5280  144.9450 C   0  0  0  0  0  0  0  0  0  0  0  0
  192.3950  175.7970  145.3790 C   0  0  0  0  0  0  0  0  0  0  0  0
  190.2950  174.0920  143.5820 C   0  0  0  0  0  2  0  0  0  0  0  0
  192.0230  174.5300  142.0060 C   0  0  0  0  0  2  0  0  0  0  0  0
  190.7590  174.1320  141.2800 C   0  0  0  0  0  2  0  0  0  0  0  0
  191.6470  174.5790  143.4000 N   0  0  0  0  0  0  0  0  0  0  0  0
  189.7820  173.6880  142.2760 N   0  0  0  0  0  0  0  0  0  0  0  0
  188.5590  174.4440  142.0510 C   0  0  0  0  0  2  0  0  0  0  0  0
  187.3410  177.3480  142.5100 C   0  0  0  0  0  2  0  0  0  0  0  0
  188.4690  175.5980  143.0390 C   0  0  0  0  0  3  0  0  0  0  0  0
  188.7840  176.9110  142.3450 C   0  0  0  0  0  2  0  0  0  0  0  0
  187.0240  176.0320  143.1940 C   0  0  0  0  0  2  0  0  0  0  0  0
  191.1950  176.5860  145.3420 N   0  0  0  0  0  2  0  0  0  0  0  0
  190.1270  176.5890  146.2980 C   0  0  0  0  0  0  0  0  0  0  0  0
  190.1390  175.8280  147.3000 O   0  0  0  0  0  0  0  0  0  0  0  0
  188.9620  177.4860  146.0770 C   0  0  0  0  0  2  0  0  0  0  0  0
  187.7380  176.9110  146.7670 C   0  0  0  0  0  2  0  0  0  0  0  0
  186.5830  177.9040  146.7190 C   0  0  2  0  0  3  0  0  0  0  0  0
  187.1340  179.3100  148.5520 O   0  0  0  0  0  0  0  0  0  0  0  0
  186.3450  178.5100  148.0690 C   0  0  0  0  0  3  0  0  0  0  0  0
  185.3130  177.2230  146.2220 C   0  0  0  0  0  2  0  0  0  0  0  0
  184.3160  178.2390  145.6830 C   0  0  0  0  0  2  0  0  0  0  0  0
  184.8820  179.7120  144.1410 C   0  0  0  0  0  1  0  0  0  0  0  0
  184.4800  178.3870  144.3050 O   0  0  0  0  0  0  0  0  0  0  0  0
  2  5  2  0  0  0  0
  2 10  1  0  0  0  0
  3 11  1  0  0  0  0
  4 11  2  0  0  0  0
  4  1  1  0  0  0  0
  6  9  1  1  0  0  0
  6  2  1  0  0  0  0
  7  6  1  0  0  0  0
  7 12  2  0  0  0  0
  8 10  2  0  0  0  0
  9  1  2  0  0  0  0
 11  5  1  0  0  0  0
 12  8  1  0  0  0  0
 14 16  1  0  0  0  0
 15 14  1  0  0  0  0
 15 17  1  0  0  0  0
 16 13  1  0  0  0  0
 16  7  1  0  0  0  0
 17 13  1  0  0  0  0
 18 17  1  0  0  0  0
 18 20  1  0  0  0  0
 19 22  1  0  0  0  0
 20 22  1  0  0  0  0
 21 19  1  0  0  0  0
 21 20  1  0  0  0  0
 23 12  1  0  0  0  0
 23 24  1  0  0  0  0
 24 25  2  0  0  0  0
 26 24  1  0  0  0  0
 26 27  1  0  0  0  0
 28 31  1  1  0  0  0
 28 27  1  0  0  0  0
 28 30  1  0  0  0  0
 30 29  2  0  0  0  0
 32 31  1  0  0  0  0
 33 34  1  0  0  0  0
 34 32  1  0  0  0  0
M  END
>  <MODEL>
2

>  <REMARK>
 VINA RESULT:      -6.7      2.090      4.481
  Name = 
  11 active torsions:
  status: ('A' for Active; 'I' for Inactive)
    1  A    between atoms: N_2  and  C_34
    2  A    between atoms: C_6  and  C_33
    3  A    between atoms: C_9  and  C_23
    4  A    between atoms: C_13  and  C_27
    5  A    between atoms: C_13  and  C_29
    6  A    between atoms: O_15  and  C_29
    7  A    between atoms: N_18  and  C_21
    8  A    between atoms: C_19  and  C_27
    9  A    between atoms: C_19  and  C_33
   10  A    between atoms: C_23  and  N_32
   11  A    between atoms: C_27  and  C_28
                            x       y       z     vdW  Elec       q    Type
                         _______ _______ _______ _____ _____    ______ ____

>  <TORSDO>
F 11

$$$$
=
 OpenBabel11042416093D

 34 37  0  0  1  0  0  0  0  0999 V2000
  194.5880  172.2710  145.3170 C   0  0  0  0  0  3  0  0  0  0  0  0
  194.3560  175.2260  145.7870 C   0  0  0  0  0  0  0  0  0  0  0  0
  197.6860  174.2900  144.5000 C   0  0  0  0  0  1  0  0  0  0  0  0
  195.8490  172.7900  144.8610 N   0  0  0  0  0  0  0  0  0  0  0  0
  195.6380  175.0230  145.7460 N   0  0  0  0  0  0  0  0  0  0  0  0
  193.4170  174.4120  144.9410 C   0  0  2  0  0  3  0  0  0  0  0  0
  191.9910  174.9290  144.9410 C   0  0  0  0  0  0  0  0  0  0  0  0
  192.5720  176.4610  146.7710 C   0  0  0  0  0  3  0  0  0  0  0  0
  193.4700  172.9920  145.3920 C   0  0  0  0  0  3  0  0  0  0  0  0
  193.8370  176.1880  146.7060 N   0  0  0  0  0  0  0  0  0  0  0  0
  196.3080  174.0070  144.9810 C   0  0  0  0  0  0  0  0  0  0  0  0
  191.5850  175.8290  145.8700 C   0  0  0  0  0  0  0  0  0  0  0  0
  190.9640  175.0110  142.6100 C   0  0  0  0  0  2  0  0  0  0  0  0
  189.9870  173.5250  144.1910 C   0  0  0  0  0  2  0  0  0  0  0  0
  189.2440  173.4350  142.8780 C   0  0  0  0  0  2  0  0  0  0  0  0
  191.0820  174.4320  143.9320 N   0  0  0  0  0  0  0  0  0  0  0  0
  189.7450  174.4900  141.9970 N   0  0  0  0  0  0  0  0  0  0  0  0
  190.1380  173.8610  140.7450 C   0  0  0  0  0  2  0  0  0  0  0  0
  189.2050  171.7440  138.5580 C   0  0  0  0  0  2  0  0  0  0  0  0
  189.3420  172.5800  140.5330 C   0  0  0  0  0  3  0  0  0  0  0  0
  188.3900  172.7410  139.3610 C   0  0  0  0  0  2  0  0  0  0  0  0
  190.1610  171.5920  139.7260 C   0  0  0  0  0  2  0  0  0  0  0  0
  190.1980  176.1890  145.9660 N   0  0  0  0  0  2  0  0  0  0  0  0
  189.5400  177.2940  145.3320 C   0  0  0  0  0  0  0  0  0  0  0  0
  190.1730  178.1110  144.6140 O   0  0  0  0  0  0  0  0  0  0  0  0
  188.0850  177.4980  145.5610 C   0  0  0  0  0  2  0  0  0  0  0  0
  187.2960  176.8320  144.4480 C   0  0  0  0  0  2  0  0  0  0  0  0
  186.3460  177.8290  143.7980 C   0  0  2  0  0  3  0  0  0  0  0  0
  187.9720  177.9160  142.0690 O   0  0  0  0  0  0  0  0  0  0  0  0
  186.9110  178.3370  142.5050 C   0  0  0  0  0  3  0  0  0  0  0  0
  186.0670  178.9960  144.7390 C   0  0  0  0  0  2  0  0  0  0  0  0
  184.5950  179.0580  145.1220 C   0  0  0  0  0  2  0  0  0  0  0  0
  184.7920  178.3730  147.2100 C   0  0  0  0  0  1  0  0  0  0  0  0
  184.2750  177.9970  145.9710 O   0  0  0  0  0  0  0  0  0  0  0  0
  1  9  2  0  0  0  0
  2 10  1  0  0  0  0
  3 11  1  0  0  0  0
  4 11  2  0  0  0  0
  4  1  1  0  0  0  0
  5  2  2  0  0  0  0
  6  9  1  1  0  0  0
  6  2  1  0  0  0  0
  7  6  1  0  0  0  0
  7 12  2  0  0  0  0
 10  8  2  0  0  0  0
 11  5  1  0  0  0  0
 12 23  1  0  0  0  0
 12  8  1  0  0  0  0
 13 16  1  0  0  0  0
 15 14  1  0  0  0  0
 16 14  1  0  0  0  0
 16  7  1  0  0  0  0
 17 13  1  0  0  0  0
 17 15  1  0  0  0  0
 18 17  1  0  0  0  0
 19 21  1  0  0  0  0
 19 22  1  0  0  0  0
 20 18  1  0  0  0  0
 21 20  1  0  0  0  0
 22 20  1  0  0  0  0
 24 26  1  0  0  0  0
 24 23  1  0  0  0  0
 25 24  2  0  0  0  0
 27 26  1  0  0  0  0
 28 30  1  6  0  0  0
 28 27  1  0  0  0  0
 28 31  1  0  0  0  0
 29 30  2  0  0  0  0
 31 32  1  0  0  0  0
 32 34  1  0  0  0  0
 34 33  1  0  0  0  0
M  END
>  <MODEL>
3

>  <REMARK>
 VINA RESULT:      -6.6      2.197      5.128
  Name = 
  11 active torsions:
  status: ('A' for Active; 'I' for Inactive)
    1  A    between atoms: N_2  and  C_34
    2  A    between atoms: C_6  and  C_33
    3  A    between atoms: C_9  and  C_23
    4  A    between atoms: C_13  and  C_27
    5  A    between atoms: C_13  and  C_29
    6  A    between atoms: O_15  and  C_29
    7  A    between atoms: N_18  and  C_21
    8  A    between atoms: C_19  and  C_27
    9  A    between atoms: C_19  and  C_33
   10  A    between atoms: C_23  and  N_32
   11  A    between atoms: C_27  and  C_28
                            x       y       z     vdW  Elec       q    Type
                         _______ _______ _______ _____ _____    ______ ____

>  <TORSDO>
F 11

$$$$
=
 OpenBabel11042416093D

 34 37  0  0  1  0  0  0  0  0999 V2000
  185.9090  178.2280  140.4620 C   0  0  0  0  0  3  0  0  0  0  0  0
  185.4630  177.8870  143.4100 C   0  0  0  0  0  0  0  0  0  0  0  0
  182.2830  178.1090  141.5510 C   0  0  0  0  0  1  0  0  0  0  0  0
  184.4780  178.1390  140.5850 N   0  0  0  0  0  0  0  0  0  0  0  0
  184.3280  178.3470  142.9820 N   0  0  0  0  0  0  0  0  0  0  0  0
  186.3010  176.9790  142.5550 C   0  0  2  0  0  3  0  0  0  0  0  0
  187.4730  176.3560  143.2910 C   0  0  0  0  0  0  0  0  0  0  0  0
  187.0550  177.8640  145.1840 C   0  0  0  0  0  3  0  0  0  0  0  0
  186.7640  177.7360  141.3570 C   0  0  0  0  0  3  0  0  0  0  0  0
  185.9470  178.3140  144.6840 N   0  0  0  0  0  0  0  0  0  0  0  0
  183.7640  178.1270  141.6780 C   0  0  0  0  0  0  0  0  0  0  0  0
  187.8720  176.8460  144.4890 C   0  0  0  0  0  0  0  0  0  0  0  0
  189.5100  175.3050  142.1750 C   0  0  0  0  0  2  0  0  0  0  0  0
  187.4970  174.0370  142.2090 C   0  0  0  0  0  2  0  0  0  0  0  0
  188.5820  173.2540  141.5080 C   0  0  0  0  0  2  0  0  0  0  0  0
  188.1520  175.2370  142.6750 N   0  0  0  0  0  0  0  0  0  0  0  0
  189.7400  174.1320  141.3370 N   0  0  0  0  0  0  0  0  0  0  0  0
  190.8950  173.4400  141.8880 C   0  0  0  0  0  2  0  0  0  0  0  0
  191.8110  171.3760  144.1320 C   0  0  0  0  0  2  0  0  0  0  0  0
  190.4410  172.2550  142.7290 C   0  0  0  0  0  3  0  0  0  0  0  0
  191.4740  171.1430  142.6720 C   0  0  0  0  0  2  0  0  0  0  0  0
  190.7870  172.4940  144.1860 C   0  0  0  0  0  2  0  0  0  0  0  0
  189.0780  176.3620  145.1010 N   0  0  0  0  0  2  0  0  0  0  0  0
  189.2020  175.6640  146.3470 C   0  0  0  0  0  0  0  0  0  0  0  0
  188.1990  175.4290  147.0710 O   0  0  0  0  0  0  0  0  0  0  0  0
  190.5510  175.2440  146.8100 C   0  0  0  0  0  2  0  0  0  0  0  0
  191.5830  176.2640  146.3660 C   0  0  0  0  0  2  0  0  0  0  0  0
  192.9840  175.6690  146.4310 C   0  0  2  0  0  3  0  0  0  0  0  0
  194.4960  177.3720  145.7570 O   0  0  0  0  0  0  0  0  0  0  0  0
  194.0060  176.7370  146.6790 C   0  0  0  0  0  3  0  0  0  0  0  0
  193.3100  174.9260  145.1400 C   0  0  0  0  0  2  0  0  0  0  0  0
  194.3240  173.8170  145.3810 C   0  0  0  0  0  2  0  0  0  0  0  0
  196.4670  173.9870  145.8830 C   0  0  0  0  0  1  0  0  0  0  0  0
  195.5610  174.1730  144.8390 O   0  0  0  0  0  0  0  0  0  0  0  0
  1  4  1  0  0  0  0
  1  9  2  0  0  0  0
  2 10  1  0  0  0  0
  3 11  1  0  0  0  0
  4 11  2  0  0  0  0
  5  2  2  0  0  0  0
  6  9  1  6  0  0  0
  6  7  1  0  0  0  0
  6  2  1  0  0  0  0
  7 12  2  0  0  0  0
 10  8  2  0  0  0  0
 11  5  1  0  0  0  0
 12 23  1  0  0  0  0
 12  8  1  0  0  0  0
 13 16  1  0  0  0  0
 14 16  1  0  0  0  0
 15 14  1  0  0  0  0
 16  7  1  0  0  0  0
 17 15  1  0  0  0  0
 17 18  1  0  0  0  0
 17 13  1  0  0  0  0
 18 20  1  0  0  0  0
 19 22  1  0  0  0  0
 20 22  1  0  0  0  0
 21 20  1  0  0  0  0
 21 19  1  0  0  0  0
 23 24  1  0  0  0  0
 24 26  1  0  0  0  0
 24 25  2  0  0  0  0
 27 28  1  0  0  0  0
 27 26  1  0  0  0  0
 28 31  1  6  0  0  0
 28 30  1  0  0  0  0
 29 30  2  0  0  0  0
 31 32  1  0  0  0  0
 34 32  1  0  0  0  0
 34 33  1  0  0  0  0
M  END
>  <MODEL>
4

>  <REMARK>
 VINA RESULT:      -6.5      3.035      8.841
  Name = 
  11 active torsions:
  status: ('A' for Active; 'I' for Inactive)
    1  A    between atoms: N_2  and  C_34
    2  A    between atoms: C_6  and  C_33
    3  A    between atoms: C_9  and  C_23
    4  A    between atoms: C_13  and  C_27
    5  A    between atoms: C_13  and  C_29
    6  A    between atoms: O_15  and  C_29
    7  A    between atoms: N_18  and  C_21
    8  A    between atoms: C_19  and  C_27
    9  A    between atoms: C_19  and  C_33
   10  A    between atoms: C_23  and  N_32
   11  A    between atoms: C_27  and  C_28
                            x       y       z     vdW  Elec       q    Type
                         _______ _______ _______ _____ _____    ______ ____

>  <TORSDO>
F 11

$$$$
=
 OpenBabel11042416093D

 34 37  0  0  1  0  0  0  0  0999 V2000
  194.3580  172.3930  145.3230 C   0  0  0  0  0  3  0  0  0  0  0  0
  194.0660  175.3480  145.7600 C   0  0  0  0  0  0  0  0  0  0  0  0
  197.4000  174.4700  144.4440 C   0  0  0  0  0  1  0  0  0  0  0  0
  195.6020  172.9340  144.8460 N   0  0  0  0  0  0  0  0  0  0  0  0
  195.3510  175.1730  145.7050 N   0  0  0  0  0  0  0  0  0  0  0  0
  193.1360  174.5030  144.9360 C   0  0  2  0  0  3  0  0  0  0  0  0
  191.6980  174.9880  144.9470 C   0  0  0  0  0  0  0  0  0  0  0  0
  192.2660  176.5550  146.7510 C   0  0  0  0  0  3  0  0  0  0  0  0
  193.2250  173.0900  145.4030 C   0  0  0  0  0  3  0  0  0  0  0  0
  193.5360  176.3090  146.6730 N   0  0  0  0  0  0  0  0  0  0  0  0
  196.0350  174.1620  144.9450 C   0  0  0  0  0  0  0  0  0  0  0  0
  191.2830  175.8900  145.8690 C   0  0  0  0  0  0  0  0  0  0  0  0
  190.4180  175.1720  142.7500 C   0  0  0  0  0  2  0  0  0  0  0  0
  189.9140  173.3270  144.1670 C   0  0  0  0  0  2  0  0  0  0  0  0
  189.0580  173.2650  142.9230 C   0  0  0  0  0  2  0  0  0  0  0  0
  190.7880  174.4580  143.9550 N   0  0  0  0  0  0  0  0  0  0  0  0
  189.2550  174.5060  142.1720 N   0  0  0  0  0  0  0  0  0  0  0  0
  189.6130  174.1360  140.8100 C   0  0  0  0  0  2  0  0  0  0  0  0
  189.3530  171.9310  138.5300 C   0  0  0  0  0  2  0  0  0  0  0  0
  189.1810  172.7040  140.5270 C   0  0  0  0  0  3  0  0  0  0  0  0
  188.2750  172.6600  139.3090 C   0  0  0  0  0  2  0  0  0  0  0  0
  190.2620  171.9850  139.7440 C   0  0  0  0  0  2  0  0  0  0  0  0
  189.8890  176.2210  145.9780 N   0  0  0  0  0  2  0  0  0  0  0  0
  188.9170  175.6160  146.8400 C   0  0  0  0  0  0  0  0  0  0  0  0
  189.2190  174.6620  147.6030 O   0  0  0  0  0  0  0  0  0  0  0  0
  187.5130  176.1040  146.8020 C   0  0  0  0  0  2  0  0  0  0  0  0
  187.5030  177.6150  146.6530 C   0  0  0  0  0  2  0  0  0  0  0  0
  186.4560  178.0430  145.6330 C   0  0  2  0  0  3  0  0  0  0  0  0
  184.1860  178.1720  146.3180 O   0  0  0  0  0  0  0  0  0  0  0  0
  185.2890  178.6980  146.3100 C   0  0  0  0  0  3  0  0  0  0  0  0
  185.9810  176.8450  144.8180 C   0  0  0  0  0  2  0  0  0  0  0  0
  185.8840  177.1860  143.3380 C   0  0  0  0  0  2  0  0  0  0  0  0
  187.4040  177.7100  141.8270 C   0  0  0  0  0  1  0  0  0  0  0  0
  186.8220  178.1660  143.0090 O   0  0  0  0  0  0  0  0  0  0  0  0
  1  9  2  0  0  0  0
  2 10  1  0  0  0  0
  3 11  1  0  0  0  0
  4 11  2  0  0  0  0
  4  1  1  0  0  0  0
  5  2  2  0  0  0  0
  6  7  1  0  0  0  0
  6  9  1  1  0  0  0
  6  2  1  0  0  0  0
  7 12  2  0  0  0  0
 10  8  2  0  0  0  0
 11  5  1  0  0  0  0
 12 23  1  0  0  0  0
 12  8  1  0  0  0  0
 13 16  1  0  0  0  0
 15 14  1  0  0  0  0
 16 14  1  0  0  0  0
 16  7  1  0  0  0  0
 17 13  1  0  0  0  0
 17 15  1  0  0  0  0
 18 17  1  0  0  0  0
 19 21  1  0  0  0  0
 19 22  1  0  0  0  0
 20 18  1  0  0  0  0
 21 20  1  0  0  0  0
 22 20  1  0  0  0  0
 23 24  1  0  0  0  0
 24 25  2  0  0  0  0
 26 24  1  0  0  0  0
 27 26  1  0  0  0  0
 28 31  1  1  0  0  0
 28 30  1  0  0  0  0
 28 27  1  0  0  0  0
 30 29  2  0  0  0  0
 32 31  1  0  0  0  0
 33 34  1  0  0  0  0
 34 32  1  0  0  0  0
M  END
>  <MODEL>
5

>  <REMARK>
 VINA RESULT:      -6.5      2.427      5.192
  Name = 
  11 active torsions:
  status: ('A' for Active; 'I' for Inactive)
    1  A    between atoms: N_2  and  C_34
    2  A    between atoms: C_6  and  C_33
    3  A    between atoms: C_9  and  C_23
    4  A    between atoms: C_13  and  C_27
    5  A    between atoms: C_13  and  C_29
    6  A    between atoms: O_15  and  C_29
    7  A    between atoms: N_18  and  C_21
    8  A    between atoms: C_19  and  C_27
    9  A    between atoms: C_19  and  C_33
   10  A    between atoms: C_23  and  N_32
   11  A    between atoms: C_27  and  C_28
                            x       y       z     vdW  Elec       q    Type
                         _______ _______ _______ _____ _____    ______ ____

>  <TORSDO>
F 11

$$$$
=
 OpenBabel11042416093D

 34 37  0  0  1  0  0  0  0  0999 V2000
  192.0940  172.9300  139.1160 C   0  0  0  0  0  3  0  0  0  0  0  0
  189.1420  173.3900  138.8310 C   0  0  0  0  0  0  0  0  0  0  0  0
  190.3070  170.5750  136.7490 C   0  0  0  0  0  1  0  0  0  0  0  0
  191.6650  171.8730  138.2400 N   0  0  0  0  0  0  0  0  0  0  0  0
  189.4440  172.6910  137.7810 N   0  0  0  0  0  0  0  0  0  0  0  0
  189.8580  173.1760  140.1350 C   0  0  2  0  0  3  0  0  0  0  0  0
  189.2300  173.9090  141.3060 C   0  0  0  0  0  0  0  0  0  0  0  0
  187.7930  175.1350  139.7350 C   0  0  0  0  0  3  0  0  0  0  0  0
  191.2890  173.5630  139.9680 C   0  0  0  0  0  3  0  0  0  0  0  0
  188.1640  174.4250  138.7170 N   0  0  0  0  0  0  0  0  0  0  0  0
  190.4920  171.7100  137.6910 C   0  0  0  0  0  0  0  0  0  0  0  0
  188.3240  174.8940  141.0940 C   0  0  0  0  0  0  0  0  0  0  0  0
  190.7470  174.1390  143.3420 C   0  0  0  0  0  2  0  0  0  0  0  0
  189.1910  172.3390  143.3260 C   0  0  0  0  0  2  0  0  0  0  0  0
  189.9960  172.3070  144.6040 C   0  0  0  0  0  2  0  0  0  0  0  0
  189.6310  173.5340  142.6440 N   0  0  0  0  0  0  0  0  0  0  0  0
  191.0630  173.3020  144.4950 N   0  0  0  0  0  0  0  0  0  0  0  0
  190.9810  174.1560  145.6710 C   0  0  0  0  0  2  0  0  0  0  0  0
  189.5770  176.6820  147.0050 C   0  0  0  0  0  2  0  0  0  0  0  0
  190.0160  175.3050  145.4150 C   0  0  0  0  0  3  0  0  0  0  0  0
  188.9770  175.3760  146.5200 C   0  0  0  0  0  2  0  0  0  0  0  0
  190.6210  176.6060  145.9070 C   0  0  0  0  0  2  0  0  0  0  0  0
  187.8580  175.6930  142.1940 N   0  0  0  0  0  2  0  0  0  0  0  0
  188.3430  176.9790  142.6020 C   0  0  0  0  0  0  0  0  0  0  0  0
  189.3010  177.5380  142.0080 O   0  0  0  0  0  0  0  0  0  0  0  0
  187.7230  177.6460  143.7760 C   0  0  0  0  0  2  0  0  0  0  0  0
  186.3810  177.0030  144.0790 C   0  0  0  0  0  2  0  0  0  0  0  0
  185.2700  178.0440  144.0420 C   0  0  2  0  0  3  0  0  0  0  0  0
  184.5000  177.9550  141.7970 O   0  0  0  0  0  0  0  0  0  0  0  0
  185.0960  178.5880  142.6550 C   0  0  0  0  0  3  0  0  0  0  0  0
  185.5680  179.1800  145.0140 C   0  0  0  0  0  2  0  0  0  0  0  0
  185.1010  178.8400  146.4220 C   0  0  0  0  0  2  0  0  0  0  0  0
  185.9680  177.2500  147.6830 C   0  0  0  0  0  1  0  0  0  0  0  0
  186.2000  178.5490  147.2340 O   0  0  0  0  0  0  0  0  0  0  0  0
  1  9  2  0  0  0  0
  2  6  1  0  0  0  0
  3 11  1  0  0  0  0
  4  1  1  0  0  0  0
  5  2  2  0  0  0  0
  6  9  1  6  0  0  0
  6  7  1  0  0  0  0
  7 16  1  0  0  0  0
  8 12  1  0  0  0  0
 10  2  1  0  0  0  0
 10  8  2  0  0  0  0
 11  5  1  0  0  0  0
 11  4  2  0  0  0  0
 12  7  2  0  0  0  0
 12 23  1  0  0  0  0
 13 17  1  0  0  0  0
 14 15  1  0  0  0  0
 16 14  1  0  0  0  0
 16 13  1  0  0  0  0
 17 15  1  0  0  0  0
 17 18  1  0  0  0  0
 20 18  1  0  0  0  0
 20 22  1  0  0  0  0
 20 21  1  0  0  0  0
 21 19  1  0  0  0  0
 22 19  1  0  0  0  0
 23 24  1  0  0  0  0
 24 26  1  0  0  0  0
 25 24  2  0  0  0  0
 26 27  1  0  0  0  0
 28 30  1  6  0  0  0
 28 27  1  0  0  0  0
 28 31  1  0  0  0  0
 29 30  2  0  0  0  0
 31 32  1  0  0  0  0
 32 34  1  0  0  0  0
 34 33  1  0  0  0  0
M  END
>  <MODEL>
6

>  <REMARK>
 VINA RESULT:      -6.4      2.852      5.516
  Name = 
  11 active torsions:
  status: ('A' for Active; 'I' for Inactive)
    1  A    between atoms: N_2  and  C_34
    2  A    between atoms: C_6  and  C_33
    3  A    between atoms: C_9  and  C_23
    4  A    between atoms: C_13  and  C_27
    5  A    between atoms: C_13  and  C_29
    6  A    between atoms: O_15  and  C_29
    7  A    between atoms: N_18  and  C_21
    8  A    between atoms: C_19  and  C_27
    9  A    between atoms: C_19  and  C_33
   10  A    between atoms: C_23  and  N_32
   11  A    between atoms: C_27  and  C_28
                            x       y       z     vdW  Elec       q    Type
                         _______ _______ _______ _____ _____    ______ ____

>  <TORSDO>
F 11

$$$$
=
 OpenBabel11042416093D

 34 37  0  0  1  0  0  0  0  0999 V2000
  185.4340  178.2270  140.2370 C   0  0  0  0  0  3  0  0  0  0  0  0
  185.3120  178.0030  143.2270 C   0  0  0  0  0  0  0  0  0  0  0  0
  181.9540  178.3020  141.7270 C   0  0  0  0  0  1  0  0  0  0  0  0
  184.0250  178.2040  140.5210 N   0  0  0  0  0  0  0  0  0  0  0  0
  184.1550  178.4980  142.9110 N   0  0  0  0  0  0  0  0  0  0  0  0
  186.0110  177.0310  142.3180 C   0  0  2  0  0  3  0  0  0  0  0  0
  187.2340  176.3820  142.9410 C   0  0  0  0  0  0  0  0  0  0  0  0
  187.0920  177.9690  144.8100 C   0  0  0  0  0  3  0  0  0  0  0  0
  186.3650  177.7270  141.0480 C   0  0  0  0  0  3  0  0  0  0  0  0
  185.9540  178.4500  144.4220 N   0  0  0  0  0  0  0  0  0  0  0  0
  183.4390  178.2590  141.6870 C   0  0  0  0  0  0  0  0  0  0  0  0
  187.7850  176.8940  144.0680 C   0  0  0  0  0  0  0  0  0  0  0  0
  188.8010  175.2840  141.2570 C   0  0  0  0  0  2  0  0  0  0  0  0
  187.2290  173.8870  142.3710 C   0  0  0  0  0  2  0  0  0  0  0  0
  188.0600  173.0610  141.4170 C   0  0  0  0  0  2  0  0  0  0  0  0
  187.7940  175.2150  142.2960 N   0  0  0  0  0  0  0  0  0  0  0  0
  188.8780  173.9740  140.6170 N   0  0  0  0  0  0  0  0  0  0  0  0
  190.2590  173.5300  140.7290 C   0  0  0  0  0  2  0  0  0  0  0  0
  192.7280  173.3480  142.7300 C   0  0  0  0  0  2  0  0  0  0  0  0
  190.9270  174.1980  141.9230 C   0  0  0  0  0  3  0  0  0  0  0  0
  191.2450  173.1680  142.9910 C   0  0  0  0  0  2  0  0  0  0  0  0
  192.4100  174.3690  141.6540 C   0  0  0  0  0  2  0  0  0  0  0  0
  189.0320  176.3780  144.5590 N   0  0  0  0  0  2  0  0  0  0  0  0
  190.3160  177.0130  144.5100 C   0  0  0  0  0  0  0  0  0  0  0  0
  190.4720  178.1390  143.9700 O   0  0  0  0  0  0  0  0  0  0  0  0
  191.4950  176.3070  145.0760 C   0  0  0  0  0  2  0  0  0  0  0  0
  192.7570  176.7790  144.3770 C   0  0  0  0  0  2  0  0  0  0  0  0
  193.9640  175.9870  144.8630 C   0  0  2  0  0  3  0  0  0  0  0  0
  194.1850  177.1840  146.9020 O   0  0  0  0  0  0  0  0  0  0  0  0
  194.1080  176.0960  146.3520 C   0  0  0  0  0  3  0  0  0  0  0  0
  195.2360  176.4760  144.1800 C   0  0  0  0  0  2  0  0  0  0  0  0
  195.8470  175.3900  143.3060 C   0  0  0  0  0  2  0  0  0  0  0  0
  195.3440  176.4300  141.4260 C   0  0  0  0  0  1  0  0  0  0  0  0
  196.4260  175.9580  142.1690 O   0  0  0  0  0  0  0  0  0  0  0  0
  1  4  1  0  0  0  0
  1  9  2  0  0  0  0
  2 10  1  0  0  0  0
  4 11  2  0  0  0  0
  5  2  2  0  0  0  0
  6  9  1  6  0  0  0
  6  7  1  0  0  0  0
  6  2  1  0  0  0  0
  7 12  2  0  0  0  0
 10  8  2  0  0  0  0
 11  3  1  0  0  0  0
 11  5  1  0  0  0  0
 12 23  1  0  0  0  0
 12  8  1  0  0  0  0
 13 16  1  0  0  0  0
 15 14  1  0  0  0  0
 16 14  1  0  0  0  0
 16  7  1  0  0  0  0
 17 18  1  0  0  0  0
 17 13  1  0  0  0  0
 17 15  1  0  0  0  0
 18 20  1  0  0  0  0
 19 21  1  0  0  0  0
 20 21  1  0  0  0  0
 22 20  1  0  0  0  0
 22 19  1  0  0  0  0
 24 23  1  0  0  0  0
 24 26  1  0  0  0  0
 25 24  2  0  0  0  0
 27 28  1  0  0  0  0
 27 26  1  0  0  0  0
 28 31  1  6  0  0  0
 28 30  1  0  0  0  0
 30 29  2  0  0  0  0
 32 31  1  0  0  0  0
 33 34  1  0  0  0  0
 34 32  1  0  0  0  0
M  END
>  <MODEL>
7

>  <REMARK>
 VINA RESULT:      -6.4      2.990      8.830
  Name = 
  11 active torsions:
  status: ('A' for Active; 'I' for Inactive)
    1  A    between atoms: N_2  and  C_34
    2  A    between atoms: C_6  and  C_33
    3  A    between atoms: C_9  and  C_23
    4  A    between atoms: C_13  and  C_27
    5  A    between atoms: C_13  and  C_29
    6  A    between atoms: O_15  and  C_29
    7  A    between atoms: N_18  and  C_21
    8  A    between atoms: C_19  and  C_27
    9  A    between atoms: C_19  and  C_33
   10  A    between atoms: C_23  and  N_32
   11  A    between atoms: C_27  and  C_28
                            x       y       z     vdW  Elec       q    Type
                         _______ _______ _______ _____ _____    ______ ____

>  <TORSDO>
F 11

$$$$
=
 OpenBabel11042416093D

 34 37  0  0  1  0  0  0  0  0999 V2000
  187.8210  178.2900  141.7890 C   0  0  0  0  0  3  0  0  0  0  0  0
  187.7210  177.4570  144.6700 C   0  0  0  0  0  0  0  0  0  0  0  0
  184.4230  178.5610  143.4370 C   0  0  0  0  0  1  0  0  0  0  0  0
  186.4310  178.4160  142.1340 N   0  0  0  0  0  0  0  0  0  0  0  0
  186.6490  178.1740  144.5220 N   0  0  0  0  0  0  0  0  0  0  0  0
  188.2440  176.6080  143.5460 C   0  0  2  0  0  3  0  0  0  0  0  0
  189.3620  175.6680  143.9580 C   0  0  0  0  0  0  0  0  0  0  0  0
  189.5030  176.8250  146.1200 C   0  0  0  0  0  3  0  0  0  0  0  0
  188.6780  177.4980  142.4310 C   0  0  0  0  0  3  0  0  0  0  0  0
  188.4460  177.5410  145.8970 N   0  0  0  0  0  0  0  0  0  0  0  0
  185.8820  178.3090  143.3140 C   0  0  0  0  0  0  0  0  0  0  0  0
  190.0070  175.8420  145.1380 C   0  0  0  0  0  0  0  0  0  0  0  0
  190.8820  174.6360  142.1920 C   0  0  0  0  0  2  0  0  0  0  0  0
  188.8430  173.5110  142.6830 C   0  0  0  0  0  2  0  0  0  0  0  0
  189.6010  172.7540  141.6170 C   0  0  0  0  0  2  0  0  0  0  0  0
  189.7220  174.5950  143.0580 N   0  0  0  0  0  0  0  0  0  0  0  0
  190.7460  173.5670  141.2060 N   0  0  0  0  0  0  0  0  0  0  0  0
  191.9330  172.7340  141.3200 C   0  0  0  0  0  2  0  0  0  0  0  0
  194.7090  172.2830  142.8110 C   0  0  0  0  0  2  0  0  0  0  0  0
  192.8190  173.2390  142.4510 C   0  0  0  0  0  3  0  0  0  0  0  0
  193.2910  172.0780  143.3080 C   0  0  0  0  0  2  0  0  0  0  0  0
  194.2350  173.4360  141.9470 C   0  0  0  0  0  2  0  0  0  0  0  0
  191.1680  175.0550  145.4470 N   0  0  0  0  0  2  0  0  0  0  0  0
  192.5270  175.5040  145.5290 C   0  0  0  0  0  0  0  0  0  0  0  0
  192.8390  176.7000  145.2920 O   0  0  0  0  0  0  0  0  0  0  0  0
  193.5930  174.5240  145.8640 C   0  0  0  0  0  2  0  0  0  0  0  0
  194.9430  175.2180  145.8560 C   0  0  0  0  0  2  0  0  0  0  0  0
  195.9820  174.3550  145.1510 C   0  0  2  0  0  3  0  0  0  0  0  0
  197.1670  172.4840  146.0090 O   0  0  0  0  0  0  0  0  0  0  0  0
  196.8620  173.6600  146.1460 C   0  0  0  0  0  3  0  0  0  0  0  0
  196.8290  175.2010  144.2070 C   0  0  0  0  0  2  0  0  0  0  0  0
  196.0760  176.4410  143.7490 C   0  0  0  0  0  2  0  0  0  0  0  0
  196.1580  176.7300  141.5620 C   0  0  0  0  0  1  0  0  0  0  0  0
  196.7950  177.0960  142.7470 O   0  0  0  0  0  0  0  0  0  0  0  0
  1  4  1  0  0  0  0
  1  9  2  0  0  0  0
  2 10  1  0  0  0  0
  4 11  2  0  0  0  0
  5  2  2  0  0  0  0
  6  9  1  6  0  0  0
  6  7  1  0  0  0  0
  6  2  1  0  0  0  0
  7 12  2  0  0  0  0
 10  8  2  0  0  0  0
 11  3  1  0  0  0  0
 11  5  1  0  0  0  0
 12 23  1  0  0  0  0
 12  8  1  0  0  0  0
 13 16  1  0  0  0  0
 14 16  1  0  0  0  0
 15 14  1  0  0  0  0
 16  7  1  0  0  0  0
 17 18  1  0  0  0  0
 17 15  1  0  0  0  0
 17 13  1  0  0  0  0
 18 20  1  0  0  0  0
 19 21  1  0  0  0  0
 20 21  1  0  0  0  0
 22 20  1  0  0  0  0
 22 19  1  0  0  0  0
 23 24  1  0  0  0  0
 24 26  1  0  0  0  0
 25 24  2  0  0  0  0
 27 26  1  0  0  0  0
 28 31  1  6  0  0  0
 28 27  1  0  0  0  0
 28 30  1  0  0  0  0
 29 30  2  0  0  0  0
 32 31  1  0  0  0  0
 33 34  1  0  0  0  0
 34 32  1  0  0  0  0
M  END
>  <MODEL>
8

>  <REMARK>
 VINA RESULT:      -6.4      3.299      9.017
  Name = 
  11 active torsions:
  status: ('A' for Active; 'I' for Inactive)
    1  A    between atoms: N_2  and  C_34
    2  A    between atoms: C_6  and  C_33
    3  A    between atoms: C_9  and  C_23
    4  A    between atoms: C_13  and  C_27
    5  A    between atoms: C_13  and  C_29
    6  A    between atoms: O_15  and  C_29
    7  A    between atoms: N_18  and  C_21
    8  A    between atoms: C_19  and  C_27
    9  A    between atoms: C_19  and  C_33
   10  A    between atoms: C_23  and  N_32
   11  A    between atoms: C_27  and  C_28
                            x       y       z     vdW  Elec       q    Type
                         _______ _______ _______ _____ _____    ______ ____

>  <TORSDO>
F 11

$$$$
=
 OpenBabel11042416093D

 34 37  0  0  1  0  0  0  0  0999 V2000
  185.0190  178.6370  140.3220 C   0  0  0  0  0  3  0  0  0  0  0  0
  184.5020  178.3450  143.2630 C   0  0  0  0  0  0  0  0  0  0  0  0
  181.4160  177.9680  141.2750 C   0  0  0  0  0  1  0  0  0  0  0  0
  183.6180  178.3190  140.3930 N   0  0  0  0  0  0  0  0  0  0  0  0
  183.3280  178.5950  142.7710 N   0  0  0  0  0  0  0  0  0  0  0  0
  185.5140  177.5530  142.4840 C   0  0  2  0  0  3  0  0  0  0  0  0
  186.7370  177.1610  143.2920 C   0  0  0  0  0  0  0  0  0  0  0  0
  185.9940  178.6540  145.0950 C   0  0  0  0  0  3  0  0  0  0  0  0
  185.9020  178.3270  141.2700 C   0  0  0  0  0  3  0  0  0  0  0  0
  184.8520  178.8950  144.5330 N   0  0  0  0  0  0  0  0  0  0  0  0
  182.8670  178.2330  141.4580 C   0  0  0  0  0  0  0  0  0  0  0  0
  186.9960  177.7570  144.4810 C   0  0  0  0  0  0  0  0  0  0  0  0
  187.2910  174.7330  142.7490 C   0  0  0  0  0  2  0  0  0  0  0  0
  189.0130  176.3480  142.4490 C   0  0  0  0  0  2  0  0  0  0  0  0
  189.5290  174.9770  142.0810 C   0  0  0  0  0  2  0  0  0  0  0  0
  187.6160  176.1440  142.7560 N   0  0  0  0  0  0  0  0  0  0  0  0
  188.5150  173.9910  142.4570 N   0  0  0  0  0  0  0  0  0  0  0  0
  188.2440  173.1770  141.2810 C   0  0  0  0  0  2  0  0  0  0  0  0
  188.7050  172.8750  138.1460 C   0  0  0  0  0  2  0  0  0  0  0  0
  189.0980  173.6490  140.1120 C   0  0  0  0  0  3  0  0  0  0  0  0
  189.5890  172.4590  139.3070 C   0  0  0  0  0  2  0  0  0  0  0  0
  188.2060  174.0580  138.9560 C   0  0  0  0  0  2  0  0  0  0  0  0
  188.2370  177.5020  145.1600 N   0  0  0  0  0  2  0  0  0  0  0  0
  188.4470  176.6540  146.2970 C   0  0  0  0  0  0  0  0  0  0  0  0
  187.4930  176.0460  146.8480 O   0  0  0  0  0  0  0  0  0  0  0  0
  189.8180  176.5230  146.8570 C   0  0  0  0  0  2  0  0  0  0  0  0
  190.3540  175.1320  146.5730 C   0  0  0  0  0  2  0  0  0  0  0  0
  191.4760  175.1930  145.5440 C   0  0  2  0  0  3  0  0  0  0  0  0
  191.0520  173.0380  144.6390 O   0  0  0  0  0  0  0  0  0  0  0  0
  191.8720  173.8150  145.1060 C   0  0  0  0  0  3  0  0  0  0  0  0
  192.6850  175.9260  146.1130 C   0  0  0  0  0  2  0  0  0  0  0  0
  193.4300  176.6900  145.0280 C   0  0  0  0  0  2  0  0  0  0  0  0
  195.2350  175.5850  145.6540 C   0  0  0  0  0  1  0  0  0  0  0  0
  194.7640  176.8730  145.4000 O   0  0  0  0  0  0  0  0  0  0  0  0
  1  4  1  0  0  0  0
  1  9  2  0  0  0  0
  2 10  1  0  0  0  0
  3 11  1  0  0  0  0
  4 11  2  0  0  0  0
  5  2  2  0  0  0  0
  6  9  1  6  0  0  0
  6  2  1  0  0  0  0
  6  7  1  0  0  0  0
  7 12  2  0  0  0  0
 10  8  2  0  0  0  0
 11  5  1  0  0  0  0
 12  8  1  0  0  0  0
 12 23  1  0  0  0  0
 13 16  1  0  0  0  0
 14 16  1  0  0  0  0
 15 14  1  0  0  0  0
 15 17  1  0  0  0  0
 16  7  1  0  0  0  0
 17 13  1  0  0  0  0
 18 17  1  0  0  0  0
 19 22  1  0  0  0  0
 19 21  1  0  0  0  0
 20 18  1  0  0  0  0
 21 20  1  0  0  0  0
 22 20  1  0  0  0  0
 23 24  1  0  0  0  0
 24 25  2  0  0  0  0
 24 26  1  0  0  0  0
 27 26  1  0  0  0  0
 28 30  1  1  0  0  0
 28 31  1  0  0  0  0
 28 27  1  0  0  0  0
 29 30  2  0  0  0  0
 32 34  1  0  0  0  0
 32 31  1  0  0  0  0
 34 33  1  0  0  0  0
M  END
>  <MODEL>
9

>  <REMARK>
 VINA RESULT:      -6.3      3.146      8.948
  Name = 
  11 active torsions:
  status: ('A' for Active; 'I' for Inactive)
    1  A    between atoms: N_2  and  C_34
    2  A    between atoms: C_6  and  C_33
    3  A    between atoms: C_9  and  C_23
    4  A    between atoms: C_13  and  C_27
    5  A    between atoms: C_13  and  C_29
    6  A    between atoms: O_15  and  C_29
    7  A    between atoms: N_18  and  C_21
    8  A    between atoms: C_19  and  C_27
    9  A    between atoms: C_19  and  C_33
   10  A    between atoms: C_23  and  N_32
   11  A    between atoms: C_27  and  C_28
                            x       y       z     vdW  Elec       q    Type
                         _______ _______ _______ _____ _____    ______ ____

>  <TORSDO>
F 11

$$$$
