=
 OpenBabel11042416533D

 35 43  0  0  1  0  0  0  0  0999 V2000
  190.9160  175.6940  144.4890 C   0  0  0  0  0  0  0  0  0  0  0  0
  191.9780  176.6150  144.9100 C   0  0  0  0  0  0  0  0  0  0  0  0
  191.0660  174.5970  143.7070 C   0  0  0  0  0  3  0  0  0  0  0  0
  191.0600  176.4280  147.8480 C   0  0  2  0  0  3  0  0  0  0  0  0
  188.9680  177.3700  146.9510 O   0  0  0  0  0  0  0  0  0  0  0  0
  190.6480  176.7990  145.3020 C   0  0  2  0  0  0  0  0  0  0  0  0
  192.4510  174.4420  143.3260 C   0  0  0  0  0  0  0  0  0  0  0  0
  193.5150  175.3720  143.7580 C   0  0  0  0  0  0  0  0  0  0  0  0
  190.1040  176.5740  146.6840 C   0  0  1  0  0  0  0  0  0  0  0  0
  191.6320  175.0220  147.8480 C   0  0  0  0  0  2  0  0  0  0  0  0
  189.7890  177.8340  144.7580 C   0  0  0  0  0  0  0  0  0  0  0  0
  190.1970  175.2500  147.4110 C   0  0  1  0  0  3  0  0  0  0  0  0
  188.7410  178.1600  145.7800 C   0  0  1  0  0  3  0  0  0  0  0  0
  193.2920  176.5280  144.5870 C   0  0  0  0  0  3  0  0  0  0  0  0
  189.9150  178.3810  143.6740 O   0  0  0  0  0  0  0  0  0  0  0  0
  185.0610  178.1070  146.1000 C   0  0  2  0  0  3  0  0  0  0  0  0
  185.0810  179.1990  145.0190 C   0  0  1  0  0  3  0  0  0  0  0  0
  186.3390  178.9010  145.8480 C   0  0  2  0  0  3  0  0  0  0  0  0
  187.3360  177.9280  145.2240 C   0  0  2  0  0  3  0  0  0  0  0  0
  186.8220  176.5300  145.5060 C   0  0  0  0  0  2  0  0  0  0  0  0
  185.3260  176.6810  145.6200 C   0  0  0  0  0  2  0  0  0  0  0  0
  185.0890  178.0390  140.8640 C   0  0  0  0  0  3  0  0  0  0  0  0
  183.9010  178.3580  142.9490 C   0  0  0  0  0  3  0  0  0  0  0  0
  186.2780  178.8020  142.8300 C   0  0  0  0  0  3  0  0  0  0  0  0
  185.0950  178.7330  143.5810 C   0  0  0  0  0  0  0  0  0  0  0  0
  186.2770  178.4440  141.4790 C   0  0  0  0  0  3  0  0  0  0  0  0
  183.9000  178.0010  141.5970 C   0  0  0  0  0  3  0  0  0  0  0  0
  192.8620  171.9620  142.9040 C   0  0  0  0  0  0  0  0  0  0  0  0
  193.2020  170.8190  142.2870 N   0  0  0  0  0  0  0  0  0  0  0  0
  192.8940  170.0570  143.4730 C   0  0  0  0  0  2  0  0  0  0  0  0
  192.8270  173.3330  142.4960 N   0  0  0  0  0  2  0  0  0  0  0  0
  192.5270  171.2170  144.1660 C   0  0  0  0  0  2  0  0  0  0  0  0
  194.9150  175.1380  143.2990 C   0  0  0  0  0  2  0  0  0  0  0  0
  195.7590  176.2140  143.7450 N   0  0  0  0  0  0  0  0  0  0  0  0
  196.7170  176.5830  143.0440 N   0  0  0  0  0  2  0  0  0  0  0  0
  1  2  1  0  0  0  0
  2  6  1  0  0  0  0
  3  1  2  0  0  0  0
  4 10  1  6  0  0  0
  6  1  1  6  0  0  0
  6  9  1  0  0  0  0
  7  3  1  0  0  0  0
  7  8  2  0  0  0  0
  8 14  1  0  0  0  0
  9  5  1  0  0  0  0
  9 12  1  0  0  0  0
  9  4  1  0  0  0  0
 11  6  1  0  0  0  0
 12 10  1  6  0  0  0
 12  4  1  0  0  0  0
 13 11  1  6  0  0  0
 13  5  1  0  0  0  0
 14  2  2  0  0  0  0
 15 11  2  0  0  0  0
 16 21  1  6  0  0  0
 17 25  1  6  0  0  0
 17 18  1  0  0  0  0
 17 16  1  0  0  0  0
 18 16  1  0  0  0  0
 19 20  1  0  0  0  0
 19 13  1  0  0  0  0
 19 18  1  0  0  0  0
 20 21  1  0  0  0  0
 22 26  2  0  0  0  0
 22 27  1  0  0  0  0
 23 25  1  0  0  0  0
 24 25  2  0  0  0  0
 26 24  1  0  0  0  0
 27 23  2  0  0  0  0
 28 32  1  0  0  0  0
 29 28  2  0  0  0  0
 29 30  1  0  0  0  0
 30 32  1  0  0  0  0
 31 28  1  0  0  0  0
 31  7  1  0  0  0  0
 33 34  1  0  0  0  0
 33  8  1  0  0  0  0
 35 34  2  0  0  0  0
M  END
>  <MODEL>
1

>  <REMARK>
 VINA RESULT:      -8.5      0.000      0.000
  Name = 
  5 active torsions:
  status: ('A' for Active; 'I' for Inactive)
    1  A    between atoms: C_11  and  C_25
    2  A    between atoms: C_13  and  N_31
    3  A    between atoms: C_15  and  C_27
    4  A    between atoms: C_16  and  C_17
    5  A    between atoms: C_17  and  N_28
                            x       y       z     vdW  Elec       q    Type
                         _______ _______ _______ _____ _____    ______ ____

>  <TORSDO>
F 5

$$$$
=
 OpenBabel11042416533D

 35 43  0  0  1  0  0  0  0  0999 V2000
  191.3860  174.5670  144.7910 C   0  0  0  0  0  0  0  0  0  0  0  0
  192.6110  175.3040  145.1250 C   0  0  0  0  0  0  0  0  0  0  0  0
  191.2890  173.2360  144.5550 C   0  0  0  0  0  3  0  0  0  0  0  0
  191.2160  176.6590  147.5180 C   0  0  2  0  0  3  0  0  0  0  0  0
  189.7340  177.5630  145.7700 O   0  0  0  0  0  0  0  0  0  0  0  0
  191.3740  175.9470  145.0160 C   0  0  2  0  0  0  0  0  0  0  0  0
  192.5850  172.6100  144.6780 C   0  0  0  0  0  0  0  0  0  0  0  0
  193.8120  173.3600  145.0190 C   0  0  0  0  0  0  0  0  0  0  0  0
  190.5670  176.4920  146.1610 C   0  0  1  0  0  0  0  0  0  0  0  0
  191.2780  175.3090  148.2090 C   0  0  0  0  0  2  0  0  0  0  0  0
  191.0100  176.8010  143.9020 C   0  0  0  0  0  0  0  0  0  0  0  0
  190.0940  175.6460  147.3230 C   0  0  1  0  0  3  0  0  0  0  0  0
  189.9790  177.7800  144.3770 C   0  0  1  0  0  3  0  0  0  0  0  0
  193.8540  174.7800  145.2530 C   0  0  0  0  0  3  0  0  0  0  0  0
  191.4860  176.7640  142.7780 O   0  0  0  0  0  0  0  0  0  0  0  0
  187.8310  176.1280  141.8650 C   0  0  2  0  0  3  0  0  0  0  0  0
  186.8690  175.8830  143.0390 C   0  0  1  0  0  3  0  0  0  0  0  0
  188.3500  176.1960  143.2980 C   0  0  2  0  0  3  0  0  0  0  0  0
  188.6870  177.6600  143.5670 C   0  0  2  0  0  3  0  0  0  0  0  0
  188.7820  178.3450  142.2180 C   0  0  0  0  0  2  0  0  0  0  0  0
  187.8700  177.5530  141.3150 C   0  0  0  0  0  2  0  0  0  0  0  0
  183.9320  178.9000  143.9740 C   0  0  0  0  0  3  0  0  0  0  0  0
  185.0080  177.4510  142.3600 C   0  0  0  0  0  3  0  0  0  0  0  0
  185.7430  177.4520  144.6680 C   0  0  0  0  0  3  0  0  0  0  0  0
  185.8820  176.9850  143.3520 C   0  0  0  0  0  0  0  0  0  0  0  0
  184.7780  178.4160  144.9750 C   0  0  0  0  0  3  0  0  0  0  0  0
  184.0430  178.4150  142.6690 C   0  0  0  0  0  3  0  0  0  0  0  0
  192.3230  170.4940  143.2820 C   0  0  0  0  0  0  0  0  0  0  0  0
  192.3370  169.1990  142.9250 N   0  0  0  0  0  0  0  0  0  0  0  0
  191.8100  169.5270  141.6210 C   0  0  0  0  0  2  0  0  0  0  0  0
  192.7000  171.1950  144.4700 N   0  0  0  0  0  2  0  0  0  0  0  0
  191.7740  170.8900  141.9400 C   0  0  0  0  0  2  0  0  0  0  0  0
  195.1090  172.6280  145.1070 C   0  0  0  0  0  2  0  0  0  0  0  0
  196.1520  173.5340  145.5060 N   0  0  0  0  0  0  0  0  0  0  0  0
  197.0430  173.1520  146.2840 N   0  0  0  0  0  2  0  0  0  0  0  0
  1  6  1  0  0  0  0
  1  2  1  0  0  0  0
  2 14  2  0  0  0  0
  3  7  1  0  0  0  0
  3  1  2  0  0  0  0
  4 10  1  6  0  0  0
  5  9  1  0  0  0  0
  6 11  1  6  0  0  0
  6  2  1  0  0  0  0
  6  9  1  0  0  0  0
  7  8  2  0  0  0  0
  8 33  1  0  0  0  0
  8 14  1  0  0  0  0
  9 12  1  0  0  0  0
  9  4  1  0  0  0  0
 12  4  1  0  0  0  0
 12 10  1  6  0  0  0
 13 11  1  6  0  0  0
 13  5  1  0  0  0  0
 15 11  2  0  0  0  0
 16 21  1  1  0  0  0
 16 17  1  0  0  0  0
 16 18  1  0  0  0  0
 17 18  1  0  0  0  0
 17 25  1  1  0  0  0
 18 19  1  0  0  0  0
 19 13  1  0  0  0  0
 20 19  1  0  0  0  0
 21 20  1  0  0  0  0
 22 26  1  0  0  0  0
 23 27  1  0  0  0  0
 23 25  2  0  0  0  0
 24 26  2  0  0  0  0
 25 24  1  0  0  0  0
 27 22  2  0  0  0  0
 28 31  1  0  0  0  0
 29 28  2  0  0  0  0
 30 32  1  0  0  0  0
 30 29  1  0  0  0  0
 31  7  1  0  0  0  0
 32 28  1  0  0  0  0
 33 34  1  0  0  0  0
 34 35  2  0  0  0  0
M  END
>  <MODEL>
2

>  <REMARK>
 VINA RESULT:      -8.3      1.905      2.722
  Name = 
  5 active torsions:
  status: ('A' for Active; 'I' for Inactive)
    1  A    between atoms: C_11  and  C_25
    2  A    between atoms: C_13  and  N_31
    3  A    between atoms: C_15  and  C_27
    4  A    between atoms: C_16  and  C_17
    5  A    between atoms: C_17  and  N_28
                            x       y       z     vdW  Elec       q    Type
                         _______ _______ _______ _____ _____    ______ ____

>  <TORSDO>
F 5

$$$$
=
 OpenBabel11042416533D

 35 43  0  0  1  0  0  0  0  0999 V2000
  192.0510  175.2650  144.3890 C   0  0  0  0  0  0  0  0  0  0  0  0
  193.0690  176.1990  144.8840 C   0  0  0  0  0  0  0  0  0  0  0  0
  192.2730  174.0220  143.8980 C   0  0  0  0  0  3  0  0  0  0  0  0
  191.4540  176.6870  147.4650 C   0  0  2  0  0  3  0  0  0  0  0  0
  189.7490  177.5230  145.8950 O   0  0  0  0  0  0  0  0  0  0  0  0
  191.7110  176.5300  144.8770 C   0  0  2  0  0  0  0  0  0  0  0  0
  193.6850  173.7180  143.9250 C   0  0  0  0  0  0  0  0  0  0  0  0
  194.7030  174.6640  144.4290 C   0  0  0  0  0  0  0  0  0  0  0  0
  190.8280  176.6320  146.0880 C   0  0  1  0  0  0  0  0  0  0  0  0
  191.8600  175.2860  147.8830 C   0  0  0  0  0  2  0  0  0  0  0  0
  191.1200  177.4680  143.9420 C   0  0  0  0  0  0  0  0  0  0  0  0
  190.6060  175.4890  147.0550 C   0  0  1  0  0  3  0  0  0  0  0  0
  189.8960  178.0570  144.5750 C   0  0  1  0  0  3  0  0  0  0  0  0
  194.4060  175.9790  144.9350 C   0  0  0  0  0  3  0  0  0  0  0  0
  191.5610  177.7650  142.8420 O   0  0  0  0  0  0  0  0  0  0  0  0
  187.9310  176.0190  142.2000 C   0  0  2  0  0  3  0  0  0  0  0  0
  186.9230  175.8830  143.3530 C   0  0  1  0  0  3  0  0  0  0  0  0
  188.3770  176.2860  143.6340 C   0  0  2  0  0  3  0  0  0  0  0  0
  188.6500  177.7840  143.7300 C   0  0  2  0  0  3  0  0  0  0  0  0
  188.7870  178.2980  142.3110 C   0  0  0  0  0  2  0  0  0  0  0  0
  187.9480  177.3630  141.4760 C   0  0  0  0  0  2  0  0  0  0  0  0
  183.8380  178.8720  143.7540 C   0  0  0  0  0  3  0  0  0  0  0  0
  185.1030  177.3380  142.3730 C   0  0  0  0  0  3  0  0  0  0  0  0
  185.6030  177.5360  144.7350 C   0  0  0  0  0  3  0  0  0  0  0  0
  185.8840  176.9750  143.4790 C   0  0  0  0  0  0  0  0  0  0  0  0
  184.5900  178.4910  144.8690 C   0  0  0  0  0  3  0  0  0  0  0  0
  184.0900  178.2930  142.5080 C   0  0  0  0  0  3  0  0  0  0  0  0
  194.3640  171.2850  144.2610 C   0  0  0  0  0  0  0  0  0  0  0  0
  194.7970  170.0400  144.0010 N   0  0  0  0  0  0  0  0  0  0  0  0
  194.6680  169.6770  145.3920 C   0  0  0  0  0  2  0  0  0  0  0  0
  194.1350  172.4400  143.4500 N   0  0  0  0  0  2  0  0  0  0  0  0
  194.2120  170.9600  145.7200 C   0  0  0  0  0  2  0  0  0  0  0  0
  196.1410  174.2660  144.4020 C   0  0  0  0  0  2  0  0  0  0  0  0
  196.6420  174.1610  145.7450 N   0  0  0  0  0  0  0  0  0  0  0  0
  197.1080  173.0820  146.1510 N   0  0  0  0  0  2  0  0  0  0  0  0
  1  6  1  0  0  0  0
  1  2  1  0  0  0  0
  2 14  2  0  0  0  0
  3  7  1  0  0  0  0
  3  1  2  0  0  0  0
  4 10  1  6  0  0  0
  5  9  1  0  0  0  0
  6 11  1  6  0  0  0
  6  2  1  0  0  0  0
  6  9  1  0  0  0  0
  7  8  2  0  0  0  0
  8 14  1  0  0  0  0
  9 12  1  0  0  0  0
  9  4  1  0  0  0  0
 12  4  1  0  0  0  0
 12 10  1  6  0  0  0
 13 11  1  6  0  0  0
 13  5  1  0  0  0  0
 15 11  2  0  0  0  0
 16 21  1  6  0  0  0
 16 17  1  0  0  0  0
 16 18  1  0  0  0  0
 17 25  1  6  0  0  0
 17 18  1  0  0  0  0
 18 19  1  0  0  0  0
 19 13  1  0  0  0  0
 20 19  1  0  0  0  0
 21 20  1  0  0  0  0
 22 26  1  0  0  0  0
 23 27  1  0  0  0  0
 23 25  2  0  0  0  0
 24 26  2  0  0  0  0
 25 24  1  0  0  0  0
 27 22  2  0  0  0  0
 28 32  1  0  0  0  0
 29 28  2  0  0  0  0
 29 30  1  0  0  0  0
 30 32  1  0  0  0  0
 31  7  1  0  0  0  0
 31 28  1  0  0  0  0
 33  8  1  0  0  0  0
 33 34  1  0  0  0  0
 34 35  2  0  0  0  0
M  END
>  <MODEL>
3

>  <REMARK>
 VINA RESULT:      -8.1      1.815      2.567
  Name = 
  5 active torsions:
  status: ('A' for Active; 'I' for Inactive)
    1  A    between atoms: C_11  and  C_25
    2  A    between atoms: C_13  and  N_31
    3  A    between atoms: C_15  and  C_27
    4  A    between atoms: C_16  and  C_17
    5  A    between atoms: C_17  and  N_28
                            x       y       z     vdW  Elec       q    Type
                         _______ _______ _______ _____ _____    ______ ____

>  <TORSDO>
F 5

$$$$
=
 OpenBabel11042416533D

 35 43  0  0  1  0  0  0  0  0999 V2000
  192.6930  175.0590  144.2420 C   0  0  0  0  0  0  0  0  0  0  0  0
  192.8780  174.1910  145.4100 C   0  0  0  0  0  0  0  0  0  0  0  0
  193.6730  175.6700  143.5310 C   0  0  0  0  0  3  0  0  0  0  0  0
  191.0450  172.0400  144.1780 C   0  0  2  0  0  3  0  0  0  0  0  0
  189.3550  173.8280  144.2920 O   0  0  0  0  0  0  0  0  0  0  0  0
  191.6070  174.4780  144.9030 C   0  0  2  0  0  0  0  0  0  0  0  0
  194.9670  175.3470  144.0850 C   0  0  0  0  0  0  0  0  0  0  0  0
  195.1440  174.4680  145.2600 C   0  0  0  0  0  0  0  0  0  0  0  0
  190.7260  173.5190  144.1540 C   0  0  1  0  0  0  0  0  0  0  0  0
  192.1730  171.7590  143.2020 C   0  0  0  0  0  2  0  0  0  0  0  0
  190.6680  175.3710  145.5530 C   0  0  0  0  0  0  0  0  0  0  0  0
  191.1460  172.8260  142.8760 C   0  0  1  0  0  3  0  0  0  0  0  0
  189.2810  174.9720  145.1480 C   0  0  1  0  0  3  0  0  0  0  0  0
  194.0600  173.8510  145.9800 C   0  0  0  0  0  3  0  0  0  0  0  0
  190.9470  176.2700  146.3320 O   0  0  0  0  0  0  0  0  0  0  0  0
  188.0600  176.7530  142.1500 C   0  0  2  0  0  3  0  0  0  0  0  0
  186.6580  176.4830  142.7200 C   0  0  1  0  0  3  0  0  0  0  0  0
  187.8620  175.6510  143.1850 C   0  0  2  0  0  3  0  0  0  0  0  0
  188.5510  176.1270  144.4610 C   0  0  2  0  0  3  0  0  0  0  0  0
  189.4870  177.2510  144.0630 C   0  0  0  0  0  2  0  0  0  0  0  0
  188.8610  177.8600  142.8330 C   0  0  0  0  0  2  0  0  0  0  0  0
  184.9480  179.3270  145.4760 C   0  0  0  0  0  3  0  0  0  0  0  0
  185.8540  178.8090  143.2920 C   0  0  0  0  0  3  0  0  0  0  0  0
  185.7490  177.0930  144.9970 C   0  0  0  0  0  3  0  0  0  0  0  0
  186.1170  177.4950  143.7040 C   0  0  0  0  0  0  0  0  0  0  0  0
  185.1760  178.0090  145.8840 C   0  0  0  0  0  3  0  0  0  0  0  0
  185.2810  179.7250  144.1800 C   0  0  0  0  0  3  0  0  0  0  0  0
  196.8360  175.3310  142.3520 C   0  0  0  0  0  0  0  0  0  0  0  0
  197.9410  175.6800  141.6740 N   0  0  0  0  0  0  0  0  0  0  0  0
  197.7830  174.5540  140.7850 C   0  0  0  0  0  2  0  0  0  0  0  0
  196.1450  175.8910  143.4720 N   0  0  0  0  0  2  0  0  0  0  0  0
  196.6250  174.1430  141.4560 C   0  0  0  0  0  2  0  0  0  0  0  0
  196.5210  174.2060  145.7710 C   0  0  0  0  0  2  0  0  0  0  0  0
  196.8120  172.8000  145.6850 N   0  0  0  0  0  0  0  0  0  0  0  0
  197.5190  172.3670  144.7590 N   0  0  0  0  0  2  0  0  0  0  0  0
  1  2  1  0  0  0  0
  2 14  2  0  0  0  0
  3  7  1  0  0  0  0
  3  1  2  0  0  0  0
  4 10  1  1  0  0  0
  6  1  1  6  0  0  0
  6  2  1  0  0  0  0
  6 11  1  0  0  0  0
  7  8  2  0  0  0  0
  8 33  1  0  0  0  0
  8 14  1  0  0  0  0
  9  4  1  0  0  0  0
  9  5  1  0  0  0  0
  9  6  1  0  0  0  0
 11 15  2  0  0  0  0
 12 10  1  1  0  0  0
 12  9  1  0  0  0  0
 12  4  1  0  0  0  0
 13  5  1  6  0  0  0
 13 11  1  0  0  0  0
 16 17  1  0  0  0  0
 16 21  1  1  0  0  0
 16 18  1  0  0  0  0
 17 18  1  0  0  0  0
 17 25  1  1  0  0  0
 18 19  1  0  0  0  0
 19 13  1  0  0  0  0
 20 19  1  0  0  0  0
 21 20  1  0  0  0  0
 22 26  1  0  0  0  0
 23 25  2  0  0  0  0
 23 27  1  0  0  0  0
 24 26  2  0  0  0  0
 25 24  1  0  0  0  0
 27 22  2  0  0  0  0
 28 31  1  0  0  0  0
 29 28  2  0  0  0  0
 30 32  1  0  0  0  0
 30 29  1  0  0  0  0
 31  7  1  0  0  0  0
 32 28  1  0  0  0  0
 34 33  1  0  0  0  0
 35 34  2  0  0  0  0
M  END
>  <MODEL>
4

>  <REMARK>
 VINA RESULT:      -8.0      2.198      4.139
  Name = 
  5 active torsions:
  status: ('A' for Active; 'I' for Inactive)
    1  A    between atoms: C_11  and  C_25
    2  A    between atoms: C_13  and  N_31
    3  A    between atoms: C_15  and  C_27
    4  A    between atoms: C_16  and  C_17
    5  A    between atoms: C_17  and  N_28
                            x       y       z     vdW  Elec       q    Type
                         _______ _______ _______ _____ _____    ______ ____

>  <TORSDO>
F 5

$$$$
=
 OpenBabel11042416533D

 35 43  0  0  1  0  0  0  0  0999 V2000
  189.7120  175.4410  144.6430 C   0  0  0  0  0  0  0  0  0  0  0  0
  189.4480  174.9600  146.0040 C   0  0  0  0  0  0  0  0  0  0  0  0
  189.1190  176.4990  144.0370 C   0  0  0  0  0  3  0  0  0  0  0  0
  192.4660  174.8990  146.6320 C   0  0  2  0  0  3  0  0  0  0  0  0
  192.5210  173.2630  144.7920 O   0  0  0  0  0  0  0  0  0  0  0  0
  190.3830  174.3360  145.1730 C   0  0  2  0  0  0  0  0  0  0  0  0
  188.1640  177.1160  144.9280 C   0  0  0  0  0  0  0  0  0  0  0  0
  187.9080  176.6260  146.2980 C   0  0  0  0  0  0  0  0  0  0  0  0
  191.8750  174.3960  145.3330 C   0  0  1  0  0  0  0  0  0  0  0  0
  192.4060  176.4150  146.6530 C   0  0  0  0  0  2  0  0  0  0  0  0
  190.1580  173.0520  144.5360 C   0  0  0  0  0  0  0  0  0  0  0  0
  192.6600  175.6900  145.3440 C   0  0  1  0  0  3  0  0  0  0  0  0
  191.4890  172.4110  144.2860 C   0  0  1  0  0  3  0  0  0  0  0  0
  188.5660  175.4890  146.8880 C   0  0  0  0  0  3  0  0  0  0  0  0
  189.0730  172.5520  144.2820 O   0  0  0  0  0  0  0  0  0  0  0  0
  192.5890  170.2650  141.4860 C   0  0  2  0  0  3  0  0  0  0  0  0
  191.1100  170.2790  141.0660 C   0  0  1  0  0  3  0  0  0  0  0  0
  191.5150  170.6360  142.5030 C   0  0  2  0  0  3  0  0  0  0  0  0
  191.6940  172.1230  142.7980 C   0  0  2  0  0  3  0  0  0  0  0  0
  193.0810  172.5030  142.3180 C   0  0  0  0  0  2  0  0  0  0  0  0
  193.3820  171.5380  141.1980 C   0  0  0  0  0  2  0  0  0  0  0  0
  189.7020  173.4460  138.4980 C   0  0  0  0  0  3  0  0  0  0  0  0
  191.1130  171.5130  138.8600 C   0  0  0  0  0  3  0  0  0  0  0  0
  189.6960  172.3300  140.6460 C   0  0  0  0  0  3  0  0  0  0  0  0
  190.6650  171.4250  140.1860 C   0  0  0  0  0  0  0  0  0  0  0  0
  189.2250  173.3450  139.8080 C   0  0  0  0  0  3  0  0  0  0  0  0
  190.6410  172.5280  138.0220 C   0  0  0  0  0  3  0  0  0  0  0  0
  186.3270  178.2400  143.5650 C   0  0  0  0  0  0  0  0  0  0  0  0
  185.5500  179.1930  143.0240 N   0  0  0  0  0  0  0  0  0  0  0  0
  184.7880  178.2000  142.3060 C   0  0  0  0  0  2  0  0  0  0  0  0
  187.4280  178.2630  144.4770 N   0  0  0  0  0  2  0  0  0  0  0  0
  185.5670  177.1660  142.8390 C   0  0  0  0  0  2  0  0  0  0  0  0
  186.8890  177.3200  147.1390 C   0  0  0  0  0  2  0  0  0  0  0  0
  185.5830  176.7910  146.8550 N   0  0  0  0  0  0  0  0  0  0  0  0
  184.6460  177.5610  146.5810 N   0  0  0  0  0  2  0  0  0  0  0  0
  1  6  1  0  0  0  0
  1  2  1  0  0  0  0
  2 14  2  0  0  0  0
  3  1  2  0  0  0  0
  3  7  1  0  0  0  0
  4 10  1  1  0  0  0
  5  9  1  0  0  0  0
  6 11  1  6  0  0  0
  6  9  1  0  0  0  0
  6  2  1  0  0  0  0
  7  8  2  0  0  0  0
  8 14  1  0  0  0  0
  8 33  1  0  0  0  0
  9 12  1  0  0  0  0
  9  4  1  0  0  0  0
 12  4  1  0  0  0  0
 12 10  1  1  0  0  0
 13 11  1  6  0  0  0
 13  5  1  0  0  0  0
 15 11  2  0  0  0  0
 16 21  1  6  0  0  0
 16 18  1  0  0  0  0
 17 25  1  6  0  0  0
 17 16  1  0  0  0  0
 17 18  1  0  0  0  0
 18 19  1  0  0  0  0
 19 13  1  0  0  0  0
 20 19  1  0  0  0  0
 21 20  1  0  0  0  0
 22 26  1  0  0  0  0
 23 25  2  0  0  0  0
 25 24  1  0  0  0  0
 26 24  2  0  0  0  0
 27 22  2  0  0  0  0
 27 23  1  0  0  0  0
 28 31  1  0  0  0  0
 29 28  2  0  0  0  0
 30 32  1  0  0  0  0
 30 29  1  0  0  0  0
 31  7  1  0  0  0  0
 32 28  1  0  0  0  0
 34 33  1  0  0  0  0
 35 34  2  0  0  0  0
M  END
>  <MODEL>
5

>  <REMARK>
 VINA RESULT:      -8.0      4.085      7.906
  Name = 
  5 active torsions:
  status: ('A' for Active; 'I' for Inactive)
    1  A    between atoms: C_11  and  C_25
    2  A    between atoms: C_13  and  N_31
    3  A    between atoms: C_15  and  C_27
    4  A    between atoms: C_16  and  C_17
    5  A    between atoms: C_17  and  N_28
                            x       y       z     vdW  Elec       q    Type
                         _______ _______ _______ _____ _____    ______ ____

>  <TORSDO>
F 5

$$$$
=
 OpenBabel11042416533D

 35 43  0  0  1  0  0  0  0  0999 V2000
  189.0390  175.7960  143.8440 C   0  0  0  0  0  0  0  0  0  0  0  0
  188.6540  176.2170  142.4920 C   0  0  0  0  0  0  0  0  0  0  0  0
  188.2940  175.9260  144.9690 C   0  0  0  0  0  3  0  0  0  0  0  0
  189.4360  173.4640  141.3450 C   0  0  2  0  0  3  0  0  0  0  0  0
  191.6710  174.0740  142.1800 O   0  0  0  0  0  0  0  0  0  0  0  0
  189.8880  175.6120  142.7490 C   0  0  2  0  0  0  0  0  0  0  0  0
  187.0300  176.5530  144.6610 C   0  0  0  0  0  0  0  0  0  0  0  0
  186.6490  176.9710  143.2960 C   0  0  0  0  0  0  0  0  0  0  0  0
  190.2770  174.2150  142.3540 C   0  0  1  0  0  0  0  0  0  0  0  0
  188.1990  172.9200  142.0360 C   0  0  0  0  0  2  0  0  0  0  0  0
  191.1470  176.3310  142.7540 C   0  0  0  0  0  0  0  0  0  0  0  0
  189.5140  172.9830  142.7900 C   0  0  1  0  0  3  0  0  0  0  0  0
  192.2430  175.3630  142.4240 C   0  0  1  0  0  3  0  0  0  0  0  0
  187.4880  176.8110  142.1370 C   0  0  0  0  0  3  0  0  0  0  0  0
  191.2950  177.5270  142.9510 O   0  0  0  0  0  0  0  0  0  0  0  0
  193.6070  176.4280  145.6880 C   0  0  2  0  0  3  0  0  0  0  0  0
  193.3650  174.9720  146.1180 C   0  0  1  0  0  3  0  0  0  0  0  0
  192.6330  175.5570  144.9010 C   0  0  2  0  0  3  0  0  0  0  0  0
  193.2830  175.3010  143.5440 C   0  0  2  0  0  3  0  0  0  0  0  0
  194.3780  176.3350  143.3780 C   0  0  0  0  0  2  0  0  0  0  0  0
  194.8130  176.6700  144.7830 C   0  0  0  0  0  2  0  0  0  0  0  0
  196.5050  172.0890  145.4590 C   0  0  0  0  0  3  0  0  0  0  0  0
  195.8020  174.3030  146.1380 C   0  0  0  0  0  3  0  0  0  0  0  0
  194.1620  172.6920  145.3750 C   0  0  0  0  0  3  0  0  0  0  0  0
  194.4720  173.9840  145.8290 C   0  0  0  0  0  0  0  0  0  0  0  0
  195.1780  171.7520  145.1800 C   0  0  0  0  0  3  0  0  0  0  0  0
  196.8170  173.3620  145.9430 C   0  0  0  0  0  3  0  0  0  0  0  0
  186.2830  177.6470  146.8390 C   0  0  0  0  0  0  0  0  0  0  0  0
  185.5390  177.9590  147.9130 N   0  0  0  0  0  0  0  0  0  0  0  0
  186.5580  178.8640  148.3880 C   0  0  0  0  0  2  0  0  0  0  0  0
  186.0860  176.7800  145.7190 N   0  0  0  0  0  2  0  0  0  0  0  0
  187.3760  178.5750  147.2880 C   0  0  0  0  0  2  0  0  0  0  0  0
  185.3260  177.6260  143.0790 C   0  0  0  0  0  2  0  0  0  0  0  0
  185.5080  179.0410  142.8990 N   0  0  0  0  0  0  0  0  0  0  0  0
  185.5660  179.7910  143.8890 N   0  0  0  0  0  2  0  0  0  0  0  0
  1  3  1  0  0  0  0
  2  1  2  0  0  0  0
  4 10  1  1  0  0  0
  4  9  1  0  0  0  0
  4 12  1  0  0  0  0
  5  9  1  0  0  0  0
  6  2  1  6  0  0  0
  6 11  1  0  0  0  0
  6  1  1  0  0  0  0
  7  3  2  0  0  0  0
  7 31  1  0  0  0  0
  8  7  1  0  0  0  0
  9  6  1  0  0  0  0
  9 12  1  0  0  0  0
 11 15  2  0  0  0  0
 12 10  1  1  0  0  0
 13  5  1  1  0  0  0
 13 11  1  0  0  0  0
 13 19  1  0  0  0  0
 14  2  1  0  0  0  0
 14  8  2  0  0  0  0
 16 21  1  6  0  0  0
 16 17  1  0  0  0  0
 17 25  1  6  0  0  0
 18 16  1  0  0  0  0
 18 17  1  0  0  0  0
 19 18  1  0  0  0  0
 20 19  1  0  0  0  0
 20 21  1  0  0  0  0
 22 27  1  0  0  0  0
 24 25  2  0  0  0  0
 25 23  1  0  0  0  0
 26 24  1  0  0  0  0
 26 22  2  0  0  0  0
 27 23  2  0  0  0  0
 28 32  1  0  0  0  0
 28 29  2  0  0  0  0
 29 30  1  0  0  0  0
 31 28  1  0  0  0  0
 32 30  1  0  0  0  0
 33  8  1  0  0  0  0
 34 33  1  0  0  0  0
 34 35  2  0  0  0  0
M  END
>  <MODEL>
6

>  <REMARK>
 VINA RESULT:      -7.9      3.904      8.650
  Name = 
  5 active torsions:
  status: ('A' for Active; 'I' for Inactive)
    1  A    between atoms: C_11  and  C_25
    2  A    between atoms: C_13  and  N_31
    3  A    between atoms: C_15  and  C_27
    4  A    between atoms: C_16  and  C_17
    5  A    between atoms: C_17  and  N_28
                            x       y       z     vdW  Elec       q    Type
                         _______ _______ _______ _____ _____    ______ ____

>  <TORSDO>
F 5

$$$$
=
 OpenBabel11042416533D

 35 43  0  0  1  0  0  0  0  0999 V2000
  189.8040  176.4960  143.7760 C   0  0  0  0  0  0  0  0  0  0  0  0
  189.3700  176.6880  142.3880 C   0  0  0  0  0  0  0  0  0  0  0  0
  189.2100  177.0060  144.8820 C   0  0  0  0  0  3  0  0  0  0  0  0
  189.5280  173.6550  141.8550 C   0  0  2  0  0  3  0  0  0  0  0  0
  191.9080  173.9770  142.4010 O   0  0  0  0  0  0  0  0  0  0  0  0
  190.4940  175.9200  142.7050 C   0  0  2  0  0  0  0  0  0  0  0  0
  188.0540  177.7900  144.5120 C   0  0  0  0  0  0  0  0  0  0  0  0
  187.6220  177.9740  143.1110 C   0  0  0  0  0  0  0  0  0  0  0  0
  190.5860  174.4230  142.6170 C   0  0  1  0  0  0  0  0  0  0  0  0
  188.2880  173.5240  142.7200 C   0  0  0  0  0  2  0  0  0  0  0  0
  191.8570  176.3620  142.4760 C   0  0  0  0  0  0  0  0  0  0  0  0
  189.6610  173.4870  143.3630 C   0  0  1  0  0  3  0  0  0  0  0  0
  192.7230  175.1490  142.3130 C   0  0  1  0  0  3  0  0  0  0  0  0
  188.3000  177.4100  141.9730 C   0  0  0  0  0  3  0  0  0  0  0  0
  192.2350  177.5200  142.3870 O   0  0  0  0  0  0  0  0  0  0  0  0
  194.5350  176.5630  145.2060 C   0  0  2  0  0  3  0  0  0  0  0  0
  194.1100  175.2780  145.9350 C   0  0  1  0  0  3  0  0  0  0  0  0
  193.3680  175.7390  144.6710 C   0  0  2  0  0  3  0  0  0  0  0  0
  193.8400  175.1230  143.3570 C   0  0  2  0  0  3  0  0  0  0  0  0
  195.0630  175.9040  142.9190 C   0  0  0  0  0  2  0  0  0  0  0  0
  195.6740  176.4190  144.1990 C   0  0  0  0  0  2  0  0  0  0  0  0
  196.6610  171.8100  145.6750 C   0  0  0  0  0  3  0  0  0  0  0  0
  196.3680  174.1660  146.1490 C   0  0  0  0  0  3  0  0  0  0  0  0
  194.4850  172.8360  145.4070 C   0  0  0  0  0  3  0  0  0  0  0  0
  195.0180  174.0780  145.7840 C   0  0  0  0  0  0  0  0  0  0  0  0
  195.3080  171.7080  145.3420 C   0  0  0  0  0  3  0  0  0  0  0  0
  197.1910  173.0370  146.0840 C   0  0  0  0  0  3  0  0  0  0  0  0
  186.0660  177.9000  146.1030 C   0  0  0  0  0  0  0  0  0  0  0  0
  185.2100  178.3490  147.0350 N   0  0  0  0  0  0  0  0  0  0  0  0
  184.3920  177.1680  146.8890 C   0  0  0  0  0  2  0  0  0  0  0  0
  187.2760  178.4170  145.5420 N   0  0  0  0  0  2  0  0  0  0  0  0
  185.2510  176.6520  145.9110 C   0  0  0  0  0  2  0  0  0  0  0  0
  186.4230  178.8160  142.8260 C   0  0  0  0  0  2  0  0  0  0  0  0
  185.3000  177.9730  142.5150 N   0  0  0  0  0  0  0  0  0  0  0  0
  184.1550  178.3120  142.8600 N   0  0  0  0  0  2  0  0  0  0  0  0
  1  3  1  0  0  0  0
  2  1  2  0  0  0  0
  4  9  1  0  0  0  0
  4 10  1  1  0  0  0
  4 12  1  0  0  0  0
  5  9  1  0  0  0  0
  6  2  1  6  0  0  0
  6  1  1  0  0  0  0
  7  3  2  0  0  0  0
  7 31  1  0  0  0  0
  8  7  1  0  0  0  0
  9  6  1  0  0  0  0
  9 12  1  0  0  0  0
 11  6  1  0  0  0  0
 12 10  1  1  0  0  0
 13  5  1  1  0  0  0
 13 11  1  0  0  0  0
 13 19  1  0  0  0  0
 14  2  1  0  0  0  0
 14  8  2  0  0  0  0
 15 11  2  0  0  0  0
 16 21  1  6  0  0  0
 16 17  1  0  0  0  0
 17 25  1  6  0  0  0
 18 16  1  0  0  0  0
 18 17  1  0  0  0  0
 19 18  1  0  0  0  0
 20 19  1  0  0  0  0
 20 21  1  0  0  0  0
 22 27  1  0  0  0  0
 24 25  2  0  0  0  0
 25 23  1  0  0  0  0
 26 24  1  0  0  0  0
 26 22  2  0  0  0  0
 27 23  2  0  0  0  0
 28 29  2  0  0  0  0
 30 29  1  0  0  0  0
 31 28  1  0  0  0  0
 32 28  1  0  0  0  0
 32 30  1  0  0  0  0
 33  8  1  0  0  0  0
 34 33  1  0  0  0  0
 34 35  2  0  0  0  0
M  END
>  <MODEL>
7

>  <REMARK>
 VINA RESULT:      -7.7      3.847      8.803
  Name = 
  5 active torsions:
  status: ('A' for Active; 'I' for Inactive)
    1  A    between atoms: C_11  and  C_25
    2  A    between atoms: C_13  and  N_31
    3  A    between atoms: C_15  and  C_27
    4  A    between atoms: C_16  and  C_17
    5  A    between atoms: C_17  and  N_28
                            x       y       z     vdW  Elec       q    Type
                         _______ _______ _______ _____ _____    ______ ____

>  <TORSDO>
F 5

$$$$
=
 OpenBabel11042416533D

 35 43  0  0  1  0  0  0  0  0999 V2000
  189.8960  174.7930  142.3050 C   0  0  0  0  0  0  0  0  0  0  0  0
  191.2500  175.2480  142.6400 C   0  0  0  0  0  0  0  0  0  0  0  0
  189.5440  174.0400  141.2340 C   0  0  0  0  0  3  0  0  0  0  0  0
  190.9350  174.2410  145.5370 C   0  0  2  0  0  3  0  0  0  0  0  0
  189.0930  175.8740  145.5980 O   0  0  0  0  0  0  0  0  0  0  0  0
  190.1490  175.5700  143.4390 C   0  0  2  0  0  0  0  0  0  0  0  0
  190.7080  173.7290  140.4370 C   0  0  0  0  0  0  0  0  0  0  0  0
  192.0690  174.1880  140.7860 C   0  0  0  0  0  0  0  0  0  0  0  0
  189.8540  174.9960  144.7960 C   0  0  1  0  0  0  0  0  0  0  0  0
  191.0400  172.8360  144.9710 C   0  0  0  0  0  2  0  0  0  0  0  0
  189.5540  176.8910  143.4880 C   0  0  0  0  0  0  0  0  0  0  0  0
  189.6850  173.5140  145.0550 C   0  0  1  0  0  3  0  0  0  0  0  0
  188.8850  177.0570  144.8200 C   0  0  1  0  0  3  0  0  0  0  0  0
  192.3810  174.9940  141.9370 C   0  0  0  0  0  3  0  0  0  0  0  0
  189.6170  177.7450  142.6170 O   0  0  0  0  0  0  0  0  0  0  0  0
  185.6710  178.4400  146.0090 C   0  0  2  0  0  3  0  0  0  0  0  0
  185.7760  179.3790  144.7950 C   0  0  1  0  0  3  0  0  0  0  0  0
  187.0230  178.6670  145.3390 C   0  0  2  0  0  3  0  0  0  0  0  0
  187.3930  177.3520  144.6570 C   0  0  2  0  0  3  0  0  0  0  0  0
  186.5170  176.2770  145.2690 C   0  0  0  0  0  2  0  0  0  0  0  0
  185.2670  176.9980  145.7100 C   0  0  0  0  0  2  0  0  0  0  0  0
  184.1740  178.0780  141.0070 C   0  0  0  0  0  3  0  0  0  0  0  0
  183.8390  178.6890  143.3260 C   0  0  0  0  0  3  0  0  0  0  0  0
  186.0700  178.6840  142.3840 C   0  0  0  0  0  3  0  0  0  0  0  0
  185.2210  178.8630  143.4870 C   0  0  0  0  0  0  0  0  0  0  0  0
  185.5490  178.2810  141.1510 C   0  0  0  0  0  3  0  0  0  0  0  0
  183.3180  178.2870  142.0920 C   0  0  0  0  0  3  0  0  0  0  0  0
  190.6250  171.5040  139.1960 C   0  0  0  0  0  0  0  0  0  0  0  0
  190.5300  170.6100  138.1990 N   0  0  0  0  0  0  0  0  0  0  0  0
  190.7140  169.5190  139.1260 C   0  0  0  0  0  2  0  0  0  0  0  0
  190.5520  172.9320  139.2540 N   0  0  0  0  0  2  0  0  0  0  0  0
  190.8220  170.4060  140.2030 C   0  0  0  0  0  2  0  0  0  0  0  0
  193.2080  173.8290  139.8910 C   0  0  0  0  0  2  0  0  0  0  0  0
  193.8050  175.0250  139.3610 N   0  0  0  0  0  0  0  0  0  0  0  0
  195.0340  175.1920  139.4350 N   0  0  0  0  0  2  0  0  0  0  0  0
  1  2  1  0  0  0  0
  2  6  1  0  0  0  0
  3  1  2  0  0  0  0
  4 10  1  6  0  0  0
  6  1  1  6  0  0  0
  6 11  1  0  0  0  0
  6  9  1  0  0  0  0
  7  8  2  0  0  0  0
  7  3  1  0  0  0  0
  8 14  1  0  0  0  0
  9 12  1  0  0  0  0
  9  4  1  0  0  0  0
  9  5  1  0  0  0  0
 12 10  1  6  0  0  0
 12  4  1  0  0  0  0
 13 11  1  6  0  0  0
 13  5  1  0  0  0  0
 14  2  2  0  0  0  0
 15 11  2  0  0  0  0
 16 21  1  6  0  0  0
 17 25  1  6  0  0  0
 17 18  1  0  0  0  0
 17 16  1  0  0  0  0
 18 16  1  0  0  0  0
 19 13  1  0  0  0  0
 19 20  1  0  0  0  0
 19 18  1  0  0  0  0
 20 21  1  0  0  0  0
 22 26  2  0  0  0  0
 22 27  1  0  0  0  0
 23 25  1  0  0  0  0
 24 25  2  0  0  0  0
 26 24  1  0  0  0  0
 27 23  2  0  0  0  0
 28 31  1  0  0  0  0
 28 32  1  0  0  0  0
 29 30  1  0  0  0  0
 29 28  2  0  0  0  0
 30 32  1  0  0  0  0
 31  7  1  0  0  0  0
 33  8  1  0  0  0  0
 34 35  2  0  0  0  0
 34 33  1  0  0  0  0
M  END
>  <MODEL>
8

>  <REMARK>
 VINA RESULT:      -7.7      2.422      2.815
  Name = 
  5 active torsions:
  status: ('A' for Active; 'I' for Inactive)
    1  A    between atoms: C_11  and  C_25
    2  A    between atoms: C_13  and  N_31
    3  A    between atoms: C_15  and  C_27
    4  A    between atoms: C_16  and  C_17
    5  A    between atoms: C_17  and  N_28
                            x       y       z     vdW  Elec       q    Type
                         _______ _______ _______ _____ _____    ______ ____

>  <TORSDO>
F 5

$$$$
=
 OpenBabel11042416533D

 35 43  0  0  1  0  0  0  0  0999 V2000
  190.6750  175.4730  143.8720 C   0  0  0  0  0  0  0  0  0  0  0  0
  191.8880  176.2970  143.8200 C   0  0  0  0  0  0  0  0  0  0  0  0
  190.3680  174.4430  143.0460 C   0  0  0  0  0  3  0  0  0  0  0  0
  192.3590  175.9010  146.8410 C   0  0  2  0  0  3  0  0  0  0  0  0
  190.1750  177.0250  147.0340 O   0  0  0  0  0  0  0  0  0  0  0  0
  190.8920  176.5150  144.7770 C   0  0  2  0  0  0  0  0  0  0  0  0
  191.4200  174.2500  142.0750 C   0  0  0  0  0  0  0  0  0  0  0  0
  192.6400  175.0820  142.0330 C   0  0  0  0  0  0  0  0  0  0  0  0
  191.0020  176.1980  146.2420 C   0  0  1  0  0  0  0  0  0  0  0  0
  192.7490  174.4730  146.5070 C   0  0  0  0  0  2  0  0  0  0  0  0
  189.9730  177.6360  144.7360 C   0  0  0  0  0  0  0  0  0  0  0  0
  191.2940  174.8120  146.7750 C   0  0  1  0  0  3  0  0  0  0  0  0
  189.5210  177.9250  146.1350 C   0  0  1  0  0  3  0  0  0  0  0  0
  192.9090  176.1700  142.9370 C   0  0  0  0  0  3  0  0  0  0  0  0
  189.6500  178.2690  143.7420 O   0  0  0  0  0  0  0  0  0  0  0  0
  186.4060  177.6500  148.1040 C   0  0  2  0  0  3  0  0  0  0  0  0
  186.0480  179.0110  147.4860 C   0  0  1  0  0  3  0  0  0  0  0  0
  187.5060  178.5280  147.5150 C   0  0  2  0  0  3  0  0  0  0  0  0
  188.0000  177.8170  146.2590 C   0  0  2  0  0  3  0  0  0  0  0  0
  187.5260  176.3800  146.3510 C   0  0  0  0  0  2  0  0  0  0  0  0
  186.2700  176.4370  147.1850 C   0  0  0  0  0  2  0  0  0  0  0  0
  184.0300  179.1140  143.6750 C   0  0  0  0  0  3  0  0  0  0  0  0
  183.9930  178.6730  146.0550 C   0  0  0  0  0  3  0  0  0  0  0  0
  186.0410  179.4080  144.9910 C   0  0  0  0  0  3  0  0  0  0  0  0
  185.3570  178.9870  146.1410 C   0  0  0  0  0  0  0  0  0  0  0  0
  185.3810  179.4600  143.7590 C   0  0  0  0  0  3  0  0  0  0  0  0
  183.3340  178.7250  144.8230 C   0  0  0  0  0  3  0  0  0  0  0  0
  190.2310  173.0670  140.1550 C   0  0  0  0  0  0  0  0  0  0  0  0
  189.9400  172.1600  139.2090 N   0  0  0  0  0  0  0  0  0  0  0  0
  188.7600  172.8980  138.8270 C   0  0  0  0  0  2  0  0  0  0  0  0
  191.2920  173.1990  141.1050 N   0  0  0  0  0  2  0  0  0  0  0  0
  189.0140  173.8740  139.7990 C   0  0  0  0  0  2  0  0  0  0  0  0
  193.6650  174.8170  140.9820 C   0  0  0  0  0  2  0  0  0  0  0  0
  194.8280  174.2160  141.5770 N   0  0  0  0  0  0  0  0  0  0  0  0
  195.9580  174.6730  141.3330 N   0  0  0  0  0  2  0  0  0  0  0  0
  1  6  1  0  0  0  0
  2  1  1  0  0  0  0
  3  1  2  0  0  0  0
  4 10  1  6  0  0  0
  6  2  1  6  0  0  0
  6  9  1  0  0  0  0
  7  3  1  0  0  0  0
  8  7  2  0  0  0  0
  8 14  1  0  0  0  0
  9 12  1  0  0  0  0
  9  4  1  0  0  0  0
  9  5  1  0  0  0  0
 11  6  1  0  0  0  0
 12 10  1  6  0  0  0
 12  4  1  0  0  0  0
 13 11  1  6  0  0  0
 13 19  1  0  0  0  0
 13  5  1  0  0  0  0
 14  2  2  0  0  0  0
 15 11  2  0  0  0  0
 16 21  1  6  0  0  0
 17 25  1  6  0  0  0
 17 18  1  0  0  0  0
 17 16  1  0  0  0  0
 18 16  1  0  0  0  0
 19 20  1  0  0  0  0
 19 18  1  0  0  0  0
 20 21  1  0  0  0  0
 22 26  2  0  0  0  0
 22 27  1  0  0  0  0
 23 25  1  0  0  0  0
 24 25  2  0  0  0  0
 26 24  1  0  0  0  0
 27 23  2  0  0  0  0
 28 31  1  0  0  0  0
 29 28  2  0  0  0  0
 30 29  1  0  0  0  0
 30 32  1  0  0  0  0
 31  7  1  0  0  0  0
 32 28  1  0  0  0  0
 33 34  1  0  0  0  0
 33  8  1  0  0  0  0
 35 34  2  0  0  0  0
M  END
>  <MODEL>
9

>  <REMARK>
 VINA RESULT:      -7.6      2.133      2.666
  Name = 
  5 active torsions:
  status: ('A' for Active; 'I' for Inactive)
    1  A    between atoms: C_11  and  C_25
    2  A    between atoms: C_13  and  N_31
    3  A    between atoms: C_15  and  C_27
    4  A    between atoms: C_16  and  C_17
    5  A    between atoms: C_17  and  N_28
                            x       y       z     vdW  Elec       q    Type
                         _______ _______ _______ _____ _____    ______ ____

>  <TORSDO>
F 5

$$$$
