=
 OpenBabel11042415243D

 51 54  0  0  1  0  0  0  0  0999 V2000
  189.7560  176.9310  142.8880 C   0  0  0  0  0  0  0  0  0  0  0  0
  187.5240  176.3910  143.0610 C   0  0  0  0  0  3  0  0  0  0  0  0
  188.7120  176.1280  142.1910 C   0  0  2  0  0  3  0  0  0  0  0  0
  187.8650  177.1970  144.0620 C   0  0  0  0  0  0  0  0  0  0  0  0
  189.2750  177.5480  143.9560 C   0  0  0  0  0  3  0  0  0  0  0  0
  194.8300  175.5300  144.0410 O   0  0  0  0  0  0  0  0  0  0  0  0
  191.1080  177.0370  142.4200 N   0  0  0  0  0  2  0  0  0  0  0  0
  193.5450  176.6590  142.4380 N   0  0  0  0  0  2  0  0  0  0  0  0
  192.2660  176.4850  143.0580 C   0  0  0  0  0  0  0  0  0  0  0  0
  192.1640  175.8580  144.1470 O   0  0  0  0  0  0  0  0  0  0  0  0
  194.7870  176.1640  142.9520 C   0  0  0  0  0  0  0  0  0  0  0  0
  196.0400  176.4130  142.1770 C   0  0  0  0  0  3  0  0  0  0  0  0
  197.2310  175.7300  142.8270 C   0  0  0  0  0  2  0  0  0  0  0  0
  197.3230  175.3930  140.4230 C   0  0  0  0  0  2  0  0  0  0  0  0
  195.9320  175.8610  140.7710 C   0  0  0  0  0  2  0  0  0  0  0  0
  197.9400  174.9510  141.7330 C   0  0  0  0  0  2  0  0  0  0  0  0
  185.1360  178.7110  147.0210 C   0  0  0  0  0  3  0  0  0  0  0  0
  186.8310  177.0850  146.3830 C   0  0  0  0  0  0  0  0  0  0  0  0
  186.9220  177.6840  145.1030 C   0  0  0  0  0  0  0  0  0  0  0  0
  185.2160  179.2960  145.7590 C   0  0  0  0  0  3  0  0  0  0  0  0
  186.1020  178.7860  144.8100 C   0  0  0  0  0  3  0  0  0  0  0  0
  185.9370  177.6130  147.3300 C   0  0  0  0  0  3  0  0  0  0  0  0
  187.6170  175.9670  146.6980 O   0  0  0  0  0  0  0  0  0  0  0  0
  188.8860  176.0530  147.3370 C   0  0  0  0  0  2  0  0  0  0  0  0
  189.4890  174.1400  145.9190 C   0  0  0  0  0  3  0  0  0  0  0  0
  189.8860  175.1980  146.6270 C   0  0  0  0  0  3  0  0  0  0  0  0
  190.4790  173.2820  145.2030 C   0  0  0  0  0  2  0  0  0  0  0  0
  189.8110  172.0220  144.6810 C   0  0  0  0  0  1  0  0  0  0  0  0
  189.0780  174.6510  142.2280 C   0  0  0  0  0  2  0  0  0  0  0  0
  188.0340  173.8350  141.4890 C   0  0  0  0  0  2  0  0  0  0  0  0
  187.9400  174.8510  138.8510 O   0  0  0  0  0  0  0  0  0  0  0  0
  188.5690  173.7730  139.0300 C   0  0  0  0  0  0  0  0  0  0  0  0
  188.6450  173.1960  140.3350 N   0  0  0  0  0  2  0  0  0  0  0  0
  189.2220  173.1050  137.8950 C   0  0  0  0  0  0  0  0  0  0  0  0
  189.0120  173.5170  136.7210 O   0  0  0  0  0  0  0  0  0  0  0  0
  190.1310  171.9410  138.1360 C   0  0  0  0  0  2  0  0  0  0  0  0
  191.4420  172.3650  138.3780 O   0  0  0  0  0  0  0  0  0  0  0  0
  191.6810  172.0320  139.6700 N   0  0  0  0  0  2  0  0  0  0  0  0
  192.4930  174.1500  140.2160 O   0  0  0  0  0  0  0  0  0  0  0  0
  192.1940  172.9880  140.5990 C   0  0  0  0  0  0  0  0  0  0  0  0
  192.3880  172.6030  142.0310 C   0  0  0  0  0  2  0  0  0  0  0  0
  194.5080  171.8680  141.1840 O   0  0  0  0  0  1  0  0  0  0  0  0
  193.6280  171.7250  142.2620 C   0  0  1  0  0  0  0  0  0  0  0  0
  196.4740  172.6180  144.7460 C   0  0  0  0  0  2  0  0  0  0  0  0
  196.0240  171.7630  145.7970 O   0  0  0  0  0  0  0  0  0  0  0  0
  194.3370  172.1720  143.5590 C   0  0  2  0  0  3  0  0  0  0  0  0
  194.7420  171.1980  145.7990 C   0  0  0  0  0  3  0  0  0  0  0  0
  195.8630  172.1870  143.4160 C   0  0  0  0  0  2  0  0  0  0  0  0
  193.9250  171.3480  144.7540 C   0  0  0  0  0  3  0  0  0  0  0  0
  191.8250  170.1320  142.4950 O   0  0  0  0  0  1  0  0  0  0  0  0
  193.2100  170.2540  142.3610 C   0  0  0  0  0  2  0  0  0  0  0  0
  1  5  2  0  0  0  0
  2  4  2  0  0  0  0
  3 29  1  1  0  0  0
  3  1  1  0  0  0  0
  3  2  1  0  0  0  0
  4 19  1  0  0  0  0
  5  4  1  0  0  0  0
  7  1  1  0  0  0  0
  7  9  1  0  0  0  0
  8 11  1  0  0  0  0
  8  9  1  0  0  0  0
  9 10  2  0  0  0  0
 11  6  2  0  0  0  0
 12 13  1  0  0  0  0
 12 11  1  0  0  0  0
 14 15  1  0  0  0  0
 14 16  1  0  0  0  0
 15 12  1  0  0  0  0
 16 13  1  0  0  0  0
 17 22  1  0  0  0  0
 18 23  1  0  0  0  0
 18 22  2  0  0  0  0
 19 18  1  0  0  0  0
 20 17  2  0  0  0  0
 21 19  2  0  0  0  0
 21 20  1  0  0  0  0
 23 24  1  0  0  0  0
 25 26  2  0  0  0  0
 26 24  1  0  0  0  0
 27 25  1  0  0  0  0
 28 27  1  0  0  0  0
 30 29  1  0  0  0  0
 31 32  2  0  0  0  0
 32 33  1  0  0  0  0
 33 30  1  0  0  0  0
 34 36  1  0  0  0  0
 34 32  1  0  0  0  0
 35 34  2  0  0  0  0
 36 37  1  0  0  0  0
 37 38  1  0  0  0  0
 38 40  1  0  0  0  0
 39 40  2  0  0  0  0
 40 41  1  0  0  0  0
 41 43  1  0  0  0  0
 43 42  1  6  0  0  0
 43 51  1  0  0  0  0
 44 45  1  0  0  0  0
 45 47  1  0  0  0  0
 46 43  1  6  0  0  0
 46 49  1  0  0  0  0
 48 46  1  0  0  0  0
 48 44  1  0  0  0  0
 49 47  2  0  0  0  0
 51 50  1  0  0  0  0
M  END
>  <MODEL>
1

>  <REMARK>
 VINA RESULT:      -6.3      0.000      0.000
  Name = 
  18 active torsions:
  status: ('A' for Active; 'I' for Inactive)
    1  A    between atoms: N_3  and  C_12
    2  A    between atoms: C_4  and  C_20
    3  A    between atoms: C_4  and  C_24
    4  A    between atoms: C_6  and  C_8
    5  A    between atoms: C_7  and  C_40
    6  A    between atoms: C_7  and  C_48
    7  A    between atoms: C_8  and  C_46
    8  A    between atoms: O_11  and  N_26
    9  A    between atoms: O_11  and  C_46
   10  A    between atoms: C_13  and  O_43
   11  A    between atoms: C_16  and  C_37
   12  A    between atoms: C_17  and  C_50
   13  A    between atoms: N_19  and  C_24
   14  A    between atoms: C_22  and  C_40
   15  A    between atoms: C_28  and  C_33
   16  A    between atoms: C_34  and  C_45
   17  A    between atoms: C_39  and  C_40
   18  A    between atoms: O_43  and  C_45
                            x       y       z     vdW  Elec       q    Type
                         _______ _______ _______ _____ _____    ______ ____

>  <TORSDO>
F 18

$$$$
=
 OpenBabel11042415243D

 51 54  0  0  1  0  0  0  0  0999 V2000
  189.7410  176.7020  143.6800 C   0  0  0  0  0  0  0  0  0  0  0  0
  187.4650  176.3510  143.6510 C   0  0  0  0  0  3  0  0  0  0  0  0
  188.6960  176.0150  142.8700 C   0  0  2  0  0  3  0  0  0  0  0  0
  187.7870  177.0910  144.7080 C   0  0  0  0  0  0  0  0  0  0  0  0
  189.2250  177.3220  144.7300 C   0  0  0  0  0  3  0  0  0  0  0  0
  194.6970  176.0850  145.7050 O   0  0  0  0  0  0  0  0  0  0  0  0
  191.1310  176.7060  143.3270 N   0  0  0  0  0  2  0  0  0  0  0  0
  193.5600  176.4920  143.6950 N   0  0  0  0  0  2  0  0  0  0  0  0
  192.2280  176.4840  144.2210 C   0  0  0  0  0  0  0  0  0  0  0  0
  192.0270  176.2840  145.4490 O   0  0  0  0  0  0  0  0  0  0  0  0
  194.7520  176.2830  144.4600 C   0  0  0  0  0  0  0  0  0  0  0  0
  196.0730  176.3060  143.7620 C   0  0  0  0  0  3  0  0  0  0  0  0
  196.8640  175.0390  144.0440 C   0  0  0  0  0  2  0  0  0  0  0  0
  197.0400  175.5890  141.6840 C   0  0  0  0  0  2  0  0  0  0  0  0
  195.8950  176.3850  142.2600 C   0  0  0  0  0  2  0  0  0  0  0  0
  197.3310  174.5060  142.7010 C   0  0  0  0  0  2  0  0  0  0  0  0
  184.9720  178.5420  147.6170 C   0  0  0  0  0  3  0  0  0  0  0  0
  185.6980  178.4160  145.2970 C   0  0  0  0  0  0  0  0  0  0  0  0
  186.8040  177.6220  145.6880 C   0  0  0  0  0  0  0  0  0  0  0  0
  186.0640  177.7710  148.0050 C   0  0  0  0  0  3  0  0  0  0  0  0
  186.9720  177.3150  147.0490 C   0  0  0  0  0  3  0  0  0  0  0  0
  184.7900  178.8640  146.2720 C   0  0  0  0  0  3  0  0  0  0  0  0
  185.5170  178.7620  143.9510 O   0  0  0  0  0  0  0  0  0  0  0  0
  184.2500  178.7600  143.3010 C   0  0  0  0  0  2  0  0  0  0  0  0
  185.4590  178.2880  141.2150 C   0  0  0  0  0  3  0  0  0  0  0  0
  184.3590  178.1260  141.9510 C   0  0  0  0  0  3  0  0  0  0  0  0
  185.5790  177.6560  139.8670 C   0  0  0  0  0  2  0  0  0  0  0  0
  186.9700  177.0810  139.6710 C   0  0  0  0  0  1  0  0  0  0  0  0
  188.9320  174.5120  142.8760 C   0  0  0  0  0  2  0  0  0  0  0  0
  188.1830  173.8590  141.7310 C   0  0  0  0  0  2  0  0  0  0  0  0
  187.8910  172.3530  139.3550 O   0  0  0  0  0  0  0  0  0  0  0  0
  188.6570  173.3540  139.3100 C   0  0  0  0  0  0  0  0  0  0  0  0
  188.8610  174.1510  140.4780 N   0  0  0  0  0  2  0  0  0  0  0  0
  189.3440  173.7000  138.0570 C   0  0  0  0  0  0  0  0  0  0  0  0
  188.7820  174.4650  137.2260 O   0  0  0  0  0  0  0  0  0  0  0  0
  190.7050  173.1450  137.7740 C   0  0  0  0  0  2  0  0  0  0  0  0
  191.7070  173.9800  138.2790 O   0  0  0  0  0  0  0  0  0  0  0  0
  192.4730  173.1740  139.0530 N   0  0  0  0  0  2  0  0  0  0  0  0
  192.2340  174.5190  140.9440 O   0  0  0  0  0  0  0  0  0  0  0  0
  192.6990  173.4660  140.4330 C   0  0  0  0  0  0  0  0  0  0  0  0
  193.5000  172.5220  141.2720 C   0  0  0  0  0  2  0  0  0  0  0  0
  193.0290  170.1810  141.5000 O   0  0  0  0  0  1  0  0  0  0  0  0
  192.6450  171.4450  141.9590 C   0  0  1  0  0  0  0  0  0  0  0  0
  193.8840  172.7060  145.4150 C   0  0  0  0  0  2  0  0  0  0  0  0
  194.4530  171.4630  145.8280 O   0  0  0  0  0  0  0  0  0  0  0  0
  192.8610  171.5190  143.4860 C   0  0  2  0  0  3  0  0  0  0  0  0
  194.1720  170.2600  145.1680 C   0  0  0  0  0  3  0  0  0  0  0  0
  193.7070  172.7280  143.8990 C   0  0  0  0  0  2  0  0  0  0  0  0
  193.4460  170.2460  144.0480 C   0  0  0  0  0  3  0  0  0  0  0  0
  190.3810  170.6090  142.0950 O   0  0  0  0  0  1  0  0  0  0  0  0
  191.1660  171.6610  141.6170 C   0  0  0  0  0  2  0  0  0  0  0  0
  1  5  2  0  0  0  0
  2  4  2  0  0  0  0
  3 29  1  1  0  0  0
  3  2  1  0  0  0  0
  3  1  1  0  0  0  0
  4  5  1  0  0  0  0
  4 19  1  0  0  0  0
  7  1  1  0  0  0  0
  7  9  1  0  0  0  0
  8  9  1  0  0  0  0
  8 11  1  0  0  0  0
  9 10  2  0  0  0  0
 11  6  2  0  0  0  0
 12 13  1  0  0  0  0
 12 11  1  0  0  0  0
 14 15  1  0  0  0  0
 14 16  1  0  0  0  0
 15 12  1  0  0  0  0
 16 13  1  0  0  0  0
 17 20  1  0  0  0  0
 18 19  2  0  0  0  0
 18 22  1  0  0  0  0
 19 21  1  0  0  0  0
 21 20  2  0  0  0  0
 22 17  2  0  0  0  0
 23 18  1  0  0  0  0
 24 23  1  0  0  0  0
 25 26  2  0  0  0  0
 26 24  1  0  0  0  0
 27 25  1  0  0  0  0
 28 27  1  0  0  0  0
 30 29  1  0  0  0  0
 32 31  2  0  0  0  0
 32 33  1  0  0  0  0
 33 30  1  0  0  0  0
 34 32  1  0  0  0  0
 35 34  2  0  0  0  0
 36 34  1  0  0  0  0
 36 37  1  0  0  0  0
 37 38  1  0  0  0  0
 38 40  1  0  0  0  0
 40 39  2  0  0  0  0
 40 41  1  0  0  0  0
 41 43  1  0  0  0  0
 43 42  1  6  0  0  0
 44 45  1  0  0  0  0
 46 43  1  6  0  0  0
 46 48  1  0  0  0  0
 46 49  1  0  0  0  0
 47 45  1  0  0  0  0
 48 44  1  0  0  0  0
 49 47  2  0  0  0  0
 51 43  1  0  0  0  0
 51 50  1  0  0  0  0
M  END
>  <MODEL>
2

>  <REMARK>
 VINA RESULT:      -6.3      1.643      2.860
  Name = 
  18 active torsions:
  status: ('A' for Active; 'I' for Inactive)
    1  A    between atoms: N_3  and  C_12
    2  A    between atoms: C_4  and  C_20
    3  A    between atoms: C_4  and  C_24
    4  A    between atoms: C_6  and  C_8
    5  A    between atoms: C_7  and  C_40
    6  A    between atoms: C_7  and  C_48
    7  A    between atoms: C_8  and  C_46
    8  A    between atoms: O_11  and  N_26
    9  A    between atoms: O_11  and  C_46
   10  A    between atoms: C_13  and  O_43
   11  A    between atoms: C_16  and  C_37
   12  A    between atoms: C_17  and  C_50
   13  A    between atoms: N_19  and  C_24
   14  A    between atoms: C_22  and  C_40
   15  A    between atoms: C_28  and  C_33
   16  A    between atoms: C_34  and  C_45
   17  A    between atoms: C_39  and  C_40
   18  A    between atoms: O_43  and  C_45
                            x       y       z     vdW  Elec       q    Type
                         _______ _______ _______ _____ _____    ______ ____

>  <TORSDO>
F 18

$$$$
=
 OpenBabel11042415243D

 51 54  0  0  1  0  0  0  0  0999 V2000
  189.7350  176.5570  143.7060 C   0  0  0  0  0  0  0  0  0  0  0  0
  187.5510  176.0020  143.2300 C   0  0  0  0  0  3  0  0  0  0  0  0
  188.9470  175.6560  142.8180 C   0  0  2  0  0  3  0  0  0  0  0  0
  187.5760  176.9290  144.1820 C   0  0  0  0  0  0  0  0  0  0  0  0
  188.9540  177.2900  144.4850 C   0  0  0  0  0  3  0  0  0  0  0  0
  194.1850  174.5720  146.0070 O   0  0  0  0  0  0  0  0  0  0  0  0
  191.1670  176.6290  143.6800 N   0  0  0  0  0  2  0  0  0  0  0  0
  193.4740  176.0560  144.3370 N   0  0  0  0  0  2  0  0  0  0  0  0
  192.0630  175.8850  144.5140 C   0  0  0  0  0  0  0  0  0  0  0  0
  191.6210  175.0940  145.3910 O   0  0  0  0  0  0  0  0  0  0  0  0
  194.4890  175.3820  145.0890 C   0  0  0  0  0  0  0  0  0  0  0  0
  195.9230  175.6550  144.7730 C   0  0  0  0  0  3  0  0  0  0  0  0
  196.6600  174.3740  144.4170 C   0  0  0  0  0  2  0  0  0  0  0  0
  197.3040  176.1300  142.8660 C   0  0  0  0  0  2  0  0  0  0  0  0
  196.0540  176.5800  143.5810 C   0  0  0  0  0  2  0  0  0  0  0  0
  197.3980  174.6400  143.1170 C   0  0  0  0  0  2  0  0  0  0  0  0
  184.0500  178.5430  146.0420 C   0  0  0  0  0  3  0  0  0  0  0  0
  185.6480  178.5880  144.2070 C   0  0  0  0  0  0  0  0  0  0  0  0
  186.3630  177.5220  144.8050 C   0  0  0  0  0  0  0  0  0  0  0  0
  184.7570  177.5020  146.6380 C   0  0  0  0  0  3  0  0  0  0  0  0
  185.9030  176.9960  146.0240 C   0  0  0  0  0  3  0  0  0  0  0  0
  184.4930  179.0840  144.8360 C   0  0  0  0  0  3  0  0  0  0  0  0
  186.0970  179.1530  143.0050 O   0  0  0  0  0  0  0  0  0  0  0  0
  185.8020  178.6090  141.7220 C   0  0  0  0  0  2  0  0  0  0  0  0
  183.6280  178.4080  140.5970 C   0  0  0  0  0  3  0  0  0  0  0  0
  184.3810  178.1480  141.6660 C   0  0  0  0  0  3  0  0  0  0  0  0
  182.2080  177.9490  140.5290 C   0  0  0  0  0  2  0  0  0  0  0  0
  181.3650  178.6740  141.5620 C   0  0  0  0  0  1  0  0  0  0  0  0
  189.2500  174.2020  143.1460 C   0  0  0  0  0  2  0  0  0  0  0  0
  188.7500  173.2990  142.0350 C   0  0  0  0  0  2  0  0  0  0  0  0
  187.8620  172.4790  139.4780 O   0  0  0  0  0  0  0  0  0  0  0  0
  188.8680  173.2380  139.5210 C   0  0  0  0  0  0  0  0  0  0  0  0
  189.3780  173.6800  140.7800 N   0  0  0  0  0  2  0  0  0  0  0  0
  189.5210  173.6670  138.2750 C   0  0  0  0  0  0  0  0  0  0  0  0
  188.8990  174.4080  137.4660 O   0  0  0  0  0  0  0  0  0  0  0  0
  190.9180  173.2230  137.9730 C   0  0  0  0  0  2  0  0  0  0  0  0
  191.0720  171.8510  138.1950 O   0  0  0  0  0  0  0  0  0  0  0  0
  192.1750  171.7470  138.9760 N   0  0  0  0  0  2  0  0  0  0  0  0
  191.0230  170.7040  140.7160 O   0  0  0  0  0  0  0  0  0  0  0  0
  192.1200  171.1210  140.2580 C   0  0  0  0  0  0  0  0  0  0  0  0
  193.3690  170.9710  141.0670 C   0  0  0  0  0  2  0  0  0  0  0  0
  194.8970  172.0260  142.5840 O   0  0  0  0  0  1  0  0  0  0  0  0
  193.8430  172.2860  141.7030 C   0  0  1  0  0  0  0  0  0  0  0  0
  196.2310  174.1140  139.2480 C   0  0  0  0  0  2  0  0  0  0  0  0
  195.8370  175.4360  139.6190 O   0  0  0  0  0  0  0  0  0  0  0  0
  194.3310  173.2440  140.5950 C   0  0  2  0  0  3  0  0  0  0  0  0
  194.6800  175.6850  140.3690 C   0  0  0  0  0  3  0  0  0  0  0  0
  195.8380  173.1210  140.3380 C   0  0  0  0  0  2  0  0  0  0  0  0
  193.9560  174.6800  140.8660 C   0  0  0  0  0  3  0  0  0  0  0  0
  192.3650  172.1580  143.6120 O   0  0  0  0  0  1  0  0  0  0  0  0
  192.6930  172.9240  142.4910 C   0  0  0  0  0  2  0  0  0  0  0  0
  1  5  2  0  0  0  0
  2  4  2  0  0  0  0
  3 29  1  1  0  0  0
  3  2  1  0  0  0  0
  3  1  1  0  0  0  0
  4  5  1  0  0  0  0
  4 19  1  0  0  0  0
  7  1  1  0  0  0  0
  7  9  1  0  0  0  0
  8  9  1  0  0  0  0
  8 11  1  0  0  0  0
  9 10  2  0  0  0  0
 11  6  2  0  0  0  0
 12 11  1  0  0  0  0
 13 12  1  0  0  0  0
 14 16  1  0  0  0  0
 14 15  1  0  0  0  0
 15 12  1  0  0  0  0
 16 13  1  0  0  0  0
 17 20  1  0  0  0  0
 18 19  2  0  0  0  0
 18 22  1  0  0  0  0
 19 21  1  0  0  0  0
 21 20  2  0  0  0  0
 22 17  2  0  0  0  0
 23 18  1  0  0  0  0
 24 23  1  0  0  0  0
 25 26  2  0  0  0  0
 26 24  1  0  0  0  0
 27 25  1  0  0  0  0
 27 28  1  0  0  0  0
 30 29  1  0  0  0  0
 31 32  2  0  0  0  0
 32 33  1  0  0  0  0
 33 30  1  0  0  0  0
 34 32  1  0  0  0  0
 35 34  2  0  0  0  0
 36 37  1  0  0  0  0
 36 34  1  0  0  0  0
 37 38  1  0  0  0  0
 38 40  1  0  0  0  0
 40 39  2  0  0  0  0
 40 41  1  0  0  0  0
 41 43  1  0  0  0  0
 43 51  1  0  0  0  0
 43 42  1  1  0  0  0
 44 45  1  0  0  0  0
 44 48  1  0  0  0  0
 45 47  1  0  0  0  0
 46 49  1  0  0  0  0
 46 43  1  1  0  0  0
 47 49  2  0  0  0  0
 48 46  1  0  0  0  0
 51 50  1  0  0  0  0
M  END
>  <MODEL>
3

>  <REMARK>
 VINA RESULT:      -6.3      2.226      3.892
  Name = 
  18 active torsions:
  status: ('A' for Active; 'I' for Inactive)
    1  A    between atoms: N_3  and  C_12
    2  A    between atoms: C_4  and  C_20
    3  A    between atoms: C_4  and  C_24
    4  A    between atoms: C_6  and  C_8
    5  A    between atoms: C_7  and  C_40
    6  A    between atoms: C_7  and  C_48
    7  A    between atoms: C_8  and  C_46
    8  A    between atoms: O_11  and  N_26
    9  A    between atoms: O_11  and  C_46
   10  A    between atoms: C_13  and  O_43
   11  A    between atoms: C_16  and  C_37
   12  A    between atoms: C_17  and  C_50
   13  A    between atoms: N_19  and  C_24
   14  A    between atoms: C_22  and  C_40
   15  A    between atoms: C_28  and  C_33
   16  A    between atoms: C_34  and  C_45
   17  A    between atoms: C_39  and  C_40
   18  A    between atoms: O_43  and  C_45
                            x       y       z     vdW  Elec       q    Type
                         _______ _______ _______ _____ _____    ______ ____

>  <TORSDO>
F 18

$$$$
=
 OpenBabel11042415243D

 51 54  0  0  1  0  0  0  0  0999 V2000
  190.8310  173.4430  144.3890 C   0  0  0  0  0  0  0  0  0  0  0  0
  192.3900  171.9140  143.6560 C   0  0  0  0  0  3  0  0  0  0  0  0
  190.9510  172.2770  143.4670 C   0  0  2  0  0  3  0  0  0  0  0  0
  192.9570  172.7420  144.5270 C   0  0  0  0  0  0  0  0  0  0  0  0
  191.9750  173.7090  145.0010 C   0  0  0  0  0  3  0  0  0  0  0  0
  188.1560  177.9070  142.9940 O   0  0  0  0  0  0  0  0  0  0  0  0
  189.6040  174.1550  144.5980 N   0  0  0  0  0  2  0  0  0  0  0  0
  187.9590  175.9670  144.2940 N   0  0  0  0  0  2  0  0  0  0  0  0
  189.2430  175.4050  143.9980 C   0  0  0  0  0  0  0  0  0  0  0  0
  190.0390  176.0010  143.2240 O   0  0  0  0  0  0  0  0  0  0  0  0
  187.4570  177.2010  143.7700 C   0  0  0  0  0  0  0  0  0  0  0  0
  186.0860  177.6480  144.1620 C   0  0  0  0  0  3  0  0  0  0  0  0
  185.5100  176.7590  145.2510 C   0  0  0  0  0  2  0  0  0  0  0  0
  185.0360  179.0830  145.7760 C   0  0  0  0  0  2  0  0  0  0  0  0
  186.1080  179.0580  144.7140 C   0  0  0  0  0  2  0  0  0  0  0  0
  184.9980  177.6800  146.3440 C   0  0  0  0  0  2  0  0  0  0  0  0
  197.0280  172.3940  145.8670 C   0  0  0  0  0  3  0  0  0  0  0  0
  195.2500  173.7660  144.9290 C   0  0  0  0  0  0  0  0  0  0  0  0
  194.3740  172.6540  144.9670 C   0  0  0  0  0  0  0  0  0  0  0  0
  196.1720  171.2960  145.8960 C   0  0  0  0  0  3  0  0  0  0  0  0
  194.8560  171.4260  145.4500 C   0  0  0  0  0  3  0  0  0  0  0  0
  196.5710  173.6200  145.3860 C   0  0  0  0  0  3  0  0  0  0  0  0
  194.8070  174.9980  144.4270 O   0  0  0  0  0  0  0  0  0  0  0  0
  195.0080  176.2380  145.0980 C   0  0  0  0  0  2  0  0  0  0  0  0
  193.3750  176.3960  146.9250 C   0  0  0  0  0  3  0  0  0  0  0  0
  193.7230  176.7290  145.6810 C   0  0  0  0  0  3  0  0  0  0  0  0
  192.0940  176.8840  147.5190 C   0  0  0  0  0  2  0  0  0  0  0  0
  191.1740  175.7180  147.8300 C   0  0  0  0  0  1  0  0  0  0  0  0
  190.7000  172.7170  142.0330 C   0  0  0  0  0  2  0  0  0  0  0  0
  189.2700  172.4100  141.6340 C   0  0  0  0  0  2  0  0  0  0  0  0
  188.4050  174.8580  140.5110 O   0  0  0  0  0  0  0  0  0  0  0  0
  188.6710  173.9200  139.7110 C   0  0  0  0  0  0  0  0  0  0  0  0
  189.1000  172.6520  140.2100 N   0  0  0  0  0  2  0  0  0  0  0  0
  188.5350  174.1290  138.2620 C   0  0  0  0  0  0  0  0  0  0  0  0
  187.6060  174.8580  137.8190 O   0  0  0  0  0  0  0  0  0  0  0  0
  189.5000  173.4780  137.3200 C   0  0  0  0  0  2  0  0  0  0  0  0
  190.6080  174.2970  137.0860 O   0  0  0  0  0  0  0  0  0  0  0  0
  191.6340  173.6830  137.7250 N   0  0  0  0  0  2  0  0  0  0  0  0
  193.1290  175.4250  137.3070 O   0  0  0  0  0  0  0  0  0  0  0  0
  192.9120  174.3080  137.8480 C   0  0  0  0  0  0  0  0  0  0  0  0
  194.0030  173.6280  138.6120 C   0  0  0  0  0  2  0  0  0  0  0  0
  192.9740  174.6830  140.5040 O   0  0  0  0  0  1  0  0  0  0  0  0
  194.1930  174.1900  140.0300 C   0  0  1  0  0  0  0  0  0  0  0  0
  196.6000  171.9260  142.0680 C   0  0  0  0  0  2  0  0  0  0  0  0
  196.1190  170.6890  141.5400 O   0  0  0  0  0  0  0  0  0  0  0  0
  194.6840  173.0640  140.9650 C   0  0  2  0  0  3  0  0  0  0  0  0
  194.9140  170.6020  140.8290 C   0  0  0  0  0  3  0  0  0  0  0  0
  196.2060  173.0800  141.1510 C   0  0  0  0  0  2  0  0  0  0  0  0
  194.2210  171.6990  140.5180 C   0  0  0  0  0  3  0  0  0  0  0  0
  194.8610  176.3400  140.9100 O   0  0  0  0  0  1  0  0  0  0  0  0
  195.2080  175.3390  139.9990 C   0  0  0  0  0  2  0  0  0  0  0  0
  1  7  1  0  0  0  0
  1  5  2  0  0  0  0
  2  4  2  0  0  0  0
  3 29  1  6  0  0  0
  3  2  1  0  0  0  0
  3  1  1  0  0  0  0
  4 19  1  0  0  0  0
  4  5  1  0  0  0  0
  6 11  2  0  0  0  0
  9  8  1  0  0  0  0
  9  7  1  0  0  0  0
 10  9  2  0  0  0  0
 11 12  1  0  0  0  0
 11  8  1  0  0  0  0
 12 15  1  0  0  0  0
 12 13  1  0  0  0  0
 13 16  1  0  0  0  0
 14 16  1  0  0  0  0
 15 14  1  0  0  0  0
 17 20  1  0  0  0  0
 18 19  2  0  0  0  0
 18 22  1  0  0  0  0
 19 21  1  0  0  0  0
 21 20  2  0  0  0  0
 22 17  2  0  0  0  0
 23 18  1  0  0  0  0
 23 24  1  0  0  0  0
 24 26  1  0  0  0  0
 25 27  1  0  0  0  0
 26 25  2  0  0  0  0
 27 28  1  0  0  0  0
 30 29  1  0  0  0  0
 32 33  1  0  0  0  0
 32 31  2  0  0  0  0
 33 30  1  0  0  0  0
 34 32  1  0  0  0  0
 35 34  2  0  0  0  0
 36 34  1  0  0  0  0
 37 36  1  0  0  0  0
 37 38  1  0  0  0  0
 38 40  1  0  0  0  0
 39 40  2  0  0  0  0
 40 41  1  0  0  0  0
 41 43  1  0  0  0  0
 43 42  1  1  0  0  0
 45 44  1  0  0  0  0
 46 43  1  6  0  0  0
 46 48  1  0  0  0  0
 47 45  1  0  0  0  0
 48 44  1  0  0  0  0
 49 47  2  0  0  0  0
 49 46  1  0  0  0  0
 51 43  1  0  0  0  0
 51 50  1  0  0  0  0
M  END
>  <MODEL>
4

>  <REMARK>
 VINA RESULT:      -6.1      2.157      6.759
  Name = 
  18 active torsions:
  status: ('A' for Active; 'I' for Inactive)
    1  A    between atoms: N_3  and  C_12
    2  A    between atoms: C_4  and  C_20
    3  A    between atoms: C_4  and  C_24
    4  A    between atoms: C_6  and  C_8
    5  A    between atoms: C_7  and  C_40
    6  A    between atoms: C_7  and  C_48
    7  A    between atoms: C_8  and  C_46
    8  A    between atoms: O_11  and  N_26
    9  A    between atoms: O_11  and  C_46
   10  A    between atoms: C_13  and  O_43
   11  A    between atoms: C_16  and  C_37
   12  A    between atoms: C_17  and  C_50
   13  A    between atoms: N_19  and  C_24
   14  A    between atoms: C_22  and  C_40
   15  A    between atoms: C_28  and  C_33
   16  A    between atoms: C_34  and  C_45
   17  A    between atoms: C_39  and  C_40
   18  A    between atoms: O_43  and  C_45
                            x       y       z     vdW  Elec       q    Type
                         _______ _______ _______ _____ _____    ______ ____

>  <TORSDO>
F 18

$$$$
=
 OpenBabel11042415243D

 51 54  0  0  1  0  0  0  0  0999 V2000
  190.3150  176.5420  144.5290 C   0  0  0  0  0  0  0  0  0  0  0  0
  188.2400  175.6470  144.9710 C   0  0  0  0  0  3  0  0  0  0  0  0
  189.5560  175.2690  144.3700 C   0  0  2  0  0  3  0  0  0  0  0  0
  188.2780  176.9080  145.3900 C   0  0  0  0  0  0  0  0  0  0  0  0
  189.5860  177.4830  145.1090 C   0  0  0  0  0  3  0  0  0  0  0  0
  193.7340  175.1730  140.5950 O   0  0  0  0  0  0  0  0  0  0  0  0
  191.6640  176.7140  144.0720 N   0  0  0  0  0  2  0  0  0  0  0  0
  193.5940  176.4410  142.5620 N   0  0  0  0  0  2  0  0  0  0  0  0
  192.2320  176.1420  142.8880 C   0  0  0  0  0  0  0  0  0  0  0  0
  191.5480  175.3880  142.1450 O   0  0  0  0  0  0  0  0  0  0  0  0
  194.2960  175.9490  141.4150 C   0  0  0  0  0  0  0  0  0  0  0  0
  195.7150  176.3660  141.2020 C   0  0  0  0  0  3  0  0  0  0  0  0
  196.4650  176.4510  142.5210 C   0  0  0  0  0  2  0  0  0  0  0  0
  197.8710  175.3640  140.8650 C   0  0  0  0  0  2  0  0  0  0  0  0
  196.4550  175.3640  140.3420 C   0  0  0  0  0  2  0  0  0  0  0  0
  197.7550  175.6690  142.3430 C   0  0  0  0  0  2  0  0  0  0  0  0
  184.9890  178.9110  147.3050 C   0  0  0  0  0  3  0  0  0  0  0  0
  185.9970  178.0270  145.2740 C   0  0  0  0  0  0  0  0  0  0  0  0
  187.1310  177.6160  146.0160 C   0  0  0  0  0  0  0  0  0  0  0  0
  186.1070  178.5170  148.0360 C   0  0  0  0  0  3  0  0  0  0  0  0
  187.1680  177.8750  147.3970 C   0  0  0  0  0  3  0  0  0  0  0  0
  184.9350  178.6680  145.9330 C   0  0  0  0  0  3  0  0  0  0  0  0
  185.9410  177.8080  143.8900 O   0  0  0  0  0  0  0  0  0  0  0  0
  186.1650  178.8280  142.9220 C   0  0  0  0  0  2  0  0  0  0  0  0
  186.9620  176.9460  141.5600 C   0  0  0  0  0  3  0  0  0  0  0  0
  186.6020  178.2290  141.6250 C   0  0  0  0  0  3  0  0  0  0  0  0
  187.3980  176.3360  140.2690 C   0  0  0  0  0  2  0  0  0  0  0  0
  186.6430  176.9550  139.1070 C   0  0  0  0  0  1  0  0  0  0  0  0
  190.2120  174.1630  145.1830 C   0  0  0  0  0  2  0  0  0  0  0  0
  189.7030  172.8080  144.7310 C   0  0  0  0  0  2  0  0  0  0  0  0
  188.1360  172.4190  142.4090 O   0  0  0  0  0  0  0  0  0  0  0  0
  189.3870  172.3310  142.2790 C   0  0  0  0  0  0  0  0  0  0  0  0
  190.2380  172.5040  143.4140 N   0  0  0  0  0  2  0  0  0  0  0  0
  189.9720  172.0480  140.9610 C   0  0  0  0  0  0  0  0  0  0  0  0
  189.7220  172.8110  139.9870 O   0  0  0  0  0  0  0  0  0  0  0  0
  190.8620  170.8580  140.7790 C   0  0  0  0  0  2  0  0  0  0  0  0
  191.8790  171.1240  139.8560 O   0  0  0  0  0  0  0  0  0  0  0  0
  192.8100  171.8180  140.5560 N   0  0  0  0  0  2  0  0  0  0  0  0
  194.3480  170.0640  140.5290 O   0  0  0  0  0  0  0  0  0  0  0  0
  194.0850  171.2520  140.8580 C   0  0  0  0  0  0  0  0  0  0  0  0
  195.1100  172.0680  141.5790 C   0  0  0  0  0  2  0  0  0  0  0  0
  196.1030  170.6690  143.2550 O   0  0  0  0  0  1  0  0  0  0  0  0
  195.2120  171.7320  143.0750 C   0  0  1  0  0  0  0  0  0  0  0  0
  197.2350  173.8760  145.6010 C   0  0  0  0  0  2  0  0  0  0  0  0
  196.1040  174.5340  146.1730 O   0  0  0  0  0  0  0  0  0  0  0  0
  195.7330  172.9670  143.8420 C   0  0  2  0  0  3  0  0  0  0  0  0
  194.8410  174.5060  145.5660 C   0  0  0  0  0  3  0  0  0  0  0  0
  196.7980  172.6030  144.8830 C   0  0  0  0  0  2  0  0  0  0  0  0
  194.6200  173.7610  144.4800 C   0  0  0  0  0  3  0  0  0  0  0  0
  193.9360  170.1810  144.4190 O   0  0  0  0  0  1  0  0  0  0  0  0
  193.8370  171.3140  143.6070 C   0  0  0  0  0  2  0  0  0  0  0  0
  1  5  2  0  0  0  0
  2  4  2  0  0  0  0
  3  1  1  0  0  0  0
  3  2  1  0  0  0  0
  3 29  1  1  0  0  0
  4 19  1  0  0  0  0
  5  4  1  0  0  0  0
  6 11  2  0  0  0  0
  7  1  1  0  0  0  0
  8  9  1  0  0  0  0
  9  7  1  0  0  0  0
 10  9  2  0  0  0  0
 11  8  1  0  0  0  0
 12 11  1  0  0  0  0
 12 13  1  0  0  0  0
 14 16  1  0  0  0  0
 15 14  1  0  0  0  0
 15 12  1  0  0  0  0
 16 13  1  0  0  0  0
 17 20  1  0  0  0  0
 18 22  1  0  0  0  0
 18 19  2  0  0  0  0
 19 21  1  0  0  0  0
 21 20  2  0  0  0  0
 22 17  2  0  0  0  0
 23 18  1  0  0  0  0
 24 23  1  0  0  0  0
 25 26  2  0  0  0  0
 26 24  1  0  0  0  0
 27 25  1  0  0  0  0
 28 27  1  0  0  0  0
 30 29  1  0  0  0  0
 32 31  2  0  0  0  0
 32 33  1  0  0  0  0
 33 30  1  0  0  0  0
 34 32  1  0  0  0  0
 35 34  2  0  0  0  0
 36 34  1  0  0  0  0
 37 38  1  0  0  0  0
 37 36  1  0  0  0  0
 38 40  1  0  0  0  0
 39 40  2  0  0  0  0
 40 41  1  0  0  0  0
 41 43  1  0  0  0  0
 43 42  1  1  0  0  0
 43 51  1  0  0  0  0
 44 45  1  0  0  0  0
 46 43  1  1  0  0  0
 46 49  1  0  0  0  0
 46 48  1  0  0  0  0
 47 45  1  0  0  0  0
 48 44  1  0  0  0  0
 49 47  2  0  0  0  0
 51 50  1  0  0  0  0
M  END
>  <MODEL>
5

>  <REMARK>
 VINA RESULT:      -6.1      1.925      3.138
  Name = 
  18 active torsions:
  status: ('A' for Active; 'I' for Inactive)
    1  A    between atoms: N_3  and  C_12
    2  A    between atoms: C_4  and  C_20
    3  A    between atoms: C_4  and  C_24
    4  A    between atoms: C_6  and  C_8
    5  A    between atoms: C_7  and  C_40
    6  A    between atoms: C_7  and  C_48
    7  A    between atoms: C_8  and  C_46
    8  A    between atoms: O_11  and  N_26
    9  A    between atoms: O_11  and  C_46
   10  A    between atoms: C_13  and  O_43
   11  A    between atoms: C_16  and  C_37
   12  A    between atoms: C_17  and  C_50
   13  A    between atoms: N_19  and  C_24
   14  A    between atoms: C_22  and  C_40
   15  A    between atoms: C_28  and  C_33
   16  A    between atoms: C_34  and  C_45
   17  A    between atoms: C_39  and  C_40
   18  A    between atoms: O_43  and  C_45
                            x       y       z     vdW  Elec       q    Type
                         _______ _______ _______ _____ _____    ______ ____

>  <TORSDO>
F 18

$$$$
=
 OpenBabel11042415243D

 51 54  0  0  1  0  0  0  0  0999 V2000
  189.1740  177.2960  142.8670 C   0  0  0  0  0  0  0  0  0  0  0  0
  187.2550  178.5600  143.0220 C   0  0  0  0  0  3  0  0  0  0  0  0
  188.3560  178.2440  142.0590 C   0  0  2  0  0  3  0  0  0  0  0  0
  187.4410  177.8940  144.1570 C   0  0  0  0  0  0  0  0  0  0  0  0
  188.6570  177.0960  144.0690 C   0  0  0  0  0  3  0  0  0  0  0  0
  194.3830  176.6180  144.0680 O   0  0  0  0  0  0  0  0  0  0  0  0
  190.3920  176.7080  142.3900 N   0  0  0  0  0  2  0  0  0  0  0  0
  192.7770  176.0820  142.4470 N   0  0  0  0  0  2  0  0  0  0  0  0
  191.6630  176.7500  143.0500 C   0  0  0  0  0  0  0  0  0  0  0  0
  191.8020  177.3650  144.1420 O   0  0  0  0  0  0  0  0  0  0  0  0
  194.1020  176.0330  142.9860 C   0  0  0  0  0  0  0  0  0  0  0  0
  195.1570  175.2790  142.2450 C   0  0  0  0  0  3  0  0  0  0  0  0
  195.2860  175.7780  140.8150 C   0  0  0  0  0  2  0  0  0  0  0  0
  197.5020  175.4450  141.7530 C   0  0  0  0  0  2  0  0  0  0  0  0
  196.5140  175.4560  142.8940 C   0  0  0  0  0  2  0  0  0  0  0  0
  196.7630  176.0380  140.5730 C   0  0  0  0  0  2  0  0  0  0  0  0
  184.8060  178.2730  147.5340 C   0  0  0  0  0  3  0  0  0  0  0  0
  186.8950  177.4460  146.6010 C   0  0  0  0  0  0  0  0  0  0  0  0
  186.5470  177.9920  145.3410 C   0  0  0  0  0  0  0  0  0  0  0  0
  184.4560  178.8030  146.2950 C   0  0  0  0  0  3  0  0  0  0  0  0
  185.3200  178.6630  145.2080 C   0  0  0  0  0  3  0  0  0  0  0  0
  186.0160  177.5980  147.6860 C   0  0  0  0  0  3  0  0  0  0  0  0
  188.1000  176.7470  146.7590 O   0  0  0  0  0  0  0  0  0  0  0  0
  188.1760  175.4120  147.2490 C   0  0  0  0  0  2  0  0  0  0  0  0
  190.5940  175.5700  146.8470 C   0  0  0  0  0  3  0  0  0  0  0  0
  189.5930  175.0510  147.5590 C   0  0  0  0  0  3  0  0  0  0  0  0
  192.0140  175.2190  147.1500 C   0  0  0  0  0  2  0  0  0  0  0  0
  192.8680  176.4720  147.2230 C   0  0  0  0  0  1  0  0  0  0  0  0
  187.7990  177.5400  140.8310 C   0  0  0  0  0  2  0  0  0  0  0  0
  187.4210  176.1120  141.1730 C   0  0  0  0  0  2  0  0  0  0  0  0
  188.5570  173.6200  141.8800 O   0  0  0  0  0  0  0  0  0  0  0  0
  188.6090  173.9510  140.6650 C   0  0  0  0  0  0  0  0  0  0  0  0
  188.0670  175.2030  140.2390 N   0  0  0  0  0  2  0  0  0  0  0  0
  189.2320  173.0510  139.6830 C   0  0  0  0  0  0  0  0  0  0  0  0
  188.5240  172.2040  139.0720 O   0  0  0  0  0  0  0  0  0  0  0  0
  190.7010  173.1440  139.4110 C   0  0  0  0  0  2  0  0  0  0  0  0
  191.3620  171.9730  139.7950 O   0  0  0  0  0  0  0  0  0  0  0  0
  192.1740  172.3510  140.8130 N   0  0  0  0  0  2  0  0  0  0  0  0
  192.6000  170.1560  141.4800 O   0  0  0  0  0  0  0  0  0  0  0  0
  192.8210  171.3860  141.6430 C   0  0  0  0  0  0  0  0  0  0  0  0
  193.7580  171.8380  142.7170 C   0  0  0  0  0  2  0  0  0  0  0  0
  192.4330  170.5540  144.2500 O   0  0  0  0  0  1  0  0  0  0  0  0
  193.1550  171.7450  144.1270 C   0  0  1  0  0  0  0  0  0  0  0  0
  196.6400  172.3650  145.7230 C   0  0  0  0  0  2  0  0  0  0  0  0
  196.8440  171.0180  146.1530 O   0  0  0  0  0  0  0  0  0  0  0  0
  194.2920  171.7600  145.1720 C   0  0  2  0  0  3  0  0  0  0  0  0
  195.8020  170.0830  146.1930 C   0  0  0  0  0  3  0  0  0  0  0  0
  195.5710  172.4140  144.6350 C   0  0  0  0  0  2  0  0  0  0  0  0
  194.5910  170.3860  145.7190 C   0  0  0  0  0  3  0  0  0  0  0  0
  190.8830  172.4800  144.5070 O   0  0  0  0  0  1  0  0  0  0  0  0
  192.2010  172.9220  144.3610 C   0  0  0  0  0  2  0  0  0  0  0  0
  1  5  2  0  0  0  0
  2  4  2  0  0  0  0
  3 29  1  6  0  0  0
  3  1  1  0  0  0  0
  3  2  1  0  0  0  0
  4 19  1  0  0  0  0
  5  4  1  0  0  0  0
  7  1  1  0  0  0  0
  7  9  1  0  0  0  0
  8 11  1  0  0  0  0
  8  9  1  0  0  0  0
  9 10  2  0  0  0  0
 11  6  2  0  0  0  0
 12 15  1  0  0  0  0
 12 11  1  0  0  0  0
 13 12  1  0  0  0  0
 14 15  1  0  0  0  0
 16 13  1  0  0  0  0
 16 14  1  0  0  0  0
 17 22  1  0  0  0  0
 18 23  1  0  0  0  0
 18 22  2  0  0  0  0
 19 18  1  0  0  0  0
 20 17  2  0  0  0  0
 21 19  2  0  0  0  0
 21 20  1  0  0  0  0
 23 24  1  0  0  0  0
 24 26  1  0  0  0  0
 25 27  1  0  0  0  0
 25 26  2  0  0  0  0
 27 28  1  0  0  0  0
 29 30  1  0  0  0  0
 32 31  2  0  0  0  0
 33 32  1  0  0  0  0
 33 30  1  0  0  0  0
 34 32  1  0  0  0  0
 35 34  2  0  0  0  0
 36 34  1  0  0  0  0
 36 37  1  0  0  0  0
 37 38  1  0  0  0  0
 38 40  1  0  0  0  0
 39 40  2  0  0  0  0
 40 41  1  0  0  0  0
 41 43  1  0  0  0  0
 43 42  1  1  0  0  0
 43 51  1  0  0  0  0
 44 45  1  0  0  0  0
 45 47  1  0  0  0  0
 46 43  1  6  0  0  0
 46 49  1  0  0  0  0
 48 46  1  0  0  0  0
 48 44  1  0  0  0  0
 49 47  2  0  0  0  0
 51 50  1  0  0  0  0
M  END
>  <MODEL>
6

>  <REMARK>
 VINA RESULT:      -5.9      1.470      2.100
  Name = 
  18 active torsions:
  status: ('A' for Active; 'I' for Inactive)
    1  A    between atoms: N_3  and  C_12
    2  A    between atoms: C_4  and  C_20
    3  A    between atoms: C_4  and  C_24
    4  A    between atoms: C_6  and  C_8
    5  A    between atoms: C_7  and  C_40
    6  A    between atoms: C_7  and  C_48
    7  A    between atoms: C_8  and  C_46
    8  A    between atoms: O_11  and  N_26
    9  A    between atoms: O_11  and  C_46
   10  A    between atoms: C_13  and  O_43
   11  A    between atoms: C_16  and  C_37
   12  A    between atoms: C_17  and  C_50
   13  A    between atoms: N_19  and  C_24
   14  A    between atoms: C_22  and  C_40
   15  A    between atoms: C_28  and  C_33
   16  A    between atoms: C_34  and  C_45
   17  A    between atoms: C_39  and  C_40
   18  A    between atoms: O_43  and  C_45
                            x       y       z     vdW  Elec       q    Type
                         _______ _______ _______ _____ _____    ______ ____

>  <TORSDO>
F 18

$$$$
=
 OpenBabel11042415243D

 51 54  0  0  1  0  0  0  0  0999 V2000
  190.1410  176.8470  143.1880 C   0  0  0  0  0  0  0  0  0  0  0  0
  187.8700  176.4600  143.1960 C   0  0  0  0  0  3  0  0  0  0  0  0
  189.0820  176.2070  142.3560 C   0  0  2  0  0  3  0  0  0  0  0  0
  188.2120  177.1210  144.2980 C   0  0  0  0  0  0  0  0  0  0  0  0
  189.6470  177.3740  144.2970 C   0  0  0  0  0  3  0  0  0  0  0  0
  195.1510  175.9220  144.9430 O   0  0  0  0  0  0  0  0  0  0  0  0
  191.5200  176.9010  142.7970 N   0  0  0  0  0  2  0  0  0  0  0  0
  193.9570  176.6300  143.0540 N   0  0  0  0  0  2  0  0  0  0  0  0
  192.6410  176.5440  143.6130 C   0  0  0  0  0  0  0  0  0  0  0  0
  192.4760  176.1610  144.8030 O   0  0  0  0  0  0  0  0  0  0  0  0
  195.1700  176.3050  143.7420 C   0  0  0  0  0  0  0  0  0  0  0  0
  196.4690  176.4310  143.0150 C   0  0  0  0  0  3  0  0  0  0  0  0
  197.4020  175.2810  143.3560 C   0  0  0  0  0  2  0  0  0  0  0  0
  197.4810  175.6980  140.9640 C   0  0  0  0  0  2  0  0  0  0  0  0
  196.2610  176.3950  141.5160 C   0  0  0  0  0  2  0  0  0  0  0  0
  197.9060  174.7190  142.0380 C   0  0  0  0  0  2  0  0  0  0  0  0
  185.4380  178.4950  147.2820 C   0  0  0  0  0  3  0  0  0  0  0  0
  187.0850  176.8550  146.5620 C   0  0  0  0  0  0  0  0  0  0  0  0
  187.2510  177.5580  145.3440 C   0  0  0  0  0  0  0  0  0  0  0  0
  185.5910  179.1830  146.0810 C   0  0  0  0  0  3  0  0  0  0  0  0
  186.4910  178.7180  145.1210 C   0  0  0  0  0  3  0  0  0  0  0  0
  186.1790  177.3380  147.5210 C   0  0  0  0  0  3  0  0  0  0  0  0
  187.8100  175.6790  146.8030 O   0  0  0  0  0  0  0  0  0  0  0  0
  189.1610  175.6650  147.2510 C   0  0  0  0  0  2  0  0  0  0  0  0
  189.3170  173.7630  145.7050 C   0  0  0  0  0  3  0  0  0  0  0  0
  189.9180  174.5600  146.5890 C   0  0  0  0  0  3  0  0  0  0  0  0
  190.0650  172.6580  145.0350 C   0  0  0  0  0  2  0  0  0  0  0  0
  191.5370  173.0080  144.9150 C   0  0  0  0  0  1  0  0  0  0  0  0
  189.3410  174.7130  142.2380 C   0  0  0  0  0  2  0  0  0  0  0  0
  188.2760  174.0640  141.3740 C   0  0  0  0  0  2  0  0  0  0  0  0
  188.2010  172.4140  139.0780 O   0  0  0  0  0  0  0  0  0  0  0  0
  188.3410  173.6530  138.8910 C   0  0  0  0  0  0  0  0  0  0  0  0
  188.4010  174.5430  140.0070 N   0  0  0  0  0  2  0  0  0  0  0  0
  188.4480  174.1840  137.5240 C   0  0  0  0  0  0  0  0  0  0  0  0
  187.6400  175.0700  137.1320 O   0  0  0  0  0  0  0  0  0  0  0  0
  189.5130  173.6720  136.6050 C   0  0  0  0  0  2  0  0  0  0  0  0
  190.7410  174.2920  136.8590 O   0  0  0  0  0  0  0  0  0  0  0  0
  191.5780  173.2800  137.1940 N   0  0  0  0  0  2  0  0  0  0  0  0
  193.1590  174.7070  138.1440 O   0  0  0  0  0  0  0  0  0  0  0  0
  192.8030  173.5270  137.8840 C   0  0  0  0  0  0  0  0  0  0  0  0
  193.6720  172.3800  138.2910 C   0  0  0  0  0  2  0  0  0  0  0  0
  193.6870  173.2690  140.5190 O   0  0  0  0  0  1  0  0  0  0  0  0
  193.6100  172.0750  139.7960 C   0  0  1  0  0  0  0  0  0  0  0  0
  190.3520  171.1090  141.6740 C   0  0  0  0  0  2  0  0  0  0  0  0
  190.6000  169.7020  141.6820 O   0  0  0  0  0  0  0  0  0  0  0  0
  192.2750  171.3700  140.1200 C   0  0  2  0  0  3  0  0  0  0  0  0
  191.5810  169.1150  140.8720 C   0  0  0  0  0  3  0  0  0  0  0  0
  191.6500  171.8720  141.4260 C   0  0  0  0  0  2  0  0  0  0  0  0
  192.4050  169.8670  140.1390 C   0  0  0  0  0  3  0  0  0  0  0  0
  195.3440  171.5930  141.4110 O   0  0  0  0  0  1  0  0  0  0  0  0
  194.7930  171.1840  140.1930 C   0  0  0  0  0  2  0  0  0  0  0  0
  1  5  2  0  0  0  0
  2  4  2  0  0  0  0
  3 29  1  1  0  0  0
  3  1  1  0  0  0  0
  3  2  1  0  0  0  0
  4 19  1  0  0  0  0
  5  4  1  0  0  0  0
  7  1  1  0  0  0  0
  7  9  1  0  0  0  0
  8  9  1  0  0  0  0
  8 11  1  0  0  0  0
  9 10  2  0  0  0  0
 11  6  2  0  0  0  0
 12 13  1  0  0  0  0
 12 11  1  0  0  0  0
 14 15  1  0  0  0  0
 14 16  1  0  0  0  0
 15 12  1  0  0  0  0
 16 13  1  0  0  0  0
 17 22  1  0  0  0  0
 18 23  1  0  0  0  0
 18 22  2  0  0  0  0
 19 18  1  0  0  0  0
 20 17  2  0  0  0  0
 21 19  2  0  0  0  0
 21 20  1  0  0  0  0
 23 24  1  0  0  0  0
 25 26  2  0  0  0  0
 26 24  1  0  0  0  0
 27 25  1  0  0  0  0
 28 27  1  0  0  0  0
 30 29  1  0  0  0  0
 32 31  2  0  0  0  0
 32 33  1  0  0  0  0
 33 30  1  0  0  0  0
 34 32  1  0  0  0  0
 35 34  2  0  0  0  0
 36 37  1  0  0  0  0
 36 34  1  0  0  0  0
 37 38  1  0  0  0  0
 38 40  1  0  0  0  0
 40 39  2  0  0  0  0
 40 41  1  0  0  0  0
 41 43  1  0  0  0  0
 43 51  1  0  0  0  0
 43 42  1  1  0  0  0
 44 45  1  0  0  0  0
 46 43  1  1  0  0  0
 46 49  1  0  0  0  0
 46 48  1  0  0  0  0
 47 45  1  0  0  0  0
 48 44  1  0  0  0  0
 49 47  2  0  0  0  0
 51 50  1  0  0  0  0
M  END
>  <MODEL>
7

>  <REMARK>
 VINA RESULT:      -5.8      1.626      2.480
  Name = 
  18 active torsions:
  status: ('A' for Active; 'I' for Inactive)
    1  A    between atoms: N_3  and  C_12
    2  A    between atoms: C_4  and  C_20
    3  A    between atoms: C_4  and  C_24
    4  A    between atoms: C_6  and  C_8
    5  A    between atoms: C_7  and  C_40
    6  A    between atoms: C_7  and  C_48
    7  A    between atoms: C_8  and  C_46
    8  A    between atoms: O_11  and  N_26
    9  A    between atoms: O_11  and  C_46
   10  A    between atoms: C_13  and  O_43
   11  A    between atoms: C_16  and  C_37
   12  A    between atoms: C_17  and  C_50
   13  A    between atoms: N_19  and  C_24
   14  A    between atoms: C_22  and  C_40
   15  A    between atoms: C_28  and  C_33
   16  A    between atoms: C_34  and  C_45
   17  A    between atoms: C_39  and  C_40
   18  A    between atoms: O_43  and  C_45
                            x       y       z     vdW  Elec       q    Type
                         _______ _______ _______ _____ _____    ______ ____

>  <TORSDO>
F 18

$$$$
=
 OpenBabel11042415243D

 51 54  0  0  1  0  0  0  0  0999 V2000
  191.0140  175.9720  143.1280 C   0  0  0  0  0  0  0  0  0  0  0  0
  192.5230  174.2710  143.4950 C   0  0  0  0  0  3  0  0  0  0  0  0
  191.0630  174.5670  143.6230 C   0  0  2  0  0  3  0  0  0  0  0  0
  193.1600  175.3330  143.0080 C   0  0  0  0  0  0  0  0  0  0  0  0
  192.2120  176.4150  142.7790 C   0  0  0  0  0  3  0  0  0  0  0  0
  187.0120  177.9160  146.1680 O   0  0  0  0  0  0  0  0  0  0  0  0
  189.8060  176.7440  143.0740 N   0  0  0  0  0  2  0  0  0  0  0  0
  187.8020  177.8740  143.9610 N   0  0  0  0  0  2  0  0  0  0  0  0
  188.9620  177.0640  144.1860 C   0  0  0  0  0  0  0  0  0  0  0  0
  189.2310  176.6420  145.3430 O   0  0  0  0  0  0  0  0  0  0  0  0
  186.8690  178.2800  144.9690 C   0  0  0  0  0  0  0  0  0  0  0  0
  185.7140  179.1420  144.5780 C   0  0  0  0  0  3  0  0  0  0  0  0
  185.3040  178.8910  143.1370 C   0  0  0  0  0  2  0  0  0  0  0  0
  183.3150  179.0470  144.5220 C   0  0  0  0  0  2  0  0  0  0  0  0
  184.5000  178.8490  145.4350 C   0  0  0  0  0  2  0  0  0  0  0  0
  183.8020  178.6670  143.1400 C   0  0  0  0  0  2  0  0  0  0  0  0
  197.3950  175.4200  142.2670 C   0  0  0  0  0  3  0  0  0  0  0  0
  195.5130  176.0130  143.6920 C   0  0  0  0  0  0  0  0  0  0  0  0
  194.6260  175.3950  142.7760 C   0  0  0  0  0  0  0  0  0  0  0  0
  196.5250  174.8200  141.3600 C   0  0  0  0  0  3  0  0  0  0  0  0
  195.1530  174.8080  141.6130 C   0  0  0  0  0  3  0  0  0  0  0  0
  196.8920  176.0140  143.4240 C   0  0  0  0  0  3  0  0  0  0  0  0
  195.0160  176.6320  144.8480 O   0  0  0  0  0  0  0  0  0  0  0  0
  194.9410  175.9860  146.1150 C   0  0  0  0  0  2  0  0  0  0  0  0
  192.7480  175.1870  146.8780 C   0  0  0  0  0  3  0  0  0  0  0  0
  193.5970  176.2040  146.7310 C   0  0  0  0  0  3  0  0  0  0  0  0
  191.4040  175.3940  147.4960 C   0  0  0  0  0  2  0  0  0  0  0  0
  191.2960  176.7900  148.0800 C   0  0  0  0  0  1  0  0  0  0  0  0
  190.2570  173.6590  142.7050 C   0  0  0  0  0  2  0  0  0  0  0  0
  190.4250  174.0920  141.2620 C   0  0  0  0  0  2  0  0  0  0  0  0
  188.8180  172.6410  139.4420 O   0  0  0  0  0  0  0  0  0  0  0  0
  190.0220  172.2850  139.5560 C   0  0  0  0  0  0  0  0  0  0  0  0
  190.8870  172.9660  140.4680 N   0  0  0  0  0  2  0  0  0  0  0  0
  190.5380  171.1660  138.7550 C   0  0  0  0  0  0  0  0  0  0  0  0
  190.9430  171.3730  137.5780 O   0  0  0  0  0  0  0  0  0  0  0  0
  190.5800  169.7870  139.3370 C   0  0  0  0  0  2  0  0  0  0  0  0
  191.8980  169.3520  139.5110 O   0  0  0  0  0  0  0  0  0  0  0  0
  192.2650  169.8320  140.7240 N   0  0  0  0  0  2  0  0  0  0  0  0
  194.3130  170.6360  139.9490 O   0  0  0  0  0  0  0  0  0  0  0  0
  193.5040  170.5170  140.9070 C   0  0  0  0  0  0  0  0  0  0  0  0
  193.8490  171.0870  142.2470 C   0  0  0  0  0  2  0  0  0  0  0  0
  194.5880  168.8340  142.6030 O   0  0  0  0  0  1  0  0  0  0  0  0
  194.2720  170.0210  143.2700 C   0  0  1  0  0  0  0  0  0  0  0  0
  196.8190  170.5200  146.1560 C   0  0  0  0  0  2  0  0  0  0  0  0
  196.8060  171.9470  146.1180 O   0  0  0  0  0  0  0  0  0  0  0  0
  195.5140  170.5180  144.0410 C   0  0  2  0  0  3  0  0  0  0  0  0
  196.2590  172.6570  145.0410 C   0  0  0  0  0  3  0  0  0  0  0  0
  195.5770  169.9620  145.4680 C   0  0  0  0  0  2  0  0  0  0  0  0
  195.6210  172.0230  144.0550 C   0  0  0  0  0  3  0  0  0  0  0  0
  192.2120  170.8120  144.2590 O   0  0  0  0  0  1  0  0  0  0  0  0
  193.1160  169.7470  144.2390 C   0  0  0  0  0  2  0  0  0  0  0  0
  1  3  1  0  0  0  0
  2  3  1  0  0  0  0
  3 29  1  6  0  0  0
  4  2  2  0  0  0  0
  5  4  1  0  0  0  0
  5  1  2  0  0  0  0
  7  1  1  0  0  0  0
  7  9  1  0  0  0  0
  8  9  1  0  0  0  0
  8 11  1  0  0  0  0
  9 10  2  0  0  0  0
 11  6  2  0  0  0  0
 12 11  1  0  0  0  0
 12 15  1  0  0  0  0
 13 16  1  0  0  0  0
 13 12  1  0  0  0  0
 14 15  1  0  0  0  0
 16 14  1  0  0  0  0
 17 22  1  0  0  0  0
 18 23  1  0  0  0  0
 19  4  1  0  0  0  0
 19 18  1  0  0  0  0
 20 21  1  0  0  0  0
 20 17  2  0  0  0  0
 21 19  2  0  0  0  0
 22 18  2  0  0  0  0
 23 24  1  0  0  0  0
 24 26  1  0  0  0  0
 25 27  1  0  0  0  0
 26 25  2  0  0  0  0
 27 28  1  0  0  0  0
 30 29  1  0  0  0  0
 31 32  2  0  0  0  0
 32 33  1  0  0  0  0
 33 30  1  0  0  0  0
 34 36  1  0  0  0  0
 34 32  1  0  0  0  0
 35 34  2  0  0  0  0
 36 37  1  0  0  0  0
 37 38  1  0  0  0  0
 38 40  1  0  0  0  0
 39 40  2  0  0  0  0
 40 41  1  0  0  0  0
 41 43  1  0  0  0  0
 43 42  1  6  0  0  0
 43 51  1  0  0  0  0
 45 44  1  0  0  0  0
 46 43  1  1  0  0  0
 46 49  1  0  0  0  0
 46 48  1  0  0  0  0
 47 45  1  0  0  0  0
 48 44  1  0  0  0  0
 49 47  2  0  0  0  0
 51 50  1  0  0  0  0
M  END
>  <MODEL>
8

>  <REMARK>
 VINA RESULT:      -5.7      1.913      6.615
  Name = 
  18 active torsions:
  status: ('A' for Active; 'I' for Inactive)
    1  A    between atoms: N_3  and  C_12
    2  A    between atoms: C_4  and  C_20
    3  A    between atoms: C_4  and  C_24
    4  A    between atoms: C_6  and  C_8
    5  A    between atoms: C_7  and  C_40
    6  A    between atoms: C_7  and  C_48
    7  A    between atoms: C_8  and  C_46
    8  A    between atoms: O_11  and  N_26
    9  A    between atoms: O_11  and  C_46
   10  A    between atoms: C_13  and  O_43
   11  A    between atoms: C_16  and  C_37
   12  A    between atoms: C_17  and  C_50
   13  A    between atoms: N_19  and  C_24
   14  A    between atoms: C_22  and  C_40
   15  A    between atoms: C_28  and  C_33
   16  A    between atoms: C_34  and  C_45
   17  A    between atoms: C_39  and  C_40
   18  A    between atoms: O_43  and  C_45
                            x       y       z     vdW  Elec       q    Type
                         _______ _______ _______ _____ _____    ______ ____

>  <TORSDO>
F 18

$$$$
=
 OpenBabel11042415243D

 51 54  0  0  1  0  0  0  0  0999 V2000
  188.7150  176.6490  142.6580 C   0  0  0  0  0  0  0  0  0  0  0  0
  186.7540  177.8570  142.6720 C   0  0  0  0  0  3  0  0  0  0  0  0
  187.8070  177.3750  141.7250 C   0  0  2  0  0  3  0  0  0  0  0  0
  187.0380  177.4580  143.9080 C   0  0  0  0  0  0  0  0  0  0  0  0
  188.2810  176.6980  143.9080 C   0  0  0  0  0  3  0  0  0  0  0  0
  194.0110  176.3990  143.6180 O   0  0  0  0  0  0  0  0  0  0  0  0
  189.9260  176.0100  142.2350 N   0  0  0  0  0  2  0  0  0  0  0  0
  192.3350  175.4820  142.2600 N   0  0  0  0  0  2  0  0  0  0  0  0
  191.2310  176.2300  142.7830 C   0  0  0  0  0  0  0  0  0  0  0  0
  191.4080  177.0670  143.7080 O   0  0  0  0  0  0  0  0  0  0  0  0
  193.6920  175.5890  142.7060 C   0  0  0  0  0  0  0  0  0  0  0  0
  194.7320  174.7260  142.0700 C   0  0  0  0  0  3  0  0  0  0  0  0
  195.1200  173.5730  142.9820 C   0  0  0  0  0  2  0  0  0  0  0  0
  194.8690  172.7520  140.7090 C   0  0  0  0  0  2  0  0  0  0  0  0
  194.2200  174.1120  140.7840 C   0  0  0  0  0  2  0  0  0  0  0  0
  195.0410  172.3080  142.1460 C   0  0  0  0  0  2  0  0  0  0  0  0
  184.5970  178.4730  147.2990 C   0  0  0  0  0  3  0  0  0  0  0  0
  186.6820  177.5750  146.4230 C   0  0  0  0  0  0  0  0  0  0  0  0
  186.2150  177.7820  145.1020 C   0  0  0  0  0  0  0  0  0  0  0  0
  184.1310  178.6700  146.0020 C   0  0  0  0  0  3  0  0  0  0  0  0
  184.9340  178.3270  144.9140 C   0  0  0  0  0  3  0  0  0  0  0  0
  185.8630  177.9290  147.5090 C   0  0  0  0  0  3  0  0  0  0  0  0
  187.9450  177.0080  146.6450 O   0  0  0  0  0  0  0  0  0  0  0  0
  188.1380  175.6760  147.1120 C   0  0  0  0  0  2  0  0  0  0  0  0
  190.5030  176.3420  147.1250 C   0  0  0  0  0  3  0  0  0  0  0  0
  189.5970  175.3670  147.2140 C   0  0  0  0  0  3  0  0  0  0  0  0
  191.9620  176.0440  147.2290 C   0  0  0  0  0  2  0  0  0  0  0  0
  192.3380  174.8970  146.3100 C   0  0  0  0  0  1  0  0  0  0  0  0
  187.2080  176.4060  140.7170 C   0  0  0  0  0  2  0  0  0  0  0  0
  186.4000  177.1620  139.6790 C   0  0  0  0  0  2  0  0  0  0  0  0
  185.5570  176.0360  137.2260 O   0  0  0  0  0  0  0  0  0  0  0  0
  186.6580  176.6490  137.2280 C   0  0  0  0  0  0  0  0  0  0  0  0
  187.1510  177.2310  138.4370 N   0  0  0  0  0  2  0  0  0  0  0  0
  187.4390  176.7640  135.9880 C   0  0  0  0  0  0  0  0  0  0  0  0
  187.8100  177.9010  135.5850 O   0  0  0  0  0  0  0  0  0  0  0  0
  187.7910  175.5350  135.2100 C   0  0  0  0  0  2  0  0  0  0  0  0
  189.0840  175.0970  135.5140 O   0  0  0  0  0  0  0  0  0  0  0  0
  188.9630  174.4570  136.7030 N   0  0  0  0  0  2  0  0  0  0  0  0
  189.7700  172.4360  135.8610 O   0  0  0  0  0  0  0  0  0  0  0  0
  189.3560  173.0920  136.8540 C   0  0  0  0  0  0  0  0  0  0  0  0
  189.2650  172.4350  138.1940 C   0  0  0  0  0  2  0  0  0  0  0  0
  191.4230  173.4570  138.4250 O   0  0  0  0  0  1  0  0  0  0  0  0
  190.5770  172.4980  138.9910 C   0  0  1  0  0  0  0  0  0  0  0  0
  190.5830  172.4170  142.8730 C   0  0  0  0  0  2  0  0  0  0  0  0
  189.1630  172.4390  143.0210 O   0  0  0  0  0  0  0  0  0  0  0  0
  190.2700  172.8910  140.4530 C   0  0  2  0  0  3  0  0  0  0  0  0
  188.3090  172.7680  141.9600 C   0  0  0  0  0  3  0  0  0  0  0  0
  190.9600  171.9680  141.4640 C   0  0  0  0  0  2  0  0  0  0  0  0
  188.7880  172.9650  140.7300 C   0  0  0  0  0  3  0  0  0  0  0  0
  192.5720  171.2550  138.4250 O   0  0  0  0  0  1  0  0  0  0  0  0
  191.2800  171.1360  138.9420 C   0  0  0  0  0  2  0  0  0  0  0  0
  1  5  2  0  0  0  0
  2  4  2  0  0  0  0
  3 29  1  6  0  0  0
  3  1  1  0  0  0  0
  3  2  1  0  0  0  0
  4  5  1  0  0  0  0
  4 19  1  0  0  0  0
  7  1  1  0  0  0  0
  7  9  1  0  0  0  0
  8 11  1  0  0  0  0
  8  9  1  0  0  0  0
  9 10  2  0  0  0  0
 11  6  2  0  0  0  0
 12 11  1  0  0  0  0
 12 13  1  0  0  0  0
 14 15  1  0  0  0  0
 14 16  1  0  0  0  0
 15 12  1  0  0  0  0
 16 13  1  0  0  0  0
 17 22  1  0  0  0  0
 18 23  1  0  0  0  0
 18 22  2  0  0  0  0
 19 18  1  0  0  0  0
 20 17  2  0  0  0  0
 21 19  2  0  0  0  0
 21 20  1  0  0  0  0
 23 24  1  0  0  0  0
 24 26  1  0  0  0  0
 25 26  2  0  0  0  0
 25 27  1  0  0  0  0
 28 27  1  0  0  0  0
 30 29  1  0  0  0  0
 31 32  2  0  0  0  0
 32 33  1  0  0  0  0
 33 30  1  0  0  0  0
 34 32  1  0  0  0  0
 35 34  2  0  0  0  0
 36 37  1  0  0  0  0
 36 34  1  0  0  0  0
 37 38  1  0  0  0  0
 38 40  1  0  0  0  0
 39 40  2  0  0  0  0
 40 41  1  0  0  0  0
 41 43  1  0  0  0  0
 43 42  1  6  0  0  0
 44 45  1  0  0  0  0
 46 43  1  6  0  0  0
 46 49  1  0  0  0  0
 46 48  1  0  0  0  0
 47 45  1  0  0  0  0
 48 44  1  0  0  0  0
 49 47  2  0  0  0  0
 50 51  1  0  0  0  0
 51 43  1  0  0  0  0
M  END
>  <MODEL>
9

>  <REMARK>
 VINA RESULT:      -5.7      2.165      3.713
  Name = 
  18 active torsions:
  status: ('A' for Active; 'I' for Inactive)
    1  A    between atoms: N_3  and  C_12
    2  A    between atoms: C_4  and  C_20
    3  A    between atoms: C_4  and  C_24
    4  A    between atoms: C_6  and  C_8
    5  A    between atoms: C_7  and  C_40
    6  A    between atoms: C_7  and  C_48
    7  A    between atoms: C_8  and  C_46
    8  A    between atoms: O_11  and  N_26
    9  A    between atoms: O_11  and  C_46
   10  A    between atoms: C_13  and  O_43
   11  A    between atoms: C_16  and  C_37
   12  A    between atoms: C_17  and  C_50
   13  A    between atoms: N_19  and  C_24
   14  A    between atoms: C_22  and  C_40
   15  A    between atoms: C_28  and  C_33
   16  A    between atoms: C_34  and  C_45
   17  A    between atoms: C_39  and  C_40
   18  A    between atoms: O_43  and  C_45
                            x       y       z     vdW  Elec       q    Type
                         _______ _______ _______ _____ _____    ______ ____

>  <TORSDO>
F 18

$$$$
